
 OpenBabel03242522243D

 31 34  0  0  0  0  0  0  0  0999 V2000
   39.3630   26.9190   43.7270 C   0  0  0  0  0  0  0  0  0  0  0  0
   39.1200   28.1850   43.1660 C   0  0  0  0  0  0  0  0  0  0  0  0
   38.4900   28.3030   41.9300 C   0  0  0  0  0  0  0  0  0  0  0  0
   38.1360   27.1550   41.3190 N   0  0  0  0  0  0  0  0  0  0  0  0
   38.3700   25.9480   41.8600 C   0  0  0  0  0  0  0  0  0  0  0  0
   38.9730   25.8390   43.0420 N   0  0  0  0  0  0  0  0  0  0  0  0
   39.8470   26.8260   44.6760 H   0  0  0  0  0  0  0  0  0  0  0  0
   39.4180   29.0730   43.6870 H   0  0  0  0  0  0  0  0  0  0  0  0
   37.9530   24.7540   41.1300 C   0  0  0  0  0  0  0  0  0  0  0  0
   38.8500   23.7450   40.8500 C   0  0  0  0  0  0  0  0  0  0  0  0
   39.8940   23.8430   41.1840 H   0  0  0  0  0  0  0  0  0  0  0  0
   38.4710   22.6010   40.1560 C   0  0  0  0  0  3  0  0  0  0  0  0
   37.1510   22.4860   39.7400 C   0  0  0  0  0  0  0  0  0  0  0  0
   36.8170   21.3730   39.0730 N   0  0  0  0  0  0  0  0  0  0  0  0
   35.5600   21.1950   38.6410 C   0  0  0  0  0  0  0  0  0  0  0  0
   35.3110   20.2900   38.1050 H   0  0  0  0  0  0  0  0  0  0  0  0
   34.6170   22.1710   38.8900 C   0  0  0  0  0  3  0  0  0  0  0  0
   34.9620   23.3070   39.5720 C   0  0  0  0  0  3  0  0  0  0  0  0
   36.2460   23.4850   40.0110 C   0  0  0  0  0  0  0  0  0  0  0  0
   36.6450   24.6160   40.7040 C   0  0  0  0  0  3  0  0  0  0  0  0
   35.6840   28.7060   41.2120 Cl  0  0  0  0  0  0  0  0  0  0  0  0
   36.9430   29.9030   40.9570 C   0  0  0  0  0  0  0  0  0  0  0  0
   38.2290   29.6110   41.3310 C   0  0  0  0  0  0  0  0  0  0  0  0
   39.1980   30.5810   41.1140 C   0  0  0  0  0  0  0  0  0  0  0  0
   38.8730   31.7990   40.5400 C   0  0  0  0  0  0  0  0  0  0  0  0
   37.5540   32.0280   40.1870 C   0  0  0  0  0  0  0  0  0  0  0  0
   37.1240   33.5660   39.4590 Cl  0  0  0  0  0  0  0  0  0  0  0  0
   36.5490   31.0940   40.3820 C   0  0  0  0  0  0  0  0  0  0  0  0
   40.1970   30.3270   41.4150 H   0  0  0  0  0  0  0  0  0  0  0  0
   39.6550   32.5330   40.3860 H   0  0  0  0  0  0  0  0  0  0  0  0
   35.5230   31.2920   40.0980 H   0  0  0  0  0  0  0  0  0  0  0  0
  1  7  1  0  0  0  0
  2  8  1  0  0  0  0
  2  1  1  0  0  0  0
  3  2  2  0  0  0  0
  4  5  2  0  0  0  0
  4  3  1  0  0  0  0
  5  6  1  0  0  0  0
  6  1  2  0  0  0  0
  9  5  1  0  0  0  0
 10  9  1  0  0  0  0
 10 11  1  0  0  0  0
 12 10  2  0  0  0  0
 13 19  1  0  0  0  0
 13 12  1  0  0  0  0
 14 13  2  0  0  0  0
 15 17  2  0  0  0  0
 15 14  1  0  0  0  0
 16 15  1  0  0  0  0
 17 18  1  0  0  0  0
 18 19  2  0  0  0  0
 19 20  1  0  0  0  0
 20  9  2  0  0  0  0
 22 21  1  0  0  0  0
 22 23  1  0  0  0  0
 23  3  1  0  0  0  0
 24 23  2  0  0  0  0
 24 29  1  0  0  0  0
 25 24  1  0  0  0  0
 26 28  1  0  0  0  0
 26 25  2  0  0  0  0
 27 26  1  0  0  0  0
 28 22  2  0  0  0  0
 30 25  1  0  0  0  0
 31 28  1  0  0  0  0
M  END
>  <minimizedAffinity>
-6.21041393

$$$$

 OpenBabel03242522243D

 31 34  0  0  0  0  0  0  0  0999 V2000
   39.4010   34.2770   40.0880 C   0  0  0  0  0  0  0  0  0  0  0  0
   38.7940   33.1850   40.7320 C   0  0  0  0  0  0  0  0  0  0  0  0
   39.3430   31.9100   40.6340 C   0  0  0  0  0  0  0  0  0  0  0  0
   40.4670   31.7900   39.9000 N   0  0  0  0  0  0  0  0  0  0  0  0
   41.0430   32.8370   39.2860 C   0  0  0  0  0  0  0  0  0  0  0  0
   40.5150   34.0550   39.3840 N   0  0  0  0  0  0  0  0  0  0  0  0
   38.9810   35.2580   40.1630 H   0  0  0  0  0  0  0  0  0  0  0  0
   37.9000   33.3250   41.3070 H   0  0  0  0  0  0  0  0  0  0  0  0
   42.2610   32.6170   38.5110 C   0  0  0  0  0  0  0  0  0  0  0  0
   43.3590   33.4360   38.6720 C   0  0  0  0  0  0  0  0  0  0  0  0
   43.3150   34.2640   39.3960 H   0  0  0  0  0  0  0  0  0  0  0  0
   44.5280   33.2430   37.9430 C   0  0  0  0  0  3  0  0  0  0  0  0
   44.5750   32.1960   37.0320 C   0  0  0  0  0  0  0  0  0  0  0  0
   45.7140   32.0360   36.3450 N   0  0  0  0  0  0  0  0  0  0  0  0
   45.8300   31.0450   35.4490 C   0  0  0  0  0  0  0  0  0  0  0  0
   46.7580   30.9340   34.9050 H   0  0  0  0  0  0  0  0  0  0  0  0
   44.7640   30.1940   35.2430 C   0  0  0  0  0  3  0  0  0  0  0  0
   43.6010   30.3600   35.9480 C   0  0  0  0  0  3  0  0  0  0  0  0
   43.4870   31.3730   36.8610 C   0  0  0  0  0  0  0  0  0  0  0  0
   42.3330   31.5830   37.5990 C   0  0  0  0  0  3  0  0  0  0  0  0
   37.0600   30.8160   39.1670 Cl  0  0  0  0  0  0  0  0  0  0  0  0
   37.6460   30.1720   40.6920 C   0  0  0  0  0  0  0  0  0  0  0  0
   38.7250   30.7620   41.2960 C   0  0  0  0  0  0  0  0  0  0  0  0
   39.1600   30.2260   42.5020 C   0  0  0  0  0  0  0  0  0  0  0  0
   38.5230   29.1350   43.0690 C   0  0  0  0  0  0  0  0  0  0  0  0
   37.4390   28.5880   42.4040 C   0  0  0  0  0  0  0  0  0  0  0  0
   36.6190   27.2050   43.1080 Cl  0  0  0  0  0  0  0  0  0  0  0  0
   36.9650   29.0850   41.2000 C   0  0  0  0  0  0  0  0  0  0  0  0
   40.0070   30.7060   42.9540 H   0  0  0  0  0  0  0  0  0  0  0  0
   38.8900   28.7420   44.0100 H   0  0  0  0  0  0  0  0  0  0  0  0
   36.1140   28.6430   40.6960 H   0  0  0  0  0  0  0  0  0  0  0  0
  1  7  1  0  0  0  0
  1  2  1  0  0  0  0
  2  8  1  0  0  0  0
  3  2  2  0  0  0  0
  3 23  1  0  0  0  0
  4  3  1  0  0  0  0
  5  6  1  0  0  0  0
  5  4  2  0  0  0  0
  6  1  2  0  0  0  0
  9 10  1  0  0  0  0
  9  5  1  0  0  0  0
 10 11  1  0  0  0  0
 12 10  2  0  0  0  0
 13 12  1  0  0  0  0
 14 13  2  0  0  0  0
 15 14  1  0  0  0  0
 16 15  1  0  0  0  0
 17 15  2  0  0  0  0
 17 18  1  0  0  0  0
 18 19  2  0  0  0  0
 19 13  1  0  0  0  0
 19 20  1  0  0  0  0
 20  9  2  0  0  0  0
 21 22  1  0  0  0  0
 22 28  2  0  0  0  0
 22 23  1  0  0  0  0
 23 24  2  0  0  0  0
 24 29  1  0  0  0  0
 24 25  1  0  0  0  0
 25 30  1  0  0  0  0
 26 25  2  0  0  0  0
 26 27  1  0  0  0  0
 28 26  1  0  0  0  0
 31 28  1  0  0  0  0
M  END
>  <minimizedAffinity>
-6.14626169

$$$$

 OpenBabel03242522243D

 31 34  0  0  0  0  0  0  0  0999 V2000
   37.2250   27.7980   43.8800 C   0  0  0  0  0  0  0  0  0  0  0  0
   37.7210   29.0270   43.4110 C   0  0  0  0  0  0  0  0  0  0  0  0
   38.0230   29.2010   42.0640 C   0  0  0  0  0  0  0  0  0  0  0  0
   37.8140   28.1430   41.2550 N   0  0  0  0  0  0  0  0  0  0  0  0
   37.3400   26.9710   41.7090 C   0  0  0  0  0  0  0  0  0  0  0  0
   37.0520   26.8090   42.9980 N   0  0  0  0  0  0  0  0  0  0  0  0
   36.9920   27.6620   44.9160 H   0  0  0  0  0  0  0  0  0  0  0  0
   37.8720   29.8440   44.0900 H   0  0  0  0  0  0  0  0  0  0  0  0
   37.1420   25.8760   40.7630 C   0  0  0  0  0  0  0  0  0  0  0  0
   36.4690   26.0780   39.5770 C   0  0  0  0  0  0  0  0  0  0  0  0
   36.0750   27.0790   39.3420 H   0  0  0  0  0  0  0  0  0  0  0  0
   36.2710   25.0480   38.6640 C   0  0  0  0  0  3  0  0  0  0  0  0
   36.7700   23.7880   38.9690 C   0  0  0  0  0  0  0  0  0  0  0  0
   36.5630   22.8160   38.0690 N   0  0  0  0  0  0  0  0  0  0  0  0
   37.0180   21.5750   38.2980 C   0  0  0  0  0  0  0  0  0  0  0  0
   36.8400   20.8060   37.5600 H   0  0  0  0  0  0  0  0  0  0  0  0
   37.7000   21.3120   39.4680 C   0  0  0  0  0  3  0  0  0  0  0  0
   37.9090   22.3080   40.3850 C   0  0  0  0  0  3  0  0  0  0  0  0
   37.4430   23.5720   40.1470 C   0  0  0  0  0  0  0  0  0  0  0  0
   37.6290   24.6140   41.0420 C   0  0  0  0  0  3  0  0  0  0  0  0
   35.9930   30.8220   40.7190 Cl  0  0  0  0  0  0  0  0  0  0  0  0
   37.6700   31.3090   40.9090 C   0  0  0  0  0  0  0  0  0  0  0  0
   38.5400   30.4720   41.5570 C   0  0  0  0  0  0  0  0  0  0  0  0
   39.8580   30.8900   41.6890 C   0  0  0  0  0  0  0  0  0  0  0  0
   40.2730   32.1100   41.1820 C   0  0  0  0  0  0  0  0  0  0  0  0
   39.3410   32.9070   40.5390 C   0  0  0  0  0  0  0  0  0  0  0  0
   39.8500   34.4550   39.8900 Cl  0  0  0  0  0  0  0  0  0  0  0  0
   38.0150   32.5360   40.3810 C   0  0  0  0  0  0  0  0  0  0  0  0
   40.5180   30.2160   42.2000 H   0  0  0  0  0  0  0  0  0  0  0  0
   41.3090   32.4040   41.3030 H   0  0  0  0  0  0  0  0  0  0  0  0
   37.3010   33.1740   39.8740 H   0  0  0  0  0  0  0  0  0  0  0  0
  1  7  1  0  0  0  0
  2  1  1  0  0  0  0
  2  8  1  0  0  0  0
  3  2  2  0  0  0  0
  4  5  2  0  0  0  0
  4  3  1  0  0  0  0
  5  6  1  0  0  0  0
  6  1  2  0  0  0  0
  9 20  1  0  0  0  0
  9  5  1  0  0  0  0
 10  9  2  0  0  0  0
 11 10  1  0  0  0  0
 12 13  2  0  0  0  0
 12 10  1  0  0  0  0
 13 19  1  0  0  0  0
 14 15  2  0  0  0  0
 14 13  1  0  0  0  0
 15 17  1  0  0  0  0
 16 15  1  0  0  0  0
 17 18  2  0  0  0  0
 19 18  1  0  0  0  0
 19 20  2  0  0  0  0
 21 22  1  0  0  0  0
 22 23  1  0  0  0  0
 23 24  2  0  0  0  0
 23  3  1  0  0  0  0
 24 29  1  0  0  0  0
 25 30  1  0  0  0  0
 25 24  1  0  0  0  0
 26 25  2  0  0  0  0
 27 26  1  0  0  0  0
 28 26  1  0  0  0  0
 28 22  2  0  0  0  0
 31 28  1  0  0  0  0
M  END
>  <minimizedAffinity>
-6.1328001

$$$$

 OpenBabel03242522243D

 31 34  0  0  0  0  0  0  0  0999 V2000
   36.9210   28.0660   44.2110 C   0  0  0  0  0  0  0  0  0  0  0  0
   36.8510   26.8760   43.4660 C   0  0  0  0  0  0  0  0  0  0  0  0
   37.5740   26.7360   42.2850 C   0  0  0  0  0  0  0  0  0  0  0  0
   38.3300   27.7870   41.9100 N   0  0  0  0  0  0  0  0  0  0  0  0
   38.3930   28.9220   42.6250 C   0  0  0  0  0  0  0  0  0  0  0  0
   37.6990   29.0520   43.7540 N   0  0  0  0  0  0  0  0  0  0  0  0
   36.3650   28.1760   45.1190 H   0  0  0  0  0  0  0  0  0  0  0  0
   36.2370   26.0630   43.8020 H   0  0  0  0  0  0  0  0  0  0  0  0
   39.2370   30.0130   42.1450 C   0  0  0  0  0  0  0  0  0  0  0  0
   40.6100   29.9440   42.2510 C   0  0  0  0  0  0  0  0  0  0  0  0
   41.0730   29.0530   42.7030 H   0  0  0  0  0  0  0  0  0  0  0  0
   41.4310   30.9720   41.8000 C   0  0  0  0  0  3  0  0  0  0  0  0
   40.8370   32.0920   41.2320 C   0  0  0  0  0  0  0  0  0  0  0  0
   41.6540   33.0660   40.8070 N   0  0  0  0  0  0  0  0  0  0  0  0
   41.1500   34.1750   40.2480 C   0  0  0  0  0  0  0  0  0  0  0  0
   41.8260   34.9490   39.9120 H   0  0  0  0  0  0  0  0  0  0  0  0
   39.7820   34.3020   40.1150 C   0  0  0  0  0  3  0  0  0  0  0  0
   38.9510   33.3040   40.5500 C   0  0  0  0  0  3  0  0  0  0  0  0
   39.4700   32.1740   41.1210 C   0  0  0  0  0  0  0  0  0  0  0  0
   38.6710   31.1370   41.5760 C   0  0  0  0  0  3  0  0  0  0  0  0
   39.5430   24.7360   43.1100 Cl  0  0  0  0  0  0  0  0  0  0  0  0
   38.3950   24.5010   41.8020 C   0  0  0  0  0  0  0  0  0  0  0  0
   37.5140   25.5060   41.4970 C   0  0  0  0  0  0  0  0  0  0  0  0
   36.6210   25.2850   40.4560 C   0  0  0  0  0  0  0  0  0  0  0  0
   36.6240   24.0900   39.7550 C   0  0  0  0  0  0  0  0  0  0  0  0
   37.5410   23.1180   40.1160 C   0  0  0  0  0  0  0  0  0  0  0  0
   37.5600   21.5990   39.2370 Cl  0  0  0  0  0  0  0  0  0  0  0  0
   38.4530   23.2890   41.1460 C   0  0  0  0  0  0  0  0  0  0  0  0
   35.9420   26.0870   40.2380 H   0  0  0  0  0  0  0  0  0  0  0  0
   35.9130   23.9520   38.9490 H   0  0  0  0  0  0  0  0  0  0  0  0
   39.1630   22.5150   41.4120 H   0  0  0  0  0  0  0  0  0  0  0  0
  1  7  1  0  0  0  0
  2  8  1  0  0  0  0
  2  1  2  0  0  0  0
  3  2  1  0  0  0  0
  4  3  2  0  0  0  0
  4  5  1  0  0  0  0
  5  6  2  0  0  0  0
  6  1  1  0  0  0  0
  9 10  1  0  0  0  0
  9  5  1  0  0  0  0
 10 11  1  0  0  0  0
 12 10  2  0  0  0  0
 13 12  1  0  0  0  0
 14 13  2  0  0  0  0
 15 14  1  0  0  0  0
 16 15  1  0  0  0  0
 17 15  2  0  0  0  0
 17 18  1  0  0  0  0
 18 19  2  0  0  0  0
 19 13  1  0  0  0  0
 19 20  1  0  0  0  0
 20  9  2  0  0  0  0
 22 21  1  0  0  0  0
 23 22  1  0  0  0  0
 23  3  1  0  0  0  0
 24 23  2  0  0  0  0
 25 26  2  0  0  0  0
 25 24  1  0  0  0  0
 26 28  1  0  0  0  0
 27 26  1  0  0  0  0
 28 31  1  0  0  0  0
 28 22  2  0  0  0  0
 29 24  1  0  0  0  0
 30 25  1  0  0  0  0
M  END
>  <minimizedAffinity>
-6.11293888

$$$$

 OpenBabel03242522243D

 31 34  0  0  0  0  0  0  0  0999 V2000
   34.1480   26.8290   36.8360 C   0  0  0  0  0  0  0  0  0  0  0  0
   35.0690   27.2350   37.8180 C   0  0  0  0  0  0  0  0  0  0  0  0
   34.9390   28.4710   38.4440 C   0  0  0  0  0  0  0  0  0  0  0  0
   33.8980   29.2370   38.0600 N   0  0  0  0  0  0  0  0  0  0  0  0
   33.0210   28.8450   37.1210 C   0  0  0  0  0  0  0  0  0  0  0  0
   33.1500   27.6610   36.5250 N   0  0  0  0  0  0  0  0  0  0  0  0
   34.2480   25.8800   36.3530 H   0  0  0  0  0  0  0  0  0  0  0  0
   35.8830   26.5930   38.0940 H   0  0  0  0  0  0  0  0  0  0  0  0
   31.9220   29.7380   36.7650 C   0  0  0  0  0  0  0  0  0  0  0  0
   30.9300   30.0360   37.6750 C   0  0  0  0  0  0  0  0  0  0  0  0
   30.9700   29.5940   38.6820 H   0  0  0  0  0  0  0  0  0  0  0  0
   29.8750   30.8840   37.3550 C   0  0  0  0  0  3  0  0  0  0  0  0
   29.8320   31.4360   36.0810 C   0  0  0  0  0  0  0  0  0  0  0  0
   28.8040   32.2480   35.8020 N   0  0  0  0  0  0  0  0  0  0  0  0
   28.6990   32.8160   34.5920 C   0  0  0  0  0  0  0  0  0  0  0  0
   27.8610   33.4680   34.3880 H   0  0  0  0  0  0  0  0  0  0  0  0
   29.6620   32.5550   33.6390 C   0  0  0  0  0  3  0  0  0  0  0  0
   30.7120   31.7250   33.9280 C   0  0  0  0  0  3  0  0  0  0  0  0
   30.8140   31.1460   35.1640 C   0  0  0  0  0  0  0  0  0  0  0  0
   31.8570   30.3000   35.5050 C   0  0  0  0  0  3  0  0  0  0  0  0
   37.0230   30.2430   37.4080 Cl  0  0  0  0  0  0  0  0  0  0  0  0
   36.9040   29.7450   39.0880 C   0  0  0  0  0  0  0  0  0  0  0  0
   35.8860   28.9100   39.4680 C   0  0  0  0  0  0  0  0  0  0  0  0
   35.8240   28.5370   40.8040 C   0  0  0  0  0  0  0  0  0  0  0  0
   36.7600   28.9950   41.7170 C   0  0  0  0  0  0  0  0  0  0  0  0
   37.7620   29.8370   41.2650 C   0  0  0  0  0  0  0  0  0  0  0  0
   38.9560   30.4260   42.4080 Cl  0  0  0  0  0  0  0  0  0  0  0  0
   37.8690   30.2380   39.9430 C   0  0  0  0  0  0  0  0  0  0  0  0
   35.0170   27.8830   41.0750 H   0  0  0  0  0  0  0  0  0  0  0  0
   36.6800   28.6840   42.7520 H   0  0  0  0  0  0  0  0  0  0  0  0
   38.6610   30.8970   39.6090 H   0  0  0  0  0  0  0  0  0  0  0  0
  1  2  1  0  0  0  0
  2  8  1  0  0  0  0
  2  3  2  0  0  0  0
  3 23  1  0  0  0  0
  4  3  1  0  0  0  0
  5  4  2  0  0  0  0
  6  1  2  0  0  0  0
  6  5  1  0  0  0  0
  7  1  1  0  0  0  0
  9  5  1  0  0  0  0
  9 10  1  0  0  0  0
 10 11  1  0  0  0  0
 12 10  2  0  0  0  0
 13 12  1  0  0  0  0
 14 13  1  0  0  0  0
 15 14  2  0  0  0  0
 16 15  1  0  0  0  0
 17 18  2  0  0  0  0
 17 15  1  0  0  0  0
 18 19  1  0  0  0  0
 19 20  1  0  0  0  0
 19 13  2  0  0  0  0
 20  9  2  0  0  0  0
 21 22  1  0  0  0  0
 22 23  2  0  0  0  0
 22 28  1  0  0  0  0
 23 24  1  0  0  0  0
 24 29  1  0  0  0  0
 24 25  2  0  0  0  0
 25 30  1  0  0  0  0
 26 25  1  0  0  0  0
 26 27  1  0  0  0  0
 28 26  2  0  0  0  0
 31 28  1  0  0  0  0
M  END
>  <minimizedAffinity>
-6.01482677

$$$$

 OpenBabel03242522243D

 31 34  0  0  0  0  0  0  0  0999 V2000
   37.3300   27.9810   43.9640 C   0  0  0  0  0  0  0  0  0  0  0  0
   37.8900   29.1610   43.4440 C   0  0  0  0  0  0  0  0  0  0  0  0
   38.1180   29.2950   42.0780 C   0  0  0  0  0  0  0  0  0  0  0  0
   37.7750   28.2470   41.3020 N   0  0  0  0  0  0  0  0  0  0  0  0
   37.2400   27.1220   41.8040 C   0  0  0  0  0  0  0  0  0  0  0  0
   37.0230   26.9990   43.1120 N   0  0  0  0  0  0  0  0  0  0  0  0
   37.1540   27.8760   45.0150 H   0  0  0  0  0  0  0  0  0  0  0  0
   38.1480   29.9710   44.0980 H   0  0  0  0  0  0  0  0  0  0  0  0
   36.8960   26.0350   40.8910 C   0  0  0  0  0  0  0  0  0  0  0  0
   36.9520   24.7200   41.3040 C   0  0  0  0  0  0  0  0  0  0  0  0
   37.2590   24.4910   42.3350 H   0  0  0  0  0  0  0  0  0  0  0  0
   36.6290   23.6720   40.4490 C   0  0  0  0  0  3  0  0  0  0  0  0
   36.2430   23.9720   39.1490 C   0  0  0  0  0  0  0  0  0  0  0  0
   35.9390   22.9400   38.3500 N   0  0  0  0  0  0  0  0  0  0  0  0
   35.5580   23.1560   37.0820 C   0  0  0  0  0  0  0  0  0  0  0  0
   35.3170   22.3100   36.4550 H   0  0  0  0  0  0  0  0  0  0  0  0
   35.4840   24.4510   36.6120 C   0  0  0  0  0  3  0  0  0  0  0  0
   35.7950   25.5030   37.4320 C   0  0  0  0  0  3  0  0  0  0  0  0
   36.1840   25.2780   38.7240 C   0  0  0  0  0  0  0  0  0  0  0  0
   36.5090   26.3070   39.5930 C   0  0  0  0  0  3  0  0  0  0  0  0
   36.1430   31.0480   40.8200 Cl  0  0  0  0  0  0  0  0  0  0  0  0
   37.8600   31.4060   40.9050 C   0  0  0  0  0  0  0  0  0  0  0  0
   38.7000   30.5140   41.5180 C   0  0  0  0  0  0  0  0  0  0  0  0
   40.0510   30.8300   41.5660 C   0  0  0  0  0  0  0  0  0  0  0  0
   40.5280   32.0070   41.0130 C   0  0  0  0  0  0  0  0  0  0  0  0
   39.6240   32.8640   40.4090 C   0  0  0  0  0  0  0  0  0  0  0  0
   40.2110   34.3590   39.7030 Cl  0  0  0  0  0  0  0  0  0  0  0  0
   38.2670   32.5950   40.3350 C   0  0  0  0  0  0  0  0  0  0  0  0
   40.6870   30.1150   42.0510 H   0  0  0  0  0  0  0  0  0  0  0  0
   41.5890   32.2220   41.0690 H   0  0  0  0  0  0  0  0  0  0  0  0
   37.5750   33.2790   39.8570 H   0  0  0  0  0  0  0  0  0  0  0  0
  1  7  1  0  0  0  0
  2  1  1  0  0  0  0
  2  8  1  0  0  0  0
  3  2  2  0  0  0  0
  4  5  2  0  0  0  0
  4  3  1  0  0  0  0
  5  6  1  0  0  0  0
  6  1  2  0  0  0  0
  9 10  1  0  0  0  0
  9  5  1  0  0  0  0
 10 11  1  0  0  0  0
 12 10  2  0  0  0  0
 13 12  1  0  0  0  0
 14 13  2  0  0  0  0
 15 14  1  0  0  0  0
 16 15  1  0  0  0  0
 17 15  2  0  0  0  0
 17 18  1  0  0  0  0
 18 19  2  0  0  0  0
 19 13  1  0  0  0  0
 19 20  1  0  0  0  0
 20  9  2  0  0  0  0
 21 22  1  0  0  0  0
 22 23  1  0  0  0  0
 23 24  2  0  0  0  0
 23  3  1  0  0  0  0
 24 29  1  0  0  0  0
 25 30  1  0  0  0  0
 25 24  1  0  0  0  0
 26 25  2  0  0  0  0
 27 26  1  0  0  0  0
 28 26  1  0  0  0  0
 28 22  2  0  0  0  0
 31 28  1  0  0  0  0
M  END
>  <minimizedAffinity>
-6.0080471

$$$$

 OpenBabel03242522243D

 31 34  0  0  0  0  0  0  0  0999 V2000
   37.4730   33.2390   40.0200 C   0  0  0  0  0  0  0  0  0  0  0  0
   38.7980   33.6510   39.7910 C   0  0  0  0  0  0  0  0  0  0  0  0
   39.8620   32.7920   40.0510 C   0  0  0  0  0  0  0  0  0  0  0  0
   39.5500   31.5680   40.5230 N   0  0  0  0  0  0  0  0  0  0  0  0
   38.2830   31.1800   40.7400 C   0  0  0  0  0  0  0  0  0  0  0  0
   37.2680   32.0050   40.4900 N   0  0  0  0  0  0  0  0  0  0  0  0
   36.6540   33.8990   39.8220 H   0  0  0  0  0  0  0  0  0  0  0  0
   39.0010   34.6340   39.4140 H   0  0  0  0  0  0  0  0  0  0  0  0
   38.0340   29.8350   41.2530 C   0  0  0  0  0  0  0  0  0  0  0  0
   38.1070   29.5690   42.6040 C   0  0  0  0  0  0  0  0  0  0  0  0
   38.3550   30.3830   43.3020 H   0  0  0  0  0  0  0  0  0  0  0  0
   37.8740   28.2960   43.1120 C   0  0  0  0  0  3  0  0  0  0  0  0
   37.5620   27.2760   42.2220 C   0  0  0  0  0  0  0  0  0  0  0  0
   37.3430   26.0600   42.7420 N   0  0  0  0  0  0  0  0  0  0  0  0
   37.0370   25.0280   41.9420 C   0  0  0  0  0  0  0  0  0  0  0  0
   36.8640   24.0550   42.3820 H   0  0  0  0  0  0  0  0  0  0  0  0
   36.9500   25.2330   40.5800 C   0  0  0  0  0  3  0  0  0  0  0  0
   37.1740   26.4770   40.0530 C   0  0  0  0  0  3  0  0  0  0  0  0
   37.4870   27.5270   40.8730 C   0  0  0  0  0  0  0  0  0  0  0  0
   37.7220   28.8030   40.3890 C   0  0  0  0  0  3  0  0  0  0  0  0
   40.7760   32.2870   37.3180 Cl  0  0  0  0  0  0  0  0  0  0  0  0
   41.7740   33.0100   38.5690 C   0  0  0  0  0  0  0  0  0  0  0  0
   41.2460   33.2020   39.8190 C   0  0  0  0  0  0  0  0  0  0  0  0
   42.0650   33.7750   40.7830 C   0  0  0  0  0  0  0  0  0  0  0  0
   43.3690   34.1390   40.4870 C   0  0  0  0  0  0  0  0  0  0  0  0
   43.8380   33.9170   39.2030 C   0  0  0  0  0  0  0  0  0  0  0  0
   45.4870   34.3710   38.8110 Cl  0  0  0  0  0  0  0  0  0  0  0  0
   43.0620   33.3480   38.2060 C   0  0  0  0  0  0  0  0  0  0  0  0
   41.6270   33.9150   41.7530 H   0  0  0  0  0  0  0  0  0  0  0  0
   43.9790   34.5850   41.2630 H   0  0  0  0  0  0  0  0  0  0  0  0
   43.4490   33.1820   37.2080 H   0  0  0  0  0  0  0  0  0  0  0  0
  1  6  1  0  0  0  0
  2  1  2  0  0  0  0
  2  3  1  0  0  0  0
  3  4  2  0  0  0  0
  4  5  1  0  0  0  0
  5  9  1  0  0  0  0
  6  5  2  0  0  0  0
  7  1  1  0  0  0  0
  8  2  1  0  0  0  0
  9 10  1  0  0  0  0
 10 12  2  0  0  0  0
 10 11  1  0  0  0  0
 13 14  1  0  0  0  0
 13 12  1  0  0  0  0
 15 16  1  0  0  0  0
 15 14  2  0  0  0  0
 17 15  1  0  0  0  0
 18 17  2  0  0  0  0
 18 19  1  0  0  0  0
 19 13  2  0  0  0  0
 20 19  1  0  0  0  0
 20  9  2  0  0  0  0
 21 22  1  0  0  0  0
 22 23  1  0  0  0  0
 23  3  1  0  0  0  0
 23 24  2  0  0  0  0
 24 29  1  0  0  0  0
 25 24  1  0  0  0  0
 25 30  1  0  0  0  0
 26 25  2  0  0  0  0
 27 26  1  0  0  0  0
 28 22  2  0  0  0  0
 28 26  1  0  0  0  0
 31 28  1  0  0  0  0
M  END
>  <minimizedAffinity>
-5.95316219

$$$$

 OpenBabel03242522243D

 31 34  0  0  0  0  0  0  0  0999 V2000
   36.8200   27.7740   43.5760 C   0  0  0  0  0  0  0  0  0  0  0  0
   38.1710   27.4860   43.8410 C   0  0  0  0  0  0  0  0  0  0  0  0
   39.1000   27.4310   42.8050 C   0  0  0  0  0  0  0  0  0  0  0  0
   38.6350   27.6670   41.5620 N   0  0  0  0  0  0  0  0  0  0  0  0
   37.3440   27.9410   41.3150 C   0  0  0  0  0  0  0  0  0  0  0  0
   36.4580   27.9920   42.3080 N   0  0  0  0  0  0  0  0  0  0  0  0
   36.1050   27.8150   44.3700 H   0  0  0  0  0  0  0  0  0  0  0  0
   38.4980   27.3060   44.8460 H   0  0  0  0  0  0  0  0  0  0  0  0
   36.9250   28.1830   39.9370 C   0  0  0  0  0  0  0  0  0  0  0  0
   37.8500   28.2400   38.9160 C   0  0  0  0  0  0  0  0  0  0  0  0
   38.9170   28.1010   39.1450 H   0  0  0  0  0  0  0  0  0  0  0  0
   37.4710   28.4700   37.5980 C   0  0  0  0  0  3  0  0  0  0  0  0
   36.1220   28.6460   37.3180 C   0  0  0  0  0  0  0  0  0  0  0  0
   35.7880   28.8660   36.0390 N   0  0  0  0  0  0  0  0  0  0  0  0
   34.5040   29.0450   35.6970 C   0  0  0  0  0  0  0  0  0  0  0  0
   34.2560   29.2210   34.6590 H   0  0  0  0  0  0  0  0  0  0  0  0
   33.5320   28.9990   36.6750 C   0  0  0  0  0  3  0  0  0  0  0  0
   33.8770   28.7730   37.9810 C   0  0  0  0  0  3  0  0  0  0  0  0
   35.1890   28.5920   38.3260 C   0  0  0  0  0  0  0  0  0  0  0  0
   35.5890   28.3610   39.6320 C   0  0  0  0  0  3  0  0  0  0  0  0
   39.6810   24.5660   42.8890 Cl  0  0  0  0  0  0  0  0  0  0  0  0
   40.8890   25.8190   43.1200 C   0  0  0  0  0  0  0  0  0  0  0  0
   40.5080   27.1340   43.0610 C   0  0  0  0  0  0  0  0  0  0  0  0
   41.4910   28.0980   43.2500 C   0  0  0  0  0  0  0  0  0  0  0  0
   42.8070   27.7380   43.4870 C   0  0  0  0  0  0  0  0  0  0  0  0
   43.1220   26.3910   43.5330 C   0  0  0  0  0  0  0  0  0  0  0  0
   44.7850   25.9170   43.8340 Cl  0  0  0  0  0  0  0  0  0  0  0  0
   42.1800   25.3900   43.3530 C   0  0  0  0  0  0  0  0  0  0  0  0
   41.1660   29.1200   43.1990 H   0  0  0  0  0  0  0  0  0  0  0  0
   43.5470   28.5160   43.6290 H   0  0  0  0  0  0  0  0  0  0  0  0
   42.4470   24.3420   43.3930 H   0  0  0  0  0  0  0  0  0  0  0  0
  1  2  1  0  0  0  0
  1  7  1  0  0  0  0
  2  8  1  0  0  0  0
  3 23  1  0  0  0  0
  3  2  2  0  0  0  0
  4  3  1  0  0  0  0
  5  4  2  0  0  0  0
  5  6  1  0  0  0  0
  6  1  2  0  0  0  0
  9  5  1  0  0  0  0
 10 11  1  0  0  0  0
 10  9  2  0  0  0  0
 12 10  1  0  0  0  0
 13 12  2  0  0  0  0
 13 19  1  0  0  0  0
 14 13  1  0  0  0  0
 15 14  2  0  0  0  0
 15 17  1  0  0  0  0
 16 15  1  0  0  0  0
 17 18  2  0  0  0  0
 18 19  1  0  0  0  0
 19 20  2  0  0  0  0
 20  9  1  0  0  0  0
 21 22  1  0  0  0  0
 22 28  1  0  0  0  0
 23 22  2  0  0  0  0
 23 24  1  0  0  0  0
 24 25  2  0  0  0  0
 25 26  1  0  0  0  0
 25 30  1  0  0  0  0
 26 27  1  0  0  0  0
 28 31  1  0  0  0  0
 28 26  2  0  0  0  0
 29 24  1  0  0  0  0
M  END
>  <minimizedAffinity>
-5.78212214

$$$$

 OpenBabel03242522243D

 31 34  0  0  0  0  0  0  0  0999 V2000
   36.1990   31.0620   40.8780 C   0  0  0  0  0  0  0  0  0  0  0  0
   36.1820   29.6560   40.8600 C   0  0  0  0  0  0  0  0  0  0  0  0
   37.3550   28.9360   40.6510 C   0  0  0  0  0  0  0  0  0  0  0  0
   38.4820   29.6530   40.4720 N   0  0  0  0  0  0  0  0  0  0  0  0
   38.4930   30.9960   40.4900 C   0  0  0  0  0  0  0  0  0  0  0  0
   37.3690   31.6810   40.6910 N   0  0  0  0  0  0  0  0  0  0  0  0
   35.2990   31.6170   41.0380 H   0  0  0  0  0  0  0  0  0  0  0  0
   35.2630   29.1250   41.0070 H   0  0  0  0  0  0  0  0  0  0  0  0
   39.7590   31.6950   40.2880 C   0  0  0  0  0  0  0  0  0  0  0  0
   40.6450   31.8690   41.3300 C   0  0  0  0  0  0  0  0  0  0  0  0
   40.3920   31.4760   42.3260 H   0  0  0  0  0  0  0  0  0  0  0  0
   41.8560   32.5320   41.1570 C   0  0  0  0  0  3  0  0  0  0  0  0
   42.1660   33.0260   39.8970 C   0  0  0  0  0  0  0  0  0  0  0  0
   43.3390   33.6590   39.7620 N   0  0  0  0  0  0  0  0  0  0  0  0
   43.7040   34.1610   38.5730 C   0  0  0  0  0  0  0  0  0  0  0  0
   44.6550   34.6690   38.4860 H   0  0  0  0  0  0  0  0  0  0  0  0
   42.8580   34.0180   37.4920 C   0  0  0  0  0  3  0  0  0  0  0  0
   41.6600   33.3690   37.6340 C   0  0  0  0  0  3  0  0  0  0  0  0
   41.2920   32.8590   38.8490 C   0  0  0  0  0  0  0  0  0  0  0  0
   40.0920   32.1950   39.0440 C   0  0  0  0  0  3  0  0  0  0  0  0
   37.7410   27.7400   43.2920 Cl  0  0  0  0  0  0  0  0  0  0  0  0
   37.5310   26.8120   41.8160 C   0  0  0  0  0  0  0  0  0  0  0  0
   37.3570   27.4740   40.6290 C   0  0  0  0  0  0  0  0  0  0  0  0
   37.1940   26.7070   39.4820 C   0  0  0  0  0  0  0  0  0  0  0  0
   37.2070   25.3230   39.5420 C   0  0  0  0  0  0  0  0  0  0  0  0
   37.3860   24.7200   40.7740 C   0  0  0  0  0  0  0  0  0  0  0  0
   37.4060   22.9670   40.8670 Cl  0  0  0  0  0  0  0  0  0  0  0  0
   37.5540   25.4380   41.9470 C   0  0  0  0  0  0  0  0  0  0  0  0
   37.0590   27.2500   38.5660 H   0  0  0  0  0  0  0  0  0  0  0  0
   37.0760   24.7570   38.6270 H   0  0  0  0  0  0  0  0  0  0  0  0
   37.6940   24.9460   42.9020 H   0  0  0  0  0  0  0  0  0  0  0  0
  1  7  1  0  0  0  0
  2  1  1  0  0  0  0
  2  8  1  0  0  0  0
  3  2  2  0  0  0  0
  4  5  2  0  0  0  0
  4  3  1  0  0  0  0
  5  6  1  0  0  0  0
  6  1  2  0  0  0  0
  9  5  1  0  0  0  0
  9 10  1  0  0  0  0
 10 11  1  0  0  0  0
 12 10  2  0  0  0  0
 13 12  1  0  0  0  0
 14 13  1  0  0  0  0
 15 14  2  0  0  0  0
 16 15  1  0  0  0  0
 17 18  2  0  0  0  0
 17 15  1  0  0  0  0
 18 19  1  0  0  0  0
 19 20  1  0  0  0  0
 19 13  2  0  0  0  0
 20  9  2  0  0  0  0
 22 28  1  0  0  0  0
 22 21  1  0  0  0  0
 23  3  1  0  0  0  0
 23 22  2  0  0  0  0
 24 25  2  0  0  0  0
 24 23  1  0  0  0  0
 25 26  1  0  0  0  0
 26 27  1  0  0  0  0
 26 28  2  0  0  0  0
 28 31  1  0  0  0  0
 29 24  1  0  0  0  0
 30 25  1  0  0  0  0
M  END
>  <minimizedAffinity>
-5.77116919

$$$$
