
 OpenBabel03252509243D

 30 33  0  0  1  0  0  0  0  0999 V2000
   46.7840   34.6770   42.0470 C   0  0  1  0  0  0  0  0  0  0  0  0
   48.1150   35.4770   42.0620 C   0  0  0  0  0  0  0  0  0  0  0  0
   47.9810   33.9310   41.9020 C   0  0  2  0  0  0  0  0  0  0  0  0
   46.1120   34.9870   41.2210 H   0  0  0  0  0  0  0  0  0  0  0  0
   48.4260   35.9760   41.1370 H   0  0  0  0  0  0  0  0  0  0  0  0
   48.5080   35.8500   43.0020 H   0  0  0  0  0  0  0  0  0  0  0  0
   48.3680   33.3770   42.7920 H   0  0  0  0  0  0  0  0  0  0  0  0
   48.4020   33.3610   40.5810 C   0  0  0  0  0  0  0  0  0  0  0  0
   49.3860   32.3770   40.6460 C   0  0  0  0  0  0  0  0  0  0  0  0
   49.8140   32.0490   41.5830 H   0  0  0  0  0  0  0  0  0  0  0  0
   49.8360   31.7940   39.4700 C   0  0  0  0  0  3  0  0  0  0  0  0
   49.3060   32.1940   38.2610 C   0  0  0  0  0  0  0  0  0  0  0  0
   49.7170   31.6490   37.0820 N   0  0  0  0  0  0  0  0  0  0  0  0
   49.1870   32.0540   35.9140 C   0  0  0  0  0  0  0  0  0  0  0  0
   49.5330   31.6030   34.9900 H   0  0  0  0  0  0  0  0  0  0  0  0
   48.2120   33.0260   35.8190 C   0  0  0  0  0  3  0  0  0  0  0  0
   47.8160   33.5600   37.0410 C   0  0  0  0  0  3  0  0  0  0  0  0
   48.3310   33.1760   38.2700 C   0  0  0  0  0  0  0  0  0  0  0  0
   47.8430   33.7950   39.4030 C   0  0  0  0  0  3  0  0  0  0  0  0
   44.5250   35.6480   44.8840 C   0  0  0  0  0  0  0  0  0  0  0  0
   45.1550   35.6960   43.5970 C   0  0  0  0  0  0  0  0  0  0  0  0
   46.1210   34.7410   43.4040 C   0  0  0  0  0  0  0  0  0  0  0  0
   46.4530   33.8130   44.3850 N   0  0  0  0  0  0  0  0  0  0  0  0
   45.8260   33.8250   45.5630 C   0  0  0  0  0  0  0  0  0  0  0  0
   44.8590   34.7450   45.8170 N   0  0  0  0  0  0  0  0  0  0  0  0
   43.7560   36.3810   45.0820 H   0  0  0  0  0  0  0  0  0  0  0  0
   46.1940   33.0460   46.2150 H   0  0  0  0  0  0  0  0  0  0  0  0
   44.8260   36.6700   42.6100 N   0  0  0  0  0  0  0  0  0  0  0  0
   44.5270   36.4450   41.6240 H   0  0  0  0  0  0  0  0  0  0  0  0
   44.9370   37.6210   43.0520 H   0  0  0  0  0  0  0  0  0  0  0  0
  1  4  1  6  0  0  0
  1  2  1  0  0  0  0
  1 22  1  0  0  0  0
  2  6  1  0  0  0  0
  3  1  1  0  0  0  0
  3  2  1  0  0  0  0
  3  7  1  1  0  0  0
  5  2  1  0  0  0  0
  8  9  1  0  0  0  0
  8  3  1  0  0  0  0
  9 10  1  0  0  0  0
 11  9  2  0  0  0  0
 12 18  1  0  0  0  0
 12 11  1  0  0  0  0
 13 12  2  0  0  0  0
 14 13  1  0  0  0  0
 15 14  1  0  0  0  0
 16 14  2  0  0  0  0
 16 17  1  0  0  0  0
 17 18  2  0  0  0  0
 18 19  1  0  0  0  0
 19  8  2  0  0  0  0
 20 26  1  0  0  0  0
 20 25  1  0  0  0  0
 21 20  2  0  0  0  0
 22 21  1  0  0  0  0
 22 23  2  0  0  0  0
 23 24  1  0  0  0  0
 24 25  2  0  0  0  0
 24 27  1  0  0  0  0
 28 30  1  0  0  0  0
 28 21  1  0  0  0  0
 29 28  1  0  0  0  0
M  END
>  <minimizedAffinity>
-5.57518339

>  <minimizedRMSD>
1.50530207

$$$$
