
 OpenBabel03242523343D

 40 44  0  0  0  0  0  0  0  0999 V2000
   45.5590   33.1220   46.5160 C   0  0  0  0  0  0  0  0  0  0  0  0
   44.5720   32.5790   46.5950 H   0  0  0  0  0  0  0  0  0  0  0  0
   45.7790   33.5000   47.5100 H   0  0  0  0  0  0  0  0  0  0  0  0
   44.4320   36.2490   44.8270 C   0  0  0  0  0  0  0  0  0  0  0  0
   45.0320   36.0880   43.5590 C   0  0  0  0  0  0  0  0  0  0  0  0
   45.7870   34.9380   43.3280 C   0  0  0  0  0  0  0  0  0  0  0  0
   45.9340   34.0080   44.3010 N   0  0  0  0  0  0  0  0  0  0  0  0
   45.3400   34.1940   45.5190 C   0  0  0  0  0  0  0  0  0  0  0  0
   44.6120   35.2930   45.7560 N   0  0  0  0  0  0  0  0  0  0  0  0
   43.8400   37.1420   45.0200 H   0  0  0  0  0  0  0  0  0  0  0  0
   44.9160   36.8210   42.7900 H   0  0  0  0  0  0  0  0  0  0  0  0
   46.4470   34.6720   42.0590 C   0  0  0  0  0  0  0  0  0  0  0  0
   47.7300   35.1410   41.8720 C   0  0  0  0  0  0  0  0  0  0  0  0
   48.2890   35.7060   42.6210 H   0  0  0  0  0  0  0  0  0  0  0  0
   48.4440   34.9400   40.7010 C   0  0  0  0  0  0  0  0  0  0  0  0
   47.8460   34.2310   39.6550 C   0  0  0  0  0  0  0  0  0  0  0  0
   48.5330   34.0310   38.5120 N   0  0  0  0  0  0  0  0  0  0  0  0
   47.9840   33.3510   37.4860 C   0  0  0  0  0  0  0  0  0  0  0  0
   48.6110   33.2450   36.6200 H   0  0  0  0  0  0  0  0  0  0  0  0
   46.6870   32.8400   37.5910 C   0  0  0  0  0  0  0  0  0  0  0  0
   45.9870   33.0550   38.7830 C   0  0  0  0  0  0  0  0  0  0  0  0
   46.5660   33.7580   39.8330 C   0  0  0  0  0  0  0  0  0  0  0  0
   45.8830   33.9760   41.0120 C   0  0  0  0  0  0  0  0  0  0  0  0
   46.7910   31.9900   45.8380 S   0  0  0  0  0  0  0  0  0  0  0  0
   47.7320   31.2310   47.1450 C   0  0  0  0  0  0  0  0  0  0  0  0
   47.9760   31.9820   48.2720 C   0  0  0  0  0  0  0  0  0  0  0  0
   48.7000   31.4100   49.2850 C   0  0  0  0  0  0  0  0  0  0  0  0
   49.1890   30.0980   49.1960 C   0  0  0  0  0  0  0  0  0  0  0  0
   49.8940   29.5800   50.2180 N   0  0  0  0  0  0  0  0  0  0  0  0
   50.3730   28.3250   50.1590 C   0  0  0  0  0  0  0  0  0  0  0  0
   50.1320   27.5680   49.0320 C   0  0  0  0  0  0  0  0  0  0  0  0
   49.4080   28.1070   47.9870 C   0  0  0  0  0  0  0  0  0  0  0  0
   48.9030   29.4120   48.0350 C   0  0  0  0  0  0  0  0  0  0  0  0
   48.1830   29.9430   46.9970 C   0  0  0  0  0  0  0  0  0  0  0  0
   47.6660   32.9950   48.4750 H   0  0  0  0  0  0  0  0  0  0  0  0
   48.9380   31.9360   50.2140 H   0  0  0  0  0  0  0  0  0  0  0  0
   50.9460   27.8920   50.9790 H   0  0  0  0  0  0  0  0  0  0  0  0
   50.5300   26.5620   49.0120 H   0  0  0  0  0  0  0  0  0  0  0  0
   49.2140   27.5210   47.1000 H   0  0  0  0  0  0  0  0  0  0  0  0
   47.9830   29.3690   46.1060 H   0  0  0  0  0  0  0  0  0  0  0  0
  1  2  1  0  0  0  0
  1  3  1  0  0  0  0
  4 10  1  0  0  0  0
  4  9  1  0  0  0  0
  5  4  2  0  0  0  0
  6  5  1  0  0  0  0
  6  7  2  0  0  0  0
  7  8  1  0  0  0  0
  8  9  2  0  0  0  0
  8  1  1  0  0  0  0
 11  5  1  0  0  0  0
 12  6  1  0  0  0  0
 13 12  1  0  0  0  0
 13 14  1  0  0  0  0
 15 13  2  0  0  0  0
 16 22  1  0  0  0  0
 16 15  1  0  0  0  0
 17 16  2  0  0  0  0
 18 20  2  0  0  0  0
 18 17  1  0  0  0  0
 19 18  1  0  0  0  0
 20 21  1  0  0  0  0
 21 22  2  0  0  0  0
 22 23  1  0  0  0  0
 23 12  2  0  0  0  0
 24  1  1  0  0  0  0
 24 25  1  0  0  0  0
 25 26  1  0  0  0  0
 26 35  1  0  0  0  0
 26 27  2  0  0  0  0
 27 36  1  0  0  0  0
 28 27  1  0  0  0  0
 28 29  1  0  0  0  0
 30 29  2  0  0  0  0
 30 37  1  0  0  0  0
 31 30  1  0  0  0  0
 32 33  1  0  0  0  0
 32 31  2  0  0  0  0
 33 28  2  0  0  0  0
 34 25  2  0  0  0  0
 34 33  1  0  0  0  0
 38 31  1  0  0  0  0
 39 32  1  0  0  0  0
 40 34  1  0  0  0  0
M  END
>  <minimizedAffinity>
-7.02523088

>  <minimizedRMSD>
1.12189186

$$$$
