
 OpenBabel03252509243D

 30 33  0  0  1  0  0  0  0  0999 V2000
   46.3400   34.7410   42.0380 C   0  0  1  0  0  0  0  0  0  0  0  0
   47.8220   35.1980   41.9680 C   0  0  0  0  0  0  0  0  0  0  0  0
   47.2880   33.7760   41.6140 C   0  0  2  0  0  0  0  0  0  0  0  0
   45.6800   35.3340   41.3720 H   0  0  0  0  0  0  0  0  0  0  0  0
   48.1450   35.7650   41.0870 H   0  0  0  0  0  0  0  0  0  0  0  0
   48.3960   35.3050   42.8830 H   0  0  0  0  0  0  0  0  0  0  0  0
   47.6200   33.0040   42.3510 H   0  0  0  0  0  0  0  0  0  0  0  0
   47.4070   33.3600   40.1790 C   0  0  0  0  0  0  0  0  0  0  0  0
   48.6810   32.9630   39.7790 C   0  0  0  0  0  0  0  0  0  0  0  0
   49.5230   32.9540   40.4570 H   0  0  0  0  0  0  0  0  0  0  0  0
   48.8820   32.5620   38.4660 C   0  0  0  0  0  3  0  0  0  0  0  0
   47.8240   32.5620   37.5800 C   0  0  0  0  0  0  0  0  0  0  0  0
   47.9750   32.1770   36.2830 N   0  0  0  0  0  0  0  0  0  0  0  0
   46.9300   32.1860   35.4360 C   0  0  0  0  0  0  0  0  0  0  0  0
   47.0780   31.8730   34.4070 H   0  0  0  0  0  0  0  0  0  0  0  0
   45.6580   32.5740   35.8030 C   0  0  0  0  0  3  0  0  0  0  0  0
   45.5400   32.9600   37.1340 C   0  0  0  0  0  3  0  0  0  0  0  0
   46.5860   32.9690   38.0460 C   0  0  0  0  0  0  0  0  0  0  0  0
   46.3210   33.3790   39.3370 C   0  0  0  0  0  3  0  0  0  0  0  0
   44.5520   35.5890   45.2280 C   0  0  0  0  0  0  0  0  0  0  0  0
   45.0120   35.7160   43.8760 C   0  0  0  0  0  0  0  0  0  0  0  0
   45.8660   34.7210   43.4740 C   0  0  0  0  0  0  0  0  0  0  0  0
   46.2490   33.6840   44.3170 N   0  0  0  0  0  0  0  0  0  0  0  0
   45.7830   33.6280   45.5670 C   0  0  0  0  0  0  0  0  0  0  0  0
   44.9330   34.5820   46.0270 N   0  0  0  0  0  0  0  0  0  0  0  0
   43.8760   36.3500   45.5910 H   0  0  0  0  0  0  0  0  0  0  0  0
   46.1710   32.7670   46.0940 H   0  0  0  0  0  0  0  0  0  0  0  0
   44.6340   36.7980   43.0290 N   0  0  0  0  0  0  0  0  0  0  0  0
   44.1920   36.6870   42.0780 H   0  0  0  0  0  0  0  0  0  0  0  0
   44.8760   37.6930   43.5300 H   0  0  0  0  0  0  0  0  0  0  0  0
  1  4  1  6  0  0  0
  1 22  1  0  0  0  0
  2  1  1  0  0  0  0
  2  6  1  0  0  0  0
  3  2  1  0  0  0  0
  3  1  1  0  0  0  0
  3  7  1  1  0  0  0
  5  2  1  0  0  0  0
  8  3  1  0  0  0  0
  9  8  1  0  0  0  0
  9 10  1  0  0  0  0
 11  9  2  0  0  0  0
 12 18  1  0  0  0  0
 12 11  1  0  0  0  0
 13 12  2  0  0  0  0
 14 16  2  0  0  0  0
 14 13  1  0  0  0  0
 15 14  1  0  0  0  0
 16 17  1  0  0  0  0
 17 18  2  0  0  0  0
 18 19  1  0  0  0  0
 19  8  2  0  0  0  0
 20 26  1  0  0  0  0
 20 25  1  0  0  0  0
 21 20  2  0  0  0  0
 22 21  1  0  0  0  0
 22 23  2  0  0  0  0
 23 24  1  0  0  0  0
 24 25  2  0  0  0  0
 24 27  1  0  0  0  0
 28 30  1  0  0  0  0
 28 21  1  0  0  0  0
 29 28  1  0  0  0  0
M  END
>  <minimizedAffinity>
-5.48973179

>  <minimizedRMSD>
0.719829977

$$$$
