
 OpenBabel03252508183D

 50 55  0  0  1  0  0  0  0  0999 V2000
   46.8150   31.6370   48.2480 C   0  0  1  0  0  0  0  0  0  0  0  0
   46.3050   30.6000   49.1900 C   0  0  0  0  0  0  0  0  0  0  0  0
   47.5840   31.2540   49.4490 C   0  0  1  0  0  0  0  0  0  0  0  0
   46.0870   32.5010   48.2290 H   0  0  0  0  0  0  0  0  0  0  0  0
   45.4640   30.7890   49.8870 H   0  0  0  0  0  0  0  0  0  0  0  0
   46.3480   29.5310   48.8670 H   0  0  0  0  0  0  0  0  0  0  0  0
   47.6000   32.0010   50.2700 H   0  0  0  0  0  0  0  0  0  0  0  0
   48.8900   30.5490   49.2510 C   0  0  2  0  0  0  0  0  0  0  0  0
   49.6100   30.2230   50.5840 C   0  0  0  0  0  0  0  0  0  0  0  0
   50.1560   31.2690   49.7040 C   0  0  1  0  0  0  0  0  0  0  0  0
   49.0030   29.7100   48.5540 H   0  0  0  0  0  0  0  0  0  0  0  0
   49.1560   30.5860   51.5240 H   0  0  0  0  0  0  0  0  0  0  0  0
   50.1580   29.2950   50.7010 H   0  0  0  0  0  0  0  0  0  0  0  0
   50.0480   32.3330   49.9960 H   0  0  0  0  0  0  0  0  0  0  0  0
   51.4210   30.9620   49.0080 C   0  0  0  0  0  0  0  0  0  0  0  0
   51.4440   29.8520   48.1570 C   0  0  0  0  0  0  0  0  0  0  0  0
   50.5800   29.2100   47.9870 H   0  0  0  0  0  0  0  0  0  0  0  0
   52.6090   29.5110   47.4720 C   0  0  0  0  0  3  0  0  0  0  0  0
   53.7670   30.2590   47.6150 C   0  0  0  0  0  0  0  0  0  0  0  0
   54.8760   29.9200   46.9520 N   0  0  0  0  0  0  0  0  0  0  0  0
   56.0290   30.6030   47.0480 C   0  0  0  0  0  0  0  0  0  0  0  0
   56.9020   30.2960   46.4950 H   0  0  0  0  0  0  0  0  0  0  0  0
   56.0230   31.7060   47.8880 C   0  0  0  0  0  3  0  0  0  0  0  0
   54.8830   32.0960   48.6010 C   0  0  0  0  0  3  0  0  0  0  0  0
   53.7110   31.3560   48.4680 C   0  0  0  0  0  0  0  0  0  0  0  0
   52.5650   31.7190   49.1630 C   0  0  0  0  0  3  0  0  0  0  0  0
   47.2150   31.1360   46.9080 C   0  0  0  0  0  0  0  0  0  0  0  0
   46.4960   30.3010   46.6540 H   0  0  0  0  0  0  0  0  0  0  0  0
   48.2060   30.7450   46.7750 H   0  0  0  0  0  0  0  0  0  0  0  0
   46.1040   33.0680   46.1510 C   0  0  0  0  0  3  0  0  0  0  0  0
   46.9380   32.1670   45.8400 C   0  0  0  0  0  3  0  0  0  0  0  0
   44.5390   35.8990   44.3830 C   0  0  0  0  0  0  0  0  0  0  0  0
   45.1710   35.8820   43.1450 C   0  0  0  0  0  0  0  0  0  0  0  0
   46.1030   34.9110   42.9590 C   0  0  0  0  0  0  0  0  0  0  0  0
   46.3750   34.0210   43.9540 N   0  0  0  0  0  0  0  0  0  0  0  0
   45.7450   34.0660   45.1400 C   0  0  0  0  0  0  0  0  0  0  0  0
   44.8390   35.0090   45.3230 N   0  0  0  0  0  0  0  0  0  0  0  0
   43.7830   36.6550   44.5880 H   0  0  0  0  0  0  0  0  0  0  0  0
   44.9350   36.6010   42.3720 H   0  0  0  0  0  0  0  0  0  0  0  0
   46.8470   34.7680   41.7130 C   0  0  0  0  0  0  0  0  0  0  0  0
   48.0510   35.3520   41.4490 C   0  0  0  0  0  0  0  0  0  0  0  0
   48.7420   35.2060   40.2630 C   0  0  0  0  0  0  0  0  0  0  0  0
   48.2120   34.4240   39.2560 C   0  0  0  0  0  0  0  0  0  0  0  0
   47.0060   33.8110   39.4610 C   0  0  0  0  0  0  0  0  0  0  0  0
   46.3590   33.9940   40.6700 C   0  0  0  0  0  0  0  0  0  0  0  0
   48.5020   35.9800   42.2240 H   0  0  0  0  0  0  0  0  0  0  0  0
   49.6880   35.6720   40.0690 H   0  0  0  0  0  0  0  0  0  0  0  0
   48.6690   34.2410   38.2870 H   0  0  0  0  0  0  0  0  0  0  0  0
   46.5460   33.1890   38.7080 H   0  0  0  0  0  0  0  0  0  0  0  0
   45.3970   33.4860   40.7940 H   0  0  0  0  0  0  0  0  0  0  0  0
  1  4  1  1  0  0  0
  1  2  1  0  0  0  0
  1  3  1  0  0  0  0
  2  3  1  0  0  0  0
  2  5  1  0  0  0  0
  3  7  1  1  0  0  0
  6  2  1  0  0  0  0
  8 11  1  6  0  0  0
  8  3  1  0  0  0  0
  8 10  1  0  0  0  0
  8  9  1  0  0  0  0
  9 13  1  0  0  0  0
  9 12  1  0  0  0  0
 10 14  1  1  0  0  0
 10  9  1  0  0  0  0
 15 26  1  0  0  0  0
 15 10  1  0  0  0  0
 16 15  2  0  0  0  0
 17 16  1  0  0  0  0
 18 19  2  0  0  0  0
 18 16  1  0  0  0  0
 19 25  1  0  0  0  0
 20 21  2  0  0  0  0
 20 19  1  0  0  0  0
 21 23  1  0  0  0  0
 22 21  1  0  0  0  0
 23 24  2  0  0  0  0
 25 24  1  0  0  0  0
 25 26  2  0  0  0  0
 27  1  1  0  0  0  0
 28 27  1  0  0  0  0
 29 27  1  0  0  0  0
 31 30  2  0  0  0  0
 31 27  1  0  0  0  0
 32 38  1  0  0  0  0
 32 37  1  0  0  0  0
 33 32  2  0  0  0  0
 34 33  1  0  0  0  0
 34 35  2  0  0  0  0
 35 36  1  0  0  0  0
 36 37  2  0  0  0  0
 36 30  1  0  0  0  0
 39 33  1  0  0  0  0
 40 34  1  0  0  0  0
 41 40  1  0  0  0  0
 41 46  1  0  0  0  0
 42 41  2  0  0  0  0
 43 44  2  0  0  0  0
 43 42  1  0  0  0  0
 44 45  1  0  0  0  0
 45 50  1  0  0  0  0
 45 40  2  0  0  0  0
 47 42  1  0  0  0  0
 48 43  1  0  0  0  0
 49 44  1  0  0  0  0
M  END
>  <minimizedAffinity>
-6.80671978

>  <minimizedRMSD>
1.04751575

$$$$
