
 OpenBabel03252503243D

 50 56  0  0  1  0  0  0  0  0999 V2000
   45.5580   33.7260   45.2300 C   0  0  0  0  0  0  0  0  0  0  0  0
   46.5740   33.0720   44.4770 C   0  0  0  0  0  0  0  0  0  0  0  0
   47.3810   32.1810   45.1370 C   0  0  0  0  0  0  0  0  0  0  0  0
   47.1430   31.9950   46.4660 N   0  0  0  0  0  0  0  0  0  0  0  0
   46.1860   32.6150   47.1630 C   0  0  0  0  0  0  0  0  0  0  0  0
   45.3850   33.4910   46.5380 N   0  0  0  0  0  0  0  0  0  0  0  0
   44.9060   34.4380   44.7170 H   0  0  0  0  0  0  0  0  0  0  0  0
   48.1650   31.6590   44.6140 H   0  0  0  0  0  0  0  0  0  0  0  0
   46.7360   33.3780   43.0260 C   0  0  1  0  0  0  0  0  0  0  0  0
   46.9410   34.7530   42.5830 C   0  0  0  0  0  0  0  0  0  0  0  0
   48.1120   33.8450   42.5740 C   0  0  2  0  0  0  0  0  0  0  0  0
   46.2160   32.6590   42.3680 H   0  0  0  0  0  0  0  0  0  0  0  0
   46.3610   35.0850   41.7370 H   0  0  0  0  0  0  0  0  0  0  0  0
   46.9240   35.5320   43.4140 H   0  0  0  0  0  0  0  0  0  0  0  0
   48.8460   33.8850   43.3910 H   0  0  0  0  0  0  0  0  0  0  0  0
   48.5330   33.2960   41.2540 C   0  0  0  0  0  0  0  0  0  0  0  0
   49.4040   32.2390   41.0960 C   0  0  0  0  0  0  0  0  0  0  0  0
   49.7600   31.7900   39.8350 C   0  0  0  0  0  0  0  0  0  0  0  0
   49.2440   32.3960   38.7170 C   0  0  0  0  0  0  0  0  0  0  0  0
   49.5730   31.9720   37.4640 N   0  0  0  0  0  0  0  0  0  0  0  0
   49.0500   32.5850   36.3750 C   0  0  0  0  0  0  0  0  0  0  0  0
   48.1490   33.6770   36.4400 C   0  0  0  0  0  0  0  0  0  0  0  0
   47.8090   34.1140   37.6990 C   0  0  0  0  0  0  0  0  0  0  0  0
   48.3560   33.4740   38.8100 C   0  0  0  0  0  0  0  0  0  0  0  0
   48.0320   33.8850   40.0910 C   0  0  0  0  0  0  0  0  0  0  0  0
   49.7760   31.8040   42.0090 H   0  0  0  0  0  0  0  0  0  0  0  0
   50.4430   30.9600   39.7300 H   0  0  0  0  0  0  0  0  0  0  0  0
   49.3200   32.2360   35.3860 H   0  0  0  0  0  0  0  0  0  0  0  0
   47.7790   34.1070   35.5200 H   0  0  0  0  0  0  0  0  0  0  0  0
   47.1280   34.9420   37.8090 H   0  0  0  0  0  0  0  0  0  0  0  0
   47.3490   34.7230   40.0920 H   0  0  0  0  0  0  0  0  0  0  0  0
   46.0610   32.2860   48.5990 C   0  0  2  0  0  0  0  0  0  0  0  0
   46.8900   31.2970   49.2610 C   0  0  0  0  0  0  0  0  0  0  0  0
   45.5200   30.8660   48.8940 C   0  0  2  0  0  0  0  0  0  0  0  0
   45.5390   33.1010   49.1710 H   0  0  0  0  0  0  0  0  0  0  0  0
   47.7760   30.9210   48.7170 H   0  0  0  0  0  0  0  0  0  0  0  0
   47.1400   31.5040   50.3360 H   0  0  0  0  0  0  0  0  0  0  0  0
   44.7500   30.8770   49.7160 H   0  0  0  0  0  0  0  0  0  0  0  0
   45.3840   29.8890   47.8180 C   0  0  0  0  0  0  0  0  0  0  0  0
   46.5050   29.0540   47.7460 C   0  0  0  0  0  0  0  0  0  0  0  0
   47.3830   29.0840   48.3950 H   0  0  0  0  0  0  0  0  0  0  0  0
   46.6050   28.0470   46.7790 C   0  0  0  0  0  0  0  0  0  0  0  0
   45.5850   27.8790   45.8890 C   0  0  0  0  0  0  0  0  0  0  0  0
   45.5810   26.9380   44.9180 N   0  0  0  0  0  0  0  0  0  0  0  0
   44.5640   26.7900   44.0510 C   0  0  0  0  0  0  0  0  0  0  0  0
   44.6350   26.0160   43.3030 H   0  0  0  0  0  0  0  0  0  0  0  0
   43.4520   27.6080   44.1110 C   0  0  0  0  0  0  0  0  0  0  0  0
   43.4080   28.5780   45.0780 C   0  0  0  0  0  0  0  0  0  0  0  0
   44.4790   28.6880   45.9450 C   0  0  0  0  0  0  0  0  0  0  0  0
   44.3890   29.6730   46.8960 C   0  0  0  0  0  0  0  0  0  0  0  0
  1  6  1  0  0  0  0
  2  3  1  0  0  0  0
  2  1  2  0  0  0  0
  3  4  2  0  0  0  0
  4  5  1  0  0  0  0
  5 32  1  0  0  0  0
  6  5  2  0  0  0  0
  7  1  1  0  0  0  0
  8  3  1  0  0  0  0
  9 12  1  6  0  0  0
  9  2  1  0  0  0  0
 10  9  1  0  0  0  0
 10 14  1  0  0  0  0
 11 10  1  0  0  0  0
 11  9  1  0  0  0  0
 11 15  1  1  0  0  0
 13 10  1  0  0  0  0
 16 11  1  0  0  0  0
 17 16  1  0  0  0  0
 17 26  1  0  0  0  0
 18 17  2  0  0  0  0
 19 24  1  0  0  0  0
 19 18  1  0  0  0  0
 20 19  2  0  0  0  0
 21 22  2  0  0  0  0
 21 20  1  0  0  0  0
 22 23  1  0  0  0  0
 23 30  1  0  0  0  0
 23 24  2  0  0  0  0
 24 25  1  0  0  0  0
 25 31  1  0  0  0  0
 25 16  2  0  0  0  0
 27 18  1  0  0  0  0
 28 21  1  0  0  0  0
 29 22  1  0  0  0  0
 32 34  1  0  0  0  0
 32 35  1  1  0  0  0
 32 33  1  0  0  0  0
 33 37  1  0  0  0  0
 34 33  1  0  0  0  0
 34 38  1  1  0  0  0
 36 33  1  0  0  0  0
 39 34  1  0  0  0  0
 40 39  1  0  0  0  0
 40 41  1  0  0  0  0
 42 40  2  0  0  0  0
 43 49  1  0  0  0  0
 43 42  1  0  0  0  0
 44 43  2  0  0  0  0
 45 47  2  0  0  0  0
 45 44  1  0  0  0  0
 46 45  1  0  0  0  0
 47 48  1  0  0  0  0
 48 49  2  0  0  0  0
 49 50  1  0  0  0  0
 50 39  2  0  0  0  0
M  END
>  <minimizedAffinity>
-6.3031106

>  <minimizedRMSD>
1.27176297

$$$$
