
 OpenBabel03252509243D

 30 33  0  0  1  0  0  0  0  0999 V2000
   46.5270   34.6760   42.0230 C   0  0  1  0  0  0  0  0  0  0  0  0
   47.9540   35.2870   41.9970 C   0  0  0  0  0  0  0  0  0  0  0  0
   47.6000   33.7860   41.7610 C   0  0  2  0  0  0  0  0  0  0  0  0
   45.8590   35.1250   41.2600 H   0  0  0  0  0  0  0  0  0  0  0  0
   48.2780   35.7980   41.0830 H   0  0  0  0  0  0  0  0  0  0  0  0
   48.4460   35.5450   42.9290 H   0  0  0  0  0  0  0  0  0  0  0  0
   47.9560   33.1310   42.5930 H   0  0  0  0  0  0  0  0  0  0  0  0
   47.8650   33.2500   40.3870 C   0  0  0  0  0  0  0  0  0  0  0  0
   49.0720   32.5700   40.2370 C   0  0  0  0  0  0  0  0  0  0  0  0
   49.7670   32.4390   41.0560 H   0  0  0  0  0  0  0  0  0  0  0  0
   49.3990   32.0390   38.9980 C   0  0  0  0  0  3  0  0  0  0  0  0
   48.5290   32.1920   37.9360 C   0  0  0  0  0  0  0  0  0  0  0  0
   48.8090   31.6890   36.7040 N   0  0  0  0  0  0  0  0  0  0  0  0
   47.9470   31.8490   35.6830 C   0  0  0  0  0  0  0  0  0  0  0  0
   48.1960   31.4370   34.7100 H   0  0  0  0  0  0  0  0  0  0  0  0
   46.7460   32.5170   35.8000 C   0  0  0  0  0  3  0  0  0  0  0  0
   46.4930   33.0170   37.0720 C   0  0  0  0  0  3  0  0  0  0  0  0
   47.3490   32.8790   38.1570 C   0  0  0  0  0  0  0  0  0  0  0  0
   46.9660   33.4290   39.3640 C   0  0  0  0  0  3  0  0  0  0  0  0
   44.5000   35.6900   45.0160 C   0  0  0  0  0  0  0  0  0  0  0  0
   45.0490   35.7360   43.6910 C   0  0  0  0  0  0  0  0  0  0  0  0
   45.9550   34.7420   43.4210 C   0  0  0  0  0  0  0  0  0  0  0  0
   46.3060   33.7800   44.3620 N   0  0  0  0  0  0  0  0  0  0  0  0
   45.7560   33.7970   45.5780 C   0  0  0  0  0  0  0  0  0  0  0  0
   44.8500   34.7540   45.9090 N   0  0  0  0  0  0  0  0  0  0  0  0
   43.7800   36.4530   45.2760 H   0  0  0  0  0  0  0  0  0  0  0  0
   46.1290   32.9890   46.1910 H   0  0  0  0  0  0  0  0  0  0  0  0
   44.7030   36.7430   42.7450 N   0  0  0  0  0  0  0  0  0  0  0  0
   44.3310   36.5510   41.7770 H   0  0  0  0  0  0  0  0  0  0  0  0
   44.8860   37.6790   43.1960 H   0  0  0  0  0  0  0  0  0  0  0  0
  1  4  1  6  0  0  0
  1 22  1  0  0  0  0
  2  1  1  0  0  0  0
  2  6  1  0  0  0  0
  3  2  1  0  0  0  0
  3  1  1  0  0  0  0
  3  7  1  1  0  0  0
  5  2  1  0  0  0  0
  8  3  1  0  0  0  0
  9  8  1  0  0  0  0
  9 10  1  0  0  0  0
 11  9  2  0  0  0  0
 12 18  1  0  0  0  0
 12 11  1  0  0  0  0
 13 12  2  0  0  0  0
 14 16  2  0  0  0  0
 14 13  1  0  0  0  0
 15 14  1  0  0  0  0
 16 17  1  0  0  0  0
 17 18  2  0  0  0  0
 18 19  1  0  0  0  0
 19  8  2  0  0  0  0
 20 26  1  0  0  0  0
 20 25  1  0  0  0  0
 21 20  2  0  0  0  0
 22 21  1  0  0  0  0
 22 23  2  0  0  0  0
 23 24  1  0  0  0  0
 24 25  2  0  0  0  0
 24 27  1  0  0  0  0
 28 30  1  0  0  0  0
 28 21  1  0  0  0  0
 29 28  1  0  0  0  0
M  END
>  <minimizedAffinity>
-5.34691954

>  <minimizedRMSD>
1.0919832

$$$$
