
 OpenBabel03252506133D

 39 42  0  0  0  0  0  0  0  0999 V2000
   45.2370   33.3820   41.1670 F   0  0  0  0  0  0  0  0  0  0  0  0
   46.3990   34.0190   41.0390 C   0  0  0  0  0  0  0  0  0  0  0  0
   46.8630   34.7860   42.0810 C   0  0  0  0  0  0  0  0  0  0  0  0
   48.0710   35.4860   42.0330 C   0  0  0  0  0  0  0  0  0  0  0  0
   48.8560   35.4120   40.8810 C   0  0  0  0  0  0  0  0  0  0  0  0
   48.3550   34.6290   39.8580 C   0  0  0  0  0  0  0  0  0  0  0  0
   47.1810   33.9440   39.8910 C   0  0  0  0  0  0  0  0  0  0  0  0
   48.3670   36.0710   42.8990 H   0  0  0  0  0  0  0  0  0  0  0  0
   49.7800   35.9650   40.8870 H   0  0  0  0  0  0  0  0  0  0  0  0
   49.0600   34.6500   39.0320 H   0  0  0  0  0  0  0  0  0  0  0  0
   45.4740   34.0030   45.3900 C   0  0  0  0  0  0  0  0  0  0  0  0
   44.6250   35.1090   45.6160 C   0  0  0  0  0  0  0  0  0  0  0  0
   44.5320   36.1260   44.6260 C   0  0  0  0  0  0  0  0  0  0  0  0
   45.2880   35.9540   43.5020 N   0  0  0  0  0  0  0  0  0  0  0  0
   46.0790   34.8970   43.3220 C   0  0  0  0  0  0  0  0  0  0  0  0
   46.1680   33.9350   44.2570 N   0  0  0  0  0  0  0  0  0  0  0  0
   44.0350   35.2270   46.5110 H   0  0  0  0  0  0  0  0  0  0  0  0
   43.8960   36.9800   44.7670 H   0  0  0  0  0  0  0  0  0  0  0  0
   45.5540   33.0010   46.3860 N   0  0  0  0  0  0  0  0  0  0  0  0
   45.5790   33.3440   47.3730 H   0  0  0  0  0  0  0  0  0  0  0  0
   45.5910   31.9620   46.2920 H   0  0  0  0  0  0  0  0  0  0  0  0
   46.7800   33.2000   38.8160 O   0  0  0  0  0  0  0  0  0  0  0  0
   48.0280   34.7000   37.0170 O   0  0  0  0  0  0  0  0  0  0  0  0
   47.2200   33.4360   37.2080 P   0  0  2  0  0  0  0  0  0  0  0  0
   45.8110   33.4810   36.2600 O   0  0  0  0  0  0  0  0  0  0  0  0
   45.8790   33.0070   35.4160 H   0  0  0  0  0  0  0  0  0  0  0  0
   48.1300   32.1410   36.5880 O   0  0  0  0  0  0  0  0  0  0  0  0
   48.1140   31.7810   35.2330 C   0  0  0  0  0  0  0  0  0  0  0  0
   47.5130   30.6120   34.7880 C   0  0  0  0  0  0  0  0  0  0  0  0
   47.0510   29.9760   35.5090 H   0  0  0  0  0  0  0  0  0  0  0  0
   47.5490   30.3380   33.4270 C   0  0  0  0  0  0  0  0  0  0  0  0
   48.1690   31.2170   32.5620 C   0  0  0  0  0  0  0  0  0  0  0  0
   48.2330   31.0010   31.2300 N   0  0  0  0  0  0  0  0  0  0  0  0
   48.8530   31.8880   30.4040 C   0  0  0  0  0  0  0  0  0  0  0  0
   48.8960   31.6990   29.3290 H   0  0  0  0  0  0  0  0  0  0  0  0
   49.4520   33.0510   30.8370 C   0  0  0  0  0  0  0  0  0  0  0  0
   49.4070   33.3100   32.2120 C   0  0  0  0  0  0  0  0  0  0  0  0
   48.7670   32.3790   33.0040 C   0  0  0  0  0  0  0  0  0  0  0  0
   48.7480   32.6820   34.3690 C   0  0  0  0  0  0  0  0  0  0  0  0
  2  1  1  0  0  0  0
  2  3  1  0  0  0  0
  3 15  1  0  0  0  0
  4  3  2  0  0  0  0
  4  8  1  0  0  0  0
  5  9  1  0  0  0  0
  5  4  1  0  0  0  0
  6  7  1  0  0  0  0
  6  5  2  0  0  0  0
  7  2  2  0  0  0  0
 10  6  1  0  0  0  0
 11 12  1  0  0  0  0
 11 19  1  0  0  0  0
 12 17  1  0  0  0  0
 13 18  1  0  0  0  0
 13 12  2  0  0  0  0
 14 13  1  0  0  0  0
 15 14  2  0  0  0  0
 15 16  1  0  0  0  0
 16 11  2  0  0  0  0
 19 20  1  0  0  0  0
 21 19  1  0  0  0  0
 22  7  1  0  0  0  0
 24 23  2  6  0  0  0
 24 22  1  0  0  0  0
 25 24  1  0  0  0  0
 26 25  1  0  0  0  0
 27 24  1  0  0  0  0
 28 27  1  0  0  0  0
 29 28  1  0  0  0  0
 29 30  1  0  0  0  0
 31 29  2  0  0  0  0
 32 38  1  0  0  0  0
 32 31  1  0  0  0  0
 33 32  2  0  0  0  0
 34 36  2  0  0  0  0
 34 33  1  0  0  0  0
 35 34  1  0  0  0  0
 36 37  1  0  0  0  0
 37 38  2  0  0  0  0
 38 39  1  0  0  0  0
 39 28  2  0  0  0  0
M  END
>  <minimizedAffinity>
-7.87897205

>  <minimizedRMSD>
2.31562662

$$$$
