
 OpenBabel03252506463D

 45 49  0  0  1  0  0  0  0  0999 V2000
   49.5480   33.3550   41.5060 N   0  0  1  0  0  0  0  0  0  0  0  0
   50.7450   33.1270   42.2770 C   0  0  0  0  0  0  0  0  0  0  0  0
   51.3680   31.7850   42.0180 C   0  0  0  0  0  0  0  0  0  0  0  0
   50.4430   30.7170   42.5580 C   0  0  0  0  0  0  0  0  0  0  0  0
   48.9970   31.0980   42.3350 C   0  0  0  0  0  0  0  0  0  0  0  0
   48.9180   32.0960   41.1880 C   0  0  2  0  0  0  0  0  0  0  0  0
   50.5230   33.1900   43.3720 H   0  0  0  0  0  0  0  0  0  0  0  0
   51.4920   33.8920   42.0410 H   0  0  0  0  0  0  0  0  0  0  0  0
   52.2820   31.7540   42.6660 H   0  0  0  0  0  0  0  0  0  0  0  0
   51.6600   31.6450   40.9690 H   0  0  0  0  0  0  0  0  0  0  0  0
   50.6160   29.8140   41.9330 H   0  0  0  0  0  0  0  0  0  0  0  0
   50.6600   30.4460   43.6060 H   0  0  0  0  0  0  0  0  0  0  0  0
   48.6380   31.5610   43.2660 H   0  0  0  0  0  0  0  0  0  0  0  0
   48.3690   30.2400   42.0480 H   0  0  0  0  0  0  0  0  0  0  0  0
   47.8340   32.2960   41.0630 H   0  0  0  0  0  0  0  0  0  0  0  0
   47.2850   34.5250   41.9380 C   0  0  1  0  0  0  0  0  0  0  0  0
   48.2900   35.4860   41.5050 C   0  0  0  0  0  0  0  0  0  0  0  0
   48.7420   34.2670   42.2450 C   0  0  2  0  0  0  0  0  0  0  0  0
   46.8740   33.7040   41.2810 H   0  0  0  0  0  0  0  0  0  0  0  0
   48.4690   35.5600   40.3970 H   0  0  0  0  0  0  0  0  0  0  0  0
   48.2690   36.4840   41.9730 H   0  0  0  0  0  0  0  0  0  0  0  0
   49.0330   34.4510   43.3030 H   0  0  0  0  0  0  0  0  0  0  0  0
   45.5970   36.0290   43.0330 C   0  0  0  0  0  0  0  0  0  0  0  0
   46.3590   34.8360   43.0410 C   0  0  0  0  0  0  0  0  0  0  0  0
   46.2010   33.9680   44.1170 C   0  0  0  0  0  0  0  0  0  0  0  0
   45.3250   34.3100   45.0990 N   0  0  0  0  0  0  0  0  0  0  0  0
   44.6110   35.4410   45.0760 C   0  0  0  0  0  0  0  0  0  0  0  0
   44.7410   36.3190   44.0340 N   0  0  0  0  0  0  0  0  0  0  0  0
   45.7470   36.6760   42.1810 H   0  0  0  0  0  0  0  0  0  0  0  0
   46.7580   33.0370   44.1830 H   0  0  0  0  0  0  0  0  0  0  0  0
   43.9150   35.7080   45.8610 H   0  0  0  0  0  0  0  0  0  0  0  0
   49.3820   31.4760   39.9890 N   0  0  0  0  0  0  0  0  0  0  0  0
   49.9740   30.6000   40.0820 H   0  0  0  0  0  0  0  0  0  0  0  0
   49.1450   31.8890   38.6690 C   0  0  0  0  0  0  0  0  0  0  0  0
   48.3090   32.9020   38.2890 C   0  0  0  0  0  0  0  0  0  0  0  0
   47.7770   33.4570   39.0320 H   0  0  0  0  0  0  0  0  0  0  0  0
   48.0570   33.3250   37.0080 C   0  0  0  0  0  3  0  0  0  0  0  0
   48.7130   32.6600   35.9740 C   0  0  0  0  0  0  0  0  0  0  0  0
   48.5370   32.9930   34.6830 N   0  0  0  0  0  0  0  0  0  0  0  0
   49.1670   32.3560   33.6820 C   0  0  0  0  0  0  0  0  0  0  0  0
   48.9300   32.7310   32.7030 H   0  0  0  0  0  0  0  0  0  0  0  0
   50.0460   31.3040   33.9350 C   0  0  0  0  0  3  0  0  0  0  0  0
   50.2190   30.9720   35.2620 C   0  0  0  0  0  3  0  0  0  0  0  0
   49.5680   31.6320   36.2770 C   0  0  0  0  0  0  0  0  0  0  0  0
   49.7600   31.2770   37.5830 C   0  0  0  0  0  3  0  0  0  0  0  0
  1 18  1  0  0  0  0
  1  2  1  1  0  0  0
  2  7  1  0  0  0  0
  3  2  1  0  0  0  0
  3  4  1  0  0  0  0
  3  9  1  0  0  0  0
  4 12  1  0  0  0  0
  5  4  1  0  0  0  0
  5 13  1  0  0  0  0
  6 15  1  6  0  0  0
  6  1  1  0  0  0  0
  6  5  1  0  0  0  0
  8  2  1  0  0  0  0
 10  3  1  0  0  0  0
 11  4  1  0  0  0  0
 14  5  1  0  0  0  0
 16 19  1  6  0  0  0
 16 18  1  0  0  0  0
 16 24  1  0  0  0  0
 17 16  1  0  0  0  0
 17 21  1  0  0  0  0
 17 18  1  0  0  0  0
 18 22  1  1  0  0  0
 20 17  1  0  0  0  0
 23 24  2  0  0  0  0
 23 28  1  0  0  0  0
 24 25  1  0  0  0  0
 25 30  1  0  0  0  0
 25 26  2  0  0  0  0
 27 26  1  0  0  0  0
 27 31  1  0  0  0  0
 28 27  2  0  0  0  0
 29 23  1  0  0  0  0
 32 33  1  0  0  0  0
 32  6  1  0  0  0  0
 34 32  1  0  0  0  0
 35 34  1  0  0  0  0
 35 36  1  0  0  0  0
 37 35  2  0  0  0  0
 38 44  1  0  0  0  0
 38 37  1  0  0  0  0
 39 38  2  0  0  0  0
 40 42  2  0  0  0  0
 40 39  1  0  0  0  0
 41 40  1  0  0  0  0
 42 43  1  0  0  0  0
 43 44  2  0  0  0  0
 44 45  1  0  0  0  0
 45 34  2  0  0  0  0
M  END
>  <minimizedAffinity>
-5.86189699

>  <minimizedRMSD>
0.875792742

$$$$
