
 OpenBabel03242518183D

 26 28  0  0  0  0  0  0  0  0999 V2000
   35.7870   29.3980   40.6350 C   0  0  0  0  0  0  0  0  0  0  0  0
   35.1800   30.0430   41.2980 H   0  0  0  0  0  0  0  0  0  0  0  0
   35.0390   28.7430   40.1190 H   0  0  0  0  0  0  0  0  0  0  0  0
   36.7730   28.5730   41.4070 C   0  0  0  0  0  0  0  0  0  0  0  0
   37.4980   29.2890   42.3580 C   0  0  0  0  0  0  0  0  0  0  0  0
   37.3610   30.3490   42.5220 H   0  0  0  0  0  0  0  0  0  0  0  0
   38.4290   28.5910   43.1110 C   0  0  0  0  0  3  0  0  0  0  0  0
   38.6000   27.2420   42.8990 C   0  0  0  0  0  0  0  0  0  0  0  0
   39.5350   26.6290   43.6800 N   0  0  0  0  0  0  0  0  0  0  0  0
   39.7500   25.3150   43.5220 C   0  0  0  0  0  0  0  0  0  0  0  0
   40.4900   24.8620   44.1510 H   0  0  0  0  0  0  0  0  0  0  0  0
   39.0270   24.6110   42.5780 C   0  0  0  0  0  3  0  0  0  0  0  0
   38.0850   25.1790   41.7760 C   0  0  0  0  0  3  0  0  0  0  0  0
   37.8680   26.5390   41.9450 C   0  0  0  0  0  0  0  0  0  0  0  0
   36.9330   27.2230   41.1810 C   0  0  0  0  0  3  0  0  0  0  0  0
   37.3860   30.2620   37.4790 C   0  0  0  0  0  0  0  0  0  0  0  0
   37.6760   31.6260   37.6030 C   0  0  0  0  0  0  0  0  0  0  0  0
   37.3190   32.2500   38.7760 C   0  0  0  0  0  0  0  0  0  0  0  0
   36.7120   31.5330   39.7510 N   0  0  0  0  0  0  0  0  0  0  0  0
   36.4490   30.2270   39.6010 C   0  0  0  0  0  0  0  0  0  0  0  0
   36.7830   29.5750   38.4630 N   0  0  0  0  0  0  0  0  0  0  0  0
   37.6480   29.7270   36.5750 H   0  0  0  0  0  0  0  0  0  0  0  0
   37.5510   33.3040   38.8560 H   0  0  0  0  0  0  0  0  0  0  0  0
   38.3140   32.2260   36.4920 N   0  0  0  0  0  0  0  0  0  0  0  0
   37.8570   32.6670   35.6600 H   0  0  0  0  0  0  0  0  0  0  0  0
   39.3120   32.1060   36.7350 H   0  0  0  0  0  0  0  0  0  0  0  0
  1  2  1  0  0  0  0
  1  4  1  0  0  0  0
  3  1  1  0  0  0  0
  4  5  1  0  0  0  0
  5  6  1  0  0  0  0
  5  7  2  0  0  0  0
  8  7  1  0  0  0  0
  8  9  1  0  0  0  0
 10  9  2  0  0  0  0
 10 11  1  0  0  0  0
 12 10  1  0  0  0  0
 13 14  1  0  0  0  0
 13 12  2  0  0  0  0
 14  8  2  0  0  0  0
 15  4  2  0  0  0  0
 15 14  1  0  0  0  0
 16 17  2  0  0  0  0
 16 21  1  0  0  0  0
 17 18  1  0  0  0  0
 18 23  1  0  0  0  0
 18 19  2  0  0  0  0
 20 19  1  0  0  0  0
 20  1  1  0  0  0  0
 21 20  2  0  0  0  0
 22 16  1  0  0  0  0
 24 26  1  0  0  0  0
 24 17  1  0  0  0  0
 25 24  1  0  0  0  0
M  END
>  <minimizedAffinity>
-5.73124981

$$$$

 OpenBabel03242518183D

 26 28  0  0  0  0  0  0  0  0999 V2000
   37.5460   28.2120   43.6800 C   0  0  0  0  0  0  0  0  0  0  0  0
   36.4750   28.2370   43.9540 H   0  0  0  0  0  0  0  0  0  0  0  0
   38.0890   28.3210   44.6540 H   0  0  0  0  0  0  0  0  0  0  0  0
   37.9090   29.3240   42.7420 C   0  0  0  0  0  0  0  0  0  0  0  0
   39.1820   29.8550   42.9480 C   0  0  0  0  0  0  0  0  0  0  0  0
   39.8480   29.4930   43.7190 H   0  0  0  0  0  0  0  0  0  0  0  0
   39.5860   30.8870   42.1180 C   0  0  0  0  0  3  0  0  0  0  0  0
   38.7350   31.3440   41.1380 C   0  0  0  0  0  0  0  0  0  0  0  0
   39.2080   32.3620   40.3640 N   0  0  0  0  0  0  0  0  0  0  0  0
   38.4270   32.8530   39.3910 C   0  0  0  0  0  0  0  0  0  0  0  0
   38.8270   33.6520   38.8000 H   0  0  0  0  0  0  0  0  0  0  0  0
   37.1660   32.3230   39.1920 C   0  0  0  0  0  3  0  0  0  0  0  0
   36.6510   31.3080   39.9380 C   0  0  0  0  0  3  0  0  0  0  0  0
   37.4660   30.8050   40.9430 C   0  0  0  0  0  0  0  0  0  0  0  0
   37.0440   29.7710   41.7660 C   0  0  0  0  0  3  0  0  0  0  0  0
   37.1140   25.0370   41.9480 C   0  0  0  0  0  0  0  0  0  0  0  0
   38.3700   24.4240   42.0380 C   0  0  0  0  0  0  0  0  0  0  0  0
   39.3670   25.1050   42.6970 C   0  0  0  0  0  0  0  0  0  0  0  0
   39.1020   26.3240   43.2250 N   0  0  0  0  0  0  0  0  0  0  0  0
   37.8880   26.8830   43.1210 C   0  0  0  0  0  0  0  0  0  0  0  0
   36.8790   26.2480   42.4810 N   0  0  0  0  0  0  0  0  0  0  0  0
   36.2980   24.5410   41.4390 H   0  0  0  0  0  0  0  0  0  0  0  0
   40.3310   24.6170   42.7580 H   0  0  0  0  0  0  0  0  0  0  0  0
   38.4800   23.1490   41.4330 N   0  0  0  0  0  0  0  0  0  0  0  0
   38.7400   22.9390   40.4420 H   0  0  0  0  0  0  0  0  0  0  0  0
   38.2410   22.5240   42.2210 H   0  0  0  0  0  0  0  0  0  0  0  0
  1  2  1  0  0  0  0
  1  3  1  0  0  0  0
  4  5  1  0  0  0  0
  4  1  1  0  0  0  0
  5  6  1  0  0  0  0
  7  5  2  0  0  0  0
  8  7  1  0  0  0  0
  9  8  2  0  0  0  0
 10  9  1  0  0  0  0
 11 10  1  0  0  0  0
 12 10  2  0  0  0  0
 12 13  1  0  0  0  0
 13 14  2  0  0  0  0
 14  8  1  0  0  0  0
 14 15  1  0  0  0  0
 15  4  2  0  0  0  0
 16 17  2  0  0  0  0
 16 21  1  0  0  0  0
 17 18  1  0  0  0  0
 18 23  1  0  0  0  0
 18 19  2  0  0  0  0
 20 19  1  0  0  0  0
 20  1  1  0  0  0  0
 21 20  2  0  0  0  0
 22 16  1  0  0  0  0
 24 17  1  0  0  0  0
 24 26  1  0  0  0  0
 25 24  1  0  0  0  0
M  END
>  <minimizedAffinity>
-5.54472923

$$$$

 OpenBabel03242518183D

 26 28  0  0  0  0  0  0  0  0999 V2000
   36.5840   30.5970   40.9850 C   0  0  0  0  0  0  0  0  0  0  0  0
   36.8240   31.2150   41.8710 H   0  0  0  0  0  0  0  0  0  0  0  0
   35.5130   30.8350   40.7590 H   0  0  0  0  0  0  0  0  0  0  0  0
   36.7580   29.1340   41.2590 C   0  0  0  0  0  0  0  0  0  0  0  0
   37.1340   28.8380   42.5680 C   0  0  0  0  0  0  0  0  0  0  0  0
   37.2880   29.6010   43.3190 H   0  0  0  0  0  0  0  0  0  0  0  0
   37.3130   27.5030   42.8960 C   0  0  0  0  0  3  0  0  0  0  0  0
   37.1170   26.5360   41.9380 C   0  0  0  0  0  0  0  0  0  0  0  0
   37.3130   25.2480   42.3400 N   0  0  0  0  0  0  0  0  0  0  0  0
   37.1370   24.2580   41.4530 C   0  0  0  0  0  0  0  0  0  0  0  0
   37.2990   23.2570   41.8000 H   0  0  0  0  0  0  0  0  0  0  0  0
   36.7640   24.5580   40.1570 C   0  0  0  0  0  3  0  0  0  0  0  0
   36.5570   25.8270   39.7090 C   0  0  0  0  0  3  0  0  0  0  0  0
   36.7400   26.8460   40.6330 C   0  0  0  0  0  0  0  0  0  0  0  0
   36.5570   28.1770   40.2870 C   0  0  0  0  0  3  0  0  0  0  0  0
   39.5260   31.5610   39.0650 C   0  0  0  0  0  0  0  0  0  0  0  0
   39.0220   31.8580   37.7920 C   0  0  0  0  0  0  0  0  0  0  0  0
   37.6670   31.7260   37.5950 C   0  0  0  0  0  0  0  0  0  0  0  0
   36.8830   31.3200   38.6230 N   0  0  0  0  0  0  0  0  0  0  0  0
   37.3970   31.0440   39.8290 C   0  0  0  0  0  0  0  0  0  0  0  0
   38.7240   31.1600   40.0660 N   0  0  0  0  0  0  0  0  0  0  0  0
   40.5850   31.6490   39.2690 H   0  0  0  0  0  0  0  0  0  0  0  0
   37.2950   31.9600   36.6060 H   0  0  0  0  0  0  0  0  0  0  0  0
   39.9760   32.2680   36.8310 N   0  0  0  0  0  0  0  0  0  0  0  0
   40.5260   31.6580   36.1830 H   0  0  0  0  0  0  0  0  0  0  0  0
   39.9660   33.2950   36.9530 H   0  0  0  0  0  0  0  0  0  0  0  0
  1  4  1  0  0  0  0
  1  2  1  0  0  0  0
  3  1  1  0  0  0  0
  4  5  1  0  0  0  0
  5  7  2  0  0  0  0
  5  6  1  0  0  0  0
  8  9  1  0  0  0  0
  8  7  1  0  0  0  0
 10 11  1  0  0  0  0
 10  9  2  0  0  0  0
 12 10  1  0  0  0  0
 13 12  2  0  0  0  0
 13 14  1  0  0  0  0
 14  8  2  0  0  0  0
 15 14  1  0  0  0  0
 15  4  2  0  0  0  0
 16 22  1  0  0  0  0
 16 21  1  0  0  0  0
 17 16  2  0  0  0  0
 18 17  1  0  0  0  0
 18 19  2  0  0  0  0
 19 20  1  0  0  0  0
 20 21  2  0  0  0  0
 20  1  1  0  0  0  0
 23 18  1  0  0  0  0
 24 26  1  0  0  0  0
 24 17  1  0  0  0  0
 25 24  1  0  0  0  0
M  END
>  <minimizedAffinity>
-5.53698254

$$$$

 OpenBabel03242518183D

 26 28  0  0  0  0  0  0  0  0999 V2000
   39.2310   29.8700   42.6060 C   0  0  0  0  0  0  0  0  0  0  0  0
   40.3250   29.8750   42.4410 H   0  0  0  0  0  0  0  0  0  0  0  0
   39.1040   30.2290   43.6600 H   0  0  0  0  0  0  0  0  0  0  0  0
   38.6470   28.4990   42.4380 C   0  0  0  0  0  0  0  0  0  0  0  0
   37.5700   28.2290   43.2790 C   0  0  0  0  0  0  0  0  0  0  0  0
   37.1890   28.9480   43.9920 H   0  0  0  0  0  0  0  0  0  0  0  0
   36.9780   26.9790   43.1800 C   0  0  0  0  0  3  0  0  0  0  0  0
   37.4650   26.0670   42.2720 C   0  0  0  0  0  0  0  0  0  0  0  0
   36.8290   24.8620   42.2360 N   0  0  0  0  0  0  0  0  0  0  0  0
   37.2550   23.9290   41.3740 C   0  0  0  0  0  0  0  0  0  0  0  0
   36.7350   22.9930   41.3690 H   0  0  0  0  0  0  0  0  0  0  0  0
   38.3250   24.2030   40.5420 C   0  0  0  0  0  3  0  0  0  0  0  0
   38.9910   25.3900   40.5410 C   0  0  0  0  0  3  0  0  0  0  0  0
   38.5440   26.3510   41.4370 C   0  0  0  0  0  0  0  0  0  0  0  0
   39.1480   27.5970   41.5240 C   0  0  0  0  0  3  0  0  0  0  0  0
   38.7660   32.9430   40.7080 C   0  0  0  0  0  0  0  0  0  0  0  0
   37.5210   32.7770   40.0870 C   0  0  0  0  0  0  0  0  0  0  0  0
   36.8420   31.6040   40.3220 C   0  0  0  0  0  0  0  0  0  0  0  0
   37.3920   30.6700   41.1330 N   0  0  0  0  0  0  0  0  0  0  0  0
   38.5860   30.8600   41.7130 C   0  0  0  0  0  0  0  0  0  0  0  0
   39.2880   31.9980   41.5080 N   0  0  0  0  0  0  0  0  0  0  0  0
   39.3380   33.8480   40.5540 H   0  0  0  0  0  0  0  0  0  0  0  0
   35.8820   31.4930   39.8350 H   0  0  0  0  0  0  0  0  0  0  0  0
   37.0900   33.8500   39.2720 N   0  0  0  0  0  0  0  0  0  0  0  0
   37.2860   33.9910   38.2530 H   0  0  0  0  0  0  0  0  0  0  0  0
   36.5530   34.4210   39.9460 H   0  0  0  0  0  0  0  0  0  0  0  0
  1  3  1  0  0  0  0
  2  1  1  0  0  0  0
  4  1  1  0  0  0  0
  4  5  1  0  0  0  0
  5  6  1  0  0  0  0
  7  5  2  0  0  0  0
  8  7  1  0  0  0  0
  9  8  1  0  0  0  0
 10  9  2  0  0  0  0
 11 10  1  0  0  0  0
 12 10  1  0  0  0  0
 13 12  2  0  0  0  0
 13 14  1  0  0  0  0
 14 15  1  0  0  0  0
 14  8  2  0  0  0  0
 15  4  2  0  0  0  0
 16 21  1  0  0  0  0
 17 18  1  0  0  0  0
 17 16  2  0  0  0  0
 18 19  2  0  0  0  0
 19 20  1  0  0  0  0
 20  1  1  0  0  0  0
 21 20  2  0  0  0  0
 22 16  1  0  0  0  0
 23 18  1  0  0  0  0
 24 26  1  0  0  0  0
 24 17  1  0  0  0  0
 25 24  1  0  0  0  0
M  END
>  <minimizedAffinity>
-5.53472233

$$$$

 OpenBabel03242518183D

 26 28  0  0  0  0  0  0  0  0999 V2000
   36.7690   30.1290   41.2890 C   0  0  0  0  0  0  0  0  0  0  0  0
   36.9160   30.8040   42.1530 H   0  0  0  0  0  0  0  0  0  0  0  0
   35.6600   30.1160   41.1290 H   0  0  0  0  0  0  0  0  0  0  0  0
   37.2810   28.7480   41.5660 C   0  0  0  0  0  0  0  0  0  0  0  0
   36.6570   27.7460   40.8250 C   0  0  0  0  0  0  0  0  0  0  0  0
   35.8700   27.9500   40.1120 H   0  0  0  0  0  0  0  0  0  0  0  0
   37.0790   26.4420   41.0280 C   0  0  0  0  0  3  0  0  0  0  0  0
   38.0810   26.1860   41.9360 C   0  0  0  0  0  0  0  0  0  0  0  0
   38.4390   24.8780   42.0780 N   0  0  0  0  0  0  0  0  0  0  0  0
   39.4090   24.5620   42.9470 C   0  0  0  0  0  0  0  0  0  0  0  0
   39.6680   23.5260   43.0350 H   0  0  0  0  0  0  0  0  0  0  0  0
   40.0250   25.5590   43.6790 C   0  0  0  0  0  3  0  0  0  0  0  0
   39.7020   26.8780   43.5720 C   0  0  0  0  0  3  0  0  0  0  0  0
   38.6970   27.1970   42.6700 C   0  0  0  0  0  0  0  0  0  0  0  0
   38.2860   28.5080   42.4800 C   0  0  0  0  0  3  0  0  0  0  0  0
   39.3690   31.4010   39.0800 C   0  0  0  0  0  0  0  0  0  0  0  0
   38.6780   31.7940   37.9270 C   0  0  0  0  0  0  0  0  0  0  0  0
   37.3130   31.6190   37.9100 C   0  0  0  0  0  0  0  0  0  0  0  0
   36.7000   31.0840   38.9930 N   0  0  0  0  0  0  0  0  0  0  0  0
   37.3910   30.7190   40.0810 C   0  0  0  0  0  0  0  0  0  0  0  0
   38.7340   30.8720   40.1390 N   0  0  0  0  0  0  0  0  0  0  0  0
   40.4430   31.5180   39.1400 H   0  0  0  0  0  0  0  0  0  0  0  0
   36.7950   31.9280   37.0120 H   0  0  0  0  0  0  0  0  0  0  0  0
   39.4690   32.3360   36.8860 N   0  0  0  0  0  0  0  0  0  0  0  0
   39.9390   31.8140   36.1100 H   0  0  0  0  0  0  0  0  0  0  0  0
   39.4440   33.3450   37.1100 H   0  0  0  0  0  0  0  0  0  0  0  0
  1  4  1  0  0  0  0
  1  2  1  0  0  0  0
  3  1  1  0  0  0  0
  4 15  1  0  0  0  0
  5  7  1  0  0  0  0
  5  4  2  0  0  0  0
  6  5  1  0  0  0  0
  7  8  2  0  0  0  0
  8  9  1  0  0  0  0
  8 14  1  0  0  0  0
  9 10  2  0  0  0  0
 10 11  1  0  0  0  0
 10 12  1  0  0  0  0
 13 12  2  0  0  0  0
 14 13  1  0  0  0  0
 15 14  2  0  0  0  0
 16 22  1  0  0  0  0
 16 21  1  0  0  0  0
 17 16  2  0  0  0  0
 18 17  1  0  0  0  0
 18 19  2  0  0  0  0
 19 20  1  0  0  0  0
 20 21  2  0  0  0  0
 20  1  1  0  0  0  0
 23 18  1  0  0  0  0
 24 26  1  0  0  0  0
 24 17  1  0  0  0  0
 25 24  1  0  0  0  0
M  END
>  <minimizedAffinity>
-5.51894903

$$$$

 OpenBabel03242518183D

 26 28  0  0  0  0  0  0  0  0999 V2000
   38.0790   28.7240   43.2170 C   0  0  0  0  0  0  0  0  0  0  0  0
   38.8930   28.9750   43.9220 H   0  0  0  0  0  0  0  0  0  0  0  0
   37.1640   28.6510   43.8600 H   0  0  0  0  0  0  0  0  0  0  0  0
   38.3340   27.4290   42.5070 C   0  0  0  0  0  0  0  0  0  0  0  0
   39.6580   27.2430   42.1120 C   0  0  0  0  0  0  0  0  0  0  0  0
   40.4320   27.9740   42.3030 H   0  0  0  0  0  0  0  0  0  0  0  0
   39.9690   26.0670   41.4490 C   0  0  0  0  0  3  0  0  0  0  0  0
   38.9800   25.1410   41.2080 C   0  0  0  0  0  0  0  0  0  0  0  0
   39.3670   24.0110   40.5510 N   0  0  0  0  0  0  0  0  0  0  0  0
   38.4510   23.0690   40.2860 C   0  0  0  0  0  0  0  0  0  0  0  0
   38.7870   22.1930   39.7680 H   0  0  0  0  0  0  0  0  0  0  0  0
   37.1400   23.2590   40.6790 C   0  0  0  0  0  3  0  0  0  0  0  0
   36.7060   24.3690   41.3370 C   0  0  0  0  0  3  0  0  0  0  0  0
   37.6610   25.3400   41.6080 C   0  0  0  0  0  0  0  0  0  0  0  0
   37.3310   26.5120   42.2730 C   0  0  0  0  0  3  0  0  0  0  0  0
   36.3600   30.9540   40.9070 C   0  0  0  0  0  0  0  0  0  0  0  0
   37.3470   31.8650   40.5110 C   0  0  0  0  0  0  0  0  0  0  0  0
   38.6070   31.7110   41.0420 C   0  0  0  0  0  0  0  0  0  0  0  0
   38.8420   30.7000   41.9120 N   0  0  0  0  0  0  0  0  0  0  0  0
   37.8740   29.8450   42.2700 C   0  0  0  0  0  0  0  0  0  0  0  0
   36.6210   29.9600   41.7720 N   0  0  0  0  0  0  0  0  0  0  0  0
   35.3540   31.0340   40.5170 H   0  0  0  0  0  0  0  0  0  0  0  0
   39.3580   32.4230   40.7250 H   0  0  0  0  0  0  0  0  0  0  0  0
   36.9370   32.8610   39.5940 N   0  0  0  0  0  0  0  0  0  0  0  0
   36.5310   33.8000   39.8180 H   0  0  0  0  0  0  0  0  0  0  0  0
   37.1470   32.4100   38.6880 H   0  0  0  0  0  0  0  0  0  0  0  0
  1  3  1  0  0  0  0
  1  2  1  0  0  0  0
  4  1  1  0  0  0  0
  5  6  1  0  0  0  0
  5  4  2  0  0  0  0
  7  5  1  0  0  0  0
  8  7  2  0  0  0  0
  8 14  1  0  0  0  0
  9  8  1  0  0  0  0
 10  9  2  0  0  0  0
 10 12  1  0  0  0  0
 11 10  1  0  0  0  0
 12 13  2  0  0  0  0
 13 14  1  0  0  0  0
 14 15  2  0  0  0  0
 15  4  1  0  0  0  0
 16 21  1  0  0  0  0
 17 16  2  0  0  0  0
 17 18  1  0  0  0  0
 18 19  2  0  0  0  0
 19 20  1  0  0  0  0
 20  1  1  0  0  0  0
 21 20  2  0  0  0  0
 22 16  1  0  0  0  0
 23 18  1  0  0  0  0
 24 25  1  0  0  0  0
 24 17  1  0  0  0  0
 26 24  1  0  0  0  0
M  END
>  <minimizedAffinity>
-5.33066511

$$$$

 OpenBabel03242518183D

 26 28  0  0  0  0  0  0  0  0999 V2000
   37.6670   28.4410   43.6790 C   0  0  0  0  0  0  0  0  0  0  0  0
   36.6010   28.5030   43.9670 H   0  0  0  0  0  0  0  0  0  0  0  0
   38.2260   28.5850   44.6410 H   0  0  0  0  0  0  0  0  0  0  0  0
   38.0400   29.4990   42.6850 C   0  0  0  0  0  0  0  0  0  0  0  0
   37.0100   29.8590   41.8180 C   0  0  0  0  0  0  0  0  0  0  0  0
   36.0270   29.4110   41.8610 H   0  0  0  0  0  0  0  0  0  0  0  0
   37.2820   30.8330   40.8710 C   0  0  0  0  0  3  0  0  0  0  0  0
   38.5350   31.4000   40.8200 C   0  0  0  0  0  0  0  0  0  0  0  0
   38.7220   32.3500   39.8600 N   0  0  0  0  0  0  0  0  0  0  0  0
   39.9200   32.9410   39.7570 C   0  0  0  0  0  0  0  0  0  0  0  0
   40.0350   33.6840   38.9930 H   0  0  0  0  0  0  0  0  0  0  0  0
   40.9380   32.5800   40.6200 C   0  0  0  0  0  3  0  0  0  0  0  0
   40.7990   31.6390   41.5930 C   0  0  0  0  0  3  0  0  0  0  0  0
   39.5550   31.0310   41.6930 C   0  0  0  0  0  0  0  0  0  0  0  0
   39.3010   30.0570   42.6470 C   0  0  0  0  0  3  0  0  0  0  0  0
   37.1420   25.1940   42.1160 C   0  0  0  0  0  0  0  0  0  0  0  0
   38.3880   24.5620   42.2130 C   0  0  0  0  0  0  0  0  0  0  0  0
   39.4100   25.2550   42.8170 C   0  0  0  0  0  0  0  0  0  0  0  0
   39.1780   26.5030   43.2890 N   0  0  0  0  0  0  0  0  0  0  0  0
   37.9730   27.0800   43.1810 C   0  0  0  0  0  0  0  0  0  0  0  0
   36.9400   26.4340   42.5930 N   0  0  0  0  0  0  0  0  0  0  0  0
   36.3070   24.6900   41.6480 H   0  0  0  0  0  0  0  0  0  0  0  0
   40.3660   24.7520   42.8840 H   0  0  0  0  0  0  0  0  0  0  0  0
   38.4620   23.2570   41.6700 N   0  0  0  0  0  0  0  0  0  0  0  0
   38.6980   22.9930   40.6850 H   0  0  0  0  0  0  0  0  0  0  0  0
   38.2270   22.6760   42.4920 H   0  0  0  0  0  0  0  0  0  0  0  0
  1  2  1  0  0  0  0
  1  3  1  0  0  0  0
  4  1  1  0  0  0  0
  5  6  1  0  0  0  0
  5  4  2  0  0  0  0
  7  5  1  0  0  0  0
  8  7  2  0  0  0  0
  8 14  1  0  0  0  0
  9  8  1  0  0  0  0
 10  9  2  0  0  0  0
 10 12  1  0  0  0  0
 11 10  1  0  0  0  0
 12 13  2  0  0  0  0
 13 14  1  0  0  0  0
 14 15  2  0  0  0  0
 15  4  1  0  0  0  0
 16 17  2  0  0  0  0
 16 21  1  0  0  0  0
 17 18  1  0  0  0  0
 18 23  1  0  0  0  0
 18 19  2  0  0  0  0
 20 19  1  0  0  0  0
 20  1  1  0  0  0  0
 21 20  2  0  0  0  0
 22 16  1  0  0  0  0
 24 17  1  0  0  0  0
 24 26  1  0  0  0  0
 25 24  1  0  0  0  0
M  END
>  <minimizedAffinity>
-5.21997976

$$$$

 OpenBabel03242518183D

 26 28  0  0  0  0  0  0  0  0999 V2000
   36.2010   30.7570   40.9420 C   0  0  0  0  0  0  0  0  0  0  0  0
   35.7400   30.9770   41.9230 H   0  0  0  0  0  0  0  0  0  0  0  0
   35.4630   31.1440   40.1920 H   0  0  0  0  0  0  0  0  0  0  0  0
   36.4310   29.2880   40.7500 C   0  0  0  0  0  0  0  0  0  0  0  0
   36.4780   28.8850   39.4160 C   0  0  0  0  0  0  0  0  0  0  0  0
   36.3590   29.5750   38.5930 H   0  0  0  0  0  0  0  0  0  0  0  0
   36.6890   27.5390   39.1610 C   0  0  0  0  0  3  0  0  0  0  0  0
   36.8400   26.6650   40.2130 C   0  0  0  0  0  0  0  0  0  0  0  0
   37.0430   25.3580   39.8780 N   0  0  0  0  0  0  0  0  0  0  0  0
   37.1980   24.4550   40.8560 C   0  0  0  0  0  0  0  0  0  0  0  0
   37.3550   23.4370   40.5610 H   0  0  0  0  0  0  0  0  0  0  0  0
   37.1490   24.8610   42.1770 C   0  0  0  0  0  3  0  0  0  0  0  0
   36.9500   26.1520   42.5600 C   0  0  0  0  0  3  0  0  0  0  0  0
   36.7900   27.0810   41.5410 C   0  0  0  0  0  0  0  0  0  0  0  0
   36.5800   28.4250   41.8140 C   0  0  0  0  0  3  0  0  0  0  0  0
   38.4160   33.4670   39.9360 C   0  0  0  0  0  0  0  0  0  0  0  0
   39.6710   33.0850   40.4300 C   0  0  0  0  0  0  0  0  0  0  0  0
   39.7530   31.8920   41.1100 C   0  0  0  0  0  0  0  0  0  0  0  0
   38.6360   31.1430   41.2740 N   0  0  0  0  0  0  0  0  0  0  0  0
   37.4500   31.5380   40.7890 C   0  0  0  0  0  0  0  0  0  0  0  0
   37.3250   32.7040   40.1140 N   0  0  0  0  0  0  0  0  0  0  0  0
   38.3010   34.3960   39.3950 H   0  0  0  0  0  0  0  0  0  0  0  0
   40.7290   31.6120   41.4840 H   0  0  0  0  0  0  0  0  0  0  0  0
   40.7350   33.9810   40.1720 N   0  0  0  0  0  0  0  0  0  0  0  0
   41.0400   34.7890   40.7620 H   0  0  0  0  0  0  0  0  0  0  0  0
   41.1000   33.6170   39.2750 H   0  0  0  0  0  0  0  0  0  0  0  0
  1  2  1  0  0  0  0
  3  1  1  0  0  0  0
  4  1  1  0  0  0  0
  4 15  1  0  0  0  0
  5  4  2  0  0  0  0
  6  5  1  0  0  0  0
  7  5  1  0  0  0  0
  7  8  2  0  0  0  0
  8 14  1  0  0  0  0
  9  8  1  0  0  0  0
  9 10  2  0  0  0  0
 10 12  1  0  0  0  0
 11 10  1  0  0  0  0
 12 13  2  0  0  0  0
 14 15  2  0  0  0  0
 14 13  1  0  0  0  0
 16 21  2  0  0  0  0
 16 17  1  0  0  0  0
 17 18  2  0  0  0  0
 18 19  1  0  0  0  0
 18 23  1  0  0  0  0
 20  1  1  0  0  0  0
 20 19  2  0  0  0  0
 21 20  1  0  0  0  0
 22 16  1  0  0  0  0
 24 17  1  0  0  0  0
 24 25  1  0  0  0  0
 26 24  1  0  0  0  0
M  END
>  <minimizedAffinity>
-5.14877129

$$$$

 OpenBabel03242518183D

 26 28  0  0  0  0  0  0  0  0999 V2000
   35.7840   29.4080   39.5110 C   0  0  0  0  0  0  0  0  0  0  0  0
   35.4660   29.8930   40.4530 H   0  0  0  0  0  0  0  0  0  0  0  0
   34.8950   29.4970   38.8350 H   0  0  0  0  0  0  0  0  0  0  0  0
   36.1490   27.9690   39.7200 C   0  0  0  0  0  0  0  0  0  0  0  0
   35.9380   27.1570   38.6070 C   0  0  0  0  0  0  0  0  0  0  0  0
   35.5440   27.5350   37.6740 H   0  0  0  0  0  0  0  0  0  0  0  0
   36.2540   25.8130   38.7270 C   0  0  0  0  0  3  0  0  0  0  0  0
   36.7560   25.3360   39.9160 C   0  0  0  0  0  0  0  0  0  0  0  0
   37.0410   24.0040   39.9520 N   0  0  0  0  0  0  0  0  0  0  0  0
   37.5330   23.4760   41.0820 C   0  0  0  0  0  0  0  0  0  0  0  0
   37.7470   22.4260   41.0790 H   0  0  0  0  0  0  0  0  0  0  0  0
   37.7400   24.2870   42.1820 C   0  0  0  0  0  3  0  0  0  0  0  0
   37.4710   25.6210   42.1940 C   0  0  0  0  0  3  0  0  0  0  0  0
   36.9620   26.1600   41.0210 C   0  0  0  0  0  0  0  0  0  0  0  0
   36.6510   27.5070   40.9190 C   0  0  0  0  0  3  0  0  0  0  0  0
   37.6760   31.2240   36.9840 C   0  0  0  0  0  0  0  0  0  0  0  0
   38.8530   31.6010   37.6430 C   0  0  0  0  0  0  0  0  0  0  0  0
   38.9950   31.2290   38.9590 C   0  0  0  0  0  0  0  0  0  0  0  0
   38.0080   30.5230   39.5600 N   0  0  0  0  0  0  0  0  0  0  0  0
   36.8920   30.1780   38.9010 C   0  0  0  0  0  0  0  0  0  0  0  0
   36.7120   30.5240   37.6050 N   0  0  0  0  0  0  0  0  0  0  0  0
   37.5180   31.4940   35.9480 H   0  0  0  0  0  0  0  0  0  0  0  0
   39.9110   31.5280   39.4530 H   0  0  0  0  0  0  0  0  0  0  0  0
   39.7850   32.3350   36.8710 N   0  0  0  0  0  0  0  0  0  0  0  0
   39.8300   33.3740   36.7510 H   0  0  0  0  0  0  0  0  0  0  0  0
   40.3750   31.5800   36.4830 H   0  0  0  0  0  0  0  0  0  0  0  0
  1  4  1  0  0  0  0
  1  2  1  0  0  0  0
  3  1  1  0  0  0  0
  4 15  1  0  0  0  0
  5  7  1  0  0  0  0
  5  4  2  0  0  0  0
  6  5  1  0  0  0  0
  7  8  2  0  0  0  0
  8  9  1  0  0  0  0
  8 14  1  0  0  0  0
  9 10  2  0  0  0  0
 10 12  1  0  0  0  0
 11 10  1  0  0  0  0
 12 13  2  0  0  0  0
 14 13  1  0  0  0  0
 15 14  2  0  0  0  0
 16 21  2  0  0  0  0
 16 17  1  0  0  0  0
 17 18  2  0  0  0  0
 18 23  1  0  0  0  0
 18 19  1  0  0  0  0
 20  1  1  0  0  0  0
 20 19  2  0  0  0  0
 21 20  1  0  0  0  0
 22 16  1  0  0  0  0
 24 17  1  0  0  0  0
 25 24  1  0  0  0  0
 26 24  1  0  0  0  0
M  END
>  <minimizedAffinity>
-5.13531256

$$$$
