
 OpenBabel03252509243D

 30 33  0  0  1  0  0  0  0  0999 V2000
   46.6080   34.7430   42.0070 C   0  0  1  0  0  0  0  0  0  0  0  0
   48.0610   35.2920   42.0240 C   0  0  0  0  0  0  0  0  0  0  0  0
   47.6420   33.8270   41.6860 C   0  0  2  0  0  0  0  0  0  0  0  0
   45.9630   35.2710   41.2760 H   0  0  0  0  0  0  0  0  0  0  0  0
   48.4100   35.8490   41.1470 H   0  0  0  0  0  0  0  0  0  0  0  0
   48.5600   35.4640   42.9710 H   0  0  0  0  0  0  0  0  0  0  0  0
   47.9660   33.1020   42.4720 H   0  0  0  0  0  0  0  0  0  0  0  0
   47.8880   33.3740   40.2780 C   0  0  0  0  0  0  0  0  0  0  0  0
   46.8830   33.6910   39.3690 C   0  0  0  0  0  0  0  0  0  0  0  0
   45.9890   34.2250   39.6590 H   0  0  0  0  0  0  0  0  0  0  0  0
   47.0270   33.3100   38.0420 C   0  0  0  0  0  3  0  0  0  0  0  0
   48.1580   32.6260   37.6450 C   0  0  0  0  0  0  0  0  0  0  0  0
   48.3420   32.2330   36.3550 N   0  0  0  0  0  0  0  0  0  0  0  0
   49.4530   31.5680   35.9890 C   0  0  0  0  0  0  0  0  0  0  0  0
   49.5730   31.2660   34.9550 H   0  0  0  0  0  0  0  0  0  0  0  0
   50.4650   31.2410   36.8680 C   0  0  0  0  0  3  0  0  0  0  0  0
   50.2440   31.6580   38.1760 C   0  0  0  0  0  3  0  0  0  0  0  0
   49.1170   32.3450   38.6030 C   0  0  0  0  0  0  0  0  0  0  0  0
   49.0330   32.6970   39.9350 C   0  0  0  0  0  3  0  0  0  0  0  0
   44.5470   35.5760   45.0320 C   0  0  0  0  0  0  0  0  0  0  0  0
   45.0940   35.6890   43.7110 C   0  0  0  0  0  0  0  0  0  0  0  0
   46.0350   34.7390   43.4060 C   0  0  0  0  0  0  0  0  0  0  0  0
   46.4200   33.7580   44.3120 N   0  0  0  0  0  0  0  0  0  0  0  0
   45.8710   33.7110   45.5280 C   0  0  0  0  0  0  0  0  0  0  0  0
   44.9320   34.6230   45.8920 N   0  0  0  0  0  0  0  0  0  0  0  0
   43.8010   36.3030   45.3190 H   0  0  0  0  0  0  0  0  0  0  0  0
   46.2730   32.8960   46.1120 H   0  0  0  0  0  0  0  0  0  0  0  0
   44.7100   36.7160   42.8010 N   0  0  0  0  0  0  0  0  0  0  0  0
   44.3460   36.5450   41.8260 H   0  0  0  0  0  0  0  0  0  0  0  0
   44.8600   37.6410   43.2840 H   0  0  0  0  0  0  0  0  0  0  0  0
  1  4  1  6  0  0  0
  1  2  1  0  0  0  0
  1 22  1  0  0  0  0
  2  6  1  0  0  0  0
  3  1  1  0  0  0  0
  3  2  1  0  0  0  0
  3  7  1  1  0  0  0
  5  2  1  0  0  0  0
  8  3  1  0  0  0  0
  9 10  1  0  0  0  0
  9  8  2  0  0  0  0
 11  9  1  0  0  0  0
 12 11  2  0  0  0  0
 12 18  1  0  0  0  0
 13 12  1  0  0  0  0
 14 13  2  0  0  0  0
 14 16  1  0  0  0  0
 15 14  1  0  0  0  0
 16 17  2  0  0  0  0
 17 18  1  0  0  0  0
 18 19  2  0  0  0  0
 19  8  1  0  0  0  0
 20 26  1  0  0  0  0
 20 25  1  0  0  0  0
 21 20  2  0  0  0  0
 22 21  1  0  0  0  0
 22 23  2  0  0  0  0
 23 24  1  0  0  0  0
 24 25  2  0  0  0  0
 24 27  1  0  0  0  0
 28 30  1  0  0  0  0
 28 21  1  0  0  0  0
 29 28  1  0  0  0  0
M  END
>  <minimizedAffinity>
-5.41361904

>  <minimizedRMSD>
0.841480434

$$$$
