
 OpenBabel03252509043D

 51 54  0  0  1  0  0  0  0  0999 V2000
   47.1650   34.1660   43.0790 N   0  0  0  0  0  0  0  0  0  0  0  0
   46.6500   35.3360   42.4670 C   0  0  0  0  0  0  0  0  0  0  0  0
   45.1590   35.5450   42.6550 C   0  0  0  0  0  0  0  0  0  0  0  0
   44.6280   35.0640   43.9840 C   0  0  0  0  0  0  0  0  0  0  0  0
   45.7400   34.5450   44.8770 C   0  0  0  0  0  0  0  0  0  0  0  0
   46.4240   33.4450   43.9860 C   0  0  2  0  0  0  0  0  0  0  0  0
   47.1360   36.2230   42.9600 H   0  0  0  0  0  0  0  0  0  0  0  0
   46.8400   35.4620   41.3990 H   0  0  0  0  0  0  0  0  0  0  0  0
   44.8970   36.5930   42.4470 H   0  0  0  0  0  0  0  0  0  0  0  0
   44.6540   34.9190   41.8820 H   0  0  0  0  0  0  0  0  0  0  0  0
   44.1890   35.9370   44.5110 H   0  0  0  0  0  0  0  0  0  0  0  0
   43.8590   34.2770   43.8990 H   0  0  0  0  0  0  0  0  0  0  0  0
   45.2890   34.0370   45.7410 H   0  0  0  0  0  0  0  0  0  0  0  0
   46.4850   35.3110   45.1010 H   0  0  0  0  0  0  0  0  0  0  0  0
   45.5840   32.8260   43.6110 H   0  0  0  0  0  0  0  0  0  0  0  0
   48.1710   33.4830   42.3010 C   0  0  0  0  0  0  0  0  0  0  0  0
   48.7440   34.2790   41.7600 H   0  0  0  0  0  0  0  0  0  0  0  0
   48.8590   32.9290   42.9620 H   0  0  0  0  0  0  0  0  0  0  0  0
   47.4860   32.5950   41.3230 C   0  0  0  0  0  0  0  0  0  0  0  0
   46.3950   32.8090   41.2600 H   0  0  0  0  0  0  0  0  0  0  0  0
   47.5720   31.5220   41.5810 H   0  0  0  0  0  0  0  0  0  0  0  0
   49.3910   32.1080   38.1220 C   0  0  0  0  0  0  0  0  0  0  0  0
   48.8610   31.8930   39.4070 C   0  0  0  0  0  0  0  0  0  0  0  0
   48.0410   32.8360   39.9630 C   0  0  0  0  0  0  0  0  0  0  0  0
   47.7840   33.9270   39.2450 N   0  0  0  0  0  0  0  0  0  0  0  0
   48.2800   34.1470   38.0250 C   0  0  0  0  0  0  0  0  0  0  0  0
   49.0950   33.2360   37.4420 N   0  0  0  0  0  0  0  0  0  0  0  0
   50.0350   31.3900   37.6580 H   0  0  0  0  0  0  0  0  0  0  0  0
   49.1390   30.9780   39.8810 H   0  0  0  0  0  0  0  0  0  0  0  0
   47.9450   35.0930   37.6250 H   0  0  0  0  0  0  0  0  0  0  0  0
   47.2070   32.7850   44.9170 O   0  0  0  0  0  0  0  0  0  0  0  0
   46.0520   30.5650   44.0060 O   0  0  0  0  0  0  0  0  0  0  0  0
   46.6780   31.2350   45.2450 P   0  0  2  0  0  0  0  0  0  0  0  0
   45.3530   31.3850   46.3330 O   0  0  0  0  0  0  0  0  0  0  0  0
   45.7320   31.3340   47.2520 H   0  0  0  0  0  0  0  0  0  0  0  0
   47.8110   30.2660   45.9610 O   0  0  0  0  0  0  0  0  0  0  0  0
   47.7020   28.9670   45.4520 C   0  0  0  0  0  0  0  0  0  0  0  0
   46.7160   28.5140   45.5780 H   0  0  0  0  0  0  0  0  0  0  0  0
   47.9570   28.9740   44.3560 H   0  0  0  0  0  0  0  0  0  0  0  0
   48.7530   28.1800   46.1600 C   0  0  0  0  0  0  0  0  0  0  0  0
   50.1120   28.4200   46.1340 C   0  0  0  0  0  0  0  0  0  0  0  0
   50.4300   29.2650   45.5380 H   0  0  0  0  0  0  0  0  0  0  0  0
   50.9740   27.6070   46.8410 C   0  0  0  0  0  3  0  0  0  0  0  0
   50.4460   26.5580   47.5670 C   0  0  0  0  0  0  0  0  0  0  0  0
   51.2280   25.7400   48.2690 N   0  0  0  0  0  0  0  0  0  0  0  0
   50.7730   24.7040   48.9940 C   0  0  0  0  0  0  0  0  0  0  0  0
   51.3910   24.0290   49.5700 H   0  0  0  0  0  0  0  0  0  0  0  0
   49.4170   24.4250   49.0500 C   0  0  0  0  0  3  0  0  0  0  0  0
   48.5570   25.2330   48.3460 C   0  0  0  0  0  3  0  0  0  0  0  0
   49.0980   26.2770   47.6250 C   0  0  0  0  0  0  0  0  0  0  0  0
   48.2420   27.1110   46.9040 C   0  0  0  0  0  3  0  0  0  0  0  0
  1  6  1  0  0  0  0
  2  3  1  0  0  0  0
  2  7  1  0  0  0  0
  2  1  1  0  0  0  0
  3  4  1  0  0  0  0
  4 11  1  0  0  0  0
  4  5  1  0  0  0  0
  5 14  1  0  0  0  0
  5 13  1  0  0  0  0
  6 15  1  6  0  0  0
  6  5  1  0  0  0  0
  6 31  1  0  0  0  0
  8  2  1  0  0  0  0
  9  3  1  0  0  0  0
 10  3  1  0  0  0  0
 12  4  1  0  0  0  0
 16 18  1  0  0  0  0
 16  1  1  0  0  0  0
 17 16  1  0  0  0  0
 19 21  1  0  0  0  0
 19 16  1  0  0  0  0
 20 19  1  0  0  0  0
 22 23  1  0  0  0  0
 23 29  1  0  0  0  0
 23 24  2  0  0  0  0
 24 19  1  0  0  0  0
 25 24  1  0  0  0  0
 26 25  2  0  0  0  0
 27 26  1  0  0  0  0
 27 22  2  0  0  0  0
 28 22  1  0  0  0  0
 30 26  1  0  0  0  0
 31 33  1  0  0  0  0
 33 32  2  6  0  0  0
 33 36  1  0  0  0  0
 33 34  1  0  0  0  0
 34 35  1  0  0  0  0
 37 38  1  0  0  0  0
 37 36  1  0  0  0  0
 37 40  1  0  0  0  0
 39 37  1  0  0  0  0
 40 51  1  0  0  0  0
 41 40  2  0  0  0  0
 41 43  1  0  0  0  0
 42 41  1  0  0  0  0
 43 44  2  0  0  0  0
 44 50  1  0  0  0  0
 44 45  1  0  0  0  0
 45 46  2  0  0  0  0
 46 48  1  0  0  0  0
 46 47  1  0  0  0  0
 49 48  2  0  0  0  0
 50 49  1  0  0  0  0
 51 50  2  0  0  0  0
M  END
>  <minimizedAffinity>
-3.95927906

>  <minimizedRMSD>
0.287050813

$$$$
