
 OpenBabel03242521063D

 37 41  0  0  1  0  0  0  0  0999 V2000
   38.7540   28.3140   42.8290 C   0  0  2  0  0  0  0  0  0  0  0  0
   37.4130   28.7420   43.3410 C   0  0  0  0  0  0  0  0  0  0  0  0
   37.8070   28.8990   41.8810 C   0  0  1  0  0  0  0  0  0  0  0  0
   39.5950   28.9620   43.2160 H   0  0  0  0  0  0  0  0  0  0  0  0
   37.2910   29.6960   43.8880 H   0  0  0  0  0  0  0  0  0  0  0  0
   36.6580   27.9750   43.5900 H   0  0  0  0  0  0  0  0  0  0  0  0
   37.2730   28.2220   41.1840 H   0  0  0  0  0  0  0  0  0  0  0  0
   37.9520   30.2870   41.3550 C   0  0  0  0  0  0  0  0  0  0  0  0
   36.8700   30.9970   40.8740 C   0  0  0  0  0  0  0  0  0  0  0  0
   35.8910   30.5120   40.8880 H   0  0  0  0  0  0  0  0  0  0  0  0
   37.1300   32.2860   40.4090 C   0  0  0  0  0  3  0  0  0  0  0  0
   38.3850   32.8140   40.4290 C   0  0  0  0  0  0  0  0  0  0  0  0
   38.5600   34.0640   39.9640 N   0  0  0  0  0  0  0  0  0  0  0  0
   39.8040   34.6140   39.9720 C   0  0  0  0  0  0  0  0  0  0  0  0
   39.9670   35.6330   39.5970 H   0  0  0  0  0  0  0  0  0  0  0  0
   40.9220   33.9430   40.4450 C   0  0  0  0  0  3  0  0  0  0  0  0
   40.7130   32.6740   40.9110 C   0  0  0  0  0  3  0  0  0  0  0  0
   39.4560   32.1000   40.9080 C   0  0  0  0  0  0  0  0  0  0  0  0
   39.2460   30.8190   41.3800 C   0  0  0  0  0  3  0  0  0  0  0  0
   38.4520   24.7450   41.9190 C   0  0  0  0  0  0  0  0  0  0  0  0
   39.4130   24.2550   42.7780 C   0  0  0  0  0  0  0  0  0  0  0  0
   40.1650   25.0130   43.6460 C   0  0  0  0  0  0  0  0  0  0  0  0
   39.9550   26.3790   43.6750 C   0  0  0  0  0  0  0  0  0  0  0  0
   39.0000   26.8460   42.8170 C   0  0  0  0  0  0  0  0  0  0  0  0
   38.2960   26.0710   41.9940 N   0  0  0  0  0  0  0  0  0  0  0  0
   39.6150   23.1790   42.7920 H   0  0  0  0  0  0  0  0  0  0  0  0
   40.9120   24.5480   44.2990 H   0  0  0  0  0  0  0  0  0  0  0  0
   40.5620   26.9370   44.3660 H   0  0  0  0  0  0  0  0  0  0  0  0
   35.8180   23.2620   39.6660 C   0  0  0  0  0  0  0  0  0  0  0  0
   36.4290   24.1910   40.5300 C   0  0  0  0  0  0  0  0  0  0  0  0
   37.6830   23.9010   41.0210 C   0  0  0  0  0  0  0  0  0  0  0  0
   38.2670   22.7340   40.6460 N   0  0  0  0  0  0  0  0  0  0  0  0
   37.6560   21.8500   39.8080 C   0  0  0  0  0  0  0  0  0  0  0  0
   36.4330   22.1360   39.3300 N   0  0  0  0  0  0  0  0  0  0  0  0
   34.8410   23.5970   39.3480 H   0  0  0  0  0  0  0  0  0  0  0  0
   36.0200   25.1290   40.8630 H   0  0  0  0  0  0  0  0  0  0  0  0
   38.1720   20.9290   39.5390 H   0  0  0  0  0  0  0  0  0  0  0  0
  1  4  1  1  0  0  0
  1  2  1  0  0  0  0
  2  6  1  0  0  0  0
  2  5  1  0  0  0  0
  3  7  1  6  0  0  0
  3  1  1  0  0  0  0
  3  2  1  0  0  0  0
  8 19  1  0  0  0  0
  8  3  1  0  0  0  0
  9 10  1  0  0  0  0
  9  8  2  0  0  0  0
 11 12  2  0  0  0  0
 11  9  1  0  0  0  0
 12 18  1  0  0  0  0
 13 14  2  0  0  0  0
 13 12  1  0  0  0  0
 14 16  1  0  0  0  0
 15 14  1  0  0  0  0
 16 17  2  0  0  0  0
 18 17  1  0  0  0  0
 18 19  2  0  0  0  0
 20 25  2  0  0  0  0
 20 21  1  0  0  0  0
 21 26  1  0  0  0  0
 21 22  2  0  0  0  0
 22 23  1  0  0  0  0
 22 27  1  0  0  0  0
 23 28  1  0  0  0  0
 24  1  1  0  0  0  0
 24 23  2  0  0  0  0
 25 24  1  0  0  0  0
 29 30  1  0  0  0  0
 30 36  1  0  0  0  0
 30 31  2  0  0  0  0
 31 20  1  0  0  0  0
 32 31  1  0  0  0  0
 33 32  2  0  0  0  0
 34 29  2  0  0  0  0
 34 33  1  0  0  0  0
 35 29  1  0  0  0  0
 37 33  1  0  0  0  0
M  END
>  <minimizedAffinity>
-6.56297398

$$$$

 OpenBabel03242521063D

 37 41  0  0  1  0  0  0  0  0999 V2000
   38.1460   31.2180   40.2200 C   0  0  2  0  0  0  0  0  0  0  0  0
   36.7320   31.1530   40.7100 C   0  0  0  0  0  0  0  0  0  0  0  0
   37.8900   30.5700   41.5050 C   0  0  1  0  0  0  0  0  0  0  0  0
   38.3230   30.5650   39.3150 H   0  0  0  0  0  0  0  0  0  0  0  0
   36.0260   30.4010   40.3110 H   0  0  0  0  0  0  0  0  0  0  0  0
   36.2510   32.0680   41.1000 H   0  0  0  0  0  0  0  0  0  0  0  0
   38.1370   31.1220   42.4340 H   0  0  0  0  0  0  0  0  0  0  0  0
   37.9250   29.0880   41.6770 C   0  0  0  0  0  0  0  0  0  0  0  0
   36.9440   28.2720   41.1490 C   0  0  0  0  0  0  0  0  0  0  0  0
   36.1290   28.7440   40.5940 H   0  0  0  0  0  0  0  0  0  0  0  0
   37.0850   26.9040   41.3760 C   0  0  0  0  0  3  0  0  0  0  0  0
   38.1350   26.4010   42.0810 C   0  0  0  0  0  0  0  0  0  0  0  0
   38.2060   25.0690   42.2590 N   0  0  0  0  0  0  0  0  0  0  0  0
   39.2460   24.5410   42.9600 C   0  0  0  0  0  0  0  0  0  0  0  0
   39.3210   23.4570   43.1160 H   0  0  0  0  0  0  0  0  0  0  0  0
   40.2560   25.3160   43.5100 C   0  0  0  0  0  3  0  0  0  0  0  0
   40.1570   26.6670   43.3120 C   0  0  0  0  0  3  0  0  0  0  0  0
   39.1070   27.2190   42.6030 C   0  0  0  0  0  0  0  0  0  0  0  0
   39.0090   28.5820   42.4030 C   0  0  0  0  0  3  0  0  0  0  0  0
   40.7050   33.8820   40.2130 C   0  0  0  0  0  0  0  0  0  0  0  0
   39.8490   34.9600   40.1310 C   0  0  0  0  0  0  0  0  0  0  0  0
   38.4770   34.8820   40.0760 C   0  0  0  0  0  0  0  0  0  0  0  0
   37.8890   33.6310   40.1050 C   0  0  0  0  0  0  0  0  0  0  0  0
   38.7530   32.5760   40.1860 C   0  0  0  0  0  0  0  0  0  0  0  0
   40.0780   32.7020   40.2370 N   0  0  0  0  0  0  0  0  0  0  0  0
   40.2670   35.9710   40.1050 H   0  0  0  0  0  0  0  0  0  0  0  0
   37.8620   35.7870   40.0110 H   0  0  0  0  0  0  0  0  0  0  0  0
   36.8140   33.6110   40.0600 H   0  0  0  0  0  0  0  0  0  0  0  0
   44.4010   33.8980   39.4660 C   0  0  0  0  0  0  0  0  0  0  0  0
   43.0230   33.7080   39.2490 C   0  0  0  0  0  0  0  0  0  0  0  0
   42.1510   34.0180   40.2690 C   0  0  0  0  0  0  0  0  0  0  0  0
   42.6660   34.4920   41.4330 N   0  0  0  0  0  0  0  0  0  0  0  0
   44.0030   34.6670   41.6200 C   0  0  0  0  0  0  0  0  0  0  0  0
   44.8520   34.3640   40.6220 N   0  0  0  0  0  0  0  0  0  0  0  0
   44.9820   33.6220   38.5970 H   0  0  0  0  0  0  0  0  0  0  0  0
   42.5550   33.3390   38.3520 H   0  0  0  0  0  0  0  0  0  0  0  0
   44.3620   35.0500   42.5750 H   0  0  0  0  0  0  0  0  0  0  0  0
  1  4  1  6  0  0  0
  1  2  1  0  0  0  0
  1  3  1  0  0  0  0
  2  6  1  0  0  0  0
  2  3  1  0  0  0  0
  3  8  1  0  0  0  0
  3  7  1  1  0  0  0
  5  2  1  0  0  0  0
  8 19  1  0  0  0  0
  9 11  1  0  0  0  0
  9  8  2  0  0  0  0
 10  9  1  0  0  0  0
 11 12  2  0  0  0  0
 12 13  1  0  0  0  0
 12 18  1  0  0  0  0
 13 14  2  0  0  0  0
 14 15  1  0  0  0  0
 14 16  1  0  0  0  0
 17 16  2  0  0  0  0
 18 17  1  0  0  0  0
 19 18  2  0  0  0  0
 20 25  1  0  0  0  0
 20 31  1  0  0  0  0
 21 20  2  0  0  0  0
 22 23  2  0  0  0  0
 22 21  1  0  0  0  0
 23 24  1  0  0  0  0
 24  1  1  0  0  0  0
 24 25  2  0  0  0  0
 26 21  1  0  0  0  0
 27 22  1  0  0  0  0
 28 23  1  0  0  0  0
 29 34  1  0  0  0  0
 30 29  2  0  0  0  0
 30 31  1  0  0  0  0
 31 32  2  0  0  0  0
 32 33  1  0  0  0  0
 33 37  1  0  0  0  0
 34 33  2  0  0  0  0
 35 29  1  0  0  0  0
 36 30  1  0  0  0  0
M  END
>  <minimizedAffinity>
-6.5007

$$$$

 OpenBabel03242521063D

 37 41  0  0  1  0  0  0  0  0999 V2000
   37.4680   30.7530   40.3430 C   0  0  2  0  0  0  0  0  0  0  0  0
   36.0870   30.8110   40.9190 C   0  0  0  0  0  0  0  0  0  0  0  0
   37.2320   30.1150   41.6370 C   0  0  1  0  0  0  0  0  0  0  0  0
   37.5290   30.0970   39.4250 H   0  0  0  0  0  0  0  0  0  0  0  0
   35.2910   30.1320   40.5590 H   0  0  0  0  0  0  0  0  0  0  0  0
   35.7160   31.7610   41.3430 H   0  0  0  0  0  0  0  0  0  0  0  0
   37.5840   30.6310   42.5530 H   0  0  0  0  0  0  0  0  0  0  0  0
   37.1420   28.6340   41.7970 C   0  0  0  0  0  0  0  0  0  0  0  0
   37.0730   28.0420   43.0430 C   0  0  0  0  0  0  0  0  0  0  0  0
   37.0840   28.6930   43.9220 H   0  0  0  0  0  0  0  0  0  0  0  0
   36.9920   26.6510   43.0660 C   0  0  0  0  0  3  0  0  0  0  0  0
   36.9830   25.9160   41.9200 C   0  0  0  0  0  0  0  0  0  0  0  0
   36.9030   24.5770   42.0190 N   0  0  0  0  0  0  0  0  0  0  0  0
   36.8920   23.8200   40.8880 C   0  0  0  0  0  0  0  0  0  0  0  0
   36.8280   22.7260   40.9490 H   0  0  0  0  0  0  0  0  0  0  0  0
   36.9600   24.3660   39.6150 C   0  0  0  0  0  3  0  0  0  0  0  0
   37.0410   25.7300   39.5460 C   0  0  0  0  0  3  0  0  0  0  0  0
   37.0530   26.5130   40.6840 C   0  0  0  0  0  0  0  0  0  0  0  0
   37.1340   27.8900   40.6130 C   0  0  0  0  0  3  0  0  0  0  0  0
   40.2190   33.2110   40.5510 C   0  0  0  0  0  0  0  0  0  0  0  0
   39.4970   34.3260   40.1820 C   0  0  0  0  0  0  0  0  0  0  0  0
   38.1580   34.3370   39.8640 C   0  0  0  0  0  0  0  0  0  0  0  0
   37.4630   33.1440   39.9140 C   0  0  0  0  0  0  0  0  0  0  0  0
   38.1940   32.0500   40.2810 C   0  0  0  0  0  0  0  0  0  0  0  0
   39.4910   32.0890   40.5800 N   0  0  0  0  0  0  0  0  0  0  0  0
   40.0040   35.2940   40.1270 H   0  0  0  0  0  0  0  0  0  0  0  0
   37.6540   35.2670   39.5780 H   0  0  0  0  0  0  0  0  0  0  0  0
   36.4190   33.1930   39.6580 H   0  0  0  0  0  0  0  0  0  0  0  0
   43.8650   34.1130   40.8700 C   0  0  0  0  0  0  0  0  0  0  0  0
   42.5220   34.2200   40.4640 C   0  0  0  0  0  0  0  0  0  0  0  0
   41.6340   33.2520   40.8780 C   0  0  0  0  0  0  0  0  0  0  0  0
   42.1000   32.2430   41.6580 N   0  0  0  0  0  0  0  0  0  0  0  0
   43.4050   32.1600   42.0390 C   0  0  0  0  0  0  0  0  0  0  0  0
   44.2700   33.1070   41.6340 N   0  0  0  0  0  0  0  0  0  0  0  0
   44.4640   34.9260   40.4850 H   0  0  0  0  0  0  0  0  0  0  0  0
   42.0920   34.9920   39.8490 H   0  0  0  0  0  0  0  0  0  0  0  0
   43.7250   31.3290   42.6660 H   0  0  0  0  0  0  0  0  0  0  0  0
  1  4  1  6  0  0  0
  1  2  1  0  0  0  0
  1  3  1  0  0  0  0
  2  6  1  0  0  0  0
  2  3  1  0  0  0  0
  3  8  1  0  0  0  0
  3  7  1  1  0  0  0
  5  2  1  0  0  0  0
  8  9  1  0  0  0  0
  9 11  2  0  0  0  0
  9 10  1  0  0  0  0
 12 13  1  0  0  0  0
 12 11  1  0  0  0  0
 14 15  1  0  0  0  0
 14 13  2  0  0  0  0
 16 14  1  0  0  0  0
 17 16  2  0  0  0  0
 17 18  1  0  0  0  0
 18 12  2  0  0  0  0
 19 18  1  0  0  0  0
 19  8  2  0  0  0  0
 20 25  1  0  0  0  0
 20 31  1  0  0  0  0
 21 20  2  0  0  0  0
 22 23  2  0  0  0  0
 22 21  1  0  0  0  0
 23 24  1  0  0  0  0
 24  1  1  0  0  0  0
 24 25  2  0  0  0  0
 26 21  1  0  0  0  0
 27 22  1  0  0  0  0
 28 23  1  0  0  0  0
 29 34  1  0  0  0  0
 30 29  2  0  0  0  0
 30 31  1  0  0  0  0
 31 32  2  0  0  0  0
 32 33  1  0  0  0  0
 33 37  1  0  0  0  0
 34 33  2  0  0  0  0
 35 29  1  0  0  0  0
 36 30  1  0  0  0  0
M  END
>  <minimizedAffinity>
-6.41934776

$$$$

 OpenBabel03242521063D

 37 41  0  0  1  0  0  0  0  0999 V2000
   37.6310   31.4240   39.5990 C   0  0  2  0  0  0  0  0  0  0  0  0
   36.6040   31.3770   40.6880 C   0  0  0  0  0  0  0  0  0  0  0  0
   37.7370   30.3680   40.6040 C   0  0  1  0  0  0  0  0  0  0  0  0
   37.2040   31.1610   38.5860 H   0  0  0  0  0  0  0  0  0  0  0  0
   35.5990   30.9540   40.5040 H   0  0  0  0  0  0  0  0  0  0  0  0
   36.6410   32.1250   41.5000 H   0  0  0  0  0  0  0  0  0  0  0  0
   38.5060   30.4690   41.3970 H   0  0  0  0  0  0  0  0  0  0  0  0
   37.3730   28.9490   40.3180 C   0  0  0  0  0  0  0  0  0  0  0  0
   36.9770   28.5420   39.0600 C   0  0  0  0  0  0  0  0  0  0  0  0
   36.9370   29.2920   38.2660 H   0  0  0  0  0  0  0  0  0  0  0  0
   36.6620   27.1910   38.9150 C   0  0  0  0  0  3  0  0  0  0  0  0
   36.7400   26.3230   39.9600 C   0  0  0  0  0  0  0  0  0  0  0  0
   36.4200   25.0340   39.7460 N   0  0  0  0  0  0  0  0  0  0  0  0
   36.4900   24.1460   40.7750 C   0  0  0  0  0  0  0  0  0  0  0  0
   36.2330   23.0890   40.6190 H   0  0  0  0  0  0  0  0  0  0  0  0
   36.8810   24.5050   42.0560 C   0  0  0  0  0  3  0  0  0  0  0  0
   37.2000   25.8230   42.2430 C   0  0  0  0  0  3  0  0  0  0  0  0
   37.1340   26.7370   41.2100 C   0  0  0  0  0  0  0  0  0  0  0  0
   37.4570   28.0660   41.4000 C   0  0  0  0  0  3  0  0  0  0  0  0
   40.6890   33.4460   39.1360 C   0  0  0  0  0  0  0  0  0  0  0  0
   40.2280   34.6100   39.7130 C   0  0  0  0  0  0  0  0  0  0  0  0
   38.9750   34.7900   40.2490 C   0  0  0  0  0  0  0  0  0  0  0  0
   38.0900   33.7280   40.2190 C   0  0  0  0  0  0  0  0  0  0  0  0
   38.5640   32.5830   39.6440 C   0  0  0  0  0  0  0  0  0  0  0  0
   39.7880   32.4570   39.1370 N   0  0  0  0  0  0  0  0  0  0  0  0
   40.8920   35.4790   39.7600 H   0  0  0  0  0  0  0  0  0  0  0  0
   38.6810   35.7490   40.6910 H   0  0  0  0  0  0  0  0  0  0  0  0
   37.1200   33.9070   40.6480 H   0  0  0  0  0  0  0  0  0  0  0  0
   44.3330   33.8440   38.2540 C   0  0  0  0  0  0  0  0  0  0  0  0
   43.1010   34.1150   38.8800 C   0  0  0  0  0  0  0  0  0  0  0  0
   42.0250   33.3070   38.5830 C   0  0  0  0  0  0  0  0  0  0  0  0
   42.2090   32.2900   37.7020 N   0  0  0  0  0  0  0  0  0  0  0  0
   43.4100   32.0480   37.1080 C   0  0  0  0  0  0  0  0  0  0  0  0
   44.4590   32.8370   37.4000 N   0  0  0  0  0  0  0  0  0  0  0  0
   45.0980   34.5420   38.5640 H   0  0  0  0  0  0  0  0  0  0  0  0
   42.8930   34.9010   39.5840 H   0  0  0  0  0  0  0  0  0  0  0  0
   43.5010   31.2170   36.4090 H   0  0  0  0  0  0  0  0  0  0  0  0
  1  4  1  6  0  0  0
  1 24  1  0  0  0  0
  1  3  1  0  0  0  0
  1  2  1  0  0  0  0
  2  6  1  0  0  0  0
  3  2  1  0  0  0  0
  3  7  1  1  0  0  0
  5  2  1  0  0  0  0
  8  3  1  0  0  0  0
  8 19  1  0  0  0  0
  9  8  2  0  0  0  0
 10  9  1  0  0  0  0
 11  9  1  0  0  0  0
 11 12  2  0  0  0  0
 12 18  1  0  0  0  0
 13 12  1  0  0  0  0
 13 14  2  0  0  0  0
 14 16  1  0  0  0  0
 15 14  1  0  0  0  0
 16 17  2  0  0  0  0
 18 19  2  0  0  0  0
 18 17  1  0  0  0  0
 20 25  2  0  0  0  0
 20 21  1  0  0  0  0
 21 26  1  0  0  0  0
 21 22  2  0  0  0  0
 22 27  1  0  0  0  0
 23 22  1  0  0  0  0
 23 28  1  0  0  0  0
 24 23  2  0  0  0  0
 25 24  1  0  0  0  0
 29 35  1  0  0  0  0
 29 30  1  0  0  0  0
 30 36  1  0  0  0  0
 31 30  2  0  0  0  0
 31 20  1  0  0  0  0
 32 31  1  0  0  0  0
 33 34  1  0  0  0  0
 33 32  2  0  0  0  0
 34 29  2  0  0  0  0
 37 33  1  0  0  0  0
M  END
>  <minimizedAffinity>
-6.23253489

$$$$

 OpenBabel03242521063D

 37 41  0  0  1  0  0  0  0  0999 V2000
   39.6980   29.7510   41.9500 C   0  0  2  0  0  0  0  0  0  0  0  0
   39.8640   30.8030   43.0030 C   0  0  0  0  0  0  0  0  0  0  0  0
   39.1800   31.0900   41.6760 C   0  0  1  0  0  0  0  0  0  0  0  0
   40.6800   29.4480   41.4780 H   0  0  0  0  0  0  0  0  0  0  0  0
   40.8310   31.3220   43.1410 H   0  0  0  0  0  0  0  0  0  0  0  0
   39.2330   30.7670   43.9090 H   0  0  0  0  0  0  0  0  0  0  0  0
   38.0860   31.2580   41.7470 H   0  0  0  0  0  0  0  0  0  0  0  0
   39.8590   32.0380   40.7450 C   0  0  0  0  0  0  0  0  0  0  0  0
   39.4910   33.3670   40.6690 C   0  0  0  0  0  0  0  0  0  0  0  0
   38.6810   33.7140   41.3160 H   0  0  0  0  0  0  0  0  0  0  0  0
   40.1980   34.1560   39.7620 C   0  0  0  0  0  3  0  0  0  0  0  0
   41.1970   33.6410   38.9930 C   0  0  0  0  0  0  0  0  0  0  0  0
   41.8350   34.4620   38.1400 N   0  0  0  0  0  0  0  0  0  0  0  0
   42.8370   33.9720   37.3600 C   0  0  0  0  0  0  0  0  0  0  0  0
   43.3700   34.6270   36.6580 H   0  0  0  0  0  0  0  0  0  0  0  0
   43.2430   32.6460   37.4000 C   0  0  0  0  0  3  0  0  0  0  0  0
   42.5750   31.8350   38.2770 C   0  0  0  0  0  3  0  0  0  0  0  0
   41.5550   32.3170   39.0750 C   0  0  0  0  0  0  0  0  0  0  0  0
   40.8820   31.4980   39.9600 C   0  0  0  0  0  3  0  0  0  0  0  0
   38.0370   26.4510   41.8670 C   0  0  0  0  0  0  0  0  0  0  0  0
   37.1050   26.6900   42.8540 C   0  0  0  0  0  0  0  0  0  0  0  0
   36.9750   27.8650   43.5570 C   0  0  0  0  0  0  0  0  0  0  0  0
   37.8390   28.9040   43.2650 C   0  0  0  0  0  0  0  0  0  0  0  0
   38.7560   28.6490   42.2840 C   0  0  0  0  0  0  0  0  0  0  0  0
   38.8430   27.4920   41.6300 N   0  0  0  0  0  0  0  0  0  0  0  0
   36.3980   25.8980   43.1210 H   0  0  0  0  0  0  0  0  0  0  0  0
   36.2060   27.9790   44.3300 H   0  0  0  0  0  0  0  0  0  0  0  0
   37.7060   29.8060   43.8350 H   0  0  0  0  0  0  0  0  0  0  0  0
   37.4780   22.9880   40.4860 C   0  0  0  0  0  0  0  0  0  0  0  0
   37.2390   24.1470   41.2490 C   0  0  0  0  0  0  0  0  0  0  0  0
   38.1330   25.1900   41.1520 C   0  0  0  0  0  0  0  0  0  0  0  0
   39.2000   25.0480   40.3240 N   0  0  0  0  0  0  0  0  0  0  0  0
   39.4110   23.9160   39.5950 C   0  0  0  0  0  0  0  0  0  0  0  0
   38.5370   22.9000   39.6920 N   0  0  0  0  0  0  0  0  0  0  0  0
   36.7120   22.2420   40.6450 H   0  0  0  0  0  0  0  0  0  0  0  0
   36.4150   24.3200   41.9200 H   0  0  0  0  0  0  0  0  0  0  0  0
   40.2840   23.8560   38.9460 H   0  0  0  0  0  0  0  0  0  0  0  0
  1  4  1  6  0  0  0
  1 24  1  0  0  0  0
  1  2  1  0  0  0  0
  2  5  1  0  0  0  0
  2  6  1  0  0  0  0
  3  7  1  1  0  0  0
  3  1  1  0  0  0  0
  3  2  1  0  0  0  0
  8  3  1  0  0  0  0
  9  8  1  0  0  0  0
  9 10  1  0  0  0  0
 11  9  2  0  0  0  0
 12 18  1  0  0  0  0
 12 11  1  0  0  0  0
 13 12  2  0  0  0  0
 14 16  2  0  0  0  0
 14 13  1  0  0  0  0
 15 14  1  0  0  0  0
 16 17  1  0  0  0  0
 17 18  2  0  0  0  0
 18 19  1  0  0  0  0
 19  8  2  0  0  0  0
 20 21  1  0  0  0  0
 21 26  1  0  0  0  0
 21 22  2  0  0  0  0
 22 27  1  0  0  0  0
 23 22  1  0  0  0  0
 23 28  1  0  0  0  0
 24 23  2  0  0  0  0
 25 20  2  0  0  0  0
 25 24  1  0  0  0  0
 29 35  1  0  0  0  0
 29 30  1  0  0  0  0
 30 36  1  0  0  0  0
 31 30  2  0  0  0  0
 31 20  1  0  0  0  0
 32 31  1  0  0  0  0
 33 34  1  0  0  0  0
 33 32  2  0  0  0  0
 34 29  2  0  0  0  0
 37 33  1  0  0  0  0
M  END
>  <minimizedAffinity>
-5.97211647

$$$$

 OpenBabel03242521063D

 37 41  0  0  1  0  0  0  0  0999 V2000
   36.5620   28.6520   40.7930 C   0  0  2  0  0  0  0  0  0  0  0  0
   36.6340   27.1650   40.9560 C   0  0  0  0  0  0  0  0  0  0  0  0
   36.7700   27.8350   39.5990 C   0  0  1  0  0  0  0  0  0  0  0  0
   35.5280   29.0620   40.9900 H   0  0  0  0  0  0  0  0  0  0  0  0
   35.7160   26.5610   41.0790 H   0  0  0  0  0  0  0  0  0  0  0  0
   37.5400   26.7120   41.3980 H   0  0  0  0  0  0  0  0  0  0  0  0
   37.7880   27.7900   39.1610 H   0  0  0  0  0  0  0  0  0  0  0  0
   35.6900   27.5860   38.6000 C   0  0  0  0  0  0  0  0  0  0  0  0
   35.6370   26.4170   37.8660 C   0  0  0  0  0  0  0  0  0  0  0  0
   36.4140   25.6680   38.0370 H   0  0  0  0  0  0  0  0  0  0  0  0
   34.5810   26.2980   36.9630 C   0  0  0  0  0  3  0  0  0  0  0  0
   33.6540   27.2840   36.8140 C   0  0  0  0  0  0  0  0  0  0  0  0
   32.6620   27.1000   35.9230 N   0  0  0  0  0  0  0  0  0  0  0  0
   31.7230   28.0690   35.7550 C   0  0  0  0  0  0  0  0  0  0  0  0
   30.9060   27.9370   35.0330 H   0  0  0  0  0  0  0  0  0  0  0  0
   31.7320   29.2600   36.4660 C   0  0  0  0  0  3  0  0  0  0  0  0
   32.7530   29.4180   37.3650 C   0  0  0  0  0  3  0  0  0  0  0  0
   33.7140   28.4440   37.5470 C   0  0  0  0  0  0  0  0  0  0  0  0
   34.7430   28.6050   38.4550 C   0  0  0  0  0  3  0  0  0  0  0  0
   38.9950   31.3780   41.3440 C   0  0  0  0  0  0  0  0  0  0  0  0
   39.7020   30.7890   42.3700 C   0  0  0  0  0  0  0  0  0  0  0  0
   39.4410   29.5490   42.9060 C   0  0  0  0  0  0  0  0  0  0  0  0
   38.3890   28.8190   42.3870 C   0  0  0  0  0  0  0  0  0  0  0  0
   37.7000   29.4180   41.3710 C   0  0  0  0  0  0  0  0  0  0  0  0
   37.9910   30.6230   40.8850 N   0  0  0  0  0  0  0  0  0  0  0  0
   40.5440   31.3290   42.8150 H   0  0  0  0  0  0  0  0  0  0  0  0
   40.0500   29.1480   43.7240 H   0  0  0  0  0  0  0  0  0  0  0  0
   38.2160   27.8550   42.8320 H   0  0  0  0  0  0  0  0  0  0  0  0
   38.8780   34.9260   40.0730 C   0  0  0  0  0  0  0  0  0  0  0  0
   38.4060   33.7070   40.5970 C   0  0  0  0  0  0  0  0  0  0  0  0
   39.3120   32.6930   40.8120 C   0  0  0  0  0  0  0  0  0  0  0  0
   40.6160   32.9200   40.5070 N   0  0  0  0  0  0  0  0  0  0  0  0
   41.0490   34.1070   40.0000 C   0  0  0  0  0  0  0  0  0  0  0  0
   40.1630   35.0960   39.7930 N   0  0  0  0  0  0  0  0  0  0  0  0
   38.0780   35.6420   39.9490 H   0  0  0  0  0  0  0  0  0  0  0  0
   37.3890   33.4670   40.8580 H   0  0  0  0  0  0  0  0  0  0  0  0
   42.1080   34.2350   39.7740 H   0  0  0  0  0  0  0  0  0  0  0  0
  1  2  1  0  0  0  0
  1  4  1  1  0  0  0
  1 24  1  0  0  0  0
  2  5  1  0  0  0  0
  2  6  1  0  0  0  0
  3  7  1  6  0  0  0
  3  1  1  0  0  0  0
  3  2  1  0  0  0  0
  8  3  1  0  0  0  0
  9 10  1  0  0  0  0
  9  8  2  0  0  0  0
 11  9  1  0  0  0  0
 12 11  2  0  0  0  0
 12 18  1  0  0  0  0
 13 12  1  0  0  0  0
 14 13  2  0  0  0  0
 14 16  1  0  0  0  0
 15 14  1  0  0  0  0
 16 17  2  0  0  0  0
 17 18  1  0  0  0  0
 18 19  2  0  0  0  0
 19  8  1  0  0  0  0
 20 21  1  0  0  0  0
 21 26  1  0  0  0  0
 21 22  2  0  0  0  0
 22 27  1  0  0  0  0
 23 28  1  0  0  0  0
 23 22  1  0  0  0  0
 24 23  2  0  0  0  0
 25 20  2  0  0  0  0
 25 24  1  0  0  0  0
 29 30  1  0  0  0  0
 30 31  2  0  0  0  0
 30 36  1  0  0  0  0
 31 20  1  0  0  0  0
 32 31  1  0  0  0  0
 33 32  2  0  0  0  0
 34 33  1  0  0  0  0
 34 29  2  0  0  0  0
 35 29  1  0  0  0  0
 37 33  1  0  0  0  0
M  END
>  <minimizedAffinity>
-5.91400528

$$$$

 OpenBabel03242521063D

 37 41  0  0  1  0  0  0  0  0999 V2000
   38.5050   31.5550   40.7050 C   0  0  2  0  0  0  0  0  0  0  0  0
   37.8950   32.8460   40.2530 C   0  0  0  0  0  0  0  0  0  0  0  0
   38.8700   32.0670   39.3850 C   0  0  1  0  0  0  0  0  0  0  0  0
   39.2350   31.6930   41.5550 H   0  0  0  0  0  0  0  0  0  0  0  0
   38.2800   33.8160   40.6190 H   0  0  0  0  0  0  0  0  0  0  0  0
   36.8340   32.8660   39.9440 H   0  0  0  0  0  0  0  0  0  0  0  0
   38.4160   31.5950   38.4910 H   0  0  0  0  0  0  0  0  0  0  0  0
   40.1940   32.6970   39.1070 C   0  0  0  0  0  0  0  0  0  0  0  0
   40.4750   33.9930   39.4900 C   0  0  0  0  0  0  0  0  0  0  0  0
   39.6950   34.5560   40.0100 H   0  0  0  0  0  0  0  0  0  0  0  0
   41.7460   34.4720   39.1760 C   0  0  0  0  0  3  0  0  0  0  0  0
   42.6600   33.7000   38.5250 C   0  0  0  0  0  0  0  0  0  0  0  0
   43.8680   34.2290   38.2550 N   0  0  0  0  0  0  0  0  0  0  0  0
   44.7980   33.4780   37.6060 C   0  0  0  0  0  0  0  0  0  0  0  0
   45.7890   33.8930   37.3770 H   0  0  0  0  0  0  0  0  0  0  0  0
   44.5650   32.1730   37.2010 C   0  0  0  0  0  3  0  0  0  0  0  0
   43.3280   31.6620   37.4890 C   0  0  0  0  0  3  0  0  0  0  0  0
   42.3720   32.4110   38.1470 C   0  0  0  0  0  0  0  0  0  0  0  0
   41.1240   31.8950   38.4380 C   0  0  0  0  0  3  0  0  0  0  0  0
   37.2560   28.1360   41.3400 C   0  0  0  0  0  0  0  0  0  0  0  0
   35.9340   28.3600   41.0190 C   0  0  0  0  0  0  0  0  0  0  0  0
   35.4100   29.5630   40.6040 C   0  0  0  0  0  0  0  0  0  0  0  0
   36.2610   30.6460   40.4930 C   0  0  0  0  0  0  0  0  0  0  0  0
   37.5670   30.4050   40.8160 C   0  0  0  0  0  0  0  0  0  0  0  0
   38.0280   29.2210   41.2130 N   0  0  0  0  0  0  0  0  0  0  0  0
   35.2210   27.5330   41.0910 H   0  0  0  0  0  0  0  0  0  0  0  0
   34.3450   29.6630   40.3670 H   0  0  0  0  0  0  0  0  0  0  0  0
   35.8150   31.5680   40.1670 H   0  0  0  0  0  0  0  0  0  0  0  0
   37.7950   24.4630   41.9990 C   0  0  0  0  0  0  0  0  0  0  0  0
   37.1760   25.6260   41.5030 C   0  0  0  0  0  0  0  0  0  0  0  0
   37.7610   26.8440   41.7730 C   0  0  0  0  0  0  0  0  0  0  0  0
   38.9050   26.8600   42.5040 N   0  0  0  0  0  0  0  0  0  0  0  0
   39.4860   25.7210   42.9740 C   0  0  0  0  0  0  0  0  0  0  0  0
   38.9130   24.5340   42.7080 N   0  0  0  0  0  0  0  0  0  0  0  0
   37.2470   23.5730   41.7240 H   0  0  0  0  0  0  0  0  0  0  0  0
   36.2730   25.6790   40.9200 H   0  0  0  0  0  0  0  0  0  0  0  0
   40.4040   25.7920   43.5550 H   0  0  0  0  0  0  0  0  0  0  0  0
  1 24  1  0  0  0  0
  1  4  1  1  0  0  0
  2  5  1  0  0  0  0
  2  1  1  0  0  0  0
  3  7  1  6  0  0  0
  3  2  1  0  0  0  0
  3  1  1  0  0  0  0
  6  2  1  0  0  0  0
  8  3  1  0  0  0  0
  8  9  1  0  0  0  0
  9 10  1  0  0  0  0
 11  9  2  0  0  0  0
 12 11  1  0  0  0  0
 13 12  1  0  0  0  0
 14 13  2  0  0  0  0
 15 14  1  0  0  0  0
 16 17  2  0  0  0  0
 16 14  1  0  0  0  0
 17 18  1  0  0  0  0
 18 19  1  0  0  0  0
 18 12  2  0  0  0  0
 19  8  2  0  0  0  0
 20 31  1  0  0  0  0
 21 26  1  0  0  0  0
 21 20  2  0  0  0  0
 22 21  1  0  0  0  0
 23 22  2  0  0  0  0
 23 24  1  0  0  0  0
 24 25  2  0  0  0  0
 25 20  1  0  0  0  0
 27 22  1  0  0  0  0
 28 23  1  0  0  0  0
 29 34  1  0  0  0  0
 30 31  1  0  0  0  0
 30 29  2  0  0  0  0
 31 32  2  0  0  0  0
 32 33  1  0  0  0  0
 33 37  1  0  0  0  0
 34 33  2  0  0  0  0
 35 29  1  0  0  0  0
 36 30  1  0  0  0  0
M  END
>  <minimizedAffinity>
-5.91317463

$$$$

 OpenBabel03242521063D

 37 41  0  0  1  0  0  0  0  0999 V2000
   37.3030   32.3490   39.4050 C   0  0  2  0  0  0  0  0  0  0  0  0
   36.8850   31.6560   40.6650 C   0  0  0  0  0  0  0  0  0  0  0  0
   37.3810   30.8900   39.4500 C   0  0  1  0  0  0  0  0  0  0  0  0
   36.4340   32.8240   38.8610 H   0  0  0  0  0  0  0  0  0  0  0  0
   35.8160   31.5000   40.9010 H   0  0  0  0  0  0  0  0  0  0  0  0
   37.5450   31.6980   41.5510 H   0  0  0  0  0  0  0  0  0  0  0  0
   38.3760   30.4170   39.5750 H   0  0  0  0  0  0  0  0  0  0  0  0
   36.4000   30.0130   38.7460 C   0  0  0  0  0  0  0  0  0  0  0  0
   35.4180   29.3250   39.4320 C   0  0  0  0  0  0  0  0  0  0  0  0
   35.3750   29.4410   40.5180 H   0  0  0  0  0  0  0  0  0  0  0  0
   34.5610   28.5370   38.6660 C   0  0  0  0  0  3  0  0  0  0  0  0
   34.6870   28.4510   37.3130 C   0  0  0  0  0  0  0  0  0  0  0  0
   33.8220   27.6700   36.6390 N   0  0  0  0  0  0  0  0  0  0  0  0
   33.9270   27.5670   35.2860 C   0  0  0  0  0  0  0  0  0  0  0  0
   33.2310   26.9350   34.7190 H   0  0  0  0  0  0  0  0  0  0  0  0
   34.8940   28.2360   34.5520 C   0  0  0  0  0  3  0  0  0  0  0  0
   35.7590   29.0210   35.2650 C   0  0  0  0  0  3  0  0  0  0  0  0
   35.6660   29.1370   36.6380 C   0  0  0  0  0  0  0  0  0  0  0  0
   36.5390   29.9310   37.3560 C   0  0  0  0  0  3  0  0  0  0  0  0
   40.8300   33.3630   38.9760 C   0  0  0  0  0  0  0  0  0  0  0  0
   40.7590   34.5640   39.6500 C   0  0  0  0  0  0  0  0  0  0  0  0
   39.6290   35.0770   40.2430 C   0  0  0  0  0  0  0  0  0  0  0  0
   38.4600   34.3440   40.1700 C   0  0  0  0  0  0  0  0  0  0  0  0
   38.5490   33.1580   39.4980 C   0  0  0  0  0  0  0  0  0  0  0  0
   39.6680   32.7020   38.9390 N   0  0  0  0  0  0  0  0  0  0  0  0
   41.6600   35.1800   39.7340 H   0  0  0  0  0  0  0  0  0  0  0  0
   39.6530   36.0420   40.7620 H   0  0  0  0  0  0  0  0  0  0  0  0
   37.5980   34.7780   40.6450 H   0  0  0  0  0  0  0  0  0  0  0  0
   44.4050   32.7110   37.9720 C   0  0  0  0  0  0  0  0  0  0  0  0
   43.3250   33.3000   38.6560 C   0  0  0  0  0  0  0  0  0  0  0  0
   42.0510   32.8640   38.3660 C   0  0  0  0  0  0  0  0  0  0  0  0
   41.9020   31.8880   37.4340 N   0  0  0  0  0  0  0  0  0  0  0  0
   42.9630   31.3330   36.7840 C   0  0  0  0  0  0  0  0  0  0  0  0
   44.2050   31.7590   37.0700 N   0  0  0  0  0  0  0  0  0  0  0  0
   45.3510   33.1320   38.2840 H   0  0  0  0  0  0  0  0  0  0  0  0
   43.3780   34.0740   39.4030 H   0  0  0  0  0  0  0  0  0  0  0  0
   42.7850   30.5520   36.0460 H   0  0  0  0  0  0  0  0  0  0  0  0
  1  4  1  6  0  0  0
  1  3  1  0  0  0  0
  1 24  1  0  0  0  0
  1  2  1  0  0  0  0
  2  5  1  0  0  0  0
  2  6  1  0  0  0  0
  3  7  1  1  0  0  0
  3  2  1  0  0  0  0
  8  9  1  0  0  0  0
  8  3  1  0  0  0  0
  9 10  1  0  0  0  0
 11  9  2  0  0  0  0
 12 11  1  0  0  0  0
 13 12  1  0  0  0  0
 14 13  2  0  0  0  0
 15 14  1  0  0  0  0
 16 17  2  0  0  0  0
 16 14  1  0  0  0  0
 17 18  1  0  0  0  0
 18 12  2  0  0  0  0
 18 19  1  0  0  0  0
 19  8  2  0  0  0  0
 20 21  1  0  0  0  0
 21 26  1  0  0  0  0
 21 22  2  0  0  0  0
 22 27  1  0  0  0  0
 23 22  1  0  0  0  0
 23 28  1  0  0  0  0
 24 23  2  0  0  0  0
 25 20  2  0  0  0  0
 25 24  1  0  0  0  0
 29 35  1  0  0  0  0
 29 30  1  0  0  0  0
 30 36  1  0  0  0  0
 31 30  2  0  0  0  0
 31 20  1  0  0  0  0
 32 31  1  0  0  0  0
 33 34  1  0  0  0  0
 33 32  2  0  0  0  0
 34 29  2  0  0  0  0
 37 33  1  0  0  0  0
M  END
>  <minimizedAffinity>
-5.9064908

$$$$

 OpenBabel03242521063D

 37 41  0  0  1  0  0  0  0  0999 V2000
   37.4220   30.1520   39.7890 C   0  0  2  0  0  0  0  0  0  0  0  0
   35.9840   30.1190   40.2090 C   0  0  0  0  0  0  0  0  0  0  0  0
   37.0960   29.5870   41.0980 C   0  0  1  0  0  0  0  0  0  0  0  0
   37.6430   29.4420   38.9380 H   0  0  0  0  0  0  0  0  0  0  0  0
   35.2960   29.3440   39.8220 H   0  0  0  0  0  0  0  0  0  0  0  0
   35.4870   31.0580   40.5130 H   0  0  0  0  0  0  0  0  0  0  0  0
   37.2970   30.1980   42.0020 H   0  0  0  0  0  0  0  0  0  0  0  0
   37.1170   28.1200   41.3660 C   0  0  0  0  0  0  0  0  0  0  0  0
   36.7560   27.6020   42.5940 C   0  0  0  0  0  0  0  0  0  0  0  0
   36.4480   28.3010   43.3760 H   0  0  0  0  0  0  0  0  0  0  0  0
   36.8150   26.2150   42.7250 C   0  0  0  0  0  3  0  0  0  0  0  0
   37.2100   25.4160   41.6960 C   0  0  0  0  0  0  0  0  0  0  0  0
   37.2430   24.0860   41.8950 N   0  0  0  0  0  0  0  0  0  0  0  0
   37.6340   23.2650   40.8830 C   0  0  0  0  0  0  0  0  0  0  0  0
   37.6670   22.1770   41.0270 H   0  0  0  0  0  0  0  0  0  0  0  0
   38.0070   23.7360   39.6330 C   0  0  0  0  0  3  0  0  0  0  0  0
   37.9630   25.0930   39.4600 C   0  0  0  0  0  3  0  0  0  0  0  0
   37.5690   25.9390   40.4780 C   0  0  0  0  0  0  0  0  0  0  0  0
   37.5250   27.3090   40.3020 C   0  0  0  0  0  3  0  0  0  0  0  0
   39.8820   32.8130   39.0710 C   0  0  0  0  0  0  0  0  0  0  0  0
   39.1410   33.8790   39.5360 C   0  0  0  0  0  0  0  0  0  0  0  0
   37.8790   33.7940   40.0750 C   0  0  0  0  0  0  0  0  0  0  0  0
   37.2870   32.5480   40.1670 C   0  0  0  0  0  0  0  0  0  0  0  0
   38.0360   31.5040   39.7010 C   0  0  0  0  0  0  0  0  0  0  0  0
   39.2570   31.6370   39.1870 N   0  0  0  0  0  0  0  0  0  0  0  0
   39.5670   34.8860   39.4840 H   0  0  0  0  0  0  0  0  0  0  0  0
   37.3520   34.6900   40.4230 H   0  0  0  0  0  0  0  0  0  0  0  0
   36.3000   32.5230   40.5930 H   0  0  0  0  0  0  0  0  0  0  0  0
   43.1880   34.1080   37.8040 C   0  0  0  0  0  0  0  0  0  0  0  0
   41.9000   34.1430   38.3690 C   0  0  0  0  0  0  0  0  0  0  0  0
   41.2150   32.9560   38.5110 C   0  0  0  0  0  0  0  0  0  0  0  0
   41.8190   31.8120   38.0970 N   0  0  0  0  0  0  0  0  0  0  0  0
   43.0680   31.8030   37.5530 C   0  0  0  0  0  0  0  0  0  0  0  0
   43.7340   32.9630   37.4170 N   0  0  0  0  0  0  0  0  0  0  0  0
   43.6240   35.0960   37.7440 H   0  0  0  0  0  0  0  0  0  0  0  0
   41.3690   35.0130   38.7150 H   0  0  0  0  0  0  0  0  0  0  0  0
   43.5050   30.8550   37.2390 H   0  0  0  0  0  0  0  0  0  0  0  0
  1  4  1  6  0  0  0
  1  2  1  0  0  0  0
  1  3  1  0  0  0  0
  2  6  1  0  0  0  0
  2  3  1  0  0  0  0
  3  8  1  0  0  0  0
  3  7  1  1  0  0  0
  5  2  1  0  0  0  0
  8  9  1  0  0  0  0
  9 11  2  0  0  0  0
  9 10  1  0  0  0  0
 12 13  1  0  0  0  0
 12 11  1  0  0  0  0
 14 15  1  0  0  0  0
 14 13  2  0  0  0  0
 16 14  1  0  0  0  0
 17 16  2  0  0  0  0
 17 18  1  0  0  0  0
 18 12  2  0  0  0  0
 19 18  1  0  0  0  0
 19  8  2  0  0  0  0
 20 25  2  0  0  0  0
 20 21  1  0  0  0  0
 21 22  2  0  0  0  0
 22 23  1  0  0  0  0
 22 27  1  0  0  0  0
 23 28  1  0  0  0  0
 24  1  1  0  0  0  0
 24 23  2  0  0  0  0
 25 24  1  0  0  0  0
 26 21  1  0  0  0  0
 29 30  1  0  0  0  0
 30 31  2  0  0  0  0
 30 36  1  0  0  0  0
 31 20  1  0  0  0  0
 32 31  1  0  0  0  0
 33 32  2  0  0  0  0
 34 33  1  0  0  0  0
 34 29  2  0  0  0  0
 35 29  1  0  0  0  0
 37 33  1  0  0  0  0
M  END
>  <minimizedAffinity>
-5.89454365

$$$$
