
 OpenBabel03252503513D

 24 26  0  0  0  0  0  0  0  0999 V2000
   47.6090   35.1700   42.2170 C   0  0  0  0  0  0  0  0  0  0  0  0
   47.6980   34.1440   43.1860 C   0  0  0  0  0  0  0  0  0  0  0  0
   46.5990   33.8630   43.9990 C   0  0  0  0  0  0  0  0  0  0  0  0
   45.4880   34.6190   43.7940 N   0  0  0  0  0  0  0  0  0  0  0  0
   45.4170   35.5880   42.8720 C   0  0  0  0  0  0  0  0  0  0  0  0
   46.4700   35.8630   42.0890 N   0  0  0  0  0  0  0  0  0  0  0  0
   48.6090   33.5870   43.2920 H   0  0  0  0  0  0  0  0  0  0  0  0
   44.4770   36.1200   42.8030 H   0  0  0  0  0  0  0  0  0  0  0  0
   46.6290   32.8230   45.0100 C   0  0  0  0  0  0  0  0  0  0  0  0
   47.2480   31.6130   44.8790 C   0  0  0  0  0  0  0  0  0  0  0  0
   47.7590   31.3850   43.9690 H   0  0  0  0  0  0  0  0  0  0  0  0
   47.2320   30.6700   45.8920 C   0  0  0  0  0  3  0  0  0  0  0  0
   46.5750   30.9450   47.0800 C   0  0  0  0  0  0  0  0  0  0  0  0
   46.5500   30.0320   48.0810 N   0  0  0  0  0  0  0  0  0  0  0  0
   45.9150   30.2780   49.2490 C   0  0  0  0  0  0  0  0  0  0  0  0
   45.8940   29.5440   50.0590 H   0  0  0  0  0  0  0  0  0  0  0  0
   45.2780   31.4940   49.4150 C   0  0  0  0  0  3  0  0  0  0  0  0
   45.2830   32.4430   48.4200 C   0  0  0  0  0  3  0  0  0  0  0  0
   45.9390   32.1540   47.2510 C   0  0  0  0  0  0  0  0  0  0  0  0
   45.9870   33.0550   46.2070 C   0  0  0  0  0  3  0  0  0  0  0  0
   48.8200   35.4140   41.3870 C   0  0  0  0  0  0  0  0  0  0  0  0
   48.5350   35.3180   40.0380 F   0  0  0  0  0  0  0  0  0  0  0  0
   49.3270   36.6540   41.7170 F   0  0  0  0  0  0  0  0  0  0  0  0
   49.8100   34.4770   41.7160 F   0  0  0  0  0  0  0  0  0  0  0  0
  1  2  1  0  0  0  0
  2  7  1  0  0  0  0
  2  3  2  0  0  0  0
  3  9  1  0  0  0  0
  4  3  1  0  0  0  0
  5  4  2  0  0  0  0
  6  1  2  0  0  0  0
  6  5  1  0  0  0  0
  8  5  1  0  0  0  0
  9 20  1  0  0  0  0
 10  9  2  0  0  0  0
 10 12  1  0  0  0  0
 11 10  1  0  0  0  0
 12 13  2  0  0  0  0
 13 19  1  0  0  0  0
 13 14  1  0  0  0  0
 14 15  2  0  0  0  0
 15 17  1  0  0  0  0
 15 16  1  0  0  0  0
 18 17  2  0  0  0  0
 19 18  1  0  0  0  0
 20 19  2  0  0  0  0
 21 24  1  0  0  0  0
 21 23  1  0  0  0  0
 21  1  1  0  0  0  0
 22 21  1  0  0  0  0
M  END
>  <minimizedAffinity>
-6.12375402

>  <minimizedRMSD>
0.727020442

$$$$
