
 OpenBabel03252500593D

 41 44  0  0  0  0  0  0  0  0999 V2000
   42.4550   34.4500   39.6970 O   0  0  0  0  0  0  0  0  0  0  0  0
   41.1030   34.3370   39.9610 C   0  0  0  0  0  0  0  0  0  0  0  0
   40.3200   35.4730   39.8610 C   0  0  0  0  0  0  0  0  0  0  0  0
   38.9570   35.4580   40.1070 C   0  0  0  0  0  0  0  0  0  0  0  0
   38.3900   34.2790   40.4580 N   0  0  0  0  0  0  0  0  0  0  0  0
   39.1440   33.1750   40.5560 C   0  0  0  0  0  0  0  0  0  0  0  0
   40.4500   33.2230   40.3140 N   0  0  0  0  0  0  0  0  0  0  0  0
   40.7360   36.4330   39.5850 H   0  0  0  0  0  0  0  0  0  0  0  0
   38.3560   36.3490   40.0260 H   0  0  0  0  0  0  0  0  0  0  0  0
   38.5060   31.9190   40.9350 C   0  0  0  0  0  0  0  0  0  0  0  0
   37.2050   31.6370   40.5630 C   0  0  0  0  0  0  0  0  0  0  0  0
   36.6240   32.3370   39.9810 H   0  0  0  0  0  0  0  0  0  0  0  0
   36.5560   30.4460   40.9060 C   0  0  0  0  0  3  0  0  0  0  0  0
   37.2740   29.5320   41.6480 C   0  0  0  0  0  0  0  0  0  0  0  0
   36.7440   28.3360   42.0410 N   0  0  0  0  0  0  0  0  0  0  0  0
   37.5100   27.4780   42.7750 C   0  0  0  0  0  0  0  0  0  0  0  0
   36.9790   26.5520   43.0310 H   0  0  0  0  0  0  0  0  0  0  0  0
   38.8100   27.7210   43.1670 C   0  0  0  0  0  3  0  0  0  0  0  0
   39.3800   28.9390   42.7790 C   0  0  0  0  0  3  0  0  0  0  0  0
   38.5740   29.7790   42.0390 C   0  0  0  0  0  0  0  0  0  0  0  0
   39.1900   30.9770   41.6790 C   0  0  0  0  0  3  0  0  0  0  0  0
   44.5560   33.9620   38.1730 O   0  0  0  0  0  0  0  0  0  0  0  0
   43.0910   33.6200   38.3730 P   0  0  2  0  0  0  0  0  0  0  0  0
   42.2390   34.1160   37.0010 O   0  0  0  0  0  0  0  0  0  0  0  0
   41.2700   34.0490   37.2330 H   0  0  0  0  0  0  0  0  0  0  0  0
   42.9120   31.9340   38.5090 O   0  0  0  0  0  0  0  0  0  0  0  0
   42.0820   29.9730   37.5100 C   0  0  0  0  0  0  0  0  0  0  0  0
   42.9800   31.0100   37.4720 C   0  0  0  0  0  0  0  0  0  0  0  0
   43.8890   31.0580   36.3990 C   0  0  0  0  0  0  0  0  0  0  0  0
   43.8130   30.0750   35.4780 N   0  0  0  0  0  0  0  0  0  0  0  0
   42.9280   29.0770   35.5390 C   0  0  0  0  0  0  0  0  0  0  0  0
   42.0670   29.0310   36.5550 N   0  0  0  0  0  0  0  0  0  0  0  0
   44.5680   31.8810   36.4110 H   0  0  0  0  0  0  0  0  0  0  0  0
   42.9000   28.3020   34.7740 H   0  0  0  0  0  0  0  0  0  0  0  0
   41.1030   29.8630   38.6040 C   0  0  0  0  0  0  0  0  0  0  0  0
   41.2100   30.6380   39.3740 H   0  0  0  0  0  0  0  0  0  0  0  0
   41.2460   28.8670   39.0790 H   0  0  0  0  0  0  0  0  0  0  0  0
   39.7190   29.9380   38.0300 C   0  0  0  0  0  0  0  0  0  0  0  0
   39.0990   30.6710   38.5770 H   0  0  0  0  0  0  0  0  0  0  0  0
   39.1700   28.9590   38.0980 H   0  0  0  0  0  0  0  0  0  0  0  0
   39.7550   30.2700   36.9610 H   0  0  0  0  0  0  0  0  0  0  0  0
  1  2  1  0  0  0  0
  2  7  1  0  0  0  0
  3  2  2  0  0  0  0
  3  4  1  0  0  0  0
  4  5  2  0  0  0  0
  5  6  1  0  0  0  0
  6 10  1  0  0  0  0
  7  6  2  0  0  0  0
  8  3  1  0  0  0  0
  9  4  1  0  0  0  0
 10 21  1  0  0  0  0
 11 13  1  0  0  0  0
 11 10  2  0  0  0  0
 12 11  1  0  0  0  0
 13 14  2  0  0  0  0
 14 20  1  0  0  0  0
 14 15  1  0  0  0  0
 15 16  2  0  0  0  0
 16 17  1  0  0  0  0
 16 18  1  0  0  0  0
 19 18  2  0  0  0  0
 20 19  1  0  0  0  0
 21 20  2  0  0  0  0
 23 22  2  6  0  0  0
 23 26  1  0  0  0  0
 23  1  1  0  0  0  0
 24 25  1  0  0  0  0
 24 23  1  0  0  0  0
 27 35  1  0  0  0  0
 28 27  1  0  0  0  0
 28 26  1  0  0  0  0
 29 33  1  0  0  0  0
 29 28  2  0  0  0  0
 30 31  2  0  0  0  0
 30 29  1  0  0  0  0
 31 32  1  0  0  0  0
 32 27  2  0  0  0  0
 34 31  1  0  0  0  0
 35 37  1  0  0  0  0
 35 36  1  0  0  0  0
 38 40  1  0  0  0  0
 38 39  1  0  0  0  0
 38 35  1  0  0  0  0
 41 38  1  0  0  0  0
M  END
>  <minimizedAffinity>
-6.55507755

$$$$

 OpenBabel03252500593D

 41 44  0  0  0  0  0  0  0  0999 V2000
   38.9320   32.8430   39.3660 O   0  0  0  0  0  0  0  0  0  0  0  0
   38.3910   31.8610   40.1750 C   0  0  0  0  0  0  0  0  0  0  0  0
   37.0140   31.7930   40.2890 C   0  0  0  0  0  0  0  0  0  0  0  0
   36.3810   30.8450   41.0760 C   0  0  0  0  0  0  0  0  0  0  0  0
   37.1570   29.9620   41.7500 N   0  0  0  0  0  0  0  0  0  0  0  0
   38.4920   30.0240   41.6420 C   0  0  0  0  0  0  0  0  0  0  0  0
   39.0680   30.9460   40.8800 N   0  0  0  0  0  0  0  0  0  0  0  0
   36.3610   32.4800   39.7680 H   0  0  0  0  0  0  0  0  0  0  0  0
   35.3070   30.8010   41.1570 H   0  0  0  0  0  0  0  0  0  0  0  0
   39.3010   29.0600   42.3800 C   0  0  0  0  0  0  0  0  0  0  0  0
   38.7330   27.9320   42.9450 C   0  0  0  0  0  0  0  0  0  0  0  0
   37.6750   27.7330   42.8560 H   0  0  0  0  0  0  0  0  0  0  0  0
   39.4720   26.9840   43.6590 C   0  0  0  0  0  3  0  0  0  0  0  0
   40.8270   27.2110   43.7870 C   0  0  0  0  0  0  0  0  0  0  0  0
   41.6480   26.3550   44.4630 N   0  0  0  0  0  0  0  0  0  0  0  0
   42.9790   26.6410   44.5520 C   0  0  0  0  0  0  0  0  0  0  0  0
   43.5370   25.8840   45.1170 H   0  0  0  0  0  0  0  0  0  0  0  0
   43.5850   27.7530   44.0040 C   0  0  0  0  0  3  0  0  0  0  0  0
   42.7670   28.6500   43.3050 C   0  0  0  0  0  3  0  0  0  0  0  0
   41.4290   28.3250   43.2380 C   0  0  0  0  0  0  0  0  0  0  0  0
   40.6610   29.2510   42.5310 C   0  0  0  0  0  3  0  0  0  0  0  0
   39.0060   34.3870   41.5070 O   0  0  0  0  0  0  0  0  0  0  0  0
   39.1120   34.3980   39.9930 P   0  0  2  0  0  0  0  0  0  0  0  0
   37.8530   35.3460   39.3820 O   0  0  0  0  0  0  0  0  0  0  0  0
   37.8370   35.1860   38.3950 H   0  0  0  0  0  0  0  0  0  0  0  0
   40.5770   35.1270   39.5300 O   0  0  0  0  0  0  0  0  0  0  0  0
   42.6410   34.1720   38.9280 C   0  0  0  0  0  0  0  0  0  0  0  0
   41.8550   34.7270   39.9070 C   0  0  0  0  0  0  0  0  0  0  0  0
   42.3950   34.8490   41.1990 C   0  0  0  0  0  0  0  0  0  0  0  0
   43.6570   34.4080   41.3880 N   0  0  0  0  0  0  0  0  0  0  0  0
   44.4000   33.8710   40.4170 C   0  0  0  0  0  0  0  0  0  0  0  0
   43.8880   33.7560   39.1930 N   0  0  0  0  0  0  0  0  0  0  0  0
   41.7480   35.2850   41.9270 H   0  0  0  0  0  0  0  0  0  0  0  0
   45.4150   33.5270   40.6110 H   0  0  0  0  0  0  0  0  0  0  0  0
   42.1360   34.0160   37.5540 C   0  0  0  0  0  0  0  0  0  0  0  0
   42.8270   34.3810   36.7840 H   0  0  0  0  0  0  0  0  0  0  0  0
   41.1860   34.5900   37.4820 H   0  0  0  0  0  0  0  0  0  0  0  0
   41.8520   32.5650   37.3010 C   0  0  0  0  0  0  0  0  0  0  0  0
   42.3080   32.2280   36.3530 H   0  0  0  0  0  0  0  0  0  0  0  0
   40.7520   32.3500   37.2060 H   0  0  0  0  0  0  0  0  0  0  0  0
   42.2840   31.9310   38.1170 H   0  0  0  0  0  0  0  0  0  0  0  0
  1 23  1  0  0  0  0
  1  2  1  0  0  0  0
  2  3  2  0  0  0  0
  2  7  1  0  0  0  0
  3  4  1  0  0  0  0
  4  9  1  0  0  0  0
  4  5  2  0  0  0  0
  6  5  1  0  0  0  0
  6 10  1  0  0  0  0
  7  6  2  0  0  0  0
  8  3  1  0  0  0  0
 10 21  2  0  0  0  0
 10 11  1  0  0  0  0
 11 13  2  0  0  0  0
 12 11  1  0  0  0  0
 13 14  1  0  0  0  0
 14 15  1  0  0  0  0
 15 16  2  0  0  0  0
 16 17  1  0  0  0  0
 18 16  1  0  0  0  0
 19 18  2  0  0  0  0
 20 19  1  0  0  0  0
 20 14  2  0  0  0  0
 21 20  1  0  0  0  0
 23 22  2  1  0  0  0
 24 23  1  0  0  0  0
 25 24  1  0  0  0  0
 26 28  1  0  0  0  0
 26 23  1  0  0  0  0
 27 32  2  0  0  0  0
 27 28  1  0  0  0  0
 28 29  2  0  0  0  0
 29 30  1  0  0  0  0
 29 33  1  0  0  0  0
 31 34  1  0  0  0  0
 31 30  2  0  0  0  0
 32 31  1  0  0  0  0
 35 27  1  0  0  0  0
 36 35  1  0  0  0  0
 37 35  1  0  0  0  0
 38 35  1  0  0  0  0
 38 41  1  0  0  0  0
 39 38  1  0  0  0  0
 40 38  1  0  0  0  0
M  END
>  <minimizedAffinity>
-6.34207535

$$$$

 OpenBabel03252500593D

 41 44  0  0  0  0  0  0  0  0999 V2000
   37.1950   27.3980   41.5560 O   0  0  0  0  0  0  0  0  0  0  0  0
   37.0620   28.4390   40.6550 C   0  0  0  0  0  0  0  0  0  0  0  0
   36.2290   28.2570   39.5660 C   0  0  0  0  0  0  0  0  0  0  0  0
   36.0330   29.2420   38.6110 C   0  0  0  0  0  0  0  0  0  0  0  0
   36.6890   30.4160   38.7690 N   0  0  0  0  0  0  0  0  0  0  0  0
   37.4970   30.5970   39.8230 C   0  0  0  0  0  0  0  0  0  0  0  0
   37.6650   29.6320   40.7220 N   0  0  0  0  0  0  0  0  0  0  0  0
   35.6890   27.3340   39.4040 H   0  0  0  0  0  0  0  0  0  0  0  0
   35.3820   29.0910   37.7660 H   0  0  0  0  0  0  0  0  0  0  0  0
   38.1910   31.8720   39.9670 C   0  0  0  0  0  0  0  0  0  0  0  0
   37.5280   33.0720   39.7810 C   0  0  0  0  0  0  0  0  0  0  0  0
   36.4800   33.0990   39.5250 H   0  0  0  0  0  0  0  0  0  0  0  0
   38.1560   34.3160   39.9090 C   0  0  0  0  0  3  0  0  0  0  0  0
   39.4960   34.3120   40.2370 C   0  0  0  0  0  0  0  0  0  0  0  0
   40.2110   35.4640   40.3880 N   0  0  0  0  0  0  0  0  0  0  0  0
   41.5350   35.3880   40.7130 C   0  0  0  0  0  0  0  0  0  0  0  0
   42.0040   36.3750   40.8080 H   0  0  0  0  0  0  0  0  0  0  0  0
   42.2320   34.2140   40.9070 C   0  0  0  0  0  3  0  0  0  0  0  0
   41.5240   33.0150   40.7590 C   0  0  0  0  0  3  0  0  0  0  0  0
   40.1900   33.1350   40.4300 C   0  0  0  0  0  0  0  0  0  0  0  0
   39.5330   31.9120   40.2950 C   0  0  0  0  0  3  0  0  0  0  0  0
   36.1380   26.9740   43.9390 O   0  0  0  0  0  0  0  0  0  0  0  0
   37.2140   27.7530   43.2040 P   0  0  2  0  0  0  0  0  0  0  0  0
   36.8830   29.4020   43.3760 O   0  0  0  0  0  0  0  0  0  0  0  0
   37.4900   29.8770   42.7390 H   0  0  0  0  0  0  0  0  0  0  0  0
   38.7260   27.4540   43.9230 O   0  0  0  0  0  0  0  0  0  0  0  0
   40.7410   27.5060   42.7110 C   0  0  0  0  0  0  0  0  0  0  0  0
   39.7870   26.7580   43.3550 C   0  0  0  0  0  0  0  0  0  0  0  0
   39.9550   25.3620   43.3910 C   0  0  0  0  0  0  0  0  0  0  0  0
   41.0490   24.8530   42.7860 N   0  0  0  0  0  0  0  0  0  0  0  0
   41.9630   25.6050   42.1670 C   0  0  0  0  0  0  0  0  0  0  0  0
   41.8040   26.9270   42.1320 N   0  0  0  0  0  0  0  0  0  0  0  0
   39.1890   24.8220   43.9020 H   0  0  0  0  0  0  0  0  0  0  0  0
   42.8320   25.1540   41.6900 H   0  0  0  0  0  0  0  0  0  0  0  0
   40.6260   28.9720   42.6370 C   0  0  0  0  0  0  0  0  0  0  0  0
   39.8900   29.3950   43.3310 H   0  0  0  0  0  0  0  0  0  0  0  0
   40.3270   29.2300   41.5970 H   0  0  0  0  0  0  0  0  0  0  0  0
   41.9670   29.5810   42.9250 C   0  0  0  0  0  0  0  0  0  0  0  0
   41.8890   30.3810   43.6830 H   0  0  0  0  0  0  0  0  0  0  0  0
   42.4270   30.0610   42.0170 H   0  0  0  0  0  0  0  0  0  0  0  0
   42.6700   28.8100   43.3320 H   0  0  0  0  0  0  0  0  0  0  0  0
  1 23  1  0  0  0  0
  2  7  1  0  0  0  0
  2  1  1  0  0  0  0
  3  2  2  0  0  0  0
  4  5  2  0  0  0  0
  4  3  1  0  0  0  0
  5  6  1  0  0  0  0
  6 10  1  0  0  0  0
  6  7  2  0  0  0  0
  8  3  1  0  0  0  0
  9  4  1  0  0  0  0
 10 21  1  0  0  0  0
 11 13  1  0  0  0  0
 11 10  2  0  0  0  0
 12 11  1  0  0  0  0
 13 14  2  0  0  0  0
 14 15  1  0  0  0  0
 14 20  1  0  0  0  0
 15 16  2  0  0  0  0
 16 17  1  0  0  0  0
 16 18  1  0  0  0  0
 19 18  2  0  0  0  0
 20 19  1  0  0  0  0
 21 20  2  0  0  0  0
 23 24  1  0  0  0  0
 23 26  1  0  0  0  0
 23 22  2  1  0  0  0
 25 24  1  0  0  0  0
 27 28  1  0  0  0  0
 28 29  2  0  0  0  0
 28 26  1  0  0  0  0
 29 33  1  0  0  0  0
 30 29  1  0  0  0  0
 31 30  2  0  0  0  0
 32 31  1  0  0  0  0
 32 27  2  0  0  0  0
 34 31  1  0  0  0  0
 35 27  1  0  0  0  0
 35 38  1  0  0  0  0
 35 36  1  0  0  0  0
 37 35  1  0  0  0  0
 38 41  1  0  0  0  0
 38 39  1  0  0  0  0
 40 38  1  0  0  0  0
M  END
>  <minimizedAffinity>
-6.33623171

$$$$

 OpenBabel03252500593D

 41 44  0  0  0  0  0  0  0  0999 V2000
   36.9790   27.4080   41.6110 O   0  0  0  0  0  0  0  0  0  0  0  0
   36.8590   28.4480   40.7080 C   0  0  0  0  0  0  0  0  0  0  0  0
   35.7990   28.4210   39.8190 C   0  0  0  0  0  0  0  0  0  0  0  0
   35.5970   29.4170   38.8770 C   0  0  0  0  0  0  0  0  0  0  0  0
   36.4790   30.4450   38.8440 N   0  0  0  0  0  0  0  0  0  0  0  0
   37.5070   30.4750   39.7040 C   0  0  0  0  0  0  0  0  0  0  0  0
   37.6740   29.5030   40.5940 N   0  0  0  0  0  0  0  0  0  0  0  0
   35.0750   27.6180   39.8130 H   0  0  0  0  0  0  0  0  0  0  0  0
   34.7680   29.3870   38.1890 H   0  0  0  0  0  0  0  0  0  0  0  0
   38.4410   31.5950   39.6440 C   0  0  0  0  0  0  0  0  0  0  0  0
   38.3760   32.6300   40.5580 C   0  0  0  0  0  0  0  0  0  0  0  0
   37.6330   32.6400   41.3410 H   0  0  0  0  0  0  0  0  0  0  0  0
   39.2510   33.7220   40.5350 C   0  0  0  0  0  3  0  0  0  0  0  0
   40.2110   33.7350   39.5450 C   0  0  0  0  0  0  0  0  0  0  0  0
   41.1180   34.7480   39.4250 N   0  0  0  0  0  0  0  0  0  0  0  0
   42.0420   34.6990   38.4220 C   0  0  0  0  0  0  0  0  0  0  0  0
   42.7160   35.5650   38.4250 H   0  0  0  0  0  0  0  0  0  0  0  0
   42.1400   33.6860   37.4900 C   0  0  0  0  0  3  0  0  0  0  0  0
   41.2230   32.6320   37.5890 C   0  0  0  0  0  3  0  0  0  0  0  0
   40.3060   32.7190   38.6160 C   0  0  0  0  0  0  0  0  0  0  0  0
   39.4170   31.6460   38.6670 C   0  0  0  0  0  3  0  0  0  0  0  0
   36.0340   27.2160   44.0700 O   0  0  0  0  0  0  0  0  0  0  0  0
   37.1780   27.7760   43.2450 P   0  0  2  0  0  0  0  0  0  0  0  0
   37.1630   29.4600   43.3950 O   0  0  0  0  0  0  0  0  0  0  0  0
   37.7990   29.8080   42.7070 H   0  0  0  0  0  0  0  0  0  0  0  0
   38.6590   27.2170   43.8680 O   0  0  0  0  0  0  0  0  0  0  0  0
   40.3750   25.9570   42.8700 C   0  0  0  0  0  0  0  0  0  0  0  0
   39.8790   27.1930   43.2020 C   0  0  0  0  0  0  0  0  0  0  0  0
   40.6340   28.3250   42.8470 C   0  0  0  0  0  0  0  0  0  0  0  0
   41.7990   28.1160   42.2010 N   0  0  0  0  0  0  0  0  0  0  0  0
   42.2590   26.9010   41.8890 C   0  0  0  0  0  0  0  0  0  0  0  0
   41.5440   25.8290   42.2250 N   0  0  0  0  0  0  0  0  0  0  0  0
   40.2090   29.2640   43.1270 H   0  0  0  0  0  0  0  0  0  0  0  0
   43.2060   26.7750   41.3660 H   0  0  0  0  0  0  0  0  0  0  0  0
   39.6350   24.7310   43.2110 C   0  0  0  0  0  0  0  0  0  0  0  0
   38.9070   24.8630   44.0200 H   0  0  0  0  0  0  0  0  0  0  0  0
   40.3820   23.9680   43.5240 H   0  0  0  0  0  0  0  0  0  0  0  0
   38.9170   24.2380   41.9890 C   0  0  0  0  0  0  0  0  0  0  0  0
   37.8560   24.0220   42.2090 H   0  0  0  0  0  0  0  0  0  0  0  0
   39.3490   23.2800   41.5900 H   0  0  0  0  0  0  0  0  0  0  0  0
   38.9330   25.0160   41.1830 H   0  0  0  0  0  0  0  0  0  0  0  0
  1 23  1  0  0  0  0
  2  1  1  0  0  0  0
  3  2  2  0  0  0  0
  4  3  1  0  0  0  0
  5  4  2  0  0  0  0
  5  6  1  0  0  0  0
  6  7  2  0  0  0  0
  7  2  1  0  0  0  0
  8  3  1  0  0  0  0
  9  4  1  0  0  0  0
 10  6  1  0  0  0  0
 10 11  1  0  0  0  0
 11 12  1  0  0  0  0
 13 11  2  0  0  0  0
 14 13  1  0  0  0  0
 15 14  1  0  0  0  0
 16 17  1  0  0  0  0
 16 15  2  0  0  0  0
 18 19  2  0  0  0  0
 18 16  1  0  0  0  0
 19 20  1  0  0  0  0
 20 21  1  0  0  0  0
 20 14  2  0  0  0  0
 21 10  2  0  0  0  0
 23 24  1  0  0  0  0
 23 26  1  0  0  0  0
 23 22  2  1  0  0  0
 25 24  1  0  0  0  0
 27 28  1  0  0  0  0
 27 35  1  0  0  0  0
 28 26  1  0  0  0  0
 29 33  1  0  0  0  0
 29 28  2  0  0  0  0
 30 29  1  0  0  0  0
 31 30  2  0  0  0  0
 31 32  1  0  0  0  0
 32 27  2  0  0  0  0
 34 31  1  0  0  0  0
 35 37  1  0  0  0  0
 35 36  1  0  0  0  0
 38 39  1  0  0  0  0
 38 35  1  0  0  0  0
 40 38  1  0  0  0  0
 41 38  1  0  0  0  0
M  END
>  <minimizedAffinity>
-6.32517099

$$$$

 OpenBabel03252500593D

 41 44  0  0  0  0  0  0  0  0999 V2000
   37.0620   32.0150   39.4580 O   0  0  0  0  0  0  0  0  0  0  0  0
   38.2000   32.7990   39.5010 C   0  0  0  0  0  0  0  0  0  0  0  0
   38.1420   33.9970   40.1910 C   0  0  0  0  0  0  0  0  0  0  0  0
   39.2290   34.8500   40.2890 C   0  0  0  0  0  0  0  0  0  0  0  0
   40.3810   34.4780   39.6810 N   0  0  0  0  0  0  0  0  0  0  0  0
   40.4430   33.3180   39.0110 C   0  0  0  0  0  0  0  0  0  0  0  0
   39.3810   32.5230   38.9360 N   0  0  0  0  0  0  0  0  0  0  0  0
   37.2410   34.3290   40.6890 H   0  0  0  0  0  0  0  0  0  0  0  0
   39.1730   35.7810   40.8290 H   0  0  0  0  0  0  0  0  0  0  0  0
   41.6970   32.9450   38.3670 C   0  0  0  0  0  0  0  0  0  0  0  0
   42.8560   33.6670   38.5830 C   0  0  0  0  0  0  0  0  0  0  0  0
   42.8660   34.5290   39.2340 H   0  0  0  0  0  0  0  0  0  0  0  0
   44.0780   33.3430   37.9840 C   0  0  0  0  0  3  0  0  0  0  0  0
   44.0960   32.2470   37.1480 C   0  0  0  0  0  0  0  0  0  0  0  0
   45.2300   31.8370   36.5090 N   0  0  0  0  0  0  0  0  0  0  0  0
   45.1770   30.7440   35.6940 C   0  0  0  0  0  0  0  0  0  0  0  0
   46.1470   30.5100   35.2370 H   0  0  0  0  0  0  0  0  0  0  0  0
   44.0430   29.9960   35.4520 C   0  0  0  0  0  3  0  0  0  0  0  0
   42.8640   30.3930   36.0930 C   0  0  0  0  0  3  0  0  0  0  0  0
   42.9590   31.5020   36.9080 C   0  0  0  0  0  0  0  0  0  0  0  0
   41.7570   31.8530   37.5210 C   0  0  0  0  0  3  0  0  0  0  0  0
   36.7330   29.4220   39.8340 O   0  0  0  0  0  0  0  0  0  0  0  0
   36.9160   30.7440   40.5570 P   0  0  2  0  0  0  0  0  0  0  0  0
   35.5360   31.0310   41.4900 O   0  0  0  0  0  0  0  0  0  0  0  0
   35.6020   31.9780   41.8030 H   0  0  0  0  0  0  0  0  0  0  0  0
   38.2410   30.6370   41.6170 O   0  0  0  0  0  0  0  0  0  0  0  0
   39.9590   29.0520   41.8820 C   0  0  0  0  0  0  0  0  0  0  0  0
   38.7080   29.4860   42.2430 C   0  0  0  0  0  0  0  0  0  0  0  0
   38.0030   28.7420   43.2060 C   0  0  0  0  0  0  0  0  0  0  0  0
   38.6100   27.6480   43.7120 N   0  0  0  0  0  0  0  0  0  0  0  0
   39.8300   27.2490   43.3430 C   0  0  0  0  0  0  0  0  0  0  0  0
   40.4980   27.9520   42.4300 N   0  0  0  0  0  0  0  0  0  0  0  0
   37.0350   29.1170   43.4550 H   0  0  0  0  0  0  0  0  0  0  0  0
   40.2850   26.3580   43.7750 H   0  0  0  0  0  0  0  0  0  0  0  0
   40.7510   29.7840   40.8800 C   0  0  0  0  0  0  0  0  0  0  0  0
   41.8150   29.8660   41.1290 H   0  0  0  0  0  0  0  0  0  0  0  0
   40.3230   30.8080   40.8010 H   0  0  0  0  0  0  0  0  0  0  0  0
   40.6160   29.0950   39.5540 C   0  0  0  0  0  0  0  0  0  0  0  0
   41.6040   28.9270   39.0880 H   0  0  0  0  0  0  0  0  0  0  0  0
   40.0250   29.6990   38.8110 H   0  0  0  0  0  0  0  0  0  0  0  0
   40.1360   28.0910   39.6800 H   0  0  0  0  0  0  0  0  0  0  0  0
  1  2  1  0  0  0  0
  1 23  1  0  0  0  0
  2  3  1  0  0  0  0
  3  4  2  0  0  0  0
  3  8  1  0  0  0  0
  4  9  1  0  0  0  0
  5  4  1  0  0  0  0
  6  5  2  0  0  0  0
  7  6  1  0  0  0  0
  7  2  2  0  0  0  0
 10 11  1  0  0  0  0
 10  6  1  0  0  0  0
 11 12  1  0  0  0  0
 13 11  2  0  0  0  0
 14 13  1  0  0  0  0
 15 14  2  0  0  0  0
 16 15  1  0  0  0  0
 17 16  1  0  0  0  0
 18 16  2  0  0  0  0
 18 19  1  0  0  0  0
 19 20  2  0  0  0  0
 20 14  1  0  0  0  0
 20 21  1  0  0  0  0
 21 10  2  0  0  0  0
 23 22  2  6  0  0  0
 23 24  1  0  0  0  0
 23 26  1  0  0  0  0
 24 25  1  0  0  0  0
 26 28  1  0  0  0  0
 27 28  2  0  0  0  0
 27 32  1  0  0  0  0
 28 29  1  0  0  0  0
 29 33  1  0  0  0  0
 29 30  2  0  0  0  0
 31 30  1  0  0  0  0
 31 34  1  0  0  0  0
 32 31  2  0  0  0  0
 35 36  1  0  0  0  0
 35 27  1  0  0  0  0
 37 35  1  0  0  0  0
 38 41  1  0  0  0  0
 38 35  1  0  0  0  0
 39 38  1  0  0  0  0
 40 38  1  0  0  0  0
M  END
>  <minimizedAffinity>
-6.29356718

$$$$

 OpenBabel03252500593D

 41 44  0  0  0  0  0  0  0  0999 V2000
   37.2170   29.7840   39.6010 O   0  0  0  0  0  0  0  0  0  0  0  0
   38.2260   30.5630   40.1380 C   0  0  0  0  0  0  0  0  0  0  0  0
   38.2240   31.9180   39.8590 C   0  0  0  0  0  0  0  0  0  0  0  0
   39.1930   32.7770   40.3520 C   0  0  0  0  0  0  0  0  0  0  0  0
   40.1680   32.2510   41.1320 N   0  0  0  0  0  0  0  0  0  0  0  0
   40.1730   30.9380   41.4050 C   0  0  0  0  0  0  0  0  0  0  0  0
   39.2300   30.1410   40.9160 N   0  0  0  0  0  0  0  0  0  0  0  0
   37.4640   32.3750   39.2400 H   0  0  0  0  0  0  0  0  0  0  0  0
   39.1820   33.8310   40.1290 H   0  0  0  0  0  0  0  0  0  0  0  0
   41.2360   30.4010   42.2480 C   0  0  0  0  0  0  0  0  0  0  0  0
   42.1760   31.2310   42.8310 C   0  0  0  0  0  0  0  0  0  0  0  0
   42.1510   32.2990   42.6790 H   0  0  0  0  0  0  0  0  0  0  0  0
   43.2100   30.7560   43.6450 C   0  0  0  0  0  3  0  0  0  0  0  0
   43.2660   29.3940   43.8570 C   0  0  0  0  0  0  0  0  0  0  0  0
   44.2310   28.8180   44.6330 N   0  0  0  0  0  0  0  0  0  0  0  0
   44.2290   27.4640   44.8000 C   0  0  0  0  0  0  0  0  0  0  0  0
   45.0480   27.1160   45.4420 H   0  0  0  0  0  0  0  0  0  0  0  0
   43.3110   26.6020   44.2370 C   0  0  0  0  0  3  0  0  0  0  0  0
   42.3090   27.1640   43.4370 C   0  0  0  0  0  3  0  0  0  0  0  0
   42.3460   28.5350   43.2920 C   0  0  0  0  0  0  0  0  0  0  0  0
   41.3280   29.0420   42.4850 C   0  0  0  0  0  3  0  0  0  0  0  0
   34.6250   29.2800   39.5940 O   0  0  0  0  0  0  0  0  0  0  0  0
   35.8100   29.5510   40.5020 P   0  0  2  0  0  0  0  0  0  0  0  0
   35.5070   30.9790   41.3550 O   0  0  0  0  0  0  0  0  0  0  0  0
   36.3680   31.2280   41.7980 H   0  0  0  0  0  0  0  0  0  0  0  0
   35.9590   28.2940   41.6380 O   0  0  0  0  0  0  0  0  0  0  0  0
   37.8100   27.3330   42.7240 C   0  0  0  0  0  0  0  0  0  0  0  0
   36.9440   27.3130   41.6600 C   0  0  0  0  0  0  0  0  0  0  0  0
   37.1170   26.3130   40.6860 C   0  0  0  0  0  0  0  0  0  0  0  0
   38.1280   25.4380   40.8670 N   0  0  0  0  0  0  0  0  0  0  0  0
   38.9570   25.4800   41.9130 C   0  0  0  0  0  0  0  0  0  0  0  0
   38.7940   26.4270   42.8360 N   0  0  0  0  0  0  0  0  0  0  0  0
   36.4210   26.3370   39.8770 H   0  0  0  0  0  0  0  0  0  0  0  0
   39.7620   24.7550   42.0220 H   0  0  0  0  0  0  0  0  0  0  0  0
   37.6850   28.3520   43.7790 C   0  0  0  0  0  0  0  0  0  0  0  0
   37.3900   29.3410   43.4080 H   0  0  0  0  0  0  0  0  0  0  0  0
   38.6760   28.4390   44.2770 H   0  0  0  0  0  0  0  0  0  0  0  0
   36.6720   27.8900   44.7850 C   0  0  0  0  0  0  0  0  0  0  0  0
   35.9310   28.6820   44.9990 H   0  0  0  0  0  0  0  0  0  0  0  0
   37.1350   27.6270   45.7760 H   0  0  0  0  0  0  0  0  0  0  0  0
   36.1040   27.0070   44.3950 H   0  0  0  0  0  0  0  0  0  0  0  0
  1  2  1  0  0  0  0
  1 23  1  0  0  0  0
  2  7  1  0  0  0  0
  3  2  2  0  0  0  0
  3  4  1  0  0  0  0
  4  5  2  0  0  0  0
  5  6  1  0  0  0  0
  6 10  1  0  0  0  0
  7  6  2  0  0  0  0
  8  3  1  0  0  0  0
  9  4  1  0  0  0  0
 10 21  2  0  0  0  0
 10 11  1  0  0  0  0
 11 13  2  0  0  0  0
 12 11  1  0  0  0  0
 13 14  1  0  0  0  0
 14 15  1  0  0  0  0
 15 16  2  0  0  0  0
 16 17  1  0  0  0  0
 18 16  1  0  0  0  0
 19 18  2  0  0  0  0
 20 19  1  0  0  0  0
 20 14  2  0  0  0  0
 21 20  1  0  0  0  0
 23 22  2  6  0  0  0
 23 24  1  0  0  0  0
 23 26  1  0  0  0  0
 24 25  1  0  0  0  0
 26 28  1  0  0  0  0
 27 32  1  0  0  0  0
 27 35  1  0  0  0  0
 28 27  2  0  0  0  0
 29 30  2  0  0  0  0
 29 28  1  0  0  0  0
 30 31  1  0  0  0  0
 31 34  1  0  0  0  0
 31 32  2  0  0  0  0
 33 29  1  0  0  0  0
 35 37  1  0  0  0  0
 35 38  1  0  0  0  0
 36 35  1  0  0  0  0
 38 39  1  0  0  0  0
 38 40  1  0  0  0  0
 41 38  1  0  0  0  0
M  END
>  <minimizedAffinity>
-6.2734313

$$$$

 OpenBabel03252500593D

 41 44  0  0  0  0  0  0  0  0999 V2000
   37.7190   33.2870   39.7910 O   0  0  0  0  0  0  0  0  0  0  0  0
   37.5980   32.0310   39.2250 C   0  0  0  0  0  0  0  0  0  0  0  0
   37.5620   31.9370   37.8450 C   0  0  0  0  0  0  0  0  0  0  0  0
   37.4420   30.7230   37.1880 C   0  0  0  0  0  0  0  0  0  0  0  0
   37.3580   29.6010   37.9420 N   0  0  0  0  0  0  0  0  0  0  0  0
   37.3930   29.6870   39.2800 C   0  0  0  0  0  0  0  0  0  0  0  0
   37.5080   30.8670   39.8800 N   0  0  0  0  0  0  0  0  0  0  0  0
   37.6250   32.8090   37.2090 H   0  0  0  0  0  0  0  0  0  0  0  0
   37.4150   30.6610   36.1130 H   0  0  0  0  0  0  0  0  0  0  0  0
   37.3010   28.4610   40.0650 C   0  0  0  0  0  0  0  0  0  0  0  0
   36.8430   28.4800   41.3690 C   0  0  0  0  0  0  0  0  0  0  0  0
   36.5400   29.4010   41.8440 H   0  0  0  0  0  0  0  0  0  0  0  0
   36.7390   27.3280   42.1570 C   0  0  0  0  0  3  0  0  0  0  0  0
   37.1180   26.1350   41.5760 C   0  0  0  0  0  0  0  0  0  0  0  0
   37.0600   24.9480   42.2490 N   0  0  0  0  0  0  0  0  0  0  0  0
   37.4510   23.8050   41.6140 C   0  0  0  0  0  0  0  0  0  0  0  0
   37.3610   22.9170   42.2510 H   0  0  0  0  0  0  0  0  0  0  0  0
   37.9140   23.7430   40.3160 C   0  0  0  0  0  3  0  0  0  0  0  0
   37.9840   24.9450   39.6010 C   0  0  0  0  0  3  0  0  0  0  0  0
   37.5800   26.0780   40.2780 C   0  0  0  0  0  0  0  0  0  0  0  0
   37.6710   27.2460   39.5210 C   0  0  0  0  0  3  0  0  0  0  0  0
   39.8290   32.4610   41.1480 O   0  0  0  0  0  0  0  0  0  0  0  0
   39.1680   33.6920   40.5550 P   0  0  2  0  0  0  0  0  0  0  0  0
   38.8000   34.7550   41.8160 O   0  0  0  0  0  0  0  0  0  0  0  0
   38.2090   35.4600   41.4250 H   0  0  0  0  0  0  0  0  0  0  0  0
   40.2590   34.4820   39.5160 O   0  0  0  0  0  0  0  0  0  0  0  0
   42.5730   34.0900   39.6520 C   0  0  0  0  0  0  0  0  0  0  0  0
   41.4040   33.9340   38.9500 C   0  0  0  0  0  0  0  0  0  0  0  0
   41.4550   33.2400   37.7280 C   0  0  0  0  0  0  0  0  0  0  0  0
   42.6560   32.7730   37.3290 N   0  0  0  0  0  0  0  0  0  0  0  0
   43.7790   32.9380   38.0320 C   0  0  0  0  0  0  0  0  0  0  0  0
   43.7320   33.5960   39.1900 N   0  0  0  0  0  0  0  0  0  0  0  0
   40.5220   33.1440   37.2180 H   0  0  0  0  0  0  0  0  0  0  0  0
   44.7300   32.5460   37.6740 H   0  0  0  0  0  0  0  0  0  0  0  0
   42.5910   34.8050   40.9380 C   0  0  0  0  0  0  0  0  0  0  0  0
   41.8520   34.4380   41.6600 H   0  0  0  0  0  0  0  0  0  0  0  0
   42.3800   35.8770   40.7260 H   0  0  0  0  0  0  0  0  0  0  0  0
   43.9590   34.6870   41.5430 C   0  0  0  0  0  0  0  0  0  0  0  0
   43.9030   34.3640   42.5980 H   0  0  0  0  0  0  0  0  0  0  0  0
   44.5140   35.6650   41.5500 H   0  0  0  0  0  0  0  0  0  0  0  0
   44.5660   33.9210   40.9970 H   0  0  0  0  0  0  0  0  0  0  0  0
  1 23  1  0  0  0  0
  2  1  1  0  0  0  0
  2  7  1  0  0  0  0
  3  2  2  0  0  0  0
  4  3  1  0  0  0  0
  4  5  2  0  0  0  0
  5  6  1  0  0  0  0
  6  7  2  0  0  0  0
  6 10  1  0  0  0  0
  8  3  1  0  0  0  0
  9  4  1  0  0  0  0
 10 11  1  0  0  0  0
 11 12  1  0  0  0  0
 11 13  2  0  0  0  0
 14 13  1  0  0  0  0
 14 15  1  0  0  0  0
 16 15  2  0  0  0  0
 16 17  1  0  0  0  0
 18 16  1  0  0  0  0
 19 20  1  0  0  0  0
 19 18  2  0  0  0  0
 20 14  2  0  0  0  0
 21 10  2  0  0  0  0
 21 20  1  0  0  0  0
 23 22  2  1  0  0  0
 23 24  1  0  0  0  0
 25 24  1  0  0  0  0
 26 23  1  0  0  0  0
 27 35  1  0  0  0  0
 28 26  1  0  0  0  0
 28 27  2  0  0  0  0
 29 28  1  0  0  0  0
 30 29  2  0  0  0  0
 30 31  1  0  0  0  0
 31 32  2  0  0  0  0
 32 27  1  0  0  0  0
 33 29  1  0  0  0  0
 34 31  1  0  0  0  0
 35 38  1  0  0  0  0
 35 36  1  0  0  0  0
 37 35  1  0  0  0  0
 38 40  1  0  0  0  0
 38 39  1  0  0  0  0
 41 38  1  0  0  0  0
M  END
>  <minimizedAffinity>
-6.24276495

$$$$

 OpenBabel03252500593D

 41 44  0  0  0  0  0  0  0  0999 V2000
   41.9530   34.1510   38.2480 O   0  0  0  0  0  0  0  0  0  0  0  0
   40.9150   34.1610   39.1610 C   0  0  0  0  0  0  0  0  0  0  0  0
   40.5770   35.3650   39.7530 C   0  0  0  0  0  0  0  0  0  0  0  0
   39.5530   35.4740   40.6800 C   0  0  0  0  0  0  0  0  0  0  0  0
   38.8700   34.3490   41.0030 N   0  0  0  0  0  0  0  0  0  0  0  0
   39.1940   33.1800   40.4310 C   0  0  0  0  0  0  0  0  0  0  0  0
   40.1820   33.1100   39.5470 N   0  0  0  0  0  0  0  0  0  0  0  0
   41.0990   36.2840   39.5220 H   0  0  0  0  0  0  0  0  0  0  0  0
   39.2980   36.4170   41.1350 H   0  0  0  0  0  0  0  0  0  0  0  0
   38.4400   31.9860   40.7990 C   0  0  0  0  0  0  0  0  0  0  0  0
   37.1830   31.7450   40.2780 C   0  0  0  0  0  0  0  0  0  0  0  0
   36.7220   32.4320   39.5840 H   0  0  0  0  0  0  0  0  0  0  0  0
   36.4280   30.6130   40.6040 C   0  0  0  0  0  3  0  0  0  0  0  0
   36.9910   29.7160   41.4880 C   0  0  0  0  0  0  0  0  0  0  0  0
   36.3480   28.5780   41.8790 N   0  0  0  0  0  0  0  0  0  0  0  0
   36.9630   27.7340   42.7580 C   0  0  0  0  0  0  0  0  0  0  0  0
   36.3520   26.8550   42.9980 H   0  0  0  0  0  0  0  0  0  0  0  0
   38.2150   27.9380   43.3010 C   0  0  0  0  0  3  0  0  0  0  0  0
   38.9000   29.0980   42.9170 C   0  0  0  0  0  3  0  0  0  0  0  0
   38.2440   29.9240   42.0290 C   0  0  0  0  0  0  0  0  0  0  0  0
   38.9690   31.0640   41.6820 C   0  0  0  0  0  3  0  0  0  0  0  0
   44.1020   33.0210   37.2090 O   0  0  0  0  0  0  0  0  0  0  0  0
   42.9630   32.8020   38.1870 P   0  0  2  0  0  0  0  0  0  0  0  0
   42.0390   31.4970   37.6400 O   0  0  0  0  0  0  0  0  0  0  0  0
   41.2060   31.4920   38.1910 H   0  0  0  0  0  0  0  0  0  0  0  0
   43.5920   32.3840   39.7120 O   0  0  0  0  0  0  0  0  0  0  0  0
   43.5330   33.1570   41.9320 C   0  0  0  0  0  0  0  0  0  0  0  0
   44.0750   33.2620   40.6750 C   0  0  0  0  0  0  0  0  0  0  0  0
   45.0650   34.2370   40.4610 C   0  0  0  0  0  0  0  0  0  0  0  0
   45.4160   35.0060   41.5140 N   0  0  0  0  0  0  0  0  0  0  0  0
   44.8730   34.8830   42.7270 C   0  0  0  0  0  0  0  0  0  0  0  0
   43.9340   33.9590   42.9300 N   0  0  0  0  0  0  0  0  0  0  0  0
   45.4570   34.2830   39.4690 H   0  0  0  0  0  0  0  0  0  0  0  0
   45.1830   35.5240   43.5500 H   0  0  0  0  0  0  0  0  0  0  0  0
   42.4930   32.1570   42.2230 C   0  0  0  0  0  0  0  0  0  0  0  0
   42.2860   31.4760   41.3890 H   0  0  0  0  0  0  0  0  0  0  0  0
   41.5600   32.7110   42.4720 H   0  0  0  0  0  0  0  0  0  0  0  0
   42.9140   31.3490   43.4150 C   0  0  0  0  0  0  0  0  0  0  0  0
   42.8180   30.2660   43.2180 H   0  0  0  0  0  0  0  0  0  0  0  0
   42.2810   31.5530   44.3220 H   0  0  0  0  0  0  0  0  0  0  0  0
   43.9890   31.5440   43.6620 H   0  0  0  0  0  0  0  0  0  0  0  0
  1  2  1  0  0  0  0
  2  7  2  0  0  0  0
  2  3  1  0  0  0  0
  3  4  2  0  0  0  0
  4  5  1  0  0  0  0
  4  9  1  0  0  0  0
  6 10  1  0  0  0  0
  6  5  2  0  0  0  0
  7  6  1  0  0  0  0
  8  3  1  0  0  0  0
 10 21  1  0  0  0  0
 11 13  1  0  0  0  0
 11 10  2  0  0  0  0
 12 11  1  0  0  0  0
 13 14  2  0  0  0  0
 14 15  1  0  0  0  0
 14 20  1  0  0  0  0
 15 16  2  0  0  0  0
 16 17  1  0  0  0  0
 16 18  1  0  0  0  0
 19 18  2  0  0  0  0
 20 19  1  0  0  0  0
 21 20  2  0  0  0  0
 23 22  2  6  0  0  0
 23  1  1  0  0  0  0
 23 26  1  0  0  0  0
 24 23  1  0  0  0  0
 24 25  1  0  0  0  0
 26 28  1  0  0  0  0
 27 35  1  0  0  0  0
 27 32  1  0  0  0  0
 28 27  2  0  0  0  0
 29 28  1  0  0  0  0
 29 30  2  0  0  0  0
 30 31  1  0  0  0  0
 31 32  2  0  0  0  0
 31 34  1  0  0  0  0
 33 29  1  0  0  0  0
 35 37  1  0  0  0  0
 35 38  1  0  0  0  0
 36 35  1  0  0  0  0
 38 41  1  0  0  0  0
 38 40  1  0  0  0  0
 39 38  1  0  0  0  0
M  END
>  <minimizedAffinity>
-6.2044673

$$$$

 OpenBabel03252500593D

 41 44  0  0  0  0  0  0  0  0999 V2000
   38.2380   30.3630   40.9490 O   0  0  0  0  0  0  0  0  0  0  0  0
   37.9660   29.1880   41.6260 C   0  0  0  0  0  0  0  0  0  0  0  0
   37.9000   29.2320   43.0070 C   0  0  0  0  0  0  0  0  0  0  0  0
   37.6330   28.1070   43.7710 C   0  0  0  0  0  0  0  0  0  0  0  0
   37.4330   26.9340   43.1230 N   0  0  0  0  0  0  0  0  0  0  0  0
   37.4960   26.8880   41.7850 C   0  0  0  0  0  0  0  0  0  0  0  0
   37.7550   27.9850   41.0810 N   0  0  0  0  0  0  0  0  0  0  0  0
   38.0540   30.1480   43.5610 H   0  0  0  0  0  0  0  0  0  0  0  0
   37.5840   28.1510   44.8470 H   0  0  0  0  0  0  0  0  0  0  0  0
   37.2760   25.6110   41.1150 C   0  0  0  0  0  0  0  0  0  0  0  0
   37.8550   24.4470   41.5870 C   0  0  0  0  0  0  0  0  0  0  0  0
   38.4860   24.4490   42.4630 H   0  0  0  0  0  0  0  0  0  0  0  0
   37.6710   23.2020   40.9740 C   0  0  0  0  0  3  0  0  0  0  0  0
   36.8680   23.1680   39.8530 C   0  0  0  0  0  0  0  0  0  0  0  0
   36.6170   22.0110   39.1730 N   0  0  0  0  0  0  0  0  0  0  0  0
   35.8140   22.0490   38.0700 C   0  0  0  0  0  0  0  0  0  0  0  0
   35.6850   21.0620   37.6080 H   0  0  0  0  0  0  0  0  0  0  0  0
   35.2190   23.1870   37.5670 C   0  0  0  0  0  3  0  0  0  0  0  0
   35.4580   24.3890   38.2440 C   0  0  0  0  0  3  0  0  0  0  0  0
   36.2740   24.3090   39.3530 C   0  0  0  0  0  0  0  0  0  0  0  0
   36.4800   25.5340   39.9890 C   0  0  0  0  0  3  0  0  0  0  0  0
   37.2840   32.7340   40.2830 O   0  0  0  0  0  0  0  0  0  0  0  0
   36.9480   31.2540   40.3270 P   0  0  2  0  0  0  0  0  0  0  0  0
   35.6320   31.0420   41.3660 O   0  0  0  0  0  0  0  0  0  0  0  0
   35.5520   30.0570   41.5180 H   0  0  0  0  0  0  0  0  0  0  0  0
   36.4730   30.7300   38.7800 O   0  0  0  0  0  0  0  0  0  0  0  0
   36.2950   28.5940   37.8140 C   0  0  0  0  0  0  0  0  0  0  0  0
   37.0590   29.7120   38.0370 C   0  0  0  0  0  0  0  0  0  0  0  0
   38.3600   29.7410   37.5020 C   0  0  0  0  0  0  0  0  0  0  0  0
   38.7670   28.6610   36.8030 N   0  0  0  0  0  0  0  0  0  0  0  0
   38.0030   27.5850   36.6010 C   0  0  0  0  0  0  0  0  0  0  0  0
   36.7710   27.5570   37.1080 N   0  0  0  0  0  0  0  0  0  0  0  0
   38.9160   30.6300   37.7010 H   0  0  0  0  0  0  0  0  0  0  0  0
   38.3700   26.7330   36.0310 H   0  0  0  0  0  0  0  0  0  0  0  0
   34.9260   28.4980   38.3460 C   0  0  0  0  0  0  0  0  0  0  0  0
   34.4670   29.4690   38.5650 H   0  0  0  0  0  0  0  0  0  0  0  0
   34.9750   27.9060   39.2860 H   0  0  0  0  0  0  0  0  0  0  0  0
   34.0680   27.7700   37.3530 C   0  0  0  0  0  0  0  0  0  0  0  0
   33.1310   28.3200   37.1550 H   0  0  0  0  0  0  0  0  0  0  0  0
   33.7550   26.7520   37.7170 H   0  0  0  0  0  0  0  0  0  0  0  0
   34.6010   27.6650   36.3740 H   0  0  0  0  0  0  0  0  0  0  0  0
  1  2  1  0  0  0  0
  2  3  1  0  0  0  0
  3  8  1  0  0  0  0
  3  4  2  0  0  0  0
  4  9  1  0  0  0  0
  5  4  1  0  0  0  0
  6  5  2  0  0  0  0
  7  2  2  0  0  0  0
  7  6  1  0  0  0  0
 10 11  1  0  0  0  0
 10  6  1  0  0  0  0
 11 12  1  0  0  0  0
 13 11  2  0  0  0  0
 14 13  1  0  0  0  0
 15 14  2  0  0  0  0
 16 15  1  0  0  0  0
 17 16  1  0  0  0  0
 18 16  2  0  0  0  0
 18 19  1  0  0  0  0
 19 20  2  0  0  0  0
 20 14  1  0  0  0  0
 20 21  1  0  0  0  0
 21 10  2  0  0  0  0
 23 22  2  6  0  0  0
 23  1  1  0  0  0  0
 23 24  1  0  0  0  0
 24 25  1  0  0  0  0
 26 23  1  0  0  0  0
 27 28  1  0  0  0  0
 27 35  1  0  0  0  0
 28 26  1  0  0  0  0
 29 33  1  0  0  0  0
 29 28  2  0  0  0  0
 30 29  1  0  0  0  0
 31 30  2  0  0  0  0
 31 32  1  0  0  0  0
 32 27  2  0  0  0  0
 34 31  1  0  0  0  0
 35 36  1  0  0  0  0
 35 37  1  0  0  0  0
 38 40  1  0  0  0  0
 38 35  1  0  0  0  0
 39 38  1  0  0  0  0
 41 38  1  0  0  0  0
M  END
>  <minimizedAffinity>
-6.12678337

$$$$
