
 OpenBabel03252500583D

 41 44  0  0  0  0  0  0  0  0999 V2000
   41.8580   35.3440   41.8270 O   0  0  0  0  0  0  0  0  0  0  0  0
   40.7640   34.7250   41.2520 C   0  0  0  0  0  0  0  0  0  0  0  0
   39.9520   35.4740   40.4200 C   0  0  0  0  0  0  0  0  0  0  0  0
   38.8330   34.9410   39.7990 C   0  0  0  0  0  0  0  0  0  0  0  0
   38.5430   33.6380   40.0290 N   0  0  0  0  0  0  0  0  0  0  0  0
   39.3270   32.9080   40.8350 C   0  0  0  0  0  0  0  0  0  0  0  0
   40.3930   33.4490   41.4150 N   0  0  0  0  0  0  0  0  0  0  0  0
   40.1490   36.5170   40.2120 H   0  0  0  0  0  0  0  0  0  0  0  0
   38.2070   35.5330   39.1520 H   0  0  0  0  0  0  0  0  0  0  0  0
   38.9900   31.5070   41.0630 C   0  0  0  0  0  0  0  0  0  0  0  0
   39.6580   30.7560   42.0120 C   0  0  0  0  0  0  0  0  0  0  0  0
   40.4470   31.1820   42.6110 H   0  0  0  0  0  0  0  0  0  0  0  0
   39.3650   29.4110   42.2630 C   0  0  0  0  0  3  0  0  0  0  0  0
   38.3590   28.8380   41.5120 C   0  0  0  0  0  0  0  0  0  0  0  0
   37.9880   27.5330   41.6700 N   0  0  0  0  0  0  0  0  0  0  0  0
   36.9840   27.0300   40.8930 C   0  0  0  0  0  0  0  0  0  0  0  0
   36.7730   25.9740   41.1080 H   0  0  0  0  0  0  0  0  0  0  0  0
   36.2930   27.7450   39.9370 C   0  0  0  0  0  3  0  0  0  0  0  0
   36.6520   29.0850   39.7540 C   0  0  0  0  0  3  0  0  0  0  0  0
   37.6710   29.5550   40.5570 C   0  0  0  0  0  0  0  0  0  0  0  0
   37.9880   30.8950   40.3330 C   0  0  0  0  0  3  0  0  0  0  0  0
   43.8290   34.7910   40.1580 O   0  0  0  0  0  0  0  0  0  0  0  0
   43.3830   34.6600   41.6040 P   0  0  2  0  0  0  0  0  0  0  0  0
   43.2660   33.0150   41.9740 O   0  0  0  0  0  0  0  0  0  0  0  0
   42.8000   32.9600   42.8570 H   0  0  0  0  0  0  0  0  0  0  0  0
   44.5620   35.3360   42.6270 O   0  0  0  0  0  0  0  0  0  0  0  0
   46.6420   34.3050   43.0030 C   0  0  0  0  0  0  0  0  0  0  0  0
   45.4030   34.6410   43.4890 C   0  0  0  0  0  0  0  0  0  0  0  0
   45.0850   34.2630   44.8060 C   0  0  0  0  0  0  0  0  0  0  0  0
   46.0250   33.5920   45.5030 N   0  0  0  0  0  0  0  0  0  0  0  0
   47.2240   33.2770   45.0060 C   0  0  0  0  0  0  0  0  0  0  0  0
   47.5250   33.6350   43.7580 N   0  0  0  0  0  0  0  0  0  0  0  0
   44.1120   34.5460   45.1410 H   0  0  0  0  0  0  0  0  0  0  0  0
   47.9550   32.7340   45.6010 H   0  0  0  0  0  0  0  0  0  0  0  0
   47.0390   34.6700   41.6340 C   0  0  0  0  0  0  0  0  0  0  0  0
   46.3280   35.3350   41.1290 H   0  0  0  0  0  0  0  0  0  0  0  0
   47.1220   33.7270   41.0490 H   0  0  0  0  0  0  0  0  0  0  0  0
   48.3820   35.3380   41.6770 C   0  0  0  0  0  0  0  0  0  0  0  0
   48.3760   36.2840   41.1070 H   0  0  0  0  0  0  0  0  0  0  0  0
   49.1930   34.7080   41.2200 H   0  0  0  0  0  0  0  0  0  0  0  0
   48.6600   35.5930   42.7320 H   0  0  0  0  0  0  0  0  0  0  0  0
  2  7  1  0  0  0  0
  2  1  1  0  0  0  0
  3  2  2  0  0  0  0
  4  5  2  0  0  0  0
  4  3  1  0  0  0  0
  5  6  1  0  0  0  0
  6 10  1  0  0  0  0
  6  7  2  0  0  0  0
  8  3  1  0  0  0  0
  9  4  1  0  0  0  0
 10 11  1  0  0  0  0
 11 13  2  0  0  0  0
 11 12  1  0  0  0  0
 14 15  1  0  0  0  0
 14 13  1  0  0  0  0
 16 17  1  0  0  0  0
 16 15  2  0  0  0  0
 18 16  1  0  0  0  0
 19 18  2  0  0  0  0
 19 20  1  0  0  0  0
 20 14  2  0  0  0  0
 21 20  1  0  0  0  0
 21 10  2  0  0  0  0
 23 22  2  6  0  0  0
 23  1  1  0  0  0  0
 23 24  1  0  0  0  0
 23 26  1  0  0  0  0
 24 25  1  0  0  0  0
 26 28  1  0  0  0  0
 27 28  2  0  0  0  0
 27 32  1  0  0  0  0
 28 29  1  0  0  0  0
 29 33  1  0  0  0  0
 29 30  2  0  0  0  0
 31 30  1  0  0  0  0
 31 34  1  0  0  0  0
 32 31  2  0  0  0  0
 35 38  1  0  0  0  0
 35 27  1  0  0  0  0
 36 35  1  0  0  0  0
 37 35  1  0  0  0  0
 38 41  1  0  0  0  0
 39 38  1  0  0  0  0
 40 38  1  0  0  0  0
M  END
>  <minimizedAffinity>
-6.33788395

>  <minimizedRMSD>
0.870281816

$$$$
