
 OpenBabel03252504513D

 37 40  0  0  0  0  0  0  0  0999 V2000
   47.0400   34.6860   42.7240 C   0  0  0  0  0  0  0  0  0  0  0  0
   48.2490   34.3000   42.1250 C   0  0  0  0  0  0  0  0  0  0  0  0
   48.9120   33.2160   42.6830 C   0  0  0  0  0  0  0  0  0  0  0  0
   48.3450   32.6110   43.7640 N   0  0  0  0  0  0  0  0  0  0  0  0
   47.1940   33.0000   44.3140 C   0  0  0  0  0  0  0  0  0  0  0  0
   46.5220   34.0540   43.7930 N   0  0  0  0  0  0  0  0  0  0  0  0
   46.4420   35.5090   42.3770 H   0  0  0  0  0  0  0  0  0  0  0  0
   49.8390   32.8880   42.2550 H   0  0  0  0  0  0  0  0  0  0  0  0
   45.8480   30.3290   43.6940 Cl  0  0  0  0  0  0  0  0  0  0  0  0
   46.0210   31.0780   45.2900 C   0  0  0  0  0  0  0  0  0  0  0  0
   46.6530   32.3020   45.4700 C   0  0  0  0  0  0  0  0  0  0  0  0
   46.7700   32.8530   46.7200 C   0  0  0  0  0  0  0  0  0  0  0  0
   46.2490   32.1740   47.8130 C   0  0  0  0  0  0  0  0  0  0  0  0
   45.6300   30.9630   47.5950 C   0  0  0  0  0  0  0  0  0  0  0  0
   44.9900   30.1480   49.0030 Cl  0  0  0  0  0  0  0  0  0  0  0  0
   45.4930   30.3780   46.3590 C   0  0  0  0  0  0  0  0  0  0  0  0
   47.2630   33.8110   46.8710 H   0  0  0  0  0  0  0  0  0  0  0  0
   46.3350   32.5990   48.8060 H   0  0  0  0  0  0  0  0  0  0  0  0
   44.9930   29.4240   46.2750 H   0  0  0  0  0  0  0  0  0  0  0  0
   48.7160   35.0450   40.9830 C   0  0  0  0  0  0  0  0  0  0  0  0
   49.8080   34.9040   40.8630 H   0  0  0  0  0  0  0  0  0  0  0  0
   48.5650   36.1290   41.1170 H   0  0  0  0  0  0  0  0  0  0  0  0
   47.9370   34.6430   39.7640 C   0  0  0  0  0  0  0  0  0  0  0  0
   46.8860   35.0070   39.9390 H   0  0  0  0  0  0  0  0  0  0  0  0
   48.2980   35.2790   38.9160 H   0  0  0  0  0  0  0  0  0  0  0  0
   47.9730   33.2110   39.4510 C   0  0  0  0  0  0  0  0  0  0  0  0
   49.1020   32.5340   39.0340 C   0  0  0  0  0  0  0  0  0  0  0  0
   50.0310   33.0790   38.9250 H   0  0  0  0  0  0  0  0  0  0  0  0
   48.9780   31.1750   38.7740 C   0  0  0  0  0  3  0  0  0  0  0  0
   47.7520   30.5190   38.9320 C   0  0  0  0  0  0  0  0  0  0  0  0
   47.6360   29.2010   38.6790 N   0  0  0  0  0  0  0  0  0  0  0  0
   46.4710   28.5420   38.8210 C   0  0  0  0  0  0  0  0  0  0  0  0
   46.3090   27.5040   38.6390 H   0  0  0  0  0  0  0  0  0  0  0  0
   45.3550   29.2270   39.2370 C   0  0  0  0  0  3  0  0  0  0  0  0
   45.4040   30.5840   39.5140 C   0  0  0  0  0  3  0  0  0  0  0  0
   46.6390   31.2120   39.3480 C   0  0  0  0  0  0  0  0  0  0  0  0
   46.7440   32.5700   39.6120 C   0  0  0  0  0  3  0  0  0  0  0  0
  1  6  1  0  0  0  0
  2  3  1  0  0  0  0
  2  1  2  0  0  0  0
  3  4  2  0  0  0  0
  4  5  1  0  0  0  0
  5 11  1  0  0  0  0
  6  5  2  0  0  0  0
  7  1  1  0  0  0  0
  8  3  1  0  0  0  0
  9 10  1  0  0  0  0
 10 11  2  0  0  0  0
 10 16  1  0  0  0  0
 11 12  1  0  0  0  0
 12 17  1  0  0  0  0
 12 13  2  0  0  0  0
 13 18  1  0  0  0  0
 14 13  1  0  0  0  0
 14 15  1  0  0  0  0
 16 14  2  0  0  0  0
 19 16  1  0  0  0  0
 20 22  1  0  0  0  0
 20  2  1  0  0  0  0
 21 20  1  0  0  0  0
 23 24  1  0  0  0  0
 23 20  1  0  0  0  0
 25 23  1  0  0  0  0
 26 37  1  0  0  0  0
 26 23  1  0  0  0  0
 27 26  2  0  0  0  0
 28 27  1  0  0  0  0
 29 30  2  0  0  0  0
 29 27  1  0  0  0  0
 30 36  1  0  0  0  0
 31 32  2  0  0  0  0
 31 30  1  0  0  0  0
 32 34  1  0  0  0  0
 33 32  1  0  0  0  0
 34 35  2  0  0  0  0
 36 35  1  0  0  0  0
 36 37  2  0  0  0  0
M  END
>  <minimizedAffinity>
-4.56999111

>  <minimizedRMSD>
1.32826507

$$$$
