
 OpenBabel03252506463D

 45 49  0  0  1  0  0  0  0  0999 V2000
   46.1630   33.5690   41.1040 N   0  0  1  0  0  0  0  0  0  0  0  0
   47.2550   33.4910   40.1660 C   0  0  0  0  0  0  0  0  0  0  0  0
   48.6040   33.5470   40.8240 C   0  0  0  0  0  0  0  0  0  0  0  0
   48.7940   34.9300   41.4060 C   0  0  0  0  0  0  0  0  0  0  0  0
   47.4940   35.4580   41.9690 C   0  0  0  0  0  0  0  0  0  0  0  0
   46.5780   34.2840   42.2870 C   0  0  2  0  0  0  0  0  0  0  0  0
   47.2020   34.3340   39.4330 H   0  0  0  0  0  0  0  0  0  0  0  0
   47.1970   32.5520   39.6050 H   0  0  0  0  0  0  0  0  0  0  0  0
   49.3450   33.4630   39.9870 H   0  0  0  0  0  0  0  0  0  0  0  0
   48.7660   32.7280   41.5370 H   0  0  0  0  0  0  0  0  0  0  0  0
   49.4720   34.8080   42.2780 H   0  0  0  0  0  0  0  0  0  0  0  0
   49.2760   35.6330   40.7040 H   0  0  0  0  0  0  0  0  0  0  0  0
   47.0400   36.0920   41.1920 H   0  0  0  0  0  0  0  0  0  0  0  0
   47.6300   36.0130   42.9090 H   0  0  0  0  0  0  0  0  0  0  0  0
   45.6700   34.7460   42.7260 H   0  0  0  0  0  0  0  0  0  0  0  0
   43.6600   33.5580   40.4590 C   0  0  1  0  0  0  0  0  0  0  0  0
   44.4970   33.3160   39.2920 C   0  0  0  0  0  0  0  0  0  0  0  0
   45.0560   34.1370   40.4100 C   0  0  2  0  0  0  0  0  0  0  0  0
   43.5660   32.8410   41.3270 H   0  0  0  0  0  0  0  0  0  0  0  0
   44.8580   32.2610   39.1440 H   0  0  0  0  0  0  0  0  0  0  0  0
   44.1750   33.7640   38.3380 H   0  0  0  0  0  0  0  0  0  0  0  0
   45.0990   35.2290   40.2040 H   0  0  0  0  0  0  0  0  0  0  0  0
   41.8690   34.7400   39.1540 C   0  0  0  0  0  0  0  0  0  0  0  0
   42.5010   34.4650   40.3910 C   0  0  0  0  0  0  0  0  0  0  0  0
   41.9890   35.0700   41.5340 C   0  0  0  0  0  0  0  0  0  0  0  0
   40.9130   35.8900   41.4040 N   0  0  0  0  0  0  0  0  0  0  0  0
   40.3260   36.1400   40.2280 C   0  0  0  0  0  0  0  0  0  0  0  0
   40.8020   35.5620   39.0810 N   0  0  0  0  0  0  0  0  0  0  0  0
   42.2950   34.2520   38.2900 H   0  0  0  0  0  0  0  0  0  0  0  0
   42.4300   34.9000   42.5130 H   0  0  0  0  0  0  0  0  0  0  0  0
   39.4700   36.7940   40.1300 H   0  0  0  0  0  0  0  0  0  0  0  0
   47.1800   33.4770   43.2990 N   0  0  0  0  0  0  0  0  0  0  0  0
   48.0910   32.9860   43.0640 H   0  0  0  0  0  0  0  0  0  0  0  0
   46.7060   33.2460   44.6000 C   0  0  0  0  0  0  0  0  0  0  0  0
   45.7190   33.9590   45.2250 C   0  0  0  0  0  0  0  0  0  0  0  0
   45.2390   34.7640   44.7120 H   0  0  0  0  0  0  0  0  0  0  0  0
   45.2400   33.7600   46.4950 C   0  0  0  0  0  3  0  0  0  0  0  0
   45.8060   32.7260   47.2390 C   0  0  0  0  0  0  0  0  0  0  0  0
   45.4110   32.4450   48.4910 N   0  0  0  0  0  0  0  0  0  0  0  0
   45.9520   31.4510   49.2150 C   0  0  0  0  0  0  0  0  0  0  0  0
   45.5370   31.3430   50.1990 H   0  0  0  0  0  0  0  0  0  0  0  0
   46.9670   30.6490   48.6920 C   0  0  0  0  0  3  0  0  0  0  0  0
   47.3650   30.9460   47.4050 C   0  0  0  0  0  3  0  0  0  0  0  0
   46.8000   31.9680   46.6780 C   0  0  0  0  0  0  0  0  0  0  0  0
   47.2190   32.2370   45.4030 C   0  0  0  0  0  3  0  0  0  0  0  0
  1  2  1  6  0  0  0
  1  6  1  0  0  0  0
  2  3  1  0  0  0  0
  3  4  1  0  0  0  0
  3 10  1  0  0  0  0
  4  5  1  0  0  0  0
  4 11  1  0  0  0  0
  5  6  1  0  0  0  0
  5 14  1  0  0  0  0
  6 15  1  1  0  0  0
  6 32  1  0  0  0  0
  7  2  1  0  0  0  0
  8  2  1  0  0  0  0
  9  3  1  0  0  0  0
 12  4  1  0  0  0  0
 13  5  1  0  0  0  0
 16 19  1  1  0  0  0
 17 18  1  0  0  0  0
 17 16  1  0  0  0  0
 18 22  1  6  0  0  0
 18 16  1  0  0  0  0
 18  1  1  0  0  0  0
 20 17  1  0  0  0  0
 21 17  1  0  0  0  0
 23 24  1  0  0  0  0
 24 16  1  0  0  0  0
 24 25  2  0  0  0  0
 25 30  1  0  0  0  0
 26 25  1  0  0  0  0
 27 26  2  0  0  0  0
 28 23  2  0  0  0  0
 28 27  1  0  0  0  0
 29 23  1  0  0  0  0
 31 27  1  0  0  0  0
 32 34  1  0  0  0  0
 33 32  1  0  0  0  0
 34 35  2  0  0  0  0
 34 45  1  0  0  0  0
 35 37  1  0  0  0  0
 36 35  1  0  0  0  0
 37 38  2  0  0  0  0
 38 39  1  0  0  0  0
 39 40  2  0  0  0  0
 40 41  1  0  0  0  0
 42 40  1  0  0  0  0
 43 42  2  0  0  0  0
 44 38  1  0  0  0  0
 44 43  1  0  0  0  0
 45 44  2  0  0  0  0
M  END
>  <minimizedAffinity>
-6.29098749

>  <minimizedRMSD>
7.93160868

$$$$
