
 OpenBabel03242523593D

 24 26  0  0  0  0  0  0  0  0999 V2000
   44.4530   36.0350   44.8430 C   0  0  0  0  0  0  0  0  0  0  0  0
   45.0440   35.9450   43.5700 C   0  0  0  0  0  0  0  0  0  0  0  0
   45.8750   34.8670   43.3100 C   0  0  0  0  0  0  0  0  0  0  0  0
   46.0750   33.9600   44.2850 N   0  0  0  0  0  0  0  0  0  0  0  0
   45.4960   34.0620   45.5070 C   0  0  0  0  0  0  0  0  0  0  0  0
   44.6900   35.0980   45.7760 N   0  0  0  0  0  0  0  0  0  0  0  0
   43.7960   36.8600   45.0890 H   0  0  0  0  0  0  0  0  0  0  0  0
   44.8630   36.6880   42.8120 H   0  0  0  0  0  0  0  0  0  0  0  0
   46.5400   34.6680   42.0360 C   0  0  0  0  0  0  0  0  0  0  0  0
   47.8030   35.2010   41.8840 C   0  0  0  0  0  0  0  0  0  0  0  0
   48.3540   35.7570   42.6250 H   0  0  0  0  0  0  0  0  0  0  0  0
   48.4830   35.0340   40.6760 C   0  0  0  0  0  0  0  0  0  0  0  0
   47.8970   34.3410   39.6300 C   0  0  0  0  0  0  0  0  0  0  0  0
   48.5140   34.1510   38.4370 N   0  0  0  0  0  0  0  0  0  0  0  0
   47.9350   33.4730   37.4270 C   0  0  0  0  0  0  0  0  0  0  0  0
   48.4160   33.3160   36.4740 H   0  0  0  0  0  0  0  0  0  0  0  0
   46.6740   32.9190   37.5210 C   0  0  0  0  0  0  0  0  0  0  0  0
   46.0040   33.0920   38.7350 C   0  0  0  0  0  0  0  0  0  0  0  0
   46.6250   33.7960   39.7650 C   0  0  0  0  0  0  0  0  0  0  0  0
   45.9930   33.9880   40.9810 C   0  0  0  0  0  0  0  0  0  0  0  0
   45.8450   32.9580   46.4430 C   0  0  0  0  0  0  0  0  0  0  0  0
   45.0360   32.9310   47.5370 F   0  0  0  0  0  0  0  0  0  0  0  0
   47.1750   33.0870   46.8530 F   0  0  0  0  0  0  0  0  0  0  0  0
   45.8180   31.7440   45.7500 F   0  0  0  0  0  0  0  0  0  0  0  0
  1  7  1  0  0  0  0
  1  6  1  0  0  0  0
  2  1  2  0  0  0  0
  3  2  1  0  0  0  0
  3  4  2  0  0  0  0
  4  5  1  0  0  0  0
  5  6  2  0  0  0  0
  5 21  1  0  0  0  0
  8  2  1  0  0  0  0
  9  3  1  0  0  0  0
 10  9  1  0  0  0  0
 10 11  1  0  0  0  0
 12 10  2  0  0  0  0
 13 19  1  0  0  0  0
 13 12  1  0  0  0  0
 14 13  2  0  0  0  0
 15 17  2  0  0  0  0
 15 14  1  0  0  0  0
 16 15  1  0  0  0  0
 17 18  1  0  0  0  0
 18 19  2  0  0  0  0
 19 20  1  0  0  0  0
 20  9  2  0  0  0  0
 21 23  1  0  0  0  0
 21 22  1  0  0  0  0
 24 21  1  0  0  0  0
M  END
>  <minimizedAffinity>
-6.49715185

>  <minimizedRMSD>
0.758456111

$$$$
