
 OpenBabel03252506483D

 45 49  0  0  1  0  0  0  0  0999 V2000
   37.8900   31.5700   39.6440 N   0  0  1  0  0  0  0  0  0  0  0  0
   36.9590   32.6510   39.8500 C   0  0  0  0  0  0  0  0  0  0  0  0
   37.5170   33.9920   39.4670 C   0  0  0  0  0  0  0  0  0  0  0  0
   38.6220   34.3440   40.4390 C   0  0  0  0  0  0  0  0  0  0  0  0
   39.4130   33.1130   40.8200 C   0  0  0  0  0  0  0  0  0  0  0  0
   39.2450   32.0600   39.7340 C   0  0  2  0  0  0  0  0  0  0  0  0
   36.6550   32.7070   40.9250 H   0  0  0  0  0  0  0  0  0  0  0  0
   36.0560   32.4840   39.2530 H   0  0  0  0  0  0  0  0  0  0  0  0
   36.6920   34.7230   39.6660 H   0  0  0  0  0  0  0  0  0  0  0  0
   37.8080   34.0480   38.4100 H   0  0  0  0  0  0  0  0  0  0  0  0
   39.3290   34.9950   39.8810 H   0  0  0  0  0  0  0  0  0  0  0  0
   38.2630   34.9130   41.3150 H   0  0  0  0  0  0  0  0  0  0  0  0
   39.0000   32.7460   41.7710 H   0  0  0  0  0  0  0  0  0  0  0  0
   40.4930   33.3090   40.9020 H   0  0  0  0  0  0  0  0  0  0  0  0
   39.8780   31.2110   40.0650 H   0  0  0  0  0  0  0  0  0  0  0  0
   36.5900   29.4230   40.2600 C   0  0  1  0  0  0  0  0  0  0  0  0
   36.1400   30.5500   41.0660 C   0  0  0  0  0  0  0  0  0  0  0  0
   37.5530   30.5450   40.5740 C   0  0  2  0  0  0  0  0  0  0  0  0
   36.4330   29.3440   39.1450 H   0  0  0  0  0  0  0  0  0  0  0  0
   35.3900   31.2390   40.5900 H   0  0  0  0  0  0  0  0  0  0  0  0
   35.8840   30.3480   42.1190 H   0  0  0  0  0  0  0  0  0  0  0  0
   38.3110   30.3020   41.3510 H   0  0  0  0  0  0  0  0  0  0  0  0
   36.6910   27.9050   42.2590 C   0  0  0  0  0  0  0  0  0  0  0  0
   36.8080   28.0960   40.8610 C   0  0  0  0  0  0  0  0  0  0  0  0
   37.1280   26.9920   40.0770 C   0  0  0  0  0  0  0  0  0  0  0  0
   37.3090   25.7940   40.6920 N   0  0  0  0  0  0  0  0  0  0  0  0
   37.1950   25.6300   42.0150 C   0  0  0  0  0  0  0  0  0  0  0  0
   36.8820   26.6930   42.8190 N   0  0  0  0  0  0  0  0  0  0  0  0
   36.4420   28.7860   42.8340 H   0  0  0  0  0  0  0  0  0  0  0  0
   37.2330   27.0720   38.9980 H   0  0  0  0  0  0  0  0  0  0  0  0
   37.3410   24.6730   42.5000 H   0  0  0  0  0  0  0  0  0  0  0  0
   39.7910   32.5520   38.5100 N   0  0  0  0  0  0  0  0  0  0  0  0
   39.1330   33.0380   37.8350 H   0  0  0  0  0  0  0  0  0  0  0  0
   41.1240   32.4710   38.0790 C   0  0  0  0  0  0  0  0  0  0  0  0
   42.1300   33.3260   38.4380 C   0  0  0  0  0  0  0  0  0  0  0  0
   41.9270   34.1340   39.1070 H   0  0  0  0  0  0  0  0  0  0  0  0
   43.4380   33.2740   38.0280 C   0  0  0  0  0  3  0  0  0  0  0  0
   43.7960   32.2490   37.1550 C   0  0  0  0  0  0  0  0  0  0  0  0
   45.0490   32.1050   36.6930 N   0  0  0  0  0  0  0  0  0  0  0  0
   45.4020   31.1190   35.8510 C   0  0  0  0  0  0  0  0  0  0  0  0
   46.4370   31.1300   35.5660 H   0  0  0  0  0  0  0  0  0  0  0  0
   44.4690   30.1820   35.4090 C   0  0  0  0  0  3  0  0  0  0  0  0
   43.1860   30.3370   35.8900 C   0  0  0  0  0  3  0  0  0  0  0  0
   42.8410   31.3520   36.7510 C   0  0  0  0  0  0  0  0  0  0  0  0
   41.5580   31.4790   37.2100 C   0  0  0  0  0  3  0  0  0  0  0  0
  1  6  1  0  0  0  0
  1  2  1  1  0  0  0
  1 18  1  0  0  0  0
  2  7  1  0  0  0  0
  3  9  1  0  0  0  0
  3  2  1  0  0  0  0
  3  4  1  0  0  0  0
  4  5  1  0  0  0  0
  4 12  1  0  0  0  0
  5 14  1  0  0  0  0
  5 13  1  0  0  0  0
  6 15  1  1  0  0  0
  6  5  1  0  0  0  0
  8  2  1  0  0  0  0
 10  3  1  0  0  0  0
 11  4  1  0  0  0  0
 16 19  1  6  0  0  0
 16 18  1  0  0  0  0
 16 24  1  0  0  0  0
 16 17  1  0  0  0  0
 17 21  1  0  0  0  0
 18 17  1  0  0  0  0
 18 22  1  1  0  0  0
 20 17  1  0  0  0  0
 23 28  1  0  0  0  0
 23 29  1  0  0  0  0
 24 23  2  0  0  0  0
 25 26  2  0  0  0  0
 25 24  1  0  0  0  0
 26 27  1  0  0  0  0
 27 31  1  0  0  0  0
 27 28  2  0  0  0  0
 30 25  1  0  0  0  0
 32  6  1  0  0  0  0
 33 32  1  0  0  0  0
 34 35  1  0  0  0  0
 34 32  1  0  0  0  0
 35 36  1  0  0  0  0
 37 35  2  0  0  0  0
 38 37  1  0  0  0  0
 39 38  2  0  0  0  0
 40 39  1  0  0  0  0
 41 40  1  0  0  0  0
 42 40  2  0  0  0  0
 42 43  1  0  0  0  0
 43 44  2  0  0  0  0
 44 38  1  0  0  0  0
 44 45  1  0  0  0  0
 45 34  2  0  0  0  0
M  END
>  <minimizedAffinity>
-6.03542948

$$$$

 OpenBabel03252506483D

 45 49  0  0  1  0  0  0  0  0999 V2000
   38.8490   31.6570   39.5270 N   0  0  1  0  0  0  0  0  0  0  0  0
   39.8370   32.2680   38.6750 C   0  0  0  0  0  0  0  0  0  0  0  0
   40.8030   33.1430   39.4230 C   0  0  0  0  0  0  0  0  0  0  0  0
   40.0510   34.3490   39.9410 C   0  0  0  0  0  0  0  0  0  0  0  0
   38.6570   33.9630   40.3810 C   0  0  0  0  0  0  0  0  0  0  0  0
   38.6300   32.4740   40.6960 C   0  0  2  0  0  0  0  0  0  0  0  0
   39.3450   32.9010   37.8950 H   0  0  0  0  0  0  0  0  0  0  0  0
   40.4180   31.4940   38.1620 H   0  0  0  0  0  0  0  0  0  0  0  0
   41.5100   33.5340   38.6470 H   0  0  0  0  0  0  0  0  0  0  0  0
   41.3680   32.5970   40.1890 H   0  0  0  0  0  0  0  0  0  0  0  0
   40.5790   34.6690   40.8650 H   0  0  0  0  0  0  0  0  0  0  0  0
   40.0600   35.2000   39.2380 H   0  0  0  0  0  0  0  0  0  0  0  0
   37.9810   34.1840   39.5410 H   0  0  0  0  0  0  0  0  0  0  0  0
   38.3390   34.4840   41.2970 H   0  0  0  0  0  0  0  0  0  0  0  0
   37.5940   32.2780   41.0430 H   0  0  0  0  0  0  0  0  0  0  0  0
   37.5250   30.2030   37.8490 C   0  0  1  0  0  0  0  0  0  0  0  0
   37.9060   31.4740   37.2460 C   0  0  0  0  0  0  0  0  0  0  0  0
   37.6940   31.4220   38.7260 C   0  0  2  0  0  0  0  0  0  0  0  0
   38.2630   29.4020   38.1490 H   0  0  0  0  0  0  0  0  0  0  0  0
   38.9510   31.5410   36.8370 H   0  0  0  0  0  0  0  0  0  0  0  0
   37.1790   31.9470   36.5650 H   0  0  0  0  0  0  0  0  0  0  0  0
   36.7420   31.8810   39.0730 H   0  0  0  0  0  0  0  0  0  0  0  0
   35.3950   29.2270   38.7550 C   0  0  0  0  0  0  0  0  0  0  0  0
   36.1780   29.6380   37.6510 C   0  0  0  0  0  0  0  0  0  0  0  0
   35.6350   29.4990   36.3780 C   0  0  0  0  0  0  0  0  0  0  0  0
   34.3850   28.9770   36.2630 N   0  0  0  0  0  0  0  0  0  0  0  0
   33.6570   28.5940   37.3170 C   0  0  0  0  0  0  0  0  0  0  0  0
   34.1590   28.7160   38.5850 N   0  0  0  0  0  0  0  0  0  0  0  0
   35.8520   29.3520   39.7270 H   0  0  0  0  0  0  0  0  0  0  0  0
   36.1860   29.7950   35.4880 H   0  0  0  0  0  0  0  0  0  0  0  0
   32.6620   28.1790   37.2200 H   0  0  0  0  0  0  0  0  0  0  0  0
   39.5070   32.2080   41.7900 N   0  0  0  0  0  0  0  0  0  0  0  0
   39.8030   33.0250   42.3990 H   0  0  0  0  0  0  0  0  0  0  0  0
   40.0400   30.9670   42.1730 C   0  0  0  0  0  0  0  0  0  0  0  0
   41.3710   30.6510   42.2140 C   0  0  0  0  0  0  0  0  0  0  0  0
   42.1000   31.3850   41.9460 H   0  0  0  0  0  0  0  0  0  0  0  0
   41.9200   29.4470   42.5780 C   0  0  0  0  0  3  0  0  0  0  0  0
   41.0430   28.4290   42.9470 C   0  0  0  0  0  0  0  0  0  0  0  0
   41.4730   27.2130   43.3210 N   0  0  0  0  0  0  0  0  0  0  0  0
   40.6340   26.2270   43.6790 C   0  0  0  0  0  0  0  0  0  0  0  0
   41.1200   25.3090   43.9530 H   0  0  0  0  0  0  0  0  0  0  0  0
   39.2530   26.4200   43.6800 C   0  0  0  0  0  3  0  0  0  0  0  0
   38.8210   27.6730   43.2950 C   0  0  0  0  0  3  0  0  0  0  0  0
   39.6940   28.6720   42.9310 C   0  0  0  0  0  0  0  0  0  0  0  0
   39.2330   29.9040   42.5530 C   0  0  0  0  0  3  0  0  0  0  0  0
  1  2  1  6  0  0  0
  1  6  1  0  0  0  0
  2  3  1  0  0  0  0
  3  4  1  0  0  0  0
  3 10  1  0  0  0  0
  4  5  1  0  0  0  0
  4 11  1  0  0  0  0
  5  6  1  0  0  0  0
  5 14  1  0  0  0  0
  6 15  1  1  0  0  0
  6 32  1  0  0  0  0
  7  2  1  0  0  0  0
  8  2  1  0  0  0  0
  9  3  1  0  0  0  0
 12  4  1  0  0  0  0
 13  5  1  0  0  0  0
 16 19  1  1  0  0  0
 16 18  1  0  0  0  0
 17 16  1  0  0  0  0
 17 18  1  0  0  0  0
 18 22  1  1  0  0  0
 18  1  1  0  0  0  0
 20 17  1  0  0  0  0
 21 17  1  0  0  0  0
 23 29  1  0  0  0  0
 24 16  1  0  0  0  0
 24 23  2  0  0  0  0
 25 24  1  0  0  0  0
 26 25  2  0  0  0  0
 26 27  1  0  0  0  0
 27 28  2  0  0  0  0
 28 23  1  0  0  0  0
 30 25  1  0  0  0  0
 31 27  1  0  0  0  0
 32 34  1  0  0  0  0
 32 33  1  0  0  0  0
 34 35  2  0  0  0  0
 34 45  1  0  0  0  0
 35 37  1  0  0  0  0
 36 35  1  0  0  0  0
 37 38  2  0  0  0  0
 38 39  1  0  0  0  0
 39 40  2  0  0  0  0
 40 42  1  0  0  0  0
 40 41  1  0  0  0  0
 43 42  2  0  0  0  0
 44 38  1  0  0  0  0
 44 43  1  0  0  0  0
 45 44  2  0  0  0  0
M  END
>  <minimizedAffinity>
-5.95338154

$$$$

 OpenBabel03252506483D

 45 49  0  0  1  0  0  0  0  0999 V2000
   37.3740   30.1100   39.1540 N   0  0  1  0  0  0  0  0  0  0  0  0
   38.6220   30.7320   38.7890 C   0  0  0  0  0  0  0  0  0  0  0  0
   39.3310   31.3620   39.9550 C   0  0  0  0  0  0  0  0  0  0  0  0
   38.5170   32.5490   40.4230 C   0  0  0  0  0  0  0  0  0  0  0  0
   37.0370   32.2600   40.3160 C   0  0  0  0  0  0  0  0  0  0  0  0
   36.8240   30.7520   40.3240 C   0  0  2  0  0  0  0  0  0  0  0  0
   38.4530   31.5320   38.0260 H   0  0  0  0  0  0  0  0  0  0  0  0
   39.2960   29.9870   38.3540 H   0  0  0  0  0  0  0  0  0  0  0  0
   40.2760   31.7880   39.5310 H   0  0  0  0  0  0  0  0  0  0  0  0
   39.5770   30.6410   40.7460 H   0  0  0  0  0  0  0  0  0  0  0  0
   38.7250   32.6570   41.5090 H   0  0  0  0  0  0  0  0  0  0  0  0
   38.8080   33.4940   39.9310 H   0  0  0  0  0  0  0  0  0  0  0  0
   36.6930   32.6860   39.3620 H   0  0  0  0  0  0  0  0  0  0  0  0
   36.4620   32.6620   41.1640 H   0  0  0  0  0  0  0  0  0  0  0  0
   35.7230   30.6230   40.2810 H   0  0  0  0  0  0  0  0  0  0  0  0
   35.9070   28.9030   37.4020 C   0  0  1  0  0  0  0  0  0  0  0  0
   37.0940   29.4720   36.7790 C   0  0  0  0  0  0  0  0  0  0  0  0
   36.5400   30.1380   37.9990 C   0  0  2  0  0  0  0  0  0  0  0  0
   35.9320   28.0530   38.1460 H   0  0  0  0  0  0  0  0  0  0  0  0
   38.0400   28.8690   36.8570 H   0  0  0  0  0  0  0  0  0  0  0  0
   36.9780   29.9030   35.7710 H   0  0  0  0  0  0  0  0  0  0  0  0
   35.9910   31.0850   37.7990 H   0  0  0  0  0  0  0  0  0  0  0  0
   33.4000   28.9830   37.5340 C   0  0  0  0  0  0  0  0  0  0  0  0
   34.5840   29.0080   36.7600 C   0  0  0  0  0  0  0  0  0  0  0  0
   34.4600   29.1420   35.3810 C   0  0  0  0  0  0  0  0  0  0  0  0
   33.2120   29.2420   34.8520 N   0  0  0  0  0  0  0  0  0  0  0  0
   32.1020   29.2170   35.5970 C   0  0  0  0  0  0  0  0  0  0  0  0
   32.1850   29.0870   36.9580 N   0  0  0  0  0  0  0  0  0  0  0  0
   33.5380   28.8780   38.6010 H   0  0  0  0  0  0  0  0  0  0  0  0
   35.3310   29.1670   34.7310 H   0  0  0  0  0  0  0  0  0  0  0  0
   31.1100   29.2970   35.1710 H   0  0  0  0  0  0  0  0  0  0  0  0
   37.2710   30.2190   41.5700 N   0  0  0  0  0  0  0  0  0  0  0  0
   37.3640   30.8860   42.3900 H   0  0  0  0  0  0  0  0  0  0  0  0
   37.6090   28.8860   41.8540 C   0  0  0  0  0  0  0  0  0  0  0  0
   36.8200   27.7950   41.6090 C   0  0  0  0  0  0  0  0  0  0  0  0
   35.8600   27.9240   41.1580 H   0  0  0  0  0  0  0  0  0  0  0  0
   37.1220   26.4850   41.8800 C   0  0  0  0  0  3  0  0  0  0  0  0
   38.3590   26.2210   42.4670 C   0  0  0  0  0  0  0  0  0  0  0  0
   38.7550   24.9740   42.7740 N   0  0  0  0  0  0  0  0  0  0  0  0
   39.9440   24.7110   43.3390 C   0  0  0  0  0  0  0  0  0  0  0  0
   40.1250   23.6700   43.5270 H   0  0  0  0  0  0  0  0  0  0  0  0
   40.8410   25.7360   43.6400 C   0  0  0  0  0  3  0  0  0  0  0  0
   40.4260   27.0120   43.3210 C   0  0  0  0  0  3  0  0  0  0  0  0
   39.2040   27.2640   42.7420 C   0  0  0  0  0  0  0  0  0  0  0  0
   38.8200   28.5420   42.4380 C   0  0  0  0  0  3  0  0  0  0  0  0
  1  2  1  6  0  0  0
  1  6  1  0  0  0  0
  2  3  1  0  0  0  0
  3  4  1  0  0  0  0
  3 10  1  0  0  0  0
  4 11  1  0  0  0  0
  5  6  1  0  0  0  0
  5  4  1  0  0  0  0
  5 14  1  0  0  0  0
  6 15  1  6  0  0  0
  6 32  1  0  0  0  0
  7  2  1  0  0  0  0
  8  2  1  0  0  0  0
  9  3  1  0  0  0  0
 12  4  1  0  0  0  0
 13  5  1  0  0  0  0
 16 18  1  0  0  0  0
 16 19  1  1  0  0  0
 17 20  1  0  0  0  0
 17 16  1  0  0  0  0
 17 18  1  0  0  0  0
 18 22  1  6  0  0  0
 18  1  1  0  0  0  0
 21 17  1  0  0  0  0
 23 29  1  0  0  0  0
 24 16  1  0  0  0  0
 24 23  2  0  0  0  0
 25 24  1  0  0  0  0
 26 25  2  0  0  0  0
 26 27  1  0  0  0  0
 27 28  2  0  0  0  0
 28 23  1  0  0  0  0
 30 25  1  0  0  0  0
 31 27  1  0  0  0  0
 32 34  1  0  0  0  0
 32 33  1  0  0  0  0
 34 45  1  0  0  0  0
 35 34  2  0  0  0  0
 35 37  1  0  0  0  0
 36 35  1  0  0  0  0
 37 38  2  0  0  0  0
 38 44  1  0  0  0  0
 38 39  1  0  0  0  0
 39 40  2  0  0  0  0
 40 41  1  0  0  0  0
 40 42  1  0  0  0  0
 43 42  2  0  0  0  0
 44 43  1  0  0  0  0
 45 44  2  0  0  0  0
M  END
>  <minimizedAffinity>
-5.88235855

$$$$

 OpenBabel03252506483D

 45 49  0  0  1  0  0  0  0  0999 V2000
   37.8090   30.3220   39.1720 N   0  0  1  0  0  0  0  0  0  0  0  0
   38.9870   31.0470   38.7670 C   0  0  0  0  0  0  0  0  0  0  0  0
   39.6480   31.7790   39.9010 C   0  0  0  0  0  0  0  0  0  0  0  0
   38.7310   32.8980   40.3450 C   0  0  0  0  0  0  0  0  0  0  0  0
   37.2840   32.4660   40.2720 C   0  0  0  0  0  0  0  0  0  0  0  0
   37.2160   30.9460   40.3300 C   0  0  2  0  0  0  0  0  0  0  0  0
   38.7320   31.8020   37.9820 H   0  0  0  0  0  0  0  0  0  0  0  0
   39.7230   30.3570   38.3440 H   0  0  0  0  0  0  0  0  0  0  0  0
   40.5420   32.2790   39.4480 H   0  0  0  0  0  0  0  0  0  0  0  0
   39.9730   31.1110   40.7090 H   0  0  0  0  0  0  0  0  0  0  0  0
   38.9420   33.0610   41.4240 H   0  0  0  0  0  0  0  0  0  0  0  0
   38.9230   33.8500   39.8190 H   0  0  0  0  0  0  0  0  0  0  0  0
   36.8880   32.8270   39.3110 H   0  0  0  0  0  0  0  0  0  0  0  0
   36.6840   32.8390   41.1170 H   0  0  0  0  0  0  0  0  0  0  0  0
   36.1320   30.7120   40.3090 H   0  0  0  0  0  0  0  0  0  0  0  0
   36.3070   28.9470   37.5800 C   0  0  1  0  0  0  0  0  0  0  0  0
   37.4920   29.4310   36.8850 C   0  0  0  0  0  0  0  0  0  0  0  0
   36.9610   30.2330   38.0300 C   0  0  2  0  0  0  0  0  0  0  0  0
   36.3330   28.1840   38.4120 H   0  0  0  0  0  0  0  0  0  0  0  0
   38.4320   28.8290   37.0170 H   0  0  0  0  0  0  0  0  0  0  0  0
   37.3670   29.7500   35.8370 H   0  0  0  0  0  0  0  0  0  0  0  0
   36.4180   31.1580   37.7350 H   0  0  0  0  0  0  0  0  0  0  0  0
   34.8480   29.1150   35.5420 C   0  0  0  0  0  0  0  0  0  0  0  0
   34.9770   28.9970   36.9460 C   0  0  0  0  0  0  0  0  0  0  0  0
   33.8130   28.9230   37.7040 C   0  0  0  0  0  0  0  0  0  0  0  0
   32.6180   28.9670   37.0590 N   0  0  0  0  0  0  0  0  0  0  0  0
   32.5130   29.0780   35.7300 C   0  0  0  0  0  0  0  0  0  0  0  0
   33.6370   29.1540   34.9510 N   0  0  0  0  0  0  0  0  0  0  0  0
   35.7750   29.1700   34.9880 H   0  0  0  0  0  0  0  0  0  0  0  0
   33.8450   28.8320   38.7870 H   0  0  0  0  0  0  0  0  0  0  0  0
   31.5580   29.1140   35.2200 H   0  0  0  0  0  0  0  0  0  0  0  0
   37.7290   30.4980   41.5850 N   0  0  0  0  0  0  0  0  0  0  0  0
   37.8200   31.2110   42.3660 H   0  0  0  0  0  0  0  0  0  0  0  0
   38.1370   29.1990   41.9230 C   0  0  0  0  0  0  0  0  0  0  0  0
   39.2740   28.8760   42.6130 C   0  0  0  0  0  0  0  0  0  0  0  0
   39.9310   29.6500   42.9460 H   0  0  0  0  0  0  0  0  0  0  0  0
   39.7000   27.6170   42.9530 C   0  0  0  0  0  3  0  0  0  0  0  0
   38.9020   26.5440   42.5630 C   0  0  0  0  0  0  0  0  0  0  0  0
   39.2250   25.2700   42.8440 N   0  0  0  0  0  0  0  0  0  0  0  0
   38.4610   24.2300   42.4710 C   0  0  0  0  0  0  0  0  0  0  0  0
   38.8440   23.2710   42.7650 H   0  0  0  0  0  0  0  0  0  0  0  0
   37.2750   24.4250   41.7630 C   0  0  0  0  0  3  0  0  0  0  0  0
   36.9520   25.7350   41.4800 C   0  0  0  0  0  3  0  0  0  0  0  0
   37.7460   26.7890   41.8690 C   0  0  0  0  0  0  0  0  0  0  0  0
   37.3970   28.0790   41.5710 C   0  0  0  0  0  3  0  0  0  0  0  0
  1  2  1  6  0  0  0
  1  6  1  0  0  0  0
  2  3  1  0  0  0  0
  3  4  1  0  0  0  0
  3 10  1  0  0  0  0
  4 11  1  0  0  0  0
  5  6  1  0  0  0  0
  5  4  1  0  0  0  0
  5 14  1  0  0  0  0
  6 15  1  6  0  0  0
  6 32  1  0  0  0  0
  7  2  1  0  0  0  0
  8  2  1  0  0  0  0
  9  3  1  0  0  0  0
 12  4  1  0  0  0  0
 13  5  1  0  0  0  0
 16 18  1  0  0  0  0
 16 19  1  1  0  0  0
 17 20  1  0  0  0  0
 17 16  1  0  0  0  0
 17 18  1  0  0  0  0
 18 22  1  6  0  0  0
 18  1  1  0  0  0  0
 21 17  1  0  0  0  0
 23 24  1  0  0  0  0
 24 16  1  0  0  0  0
 24 25  2  0  0  0  0
 25 30  1  0  0  0  0
 26 25  1  0  0  0  0
 27 26  2  0  0  0  0
 28 23  2  0  0  0  0
 28 27  1  0  0  0  0
 29 23  1  0  0  0  0
 31 27  1  0  0  0  0
 32 34  1  0  0  0  0
 32 33  1  0  0  0  0
 34 35  1  0  0  0  0
 35 36  1  0  0  0  0
 35 37  2  0  0  0  0
 38 39  1  0  0  0  0
 38 37  1  0  0  0  0
 40 41  1  0  0  0  0
 40 39  2  0  0  0  0
 42 40  1  0  0  0  0
 43 42  2  0  0  0  0
 43 44  1  0  0  0  0
 44 38  2  0  0  0  0
 45 44  1  0  0  0  0
 45 34  2  0  0  0  0
M  END
>  <minimizedAffinity>
-5.72481728

$$$$

 OpenBabel03252506483D

 45 49  0  0  1  0  0  0  0  0999 V2000
   35.9550   29.3040   37.2380 N   0  0  1  0  0  0  0  0  0  0  0  0
   36.9120   29.3970   36.1640 C   0  0  0  0  0  0  0  0  0  0  0  0
   36.5190   28.5980   34.9530 C   0  0  0  0  0  0  0  0  0  0  0  0
   36.5910   27.1290   35.3070 C   0  0  0  0  0  0  0  0  0  0  0  0
   36.1310   26.8970   36.7280 C   0  0  0  0  0  0  0  0  0  0  0  0
   35.2390   28.0540   37.1560 C   0  0  2  0  0  0  0  0  0  0  0  0
   37.9140   29.0300   36.4990 H   0  0  0  0  0  0  0  0  0  0  0  0
   37.0230   30.4400   35.8520 H   0  0  0  0  0  0  0  0  0  0  0  0
   37.3370   28.7720   34.2060 H   0  0  0  0  0  0  0  0  0  0  0  0
   35.5600   28.9160   34.5240 H   0  0  0  0  0  0  0  0  0  0  0  0
   35.8430   26.6190   34.6610 H   0  0  0  0  0  0  0  0  0  0  0  0
   37.5770   26.6800   35.0950 H   0  0  0  0  0  0  0  0  0  0  0  0
   37.0330   26.8610   37.3570 H   0  0  0  0  0  0  0  0  0  0  0  0
   35.5300   25.9810   36.8380 H   0  0  0  0  0  0  0  0  0  0  0  0
   34.9150   27.7940   38.1850 H   0  0  0  0  0  0  0  0  0  0  0  0
   35.9990   29.8780   39.7570 C   0  0  1  0  0  0  0  0  0  0  0  0
   36.6620   30.9150   38.9780 C   0  0  0  0  0  0  0  0  0  0  0  0
   36.6690   29.5150   38.4520 C   0  0  2  0  0  0  0  0  0  0  0  0
   34.8920   29.6590   39.7020 H   0  0  0  0  0  0  0  0  0  0  0  0
   35.9960   31.6850   38.4980 H   0  0  0  0  0  0  0  0  0  0  0  0
   37.5580   31.3830   39.4190 H   0  0  0  0  0  0  0  0  0  0  0  0
   37.6420   28.9860   38.5610 H   0  0  0  0  0  0  0  0  0  0  0  0
   36.0920   28.2080   41.6310 C   0  0  0  0  0  0  0  0  0  0  0  0
   36.5740   29.3920   41.0240 C   0  0  0  0  0  0  0  0  0  0  0  0
   37.6080   30.0740   41.6560 C   0  0  0  0  0  0  0  0  0  0  0  0
   38.1000   29.5700   42.8180 N   0  0  0  0  0  0  0  0  0  0  0  0
   37.6330   28.4480   43.3790 C   0  0  0  0  0  0  0  0  0  0  0  0
   36.6160   27.7500   42.7860 N   0  0  0  0  0  0  0  0  0  0  0  0
   35.2880   27.7070   41.1100 H   0  0  0  0  0  0  0  0  0  0  0  0
   38.0220   30.9900   41.2410 H   0  0  0  0  0  0  0  0  0  0  0  0
   38.0280   28.0500   44.3050 H   0  0  0  0  0  0  0  0  0  0  0  0
   34.0730   28.0800   36.3320 N   0  0  0  0  0  0  0  0  0  0  0  0
   33.9740   27.3300   35.5890 H   0  0  0  0  0  0  0  0  0  0  0  0
   33.0120   28.9990   36.3860 C   0  0  0  0  0  0  0  0  0  0  0  0
   32.2500   29.2710   37.4900 C   0  0  0  0  0  0  0  0  0  0  0  0
   32.4500   28.7680   38.4100 H   0  0  0  0  0  0  0  0  0  0  0  0
   31.2070   30.1580   37.5690 C   0  0  0  0  0  3  0  0  0  0  0  0
   30.8760   30.8640   36.4140 C   0  0  0  0  0  0  0  0  0  0  0  0
   29.8730   31.7570   36.3820 N   0  0  0  0  0  0  0  0  0  0  0  0
   29.5480   32.4410   35.2730 C   0  0  0  0  0  0  0  0  0  0  0  0
   28.7250   33.1200   35.3960 H   0  0  0  0  0  0  0  0  0  0  0  0
   30.2490   32.2560   34.0810 C   0  0  0  0  0  3  0  0  0  0  0  0
   31.2770   31.3380   34.1240 C   0  0  0  0  0  3  0  0  0  0  0  0
   31.5960   30.6450   35.2690 C   0  0  0  0  0  0  0  0  0  0  0  0
   32.6230   29.7400   35.2790 C   0  0  0  0  0  3  0  0  0  0  0  0
  1  2  1  6  0  0  0
  1 18  1  0  0  0  0
  2  7  1  0  0  0  0
  3  4  1  0  0  0  0
  3  2  1  0  0  0  0
  4  5  1  0  0  0  0
  5 14  1  0  0  0  0
  5  6  1  0  0  0  0
  5 13  1  0  0  0  0
  6  1  1  0  0  0  0
  6 15  1  1  0  0  0
  8  2  1  0  0  0  0
  9  3  1  0  0  0  0
 10  3  1  0  0  0  0
 11  4  1  0  0  0  0
 12  4  1  0  0  0  0
 16 19  1  6  0  0  0
 16 24  1  0  0  0  0
 17 21  1  0  0  0  0
 17 16  1  0  0  0  0
 18 22  1  1  0  0  0
 18 17  1  0  0  0  0
 18 16  1  0  0  0  0
 20 17  1  0  0  0  0
 23 28  1  0  0  0  0
 24 23  2  0  0  0  0
 24 25  1  0  0  0  0
 25 26  2  0  0  0  0
 26 27  1  0  0  0  0
 27 31  1  0  0  0  0
 28 27  2  0  0  0  0
 29 23  1  0  0  0  0
 30 25  1  0  0  0  0
 32 34  1  0  0  0  0
 32  6  1  0  0  0  0
 33 32  1  0  0  0  0
 34 35  1  0  0  0  0
 35 37  2  0  0  0  0
 35 36  1  0  0  0  0
 38 37  1  0  0  0  0
 39 38  1  0  0  0  0
 40 41  1  0  0  0  0
 40 39  2  0  0  0  0
 42 43  2  0  0  0  0
 42 40  1  0  0  0  0
 43 44  1  0  0  0  0
 44 45  1  0  0  0  0
 44 38  2  0  0  0  0
 45 34  2  0  0  0  0
M  END
>  <minimizedAffinity>
-5.6690731

$$$$

 OpenBabel03252506483D

 45 49  0  0  1  0  0  0  0  0999 V2000
   38.0830   31.3870   39.5810 N   0  0  1  0  0  0  0  0  0  0  0  0
   36.9770   32.3090   39.6550 C   0  0  0  0  0  0  0  0  0  0  0  0
   37.3280   33.6910   39.1800 C   0  0  0  0  0  0  0  0  0  0  0  0
   38.3060   34.2980   40.1620 C   0  0  0  0  0  0  0  0  0  0  0  0
   39.2660   33.2520   40.6800 C   0  0  0  0  0  0  0  0  0  0  0  0
   39.3320   32.1030   39.6830 C   0  0  2  0  0  0  0  0  0  0  0  0
   36.6110   32.3980   40.7080 H   0  0  0  0  0  0  0  0  0  0  0  0
   36.1480   31.9470   39.0390 H   0  0  0  0  0  0  0  0  0  0  0  0
   36.3850   34.2860   39.2810 H   0  0  0  0  0  0  0  0  0  0  0  0
   37.6630   33.7110   38.1350 H   0  0  0  0  0  0  0  0  0  0  0  0
   38.9260   35.0130   39.5790 H   0  0  0  0  0  0  0  0  0  0  0  0
   37.8120   34.8660   40.9700 H   0  0  0  0  0  0  0  0  0  0  0  0
   38.8680   32.8970   41.6420 H   0  0  0  0  0  0  0  0  0  0  0  0
   40.2930   33.6320   40.7880 H   0  0  0  0  0  0  0  0  0  0  0  0
   40.0770   31.4010   40.1120 H   0  0  0  0  0  0  0  0  0  0  0  0
   38.1950   28.9340   40.3870 C   0  0  1  0  0  0  0  0  0  0  0  0
   36.8130   29.3810   40.2780 C   0  0  0  0  0  0  0  0  0  0  0  0
   37.8680   30.3960   40.5820 C   0  0  2  0  0  0  0  0  0  0  0  0
   38.8860   28.8030   39.5030 H   0  0  0  0  0  0  0  0  0  0  0  0
   36.3540   29.3470   39.2520 H   0  0  0  0  0  0  0  0  0  0  0  0
   36.1050   29.0220   41.0430 H   0  0  0  0  0  0  0  0  0  0  0  0
   37.8870   30.7390   41.6400 H   0  0  0  0  0  0  0  0  0  0  0  0
   39.9430   27.5610   41.5570 C   0  0  0  0  0  0  0  0  0  0  0  0
   38.6500   28.1360   41.5390 C   0  0  0  0  0  0  0  0  0  0  0  0
   37.8290   27.9300   42.6430 C   0  0  0  0  0  0  0  0  0  0  0  0
   38.3100   27.1910   43.6770 N   0  0  0  0  0  0  0  0  0  0  0  0
   39.5360   26.6540   43.6790 C   0  0  0  0  0  0  0  0  0  0  0  0
   40.3720   26.8360   42.6100 N   0  0  0  0  0  0  0  0  0  0  0  0
   40.5500   27.7430   40.6820 H   0  0  0  0  0  0  0  0  0  0  0  0
   36.8250   28.3440   42.6910 H   0  0  0  0  0  0  0  0  0  0  0  0
   39.9140   26.0660   44.5060 H   0  0  0  0  0  0  0  0  0  0  0  0
   39.8550   32.5810   38.4440 N   0  0  0  0  0  0  0  0  0  0  0  0
   39.1680   32.7830   37.6610 H   0  0  0  0  0  0  0  0  0  0  0  0
   41.2000   32.8260   38.1250 C   0  0  0  0  0  0  0  0  0  0  0  0
   41.8560   34.0150   38.3000 C   0  0  0  0  0  0  0  0  0  0  0  0
   41.3380   34.8510   38.7170 H   0  0  0  0  0  0  0  0  0  0  0  0
   43.1650   34.2840   37.9930 C   0  0  0  0  0  3  0  0  0  0  0  0
   43.9210   33.2480   37.4460 C   0  0  0  0  0  0  0  0  0  0  0  0
   45.2130   33.4030   37.1100 N   0  0  0  0  0  0  0  0  0  0  0  0
   45.9470   32.4100   36.5830 C   0  0  0  0  0  0  0  0  0  0  0  0
   46.9640   32.6790   36.3640 H   0  0  0  0  0  0  0  0  0  0  0  0
   45.3970   31.1490   36.3550 C   0  0  0  0  0  3  0  0  0  0  0  0
   44.0710   31.0000   36.7040 C   0  0  0  0  0  3  0  0  0  0  0  0
   43.3320   32.0270   37.2430 C   0  0  0  0  0  0  0  0  0  0  0  0
   42.0170   31.8470   37.5780 C   0  0  0  0  0  3  0  0  0  0  0  0
  1  2  1  1  0  0  0
  1  6  1  0  0  0  0
  1 18  1  0  0  0  0
  2  7  1  0  0  0  0
  3  9  1  0  0  0  0
  3  2  1  0  0  0  0
  3  4  1  0  0  0  0
  4  5  1  0  0  0  0
  4 12  1  0  0  0  0
  5 14  1  0  0  0  0
  5 13  1  0  0  0  0
  6 15  1  1  0  0  0
  6  5  1  0  0  0  0
  8  2  1  0  0  0  0
 10  3  1  0  0  0  0
 11  4  1  0  0  0  0
 16 19  1  6  0  0  0
 16 18  1  0  0  0  0
 16 24  1  0  0  0  0
 17 16  1  0  0  0  0
 17 18  1  0  0  0  0
 17 21  1  0  0  0  0
 18 22  1  1  0  0  0
 20 17  1  0  0  0  0
 23 28  1  0  0  0  0
 24 23  2  0  0  0  0
 24 25  1  0  0  0  0
 25 30  1  0  0  0  0
 25 26  2  0  0  0  0
 26 27  1  0  0  0  0
 27 31  1  0  0  0  0
 28 27  2  0  0  0  0
 29 23  1  0  0  0  0
 32  6  1  0  0  0  0
 33 32  1  0  0  0  0
 34 35  1  0  0  0  0
 34 32  1  0  0  0  0
 35 36  1  0  0  0  0
 37 35  2  0  0  0  0
 38 37  1  0  0  0  0
 39 38  2  0  0  0  0
 40 39  1  0  0  0  0
 41 40  1  0  0  0  0
 42 40  2  0  0  0  0
 42 43  1  0  0  0  0
 43 44  2  0  0  0  0
 44 38  1  0  0  0  0
 44 45  1  0  0  0  0
 45 34  2  0  0  0  0
M  END
>  <minimizedAffinity>
-5.6100955

$$$$

 OpenBabel03252506483D

 45 49  0  0  1  0  0  0  0  0999 V2000
   37.3210   28.7580   41.5330 N   0  0  1  0  0  0  0  0  0  0  0  0
   36.6970   27.9680   42.5650 C   0  0  0  0  0  0  0  0  0  0  0  0
   37.6660   27.4900   43.6100 C   0  0  0  0  0  0  0  0  0  0  0  0
   38.5990   26.4850   42.9710 C   0  0  0  0  0  0  0  0  0  0  0  0
   38.9290   26.8870   41.5510 C   0  0  0  0  0  0  0  0  0  0  0  0
   38.7090   28.3860   41.3960 C   0  0  2  0  0  0  0  0  0  0  0  0
   36.2050   27.0650   42.1240 H   0  0  0  0  0  0  0  0  0  0  0  0
   35.9260   28.5580   43.0720 H   0  0  0  0  0  0  0  0  0  0  0  0
   37.0480   26.9100   44.3420 H   0  0  0  0  0  0  0  0  0  0  0  0
   38.1720   28.3130   44.1310 H   0  0  0  0  0  0  0  0  0  0  0  0
   39.5550   26.5510   43.5320 H   0  0  0  0  0  0  0  0  0  0  0  0
   38.2360   25.4450   43.0490 H   0  0  0  0  0  0  0  0  0  0  0  0
   38.2450   26.3340   40.8920 H   0  0  0  0  0  0  0  0  0  0  0  0
   39.9810   26.6970   41.2870 H   0  0  0  0  0  0  0  0  0  0  0  0
   39.0050   28.6070   40.3500 H   0  0  0  0  0  0  0  0  0  0  0  0
   36.0350   29.7700   39.5320 C   0  0  1  0  0  0  0  0  0  0  0  0
   35.1230   29.0950   40.4470 C   0  0  0  0  0  0  0  0  0  0  0  0
   36.5330   28.6050   40.3560 C   0  0  2  0  0  0  0  0  0  0  0  0
   36.6110   30.7060   39.7930 H   0  0  0  0  0  0  0  0  0  0  0  0
   34.7960   29.6790   41.3500 H   0  0  0  0  0  0  0  0  0  0  0  0
   34.2790   28.5440   40.0020 H   0  0  0  0  0  0  0  0  0  0  0  0
   36.6560   27.6550   39.7900 H   0  0  0  0  0  0  0  0  0  0  0  0
   34.7350   29.0520   37.5070 C   0  0  0  0  0  0  0  0  0  0  0  0
   35.9020   29.6170   38.0730 C   0  0  0  0  0  0  0  0  0  0  0  0
   36.9120   30.0290   37.2090 C   0  0  0  0  0  0  0  0  0  0  0  0
   36.7250   29.8670   35.8730 N   0  0  0  0  0  0  0  0  0  0  0  0
   35.6140   29.3310   35.3530 C   0  0  0  0  0  0  0  0  0  0  0  0
   34.5990   28.9140   36.1720 N   0  0  0  0  0  0  0  0  0  0  0  0
   33.9730   28.7450   38.2100 H   0  0  0  0  0  0  0  0  0  0  0  0
   37.8340   30.4700   37.5810 H   0  0  0  0  0  0  0  0  0  0  0  0
   35.4700   29.2040   34.2880 H   0  0  0  0  0  0  0  0  0  0  0  0
   39.6080   29.0870   42.2550 N   0  0  0  0  0  0  0  0  0  0  0  0
   39.7230   28.7310   43.2480 H   0  0  0  0  0  0  0  0  0  0  0  0
   40.3800   30.2170   41.9410 C   0  0  0  0  0  0  0  0  0  0  0  0
   41.4630   30.6620   42.6480 C   0  0  0  0  0  0  0  0  0  0  0  0
   41.7860   30.1290   43.5160 H   0  0  0  0  0  0  0  0  0  0  0  0
   42.2310   31.7640   42.3690 C   0  0  0  0  0  3  0  0  0  0  0  0
   41.8850   32.5190   41.2490 C   0  0  0  0  0  0  0  0  0  0  0  0
   42.5700   33.6160   40.8850 N   0  0  0  0  0  0  0  0  0  0  0  0
   42.2410   34.3490   39.8080 C   0  0  0  0  0  0  0  0  0  0  0  0
   42.8780   35.1970   39.6390 H   0  0  0  0  0  0  0  0  0  0  0  0
   41.1570   34.0010   39.0020 C   0  0  0  0  0  3  0  0  0  0  0  0
   40.4610   32.8730   39.3850 C   0  0  0  0  0  3  0  0  0  0  0  0
   40.8100   32.1340   40.4910 C   0  0  0  0  0  0  0  0  0  0  0  0
   40.0980   31.0190   40.8440 C   0  0  0  0  0  3  0  0  0  0  0  0
  1  2  1  1  0  0  0
  2  8  1  0  0  0  0
  2  3  1  0  0  0  0
  3 10  1  0  0  0  0
  3  9  1  0  0  0  0
  4 12  1  0  0  0  0
  4 11  1  0  0  0  0
  4  3  1  0  0  0  0
  5  4  1  0  0  0  0
  6 15  1  6  0  0  0
  6  1  1  0  0  0  0
  6  5  1  0  0  0  0
  6 32  1  0  0  0  0
  7  2  1  0  0  0  0
 13  5  1  0  0  0  0
 14  5  1  0  0  0  0
 16 19  1  1  0  0  0
 16 18  1  0  0  0  0
 16 17  1  0  0  0  0
 17 20  1  0  0  0  0
 18 22  1  6  0  0  0
 18 17  1  0  0  0  0
 18  1  1  0  0  0  0
 21 17  1  0  0  0  0
 23 24  1  0  0  0  0
 23 29  1  0  0  0  0
 24 16  1  0  0  0  0
 25 30  1  0  0  0  0
 25 24  2  0  0  0  0
 26 25  1  0  0  0  0
 27 26  2  0  0  0  0
 27 28  1  0  0  0  0
 28 23  2  0  0  0  0
 31 27  1  0  0  0  0
 32 33  1  0  0  0  0
 34 32  1  0  0  0  0
 34 35  1  0  0  0  0
 35 36  1  0  0  0  0
 37 35  2  0  0  0  0
 38 37  1  0  0  0  0
 39 38  1  0  0  0  0
 40 39  2  0  0  0  0
 41 40  1  0  0  0  0
 42 43  2  0  0  0  0
 42 40  1  0  0  0  0
 43 44  1  0  0  0  0
 44 45  1  0  0  0  0
 44 38  2  0  0  0  0
 45 34  2  0  0  0  0
M  END
>  <minimizedAffinity>
-5.59641457

$$$$

 OpenBabel03252506483D

 45 49  0  0  1  0  0  0  0  0999 V2000
   37.7720   30.0470   39.3340 N   0  0  1  0  0  0  0  0  0  0  0  0
   38.8610   30.9470   39.0500 C   0  0  0  0  0  0  0  0  0  0  0  0
   39.2660   31.7770   40.2350 C   0  0  0  0  0  0  0  0  0  0  0  0
   38.1420   32.7400   40.5490 C   0  0  0  0  0  0  0  0  0  0  0  0
   36.7980   32.0860   40.3230 C   0  0  0  0  0  0  0  0  0  0  0  0
   36.9610   30.5750   40.4050 C   0  0  2  0  0  0  0  0  0  0  0  0
   38.5840   31.6500   38.2250 H   0  0  0  0  0  0  0  0  0  0  0  0
   39.7400   30.3790   38.7260 H   0  0  0  0  0  0  0  0  0  0  0  0
   40.1180   32.4100   39.8750 H   0  0  0  0  0  0  0  0  0  0  0  0
   39.5970   31.1710   41.0880 H   0  0  0  0  0  0  0  0  0  0  0  0
   38.2010   32.9370   41.6410 H   0  0  0  0  0  0  0  0  0  0  0  0
   38.2420   33.7080   40.0280 H   0  0  0  0  0  0  0  0  0  0  0  0
   36.4630   32.3770   39.3160 H   0  0  0  0  0  0  0  0  0  0  0  0
   36.0550   32.3630   41.0870 H   0  0  0  0  0  0  0  0  0  0  0  0
   35.9360   30.1730   40.2680 H   0  0  0  0  0  0  0  0  0  0  0  0
   37.7480   29.2500   36.8760 C   0  0  1  0  0  0  0  0  0  0  0  0
   37.5030   30.6830   36.9580 C   0  0  0  0  0  0  0  0  0  0  0  0
   37.0850   29.8220   38.1070 C   0  0  2  0  0  0  0  0  0  0  0  0
   38.7290   28.7620   37.1520 H   0  0  0  0  0  0  0  0  0  0  0  0
   38.4080   31.3420   37.0600 H   0  0  0  0  0  0  0  0  0  0  0  0
   36.7750   31.1120   36.2500 H   0  0  0  0  0  0  0  0  0  0  0  0
   35.9890   29.6390   38.1720 H   0  0  0  0  0  0  0  0  0  0  0  0
   37.0740   26.9840   36.0270 C   0  0  0  0  0  0  0  0  0  0  0  0
   36.9670   28.3940   35.9660 C   0  0  0  0  0  0  0  0  0  0  0  0
   36.0980   28.9420   35.0280 C   0  0  0  0  0  0  0  0  0  0  0  0
   35.4000   28.0970   34.2240 N   0  0  0  0  0  0  0  0  0  0  0  0
   35.5120   26.7660   34.2950 C   0  0  0  0  0  0  0  0  0  0  0  0
   36.3580   26.1910   35.2050 N   0  0  0  0  0  0  0  0  0  0  0  0
   37.7590   26.5970   36.7690 H   0  0  0  0  0  0  0  0  0  0  0  0
   35.9710   30.0170   34.9300 H   0  0  0  0  0  0  0  0  0  0  0  0
   34.9540   26.0980   33.6510 H   0  0  0  0  0  0  0  0  0  0  0  0
   37.3900   30.2170   41.7190 N   0  0  0  0  0  0  0  0  0  0  0  0
   37.2100   30.9080   42.5040 H   0  0  0  0  0  0  0  0  0  0  0  0
   38.0350   29.0340   42.1120 C   0  0  0  0  0  0  0  0  0  0  0  0
   39.2330   28.9620   42.7710 C   0  0  0  0  0  0  0  0  0  0  0  0
   39.7500   29.8590   43.0330 H   0  0  0  0  0  0  0  0  0  0  0  0
   39.8880   27.8220   43.1620 C   0  0  0  0  0  3  0  0  0  0  0  0
   39.2840   26.6010   42.8650 C   0  0  0  0  0  0  0  0  0  0  0  0
   39.8400   25.4260   43.2030 N   0  0  0  0  0  0  0  0  0  0  0  0
   39.2640   24.2460   42.9200 C   0  0  0  0  0  0  0  0  0  0  0  0
   39.8220   23.3900   43.2500 H   0  0  0  0  0  0  0  0  0  0  0  0
   38.0420   24.1820   42.2520 C   0  0  0  0  0  3  0  0  0  0  0  0
   37.4790   25.3940   41.9090 C   0  0  0  0  0  3  0  0  0  0  0  0
   38.0820   26.5940   42.2070 C   0  0  0  0  0  0  0  0  0  0  0  0
   37.4980   27.7810   41.8520 C   0  0  0  0  0  3  0  0  0  0  0  0
  1  2  1  6  0  0  0
  1  6  1  0  0  0  0
  2  3  1  0  0  0  0
  3  4  1  0  0  0  0
  3 10  1  0  0  0  0
  4 11  1  0  0  0  0
  5  6  1  0  0  0  0
  5  4  1  0  0  0  0
  5 14  1  0  0  0  0
  6 15  1  6  0  0  0
  6 32  1  0  0  0  0
  7  2  1  0  0  0  0
  8  2  1  0  0  0  0
  9  3  1  0  0  0  0
 12  4  1  0  0  0  0
 13  5  1  0  0  0  0
 16 17  1  0  0  0  0
 16 19  1  1  0  0  0
 16 18  1  0  0  0  0
 17 20  1  0  0  0  0
 17 18  1  0  0  0  0
 18 22  1  1  0  0  0
 18  1  1  0  0  0  0
 21 17  1  0  0  0  0
 23 29  1  0  0  0  0
 24 23  1  0  0  0  0
 24 16  1  0  0  0  0
 25 24  2  0  0  0  0
 26 27  2  0  0  0  0
 26 25  1  0  0  0  0
 27 28  1  0  0  0  0
 28 23  2  0  0  0  0
 30 25  1  0  0  0  0
 31 27  1  0  0  0  0
 32 34  1  0  0  0  0
 32 33  1  0  0  0  0
 34 35  1  0  0  0  0
 35 36  1  0  0  0  0
 35 37  2  0  0  0  0
 38 37  1  0  0  0  0
 38 39  1  0  0  0  0
 40 39  2  0  0  0  0
 40 41  1  0  0  0  0
 42 40  1  0  0  0  0
 43 44  1  0  0  0  0
 43 42  2  0  0  0  0
 44 38  2  0  0  0  0
 45 34  2  0  0  0  0
 45 44  1  0  0  0  0
M  END
>  <minimizedAffinity>
-5.58781624

$$$$

 OpenBabel03252506483D

 45 49  0  0  1  0  0  0  0  0999 V2000
   37.2090   29.7320   40.5130 N   0  0  1  0  0  0  0  0  0  0  0  0
   37.2620   31.0880   40.9970 C   0  0  0  0  0  0  0  0  0  0  0  0
   37.0120   32.1080   39.9220 C   0  0  0  0  0  0  0  0  0  0  0  0
   38.1760   32.0770   38.9560 C   0  0  0  0  0  0  0  0  0  0  0  0
   38.6720   30.6630   38.7590 C   0  0  0  0  0  0  0  0  0  0  0  0
   37.5540   29.6920   39.1130 C   0  0  2  0  0  0  0  0  0  0  0  0
   38.2640   31.3070   41.4420 H   0  0  0  0  0  0  0  0  0  0  0  0
   36.5070   31.2360   41.7760 H   0  0  0  0  0  0  0  0  0  0  0  0
   37.0700   33.1010   40.4380 H   0  0  0  0  0  0  0  0  0  0  0  0
   36.0270   31.9990   39.4500 H   0  0  0  0  0  0  0  0  0  0  0  0
   37.7690   32.3930   37.9710 H   0  0  0  0  0  0  0  0  0  0  0  0
   38.9820   32.7820   39.2260 H   0  0  0  0  0  0  0  0  0  0  0  0
   39.5250   30.5220   39.4400 H   0  0  0  0  0  0  0  0  0  0  0  0
   38.9530   30.4500   37.7160 H   0  0  0  0  0  0  0  0  0  0  0  0
   37.9790   28.6870   38.9090 H   0  0  0  0  0  0  0  0  0  0  0  0
   37.5060   27.9330   42.3460 C   0  0  1  0  0  0  0  0  0  0  0  0
   37.9300   29.2400   42.8290 C   0  0  0  0  0  0  0  0  0  0  0  0
   38.0420   28.9510   41.3660 C   0  0  2  0  0  0  0  0  0  0  0  0
   36.4370   27.6720   42.0910 H   0  0  0  0  0  0  0  0  0  0  0  0
   37.1190   29.9260   43.1990 H   0  0  0  0  0  0  0  0  0  0  0  0
   38.8120   29.2720   43.4900 H   0  0  0  0  0  0  0  0  0  0  0  0
   39.0780   28.7550   41.0110 H   0  0  0  0  0  0  0  0  0  0  0  0
   39.4810   26.7950   43.4010 C   0  0  0  0  0  0  0  0  0  0  0  0
   38.2960   26.7220   42.6320 C   0  0  0  0  0  0  0  0  0  0  0  0
   37.8990   25.4750   42.1620 C   0  0  0  0  0  0  0  0  0  0  0  0
   38.6670   24.3960   42.4660 N   0  0  0  0  0  0  0  0  0  0  0  0
   39.7850   24.4810   43.1960 C   0  0  0  0  0  0  0  0  0  0  0  0
   40.2070   25.6920   43.6750 N   0  0  0  0  0  0  0  0  0  0  0  0
   39.7560   27.7810   43.7480 H   0  0  0  0  0  0  0  0  0  0  0  0
   36.9990   25.3520   41.5640 H   0  0  0  0  0  0  0  0  0  0  0  0
   40.3930   23.6180   43.4360 H   0  0  0  0  0  0  0  0  0  0  0  0
   36.4590   29.8850   38.2160 N   0  0  0  0  0  0  0  0  0  0  0  0
   36.2970   30.8630   37.8380 H   0  0  0  0  0  0  0  0  0  0  0  0
   35.5490   28.9180   37.7610 C   0  0  0  0  0  0  0  0  0  0  0  0
   34.3910   29.1740   37.0780 C   0  0  0  0  0  0  0  0  0  0  0  0
   34.1230   30.1820   36.8470 H   0  0  0  0  0  0  0  0  0  0  0  0
   33.4820   28.2510   36.6270 C   0  0  0  0  0  3  0  0  0  0  0  0
   33.7530   26.9080   36.8820 C   0  0  0  0  0  0  0  0  0  0  0  0
   32.9300   25.9230   36.4830 N   0  0  0  0  0  0  0  0  0  0  0  0
   33.1840   24.6260   36.7250 C   0  0  0  0  0  0  0  0  0  0  0  0
   32.4380   23.9520   36.3480 H   0  0  0  0  0  0  0  0  0  0  0  0
   34.3320   24.2330   37.4120 C   0  0  0  0  0  3  0  0  0  0  0  0
   35.1700   25.2510   37.8160 C   0  0  0  0  0  3  0  0  0  0  0  0
   34.8950   26.5740   37.5600 C   0  0  0  0  0  0  0  0  0  0  0  0
   35.7480   27.5610   37.9760 C   0  0  0  0  0  3  0  0  0  0  0  0
  1  2  1  1  0  0  0
  1 18  1  0  0  0  0
  2  7  1  0  0  0  0
  2  8  1  0  0  0  0
  3  9  1  0  0  0  0
  3  2  1  0  0  0  0
  4 12  1  0  0  0  0
  4  3  1  0  0  0  0
  5  4  1  0  0  0  0
  5  6  1  0  0  0  0
  5 13  1  0  0  0  0
  6 15  1  6  0  0  0
  6  1  1  0  0  0  0
 10  3  1  0  0  0  0
 11  4  1  0  0  0  0
 14  5  1  0  0  0  0
 16 19  1  6  0  0  0
 16 24  1  0  0  0  0
 16 17  1  0  0  0  0
 17 20  1  0  0  0  0
 17 21  1  0  0  0  0
 18 22  1  6  0  0  0
 18 16  1  0  0  0  0
 18 17  1  0  0  0  0
 23 28  1  0  0  0  0
 23 29  1  0  0  0  0
 24 23  2  0  0  0  0
 25 26  2  0  0  0  0
 25 24  1  0  0  0  0
 26 27  1  0  0  0  0
 27 31  1  0  0  0  0
 27 28  2  0  0  0  0
 30 25  1  0  0  0  0
 32  6  1  0  0  0  0
 33 32  1  0  0  0  0
 34 45  1  0  0  0  0
 34 32  1  0  0  0  0
 35 34  2  0  0  0  0
 36 35  1  0  0  0  0
 37 38  2  0  0  0  0
 37 35  1  0  0  0  0
 38 44  1  0  0  0  0
 39 40  2  0  0  0  0
 39 38  1  0  0  0  0
 40 42  1  0  0  0  0
 41 40  1  0  0  0  0
 42 43  2  0  0  0  0
 44 43  1  0  0  0  0
 44 45  2  0  0  0  0
M  END
>  <minimizedAffinity>
-5.54678631

$$$$
