
 OpenBabel03252504513D

 37 40  0  0  0  0  0  0  0  0999 V2000
   46.9850   34.4490   42.7810 C   0  0  0  0  0  0  0  0  0  0  0  0
   48.0210   33.8590   42.0400 C   0  0  0  0  0  0  0  0  0  0  0  0
   48.5800   32.6970   42.5520 C   0  0  0  0  0  0  0  0  0  0  0  0
   48.0860   32.2180   43.7290 N   0  0  0  0  0  0  0  0  0  0  0  0
   47.1010   32.7990   44.4120 C   0  0  0  0  0  0  0  0  0  0  0  0
   46.5340   33.9340   43.9400 N   0  0  0  0  0  0  0  0  0  0  0  0
   46.4790   35.3490   42.4820 H   0  0  0  0  0  0  0  0  0  0  0  0
   49.3750   32.2140   42.0170 H   0  0  0  0  0  0  0  0  0  0  0  0
   45.5170   30.2040   44.1240 Cl  0  0  0  0  0  0  0  0  0  0  0  0
   45.8990   31.0450   45.6360 C   0  0  0  0  0  0  0  0  0  0  0  0
   46.6290   32.2260   45.6630 C   0  0  0  0  0  0  0  0  0  0  0  0
   46.9070   32.8510   46.8520 C   0  0  0  0  0  0  0  0  0  0  0  0
   46.4510   32.2910   48.0370 C   0  0  0  0  0  0  0  0  0  0  0  0
   45.7300   31.1190   47.9690 C   0  0  0  0  0  0  0  0  0  0  0  0
   45.1760   30.4540   49.4890 Cl  0  0  0  0  0  0  0  0  0  0  0  0
   45.4310   30.4630   46.7990 C   0  0  0  0  0  0  0  0  0  0  0  0
   47.4790   33.7760   46.8830 H   0  0  0  0  0  0  0  0  0  0  0  0
   46.6630   32.7750   48.9820 H   0  0  0  0  0  0  0  0  0  0  0  0
   44.8590   29.5460   46.8350 H   0  0  0  0  0  0  0  0  0  0  0  0
   48.4300   34.4910   40.8120 C   0  0  0  0  0  0  0  0  0  0  0  0
   49.4450   34.1460   40.5310 H   0  0  0  0  0  0  0  0  0  0  0  0
   48.5040   35.5860   40.9240 H   0  0  0  0  0  0  0  0  0  0  0  0
   47.4070   34.2300   39.7440 C   0  0  0  0  0  0  0  0  0  0  0  0
   46.5950   33.6270   40.2390 H   0  0  0  0  0  0  0  0  0  0  0  0
   46.9070   35.2070   39.5180 H   0  0  0  0  0  0  0  0  0  0  0  0
   47.9220   33.5680   38.5420 C   0  0  0  0  0  0  0  0  0  0  0  0
   47.3560   33.6820   37.2870 C   0  0  0  0  0  0  0  0  0  0  0  0
   46.4740   34.2970   37.1630 H   0  0  0  0  0  0  0  0  0  0  0  0
   47.9610   32.9940   36.2430 C   0  0  0  0  0  3  0  0  0  0  0  0
   49.1020   32.2130   36.4580 C   0  0  0  0  0  0  0  0  0  0  0  0
   49.6840   31.5460   35.4450 N   0  0  0  0  0  0  0  0  0  0  0  0
   50.7820   30.7870   35.6200 C   0  0  0  0  0  0  0  0  0  0  0  0
   51.2920   30.2340   34.8640 H   0  0  0  0  0  0  0  0  0  0  0  0
   51.3360   30.6810   36.8730 C   0  0  0  0  0  3  0  0  0  0  0  0
   50.7870   31.3400   37.9600 C   0  0  0  0  0  3  0  0  0  0  0  0
   49.6500   32.1110   37.7160 C   0  0  0  0  0  0  0  0  0  0  0  0
   49.0590   32.7930   38.7710 C   0  0  0  0  0  3  0  0  0  0  0  0
  1  6  1  0  0  0  0
  2  3  1  0  0  0  0
  2  1  2  0  0  0  0
  3  4  2  0  0  0  0
  4  5  1  0  0  0  0
  5 11  1  0  0  0  0
  6  5  2  0  0  0  0
  7  1  1  0  0  0  0
  8  3  1  0  0  0  0
  9 10  1  0  0  0  0
 10 11  2  0  0  0  0
 10 16  1  0  0  0  0
 11 12  1  0  0  0  0
 12 17  1  0  0  0  0
 12 13  2  0  0  0  0
 13 18  1  0  0  0  0
 14 13  1  0  0  0  0
 14 15  1  0  0  0  0
 16 19  1  0  0  0  0
 16 14  2  0  0  0  0
 20 22  1  0  0  0  0
 20  2  1  0  0  0  0
 21 20  1  0  0  0  0
 23 24  1  0  0  0  0
 23 20  1  0  0  0  0
 25 23  1  0  0  0  0
 26 37  1  0  0  0  0
 26 23  1  0  0  0  0
 27 26  2  0  0  0  0
 28 27  1  0  0  0  0
 29 30  2  0  0  0  0
 29 27  1  0  0  0  0
 30 36  1  0  0  0  0
 31 32  2  0  0  0  0
 31 30  1  0  0  0  0
 32 34  1  0  0  0  0
 33 32  1  0  0  0  0
 34 35  2  0  0  0  0
 36 35  1  0  0  0  0
 36 37  2  0  0  0  0
M  END
>  <minimizedAffinity>
-5.31821156

>  <minimizedRMSD>
2.14026594

$$$$
