
 OpenBabel03252506463D

 45 49  0  0  1  0  0  0  0  0999 V2000
   49.4490   33.3680   41.4080 N   0  0  1  0  0  0  0  0  0  0  0  0
   50.7070   33.1000   42.0570 C   0  0  0  0  0  0  0  0  0  0  0  0
   51.3070   31.7810   41.6620 C   0  0  0  0  0  0  0  0  0  0  0  0
   50.4320   30.6750   42.2110 C   0  0  0  0  0  0  0  0  0  0  0  0
   48.9720   31.0600   42.1370 C   0  0  0  0  0  0  0  0  0  0  0  0
   48.7940   32.1280   41.0670 C   0  0  2  0  0  0  0  0  0  0  0  0
   50.5800   33.0930   43.1690 H   0  0  0  0  0  0  0  0  0  0  0  0
   51.4310   33.8830   41.8060 H   0  0  0  0  0  0  0  0  0  0  0  0
   52.2730   31.7140   42.2260 H   0  0  0  0  0  0  0  0  0  0  0  0
   51.5070   31.7080   40.5850 H   0  0  0  0  0  0  0  0  0  0  0  0
   50.5510   29.8140   41.5190 H   0  0  0  0  0  0  0  0  0  0  0  0
   50.7380   30.3400   43.2180 H   0  0  0  0  0  0  0  0  0  0  0  0
   48.6940   31.4630   43.1230 H   0  0  0  0  0  0  0  0  0  0  0  0
   48.3220   30.2190   41.8520 H   0  0  0  0  0  0  0  0  0  0  0  0
   47.7030   32.3280   41.0470 H   0  0  0  0  0  0  0  0  0  0  0  0
   47.2950   34.6770   41.9790 C   0  0  1  0  0  0  0  0  0  0  0  0
   48.4030   35.5880   41.7270 C   0  0  0  0  0  0  0  0  0  0  0  0
   48.7080   34.2280   42.2690 C   0  0  2  0  0  0  0  0  0  0  0  0
   46.8300   34.0170   41.1890 H   0  0  0  0  0  0  0  0  0  0  0  0
   48.6280   35.8190   40.6500 H   0  0  0  0  0  0  0  0  0  0  0  0
   48.4620   36.4960   42.3510 H   0  0  0  0  0  0  0  0  0  0  0  0
   48.9780   34.2100   43.3480 H   0  0  0  0  0  0  0  0  0  0  0  0
   45.5440   36.0530   43.1410 C   0  0  0  0  0  0  0  0  0  0  0  0
   46.3640   34.9000   43.0990 C   0  0  0  0  0  0  0  0  0  0  0  0
   46.2580   33.9860   44.1420 C   0  0  0  0  0  0  0  0  0  0  0  0
   45.3760   34.2470   45.1430 N   0  0  0  0  0  0  0  0  0  0  0  0
   44.6060   35.3410   45.1670 C   0  0  0  0  0  0  0  0  0  0  0  0
   44.6830   36.2630   44.1580 N   0  0  0  0  0  0  0  0  0  0  0  0
   45.6550   36.7380   42.3130 H   0  0  0  0  0  0  0  0  0  0  0  0
   46.8610   33.0820   44.1700 H   0  0  0  0  0  0  0  0  0  0  0  0
   43.9050   35.5440   45.9670 H   0  0  0  0  0  0  0  0  0  0  0  0
   49.1530   31.5860   39.7950 N   0  0  0  0  0  0  0  0  0  0  0  0
   50.0930   31.1000   39.7120 H   0  0  0  0  0  0  0  0  0  0  0  0
   48.3990   31.6170   38.6120 C   0  0  0  0  0  0  0  0  0  0  0  0
   47.0630   31.3400   38.5130 C   0  0  0  0  0  0  0  0  0  0  0  0
   46.5080   31.0830   39.3880 H   0  0  0  0  0  0  0  0  0  0  0  0
   46.3030   31.3570   37.3710 C   0  0  0  0  0  3  0  0  0  0  0  0
   46.9440   31.6880   36.1780 C   0  0  0  0  0  0  0  0  0  0  0  0
   46.2940   31.7350   35.0040 N   0  0  0  0  0  0  0  0  0  0  0  0
   46.9060   32.0540   33.8500 C   0  0  0  0  0  0  0  0  0  0  0  0
   46.2620   32.0500   32.9920 H   0  0  0  0  0  0  0  0  0  0  0  0
   48.2670   32.3560   33.8170 C   0  0  0  0  0  3  0  0  0  0  0  0
   48.9240   32.3060   35.0280 C   0  0  0  0  0  3  0  0  0  0  0  0
   48.2840   31.9780   36.2000 C   0  0  0  0  0  0  0  0  0  0  0  0
   48.9650   31.9370   37.3850 C   0  0  0  0  0  3  0  0  0  0  0  0
  1  2  1  1  0  0  0
  1 18  1  0  0  0  0
  2  7  1  0  0  0  0
  3  2  1  0  0  0  0
  3  4  1  0  0  0  0
  3  9  1  0  0  0  0
  4 12  1  0  0  0  0
  5  4  1  0  0  0  0
  5 13  1  0  0  0  0
  6 15  1  6  0  0  0
  6  1  1  0  0  0  0
  6  5  1  0  0  0  0
  8  2  1  0  0  0  0
 10  3  1  0  0  0  0
 11  4  1  0  0  0  0
 14  5  1  0  0  0  0
 16 19  1  6  0  0  0
 16 18  1  0  0  0  0
 16 24  1  0  0  0  0
 17 16  1  0  0  0  0
 17 18  1  0  0  0  0
 17 21  1  0  0  0  0
 18 22  1  1  0  0  0
 20 17  1  0  0  0  0
 23 28  1  0  0  0  0
 24 23  2  0  0  0  0
 24 25  1  0  0  0  0
 25 30  1  0  0  0  0
 25 26  2  0  0  0  0
 26 27  1  0  0  0  0
 27 31  1  0  0  0  0
 28 27  2  0  0  0  0
 29 23  1  0  0  0  0
 32  6  1  0  0  0  0
 33 32  1  0  0  0  0
 34 32  1  0  0  0  0
 35 34  1  0  0  0  0
 35 36  1  0  0  0  0
 37 35  2  0  0  0  0
 38 44  1  0  0  0  0
 38 37  1  0  0  0  0
 39 38  2  0  0  0  0
 40 39  1  0  0  0  0
 41 40  1  0  0  0  0
 42 40  2  0  0  0  0
 42 43  1  0  0  0  0
 43 44  2  0  0  0  0
 44 45  1  0  0  0  0
 45 34  2  0  0  0  0
M  END
>  <minimizedAffinity>
-5.59650183

>  <minimizedRMSD>
1.14075291

$$$$
