
 OpenBabel03252502213D

 36 39  0  0  1  0  0  0  0  0999 V2000
   46.6200   34.4130   42.3220 N   0  0  0  0  0  0  0  0  0  0  0  0
   47.9810   33.9350   42.3750 C   0  0  0  0  0  0  0  0  0  0  0  0
   48.6800   34.6520   41.2010 C   0  0  0  0  0  0  0  0  0  0  0  0
   48.0950   34.2420   39.8920 C   0  0  0  0  0  0  0  0  0  0  0  0
   46.6360   33.9750   39.9180 C   0  0  0  0  0  0  0  0  0  0  0  0
   45.9140   34.6000   41.0800 C   0  0  1  0  0  0  0  0  0  0  0  0
   47.9820   32.8450   42.1510 H   0  0  0  0  0  0  0  0  0  0  0  0
   48.5160   34.2130   43.2840 H   0  0  0  0  0  0  0  0  0  0  0  0
   49.7620   34.3860   41.2090 H   0  0  0  0  0  0  0  0  0  0  0  0
   48.5700   35.7340   41.4160 H   0  0  0  0  0  0  0  0  0  0  0  0
   48.6300   33.3560   39.4680 H   0  0  0  0  0  0  0  0  0  0  0  0
   48.2650   35.0820   39.1690 H   0  0  0  0  0  0  0  0  0  0  0  0
   46.1270   34.2310   38.9870 H   0  0  0  0  0  0  0  0  0  0  0  0
   46.5040   32.8620   40.0540 H   0  0  0  0  0  0  0  0  0  0  0  0
   45.8690   35.6950   40.9000 H   0  0  0  0  0  0  0  0  0  0  0  0
   44.5250   34.0860   41.1300 C   0  0  0  0  0  0  0  0  0  0  0  0
   44.1530   32.8210   41.5360 C   0  0  0  0  0  0  0  0  0  0  0  0
   44.9460   32.1480   41.8440 H   0  0  0  0  0  0  0  0  0  0  0  0
   42.8180   32.4510   41.5390 C   0  0  0  0  0  0  0  0  0  0  0  0
   41.8520   33.3520   41.1350 C   0  0  0  0  0  0  0  0  0  0  0  0
   40.5640   32.9560   41.1530 N   0  0  0  0  0  0  0  0  0  0  0  0
   39.5980   33.8340   40.7560 C   0  0  0  0  0  0  0  0  0  0  0  0
   38.5210   33.6200   40.7310 H   0  0  0  0  0  0  0  0  0  0  0  0
   39.9250   35.1090   40.3420 C   0  0  0  0  0  0  0  0  0  0  0  0
   41.2340   35.5490   40.3120 C   0  0  0  0  0  0  0  0  0  0  0  0
   42.1750   34.6360   40.7180 C   0  0  0  0  0  0  0  0  0  0  0  0
   43.5130   34.9650   40.7290 C   0  0  0  0  0  0  0  0  0  0  0  0
   44.4920   36.1510   44.8680 C   0  0  0  0  0  0  0  0  0  0  0  0
   45.1630   35.9190   43.6620 C   0  0  0  0  0  0  0  0  0  0  0  0
   45.9090   34.7260   43.5140 C   0  0  0  0  0  0  0  0  0  0  0  0
   45.9170   33.8800   44.5770 N   0  0  0  0  0  0  0  0  0  0  0  0
   45.2590   34.1330   45.7300 C   0  0  0  0  0  0  0  0  0  0  0  0
   44.5460   35.2750   45.8670 N   0  0  0  0  0  0  0  0  0  0  0  0
   43.9810   37.0950   44.8040 H   0  0  0  0  0  0  0  0  0  0  0  0
   45.2030   36.5330   42.7880 H   0  0  0  0  0  0  0  0  0  0  0  0
   45.2760   33.4490   46.5640 H   0  0  0  0  0  0  0  0  0  0  0  0
  1  2  1  0  0  0  0
  1 30  1  0  0  0  0
  2  8  1  0  0  0  0
  3  9  1  0  0  0  0
  3 10  1  0  0  0  0
  3  2  1  0  0  0  0
  4  5  1  0  0  0  0
  4  3  1  0  0  0  0
  5 14  1  0  0  0  0
  5  6  1  0  0  0  0
  6 15  1  6  0  0  0
  6 16  1  0  0  0  0
  6  1  1  0  0  0  0
  7  2  1  0  0  0  0
 11  4  1  0  0  0  0
 12  4  1  0  0  0  0
 13  5  1  0  0  0  0
 16 17  1  0  0  0  0
 17 19  2  0  0  0  0
 17 18  1  0  0  0  0
 20 21  1  0  0  0  0
 20 19  1  0  0  0  0
 22 21  2  0  0  0  0
 23 22  1  0  0  0  0
 24 22  1  0  0  0  0
 25 24  2  0  0  0  0
 25 26  1  0  0  0  0
 26 27  1  0  0  0  0
 26 20  2  0  0  0  0
 27 16  2  0  0  0  0
 28 33  1  0  0  0  0
 29 28  2  0  0  0  0
 30 29  1  0  0  0  0
 30 31  2  0  0  0  0
 31 32  1  0  0  0  0
 32 33  2  0  0  0  0
 32 36  1  0  0  0  0
 34 28  1  0  0  0  0
 35 29  1  0  0  0  0
M  END
>  <minimizedAffinity>
-6.57986593

>  <minimizedRMSD>
2.01556444

$$$$
