
 OpenBabel03242518563D

 45 48  0  0  1  0  0  0  0  0999 V2000
   35.6230   27.1770   37.5280 C   0  0  2  0  0  0  0  0  0  0  0  0
   35.5700   27.3250   36.0390 C   0  0  0  0  0  0  0  0  0  0  0  0
   34.1920   27.7510   35.6840 C   0  0  0  0  0  0  0  0  0  0  0  0
   33.2210   27.8090   36.8190 C   0  0  0  0  0  0  0  0  0  0  0  0
   33.7430   28.6910   37.9250 C   0  0  0  0  0  0  0  0  0  0  0  0
   35.1610   28.4700   38.1670 C   0  0  2  0  0  0  0  0  0  0  0  0
   34.8600   26.4340   37.8400 H   0  0  0  0  0  0  0  0  0  0  0  0
   35.7990   26.2900   35.6390 H   0  0  0  0  0  0  0  0  0  0  0  0
   36.3890   27.9420   35.6250 H   0  0  0  0  0  0  0  0  0  0  0  0
   33.7670   26.9790   34.9740 H   0  0  0  0  0  0  0  0  0  0  0  0
   34.1230   28.6920   35.0830 H   0  0  0  0  0  0  0  0  0  0  0  0
   32.9160   26.8190   37.2000 H   0  0  0  0  0  0  0  0  0  0  0  0
   32.2870   28.2540   36.3960 H   0  0  0  0  0  0  0  0  0  0  0  0
   33.3720   29.7090   37.7600 H   0  0  0  0  0  0  0  0  0  0  0  0
   33.1790   28.3500   38.8550 H   0  0  0  0  0  0  0  0  0  0  0  0
   35.4220   28.4270   39.2450 H   0  0  0  0  0  0  0  0  0  0  0  0
   35.8860   29.6230   37.5710 C   0  0  0  0  0  0  0  0  0  0  0  0
   35.2520   30.2810   36.9420 H   0  0  0  0  0  0  0  0  0  0  0  0
   36.6740   29.2030   36.8920 H   0  0  0  0  0  0  0  0  0  0  0  0
   36.5850   30.4590   38.5660 C   0  0  0  0  0  0  0  0  0  0  0  0
   36.2630   30.7170   39.8680 C   0  0  0  0  0  0  0  0  0  0  0  0
   35.3650   30.2940   40.2510 H   0  0  0  0  0  0  0  0  0  0  0  0
   37.0340   31.5060   40.6810 C   0  0  0  0  0  3  0  0  0  0  0  0
   38.1980   32.0990   40.2350 C   0  0  0  0  0  0  0  0  0  0  0  0
   38.9490   32.8650   41.0240 N   0  0  0  0  0  0  0  0  0  0  0  0
   40.0680   33.4200   40.5500 C   0  0  0  0  0  0  0  0  0  0  0  0
   40.7390   34.0640   41.1370 H   0  0  0  0  0  0  0  0  0  0  0  0
   40.4960   33.2320   39.2490 C   0  0  0  0  0  3  0  0  0  0  0  0
   39.7190   32.4390   38.4360 C   0  0  0  0  0  3  0  0  0  0  0  0
   38.5800   31.8790   38.9290 C   0  0  0  0  0  0  0  0  0  0  0  0
   37.7720   31.0780   38.1520 C   0  0  0  0  0  3  0  0  0  0  0  0
   36.9250   26.7030   38.0500 C   0  0  0  0  0  0  0  0  0  0  0  0
   37.9840   26.7500   37.3800 O   0  0  0  0  0  0  0  0  0  0  0  0
   36.8130   24.3560   40.8440 C   0  0  0  0  0  0  0  0  0  0  0  0
   36.9440   25.1720   41.9940 C   0  0  0  0  0  0  0  0  0  0  0  0
   37.0740   26.5300   41.7700 C   0  0  0  0  0  0  0  0  0  0  0  0
   37.0580   26.8980   40.4870 N   0  0  0  0  0  0  0  0  0  0  0  0
   36.9380   26.1580   39.4150 C   0  0  0  0  0  0  0  0  0  0  0  0
   36.8110   24.8350   39.6060 N   0  0  0  0  0  0  0  0  0  0  0  0
   36.7070   23.2690   40.9970 H   0  0  0  0  0  0  0  0  0  0  0  0
   36.9440   24.7730   42.9980 H   0  0  0  0  0  0  0  0  0  0  0  0
   37.2030   27.3990   42.9430 C   0  0  0  0  0  0  0  0  0  0  0  0
   38.3070   27.0440   43.6770 F   0  0  0  0  0  0  0  0  0  0  0  0
   36.0770   27.2180   43.6780 F   0  0  0  0  0  0  0  0  0  0  0  0
   37.3870   28.7260   42.5710 F   0  0  0  0  0  0  0  0  0  0  0  0
  1  7  1  1  0  0  0
  1 32  1  0  0  0  0
  1  6  1  0  0  0  0
  2  1  1  0  0  0  0
  3  2  1  0  0  0  0
  3  4  1  0  0  0  0
  4 12  1  0  0  0  0
  4  5  1  0  0  0  0
  5  6  1  0  0  0  0
  5 15  1  0  0  0  0
  6 16  1  1  0  0  0
  8  2  1  0  0  0  0
  9  2  1  0  0  0  0
 10  3  1  0  0  0  0
 11  3  1  0  0  0  0
 13  4  1  0  0  0  0
 14  5  1  0  0  0  0
 17  6  1  0  0  0  0
 17 20  1  0  0  0  0
 18 17  1  0  0  0  0
 19 17  1  0  0  0  0
 20 21  1  0  0  0  0
 21 22  1  0  0  0  0
 21 23  2  0  0  0  0
 24 23  1  0  0  0  0
 24 25  1  0  0  0  0
 26 25  2  0  0  0  0
 26 27  1  0  0  0  0
 28 26  1  0  0  0  0
 29 30  1  0  0  0  0
 29 28  2  0  0  0  0
 30 24  2  0  0  0  0
 31 20  2  0  0  0  0
 31 30  1  0  0  0  0
 32 38  1  0  0  0  0
 33 32  2  0  0  0  0
 34 40  1  0  0  0  0
 34 35  1  0  0  0  0
 35 41  1  0  0  0  0
 36 35  2  0  0  0  0
 36 42  1  0  0  0  0
 37 36  1  0  0  0  0
 38 39  1  0  0  0  0
 38 37  2  0  0  0  0
 39 34  2  0  0  0  0
 42 43  1  0  0  0  0
 42 44  1  0  0  0  0
 45 42  1  0  0  0  0
M  END
>  <minimizedAffinity>
-6.4078331

$$$$

 OpenBabel03242518563D

 45 48  0  0  1  0  0  0  0  0999 V2000
   39.2910   31.9560   40.0570 C   0  0  2  0  0  0  0  0  0  0  0  0
   38.5660   33.1530   40.5900 C   0  0  0  0  0  0  0  0  0  0  0  0
   37.3980   33.3940   39.7060 C   0  0  0  0  0  0  0  0  0  0  0  0
   37.3040   32.5090   38.5040 C   0  0  0  0  0  0  0  0  0  0  0  0
   37.3300   31.0550   38.9060 C   0  0  0  0  0  0  0  0  0  0  0  0
   38.3180   30.8010   39.9450 C   0  0  2  0  0  0  0  0  0  0  0  0
   39.5930   32.1580   39.0090 H   0  0  0  0  0  0  0  0  0  0  0  0
   39.3180   33.9980   40.5210 H   0  0  0  0  0  0  0  0  0  0  0  0
   38.3500   33.0950   41.6730 H   0  0  0  0  0  0  0  0  0  0  0  0
   37.4930   34.4420   39.2910 H   0  0  0  0  0  0  0  0  0  0  0  0
   36.4070   33.4290   40.2230 H   0  0  0  0  0  0  0  0  0  0  0  0
   38.0550   32.7260   37.7250 H   0  0  0  0  0  0  0  0  0  0  0  0
   36.3200   32.7470   38.0290 H   0  0  0  0  0  0  0  0  0  0  0  0
   36.2970   30.7160   39.0440 H   0  0  0  0  0  0  0  0  0  0  0  0
   37.6680   30.5040   37.9690 H   0  0  0  0  0  0  0  0  0  0  0  0
   38.9080   29.8770   39.7740 H   0  0  0  0  0  0  0  0  0  0  0  0
   37.5710   30.6350   41.2200 C   0  0  0  0  0  0  0  0  0  0  0  0
   36.5570   31.0820   41.2130 H   0  0  0  0  0  0  0  0  0  0  0  0
   38.1500   31.1760   42.0140 H   0  0  0  0  0  0  0  0  0  0  0  0
   37.4610   29.2300   41.6590 C   0  0  0  0  0  0  0  0  0  0  0  0
   37.5660   28.6970   42.9130 C   0  0  0  0  0  0  0  0  0  0  0  0
   37.7880   29.3590   43.7160 H   0  0  0  0  0  0  0  0  0  0  0  0
   37.4160   27.3600   43.1650 C   0  0  0  0  0  3  0  0  0  0  0  0
   37.1470   26.4500   42.1620 C   0  0  0  0  0  0  0  0  0  0  0  0
   37.0010   25.1490   42.4050 N   0  0  0  0  0  0  0  0  0  0  0  0
   36.7430   24.3050   41.4040 C   0  0  0  0  0  0  0  0  0  0  0  0
   36.6090   23.2200   41.5240 H   0  0  0  0  0  0  0  0  0  0  0  0
   36.6160   24.7260   40.0930 C   0  0  0  0  0  3  0  0  0  0  0  0
   36.7670   26.0710   39.8430 C   0  0  0  0  0  3  0  0  0  0  0  0
   37.0300   26.9220   40.8720 C   0  0  0  0  0  0  0  0  0  0  0  0
   37.1890   28.2760   40.6690 C   0  0  0  0  0  3  0  0  0  0  0  0
   40.5240   31.6060   40.8000 C   0  0  0  0  0  0  0  0  0  0  0  0
   40.5460   30.7460   41.7140 O   0  0  0  0  0  0  0  0  0  0  0  0
   43.3570   33.9050   40.8880 C   0  0  0  0  0  0  0  0  0  0  0  0
   44.0520   33.6530   39.6810 C   0  0  0  0  0  0  0  0  0  0  0  0
   43.5190   32.6770   38.8590 C   0  0  0  0  0  0  0  0  0  0  0  0
   42.4070   32.0970   39.3160 N   0  0  0  0  0  0  0  0  0  0  0  0
   41.7540   32.3190   40.4270 C   0  0  0  0  0  0  0  0  0  0  0  0
   42.2520   33.2610   41.2430 N   0  0  0  0  0  0  0  0  0  0  0  0
   43.7640   34.6800   41.5610 H   0  0  0  0  0  0  0  0  0  0  0  0
   44.9520   34.1830   39.4010 H   0  0  0  0  0  0  0  0  0  0  0  0
   44.2140   32.4010   37.5990 C   0  0  0  0  0  0  0  0  0  0  0  0
   43.3270   31.9370   36.6600 F   0  0  0  0  0  0  0  0  0  0  0  0
   45.1410   31.4480   37.8750 F   0  0  0  0  0  0  0  0  0  0  0  0
   44.7800   33.5550   37.0700 F   0  0  0  0  0  0  0  0  0  0  0  0
  1  7  1  6  0  0  0
  1  2  1  0  0  0  0
  1 32  1  0  0  0  0
  2  9  1  0  0  0  0
  3 11  1  0  0  0  0
  3  2  1  0  0  0  0
  4  5  1  0  0  0  0
  4  3  1  0  0  0  0
  5 14  1  0  0  0  0
  5  6  1  0  0  0  0
  6 16  1  6  0  0  0
  6  1  1  0  0  0  0
  6 17  1  0  0  0  0
  8  2  1  0  0  0  0
 10  3  1  0  0  0  0
 12  4  1  0  0  0  0
 13  4  1  0  0  0  0
 15  5  1  0  0  0  0
 17 20  1  0  0  0  0
 17 19  1  0  0  0  0
 18 17  1  0  0  0  0
 20 21  1  0  0  0  0
 21 23  2  0  0  0  0
 21 22  1  0  0  0  0
 24 25  1  0  0  0  0
 24 23  1  0  0  0  0
 26 27  1  0  0  0  0
 26 25  2  0  0  0  0
 28 26  1  0  0  0  0
 29 28  2  0  0  0  0
 29 30  1  0  0  0  0
 30 24  2  0  0  0  0
 31 30  1  0  0  0  0
 31 20  2  0  0  0  0
 32 33  2  0  0  0  0
 34 39  1  0  0  0  0
 34 40  1  0  0  0  0
 35 34  2  0  0  0  0
 36 37  2  0  0  0  0
 36 35  1  0  0  0  0
 37 38  1  0  0  0  0
 38 32  1  0  0  0  0
 38 39  2  0  0  0  0
 41 35  1  0  0  0  0
 42 44  1  0  0  0  0
 42 36  1  0  0  0  0
 43 42  1  0  0  0  0
 45 42  1  0  0  0  0
M  END
>  <minimizedAffinity>
-6.25344992

$$$$

 OpenBabel03242518563D

 45 48  0  0  1  0  0  0  0  0999 V2000
   39.5140   29.3210   42.2590 C   0  0  2  0  0  0  0  0  0  0  0  0
   39.7260   30.6620   42.8890 C   0  0  0  0  0  0  0  0  0  0  0  0
   40.8040   31.3440   42.1300 C   0  0  0  0  0  0  0  0  0  0  0  0
   41.4570   30.5280   41.0610 C   0  0  0  0  0  0  0  0  0  0  0  0
   40.4310   29.9940   40.0930 C   0  0  0  0  0  0  0  0  0  0  0  0
   39.2420   29.5100   40.7810 C   0  0  2  0  0  0  0  0  0  0  0  0
   40.4680   28.7570   42.2880 H   0  0  0  0  0  0  0  0  0  0  0  0
   40.0490   30.4320   43.9510 H   0  0  0  0  0  0  0  0  0  0  0  0
   38.7930   31.2390   43.0300 H   0  0  0  0  0  0  0  0  0  0  0  0
   41.6340   31.5890   42.8590 H   0  0  0  0  0  0  0  0  0  0  0  0
   40.5380   32.3510   41.7230 H   0  0  0  0  0  0  0  0  0  0  0  0
   42.1090   29.7230   41.4440 H   0  0  0  0  0  0  0  0  0  0  0  0
   42.1470   31.2260   40.5260 H   0  0  0  0  0  0  0  0  0  0  0  0
   40.3290   30.7080   39.2690 H   0  0  0  0  0  0  0  0  0  0  0  0
   40.9350   29.0960   39.6060 H   0  0  0  0  0  0  0  0  0  0  0  0
   38.8650   28.5460   40.3800 H   0  0  0  0  0  0  0  0  0  0  0  0
   38.1820   30.5320   40.5820 C   0  0  0  0  0  0  0  0  0  0  0  0
   38.5040   31.4090   39.9850 H   0  0  0  0  0  0  0  0  0  0  0  0
   37.9070   30.9250   41.5960 H   0  0  0  0  0  0  0  0  0  0  0  0
   36.9440   29.9900   39.9880 C   0  0  0  0  0  0  0  0  0  0  0  0
   35.7980   29.5650   40.5980 C   0  0  0  0  0  0  0  0  0  0  0  0
   35.7650   29.5870   41.6620 H   0  0  0  0  0  0  0  0  0  0  0  0
   34.7140   29.1020   39.9010 C   0  0  0  0  0  3  0  0  0  0  0  0
   34.7060   29.0320   38.5220 C   0  0  0  0  0  0  0  0  0  0  0  0
   33.6530   28.5820   37.8420 N   0  0  0  0  0  0  0  0  0  0  0  0
   33.6900   28.5300   36.5080 C   0  0  0  0  0  0  0  0  0  0  0  0
   32.8630   28.1720   35.8760 H   0  0  0  0  0  0  0  0  0  0  0  0
   34.7940   28.9310   35.7800 C   0  0  0  0  0  3  0  0  0  0  0  0
   35.8820   29.3960   36.4850 C   0  0  0  0  0  3  0  0  0  0  0  0
   35.8330   29.4440   37.8440 C   0  0  0  0  0  0  0  0  0  0  0  0
   36.8980   29.9020   38.5910 C   0  0  0  0  0  3  0  0  0  0  0  0
   38.4970   28.4810   42.9330 C   0  0  0  0  0  0  0  0  0  0  0  0
   37.6080   28.9580   43.6790 O   0  0  0  0  0  0  0  0  0  0  0  0
   39.5430   24.9890   43.1130 C   0  0  0  0  0  0  0  0  0  0  0  0
   38.6810   24.3160   42.2140 C   0  0  0  0  0  0  0  0  0  0  0  0
   37.7430   25.0980   41.5640 C   0  0  0  0  0  0  0  0  0  0  0  0
   37.7760   26.3970   41.8710 N   0  0  0  0  0  0  0  0  0  0  0  0
   38.5660   27.0320   42.6980 C   0  0  0  0  0  0  0  0  0  0  0  0
   39.4840   26.2950   43.3430 N   0  0  0  0  0  0  0  0  0  0  0  0
   40.2990   24.3860   43.6440 H   0  0  0  0  0  0  0  0  0  0  0  0
   38.7360   23.2520   42.0340 H   0  0  0  0  0  0  0  0  0  0  0  0
   36.8420   24.4290   40.6210 C   0  0  0  0  0  0  0  0  0  0  0  0
   35.7900   23.8610   41.2940 F   0  0  0  0  0  0  0  0  0  0  0  0
   37.5770   23.4670   40.0070 F   0  0  0  0  0  0  0  0  0  0  0  0
   36.2920   25.3340   39.7200 F   0  0  0  0  0  0  0  0  0  0  0  0
  1  7  1  1  0  0  0
  1  2  1  0  0  0  0
  1 32  1  0  0  0  0
  2  9  1  0  0  0  0
  2  8  1  0  0  0  0
  3 10  1  0  0  0  0
  3  2  1  0  0  0  0
  4 12  1  0  0  0  0
  4  3  1  0  0  0  0
  5  6  1  0  0  0  0
  5  4  1  0  0  0  0
  6 16  1  6  0  0  0
  6  1  1  0  0  0  0
 11  3  1  0  0  0  0
 13  4  1  0  0  0  0
 14  5  1  0  0  0  0
 15  5  1  0  0  0  0
 17  6  1  0  0  0  0
 17 19  1  0  0  0  0
 18 17  1  0  0  0  0
 20 17  1  0  0  0  0
 20 21  1  0  0  0  0
 21 22  1  0  0  0  0
 23 21  2  0  0  0  0
 24 23  1  0  0  0  0
 25 24  2  0  0  0  0
 26 25  1  0  0  0  0
 27 26  1  0  0  0  0
 28 29  1  0  0  0  0
 28 26  2  0  0  0  0
 29 30  2  0  0  0  0
 30 24  1  0  0  0  0
 30 31  1  0  0  0  0
 31 20  2  0  0  0  0
 32 33  2  0  0  0  0
 34 39  1  0  0  0  0
 34 40  1  0  0  0  0
 35 34  2  0  0  0  0
 36 37  2  0  0  0  0
 36 35  1  0  0  0  0
 37 38  1  0  0  0  0
 38 32  1  0  0  0  0
 38 39  2  0  0  0  0
 41 35  1  0  0  0  0
 42 43  1  0  0  0  0
 42 36  1  0  0  0  0
 44 42  1  0  0  0  0
 45 42  1  0  0  0  0
M  END
>  <minimizedAffinity>
-6.17897701

$$$$

 OpenBabel03242518563D

 45 48  0  0  1  0  0  0  0  0999 V2000
   37.2270   28.0830   37.6310 C   0  0  2  0  0  0  0  0  0  0  0  0
   37.4700   27.9540   36.1600 C   0  0  0  0  0  0  0  0  0  0  0  0
   36.1510   28.0250   35.4830 C   0  0  0  0  0  0  0  0  0  0  0  0
   34.9620   28.0860   36.3890 C   0  0  0  0  0  0  0  0  0  0  0  0
   35.0860   29.2360   37.3580 C   0  0  0  0  0  0  0  0  0  0  0  0
   36.4370   29.3500   37.8890 C   0  0  2  0  0  0  0  0  0  0  0  0
   36.5450   27.2700   37.9540 H   0  0  0  0  0  0  0  0  0  0  0  0
   37.9440   26.9310   36.0360 H   0  0  0  0  0  0  0  0  0  0  0  0
   38.2490   28.6390   35.7760 H   0  0  0  0  0  0  0  0  0  0  0  0
   36.0170   27.0710   34.8890 H   0  0  0  0  0  0  0  0  0  0  0  0
   36.0600   28.8130   34.6940 H   0  0  0  0  0  0  0  0  0  0  0  0
   34.7470   27.1380   36.9120 H   0  0  0  0  0  0  0  0  0  0  0  0
   34.0810   28.2530   35.7220 H   0  0  0  0  0  0  0  0  0  0  0  0
   34.6000   30.1130   36.9170 H   0  0  0  0  0  0  0  0  0  0  0  0
   34.3990   28.9580   38.2230 H   0  0  0  0  0  0  0  0  0  0  0  0
   36.4640   29.5500   38.9800 H   0  0  0  0  0  0  0  0  0  0  0  0
   37.0760   30.5010   37.1990 C   0  0  0  0  0  0  0  0  0  0  0  0
   36.4110   31.0290   36.4870 H   0  0  0  0  0  0  0  0  0  0  0  0
   37.9270   30.0920   36.5930 H   0  0  0  0  0  0  0  0  0  0  0  0
   37.6550   31.4950   38.1250 C   0  0  0  0  0  0  0  0  0  0  0  0
   37.0540   32.2160   39.1170 C   0  0  0  0  0  0  0  0  0  0  0  0
   36.0060   32.0920   39.2560 H   0  0  0  0  0  0  0  0  0  0  0  0
   37.7380   33.0940   39.9150 C   0  0  0  0  0  3  0  0  0  0  0  0
   39.0930   33.3130   39.7690 C   0  0  0  0  0  0  0  0  0  0  0  0
   39.7610   34.1660   40.5440 N   0  0  0  0  0  0  0  0  0  0  0  0
   41.0720   34.3470   40.3660 C   0  0  0  0  0  0  0  0  0  0  0  0
   41.6910   35.0320   40.9640 H   0  0  0  0  0  0  0  0  0  0  0  0
   41.7890   33.6750   39.3940 C   0  0  0  0  0  3  0  0  0  0  0  0
   41.0970   32.7930   38.5940 C   0  0  0  0  0  3  0  0  0  0  0  0
   39.7610   32.6170   38.7840 C   0  0  0  0  0  0  0  0  0  0  0  0
   39.0290   31.7450   38.0080 C   0  0  0  0  0  3  0  0  0  0  0  0
   38.4460   27.9800   38.4650 C   0  0  0  0  0  0  0  0  0  0  0  0
   39.5990   28.1780   38.0120 O   0  0  0  0  0  0  0  0  0  0  0  0
   38.3970   28.1800   42.1100 C   0  0  0  0  0  0  0  0  0  0  0  0
   37.9180   26.9140   42.5250 C   0  0  0  0  0  0  0  0  0  0  0  0
   37.6150   26.0130   41.5200 C   0  0  0  0  0  0  0  0  0  0  0  0
   37.8180   26.4600   40.2780 N   0  0  0  0  0  0  0  0  0  0  0  0
   38.2590   27.6240   39.8790 C   0  0  0  0  0  0  0  0  0  0  0  0
   38.5590   28.5170   40.8360 N   0  0  0  0  0  0  0  0  0  0  0  0
   38.6450   28.9150   42.8940 H   0  0  0  0  0  0  0  0  0  0  0  0
   37.7890   26.6480   43.5650 H   0  0  0  0  0  0  0  0  0  0  0  0
   37.1250   24.6920   41.9210 C   0  0  0  0  0  0  0  0  0  0  0  0
   36.5580   24.0500   40.8480 F   0  0  0  0  0  0  0  0  0  0  0  0
   36.1900   24.9080   42.8820 F   0  0  0  0  0  0  0  0  0  0  0  0
   38.1630   23.8800   42.3630 F   0  0  0  0  0  0  0  0  0  0  0  0
  1  6  1  0  0  0  0
  1  7  1  1  0  0  0
  1 32  1  0  0  0  0
  2  1  1  0  0  0  0
  3  2  1  0  0  0  0
  3  4  1  0  0  0  0
  4 12  1  0  0  0  0
  4  5  1  0  0  0  0
  5  6  1  0  0  0  0
  5 15  1  0  0  0  0
  6 16  1  1  0  0  0
  8  2  1  0  0  0  0
  9  2  1  0  0  0  0
 10  3  1  0  0  0  0
 11  3  1  0  0  0  0
 13  4  1  0  0  0  0
 14  5  1  0  0  0  0
 17  6  1  0  0  0  0
 17 20  1  0  0  0  0
 18 17  1  0  0  0  0
 19 17  1  0  0  0  0
 20 21  1  0  0  0  0
 21 22  1  0  0  0  0
 21 23  2  0  0  0  0
 24 23  1  0  0  0  0
 24 25  1  0  0  0  0
 26 25  2  0  0  0  0
 26 27  1  0  0  0  0
 28 26  1  0  0  0  0
 29 30  1  0  0  0  0
 29 28  2  0  0  0  0
 30 24  2  0  0  0  0
 31 20  2  0  0  0  0
 31 30  1  0  0  0  0
 32 38  1  0  0  0  0
 33 32  2  0  0  0  0
 34 35  1  0  0  0  0
 34 40  1  0  0  0  0
 35 41  1  0  0  0  0
 36 42  1  0  0  0  0
 36 35  2  0  0  0  0
 37 36  1  0  0  0  0
 38 37  2  0  0  0  0
 38 39  1  0  0  0  0
 39 34  2  0  0  0  0
 42 45  1  0  0  0  0
 42 44  1  0  0  0  0
 43 42  1  0  0  0  0
M  END
>  <minimizedAffinity>
-6.1326313

$$$$

 OpenBabel03242518563D

 45 48  0  0  1  0  0  0  0  0999 V2000
   39.1450   31.7490   40.1270 C   0  0  2  0  0  0  0  0  0  0  0  0
   38.5390   32.9660   40.7560 C   0  0  0  0  0  0  0  0  0  0  0  0
   37.4610   33.4420   39.8540 C   0  0  0  0  0  0  0  0  0  0  0  0
   37.3300   32.7060   38.5590 C   0  0  0  0  0  0  0  0  0  0  0  0
   37.1580   31.2270   38.7980 C   0  0  0  0  0  0  0  0  0  0  0  0
   38.0480   30.7440   39.8450 C   0  0  2  0  0  0  0  0  0  0  0  0
   39.5280   32.0200   39.1220 H   0  0  0  0  0  0  0  0  0  0  0  0
   39.3900   33.7130   40.8140 H   0  0  0  0  0  0  0  0  0  0  0  0
   38.2570   32.8240   41.8160 H   0  0  0  0  0  0  0  0  0  0  0  0
   37.7050   34.5080   39.5610 H   0  0  0  0  0  0  0  0  0  0  0  0
   36.4540   33.5480   40.3270 H   0  0  0  0  0  0  0  0  0  0  0  0
   38.1450   32.9080   37.8420 H   0  0  0  0  0  0  0  0  0  0  0  0
   36.4120   33.1150   38.0700 H   0  0  0  0  0  0  0  0  0  0  0  0
   36.0870   31.0080   38.8520 H   0  0  0  0  0  0  0  0  0  0  0  0
   37.4810   30.7380   37.8210 H   0  0  0  0  0  0  0  0  0  0  0  0
   38.5310   29.7760   39.5980 H   0  0  0  0  0  0  0  0  0  0  0  0
   37.2150   30.5410   41.0590 C   0  0  0  0  0  0  0  0  0  0  0  0
   36.1690   30.8910   40.9550 H   0  0  0  0  0  0  0  0  0  0  0  0
   37.6730   31.1530   41.8800 H   0  0  0  0  0  0  0  0  0  0  0  0
   37.1960   29.1440   41.5340 C   0  0  0  0  0  0  0  0  0  0  0  0
   37.3420   28.6500   42.7990 C   0  0  0  0  0  0  0  0  0  0  0  0
   37.5280   29.3450   43.5840 H   0  0  0  0  0  0  0  0  0  0  0  0
   37.2790   27.3120   43.0860 C   0  0  0  0  0  3  0  0  0  0  0  0
   37.0620   26.3630   42.1080 C   0  0  0  0  0  0  0  0  0  0  0  0
   37.0000   25.0620   42.3850 N   0  0  0  0  0  0  0  0  0  0  0  0
   36.7890   24.1780   41.4060 C   0  0  0  0  0  0  0  0  0  0  0  0
   36.7250   23.0900   41.5540 H   0  0  0  0  0  0  0  0  0  0  0  0
   36.6280   24.5570   40.0860 C   0  0  0  0  0  3  0  0  0  0  0  0
   36.6920   25.9020   39.8020 C   0  0  0  0  0  3  0  0  0  0  0  0
   36.9070   26.7940   40.8080 C   0  0  0  0  0  0  0  0  0  0  0  0
   36.9790   28.1500   40.5700 C   0  0  0  0  0  3  0  0  0  0  0  0
   40.2820   31.1720   40.8800 C   0  0  0  0  0  0  0  0  0  0  0  0
   40.3120   31.1230   42.1330 O   0  0  0  0  0  0  0  0  0  0  0  0
   43.2110   29.2320   39.8920 C   0  0  0  0  0  0  0  0  0  0  0  0
   43.5240   29.7020   38.5940 C   0  0  0  0  0  0  0  0  0  0  0  0
   42.6990   30.6890   38.0850 C   0  0  0  0  0  0  0  0  0  0  0  0
   41.7070   31.0720   38.8920 N   0  0  0  0  0  0  0  0  0  0  0  0
   41.4070   30.6470   40.0920 C   0  0  0  0  0  0  0  0  0  0  0  0
   42.1920   29.6890   40.6090 N   0  0  0  0  0  0  0  0  0  0  0  0
   43.8560   28.4450   40.3200 H   0  0  0  0  0  0  0  0  0  0  0  0
   44.3560   29.3240   38.0180 H   0  0  0  0  0  0  0  0  0  0  0  0
   43.0030   31.2000   36.7460 C   0  0  0  0  0  0  0  0  0  0  0  0
   44.3610   31.2950   36.5710 F   0  0  0  0  0  0  0  0  0  0  0  0
   42.4370   32.4310   36.6690 F   0  0  0  0  0  0  0  0  0  0  0  0
   42.5380   30.3390   35.7580 F   0  0  0  0  0  0  0  0  0  0  0  0
  1  7  1  6  0  0  0
  1  2  1  0  0  0  0
  1 32  1  0  0  0  0
  2  8  1  0  0  0  0
  2  9  1  0  0  0  0
  3 11  1  0  0  0  0
  3  2  1  0  0  0  0
  4  5  1  0  0  0  0
  4  3  1  0  0  0  0
  5 14  1  0  0  0  0
  5  6  1  0  0  0  0
  6 16  1  6  0  0  0
  6  1  1  0  0  0  0
  6 17  1  0  0  0  0
 10  3  1  0  0  0  0
 12  4  1  0  0  0  0
 13  4  1  0  0  0  0
 15  5  1  0  0  0  0
 17 20  1  0  0  0  0
 17 19  1  0  0  0  0
 18 17  1  0  0  0  0
 20 21  1  0  0  0  0
 21 23  2  0  0  0  0
 21 22  1  0  0  0  0
 24 25  1  0  0  0  0
 24 23  1  0  0  0  0
 26 27  1  0  0  0  0
 26 25  2  0  0  0  0
 28 26  1  0  0  0  0
 29 28  2  0  0  0  0
 29 30  1  0  0  0  0
 30 24  2  0  0  0  0
 31 30  1  0  0  0  0
 31 20  2  0  0  0  0
 32 33  2  0  0  0  0
 34 40  1  0  0  0  0
 34 39  1  0  0  0  0
 35 34  2  0  0  0  0
 36 35  1  0  0  0  0
 36 37  2  0  0  0  0
 37 38  1  0  0  0  0
 38 39  2  0  0  0  0
 38 32  1  0  0  0  0
 41 35  1  0  0  0  0
 42 36  1  0  0  0  0
 43 42  1  0  0  0  0
 44 42  1  0  0  0  0
 45 42  1  0  0  0  0
M  END
>  <minimizedAffinity>
-6.07225704

$$$$

 OpenBabel03242518563D

 45 48  0  0  1  0  0  0  0  0999 V2000
   35.4510   29.1930   38.0540 C   0  0  2  0  0  0  0  0  0  0  0  0
   34.1000   29.0040   37.4360 C   0  0  0  0  0  0  0  0  0  0  0  0
   34.3090   28.6990   35.9980 C   0  0  0  0  0  0  0  0  0  0  0  0
   35.7250   28.7680   35.5220 C   0  0  0  0  0  0  0  0  0  0  0  0
   36.6130   27.8750   36.3520 C   0  0  0  0  0  0  0  0  0  0  0  0
   36.2970   27.9690   37.7700 C   0  0  2  0  0  0  0  0  0  0  0  0
   35.9750   30.0130   37.5240 H   0  0  0  0  0  0  0  0  0  0  0  0
   33.5790   30.0010   37.5760 H   0  0  0  0  0  0  0  0  0  0  0  0
   33.4520   28.3010   37.9910 H   0  0  0  0  0  0  0  0  0  0  0  0
   33.7600   29.4860   35.3970 H   0  0  0  0  0  0  0  0  0  0  0  0
   33.8390   27.7510   35.6380 H   0  0  0  0  0  0  0  0  0  0  0  0
   36.1280   29.7930   35.4580 H   0  0  0  0  0  0  0  0  0  0  0  0
   35.7070   28.4000   34.4660 H   0  0  0  0  0  0  0  0  0  0  0  0
   36.6620   26.8930   35.8700 H   0  0  0  0  0  0  0  0  0  0  0  0
   37.6610   28.2960   36.2060 H   0  0  0  0  0  0  0  0  0  0  0  0
   37.1960   28.0210   38.4180 H   0  0  0  0  0  0  0  0  0  0  0  0
   35.5490   26.7350   38.1280 C   0  0  0  0  0  0  0  0  0  0  0  0
   35.2480   26.1180   37.2580 H   0  0  0  0  0  0  0  0  0  0  0  0
   34.5980   27.0590   38.6290 H   0  0  0  0  0  0  0  0  0  0  0  0
   36.2620   25.8730   39.0900 C   0  0  0  0  0  0  0  0  0  0  0  0
   36.2320   24.5140   39.2320 C   0  0  0  0  0  0  0  0  0  0  0  0
   35.5870   23.9620   38.5900 H   0  0  0  0  0  0  0  0  0  0  0  0
   36.9760   23.8490   40.1710 C   0  0  0  0  0  3  0  0  0  0  0  0
   37.8130   24.5130   41.0460 C   0  0  0  0  0  0  0  0  0  0  0  0
   38.5370   23.8690   41.9590 N   0  0  0  0  0  0  0  0  0  0  0  0
   39.3330   24.5510   42.7860 C   0  0  0  0  0  0  0  0  0  0  0  0
   39.9610   24.0920   43.5640 H   0  0  0  0  0  0  0  0  0  0  0  0
   39.4460   25.9280   42.7380 C   0  0  0  0  0  3  0  0  0  0  0  0
   38.6970   26.5920   41.7940 C   0  0  0  0  0  3  0  0  0  0  0  0
   37.8890   25.8860   40.9560 C   0  0  0  0  0  0  0  0  0  0  0  0
   37.1210   26.5090   39.9960 C   0  0  0  0  0  3  0  0  0  0  0  0
   35.4220   29.5580   39.4890 C   0  0  0  0  0  0  0  0  0  0  0  0
   34.5040   29.1950   40.2650 O   0  0  0  0  0  0  0  0  0  0  0  0
   37.7760   32.3170   39.8930 C   0  0  0  0  0  0  0  0  0  0  0  0
   38.6310   31.8990   40.9420 C   0  0  0  0  0  0  0  0  0  0  0  0
   38.3650   30.6590   41.4930 C   0  0  0  0  0  0  0  0  0  0  0  0
   37.3270   30.0120   40.9580 N   0  0  0  0  0  0  0  0  0  0  0  0
   36.5290   30.3840   39.9900 C   0  0  0  0  0  0  0  0  0  0  0  0
   36.7660   31.5850   39.4400 N   0  0  0  0  0  0  0  0  0  0  0  0
   37.9700   33.3030   39.4380 H   0  0  0  0  0  0  0  0  0  0  0  0
   39.4520   32.5030   41.3050 H   0  0  0  0  0  0  0  0  0  0  0  0
   39.2390   30.1980   42.5740 C   0  0  0  0  0  0  0  0  0  0  0  0
   39.7660   31.2710   43.2480 F   0  0  0  0  0  0  0  0  0  0  0  0
   40.2310   29.4840   41.9850 F   0  0  0  0  0  0  0  0  0  0  0  0
   38.5320   29.4530   43.5110 F   0  0  0  0  0  0  0  0  0  0  0  0
  1  7  1  6  0  0  0
  1 32  1  0  0  0  0
  2  8  1  0  0  0  0
  2  9  1  0  0  0  0
  2  1  1  0  0  0  0
  3  2  1  0  0  0  0
  4  3  1  0  0  0  0
  4  5  1  0  0  0  0
  5  6  1  0  0  0  0
  6  1  1  0  0  0  0
  6 17  1  0  0  0  0
  6 16  1  1  0  0  0
 10  3  1  0  0  0  0
 11  3  1  0  0  0  0
 12  4  1  0  0  0  0
 13  4  1  0  0  0  0
 14  5  1  0  0  0  0
 15  5  1  0  0  0  0
 17 19  1  0  0  0  0
 17 20  1  0  0  0  0
 18 17  1  0  0  0  0
 20 21  2  0  0  0  0
 20 31  1  0  0  0  0
 21 23  1  0  0  0  0
 22 21  1  0  0  0  0
 23 24  2  0  0  0  0
 24 25  1  0  0  0  0
 25 26  2  0  0  0  0
 26 27  1  0  0  0  0
 28 26  1  0  0  0  0
 29 28  2  0  0  0  0
 30 24  1  0  0  0  0
 30 29  1  0  0  0  0
 31 30  2  0  0  0  0
 32 38  1  0  0  0  0
 32 33  2  0  0  0  0
 34 35  1  0  0  0  0
 35 41  1  0  0  0  0
 35 36  2  0  0  0  0
 36 42  1  0  0  0  0
 37 36  1  0  0  0  0
 38 37  2  0  0  0  0
 39 34  2  0  0  0  0
 39 38  1  0  0  0  0
 40 34  1  0  0  0  0
 42 43  1  0  0  0  0
 42 45  1  0  0  0  0
 44 42  1  0  0  0  0
M  END
>  <minimizedAffinity>
-6.02920198

$$$$

 OpenBabel03242518563D

 45 48  0  0  1  0  0  0  0  0999 V2000
   36.2260   27.3930   38.6520 C   0  0  2  0  0  0  0  0  0  0  0  0
   36.2790   27.0520   37.1950 C   0  0  0  0  0  0  0  0  0  0  0  0
   34.9550   27.3850   36.6130 C   0  0  0  0  0  0  0  0  0  0  0  0
   33.9160   27.8400   37.5870 C   0  0  0  0  0  0  0  0  0  0  0  0
   34.4130   29.0150   38.3900 C   0  0  0  0  0  0  0  0  0  0  0  0
   35.7980   28.8380   38.8040 C   0  0  2  0  0  0  0  0  0  0  0  0
   35.4030   26.8180   39.1240 H   0  0  0  0  0  0  0  0  0  0  0  0
   36.4740   25.9360   37.1690 H   0  0  0  0  0  0  0  0  0  0  0  0
   37.1580   27.4730   36.6730 H   0  0  0  0  0  0  0  0  0  0  0  0
   34.5340   26.4380   36.1560 H   0  0  0  0  0  0  0  0  0  0  0  0
   34.9790   28.0820   35.7390 H   0  0  0  0  0  0  0  0  0  0  0  0
   33.5300   27.0380   38.2400 H   0  0  0  0  0  0  0  0  0  0  0  0
   33.0380   28.1530   36.9700 H   0  0  0  0  0  0  0  0  0  0  0  0
   34.1130   29.9360   37.8780 H   0  0  0  0  0  0  0  0  0  0  0  0
   33.7710   29.0130   39.3310 H   0  0  0  0  0  0  0  0  0  0  0  0
   35.9840   29.1380   39.8560 H   0  0  0  0  0  0  0  0  0  0  0  0
   36.6250   29.7110   37.9290 C   0  0  0  0  0  0  0  0  0  0  0  0
   36.0840   30.1130   37.0490 H   0  0  0  0  0  0  0  0  0  0  0  0
   37.4590   29.0790   37.5250 H   0  0  0  0  0  0  0  0  0  0  0  0
   37.2550   30.8360   38.6460 C   0  0  0  0  0  0  0  0  0  0  0  0
   36.8060   31.5450   39.7230 C   0  0  0  0  0  0  0  0  0  0  0  0
   35.8480   31.2980   40.1150 H   0  0  0  0  0  0  0  0  0  0  0  0
   37.5250   32.5610   40.2960 C   0  0  0  0  0  3  0  0  0  0  0  0
   38.7630   32.9400   39.8190 C   0  0  0  0  0  0  0  0  0  0  0  0
   39.4640   33.9270   40.3740 N   0  0  0  0  0  0  0  0  0  0  0  0
   40.6580   34.2620   39.8790 C   0  0  0  0  0  0  0  0  0  0  0  0
   41.2960   35.0630   40.2810 H   0  0  0  0  0  0  0  0  0  0  0  0
   41.2170   33.6170   38.7910 C   0  0  0  0  0  3  0  0  0  0  0  0
   40.4920   32.5970   38.2190 C   0  0  0  0  0  3  0  0  0  0  0  0
   39.2750   32.2650   38.7320 C   0  0  0  0  0  0  0  0  0  0  0  0
   38.5140   31.2510   38.1910 C   0  0  0  0  0  3  0  0  0  0  0  0
   37.4610   27.0720   39.4020 C   0  0  0  0  0  0  0  0  0  0  0  0
   38.3080   26.2410   38.9940 O   0  0  0  0  0  0  0  0  0  0  0  0
   37.0030   28.2330   42.8330 C   0  0  0  0  0  0  0  0  0  0  0  0
   38.0810   29.1250   43.0490 C   0  0  0  0  0  0  0  0  0  0  0  0
   38.9530   29.3010   41.9900 C   0  0  0  0  0  0  0  0  0  0  0  0
   38.6610   28.6000   40.8920 N   0  0  0  0  0  0  0  0  0  0  0  0
   37.6700   27.7730   40.6770 C   0  0  0  0  0  0  0  0  0  0  0  0
   36.8100   27.5850   41.6900 N   0  0  0  0  0  0  0  0  0  0  0  0
   36.2930   28.0770   43.6630 H   0  0  0  0  0  0  0  0  0  0  0  0
   38.2300   29.6490   43.9830 H   0  0  0  0  0  0  0  0  0  0  0  0
   40.0730   30.2250   42.1840 C   0  0  0  0  0  0  0  0  0  0  0  0
   40.6870   30.4840   40.9840 F   0  0  0  0  0  0  0  0  0  0  0  0
   40.9390   29.6040   43.0250 F   0  0  0  0  0  0  0  0  0  0  0  0
   39.6390   31.4500   42.6770 F   0  0  0  0  0  0  0  0  0  0  0  0
  1  6  1  0  0  0  0
  1  7  1  1  0  0  0
  1 32  1  0  0  0  0
  2  1  1  0  0  0  0
  3  2  1  0  0  0  0
  3  4  1  0  0  0  0
  4 12  1  0  0  0  0
  4  5  1  0  0  0  0
  5  6  1  0  0  0  0
  5 15  1  0  0  0  0
  6 16  1  1  0  0  0
  8  2  1  0  0  0  0
  9  2  1  0  0  0  0
 10  3  1  0  0  0  0
 11  3  1  0  0  0  0
 13  4  1  0  0  0  0
 14  5  1  0  0  0  0
 17 20  1  0  0  0  0
 17  6  1  0  0  0  0
 18 17  1  0  0  0  0
 19 17  1  0  0  0  0
 20 21  1  0  0  0  0
 21 22  1  0  0  0  0
 21 23  2  0  0  0  0
 24 23  1  0  0  0  0
 24 25  1  0  0  0  0
 26 27  1  0  0  0  0
 26 25  2  0  0  0  0
 28 26  1  0  0  0  0
 29 30  1  0  0  0  0
 29 28  2  0  0  0  0
 30 24  2  0  0  0  0
 31 20  2  0  0  0  0
 31 30  1  0  0  0  0
 32 38  1  0  0  0  0
 33 32  2  0  0  0  0
 34 35  1  0  0  0  0
 34 40  1  0  0  0  0
 35 41  1  0  0  0  0
 36 42  1  0  0  0  0
 36 35  2  0  0  0  0
 37 36  1  0  0  0  0
 38 37  2  0  0  0  0
 38 39  1  0  0  0  0
 39 34  2  0  0  0  0
 42 45  1  0  0  0  0
 42 44  1  0  0  0  0
 43 42  1  0  0  0  0
M  END
>  <minimizedAffinity>
-6.00044775

$$$$

 OpenBabel03242518563D

 45 48  0  0  1  0  0  0  0  0999 V2000
   38.2340   31.5400   40.7740 C   0  0  2  0  0  0  0  0  0  0  0  0
   37.7920   32.9050   40.3420 C   0  0  0  0  0  0  0  0  0  0  0  0
   39.0110   33.6740   39.9850 C   0  0  0  0  0  0  0  0  0  0  0  0
   40.3110   32.9810   40.2410 C   0  0  0  0  0  0  0  0  0  0  0  0
   40.3490   31.6410   39.5480 C   0  0  0  0  0  0  0  0  0  0  0  0
   39.0850   30.9300   39.6790 C   0  0  2  0  0  0  0  0  0  0  0  0
   38.9310   31.6450   41.6310 H   0  0  0  0  0  0  0  0  0  0  0  0
   37.2790   33.3420   41.2540 H   0  0  0  0  0  0  0  0  0  0  0  0
   36.9880   32.8910   39.5830 H   0  0  0  0  0  0  0  0  0  0  0  0
   39.0380   34.5970   40.6390 H   0  0  0  0  0  0  0  0  0  0  0  0
   39.0160   34.1100   38.9550 H   0  0  0  0  0  0  0  0  0  0  0  0
   40.5690   32.8900   41.3100 H   0  0  0  0  0  0  0  0  0  0  0  0
   41.0990   33.6470   39.8110 H   0  0  0  0  0  0  0  0  0  0  0  0
   40.7950   31.7780   38.5570 H   0  0  0  0  0  0  0  0  0  0  0  0
   41.1380   31.0470   40.1150 H   0  0  0  0  0  0  0  0  0  0  0  0
   39.2100   29.8520   39.9090 H   0  0  0  0  0  0  0  0  0  0  0  0
   38.3900   31.0400   38.3700 C   0  0  0  0  0  0  0  0  0  0  0  0
   39.0420   31.3730   37.5370 H   0  0  0  0  0  0  0  0  0  0  0  0
   37.5960   31.8240   38.4820 H   0  0  0  0  0  0  0  0  0  0  0  0
   37.7050   29.7980   37.9610 C   0  0  0  0  0  0  0  0  0  0  0  0
   38.2150   28.5480   37.7550 C   0  0  0  0  0  0  0  0  0  0  0  0
   39.2650   28.4150   37.8690 H   0  0  0  0  0  0  0  0  0  0  0  0
   37.4380   27.4790   37.3940 C   0  0  0  0  0  3  0  0  0  0  0  0
   36.0740   27.5940   37.2120 C   0  0  0  0  0  0  0  0  0  0  0  0
   35.3170   26.5570   36.8620 N   0  0  0  0  0  0  0  0  0  0  0  0
   34.0010   26.7140   36.6950 C   0  0  0  0  0  0  0  0  0  0  0  0
   33.3100   25.9080   36.4070 H   0  0  0  0  0  0  0  0  0  0  0  0
   33.3710   27.9310   36.8730 C   0  0  0  0  0  3  0  0  0  0  0  0
   34.1560   29.0020   37.2360 C   0  0  0  0  0  3  0  0  0  0  0  0
   35.4960   28.8310   37.4030 C   0  0  0  0  0  0  0  0  0  0  0  0
   36.3200   29.8740   37.7650 C   0  0  0  0  0  3  0  0  0  0  0  0
   37.1360   30.6530   41.2180 C   0  0  0  0  0  0  0  0  0  0  0  0
   35.9250   30.9710   41.1260 O   0  0  0  0  0  0  0  0  0  0  0  0
   38.5810   28.1270   43.4210 C   0  0  0  0  0  0  0  0  0  0  0  0
   38.2340   26.8940   42.8170 C   0  0  0  0  0  0  0  0  0  0  0  0
   37.4950   26.9680   41.6510 C   0  0  0  0  0  0  0  0  0  0  0  0
   37.2040   28.2060   41.2420 N   0  0  0  0  0  0  0  0  0  0  0  0
   37.5170   29.3520   41.7880 C   0  0  0  0  0  0  0  0  0  0  0  0
   38.2330   29.3070   42.9220 N   0  0  0  0  0  0  0  0  0  0  0  0
   39.1710   28.0920   44.3520 H   0  0  0  0  0  0  0  0  0  0  0  0
   38.5220   25.9370   43.2310 H   0  0  0  0  0  0  0  0  0  0  0  0
   37.1290   25.7080   41.0000 C   0  0  0  0  0  0  0  0  0  0  0  0
   38.2310   25.1410   40.4100 F   0  0  0  0  0  0  0  0  0  0  0  0
   36.2040   26.0190   40.0570 F   0  0  0  0  0  0  0  0  0  0  0  0
   36.6560   24.7820   41.9230 F   0  0  0  0  0  0  0  0  0  0  0  0
  1 32  1  0  0  0  0
  1  7  1  1  0  0  0
  2  1  1  0  0  0  0
  2  8  1  0  0  0  0
  3  4  1  0  0  0  0
  3  2  1  0  0  0  0
  3 10  1  0  0  0  0
  4 12  1  0  0  0  0
  5  6  1  0  0  0  0
  5 15  1  0  0  0  0
  5  4  1  0  0  0  0
  6 16  1  1  0  0  0
  6  1  1  0  0  0  0
  9  2  1  0  0  0  0
 11  3  1  0  0  0  0
 13  4  1  0  0  0  0
 14  5  1  0  0  0  0
 17 19  1  0  0  0  0
 17  6  1  0  0  0  0
 18 17  1  0  0  0  0
 20 17  1  0  0  0  0
 21 22  1  0  0  0  0
 21 20  2  0  0  0  0
 23 21  1  0  0  0  0
 24 23  2  0  0  0  0
 24 30  1  0  0  0  0
 25 24  1  0  0  0  0
 26 25  2  0  0  0  0
 26 28  1  0  0  0  0
 27 26  1  0  0  0  0
 28 29  2  0  0  0  0
 29 30  1  0  0  0  0
 30 31  2  0  0  0  0
 31 20  1  0  0  0  0
 32 38  1  0  0  0  0
 33 32  2  0  0  0  0
 34 40  1  0  0  0  0
 35 41  1  0  0  0  0
 35 34  2  0  0  0  0
 36 35  1  0  0  0  0
 37 36  2  0  0  0  0
 37 38  1  0  0  0  0
 38 39  2  0  0  0  0
 39 34  1  0  0  0  0
 42 36  1  0  0  0  0
 42 45  1  0  0  0  0
 43 42  1  0  0  0  0
 44 42  1  0  0  0  0
M  END
>  <minimizedAffinity>
-5.97904444

$$$$

 OpenBabel03242518563D

 45 48  0  0  1  0  0  0  0  0999 V2000
   35.0890   27.4940   36.6850 C   0  0  2  0  0  0  0  0  0  0  0  0
   35.3260   28.4020   35.5180 C   0  0  0  0  0  0  0  0  0  0  0  0
   34.0830   29.1840   35.3050 C   0  0  0  0  0  0  0  0  0  0  0  0
   32.9280   28.8130   36.1790 C   0  0  0  0  0  0  0  0  0  0  0  0
   33.3140   28.8830   37.6350 C   0  0  0  0  0  0  0  0  0  0  0  0
   34.6380   28.3230   37.8690 C   0  0  2  0  0  0  0  0  0  0  0  0
   34.2180   26.8450   36.4620 H   0  0  0  0  0  0  0  0  0  0  0  0
   35.5300   27.7040   34.6480 H   0  0  0  0  0  0  0  0  0  0  0  0
   36.2610   28.9880   35.5940 H   0  0  0  0  0  0  0  0  0  0  0  0
   33.7280   28.9830   34.2490 H   0  0  0  0  0  0  0  0  0  0  0  0
   34.2110   30.2950   35.3060 H   0  0  0  0  0  0  0  0  0  0  0  0
   32.4690   27.8410   35.9280 H   0  0  0  0  0  0  0  0  0  0  0  0
   32.1320   29.5690   35.9660 H   0  0  0  0  0  0  0  0  0  0  0  0
   33.0740   29.8840   38.0090 H   0  0  0  0  0  0  0  0  0  0  0  0
   32.5600   28.2140   38.1650 H   0  0  0  0  0  0  0  0  0  0  0  0
   34.6890   27.6800   38.7720 H   0  0  0  0  0  0  0  0  0  0  0  0
   35.5610   29.4700   38.0730 C   0  0  0  0  0  0  0  0  0  0  0  0
   35.0510   30.4320   38.2810 H   0  0  0  0  0  0  0  0  0  0  0  0
   36.1270   29.6130   37.1150 H   0  0  0  0  0  0  0  0  0  0  0  0
   36.5670   29.2360   39.1270 C   0  0  0  0  0  0  0  0  0  0  0  0
   37.9040   29.5160   39.1350 C   0  0  0  0  0  0  0  0  0  0  0  0
   38.3270   29.9410   38.2560 H   0  0  0  0  0  0  0  0  0  0  0  0
   38.7110   29.2550   40.2110 C   0  0  0  0  0  3  0  0  0  0  0  0
   38.2240   28.6850   41.3700 C   0  0  0  0  0  0  0  0  0  0  0  0
   39.0070   28.4310   42.4170 N   0  0  0  0  0  0  0  0  0  0  0  0
   38.4940   27.8780   43.5180 C   0  0  0  0  0  0  0  0  0  0  0  0
   39.0730   27.6380   44.4220 H   0  0  0  0  0  0  0  0  0  0  0  0
   37.1560   27.5480   43.6290 C   0  0  0  0  0  3  0  0  0  0  0  0
   36.3480   27.8120   42.5460 C   0  0  0  0  0  3  0  0  0  0  0  0
   36.8820   28.3760   41.4280 C   0  0  0  0  0  0  0  0  0  0  0  0
   36.1120   28.6580   40.3200 C   0  0  0  0  0  3  0  0  0  0  0  0
   36.2240   26.5970   37.0040 C   0  0  0  0  0  0  0  0  0  0  0  0
   37.3600   26.7290   36.4870 O   0  0  0  0  0  0  0  0  0  0  0  0
   34.7820   23.6500   38.6030 C   0  0  0  0  0  0  0  0  0  0  0  0
   35.5080   23.5150   39.8110 C   0  0  0  0  0  0  0  0  0  0  0  0
   36.4950   24.4560   40.0420 C   0  0  0  0  0  0  0  0  0  0  0  0
   36.6330   25.3780   39.0860 N   0  0  0  0  0  0  0  0  0  0  0  0
   35.9710   25.5170   37.9670 C   0  0  0  0  0  0  0  0  0  0  0  0
   35.0080   24.6150   37.7190 N   0  0  0  0  0  0  0  0  0  0  0  0
   33.9890   22.9110   38.3970 H   0  0  0  0  0  0  0  0  0  0  0  0
   35.3160   22.7260   40.5240 H   0  0  0  0  0  0  0  0  0  0  0  0
   37.2570   24.3440   41.2880 C   0  0  0  0  0  0  0  0  0  0  0  0
   36.4250   24.4990   42.3690 F   0  0  0  0  0  0  0  0  0  0  0  0
   38.1780   25.3410   41.2620 F   0  0  0  0  0  0  0  0  0  0  0  0
   37.8370   23.0870   41.4140 F   0  0  0  0  0  0  0  0  0  0  0  0
  1  7  1  6  0  0  0
  1 32  1  0  0  0  0
  1  6  1  0  0  0  0
  2  9  1  0  0  0  0
  2  1  1  0  0  0  0
  3 11  1  0  0  0  0
  3  2  1  0  0  0  0
  3  4  1  0  0  0  0
  4  5  1  0  0  0  0
  5  6  1  0  0  0  0
  5 14  1  0  0  0  0
  5 15  1  0  0  0  0
  6 17  1  0  0  0  0
  6 16  1  1  0  0  0
  8  2  1  0  0  0  0
 10  3  1  0  0  0  0
 12  4  1  0  0  0  0
 13  4  1  0  0  0  0
 17 18  1  0  0  0  0
 17 20  1  0  0  0  0
 19 17  1  0  0  0  0
 20 21  2  0  0  0  0
 20 31  1  0  0  0  0
 21 23  1  0  0  0  0
 22 21  1  0  0  0  0
 23 24  2  0  0  0  0
 24 30  1  0  0  0  0
 24 25  1  0  0  0  0
 25 26  2  0  0  0  0
 26 28  1  0  0  0  0
 26 27  1  0  0  0  0
 29 28  2  0  0  0  0
 30 29  1  0  0  0  0
 31 30  2  0  0  0  0
 32 38  1  0  0  0  0
 33 32  2  0  0  0  0
 34 35  1  0  0  0  0
 35 36  2  0  0  0  0
 35 41  1  0  0  0  0
 36 42  1  0  0  0  0
 37 36  1  0  0  0  0
 38 37  2  0  0  0  0
 39 38  1  0  0  0  0
 39 34  2  0  0  0  0
 40 34  1  0  0  0  0
 42 45  1  0  0  0  0
 42 43  1  0  0  0  0
 44 42  1  0  0  0  0
M  END
>  <minimizedAffinity>
-5.9736433

$$$$
