
 OpenBabel03252504513D

 37 40  0  0  0  0  0  0  0  0999 V2000
   46.9900   34.5470   42.8900 C   0  0  0  0  0  0  0  0  0  0  0  0
   48.1110   34.0470   42.2090 C   0  0  0  0  0  0  0  0  0  0  0  0
   48.7180   32.9160   42.7370 C   0  0  0  0  0  0  0  0  0  0  0  0
   48.1850   32.3790   43.8700 N   0  0  0  0  0  0  0  0  0  0  0  0
   47.1190   32.8750   44.4970 C   0  0  0  0  0  0  0  0  0  0  0  0
   46.5030   33.9770   44.0080 N   0  0  0  0  0  0  0  0  0  0  0  0
   46.4410   35.4150   42.5740 H   0  0  0  0  0  0  0  0  0  0  0  0
   49.5770   32.5020   42.2460 H   0  0  0  0  0  0  0  0  0  0  0  0
   45.6120   30.2560   44.0450 Cl  0  0  0  0  0  0  0  0  0  0  0  0
   45.9100   31.0470   45.6030 C   0  0  0  0  0  0  0  0  0  0  0  0
   46.6100   32.2430   45.7050 C   0  0  0  0  0  0  0  0  0  0  0  0
   46.8240   32.8280   46.9270 C   0  0  0  0  0  0  0  0  0  0  0  0
   46.3320   32.2120   48.0700 C   0  0  0  0  0  0  0  0  0  0  0  0
   45.6440   31.0270   47.9280 C   0  0  0  0  0  0  0  0  0  0  0  0
   45.0450   30.2920   49.3970 Cl  0  0  0  0  0  0  0  0  0  0  0  0
   45.4090   30.4100   46.7220 C   0  0  0  0  0  0  0  0  0  0  0  0
   47.3710   33.7640   47.0170 H   0  0  0  0  0  0  0  0  0  0  0  0
   46.4940   32.6640   49.0410 H   0  0  0  0  0  0  0  0  0  0  0  0
   44.8590   29.4800   46.6990 H   0  0  0  0  0  0  0  0  0  0  0  0
   48.5520   34.7330   41.0210 C   0  0  0  0  0  0  0  0  0  0  0  0
   49.5890   34.4320   40.7750 H   0  0  0  0  0  0  0  0  0  0  0  0
   48.5820   35.8250   41.1700 H   0  0  0  0  0  0  0  0  0  0  0  0
   47.5870   34.4720   39.9000 C   0  0  0  0  0  0  0  0  0  0  0  0
   46.7280   33.9080   40.3600 H   0  0  0  0  0  0  0  0  0  0  0  0
   47.1330   35.4570   39.6180 H   0  0  0  0  0  0  0  0  0  0  0  0
   48.1520   33.7620   38.7490 C   0  0  0  0  0  0  0  0  0  0  0  0
   48.0330   34.1820   37.4390 C   0  0  0  0  0  0  0  0  0  0  0  0
   47.4900   35.0950   37.2270 H   0  0  0  0  0  0  0  0  0  0  0  0
   48.6250   33.4010   36.4550 C   0  0  0  0  0  3  0  0  0  0  0  0
   49.3160   32.2290   36.7820 C   0  0  0  0  0  0  0  0  0  0  0  0
   49.8880   31.4740   35.8280 N   0  0  0  0  0  0  0  0  0  0  0  0
   50.5590   30.3420   36.1110 C   0  0  0  0  0  0  0  0  0  0  0  0
   51.0350   29.6990   35.4060 H   0  0  0  0  0  0  0  0  0  0  0  0
   50.6710   29.9340   37.4190 C   0  0  0  0  0  3  0  0  0  0  0  0
   50.1060   30.6630   38.4510 C   0  0  0  0  0  3  0  0  0  0  0  0
   49.4240   31.8270   38.0940 C   0  0  0  0  0  0  0  0  0  0  0  0
   48.8390   32.5960   39.0910 C   0  0  0  0  0  3  0  0  0  0  0  0
  1  6  1  0  0  0  0
  2  3  1  0  0  0  0
  2  1  2  0  0  0  0
  3  4  2  0  0  0  0
  4  5  1  0  0  0  0
  5 11  1  0  0  0  0
  6  5  2  0  0  0  0
  7  1  1  0  0  0  0
  8  3  1  0  0  0  0
  9 10  1  0  0  0  0
 10 11  2  0  0  0  0
 10 16  1  0  0  0  0
 11 12  1  0  0  0  0
 12 17  1  0  0  0  0
 12 13  2  0  0  0  0
 13 18  1  0  0  0  0
 14 13  1  0  0  0  0
 14 15  1  0  0  0  0
 16 14  2  0  0  0  0
 19 16  1  0  0  0  0
 20 22  1  0  0  0  0
 20  2  1  0  0  0  0
 21 20  1  0  0  0  0
 23 24  1  0  0  0  0
 23 20  1  0  0  0  0
 25 23  1  0  0  0  0
 26 37  1  0  0  0  0
 26 23  1  0  0  0  0
 27 26  2  0  0  0  0
 28 27  1  0  0  0  0
 29 30  2  0  0  0  0
 29 27  1  0  0  0  0
 30 36  1  0  0  0  0
 31 32  2  0  0  0  0
 31 30  1  0  0  0  0
 32 34  1  0  0  0  0
 33 32  1  0  0  0  0
 34 35  2  0  0  0  0
 36 35  1  0  0  0  0
 36 37  2  0  0  0  0
M  END
>  <minimizedAffinity>
-5.42134476

>  <minimizedRMSD>
2.05285907

$$$$
