
 OpenBabel03252503523D

 24 26  0  0  0  0  0  0  0  0999 V2000
   38.3910   25.5870   42.3630 C   0  0  0  0  0  0  0  0  0  0  0  0
   38.3240   26.9420   41.9620 C   0  0  0  0  0  0  0  0  0  0  0  0
   39.2720   27.8500   42.4350 C   0  0  0  0  0  0  0  0  0  0  0  0
   40.2210   27.3520   43.2700 N   0  0  0  0  0  0  0  0  0  0  0  0
   40.2730   26.0670   43.6420 C   0  0  0  0  0  0  0  0  0  0  0  0
   39.3640   25.1900   43.1930 N   0  0  0  0  0  0  0  0  0  0  0  0
   37.5450   27.2640   41.2990 H   0  0  0  0  0  0  0  0  0  0  0  0
   41.0770   25.7900   44.3120 H   0  0  0  0  0  0  0  0  0  0  0  0
   39.2560   29.2520   42.0590 C   0  0  0  0  0  0  0  0  0  0  0  0
   40.1290   30.1990   42.5100 C   0  0  0  0  0  0  0  0  0  0  0  0
   40.8990   29.9160   43.1950 H   0  0  0  0  0  0  0  0  0  0  0  0
   40.0480   31.5200   42.1050 C   0  0  0  0  0  3  0  0  0  0  0  0
   39.0600   31.9100   41.2170 C   0  0  0  0  0  0  0  0  0  0  0  0
   38.9670   33.1990   40.8100 N   0  0  0  0  0  0  0  0  0  0  0  0
   38.0100   33.6030   39.9440 C   0  0  0  0  0  0  0  0  0  0  0  0
   37.9320   34.6430   39.6140 H   0  0  0  0  0  0  0  0  0  0  0  0
   37.1090   32.6690   39.4680 C   0  0  0  0  0  3  0  0  0  0  0  0
   37.1730   31.3510   39.8600 C   0  0  0  0  0  3  0  0  0  0  0  0
   38.1590   30.9840   40.7400 C   0  0  0  0  0  0  0  0  0  0  0  0
   38.2890   29.6820   41.1790 C   0  0  0  0  0  3  0  0  0  0  0  0
   37.3460   24.6760   41.8210 C   0  0  0  0  0  0  0  0  0  0  0  0
   37.8350   23.3940   41.6510 F   0  0  0  0  0  0  0  0  0  0  0  0
   36.2630   24.7040   42.6740 F   0  0  0  0  0  0  0  0  0  0  0  0
   36.8950   25.1630   40.5850 F   0  0  0  0  0  0  0  0  0  0  0  0
  1  6  1  0  0  0  0
  2  1  2  0  0  0  0
  2  3  1  0  0  0  0
  3  4  2  0  0  0  0
  4  5  1  0  0  0  0
  5  8  1  0  0  0  0
  6  5  2  0  0  0  0
  7  2  1  0  0  0  0
  9  3  1  0  0  0  0
  9 10  1  0  0  0  0
 10 11  1  0  0  0  0
 12 10  2  0  0  0  0
 13 12  1  0  0  0  0
 14 13  1  0  0  0  0
 15 14  2  0  0  0  0
 16 15  1  0  0  0  0
 17 18  2  0  0  0  0
 17 15  1  0  0  0  0
 18 19  1  0  0  0  0
 19 20  1  0  0  0  0
 19 13  2  0  0  0  0
 20  9  2  0  0  0  0
 21  1  1  0  0  0  0
 21 23  1  0  0  0  0
 22 21  1  0  0  0  0
 24 21  1  0  0  0  0
M  END
>  <minimizedAffinity>
-5.54835415

$$$$

 OpenBabel03252503523D

 24 26  0  0  0  0  0  0  0  0999 V2000
   38.0750   25.6930   41.9280 C   0  0  0  0  0  0  0  0  0  0  0  0
   37.7330   26.9610   41.4030 C   0  0  0  0  0  0  0  0  0  0  0  0
   38.2800   28.1140   41.9690 C   0  0  0  0  0  0  0  0  0  0  0  0
   39.1270   27.9290   43.0150 N   0  0  0  0  0  0  0  0  0  0  0  0
   39.4420   26.7220   43.5030 C   0  0  0  0  0  0  0  0  0  0  0  0
   38.9200   25.6110   42.9640 N   0  0  0  0  0  0  0  0  0  0  0  0
   37.0560   27.0310   40.5740 H   0  0  0  0  0  0  0  0  0  0  0  0
   40.1290   26.7030   44.3390 H   0  0  0  0  0  0  0  0  0  0  0  0
   37.9680   29.4420   41.4750 C   0  0  0  0  0  0  0  0  0  0  0  0
   36.7170   29.8970   41.1720 C   0  0  0  0  0  0  0  0  0  0  0  0
   35.8800   29.2450   41.3000 H   0  0  0  0  0  0  0  0  0  0  0  0
   36.5000   31.1800   40.7030 C   0  0  0  0  0  3  0  0  0  0  0  0
   37.5700   32.0420   40.5300 C   0  0  0  0  0  0  0  0  0  0  0  0
   37.3740   33.3030   40.0720 N   0  0  0  0  0  0  0  0  0  0  0  0
   38.4040   34.1610   39.8950 C   0  0  0  0  0  0  0  0  0  0  0  0
   38.2490   35.1790   39.5260 H   0  0  0  0  0  0  0  0  0  0  0  0
   39.6830   33.7320   40.1920 C   0  0  0  0  0  3  0  0  0  0  0  0
   39.9200   32.4590   40.6590 C   0  0  0  0  0  3  0  0  0  0  0  0
   38.8470   31.6210   40.8240 C   0  0  0  0  0  0  0  0  0  0  0  0
   39.0030   30.3300   41.2870 C   0  0  0  0  0  3  0  0  0  0  0  0
   37.4530   24.5090   41.2750 C   0  0  0  0  0  0  0  0  0  0  0  0
   37.2830   24.7120   39.9190 F   0  0  0  0  0  0  0  0  0  0  0  0
   38.2440   23.4080   41.5340 F   0  0  0  0  0  0  0  0  0  0  0  0
   36.2060   24.2510   41.8610 F   0  0  0  0  0  0  0  0  0  0  0  0
  1  6  1  0  0  0  0
  2  1  2  0  0  0  0
  2  3  1  0  0  0  0
  3  4  2  0  0  0  0
  4  5  1  0  0  0  0
  5  8  1  0  0  0  0
  6  5  2  0  0  0  0
  7  2  1  0  0  0  0
  9  3  1  0  0  0  0
 10 11  1  0  0  0  0
 10  9  2  0  0  0  0
 12 10  1  0  0  0  0
 13 12  2  0  0  0  0
 13 19  1  0  0  0  0
 14 13  1  0  0  0  0
 15 14  2  0  0  0  0
 15 17  1  0  0  0  0
 16 15  1  0  0  0  0
 17 18  2  0  0  0  0
 18 19  1  0  0  0  0
 19 20  2  0  0  0  0
 20  9  1  0  0  0  0
 21 23  1  0  0  0  0
 21 24  1  0  0  0  0
 21  1  1  0  0  0  0
 22 21  1  0  0  0  0
M  END
>  <minimizedAffinity>
-5.38725281

$$$$

 OpenBabel03252503523D

 24 26  0  0  0  0  0  0  0  0999 V2000
   35.1330   29.0880   35.6640 C   0  0  0  0  0  0  0  0  0  0  0  0
   35.8040   29.1540   36.9080 C   0  0  0  0  0  0  0  0  0  0  0  0
   35.0670   29.1170   38.0930 C   0  0  0  0  0  0  0  0  0  0  0  0
   33.7180   29.0170   37.9630 N   0  0  0  0  0  0  0  0  0  0  0  0
   33.0960   28.9560   36.7780 C   0  0  0  0  0  0  0  0  0  0  0  0
   33.7970   28.9910   35.6370 N   0  0  0  0  0  0  0  0  0  0  0  0
   36.8730   29.2330   36.9340 H   0  0  0  0  0  0  0  0  0  0  0  0
   32.0170   28.8770   36.8040 H   0  0  0  0  0  0  0  0  0  0  0  0
   35.6980   29.1810   39.3980 C   0  0  0  0  0  0  0  0  0  0  0  0
   35.9200   30.3230   40.1120 C   0  0  0  0  0  0  0  0  0  0  0  0
   35.6150   31.2620   39.7020 H   0  0  0  0  0  0  0  0  0  0  0  0
   36.5300   30.3020   41.3530 C   0  0  0  0  0  3  0  0  0  0  0  0
   36.9330   29.0970   41.9040 C   0  0  0  0  0  0  0  0  0  0  0  0
   37.5320   29.0600   43.1190 N   0  0  0  0  0  0  0  0  0  0  0  0
   37.9340   27.8950   43.6760 C   0  0  0  0  0  0  0  0  0  0  0  0
   38.4170   27.8610   44.6570 H   0  0  0  0  0  0  0  0  0  0  0  0
   37.7240   26.7190   42.9800 C   0  0  0  0  0  3  0  0  0  0  0  0
   37.1200   26.7200   41.7440 C   0  0  0  0  0  3  0  0  0  0  0  0
   36.7270   27.9230   41.2150 C   0  0  0  0  0  0  0  0  0  0  0  0
   36.1150   28.0060   39.9810 C   0  0  0  0  0  3  0  0  0  0  0  0
   35.9810   29.1330   34.4420 C   0  0  0  0  0  0  0  0  0  0  0  0
   35.9160   30.3700   33.8290 F   0  0  0  0  0  0  0  0  0  0  0  0
   37.2730   28.8060   34.8010 F   0  0  0  0  0  0  0  0  0  0  0  0
   35.5550   28.1490   33.5390 F   0  0  0  0  0  0  0  0  0  0  0  0
  1  2  1  0  0  0  0
  2  7  1  0  0  0  0
  2  3  2  0  0  0  0
  3  9  1  0  0  0  0
  4  3  1  0  0  0  0
  5  8  1  0  0  0  0
  5  4  2  0  0  0  0
  6  1  2  0  0  0  0
  6  5  1  0  0  0  0
  9 20  2  0  0  0  0
  9 10  1  0  0  0  0
 10 12  2  0  0  0  0
 11 10  1  0  0  0  0
 12 13  1  0  0  0  0
 13 14  1  0  0  0  0
 14 15  2  0  0  0  0
 15 16  1  0  0  0  0
 17 15  1  0  0  0  0
 18 17  2  0  0  0  0
 19 18  1  0  0  0  0
 19 13  2  0  0  0  0
 20 19  1  0  0  0  0
 21 23  1  0  0  0  0
 21  1  1  0  0  0  0
 22 21  1  0  0  0  0
 24 21  1  0  0  0  0
M  END
>  <minimizedAffinity>
-5.31747913

$$$$

 OpenBabel03252503523D

 24 26  0  0  0  0  0  0  0  0999 V2000
   36.2220   29.8590   34.6620 C   0  0  0  0  0  0  0  0  0  0  0  0
   36.4660   30.1080   36.0330 C   0  0  0  0  0  0  0  0  0  0  0  0
   36.3850   29.0590   36.9500 C   0  0  0  0  0  0  0  0  0  0  0  0
   36.0690   27.8380   36.4450 N   0  0  0  0  0  0  0  0  0  0  0  0
   35.8410   27.6170   35.1440 C   0  0  0  0  0  0  0  0  0  0  0  0
   35.9160   28.6190   34.2580 N   0  0  0  0  0  0  0  0  0  0  0  0
   36.7100   31.1000   36.3600 H   0  0  0  0  0  0  0  0  0  0  0  0
   35.5980   26.6000   34.8630 H   0  0  0  0  0  0  0  0  0  0  0  0
   36.6240   29.2520   38.3690 C   0  0  0  0  0  0  0  0  0  0  0  0
   36.8020   30.4590   38.9820 C   0  0  0  0  0  0  0  0  0  0  0  0
   36.7670   31.3520   38.3960 H   0  0  0  0  0  0  0  0  0  0  0  0
   37.0270   30.5600   40.3430 C   0  0  0  0  0  3  0  0  0  0  0  0
   37.0750   29.4160   41.1220 C   0  0  0  0  0  0  0  0  0  0  0  0
   37.2940   29.4990   42.4570 N   0  0  0  0  0  0  0  0  0  0  0  0
   37.3460   28.3960   43.2370 C   0  0  0  0  0  0  0  0  0  0  0  0
   37.5230   28.4590   44.3140 H   0  0  0  0  0  0  0  0  0  0  0  0
   37.1700   27.1580   42.6480 C   0  0  0  0  0  3  0  0  0  0  0  0
   36.9470   27.0360   41.2960 C   0  0  0  0  0  3  0  0  0  0  0  0
   36.9010   28.1810   40.5410 C   0  0  0  0  0  0  0  0  0  0  0  0
   36.6810   28.1410   39.1790 C   0  0  0  0  0  3  0  0  0  0  0  0
   36.3250   31.0250   33.7420 C   0  0  0  0  0  0  0  0  0  0  0  0
   37.0230   30.7000   32.5940 F   0  0  0  0  0  0  0  0  0  0  0  0
   35.0490   31.4660   33.4590 F   0  0  0  0  0  0  0  0  0  0  0  0
   36.9780   32.0800   34.3940 F   0  0  0  0  0  0  0  0  0  0  0  0
  1  2  1  0  0  0  0
  2  7  1  0  0  0  0
  2  3  2  0  0  0  0
  3  9  1  0  0  0  0
  4  3  1  0  0  0  0
  5  4  2  0  0  0  0
  6  1  2  0  0  0  0
  6  5  1  0  0  0  0
  8  5  1  0  0  0  0
  9 10  2  0  0  0  0
  9 20  1  0  0  0  0
 10 12  1  0  0  0  0
 11 10  1  0  0  0  0
 12 13  2  0  0  0  0
 13 14  1  0  0  0  0
 14 15  2  0  0  0  0
 15 16  1  0  0  0  0
 17 15  1  0  0  0  0
 18 17  2  0  0  0  0
 19 13  1  0  0  0  0
 19 18  1  0  0  0  0
 20 19  2  0  0  0  0
 21 24  1  0  0  0  0
 21  1  1  0  0  0  0
 22 21  1  0  0  0  0
 23 21  1  0  0  0  0
M  END
>  <minimizedAffinity>
-5.30682182

$$$$

 OpenBabel03252503523D

 24 26  0  0  0  0  0  0  0  0999 V2000
   32.8520   29.0700   37.0290 C   0  0  0  0  0  0  0  0  0  0  0  0
   33.5410   29.2040   38.2560 C   0  0  0  0  0  0  0  0  0  0  0  0
   34.8650   28.7720   38.3560 C   0  0  0  0  0  0  0  0  0  0  0  0
   35.4120   28.2380   37.2320 N   0  0  0  0  0  0  0  0  0  0  0  0
   34.7470   28.1170   36.0760 C   0  0  0  0  0  0  0  0  0  0  0  0
   33.4760   28.5290   35.9740 N   0  0  0  0  0  0  0  0  0  0  0  0
   33.0440   29.6350   39.1030 H   0  0  0  0  0  0  0  0  0  0  0  0
   35.2910   27.6760   35.2510 H   0  0  0  0  0  0  0  0  0  0  0  0
   35.6240   28.8820   39.5880 C   0  0  0  0  0  0  0  0  0  0  0  0
   35.8300   30.0370   40.2860 C   0  0  0  0  0  0  0  0  0  0  0  0
   35.4100   30.9500   39.9210 H   0  0  0  0  0  0  0  0  0  0  0  0
   36.5690   30.0620   41.4550 C   0  0  0  0  0  3  0  0  0  0  0  0
   37.1220   28.8920   41.9470 C   0  0  0  0  0  0  0  0  0  0  0  0
   37.8480   28.8990   43.0920 N   0  0  0  0  0  0  0  0  0  0  0  0
   38.3980   27.7690   43.5900 C   0  0  0  0  0  0  0  0  0  0  0  0
   38.9840   27.7720   44.5140 H   0  0  0  0  0  0  0  0  0  0  0  0
   38.2080   26.5820   42.9080 C   0  0  0  0  0  3  0  0  0  0  0  0
   37.4780   26.5370   41.7430 C   0  0  0  0  0  3  0  0  0  0  0  0
   36.9370   27.7070   41.2720 C   0  0  0  0  0  0  0  0  0  0  0  0
   36.1920   27.7430   40.1110 C   0  0  0  0  0  3  0  0  0  0  0  0
   31.4440   29.5510   36.9960 C   0  0  0  0  0  0  0  0  0  0  0  0
   30.9690   29.8100   38.2680 F   0  0  0  0  0  0  0  0  0  0  0  0
   31.3880   30.6690   36.1900 F   0  0  0  0  0  0  0  0  0  0  0  0
   30.6310   28.5810   36.3910 F   0  0  0  0  0  0  0  0  0  0  0  0
  1  2  1  0  0  0  0
  2  3  2  0  0  0  0
  2  7  1  0  0  0  0
  3  9  1  0  0  0  0
  4  3  1  0  0  0  0
  5  4  2  0  0  0  0
  6  5  1  0  0  0  0
  6  1  2  0  0  0  0
  8  5  1  0  0  0  0
  9 20  2  0  0  0  0
  9 10  1  0  0  0  0
 10 12  2  0  0  0  0
 11 10  1  0  0  0  0
 12 13  1  0  0  0  0
 13 14  1  0  0  0  0
 14 15  2  0  0  0  0
 15 16  1  0  0  0  0
 17 15  1  0  0  0  0
 18 17  2  0  0  0  0
 19 18  1  0  0  0  0
 19 13  2  0  0  0  0
 20 19  1  0  0  0  0
 21  1  1  0  0  0  0
 21 22  1  0  0  0  0
 23 21  1  0  0  0  0
 24 21  1  0  0  0  0
M  END
>  <minimizedAffinity>
-5.13647938

$$$$

 OpenBabel03252503523D

 24 26  0  0  0  0  0  0  0  0999 V2000
   36.9880   26.4440   41.0220 C   0  0  0  0  0  0  0  0  0  0  0  0
   37.3840   27.8010   41.0470 C   0  0  0  0  0  0  0  0  0  0  0  0
   37.3340   28.5570   39.8750 C   0  0  0  0  0  0  0  0  0  0  0  0
   36.8930   27.9160   38.7610 N   0  0  0  0  0  0  0  0  0  0  0  0
   36.5200   26.6300   38.7520 C   0  0  0  0  0  0  0  0  0  0  0  0
   36.5670   25.8980   39.8730 N   0  0  0  0  0  0  0  0  0  0  0  0
   37.7220   28.2420   41.9640 H   0  0  0  0  0  0  0  0  0  0  0  0
   36.1870   26.2310   37.8020 H   0  0  0  0  0  0  0  0  0  0  0  0
   37.7270   29.9540   39.8370 C   0  0  0  0  0  0  0  0  0  0  0  0
   36.9170   30.9920   39.4760 C   0  0  0  0  0  0  0  0  0  0  0  0
   35.9070   30.7910   39.1930 H   0  0  0  0  0  0  0  0  0  0  0  0
   37.3680   32.3000   39.4640 C   0  0  0  0  0  3  0  0  0  0  0  0
   38.6740   32.5840   39.8270 C   0  0  0  0  0  0  0  0  0  0  0  0
   39.1300   33.8600   39.8210 N   0  0  0  0  0  0  0  0  0  0  0  0
   40.4010   34.1600   40.1710 C   0  0  0  0  0  0  0  0  0  0  0  0
   40.7720   35.1890   40.1680 H   0  0  0  0  0  0  0  0  0  0  0  0
   41.2470   33.1330   40.5430 C   0  0  0  0  0  3  0  0  0  0  0  0
   40.8180   31.8250   40.5600 C   0  0  0  0  0  3  0  0  0  0  0  0
   39.5210   31.5640   40.1970 C   0  0  0  0  0  0  0  0  0  0  0  0
   39.0170   30.2790   40.1890 C   0  0  0  0  0  3  0  0  0  0  0  0
   37.0690   25.6990   42.3080 C   0  0  0  0  0  0  0  0  0  0  0  0
   36.5190   24.4360   42.1950 F   0  0  0  0  0  0  0  0  0  0  0  0
   38.3920   25.6500   42.6960 F   0  0  0  0  0  0  0  0  0  0  0  0
   36.3850   26.4100   43.3050 F   0  0  0  0  0  0  0  0  0  0  0  0
  1  2  1  0  0  0  0
  1 21  1  0  0  0  0
  2  7  1  0  0  0  0
  3  2  2  0  0  0  0
  4  3  1  0  0  0  0
  5  4  2  0  0  0  0
  5  6  1  0  0  0  0
  6  1  2  0  0  0  0
  8  5  1  0  0  0  0
  9  3  1  0  0  0  0
  9 20  1  0  0  0  0
 10  9  2  0  0  0  0
 11 10  1  0  0  0  0
 12 10  1  0  0  0  0
 12 13  2  0  0  0  0
 13 19  1  0  0  0  0
 14 13  1  0  0  0  0
 14 15  2  0  0  0  0
 15 17  1  0  0  0  0
 16 15  1  0  0  0  0
 17 18  2  0  0  0  0
 19 18  1  0  0  0  0
 20 19  2  0  0  0  0
 21 23  1  0  0  0  0
 21 24  1  0  0  0  0
 22 21  1  0  0  0  0
M  END
>  <minimizedAffinity>
-5.11571217

$$$$

 OpenBabel03252503523D

 24 26  0  0  0  0  0  0  0  0999 V2000
   38.4740   31.5650   40.7520 C   0  0  0  0  0  0  0  0  0  0  0  0
   37.9690   30.2470   40.6580 C   0  0  0  0  0  0  0  0  0  0  0  0
   38.4290   29.2670   41.5380 C   0  0  0  0  0  0  0  0  0  0  0  0
   39.3560   29.6620   42.4500 N   0  0  0  0  0  0  0  0  0  0  0  0
   39.8250   30.9130   42.5290 C   0  0  0  0  0  0  0  0  0  0  0  0
   39.3880   31.8590   41.6860 N   0  0  0  0  0  0  0  0  0  0  0  0
   37.2380   30.0080   39.9110 H   0  0  0  0  0  0  0  0  0  0  0  0
   40.5610   31.1050   43.2980 H   0  0  0  0  0  0  0  0  0  0  0  0
   37.9490   27.8980   41.4910 C   0  0  0  0  0  0  0  0  0  0  0  0
   38.0180   27.0030   42.5190 C   0  0  0  0  0  0  0  0  0  0  0  0
   38.4540   27.3050   43.4460 H   0  0  0  0  0  0  0  0  0  0  0  0
   37.5380   25.7110   42.3960 C   0  0  0  0  0  3  0  0  0  0  0  0
   36.9680   25.2970   41.2040 C   0  0  0  0  0  0  0  0  0  0  0  0
   36.4930   24.0350   41.0670 N   0  0  0  0  0  0  0  0  0  0  0  0
   35.9330   23.6090   39.9120 C   0  0  0  0  0  0  0  0  0  0  0  0
   35.5490   22.5910   39.7990 H   0  0  0  0  0  0  0  0  0  0  0  0
   35.8480   24.4910   38.8520 C   0  0  0  0  0  3  0  0  0  0  0  0
   36.3200   25.7790   38.9540 C   0  0  0  0  0  3  0  0  0  0  0  0
   36.8810   26.1700   40.1430 C   0  0  0  0  0  0  0  0  0  0  0  0
   37.3770   27.4460   40.3240 C   0  0  0  0  0  3  0  0  0  0  0  0
   37.9390   32.5580   39.7800 C   0  0  0  0  0  0  0  0  0  0  0  0
   36.6440   32.2510   39.4070 F   0  0  0  0  0  0  0  0  0  0  0  0
   38.0250   33.8110   40.3510 F   0  0  0  0  0  0  0  0  0  0  0  0
   38.7530   32.5820   38.6390 F   0  0  0  0  0  0  0  0  0  0  0  0
  1  6  1  0  0  0  0
  2  1  2  0  0  0  0
  2  3  1  0  0  0  0
  3  4  2  0  0  0  0
  4  5  1  0  0  0  0
  5  8  1  0  0  0  0
  6  5  2  0  0  0  0
  7  2  1  0  0  0  0
  9  3  1  0  0  0  0
  9 10  1  0  0  0  0
 10 11  1  0  0  0  0
 12 10  2  0  0  0  0
 13 12  1  0  0  0  0
 14 13  1  0  0  0  0
 15 14  2  0  0  0  0
 16 15  1  0  0  0  0
 17 18  2  0  0  0  0
 17 15  1  0  0  0  0
 18 19  1  0  0  0  0
 19 20  1  0  0  0  0
 19 13  2  0  0  0  0
 20  9  2  0  0  0  0
 21 23  1  0  0  0  0
 21  1  1  0  0  0  0
 22 21  1  0  0  0  0
 24 21  1  0  0  0  0
M  END
>  <minimizedAffinity>
-5.10612535

$$$$

 OpenBabel03252503523D

 24 26  0  0  0  0  0  0  0  0999 V2000
   38.2230   26.0660   42.4750 C   0  0  0  0  0  0  0  0  0  0  0  0
   39.0460   27.1630   42.1300 C   0  0  0  0  0  0  0  0  0  0  0  0
   38.5840   28.4640   42.3360 C   0  0  0  0  0  0  0  0  0  0  0  0
   37.3410   28.5860   42.8710 N   0  0  0  0  0  0  0  0  0  0  0  0
   36.5720   27.5370   43.1930 C   0  0  0  0  0  0  0  0  0  0  0  0
   37.0090   26.2860   42.9970 N   0  0  0  0  0  0  0  0  0  0  0  0
   40.0180   26.9910   41.7110 H   0  0  0  0  0  0  0  0  0  0  0  0
   35.6000   27.7620   43.6120 H   0  0  0  0  0  0  0  0  0  0  0  0
   39.3810   29.6300   42.0020 C   0  0  0  0  0  0  0  0  0  0  0  0
   40.7290   29.7440   42.1880 C   0  0  0  0  0  0  0  0  0  0  0  0
   41.2680   28.9240   42.6120 H   0  0  0  0  0  0  0  0  0  0  0  0
   41.4190   30.8920   41.8440 C   0  0  0  0  0  3  0  0  0  0  0  0
   40.7410   31.9670   41.2930 C   0  0  0  0  0  0  0  0  0  0  0  0
   41.4030   33.0980   40.9510 N   0  0  0  0  0  0  0  0  0  0  0  0
   40.7620   34.1600   40.4120 C   0  0  0  0  0  0  0  0  0  0  0  0
   41.2940   35.0740   40.1340 H   0  0  0  0  0  0  0  0  0  0  0  0
   39.3970   34.0780   40.2090 C   0  0  0  0  0  3  0  0  0  0  0  0
   38.6930   32.9450   40.5460 C   0  0  0  0  0  3  0  0  0  0  0  0
   39.3820   31.8910   41.0900 C   0  0  0  0  0  0  0  0  0  0  0  0
   38.7460   30.7210   41.4530 C   0  0  0  0  0  3  0  0  0  0  0  0
   38.7800   24.7080   42.2260 C   0  0  0  0  0  0  0  0  0  0  0  0
   39.5050   24.6680   41.0500 F   0  0  0  0  0  0  0  0  0  0  0  0
   39.5470   24.3490   43.3150 F   0  0  0  0  0  0  0  0  0  0  0  0
   37.7320   23.7780   42.1520 F   0  0  0  0  0  0  0  0  0  0  0  0
  1  6  1  0  0  0  0
  2  3  1  0  0  0  0
  2  1  2  0  0  0  0
  3  4  2  0  0  0  0
  4  5  1  0  0  0  0
  5  8  1  0  0  0  0
  6  5  2  0  0  0  0
  7  2  1  0  0  0  0
  9 10  1  0  0  0  0
  9  3  1  0  0  0  0
 10 11  1  0  0  0  0
 12 10  2  0  0  0  0
 13 12  1  0  0  0  0
 14 13  2  0  0  0  0
 15 14  1  0  0  0  0
 16 15  1  0  0  0  0
 17 15  2  0  0  0  0
 17 18  1  0  0  0  0
 18 19  2  0  0  0  0
 19 13  1  0  0  0  0
 19 20  1  0  0  0  0
 20  9  2  0  0  0  0
 21  1  1  0  0  0  0
 21 23  1  0  0  0  0
 22 21  1  0  0  0  0
 24 21  1  0  0  0  0
M  END
>  <minimizedAffinity>
-5.09707212

$$$$

 OpenBabel03252503523D

 24 26  0  0  0  0  0  0  0  0999 V2000
   37.0120   26.1810   41.3520 C   0  0  0  0  0  0  0  0  0  0  0  0
   37.2680   27.4650   40.8170 C   0  0  0  0  0  0  0  0  0  0  0  0
   37.3900   28.5590   41.6750 C   0  0  0  0  0  0  0  0  0  0  0  0
   37.2520   28.3030   43.0020 N   0  0  0  0  0  0  0  0  0  0  0  0
   37.0090   27.0820   43.4950 C   0  0  0  0  0  0  0  0  0  0  0  0
   36.8900   26.0280   42.6770 N   0  0  0  0  0  0  0  0  0  0  0  0
   37.3650   27.5910   39.7560 H   0  0  0  0  0  0  0  0  0  0  0  0
   36.9190   27.0050   44.5710 H   0  0  0  0  0  0  0  0  0  0  0  0
   37.6530   29.9000   41.1860 C   0  0  0  0  0  0  0  0  0  0  0  0
   36.7240   30.7330   40.6330 C   0  0  0  0  0  0  0  0  0  0  0  0
   35.7130   30.3990   40.5380 H   0  0  0  0  0  0  0  0  0  0  0  0
   37.0530   32.0010   40.1880 C   0  0  0  0  0  3  0  0  0  0  0  0
   38.3560   32.4560   40.3010 C   0  0  0  0  0  0  0  0  0  0  0  0
   38.6940   33.6960   39.8700 N   0  0  0  0  0  0  0  0  0  0  0  0
   39.9610   34.1600   39.9700 C   0  0  0  0  0  0  0  0  0  0  0  0
   40.2370   35.1600   39.6230 H   0  0  0  0  0  0  0  0  0  0  0  0
   40.9260   33.3420   40.5260 C   0  0  0  0  0  3  0  0  0  0  0  0
   40.6180   32.0770   40.9730 C   0  0  0  0  0  3  0  0  0  0  0  0
   39.3220   31.6450   40.8530 C   0  0  0  0  0  0  0  0  0  0  0  0
   38.9360   30.3900   41.2780 C   0  0  0  0  0  3  0  0  0  0  0  0
   36.8920   25.0610   40.3780 C   0  0  0  0  0  0  0  0  0  0  0  0
   38.1260   24.7010   39.8700 F   0  0  0  0  0  0  0  0  0  0  0  0
   36.2680   24.0050   41.0090 F   0  0  0  0  0  0  0  0  0  0  0  0
   36.0550   25.4470   39.3210 F   0  0  0  0  0  0  0  0  0  0  0  0
  1  6  1  0  0  0  0
  2  1  2  0  0  0  0
  2  3  1  0  0  0  0
  3  4  2  0  0  0  0
  4  5  1  0  0  0  0
  5  8  1  0  0  0  0
  6  5  2  0  0  0  0
  7  2  1  0  0  0  0
  9 20  1  0  0  0  0
  9  3  1  0  0  0  0
 10  9  2  0  0  0  0
 11 10  1  0  0  0  0
 12 13  2  0  0  0  0
 12 10  1  0  0  0  0
 13 19  1  0  0  0  0
 14 15  2  0  0  0  0
 14 13  1  0  0  0  0
 15 17  1  0  0  0  0
 16 15  1  0  0  0  0
 17 18  2  0  0  0  0
 19 18  1  0  0  0  0
 19 20  2  0  0  0  0
 21 23  1  0  0  0  0
 21  1  1  0  0  0  0
 22 21  1  0  0  0  0
 24 21  1  0  0  0  0
M  END
>  <minimizedAffinity>
-5.01963902

$$$$
