
 OpenBabel03252500333D

 46 50  0  0  1  0  0  0  0  0999 V2000
   36.3860   29.5090   40.1700 N   0  0  0  0  0  0  0  0  0  0  0  0
   35.2970   28.6340   39.8880 C   0  0  0  0  0  0  0  0  0  0  0  0
   35.4370   28.0090   38.5090 C   0  0  0  0  0  0  0  0  0  0  0  0
   35.2900   29.1520   37.5180 C   0  0  0  0  0  0  0  0  0  0  0  0
   36.4850   30.0610   37.7750 C   0  0  0  0  0  0  0  0  0  0  0  0
   36.5490   30.5080   39.2240 C   0  0  2  0  0  0  0  0  0  0  0  0
   34.9460   27.9830   40.6670 H   0  0  0  0  0  0  0  0  0  0  0  0
   34.4240   29.3520   39.7630 H   0  0  0  0  0  0  0  0  0  0  0  0
   34.6930   27.2190   38.3530 H   0  0  0  0  0  0  0  0  0  0  0  0
   36.4670   27.5790   38.3620 H   0  0  0  0  0  0  0  0  0  0  0  0
   34.3400   29.6840   37.7360 H   0  0  0  0  0  0  0  0  0  0  0  0
   35.3530   28.8170   36.4800 H   0  0  0  0  0  0  0  0  0  0  0  0
   36.3670   30.9940   37.1740 H   0  0  0  0  0  0  0  0  0  0  0  0
   37.3700   29.4950   37.4480 H   0  0  0  0  0  0  0  0  0  0  0  0
   35.5840   31.1220   39.2990 H   0  0  0  0  0  0  0  0  0  0  0  0
   37.6250   31.4780   39.3490 C   0  0  0  0  0  0  0  0  0  0  0  0
   37.8010   32.4840   40.2710 C   0  0  0  0  0  0  0  0  0  0  0  0
   37.0640   32.5910   41.0490 H   0  0  0  0  0  0  0  0  0  0  0  0
   38.8350   33.3890   40.3380 C   0  0  0  0  0  3  0  0  0  0  0  0
   39.8210   33.2960   39.3820 C   0  0  0  0  0  0  0  0  0  0  0  0
   40.8500   34.1600   39.4120 N   0  0  0  0  0  0  0  0  0  0  0  0
   41.8540   34.1380   38.5170 C   0  0  0  0  0  0  0  0  0  0  0  0
   42.6810   34.8450   38.5520 H   0  0  0  0  0  0  0  0  0  0  0  0
   41.7790   33.1650   37.5420 C   0  0  0  0  0  3  0  0  0  0  0  0
   40.7510   32.2520   37.4610 C   0  0  0  0  0  3  0  0  0  0  0  0
   39.7670   32.3310   38.4000 C   0  0  0  0  0  0  0  0  0  0  0  0
   38.6970   31.4940   38.4350 C   0  0  0  0  0  3  0  0  0  0  0  0
   37.4710   28.9250   40.8690 C   0  0  0  0  0  0  0  0  0  0  0  0
   38.4650   29.1620   40.4510 H   0  0  0  0  0  0  0  0  0  0  0  0
   37.3330   27.8000   40.8510 H   0  0  0  0  0  0  0  0  0  0  0  0
   37.7140   28.2360   43.3690 C   0  0  1  0  0  0  0  0  0  0  0  0
   38.5670   29.3460   43.1510 C   0  0  0  0  0  0  0  0  0  0  0  0
   37.3500   29.2910   42.3040 C   0  0  1  0  0  0  0  0  0  0  0  0
   37.0560   28.2010   44.2760 H   0  0  0  0  0  0  0  0  0  0  0  0
   39.5420   29.2840   42.6140 H   0  0  0  0  0  0  0  0  0  0  0  0
   38.5870   30.1750   43.9020 H   0  0  0  0  0  0  0  0  0  0  0  0
   36.3970   29.7720   42.5840 H   0  0  0  0  0  0  0  0  0  0  0  0
   39.3280   26.4290   42.7850 C   0  0  0  0  0  0  0  0  0  0  0  0
   37.9730   26.8510   42.8920 C   0  0  0  0  0  0  0  0  0  0  0  0
   36.9910   25.9610   42.5440 C   0  0  0  0  0  0  0  0  0  0  0  0
   37.3720   24.7170   42.1160 N   0  0  0  0  0  0  0  0  0  0  0  0
   38.6610   24.3370   42.0230 C   0  0  0  0  0  0  0  0  0  0  0  0
   39.6730   25.1940   42.3590 N   0  0  0  0  0  0  0  0  0  0  0  0
   40.1730   27.0640   43.0370 H   0  0  0  0  0  0  0  0  0  0  0  0
   35.9550   26.2630   42.6180 H   0  0  0  0  0  0  0  0  0  0  0  0
   38.8200   23.3270   41.6700 H   0  0  0  0  0  0  0  0  0  0  0  0
  1 28  1  0  0  0  0
  2  1  1  0  0  0  0
  2  7  1  0  0  0  0
  3  2  1  0  0  0  0
  4 11  1  0  0  0  0
  4  5  1  0  0  0  0
  4  3  1  0  0  0  0
  5  6  1  0  0  0  0
  6 15  1  1  0  0  0
  6 16  1  0  0  0  0
  6  1  1  0  0  0  0
  8  2  1  0  0  0  0
  9  3  1  0  0  0  0
 10  3  1  0  0  0  0
 12  4  1  0  0  0  0
 13  5  1  0  0  0  0
 14  5  1  0  0  0  0
 16 17  1  0  0  0  0
 17 19  2  0  0  0  0
 17 18  1  0  0  0  0
 20 21  1  0  0  0  0
 20 19  1  0  0  0  0
 22 23  1  0  0  0  0
 22 21  2  0  0  0  0
 24 22  1  0  0  0  0
 25 24  2  0  0  0  0
 25 26  1  0  0  0  0
 26 27  1  0  0  0  0
 26 20  2  0  0  0  0
 27 16  2  0  0  0  0
 28 33  1  0  0  0  0
 29 28  1  0  0  0  0
 30 28  1  0  0  0  0
 31 34  1  1  0  0  0
 32 31  1  0  0  0  0
 32 36  1  0  0  0  0
 33 37  1  1  0  0  0
 33 32  1  0  0  0  0
 33 31  1  0  0  0  0
 35 32  1  0  0  0  0
 38 39  1  0  0  0  0
 38 44  1  0  0  0  0
 39 31  1  0  0  0  0
 40 45  1  0  0  0  0
 40 39  2  0  0  0  0
 41 40  1  0  0  0  0
 42 41  2  0  0  0  0
 42 43  1  0  0  0  0
 43 38  2  0  0  0  0
 46 42  1  0  0  0  0
M  END
>  <minimizedAffinity>
-6.36639738

$$$$

 OpenBabel03252500333D

 46 50  0  0  1  0  0  0  0  0999 V2000
   35.9340   28.8810   39.1650 N   0  0  0  0  0  0  0  0  0  0  0  0
   35.0460   27.9440   38.5590 C   0  0  0  0  0  0  0  0  0  0  0  0
   35.5890   27.4560   37.2260 C   0  0  0  0  0  0  0  0  0  0  0  0
   35.5720   28.6650   36.3030 C   0  0  0  0  0  0  0  0  0  0  0  0
   36.5650   29.6460   36.9130 C   0  0  0  0  0  0  0  0  0  0  0  0
   36.2210   29.9690   38.3560 C   0  0  2  0  0  0  0  0  0  0  0  0
   34.5840   27.2000   39.1810 H   0  0  0  0  0  0  0  0  0  0  0  0
   34.1610   28.5930   38.2610 H   0  0  0  0  0  0  0  0  0  0  0  0
   34.9930   26.6220   36.8350 H   0  0  0  0  0  0  0  0  0  0  0  0
   36.6620   27.1300   37.3190 H   0  0  0  0  0  0  0  0  0  0  0  0
   34.5480   29.0920   36.3050 H   0  0  0  0  0  0  0  0  0  0  0  0
   35.9250   28.4280   35.2970 H   0  0  0  0  0  0  0  0  0  0  0  0
   36.5020   30.6150   36.3620 H   0  0  0  0  0  0  0  0  0  0  0  0
   37.5570   29.1880   36.7880 H   0  0  0  0  0  0  0  0  0  0  0  0
   35.2080   30.4890   38.2210 H   0  0  0  0  0  0  0  0  0  0  0  0
   37.1250   31.0120   38.8110 C   0  0  0  0  0  0  0  0  0  0  0  0
   36.9740   31.9260   39.8300 C   0  0  0  0  0  0  0  0  0  0  0  0
   36.0730   31.8820   40.4180 H   0  0  0  0  0  0  0  0  0  0  0  0
   37.8580   32.9070   40.2140 C   0  0  0  0  0  3  0  0  0  0  0  0
   39.0380   33.0060   39.5130 C   0  0  0  0  0  0  0  0  0  0  0  0
   39.9290   33.9510   39.8570 N   0  0  0  0  0  0  0  0  0  0  0  0
   41.1060   34.1160   39.2260 C   0  0  0  0  0  0  0  0  0  0  0  0
   41.8190   34.8870   39.5140 H   0  0  0  0  0  0  0  0  0  0  0  0
   41.3630   33.2500   38.1830 C   0  0  0  0  0  3  0  0  0  0  0  0
   40.4890   32.2630   37.7860 C   0  0  0  0  0  3  0  0  0  0  0  0
   39.3160   32.1520   38.4700 C   0  0  0  0  0  0  0  0  0  0  0  0
   38.3670   31.2230   38.1810 C   0  0  0  0  0  3  0  0  0  0  0  0
   36.8670   28.3330   40.0780 C   0  0  0  0  0  0  0  0  0  0  0  0
   37.9110   28.6530   39.9130 H   0  0  0  0  0  0  0  0  0  0  0  0
   36.8190   27.2040   39.9920 H   0  0  0  0  0  0  0  0  0  0  0  0
   36.9090   27.7430   42.6150 C   0  0  1  0  0  0  0  0  0  0  0  0
   37.3570   29.0810   42.4850 C   0  0  0  0  0  0  0  0  0  0  0  0
   36.3900   28.6210   41.4570 C   0  0  1  0  0  0  0  0  0  0  0  0
   36.1600   27.4750   43.4050 H   0  0  0  0  0  0  0  0  0  0  0  0
   38.3700   29.3630   42.1140 H   0  0  0  0  0  0  0  0  0  0  0  0
   36.9680   29.8590   43.1880 H   0  0  0  0  0  0  0  0  0  0  0  0
   35.2990   28.7420   41.5570 H   0  0  0  0  0  0  0  0  0  0  0  0
   37.0000   25.3050   42.1070 C   0  0  0  0  0  0  0  0  0  0  0  0
   37.6990   26.5370   42.2520 C   0  0  0  0  0  0  0  0  0  0  0  0
   39.0550   26.5350   42.0540 C   0  0  0  0  0  0  0  0  0  0  0  0
   39.6570   25.3490   41.7280 N   0  0  0  0  0  0  0  0  0  0  0  0
   38.9760   24.1940   41.5950 C   0  0  0  0  0  0  0  0  0  0  0  0
   37.6220   24.1500   41.7840 N   0  0  0  0  0  0  0  0  0  0  0  0
   35.9260   25.2080   42.2450 H   0  0  0  0  0  0  0  0  0  0  0  0
   39.6040   27.4610   42.1600 H   0  0  0  0  0  0  0  0  0  0  0  0
   39.5760   23.3330   41.3350 H   0  0  0  0  0  0  0  0  0  0  0  0
  1 28  1  0  0  0  0
  2  1  1  0  0  0  0
  2  7  1  0  0  0  0
  3 10  1  0  0  0  0
  3  2  1  0  0  0  0
  4 11  1  0  0  0  0
  4  5  1  0  0  0  0
  4  3  1  0  0  0  0
  5  6  1  0  0  0  0
  6 15  1  6  0  0  0
  6 16  1  0  0  0  0
  6  1  1  0  0  0  0
  8  2  1  0  0  0  0
  9  3  1  0  0  0  0
 12  4  1  0  0  0  0
 13  5  1  0  0  0  0
 14  5  1  0  0  0  0
 16 17  1  0  0  0  0
 17 19  2  0  0  0  0
 17 18  1  0  0  0  0
 20 21  1  0  0  0  0
 20 19  1  0  0  0  0
 22 23  1  0  0  0  0
 22 21  2  0  0  0  0
 24 22  1  0  0  0  0
 25 24  2  0  0  0  0
 25 26  1  0  0  0  0
 26 20  2  0  0  0  0
 27 26  1  0  0  0  0
 27 16  2  0  0  0  0
 28 33  1  0  0  0  0
 29 28  1  0  0  0  0
 30 28  1  0  0  0  0
 31 34  1  1  0  0  0
 32 31  1  0  0  0  0
 32 36  1  0  0  0  0
 33 37  1  1  0  0  0
 33 32  1  0  0  0  0
 33 31  1  0  0  0  0
 35 32  1  0  0  0  0
 38 44  1  0  0  0  0
 38 39  1  0  0  0  0
 39 31  1  0  0  0  0
 40 45  1  0  0  0  0
 40 39  2  0  0  0  0
 41 40  1  0  0  0  0
 42 41  2  0  0  0  0
 42 43  1  0  0  0  0
 43 38  2  0  0  0  0
 46 42  1  0  0  0  0
M  END
>  <minimizedAffinity>
-6.15791941

$$$$

 OpenBabel03252500333D

 46 50  0  0  1  0  0  0  0  0999 V2000
   36.7240   26.3870   40.2930 N   0  0  0  0  0  0  0  0  0  0  0  0
   36.4310   25.0710   39.8290 C   0  0  0  0  0  0  0  0  0  0  0  0
   37.0790   24.8070   38.4800 C   0  0  0  0  0  0  0  0  0  0  0  0
   36.3820   25.7340   37.4960 C   0  0  0  0  0  0  0  0  0  0  0  0
   36.7410   27.1420   37.9530 C   0  0  0  0  0  0  0  0  0  0  0  0
   36.3530   27.3800   39.4010 C   0  0  2  0  0  0  0  0  0  0  0  0
   36.4610   24.2600   40.5340 H   0  0  0  0  0  0  0  0  0  0  0  0
   35.3230   25.1320   39.5810 H   0  0  0  0  0  0  0  0  0  0  0  0
   36.9910   23.7520   38.1960 H   0  0  0  0  0  0  0  0  0  0  0  0
   38.1660   25.0970   38.4890 H   0  0  0  0  0  0  0  0  0  0  0  0
   35.2880   25.5650   37.5720 H   0  0  0  0  0  0  0  0  0  0  0  0
   36.7540   25.6170   36.4760 H   0  0  0  0  0  0  0  0  0  0  0  0
   36.1490   27.8780   37.3550 H   0  0  0  0  0  0  0  0  0  0  0  0
   37.8170   27.2570   37.7590 H   0  0  0  0  0  0  0  0  0  0  0  0
   35.2130   27.2820   39.3340 H   0  0  0  0  0  0  0  0  0  0  0  0
   36.5960   28.7800   39.7080 C   0  0  0  0  0  0  0  0  0  0  0  0
   35.8470   29.6600   40.4560 C   0  0  0  0  0  0  0  0  0  0  0  0
   34.9490   29.2910   40.9200 H   0  0  0  0  0  0  0  0  0  0  0  0
   36.1150   30.9860   40.7070 C   0  0  0  0  0  3  0  0  0  0  0  0
   37.2590   31.5160   40.1560 C   0  0  0  0  0  0  0  0  0  0  0  0
   37.5570   32.8070   40.3770 N   0  0  0  0  0  0  0  0  0  0  0  0
   38.6550   33.4040   39.8780 C   0  0  0  0  0  0  0  0  0  0  0  0
   38.8840   34.4520   40.0640 H   0  0  0  0  0  0  0  0  0  0  0  0
   39.4810   32.6110   39.1080 C   0  0  0  0  0  3  0  0  0  0  0  0
   39.2280   31.2820   38.8480 C   0  0  0  0  0  3  0  0  0  0  0  0
   38.0990   30.7430   39.3860 C   0  0  0  0  0  0  0  0  0  0  0  0
   37.7310   29.4460   39.2070 C   0  0  0  0  0  3  0  0  0  0  0  0
   37.8510   26.4960   41.1430 C   0  0  0  0  0  0  0  0  0  0  0  0
   38.4470   27.4140   40.9970 H   0  0  0  0  0  0  0  0  0  0  0  0
   38.5190   25.6000   40.9540 H   0  0  0  0  0  0  0  0  0  0  0  0
   37.9300   27.2960   43.6210 C   0  0  1  0  0  0  0  0  0  0  0  0
   36.5850   27.3960   43.1870 C   0  0  0  0  0  0  0  0  0  0  0  0
   37.3920   26.3270   42.5470 C   0  0  1  0  0  0  0  0  0  0  0  0
   38.1670   26.8440   44.6190 H   0  0  0  0  0  0  0  0  0  0  0  0
   36.2090   28.1990   42.5100 H   0  0  0  0  0  0  0  0  0  0  0  0
   35.7660   27.0350   43.8590 H   0  0  0  0  0  0  0  0  0  0  0  0
   37.4430   25.2960   42.9340 H   0  0  0  0  0  0  0  0  0  0  0  0
   38.6960   29.5700   42.9450 C   0  0  0  0  0  0  0  0  0  0  0  0
   39.0300   28.2130   43.2180 C   0  0  0  0  0  0  0  0  0  0  0  0
   40.3400   27.8330   43.0890 C   0  0  0  0  0  0  0  0  0  0  0  0
   41.2500   28.7820   42.7060 N   0  0  0  0  0  0  0  0  0  0  0  0
   40.9130   30.0620   42.4530 C   0  0  0  0  0  0  0  0  0  0  0  0
   39.6170   30.4830   42.5690 N   0  0  0  0  0  0  0  0  0  0  0  0
   37.6850   29.9620   43.0200 H   0  0  0  0  0  0  0  0  0  0  0  0
   40.6140   26.8070   43.2920 H   0  0  0  0  0  0  0  0  0  0  0  0
   41.7310   30.7050   42.1590 H   0  0  0  0  0  0  0  0  0  0  0  0
  1 28  1  0  0  0  0
  2  1  1  0  0  0  0
  2  7  1  0  0  0  0
  3 10  1  0  0  0  0
  3  2  1  0  0  0  0
  4 11  1  0  0  0  0
  4  5  1  0  0  0  0
  4  3  1  0  0  0  0
  5  6  1  0  0  0  0
  6 15  1  6  0  0  0
  6 16  1  0  0  0  0
  6  1  1  0  0  0  0
  8  2  1  0  0  0  0
  9  3  1  0  0  0  0
 12  4  1  0  0  0  0
 13  5  1  0  0  0  0
 14  5  1  0  0  0  0
 16 17  1  0  0  0  0
 17 19  2  0  0  0  0
 17 18  1  0  0  0  0
 20 21  1  0  0  0  0
 20 19  1  0  0  0  0
 22 23  1  0  0  0  0
 22 21  2  0  0  0  0
 24 22  1  0  0  0  0
 25 24  2  0  0  0  0
 25 26  1  0  0  0  0
 26 20  2  0  0  0  0
 27 26  1  0  0  0  0
 27 16  2  0  0  0  0
 28 33  1  0  0  0  0
 29 28  1  0  0  0  0
 30 28  1  0  0  0  0
 31 34  1  1  0  0  0
 32 31  1  0  0  0  0
 32 36  1  0  0  0  0
 33 37  1  1  0  0  0
 33 32  1  0  0  0  0
 33 31  1  0  0  0  0
 35 32  1  0  0  0  0
 38 44  1  0  0  0  0
 38 39  1  0  0  0  0
 39 31  1  0  0  0  0
 40 39  2  0  0  0  0
 40 45  1  0  0  0  0
 41 40  1  0  0  0  0
 42 43  1  0  0  0  0
 42 41  2  0  0  0  0
 43 38  2  0  0  0  0
 46 42  1  0  0  0  0
M  END
>  <minimizedAffinity>
-5.98097038

$$$$

 OpenBabel03252500333D

 46 50  0  0  1  0  0  0  0  0999 V2000
   36.9950   29.3800   41.4190 N   0  0  0  0  0  0  0  0  0  0  0  0
   37.2990   29.0990   42.7830 C   0  0  0  0  0  0  0  0  0  0  0  0
   38.1640   27.8550   42.9080 C   0  0  0  0  0  0  0  0  0  0  0  0
   37.2930   26.6950   42.4540 C   0  0  0  0  0  0  0  0  0  0  0  0
   37.0140   26.9600   40.9800 C   0  0  0  0  0  0  0  0  0  0  0  0
   36.3840   28.3240   40.7630 C   0  0  2  0  0  0  0  0  0  0  0  0
   37.5530   29.9170   43.4320 H   0  0  0  0  0  0  0  0  0  0  0  0
   36.2960   28.7640   43.2010 H   0  0  0  0  0  0  0  0  0  0  0  0
   38.5320   27.7280   43.9340 H   0  0  0  0  0  0  0  0  0  0  0  0
   39.0430   27.9000   42.2060 H   0  0  0  0  0  0  0  0  0  0  0  0
   36.3510   26.7150   43.0400 H   0  0  0  0  0  0  0  0  0  0  0  0
   37.8070   25.7340   42.5210 H   0  0  0  0  0  0  0  0  0  0  0  0
   36.2640   26.2170   40.6150 H   0  0  0  0  0  0  0  0  0  0  0  0
   37.9760   26.8300   40.4630 H   0  0  0  0  0  0  0  0  0  0  0  0
   35.3900   28.1890   41.3190 H   0  0  0  0  0  0  0  0  0  0  0  0
   36.0210   28.4340   39.3600 C   0  0  0  0  0  0  0  0  0  0  0  0
   36.7990   28.2810   38.2350 C   0  0  0  0  0  0  0  0  0  0  0  0
   37.8350   28.0180   38.3680 H   0  0  0  0  0  0  0  0  0  0  0  0
   36.4090   28.4090   36.9220 C   0  0  0  0  0  3  0  0  0  0  0  0
   35.0920   28.7260   36.6800 C   0  0  0  0  0  0  0  0  0  0  0  0
   34.6700   28.8600   35.4120 N   0  0  0  0  0  0  0  0  0  0  0  0
   33.4010   29.1680   35.0880 C   0  0  0  0  0  0  0  0  0  0  0  0
   33.0720   29.2740   34.0560 H   0  0  0  0  0  0  0  0  0  0  0  0
   32.5300   29.3450   36.1440 C   0  0  0  0  0  3  0  0  0  0  0  0
   32.9050   29.2200   37.4630 C   0  0  0  0  0  3  0  0  0  0  0  0
   34.2050   28.9060   37.7180 C   0  0  0  0  0  0  0  0  0  0  0  0
   34.7050   28.7540   38.9730 C   0  0  0  0  0  3  0  0  0  0  0  0
   37.8730   30.2840   40.7740 C   0  0  0  0  0  0  0  0  0  0  0  0
   38.3510   29.8850   39.8610 H   0  0  0  0  0  0  0  0  0  0  0  0
   38.6870   30.5670   41.5100 H   0  0  0  0  0  0  0  0  0  0  0  0
   37.8770   32.7120   39.8330 C   0  0  1  0  0  0  0  0  0  0  0  0
   36.8780   31.9900   39.1340 C   0  0  0  0  0  0  0  0  0  0  0  0
   37.1360   31.5510   40.5280 C   0  0  1  0  0  0  0  0  0  0  0  0
   37.6580   33.7410   40.2220 H   0  0  0  0  0  0  0  0  0  0  0  0
   37.0970   31.2420   38.3360 H   0  0  0  0  0  0  0  0  0  0  0  0
   35.8790   32.4640   38.9620 H   0  0  0  0  0  0  0  0  0  0  0  0
   36.5830   31.9450   41.3970 H   0  0  0  0  0  0  0  0  0  0  0  0
   40.2040   32.9900   40.6810 C   0  0  0  0  0  0  0  0  0  0  0  0
   39.3420   32.5600   39.6320 C   0  0  0  0  0  0  0  0  0  0  0  0
   39.9140   32.0390   38.5010 C   0  0  0  0  0  0  0  0  0  0  0  0
   41.2800   31.9610   38.4480 N   0  0  0  0  0  0  0  0  0  0  0  0
   42.0780   32.3730   39.4530 C   0  0  0  0  0  0  0  0  0  0  0  0
   41.5490   32.9000   40.5990 N   0  0  0  0  0  0  0  0  0  0  0  0
   39.8420   33.4160   41.6130 H   0  0  0  0  0  0  0  0  0  0  0  0
   39.2770   31.7070   37.6930 H   0  0  0  0  0  0  0  0  0  0  0  0
   43.1380   32.2540   39.2790 H   0  0  0  0  0  0  0  0  0  0  0  0
  1  2  1  0  0  0  0
  2  3  1  0  0  0  0
  2  8  1  0  0  0  0
  2  7  1  0  0  0  0
  3  9  1  0  0  0  0
  4 12  1  0  0  0  0
  4  3  1  0  0  0  0
  4 11  1  0  0  0  0
  5  4  1  0  0  0  0
  6  5  1  0  0  0  0
  6 15  1  1  0  0  0
  6  1  1  0  0  0  0
 10  3  1  0  0  0  0
 13  5  1  0  0  0  0
 14  5  1  0  0  0  0
 16  6  1  0  0  0  0
 17 18  1  0  0  0  0
 17 16  2  0  0  0  0
 19 17  1  0  0  0  0
 20 19  2  0  0  0  0
 20 26  1  0  0  0  0
 21 20  1  0  0  0  0
 22 21  2  0  0  0  0
 22 24  1  0  0  0  0
 23 22  1  0  0  0  0
 24 25  2  0  0  0  0
 25 26  1  0  0  0  0
 26 27  2  0  0  0  0
 27 16  1  0  0  0  0
 28  1  1  0  0  0  0
 28 30  1  0  0  0  0
 29 28  1  0  0  0  0
 31 34  1  1  0  0  0
 31 33  1  0  0  0  0
 32 31  1  0  0  0  0
 32 33  1  0  0  0  0
 33 28  1  0  0  0  0
 33 37  1  1  0  0  0
 35 32  1  0  0  0  0
 36 32  1  0  0  0  0
 38 44  1  0  0  0  0
 39 31  1  0  0  0  0
 39 38  2  0  0  0  0
 40 39  1  0  0  0  0
 41 40  2  0  0  0  0
 41 42  1  0  0  0  0
 42 43  2  0  0  0  0
 43 38  1  0  0  0  0
 45 40  1  0  0  0  0
 46 42  1  0  0  0  0
M  END
>  <minimizedAffinity>
-5.93410635

$$$$

 OpenBabel03252500333D

 46 50  0  0  1  0  0  0  0  0999 V2000
   39.4410   30.1030   42.1880 N   0  0  0  0  0  0  0  0  0  0  0  0
   40.3380   31.1470   42.5610 C   0  0  0  0  0  0  0  0  0  0  0  0
   41.7780   30.7680   42.2560 C   0  0  0  0  0  0  0  0  0  0  0  0
   42.1110   29.6140   43.1880 C   0  0  0  0  0  0  0  0  0  0  0  0
   41.1960   28.4760   42.7560 C   0  0  0  0  0  0  0  0  0  0  0  0
   39.7350   28.8870   42.7830 C   0  0  2  0  0  0  0  0  0  0  0  0
   40.0620   32.1620   42.3440 H   0  0  0  0  0  0  0  0  0  0  0  0
   40.2950   31.1220   43.6960 H   0  0  0  0  0  0  0  0  0  0  0  0
   42.4520   31.6230   42.3900 H   0  0  0  0  0  0  0  0  0  0  0  0
   41.8820   30.3800   41.2040 H   0  0  0  0  0  0  0  0  0  0  0  0
   41.8810   29.9270   44.2280 H   0  0  0  0  0  0  0  0  0  0  0  0
   43.1400   29.2660   43.0740 H   0  0  0  0  0  0  0  0  0  0  0  0
   41.2890   27.6380   43.4880 H   0  0  0  0  0  0  0  0  0  0  0  0
   41.5490   28.1660   41.7610 H   0  0  0  0  0  0  0  0  0  0  0  0
   39.5910   29.0840   43.9040 H   0  0  0  0  0  0  0  0  0  0  0  0
   38.9310   27.7100   42.5000 C   0  0  0  0  0  0  0  0  0  0  0  0
   37.6530   27.3980   42.9050 C   0  0  0  0  0  0  0  0  0  0  0  0
   37.1240   28.1170   43.5070 H   0  0  0  0  0  0  0  0  0  0  0  0
   36.9370   26.2580   42.6190 C   0  0  0  0  0  3  0  0  0  0  0  0
   37.5490   25.3050   41.8370 C   0  0  0  0  0  0  0  0  0  0  0  0
   36.8840   24.1780   41.5340 N   0  0  0  0  0  0  0  0  0  0  0  0
   37.4080   23.1970   40.7770 C   0  0  0  0  0  0  0  0  0  0  0  0
   36.8590   22.2880   40.5390 H   0  0  0  0  0  0  0  0  0  0  0  0
   38.6910   23.4050   40.3140 C   0  0  0  0  0  3  0  0  0  0  0  0
   39.4210   24.5400   40.5910 C   0  0  0  0  0  3  0  0  0  0  0  0
   38.8290   25.4920   41.3630 C   0  0  0  0  0  0  0  0  0  0  0  0
   39.4370   26.6570   41.7120 C   0  0  0  0  0  3  0  0  0  0  0  0
   38.8860   30.2120   40.8900 C   0  0  0  0  0  0  0  0  0  0  0  0
   38.6020   29.2470   40.4320 H   0  0  0  0  0  0  0  0  0  0  0  0
   39.6520   30.7150   40.2230 H   0  0  0  0  0  0  0  0  0  0  0  0
   37.7860   32.4080   40.0240 C   0  0  1  0  0  0  0  0  0  0  0  0
   36.8800   31.3490   39.7620 C   0  0  0  0  0  0  0  0  0  0  0  0
   37.7540   31.1730   40.9480 C   0  0  1  0  0  0  0  0  0  0  0  0
   37.4150   33.3680   40.4690 H   0  0  0  0  0  0  0  0  0  0  0  0
   37.0140   30.6080   38.9390 H   0  0  0  0  0  0  0  0  0  0  0  0
   35.7940   31.4910   39.9870 H   0  0  0  0  0  0  0  0  0  0  0  0
   37.4640   31.4910   41.9640 H   0  0  0  0  0  0  0  0  0  0  0  0
   39.2280   31.9870   38.0350 C   0  0  0  0  0  0  0  0  0  0  0  0
   39.0450   32.6630   39.2740 C   0  0  0  0  0  0  0  0  0  0  0  0
   40.0390   33.5020   39.7040 C   0  0  0  0  0  0  0  0  0  0  0  0
   41.1500   33.6400   38.9140 N   0  0  0  0  0  0  0  0  0  0  0  0
   41.3030   32.9910   37.7440 C   0  0  0  0  0  0  0  0  0  0  0  0
   40.3360   32.1440   37.2780 N   0  0  0  0  0  0  0  0  0  0  0  0
   38.4950   31.3020   37.6150 H   0  0  0  0  0  0  0  0  0  0  0  0
   39.9190   34.0250   40.6430 H   0  0  0  0  0  0  0  0  0  0  0  0
   42.2280   33.1930   37.2220 H   0  0  0  0  0  0  0  0  0  0  0  0
  1  2  1  0  0  0  0
  1  6  1  0  0  0  0
  2  8  1  0  0  0  0
  3  9  1  0  0  0  0
  3  2  1  0  0  0  0
  3  4  1  0  0  0  0
  4 11  1  0  0  0  0
  5  6  1  0  0  0  0
  5  4  1  0  0  0  0
  5 13  1  0  0  0  0
  6 15  1  1  0  0  0
  7  2  1  0  0  0  0
 10  3  1  0  0  0  0
 12  4  1  0  0  0  0
 14  5  1  0  0  0  0
 16  6  1  0  0  0  0
 16 17  1  0  0  0  0
 17 18  1  0  0  0  0
 19 17  2  0  0  0  0
 20 19  1  0  0  0  0
 21 20  1  0  0  0  0
 22 21  2  0  0  0  0
 23 22  1  0  0  0  0
 24 25  2  0  0  0  0
 24 22  1  0  0  0  0
 25 26  1  0  0  0  0
 26 27  1  0  0  0  0
 26 20  2  0  0  0  0
 27 16  2  0  0  0  0
 28 33  1  0  0  0  0
 28  1  1  0  0  0  0
 29 28  1  0  0  0  0
 30 28  1  0  0  0  0
 31 34  1  1  0  0  0
 31 33  1  0  0  0  0
 32 36  1  0  0  0  0
 32 31  1  0  0  0  0
 32 33  1  0  0  0  0
 33 37  1  1  0  0  0
 35 32  1  0  0  0  0
 38 39  1  0  0  0  0
 39 40  2  0  0  0  0
 39 31  1  0  0  0  0
 40 45  1  0  0  0  0
 41 40  1  0  0  0  0
 42 41  2  0  0  0  0
 43 42  1  0  0  0  0
 43 38  2  0  0  0  0
 44 38  1  0  0  0  0
 46 42  1  0  0  0  0
M  END
>  <minimizedAffinity>
-5.89410925

$$$$

 OpenBabel03252500333D

 46 50  0  0  1  0  0  0  0  0999 V2000
   37.6130   29.6680   41.7560 N   0  0  0  0  0  0  0  0  0  0  0  0
   38.3730   29.6000   42.9610 C   0  0  0  0  0  0  0  0  0  0  0  0
   39.1980   28.3250   43.0190 C   0  0  0  0  0  0  0  0  0  0  0  0
   38.1970   27.1860   43.1220 C   0  0  0  0  0  0  0  0  0  0  0  0
   37.4210   27.2160   41.8120 C   0  0  0  0  0  0  0  0  0  0  0  0
   36.7860   28.5730   41.5650 C   0  0  2  0  0  0  0  0  0  0  0  0
   38.8580   30.4920   43.3120 H   0  0  0  0  0  0  0  0  0  0  0  0
   37.5740   29.4320   43.7530 H   0  0  0  0  0  0  0  0  0  0  0  0
   39.9010   28.3440   43.8600 H   0  0  0  0  0  0  0  0  0  0  0  0
   39.7730   28.1700   42.0630 H   0  0  0  0  0  0  0  0  0  0  0  0
   37.5230   27.3900   43.9800 H   0  0  0  0  0  0  0  0  0  0  0  0
   38.6800   26.2090   43.1930 H   0  0  0  0  0  0  0  0  0  0  0  0
   36.5740   26.4910   41.8750 H   0  0  0  0  0  0  0  0  0  0  0  0
   38.1360   26.9150   41.0320 H   0  0  0  0  0  0  0  0  0  0  0  0
   36.0500   28.6240   42.4430 H   0  0  0  0  0  0  0  0  0  0  0  0
   35.9540   28.4710   40.3780 C   0  0  0  0  0  0  0  0  0  0  0  0
   34.8420   29.1970   40.0170 C   0  0  0  0  0  0  0  0  0  0  0  0
   34.5170   29.9850   40.6750 H   0  0  0  0  0  0  0  0  0  0  0  0
   34.0770   29.0520   38.8820 C   0  0  0  0  0  3  0  0  0  0  0  0
   34.4490   28.0730   37.9890 C   0  0  0  0  0  0  0  0  0  0  0  0
   33.7290   27.8990   36.8680 N   0  0  0  0  0  0  0  0  0  0  0  0
   34.0240   26.9670   35.9430 C   0  0  0  0  0  0  0  0  0  0  0  0
   33.4310   26.8360   35.0390 H   0  0  0  0  0  0  0  0  0  0  0  0
   35.1250   26.1780   36.2040 C   0  0  0  0  0  3  0  0  0  0  0  0
   35.9000   26.3100   37.3350 C   0  0  0  0  0  3  0  0  0  0  0  0
   35.5450   27.2750   38.2280 C   0  0  0  0  0  0  0  0  0  0  0  0
   36.2230   27.5110   39.3830 C   0  0  0  0  0  3  0  0  0  0  0  0
   38.2270   30.3660   40.6880 C   0  0  0  0  0  0  0  0  0  0  0  0
   38.2170   29.8260   39.7240 H   0  0  0  0  0  0  0  0  0  0  0  0
   39.3040   30.5680   40.9760 H   0  0  0  0  0  0  0  0  0  0  0  0
   38.2470   32.7590   39.6600 C   0  0  1  0  0  0  0  0  0  0  0  0
   37.0100   32.1600   39.3130 C   0  0  0  0  0  0  0  0  0  0  0  0
   37.6060   31.7140   40.5970 C   0  0  1  0  0  0  0  0  0  0  0  0
   38.2740   33.8130   40.0420 H   0  0  0  0  0  0  0  0  0  0  0  0
   36.8980   31.3780   38.5260 H   0  0  0  0  0  0  0  0  0  0  0  0
   36.0680   32.7560   39.4080 H   0  0  0  0  0  0  0  0  0  0  0  0
   37.3790   32.1880   41.5660 H   0  0  0  0  0  0  0  0  0  0  0  0
   40.7350   32.7350   39.8010 C   0  0  0  0  0  0  0  0  0  0  0  0
   39.5630   32.4160   39.0580 C   0  0  0  0  0  0  0  0  0  0  0  0
   39.7180   31.8180   37.8350 C   0  0  0  0  0  0  0  0  0  0  0  0
   40.9910   31.5630   37.4000 N   0  0  0  0  0  0  0  0  0  0  0  0
   42.0870   31.8730   38.1190 C   0  0  0  0  0  0  0  0  0  0  0  0
   41.9790   32.4700   39.3440 N   0  0  0  0  0  0  0  0  0  0  0  0
   40.7120   33.2100   40.7780 H   0  0  0  0  0  0  0  0  0  0  0  0
   38.8390   31.5680   37.2560 H   0  0  0  0  0  0  0  0  0  0  0  0
   43.0300   31.6160   37.6560 H   0  0  0  0  0  0  0  0  0  0  0  0
  1  2  1  0  0  0  0
  2  3  1  0  0  0  0
  2  7  1  0  0  0  0
  2  8  1  0  0  0  0
  3  4  1  0  0  0  0
  3  9  1  0  0  0  0
  4 12  1  0  0  0  0
  4 11  1  0  0  0  0
  5 13  1  0  0  0  0
  5  4  1  0  0  0  0
  6  1  1  0  0  0  0
  6  5  1  0  0  0  0
  6 15  1  1  0  0  0
 10  3  1  0  0  0  0
 14  5  1  0  0  0  0
 16  6  1  0  0  0  0
 17 16  1  0  0  0  0
 17 18  1  0  0  0  0
 19 17  2  0  0  0  0
 20 26  1  0  0  0  0
 20 19  1  0  0  0  0
 21 20  2  0  0  0  0
 22 24  2  0  0  0  0
 22 21  1  0  0  0  0
 23 22  1  0  0  0  0
 24 25  1  0  0  0  0
 25 26  2  0  0  0  0
 26 27  1  0  0  0  0
 27 16  2  0  0  0  0
 28 30  1  0  0  0  0
 28  1  1  0  0  0  0
 29 28  1  0  0  0  0
 31 34  1  1  0  0  0
 31 33  1  0  0  0  0
 32 36  1  0  0  0  0
 32 31  1  0  0  0  0
 32 33  1  0  0  0  0
 33 28  1  0  0  0  0
 33 37  1  1  0  0  0
 35 32  1  0  0  0  0
 38 44  1  0  0  0  0
 39 31  1  0  0  0  0
 39 38  2  0  0  0  0
 40 39  1  0  0  0  0
 41 40  2  0  0  0  0
 41 42  1  0  0  0  0
 42 43  2  0  0  0  0
 43 38  1  0  0  0  0
 45 40  1  0  0  0  0
 46 42  1  0  0  0  0
M  END
>  <minimizedAffinity>
-5.82862616

$$$$

 OpenBabel03252500333D

 46 50  0  0  1  0  0  0  0  0999 V2000
   39.1220   30.9910   41.3930 N   0  0  0  0  0  0  0  0  0  0  0  0
   39.9220   32.1660   41.5020 C   0  0  0  0  0  0  0  0  0  0  0  0
   41.4030   31.8240   41.4960 C   0  0  0  0  0  0  0  0  0  0  0  0
   41.6570   31.0550   42.7840 C   0  0  0  0  0  0  0  0  0  0  0  0
   40.8500   29.7710   42.6470 C   0  0  0  0  0  0  0  0  0  0  0  0
   39.3830   30.0540   42.3790 C   0  0  2  0  0  0  0  0  0  0  0  0
   39.6370   33.0350   40.9380 H   0  0  0  0  0  0  0  0  0  0  0  0
   39.7340   32.5000   42.5720 H   0  0  0  0  0  0  0  0  0  0  0  0
   42.0200   32.7270   41.4180 H   0  0  0  0  0  0  0  0  0  0  0  0
   41.6560   31.1310   40.6460 H   0  0  0  0  0  0  0  0  0  0  0  0
   41.2830   31.6630   43.6330 H   0  0  0  0  0  0  0  0  0  0  0  0
   42.7050   30.7710   42.9020 H   0  0  0  0  0  0  0  0  0  0  0  0
   40.8800   29.2190   43.6180 H   0  0  0  0  0  0  0  0  0  0  0  0
   41.3400   29.1900   41.8520 H   0  0  0  0  0  0  0  0  0  0  0  0
   39.0890   30.5850   43.3520 H   0  0  0  0  0  0  0  0  0  0  0  0
   38.6680   28.7890   42.4070 C   0  0  0  0  0  0  0  0  0  0  0  0
   37.4460   28.4800   42.9600 C   0  0  0  0  0  0  0  0  0  0  0  0
   36.8920   29.2710   43.4360 H   0  0  0  0  0  0  0  0  0  0  0  0
   36.8160   27.2570   42.9710 C   0  0  0  0  0  3  0  0  0  0  0  0
   37.4630   26.2050   42.3630 C   0  0  0  0  0  0  0  0  0  0  0  0
   36.8810   24.9940   42.3510 N   0  0  0  0  0  0  0  0  0  0  0  0
   37.4430   23.9140   41.7790 C   0  0  0  0  0  0  0  0  0  0  0  0
   36.9610   22.9380   41.7780 H   0  0  0  0  0  0  0  0  0  0  0  0
   38.6760   24.1110   41.1910 C   0  0  0  0  0  3  0  0  0  0  0  0
   39.3200   25.3280   41.1710 C   0  0  0  0  0  3  0  0  0  0  0  0
   38.6930   26.3780   41.7690 C   0  0  0  0  0  0  0  0  0  0  0  0
   39.2170   27.6310   41.8210 C   0  0  0  0  0  3  0  0  0  0  0  0
   38.7350   30.6380   40.0770 C   0  0  0  0  0  0  0  0  0  0  0  0
   38.7050   29.5510   39.8850 H   0  0  0  0  0  0  0  0  0  0  0  0
   39.4720   31.1100   39.3570 H   0  0  0  0  0  0  0  0  0  0  0  0
   36.3160   30.4810   39.1230 C   0  0  1  0  0  0  0  0  0  0  0  0
   36.2100   30.8710   40.4810 C   0  0  0  0  0  0  0  0  0  0  0  0
   37.4410   31.3080   39.7780 C   0  0  1  0  0  0  0  0  0  0  0  0
   35.7110   31.0060   38.3380 H   0  0  0  0  0  0  0  0  0  0  0  0
   36.3560   30.1750   41.3400 H   0  0  0  0  0  0  0  0  0  0  0  0
   35.5040   31.6930   40.7600 H   0  0  0  0  0  0  0  0  0  0  0  0
   37.5280   32.2770   39.2570 H   0  0  0  0  0  0  0  0  0  0  0  0
   37.3240   28.9970   37.3920 C   0  0  0  0  0  0  0  0  0  0  0  0
   36.6650   29.1160   38.6490 C   0  0  0  0  0  0  0  0  0  0  0  0
   36.3870   27.9660   39.3410 C   0  0  0  0  0  0  0  0  0  0  0  0
   36.7610   26.7730   38.7830 N   0  0  0  0  0  0  0  0  0  0  0  0
   37.3850   26.6830   37.5930 C   0  0  0  0  0  0  0  0  0  0  0  0
   37.6810   27.8040   36.8680 N   0  0  0  0  0  0  0  0  0  0  0  0
   37.5840   29.8510   36.7720 H   0  0  0  0  0  0  0  0  0  0  0  0
   35.8870   28.0350   40.2980 H   0  0  0  0  0  0  0  0  0  0  0  0
   37.6230   25.6780   37.2710 H   0  0  0  0  0  0  0  0  0  0  0  0
  1  2  1  0  0  0  0
  1  6  1  0  0  0  0
  2  8  1  0  0  0  0
  3  2  1  0  0  0  0
  3  4  1  0  0  0  0
  4 12  1  0  0  0  0
  4 11  1  0  0  0  0
  5  4  1  0  0  0  0
  5 13  1  0  0  0  0
  6 16  1  0  0  0  0
  6  5  1  0  0  0  0
  6 15  1  1  0  0  0
  7  2  1  0  0  0  0
  9  3  1  0  0  0  0
 10  3  1  0  0  0  0
 14  5  1  0  0  0  0
 16 17  1  0  0  0  0
 17 19  2  0  0  0  0
 17 18  1  0  0  0  0
 20 19  1  0  0  0  0
 21 20  1  0  0  0  0
 22 21  2  0  0  0  0
 23 22  1  0  0  0  0
 24 22  1  0  0  0  0
 25 24  2  0  0  0  0
 25 26  1  0  0  0  0
 26 27  1  0  0  0  0
 26 20  2  0  0  0  0
 27 16  2  0  0  0  0
 28  1  1  0  0  0  0
 29 28  1  0  0  0  0
 30 28  1  0  0  0  0
 31 34  1  6  0  0  0
 31 33  1  0  0  0  0
 31 32  1  0  0  0  0
 32 36  1  0  0  0  0
 32 35  1  0  0  0  0
 33 37  1  6  0  0  0
 33 28  1  0  0  0  0
 33 32  1  0  0  0  0
 38 39  1  0  0  0  0
 39 31  1  0  0  0  0
 39 40  2  0  0  0  0
 40 45  1  0  0  0  0
 41 40  1  0  0  0  0
 42 41  2  0  0  0  0
 43 38  2  0  0  0  0
 43 42  1  0  0  0  0
 44 38  1  0  0  0  0
 46 42  1  0  0  0  0
M  END
>  <minimizedAffinity>
-5.6578145

$$$$

 OpenBabel03252500333D

 46 50  0  0  1  0  0  0  0  0999 V2000
   36.7480   27.7800   39.7530 N   0  0  0  0  0  0  0  0  0  0  0  0
   36.2090   26.5740   39.2170 C   0  0  0  0  0  0  0  0  0  0  0  0
   36.9770   26.1300   37.9830 C   0  0  0  0  0  0  0  0  0  0  0  0
   36.7070   27.1860   36.9230 C   0  0  0  0  0  0  0  0  0  0  0  0
   37.3330   28.4640   37.4640 C   0  0  0  0  0  0  0  0  0  0  0  0
   36.7910   28.8180   38.8370 C   0  0  2  0  0  0  0  0  0  0  0  0
   35.9180   25.7940   39.8970 H   0  0  0  0  0  0  0  0  0  0  0  0
   35.2080   26.9110   38.7960 H   0  0  0  0  0  0  0  0  0  0  0  0
   36.6710   25.1260   37.6640 H   0  0  0  0  0  0  0  0  0  0  0  0
   38.0870   26.1330   38.1730 H   0  0  0  0  0  0  0  0  0  0  0  0
   35.6080   27.3020   36.8180 H   0  0  0  0  0  0  0  0  0  0  0  0
   37.1960   26.9600   35.9730 H   0  0  0  0  0  0  0  0  0  0  0  0
   37.0530   29.3150   36.7980 H   0  0  0  0  0  0  0  0  0  0  0  0
   38.4200   28.2970   37.4490 H   0  0  0  0  0  0  0  0  0  0  0  0
   35.6890   29.0130   38.5860 H   0  0  0  0  0  0  0  0  0  0  0  0
   37.3290   30.1150   39.2120 C   0  0  0  0  0  0  0  0  0  0  0  0
   36.7770   31.1050   39.9950 C   0  0  0  0  0  0  0  0  0  0  0  0
   35.8110   30.9220   40.4330 H   0  0  0  0  0  0  0  0  0  0  0  0
   37.3240   32.3270   40.3100 C   0  0  0  0  0  3  0  0  0  0  0  0
   38.5670   32.6160   39.7960 C   0  0  0  0  0  0  0  0  0  0  0  0
   39.1370   33.7990   40.0810 N   0  0  0  0  0  0  0  0  0  0  0  0
   40.3490   34.1610   39.6210 C   0  0  0  0  0  0  0  0  0  0  0  0
   40.7980   35.1230   39.8580 H   0  0  0  0  0  0  0  0  0  0  0  0
   40.9950   33.2400   38.8220 C   0  0  0  0  0  3  0  0  0  0  0  0
   40.4620   32.0130   38.4960 C   0  0  0  0  0  3  0  0  0  0  0  0
   39.2320   31.7120   38.9980 C   0  0  0  0  0  0  0  0  0  0  0  0
   38.5920   30.5380   38.7540 C   0  0  0  0  0  3  0  0  0  0  0  0
   37.7130   27.6130   40.7750 C   0  0  0  0  0  0  0  0  0  0  0  0
   38.6380   28.2000   40.6310 H   0  0  0  0  0  0  0  0  0  0  0  0
   37.9890   26.5140   40.8210 H   0  0  0  0  0  0  0  0  0  0  0  0
   37.8160   27.5240   43.3760 C   0  0  1  0  0  0  0  0  0  0  0  0
   37.6570   28.8830   43.0060 C   0  0  0  0  0  0  0  0  0  0  0  0
   37.0590   27.8870   42.0820 C   0  0  1  0  0  0  0  0  0  0  0  0
   37.1970   27.0910   44.2050 H   0  0  0  0  0  0  0  0  0  0  0  0
   38.4770   29.5120   42.5860 H   0  0  0  0  0  0  0  0  0  0  0  0
   36.9210   29.5180   43.5600 H   0  0  0  0  0  0  0  0  0  0  0  0
   36.0160   27.5370   42.1630 H   0  0  0  0  0  0  0  0  0  0  0  0
   40.3060   27.4430   43.3060 C   0  0  0  0  0  0  0  0  0  0  0  0
   39.0700   26.7390   43.2330 C   0  0  0  0  0  0  0  0  0  0  0  0
   39.1120   25.3850   43.0300 C   0  0  0  0  0  0  0  0  0  0  0  0
   40.3390   24.7890   42.9100 N   0  0  0  0  0  0  0  0  0  0  0  0
   41.4970   25.4740   42.9830 C   0  0  0  0  0  0  0  0  0  0  0  0
   41.5020   26.8270   43.1840 N   0  0  0  0  0  0  0  0  0  0  0  0
   40.3730   28.5170   43.4640 H   0  0  0  0  0  0  0  0  0  0  0  0
   38.1840   24.8320   42.9710 H   0  0  0  0  0  0  0  0  0  0  0  0
   42.3930   24.8790   42.8720 H   0  0  0  0  0  0  0  0  0  0  0  0
  1 28  1  0  0  0  0
  2  1  1  0  0  0  0
  2  7  1  0  0  0  0
  3 10  1  0  0  0  0
  3  2  1  0  0  0  0
  4  5  1  0  0  0  0
  4  3  1  0  0  0  0
  5  6  1  0  0  0  0
  6 15  1  6  0  0  0
  6 16  1  0  0  0  0
  6  1  1  0  0  0  0
  8  2  1  0  0  0  0
  9  3  1  0  0  0  0
 11  4  1  0  0  0  0
 12  4  1  0  0  0  0
 13  5  1  0  0  0  0
 14  5  1  0  0  0  0
 16 17  1  0  0  0  0
 17 19  2  0  0  0  0
 17 18  1  0  0  0  0
 20 21  1  0  0  0  0
 20 19  1  0  0  0  0
 22 23  1  0  0  0  0
 22 21  2  0  0  0  0
 24 22  1  0  0  0  0
 25 24  2  0  0  0  0
 25 26  1  0  0  0  0
 26 20  2  0  0  0  0
 27 26  1  0  0  0  0
 27 16  2  0  0  0  0
 28 30  1  0  0  0  0
 28 33  1  0  0  0  0
 29 28  1  0  0  0  0
 31 34  1  1  0  0  0
 32 31  1  0  0  0  0
 32 36  1  0  0  0  0
 33 37  1  1  0  0  0
 33 32  1  0  0  0  0
 33 31  1  0  0  0  0
 35 32  1  0  0  0  0
 38 44  1  0  0  0  0
 39 38  1  0  0  0  0
 39 31  1  0  0  0  0
 40 39  2  0  0  0  0
 41 42  2  0  0  0  0
 41 40  1  0  0  0  0
 42 43  1  0  0  0  0
 43 38  2  0  0  0  0
 45 40  1  0  0  0  0
 46 42  1  0  0  0  0
M  END
>  <minimizedAffinity>
-5.65081501

$$$$

 OpenBabel03252500333D

 46 50  0  0  1  0  0  0  0  0999 V2000
   35.0710   29.0810   38.5360 N   0  0  0  0  0  0  0  0  0  0  0  0
   33.9210   28.4180   38.0160 C   0  0  0  0  0  0  0  0  0  0  0  0
   34.2990   27.4520   36.9060 C   0  0  0  0  0  0  0  0  0  0  0  0
   34.8060   28.3140   35.7600 C   0  0  0  0  0  0  0  0  0  0  0  0
   36.0690   28.9800   36.2900 C   0  0  0  0  0  0  0  0  0  0  0  0
   35.8030   29.7520   37.5690 C   0  0  2  0  0  0  0  0  0  0  0  0
   33.1720   28.0740   38.7060 H   0  0  0  0  0  0  0  0  0  0  0  0
   33.3770   29.2510   37.4660 H   0  0  0  0  0  0  0  0  0  0  0  0
   33.4470   26.8260   36.6150 H   0  0  0  0  0  0  0  0  0  0  0  0
   35.1530   26.7880   37.2180 H   0  0  0  0  0  0  0  0  0  0  0  0
   34.0320   29.0740   35.5250 H   0  0  0  0  0  0  0  0  0  0  0  0
   35.0910   27.7240   34.8860 H   0  0  0  0  0  0  0  0  0  0  0  0
   36.4190   29.7360   35.5460 H   0  0  0  0  0  0  0  0  0  0  0  0
   36.8080   28.1740   36.4060 H   0  0  0  0  0  0  0  0  0  0  0  0
   35.0820   30.5570   37.1840 H   0  0  0  0  0  0  0  0  0  0  0  0
   37.0170   30.4690   37.9230 C   0  0  0  0  0  0  0  0  0  0  0  0
   38.3240   30.2100   37.5790 C   0  0  0  0  0  0  0  0  0  0  0  0
   38.5200   29.3710   36.9320 H   0  0  0  0  0  0  0  0  0  0  0  0
   39.4450   30.9140   37.9530 C   0  0  0  0  0  3  0  0  0  0  0  0
   39.2630   32.0090   38.7650 C   0  0  0  0  0  0  0  0  0  0  0  0
   40.3320   32.7250   39.1530 N   0  0  0  0  0  0  0  0  0  0  0  0
   40.2430   33.8090   39.9450 C   0  0  0  0  0  0  0  0  0  0  0  0
   41.1180   34.3790   40.2530 H   0  0  0  0  0  0  0  0  0  0  0  0
   38.9730   34.1610   40.3530 C   0  0  0  0  0  3  0  0  0  0  0  0
   37.8410   33.4670   39.9880 C   0  0  0  0  0  3  0  0  0  0  0  0
   38.0050   32.3800   39.1830 C   0  0  0  0  0  0  0  0  0  0  0  0
   36.9730   31.6080   38.7500 C   0  0  0  0  0  3  0  0  0  0  0  0
   35.6650   28.4730   39.6680 C   0  0  0  0  0  0  0  0  0  0  0  0
   34.9470   28.1380   40.4370 H   0  0  0  0  0  0  0  0  0  0  0  0
   36.3700   29.2260   40.1390 H   0  0  0  0  0  0  0  0  0  0  0  0
   37.7840   27.0060   40.0470 C   0  0  1  0  0  0  0  0  0  0  0  0
   36.6690   26.1330   39.9940 C   0  0  0  0  0  0  0  0  0  0  0  0
   36.5520   27.3780   39.1950 C   0  0  1  0  0  0  0  0  0  0  0  0
   38.7190   26.7580   39.4800 H   0  0  0  0  0  0  0  0  0  0  0  0
   35.9350   26.0130   40.8260 H   0  0  0  0  0  0  0  0  0  0  0  0
   36.7410   25.1900   39.3980 H   0  0  0  0  0  0  0  0  0  0  0  0
   36.8530   27.4460   38.1360 H   0  0  0  0  0  0  0  0  0  0  0  0
   38.9770   29.0070   40.9310 C   0  0  0  0  0  0  0  0  0  0  0  0
   38.1170   27.9020   41.1860 C   0  0  0  0  0  0  0  0  0  0  0  0
   37.6550   27.7270   42.4640 C   0  0  0  0  0  0  0  0  0  0  0  0
   38.0460   28.6260   43.4190 N   0  0  0  0  0  0  0  0  0  0  0  0
   38.8600   29.6670   43.1560 C   0  0  0  0  0  0  0  0  0  0  0  0
   39.3460   29.8790   41.8950 N   0  0  0  0  0  0  0  0  0  0  0  0
   39.3940   29.2260   39.9510 H   0  0  0  0  0  0  0  0  0  0  0  0
   37.0000   26.8930   42.6780 H   0  0  0  0  0  0  0  0  0  0  0  0
   39.0890   30.2990   44.0030 H   0  0  0  0  0  0  0  0  0  0  0  0
  1 28  1  0  0  0  0
  2  1  1  0  0  0  0
  2  7  1  0  0  0  0
  3 10  1  0  0  0  0
  3  2  1  0  0  0  0
  4  5  1  0  0  0  0
  4  3  1  0  0  0  0
  5 14  1  0  0  0  0
  5  6  1  0  0  0  0
  6 15  1  6  0  0  0
  6 16  1  0  0  0  0
  6  1  1  0  0  0  0
  8  2  1  0  0  0  0
  9  3  1  0  0  0  0
 11  4  1  0  0  0  0
 12  4  1  0  0  0  0
 13  5  1  0  0  0  0
 16 27  1  0  0  0  0
 17 16  2  0  0  0  0
 17 19  1  0  0  0  0
 18 17  1  0  0  0  0
 19 20  2  0  0  0  0
 20 21  1  0  0  0  0
 20 26  1  0  0  0  0
 21 22  2  0  0  0  0
 22 23  1  0  0  0  0
 22 24  1  0  0  0  0
 25 24  2  0  0  0  0
 26 25  1  0  0  0  0
 27 26  2  0  0  0  0
 28 30  1  0  0  0  0
 28 29  1  0  0  0  0
 31 34  1  6  0  0  0
 31 39  1  0  0  0  0
 32 31  1  0  0  0  0
 32 35  1  0  0  0  0
 33 37  1  6  0  0  0
 33 28  1  0  0  0  0
 33 32  1  0  0  0  0
 33 31  1  0  0  0  0
 36 32  1  0  0  0  0
 38 39  2  0  0  0  0
 38 43  1  0  0  0  0
 39 40  1  0  0  0  0
 40 45  1  0  0  0  0
 40 41  2  0  0  0  0
 42 41  1  0  0  0  0
 42 46  1  0  0  0  0
 43 42  2  0  0  0  0
 44 38  1  0  0  0  0
M  END
>  <minimizedAffinity>
-5.64117193

$$$$
