
 OpenBabel03252509053D

 51 54  0  0  1  0  0  0  0  0999 V2000
   46.6370   34.2900   43.8090 N   0  0  0  0  0  0  0  0  0  0  0  0
   46.2990   35.0240   42.6470 C   0  0  0  0  0  0  0  0  0  0  0  0
   44.8080   35.2090   42.4250 C   0  0  0  0  0  0  0  0  0  0  0  0
   44.0060   35.3500   43.6950 C   0  0  0  0  0  0  0  0  0  0  0  0
   44.8970   35.3570   44.9240 C   0  0  0  0  0  0  0  0  0  0  0  0
   45.7040   34.0150   44.7820 C   0  0  2  0  0  0  0  0  0  0  0  0
   46.7090   36.0660   42.7650 H   0  0  0  0  0  0  0  0  0  0  0  0
   46.7030   34.6650   41.6970 H   0  0  0  0  0  0  0  0  0  0  0  0
   44.6320   36.0320   41.7170 H   0  0  0  0  0  0  0  0  0  0  0  0
   44.4460   34.2710   41.9390 H   0  0  0  0  0  0  0  0  0  0  0  0
   43.5030   36.3390   43.6720 H   0  0  0  0  0  0  0  0  0  0  0  0
   43.2410   34.5660   43.8300 H   0  0  0  0  0  0  0  0  0  0  0  0
   44.2640   35.2690   45.8180 H   0  0  0  0  0  0  0  0  0  0  0  0
   45.6100   36.1830   44.9150 H   0  0  0  0  0  0  0  0  0  0  0  0
   44.9340   33.2450   44.5740 H   0  0  0  0  0  0  0  0  0  0  0  0
   47.7530   33.3900   43.6390 C   0  0  0  0  0  0  0  0  0  0  0  0
   48.6410   34.0300   43.4060 H   0  0  0  0  0  0  0  0  0  0  0  0
   47.9440   32.8310   44.5720 H   0  0  0  0  0  0  0  0  0  0  0  0
   47.4590   32.4910   42.4900 C   0  0  0  0  0  0  0  0  0  0  0  0
   46.7530   32.9570   41.7660 H   0  0  0  0  0  0  0  0  0  0  0  0
   46.9930   31.5350   42.7990 H   0  0  0  0  0  0  0  0  0  0  0  0
   51.1050   32.3200   41.6030 C   0  0  0  0  0  0  0  0  0  0  0  0
   49.9110   32.5690   42.3030 C   0  0  0  0  0  0  0  0  0  0  0  0
   48.7150   32.2220   41.7380 C   0  0  0  0  0  0  0  0  0  0  0  0
   48.7450   31.6570   40.5330 N   0  0  0  0  0  0  0  0  0  0  0  0
   49.8700   31.4140   39.8550 C   0  0  0  0  0  0  0  0  0  0  0  0
   51.0720   31.7430   40.3820 N   0  0  0  0  0  0  0  0  0  0  0  0
   52.0580   32.5790   42.0160 H   0  0  0  0  0  0  0  0  0  0  0  0
   50.0170   33.0270   43.2620 H   0  0  0  0  0  0  0  0  0  0  0  0
   49.6650   30.9510   38.9000 H   0  0  0  0  0  0  0  0  0  0  0  0
   46.2610   33.8940   46.0440 O   0  0  0  0  0  0  0  0  0  0  0  0
   45.6040   31.3410   45.6680 O   0  0  0  0  0  0  0  0  0  0  0  0
   46.0510   32.3790   46.7160 P   0  0  2  0  0  0  0  0  0  0  0  0
   44.6990   32.4910   47.7730 O   0  0  0  0  0  0  0  0  0  0  0  0
   45.0580   32.7220   48.6720 H   0  0  0  0  0  0  0  0  0  0  0  0
   47.3410   31.8430   47.6010 O   0  0  0  0  0  0  0  0  0  0  0  0
   47.7550   30.5990   47.1140 C   0  0  0  0  0  0  0  0  0  0  0  0
   46.9410   29.9000   46.9110 H   0  0  0  0  0  0  0  0  0  0  0  0
   48.3460   30.7460   46.1680 H   0  0  0  0  0  0  0  0  0  0  0  0
   48.6820   30.0610   48.1520 C   0  0  0  0  0  0  0  0  0  0  0  0
   49.0670   28.7460   48.3040 C   0  0  0  0  0  0  0  0  0  0  0  0
   48.6470   28.0460   47.5930 H   0  0  0  0  0  0  0  0  0  0  0  0
   49.9350   28.3880   49.3150 C   0  0  0  0  0  3  0  0  0  0  0  0
   50.4040   29.3730   50.1610 C   0  0  0  0  0  0  0  0  0  0  0  0
   51.2440   29.0880   51.1550 N   0  0  0  0  0  0  0  0  0  0  0  0
   51.7350   30.0030   52.0100 C   0  0  0  0  0  0  0  0  0  0  0  0
   52.4170   29.7920   52.8210 H   0  0  0  0  0  0  0  0  0  0  0  0
   51.3760   31.3350   51.8950 C   0  0  0  0  0  3  0  0  0  0  0  0
   50.5120   31.6940   50.8890 C   0  0  0  0  0  3  0  0  0  0  0  0
   50.0510   30.7000   50.0510 C   0  0  0  0  0  0  0  0  0  0  0  0
   49.1720   31.0420   49.0230 C   0  0  0  0  0  3  0  0  0  0  0  0
  1  6  1  0  0  0  0
  2  7  1  0  0  0  0
  2  1  1  0  0  0  0
  3  2  1  0  0  0  0
  3  4  1  0  0  0  0
  4 12  1  0  0  0  0
  4  5  1  0  0  0  0
  5 13  1  0  0  0  0
  6 15  1  6  0  0  0
  6  5  1  0  0  0  0
  6 31  1  0  0  0  0
  8  2  1  0  0  0  0
  9  3  1  0  0  0  0
 10  3  1  0  0  0  0
 11  4  1  0  0  0  0
 14  5  1  0  0  0  0
 16  1  1  0  0  0  0
 16 18  1  0  0  0  0
 17 16  1  0  0  0  0
 19 21  1  0  0  0  0
 19 16  1  0  0  0  0
 20 19  1  0  0  0  0
 22 28  1  0  0  0  0
 22 23  1  0  0  0  0
 23 29  1  0  0  0  0
 24 23  2  0  0  0  0
 24 19  1  0  0  0  0
 25 24  1  0  0  0  0
 26 27  1  0  0  0  0
 26 25  2  0  0  0  0
 27 22  2  0  0  0  0
 30 26  1  0  0  0  0
 31 33  1  0  0  0  0
 33 32  2  6  0  0  0
 33 36  1  0  0  0  0
 33 34  1  0  0  0  0
 34 35  1  0  0  0  0
 37 36  1  0  0  0  0
 37 40  1  0  0  0  0
 38 37  1  0  0  0  0
 39 37  1  0  0  0  0
 40 41  2  0  0  0  0
 40 51  1  0  0  0  0
 41 43  1  0  0  0  0
 42 41  1  0  0  0  0
 43 44  2  0  0  0  0
 44 45  1  0  0  0  0
 45 46  2  0  0  0  0
 46 47  1  0  0  0  0
 48 46  1  0  0  0  0
 49 48  2  0  0  0  0
 50 44  1  0  0  0  0
 50 49  1  0  0  0  0
 51 50  2  0  0  0  0
M  END
>  <minimizedAffinity>
-5.67467165

>  <minimizedRMSD>
3.20497513

$$$$
