
 OpenBabel03252509053D

 51 54  0  0  1  0  0  0  0  0999 V2000
   47.0010   34.4020   43.2770 N   0  0  0  0  0  0  0  0  0  0  0  0
   46.6650   34.8720   41.9840 C   0  0  0  0  0  0  0  0  0  0  0  0
   45.2270   34.6170   41.5710 C   0  0  0  0  0  0  0  0  0  0  0  0
   44.2350   34.6870   42.7060 C   0  0  0  0  0  0  0  0  0  0  0  0
   44.9010   35.0820   44.0110 C   0  0  0  0  0  0  0  0  0  0  0  0
   46.0330   34.0020   44.1700 C   0  0  2  0  0  0  0  0  0  0  0  0
   46.7760   35.9920   41.9850 H   0  0  0  0  0  0  0  0  0  0  0  0
   47.2840   34.5240   41.1540 H   0  0  0  0  0  0  0  0  0  0  0  0
   44.9560   35.2700   40.7280 H   0  0  0  0  0  0  0  0  0  0  0  0
   45.1890   33.5660   41.1980 H   0  0  0  0  0  0  0  0  0  0  0  0
   43.5080   35.4930   42.4730 H   0  0  0  0  0  0  0  0  0  0  0  0
   43.6810   33.7470   42.8740 H   0  0  0  0  0  0  0  0  0  0  0  0
   44.1850   34.9350   44.8300 H   0  0  0  0  0  0  0  0  0  0  0  0
   45.3760   36.0650   43.9540 H   0  0  0  0  0  0  0  0  0  0  0  0
   45.5220   33.0340   43.9990 H   0  0  0  0  0  0  0  0  0  0  0  0
   48.3200   33.8240   43.3750 C   0  0  0  0  0  0  0  0  0  0  0  0
   48.9620   34.3800   42.6460 H   0  0  0  0  0  0  0  0  0  0  0  0
   48.7270   33.9600   44.3920 H   0  0  0  0  0  0  0  0  0  0  0  0
   48.2340   32.3900   42.9870 C   0  0  0  0  0  0  0  0  0  0  0  0
   47.2250   32.1230   42.5970 H   0  0  0  0  0  0  0  0  0  0  0  0
   48.4250   31.7010   43.8330 H   0  0  0  0  0  0  0  0  0  0  0  0
   51.4560   31.9410   41.1100 C   0  0  0  0  0  0  0  0  0  0  0  0
   50.5370   32.1970   42.1420 C   0  0  0  0  0  0  0  0  0  0  0  0
   49.1960   32.1170   41.8850 C   0  0  0  0  0  0  0  0  0  0  0  0
   48.8270   31.7950   40.6470 N   0  0  0  0  0  0  0  0  0  0  0  0
   49.6860   31.5490   39.6560 C   0  0  0  0  0  0  0  0  0  0  0  0
   51.0210   31.6190   39.8730 N   0  0  0  0  0  0  0  0  0  0  0  0
   52.5120   31.9950   41.2780 H   0  0  0  0  0  0  0  0  0  0  0  0
   50.9570   32.4450   43.0930 H   0  0  0  0  0  0  0  0  0  0  0  0
   49.1740   31.3080   38.7360 H   0  0  0  0  0  0  0  0  0  0  0  0
   46.4080   34.1900   45.4900 O   0  0  0  0  0  0  0  0  0  0  0  0
   45.5630   31.6690   45.6430 O   0  0  0  0  0  0  0  0  0  0  0  0
   46.1140   32.8580   46.4540 P   0  0  2  0  0  0  0  0  0  0  0  0
   44.8070   33.2770   47.4910 O   0  0  0  0  0  0  0  0  0  0  0  0
   45.2100   33.6540   48.3190 H   0  0  0  0  0  0  0  0  0  0  0  0
   47.3910   32.4140   47.4070 O   0  0  0  0  0  0  0  0  0  0  0  0
   47.1670   31.1310   47.9180 C   0  0  0  0  0  0  0  0  0  0  0  0
   46.3770   31.0770   48.6710 H   0  0  0  0  0  0  0  0  0  0  0  0
   46.9060   30.4330   47.0750 H   0  0  0  0  0  0  0  0  0  0  0  0
   48.4790   30.6980   48.4800 C   0  0  0  0  0  0  0  0  0  0  0  0
   49.0620   29.4560   48.3350 C   0  0  0  0  0  0  0  0  0  0  0  0
   48.4990   28.7360   47.7550 H   0  0  0  0  0  0  0  0  0  0  0  0
   50.2880   29.1920   48.9110 C   0  0  0  0  0  3  0  0  0  0  0  0
   50.9080   30.1950   49.6290 C   0  0  0  0  0  0  0  0  0  0  0  0
   52.0910   29.9990   50.2090 N   0  0  0  0  0  0  0  0  0  0  0  0
   52.7440   30.9350   50.9190 C   0  0  0  0  0  0  0  0  0  0  0  0
   53.7050   30.7960   51.3970 H   0  0  0  0  0  0  0  0  0  0  0  0
   52.1980   32.1960   51.0910 C   0  0  0  0  0  3  0  0  0  0  0  0
   50.9780   32.4600   50.5180 C   0  0  0  0  0  3  0  0  0  0  0  0
   50.3680   31.4510   49.8030 C   0  0  0  0  0  0  0  0  0  0  0  0
   49.1290   31.6970   49.2130 C   0  0  0  0  0  3  0  0  0  0  0  0
  1 16  1  0  0  0  0
  1  6  1  0  0  0  0
  2  7  1  0  0  0  0
  2  1  1  0  0  0  0
  3  2  1  0  0  0  0
  3  4  1  0  0  0  0
  4 12  1  0  0  0  0
  4  5  1  0  0  0  0
  5  6  1  0  0  0  0
  5 13  1  0  0  0  0
  6 15  1  6  0  0  0
  6 31  1  0  0  0  0
  8  2  1  0  0  0  0
  9  3  1  0  0  0  0
 10  3  1  0  0  0  0
 11  4  1  0  0  0  0
 14  5  1  0  0  0  0
 16 18  1  0  0  0  0
 17 16  1  0  0  0  0
 19 16  1  0  0  0  0
 19 21  1  0  0  0  0
 20 19  1  0  0  0  0
 22 28  1  0  0  0  0
 22 23  1  0  0  0  0
 23 29  1  0  0  0  0
 24 23  2  0  0  0  0
 24 19  1  0  0  0  0
 25 24  1  0  0  0  0
 26 27  1  0  0  0  0
 26 25  2  0  0  0  0
 27 22  2  0  0  0  0
 30 26  1  0  0  0  0
 31 33  1  0  0  0  0
 33 32  2  6  0  0  0
 33 36  1  0  0  0  0
 33 34  1  0  0  0  0
 34 35  1  0  0  0  0
 36 37  1  0  0  0  0
 37 40  1  0  0  0  0
 37 38  1  0  0  0  0
 39 37  1  0  0  0  0
 40 51  1  0  0  0  0
 41 40  2  0  0  0  0
 41 43  1  0  0  0  0
 42 41  1  0  0  0  0
 43 44  2  0  0  0  0
 44 50  1  0  0  0  0
 44 45  1  0  0  0  0
 45 46  2  0  0  0  0
 46 48  1  0  0  0  0
 46 47  1  0  0  0  0
 49 48  2  0  0  0  0
 50 49  1  0  0  0  0
 51 50  2  0  0  0  0
M  END
>  <minimizedAffinity>
-5.57614183

>  <minimizedRMSD>
3.49464202

$$$$
