
 OpenBabel03252504513D

 37 40  0  0  0  0  0  0  0  0999 V2000
   46.8800   34.5710   42.7780 C   0  0  0  0  0  0  0  0  0  0  0  0
   48.0330   34.1210   42.1160 C   0  0  0  0  0  0  0  0  0  0  0  0
   48.6940   33.0340   42.6700 C   0  0  0  0  0  0  0  0  0  0  0  0
   48.1800   32.4890   43.8080 N   0  0  0  0  0  0  0  0  0  0  0  0
   47.0820   32.9370   44.4170 C   0  0  0  0  0  0  0  0  0  0  0  0
   46.4130   33.9950   43.9020 N   0  0  0  0  0  0  0  0  0  0  0  0
   46.2880   35.4030   42.4410 H   0  0  0  0  0  0  0  0  0  0  0  0
   49.5800   32.6590   42.1950 H   0  0  0  0  0  0  0  0  0  0  0  0
   45.6650   30.2650   43.9910 Cl  0  0  0  0  0  0  0  0  0  0  0  0
   45.9370   31.0800   45.5410 C   0  0  0  0  0  0  0  0  0  0  0  0
   46.5950   32.3000   45.6300 C   0  0  0  0  0  0  0  0  0  0  0  0
   46.7900   32.9040   46.8460 C   0  0  0  0  0  0  0  0  0  0  0  0
   46.3210   32.2830   47.9960 C   0  0  0  0  0  0  0  0  0  0  0  0
   45.6730   31.0740   47.8660 C   0  0  0  0  0  0  0  0  0  0  0  0
   45.1000   30.3320   49.3430 Cl  0  0  0  0  0  0  0  0  0  0  0  0
   45.4590   30.4370   46.6670 C   0  0  0  0  0  0  0  0  0  0  0  0
   47.3050   33.8590   46.9270 H   0  0  0  0  0  0  0  0  0  0  0  0
   46.4680   32.7490   48.9620 H   0  0  0  0  0  0  0  0  0  0  0  0
   44.9410   29.4890   46.6530 H   0  0  0  0  0  0  0  0  0  0  0  0
   48.4480   34.8080   40.9200 C   0  0  0  0  0  0  0  0  0  0  0  0
   49.5300   34.6450   40.7490 H   0  0  0  0  0  0  0  0  0  0  0  0
   48.3190   35.9000   41.0140 H   0  0  0  0  0  0  0  0  0  0  0  0
   47.5990   34.3660   39.7630 C   0  0  0  0  0  0  0  0  0  0  0  0
   46.5340   34.4410   40.1180 H   0  0  0  0  0  0  0  0  0  0  0  0
   47.6700   35.1610   38.9770 H   0  0  0  0  0  0  0  0  0  0  0  0
   47.9080   33.0300   39.2440 C   0  0  0  0  0  0  0  0  0  0  0  0
   47.0460   31.9540   39.3020 C   0  0  0  0  0  0  0  0  0  0  0  0
   46.0730   32.0840   39.7570 H   0  0  0  0  0  0  0  0  0  0  0  0
   47.4820   30.7490   38.7660 C   0  0  0  0  0  3  0  0  0  0  0  0
   48.7520   30.6330   38.1890 C   0  0  0  0  0  0  0  0  0  0  0  0
   49.1720   29.4650   37.6700 N   0  0  0  0  0  0  0  0  0  0  0  0
   50.3860   29.3220   37.1080 C   0  0  0  0  0  0  0  0  0  0  0  0
   50.7810   28.4290   36.6810 H   0  0  0  0  0  0  0  0  0  0  0  0
   51.2360   30.4010   37.0570 C   0  0  0  0  0  3  0  0  0  0  0  0
   50.8670   31.6320   37.5710 C   0  0  0  0  0  3  0  0  0  0  0  0
   49.5960   31.7190   38.1410 C   0  0  0  0  0  0  0  0  0  0  0  0
   49.1770   32.9300   38.6710 C   0  0  0  0  0  3  0  0  0  0  0  0
  1  6  1  0  0  0  0
  2  3  1  0  0  0  0
  2  1  2  0  0  0  0
  3  4  2  0  0  0  0
  4  5  1  0  0  0  0
  5 11  1  0  0  0  0
  6  5  2  0  0  0  0
  7  1  1  0  0  0  0
  8  3  1  0  0  0  0
  9 10  1  0  0  0  0
 10 11  2  0  0  0  0
 10 16  1  0  0  0  0
 11 12  1  0  0  0  0
 12 17  1  0  0  0  0
 12 13  2  0  0  0  0
 13 18  1  0  0  0  0
 14 13  1  0  0  0  0
 14 15  1  0  0  0  0
 16 14  2  0  0  0  0
 19 16  1  0  0  0  0
 20 22  1  0  0  0  0
 20  2  1  0  0  0  0
 21 20  1  0  0  0  0
 23 24  1  0  0  0  0
 23 20  1  0  0  0  0
 25 23  1  0  0  0  0
 26 27  1  0  0  0  0
 26 23  1  0  0  0  0
 27 28  1  0  0  0  0
 29 27  2  0  0  0  0
 30 29  1  0  0  0  0
 31 30  2  0  0  0  0
 32 31  1  0  0  0  0
 33 32  1  0  0  0  0
 34 32  2  0  0  0  0
 34 35  1  0  0  0  0
 35 36  2  0  0  0  0
 36 30  1  0  0  0  0
 36 37  1  0  0  0  0
 37 26  2  0  0  0  0
M  END
>  <minimizedAffinity>
-4.66699696

>  <minimizedRMSD>
0.919363081

$$$$
