
 OpenBabel03242518473D

 48 52  0  0  1  0  0  0  0  0999 V2000
   46.4090   32.4810   44.9870 C   0  0  2  0  0  0  0  0  0  0  0  0
   46.9770   33.2290   43.8340 C   0  0  1  0  0  0  0  0  0  0  0  0
   47.4920   32.3010   42.7330 C   0  0  0  0  0  0  0  0  0  0  0  0
   48.3830   31.4520   43.3960 O   0  0  0  0  0  0  0  0  0  0  0  0
   47.7210   30.5360   44.1870 C   0  0  0  0  0  0  0  0  0  0  0  0
   46.3640   30.9810   44.6370 C   0  0  1  0  0  0  0  0  0  0  0  0
   47.0790   32.5650   45.8530 H   0  0  0  0  0  0  0  0  0  0  0  0
   47.8660   33.8330   44.1750 H   0  0  0  0  0  0  0  0  0  0  0  0
   48.1120   32.8890   42.0280 H   0  0  0  0  0  0  0  0  0  0  0  0
   46.6670   31.7720   42.2360 H   0  0  0  0  0  0  0  0  0  0  0  0
   48.3120   30.3120   45.1180 H   0  0  0  0  0  0  0  0  0  0  0  0
   47.5800   29.5670   43.6470 H   0  0  0  0  0  0  0  0  0  0  0  0
   45.5840   30.9340   43.8460 H   0  0  0  0  0  0  0  0  0  0  0  0
   45.0480   36.2390   43.0400 C   0  0  0  0  0  0  0  0  0  0  0  0
   44.2750   35.8700   41.8990 C   0  0  0  0  0  0  0  0  0  0  0  0
   44.4680   34.5400   41.4380 C   0  0  0  0  0  0  0  0  0  0  0  0
   45.3390   33.7320   42.0830 N   0  0  0  0  0  0  0  0  0  0  0  0
   46.0390   34.1490   43.1600 C   0  0  0  0  0  0  0  0  0  0  0  0
   45.8920   35.4020   43.6360 N   0  0  0  0  0  0  0  0  0  0  0  0
   43.5950   36.5170   41.4020 H   0  0  0  0  0  0  0  0  0  0  0  0
   43.9210   34.1800   40.5780 H   0  0  0  0  0  0  0  0  0  0  0  0
   44.8780   37.5130   43.5020 O   0  0  0  0  0  0  0  0  0  0  0  0
   45.6570   38.1240   43.7570 H   0  0  0  0  0  0  0  0  0  0  0  0
   45.1210   32.8800   45.3400 O   0  0  0  0  0  0  0  0  0  0  0  0
   45.1280   33.2980   46.2470 H   0  0  0  0  0  0  0  0  0  0  0  0
   45.9170   30.3270   45.7630 O   0  0  0  0  0  0  0  0  0  0  0  0
   47.2000   28.5390   47.3320 F   0  0  0  0  0  0  0  0  0  0  0  0
   45.9620   28.3720   46.8210 C   0  0  0  0  0  0  0  0  0  0  0  0
   45.2330   29.2260   46.0180 C   0  0  0  0  0  0  0  0  0  0  0  0
   43.9760   28.7670   45.6600 C   0  0  0  0  0  0  0  0  0  0  0  0
   43.4150   27.5680   46.0280 C   0  0  0  0  0  0  0  0  0  0  0  0
   44.1770   26.7650   46.8200 C   0  0  0  0  0  0  0  0  0  0  0  0
   45.4450   27.1320   47.2320 C   0  0  0  0  0  0  0  0  0  0  0  0
   43.4570   29.5030   45.0200 H   0  0  0  0  0  0  0  0  0  0  0  0
   42.4360   27.3270   45.6880 H   0  0  0  0  0  0  0  0  0  0  0  0
   43.7280   25.8060   47.1150 H   0  0  0  0  0  0  0  0  0  0  0  0
   46.1270   26.1550   48.0770 C   0  0  0  0  0  0  0  0  0  0  0  0
   47.4600   25.8740   47.7570 C   0  0  0  0  0  0  0  0  0  0  0  0
   47.9260   26.3850   46.9060 H   0  0  0  0  0  0  0  0  0  0  0  0
   48.2600   24.9800   48.4440 C   0  0  0  0  0  3  0  0  0  0  0  0
   47.6940   24.3260   49.5180 C   0  0  0  0  0  0  0  0  0  0  0  0
   48.4390   23.4460   50.2120 N   0  0  0  0  0  0  0  0  0  0  0  0
   47.9750   22.7650   51.2700 C   0  0  0  0  0  0  0  0  0  0  0  0
   48.5950   22.0640   51.8120 H   0  0  0  0  0  0  0  0  0  0  0  0
   46.6540   23.0230   51.6130 C   0  0  0  0  0  3  0  0  0  0  0  0
   45.8410   23.9110   50.9400 C   0  0  0  0  0  3  0  0  0  0  0  0
   46.3790   24.5810   49.8610 C   0  0  0  0  0  0  0  0  0  0  0  0
   45.6190   25.4770   49.1520 C   0  0  0  0  0  3  0  0  0  0  0  0
  1 24  1  0  0  0  0
  1  7  1  1  0  0  0
  2  8  1  1  0  0  0
  2  1  1  0  0  0  0
  3  4  1  0  0  0  0
  3  2  1  0  0  0  0
  4  5  1  0  0  0  0
  5  6  1  0  0  0  0
  5 11  1  0  0  0  0
  6 13  1  6  0  0  0
  6  1  1  0  0  0  0
  6 26  1  0  0  0  0
  9  3  1  0  0  0  0
 10  3  1  0  0  0  0
 12  5  1  0  0  0  0
 14 22  1  0  0  0  0
 14 19  1  0  0  0  0
 15 14  2  0  0  0  0
 16 15  1  0  0  0  0
 16 17  2  0  0  0  0
 17 18  1  0  0  0  0
 18 19  2  0  0  0  0
 18  2  1  0  0  0  0
 20 15  1  0  0  0  0
 21 16  1  0  0  0  0
 22 23  1  0  0  0  0
 24 25  1  0  0  0  0
 26 29  1  0  0  0  0
 28 33  1  0  0  0  0
 28 27  1  0  0  0  0
 29 28  2  0  0  0  0
 30 29  1  0  0  0  0
 30 31  2  0  0  0  0
 31 32  1  0  0  0  0
 32 36  1  0  0  0  0
 32 33  2  0  0  0  0
 33 37  1  0  0  0  0
 34 30  1  0  0  0  0
 35 31  1  0  0  0  0
 37 48  1  0  0  0  0
 38 37  2  0  0  0  0
 38 40  1  0  0  0  0
 39 38  1  0  0  0  0
 40 41  2  0  0  0  0
 41 47  1  0  0  0  0
 41 42  1  0  0  0  0
 42 43  2  0  0  0  0
 43 45  1  0  0  0  0
 43 44  1  0  0  0  0
 46 45  2  0  0  0  0
 47 46  1  0  0  0  0
 48 47  2  0  0  0  0
M  END
>  <minimizedAffinity>
-6.13716364

>  <minimizedRMSD>
3.47575831

$$$$
