
 OpenBabel03242520203D

 36 38  0  0  0  0  0  0  0  0999 V2000
   40.7280   35.7930   39.8000 C   0  0  0  0  0  0  0  0  0  0  0  0
   40.8620   36.8810   39.9870 H   0  0  0  0  0  0  0  0  0  0  0  0
   40.5940   35.6510   38.6990 H   0  0  0  0  0  0  0  0  0  0  0  0
   43.7570   34.5430   41.6810 C   0  0  0  0  0  0  0  0  0  0  0  0
   42.6430   35.3290   41.3260 C   0  0  0  0  0  0  0  0  0  0  0  0
   41.9130   34.9950   40.1960 C   0  0  0  0  0  0  0  0  0  0  0  0
   42.3260   33.9040   39.4800 N   0  0  0  0  0  0  0  0  0  0  0  0
   43.4160   33.1720   39.8650 C   0  0  0  0  0  0  0  0  0  0  0  0
   44.1090   33.4930   40.9440 N   0  0  0  0  0  0  0  0  0  0  0  0
   42.3920   36.1720   41.9520 H   0  0  0  0  0  0  0  0  0  0  0  0
   43.6820   32.3210   39.2450 H   0  0  0  0  0  0  0  0  0  0  0  0
   44.5390   34.9200   42.8900 C   0  0  0  0  0  0  0  0  0  0  0  0
   46.0250   35.2740   42.5330 C   0  0  0  0  0  0  0  0  0  0  0  0
   45.0680   36.2160   43.1220 C   0  0  0  0  0  0  0  0  0  0  0  0
   44.4560   34.1570   43.7120 H   0  0  0  0  0  0  0  0  0  0  0  0
   46.2970   35.2900   41.4690 H   0  0  0  0  0  0  0  0  0  0  0  0
   46.7690   34.8470   43.2360 H   0  0  0  0  0  0  0  0  0  0  0  0
   44.7330   37.0320   42.4140 H   0  0  0  0  0  0  0  0  0  0  0  0
   45.1960   36.6420   44.1390 H   0  0  0  0  0  0  0  0  0  0  0  0
   39.4920   35.3290   40.5120 C   0  0  0  0  0  0  0  0  0  0  0  0
   39.7270   35.1810   41.5850 H   0  0  0  0  0  0  0  0  0  0  0  0
   38.6830   36.1080   40.5110 H   0  0  0  0  0  0  0  0  0  0  0  0
   39.0460   32.8860   40.5630 C   0  0  0  0  0  0  0  0  0  0  0  0
   39.5400   32.7730   41.7270 O   0  0  0  0  0  0  0  0  0  0  0  0
   38.9000   34.1380   39.9270 N   0  0  0  0  0  0  0  0  0  0  0  0
   38.3960   34.2900   39.0650 H   0  0  0  0  0  0  0  0  0  0  0  0
   39.2870   29.9700   37.0900 H   0  0  0  0  0  0  0  0  0  0  0  0
   38.8600   30.1700   38.0180 N   0  0  0  0  0  0  0  0  0  0  0  0
   39.1700   31.2970   38.6790 C   0  0  0  0  0  3  0  0  0  0  0  0
   38.6410   31.6360   39.9290 C   0  0  0  0  0  0  0  0  0  0  0  0
   37.7870   30.6840   40.3690 C   0  0  0  0  0  0  0  0  0  0  0  0
   37.2350   30.8500   41.4740 O   0  0  0  0  0  0  0  0  0  0  0  0
   37.4560   29.5580   39.7440 N   0  0  0  0  0  0  0  0  0  0  0  0
   37.9980   29.2860   38.5450 C   0  0  0  0  0  0  0  0  0  0  0  0
   37.7420   28.2590   37.8990 O   0  0  0  0  0  0  0  0  0  0  0  0
   36.7960   28.8680   40.1330 H   0  0  0  0  0  0  0  0  0  0  0  0
  1  2  1  0  0  0  0
  1  6  1  0  0  0  0
  1 20  1  0  0  0  0
  3  1  1  0  0  0  0
  4 12  1  0  0  0  0
  5  4  1  0  0  0  0
  5 10  1  0  0  0  0
  6  5  2  0  0  0  0
  7  8  2  0  0  0  0
  7  6  1  0  0  0  0
  8  9  1  0  0  0  0
  9  4  2  0  0  0  0
 11  8  1  0  0  0  0
 12 14  1  0  0  0  0
 12 15  1  0  0  0  0
 13 12  1  0  0  0  0
 13 14  1  0  0  0  0
 13 17  1  0  0  0  0
 14 19  1  0  0  0  0
 16 13  1  0  0  0  0
 18 14  1  0  0  0  0
 20 21  1  0  0  0  0
 22 20  1  0  0  0  0
 23 24  2  0  0  0  0
 25 20  1  0  0  0  0
 25 23  1  0  0  0  0
 26 25  1  0  0  0  0
 27 28  1  0  0  0  0
 28 34  1  0  0  0  0
 28 29  1  0  0  0  0
 29 30  2  0  0  0  0
 30 31  1  0  0  0  0
 30 23  1  0  0  0  0
 31 32  2  0  0  0  0
 33 36  1  0  0  0  0
 33 31  1  0  0  0  0
 34 33  1  0  0  0  0
 35 34  2  0  0  0  0
M  END
>  <minimizedAffinity>
-4.87807465

>  <minimizedRMSD>
1.06949341

$$$$
