
 OpenBabel03252505093D

 44 47  0  0  1  0  0  0  0  0999 V2000
   36.2710   31.2210   40.7920 C   0  0  0  0  0  0  0  0  0  0  0  0
   37.2520   32.1310   40.3310 C   0  0  0  0  0  0  0  0  0  0  0  0
   38.6260   31.7730   40.5020 C   0  0  0  0  0  0  0  0  0  0  0  0
   38.9160   30.5930   41.0910 N   0  0  0  0  0  0  0  0  0  0  0  0
   37.9530   29.7550   41.5160 C   0  0  0  0  0  0  0  0  0  0  0  0
   36.6310   30.0610   41.3700 N   0  0  0  0  0  0  0  0  0  0  0  0
   35.2260   31.4750   40.6710 H   0  0  0  0  0  0  0  0  0  0  0  0
   37.0010   33.0700   39.8630 H   0  0  0  0  0  0  0  0  0  0  0  0
   39.6410   32.6920   40.0340 C   0  0  0  0  0  0  0  0  0  0  0  0
   39.5040   34.0120   40.3220 C   0  0  0  0  0  0  0  0  0  0  0  0
   40.5200   34.8600   39.8430 C   0  0  0  0  0  0  0  0  0  0  0  0
   41.5470   34.2730   39.1330 C   0  0  0  0  0  0  0  0  0  0  0  0
   41.6790   32.9460   38.8470 C   0  0  0  0  0  0  0  0  0  0  0  0
   40.6660   32.1660   39.3360 N   0  0  0  0  0  0  0  0  0  0  0  0
   38.6690   34.4070   40.8870 H   0  0  0  0  0  0  0  0  0  0  0  0
   40.4800   35.9240   40.0330 H   0  0  0  0  0  0  0  0  0  0  0  0
   42.3060   34.9560   38.7820 H   0  0  0  0  0  0  0  0  0  0  0  0
   42.7730   32.4130   38.1060 N   0  0  0  0  0  0  0  0  0  0  0  0
   42.9090   31.0810   37.8350 C   0  0  0  0  0  3  0  0  0  0  0  0
   44.0040   30.6390   37.1040 C   0  0  0  0  0  0  0  0  0  0  0  0
   44.0850   29.5810   36.9060 H   0  0  0  0  0  0  0  0  0  0  0  0
   44.9460   31.5740   36.6630 C   0  0  0  0  0  0  0  0  0  0  0  0
   45.9410   31.1550   35.9970 O   0  0  0  0  0  0  0  0  0  0  0  0
   44.7690   32.8680   36.9520 N   0  0  0  0  0  0  0  0  0  0  0  0
   43.7020   33.2950   37.6620 C   0  0  0  0  0  0  0  0  0  0  0  0
   43.6440   34.5370   37.8730 O   0  0  0  0  0  0  0  0  0  0  0  0
   45.5040   33.4940   36.5930 H   0  0  0  0  0  0  0  0  0  0  0  0
   38.3400   28.4720   42.1580 C   0  0  2  0  0  0  0  0  0  0  0  0
   38.5540   27.5030   41.0300 C   0  0  0  0  0  0  0  0  0  0  0  0
   37.5000   26.4930   40.8320 C   0  0  0  0  0  0  0  0  0  0  0  0
   37.3340   25.7860   42.1710 C   0  0  0  0  0  0  0  0  0  0  0  0
   36.8420   26.6870   43.2090 C   0  0  0  0  0  0  0  0  0  0  0  0
   37.3880   28.0650   43.1660 C   0  0  0  0  0  0  0  0  0  0  0  0
   39.3230   28.6790   42.6390 H   0  0  0  0  0  0  0  0  0  0  0  0
   39.5110   26.9500   41.2180 H   0  0  0  0  0  0  0  0  0  0  0  0
   38.7260   28.0090   40.0540 H   0  0  0  0  0  0  0  0  0  0  0  0
   37.8380   25.7640   40.0920 H   0  0  0  0  0  0  0  0  0  0  0  0
   36.5680   26.9960   40.5110 H   0  0  0  0  0  0  0  0  0  0  0  0
   38.3260   25.3880   42.4480 H   0  0  0  0  0  0  0  0  0  0  0  0
   36.5520   25.0440   42.0100 H   0  0  0  0  0  0  0  0  0  0  0  0
   36.1590   26.5680   44.0120 H   0  0  0  0  0  0  0  0  0  0  0  0
   36.9790   29.0350   44.1300 N   0  0  0  0  0  0  0  0  0  0  0  0
   35.9870   29.2080   43.8030 H   0  0  0  0  0  0  0  0  0  0  0  0
   37.5460   29.4090   44.8960 H   0  0  0  0  0  0  0  0  0  0  0  0
  1  6  1  0  0  0  0
  2  3  1  0  0  0  0
  2  1  2  0  0  0  0
  3  4  2  0  0  0  0
  4  5  1  0  0  0  0
  5 28  1  0  0  0  0
  6  5  2  0  0  0  0
  7  1  1  0  0  0  0
  8  2  1  0  0  0  0
  9 10  1  0  0  0  0
  9  3  1  0  0  0  0
 10 15  1  0  0  0  0
 11 16  1  0  0  0  0
 11 10  2  0  0  0  0
 12 11  1  0  0  0  0
 13 12  2  0  0  0  0
 13 14  1  0  0  0  0
 14  9  2  0  0  0  0
 17 12  1  0  0  0  0
 18 13  1  0  0  0  0
 19 18  1  0  0  0  0
 20 19  2  0  0  0  0
 21 20  1  0  0  0  0
 22 24  1  0  0  0  0
 22 20  1  0  0  0  0
 23 22  2  0  0  0  0
 24 25  1  0  0  0  0
 25 26  2  0  0  0  0
 25 18  1  0  0  0  0
 27 24  1  0  0  0  0
 28 34  1  1  0  0  0
 28 33  1  0  0  0  0
 29 35  1  0  0  0  0
 29 28  1  0  0  0  0
 30 29  1  0  0  0  0
 30 31  1  0  0  0  0
 31 39  1  0  0  0  0
 31 32  1  0  0  0  0
 32 41  1  0  0  0  0
 33 32  2  0  0  0  0
 33 42  1  0  0  0  0
 36 29  1  0  0  0  0
 37 30  1  0  0  0  0
 38 30  1  0  0  0  0
 40 31  1  0  0  0  0
 42 44  1  0  0  0  0
 43 42  1  0  0  0  0
M  END
>  <minimizedAffinity>
-7.31893826

$$$$

 OpenBabel03252505093D

 44 47  0  0  1  0  0  0  0  0999 V2000
   37.5220   32.6850   39.9960 C   0  0  0  0  0  0  0  0  0  0  0  0
   37.1460   31.4900   40.6550 C   0  0  0  0  0  0  0  0  0  0  0  0
   38.1310   30.4620   40.7820 C   0  0  0  0  0  0  0  0  0  0  0  0
   39.3610   30.6800   40.2720 N   0  0  0  0  0  0  0  0  0  0  0  0
   39.6790   31.8310   39.6520 C   0  0  0  0  0  0  0  0  0  0  0  0
   38.7670   32.8370   39.5100 N   0  0  0  0  0  0  0  0  0  0  0  0
   36.7900   33.4750   39.8900 H   0  0  0  0  0  0  0  0  0  0  0  0
   36.1570   31.3340   41.0560 H   0  0  0  0  0  0  0  0  0  0  0  0
   37.7630   29.2340   41.4560 C   0  0  0  0  0  0  0  0  0  0  0  0
   37.5830   29.2620   42.8020 C   0  0  0  0  0  0  0  0  0  0  0  0
   37.2260   28.0420   43.4050 C   0  0  0  0  0  0  0  0  0  0  0  0
   37.0940   26.9460   42.5770 C   0  0  0  0  0  0  0  0  0  0  0  0
   37.2760   26.9240   41.2260 C   0  0  0  0  0  0  0  0  0  0  0  0
   37.6210   28.1360   40.6900 N   0  0  0  0  0  0  0  0  0  0  0  0
   37.7030   30.1620   43.3920 H   0  0  0  0  0  0  0  0  0  0  0  0
   37.0650   27.9850   44.4730 H   0  0  0  0  0  0  0  0  0  0  0  0
   36.8190   26.0280   43.0770 H   0  0  0  0  0  0  0  0  0  0  0  0
   37.1210   25.7490   40.4360 N   0  0  0  0  0  0  0  0  0  0  0  0
   37.2890   25.7360   39.0800 C   0  0  0  0  0  3  0  0  0  0  0  0
   37.1210   24.5480   38.3810 C   0  0  0  0  0  0  0  0  0  0  0  0
   37.2600   24.5680   37.3100 H   0  0  0  0  0  0  0  0  0  0  0  0
   36.7810   23.3890   39.0850 C   0  0  0  0  0  0  0  0  0  0  0  0
   36.6310   22.3120   38.4320 O   0  0  0  0  0  0  0  0  0  0  0  0
   36.6280   23.4510   40.4130 N   0  0  0  0  0  0  0  0  0  0  0  0
   36.7930   24.6070   41.0910 C   0  0  0  0  0  0  0  0  0  0  0  0
   36.6210   24.5420   42.3380 O   0  0  0  0  0  0  0  0  0  0  0  0
   36.3780   22.5570   40.8600 H   0  0  0  0  0  0  0  0  0  0  0  0
   41.0520   32.0080   39.1090 C   0  0  2  0  0  0  0  0  0  0  0  0
   41.8590   32.5940   40.2330 C   0  0  0  0  0  0  0  0  0  0  0  0
   42.1850   34.0260   40.1210 C   0  0  0  0  0  0  0  0  0  0  0  0
   42.8700   34.2000   38.7720 C   0  0  0  0  0  0  0  0  0  0  0  0
   41.9740   33.9000   37.6590 C   0  0  0  0  0  0  0  0  0  0  0  0
   41.0510   32.7590   37.8750 C   0  0  0  0  0  0  0  0  0  0  0  0
   41.4160   30.9740   38.9140 H   0  0  0  0  0  0  0  0  0  0  0  0
   42.8300   32.0380   40.2960 H   0  0  0  0  0  0  0  0  0  0  0  0
   41.3920   32.4290   41.2300 H   0  0  0  0  0  0  0  0  0  0  0  0
   42.8920   34.2940   40.9090 H   0  0  0  0  0  0  0  0  0  0  0  0
   41.2530   34.6190   40.1920 H   0  0  0  0  0  0  0  0  0  0  0  0
   43.7360   33.5140   38.7620 H   0  0  0  0  0  0  0  0  0  0  0  0
   43.1040   35.2620   38.7030 H   0  0  0  0  0  0  0  0  0  0  0  0
   41.8340   34.3320   36.7000 H   0  0  0  0  0  0  0  0  0  0  0  0
   40.1280   32.3730   36.8580 N   0  0  0  0  0  0  0  0  0  0  0  0
   39.4510   33.1850   36.9110 H   0  0  0  0  0  0  0  0  0  0  0  0
   40.1760   31.5300   36.2790 H   0  0  0  0  0  0  0  0  0  0  0  0
  1  2  1  0  0  0  0
  2  3  2  0  0  0  0
  2  8  1  0  0  0  0
  3  9  1  0  0  0  0
  4  3  1  0  0  0  0
  5  4  2  0  0  0  0
  6  5  1  0  0  0  0
  6  1  2  0  0  0  0
  7  1  1  0  0  0  0
  9 10  1  0  0  0  0
 10 15  1  0  0  0  0
 10 11  2  0  0  0  0
 11 16  1  0  0  0  0
 12 17  1  0  0  0  0
 12 11  1  0  0  0  0
 13 12  2  0  0  0  0
 14 13  1  0  0  0  0
 14  9  2  0  0  0  0
 18 25  1  0  0  0  0
 18 13  1  0  0  0  0
 19 18  1  0  0  0  0
 20 19  2  0  0  0  0
 20 22  1  0  0  0  0
 21 20  1  0  0  0  0
 22 24  1  0  0  0  0
 23 22  2  0  0  0  0
 24 27  1  0  0  0  0
 24 25  1  0  0  0  0
 25 26  2  0  0  0  0
 28 34  1  6  0  0  0
 28  5  1  0  0  0  0
 28 29  1  0  0  0  0
 29 35  1  0  0  0  0
 29 36  1  0  0  0  0
 30 38  1  0  0  0  0
 30 29  1  0  0  0  0
 30 37  1  0  0  0  0
 31 30  1  0  0  0  0
 32 33  2  0  0  0  0
 32 31  1  0  0  0  0
 33 28  1  0  0  0  0
 39 31  1  0  0  0  0
 40 31  1  0  0  0  0
 41 32  1  0  0  0  0
 42 43  1  0  0  0  0
 42 33  1  0  0  0  0
 44 42  1  0  0  0  0
M  END
>  <minimizedAffinity>
-7.15846157

$$$$

 OpenBabel03252505093D

 44 47  0  0  1  0  0  0  0  0999 V2000
   40.0940   34.9110   40.0140 C   0  0  0  0  0  0  0  0  0  0  0  0
   39.1300   33.9470   40.3930 C   0  0  0  0  0  0  0  0  0  0  0  0
   39.4700   32.5670   40.2340 C   0  0  0  0  0  0  0  0  0  0  0  0
   40.6840   32.2550   39.7350 N   0  0  0  0  0  0  0  0  0  0  0  0
   41.5740   33.2030   39.3860 C   0  0  0  0  0  0  0  0  0  0  0  0
   41.2870   34.5300   39.5220 N   0  0  0  0  0  0  0  0  0  0  0  0
   39.8550   35.9600   40.1270 H   0  0  0  0  0  0  0  0  0  0  0  0
   38.1640   34.2160   40.7910 H   0  0  0  0  0  0  0  0  0  0  0  0
   38.4950   31.5690   40.6200 C   0  0  0  0  0  0  0  0  0  0  0  0
   37.1760   31.8690   40.4980 C   0  0  0  0  0  0  0  0  0  0  0  0
   36.2720   30.8630   40.8870 C   0  0  0  0  0  0  0  0  0  0  0  0
   36.8090   29.6790   41.3500 C   0  0  0  0  0  0  0  0  0  0  0  0
   38.1350   29.3830   41.4700 C   0  0  0  0  0  0  0  0  0  0  0  0
   38.9700   30.3950   41.0780 N   0  0  0  0  0  0  0  0  0  0  0  0
   36.8220   32.8220   40.1260 H   0  0  0  0  0  0  0  0  0  0  0  0
   35.2060   31.0280   40.8180 H   0  0  0  0  0  0  0  0  0  0  0  0
   36.0850   28.9320   41.6380 H   0  0  0  0  0  0  0  0  0  0  0  0
   38.6150   28.1340   41.9580 N   0  0  0  0  0  0  0  0  0  0  0  0
   39.9440   27.8370   42.0610 C   0  0  0  0  0  3  0  0  0  0  0  0
   40.3330   26.5950   42.5480 C   0  0  0  0  0  0  0  0  0  0  0  0
   41.3900   26.3890   42.6180 H   0  0  0  0  0  0  0  0  0  0  0  0
   39.3480   25.6760   42.9210 C   0  0  0  0  0  0  0  0  0  0  0  0
   39.7180   24.5460   43.3640 O   0  0  0  0  0  0  0  0  0  0  0  0
   38.0580   26.0130   42.8020 N   0  0  0  0  0  0  0  0  0  0  0  0
   37.6840   27.2210   42.3290 C   0  0  0  0  0  0  0  0  0  0  0  0
   36.4410   27.4230   42.2620 O   0  0  0  0  0  0  0  0  0  0  0  0
   37.3940   25.2830   43.0970 H   0  0  0  0  0  0  0  0  0  0  0  0
   42.8930   32.7920   38.8390 C   0  0  2  0  0  0  0  0  0  0  0  0
   43.7290   32.4230   40.0330 C   0  0  0  0  0  0  0  0  0  0  0  0
   44.7680   33.3910   40.4220 C   0  0  0  0  0  0  0  0  0  0  0  0
   45.6160   33.6260   39.1790 C   0  0  0  0  0  0  0  0  0  0  0  0
   44.8540   34.2590   38.1070 C   0  0  0  0  0  0  0  0  0  0  0  0
   43.4520   33.7990   37.9660 C   0  0  0  0  0  0  0  0  0  0  0  0
   42.6850   31.8680   38.2540 H   0  0  0  0  0  0  0  0  0  0  0  0
   44.2460   31.4530   39.8140 H   0  0  0  0  0  0  0  0  0  0  0  0
   43.1160   32.2010   40.9350 H   0  0  0  0  0  0  0  0  0  0  0  0
   45.3980   32.9480   41.1960 H   0  0  0  0  0  0  0  0  0  0  0  0
   44.2850   34.3220   40.7760 H   0  0  0  0  0  0  0  0  0  0  0  0
   45.9870   32.6380   38.8540 H   0  0  0  0  0  0  0  0  0  0  0  0
   46.3790   34.3430   39.4820 H   0  0  0  0  0  0  0  0  0  0  0  0
   45.0920   34.9990   37.3840 H   0  0  0  0  0  0  0  0  0  0  0  0
   42.6090   34.3470   36.9530 N   0  0  0  0  0  0  0  0  0  0  0  0
   42.4570   35.3160   37.3490 H   0  0  0  0  0  0  0  0  0  0  0  0
   42.2850   33.8710   36.1060 H   0  0  0  0  0  0  0  0  0  0  0  0
  1  7  1  0  0  0  0
  1  2  1  0  0  0  0
  2  8  1  0  0  0  0
  3  2  2  0  0  0  0
  3  9  1  0  0  0  0
  4  3  1  0  0  0  0
  5  6  1  0  0  0  0
  5  4  2  0  0  0  0
  6  1  2  0  0  0  0
  9 14  1  0  0  0  0
 10  9  2  0  0  0  0
 10 11  1  0  0  0  0
 11 12  2  0  0  0  0
 12 13  1  0  0  0  0
 12 17  1  0  0  0  0
 13 18  1  0  0  0  0
 14 13  2  0  0  0  0
 15 10  1  0  0  0  0
 16 11  1  0  0  0  0
 18 19  1  0  0  0  0
 18 25  1  0  0  0  0
 19 20  2  0  0  0  0
 20 21  1  0  0  0  0
 20 22  1  0  0  0  0
 22 23  2  0  0  0  0
 24 22  1  0  0  0  0
 24 27  1  0  0  0  0
 25 24  1  0  0  0  0
 26 25  2  0  0  0  0
 28 34  1  6  0  0  0
 28  5  1  0  0  0  0
 28 29  1  0  0  0  0
 29 30  1  0  0  0  0
 29 36  1  0  0  0  0
 30 38  1  0  0  0  0
 30 37  1  0  0  0  0
 31 40  1  0  0  0  0
 31 30  1  0  0  0  0
 32 31  1  0  0  0  0
 33 32  2  0  0  0  0
 33 28  1  0  0  0  0
 35 29  1  0  0  0  0
 39 31  1  0  0  0  0
 41 32  1  0  0  0  0
 42 43  1  0  0  0  0
 42 33  1  0  0  0  0
 44 42  1  0  0  0  0
M  END
>  <minimizedAffinity>
-7.09431076

$$$$

 OpenBabel03252505093D

 44 47  0  0  1  0  0  0  0  0999 V2000
   36.1990   27.1570   38.8910 C   0  0  0  0  0  0  0  0  0  0  0  0
   36.5590   28.5210   38.7800 C   0  0  0  0  0  0  0  0  0  0  0  0
   37.3070   29.1010   39.8520 C   0  0  0  0  0  0  0  0  0  0  0  0
   37.6300   28.3250   40.9080 N   0  0  0  0  0  0  0  0  0  0  0  0
   37.2690   27.0310   40.9750 C   0  0  0  0  0  0  0  0  0  0  0  0
   36.5550   26.4400   39.9730 N   0  0  0  0  0  0  0  0  0  0  0  0
   35.6330   26.7000   38.0900 H   0  0  0  0  0  0  0  0  0  0  0  0
   36.2920   29.1260   37.9280 H   0  0  0  0  0  0  0  0  0  0  0  0
   37.6850   30.4950   39.7530 C   0  0  0  0  0  0  0  0  0  0  0  0
   36.8370   31.3540   39.1290 C   0  0  0  0  0  0  0  0  0  0  0  0
   37.2540   32.6970   39.0620 C   0  0  0  0  0  0  0  0  0  0  0  0
   38.4730   33.0070   39.6300 C   0  0  0  0  0  0  0  0  0  0  0  0
   39.3200   32.1400   40.2550 C   0  0  0  0  0  0  0  0  0  0  0  0
   38.8670   30.8480   40.2940 N   0  0  0  0  0  0  0  0  0  0  0  0
   35.8920   31.0420   38.7040 H   0  0  0  0  0  0  0  0  0  0  0  0
   36.6320   33.4400   38.5810 H   0  0  0  0  0  0  0  0  0  0  0  0
   38.7570   34.0460   39.5580 H   0  0  0  0  0  0  0  0  0  0  0  0
   40.5660   32.5360   40.8190 N   0  0  0  0  0  0  0  0  0  0  0  0
   41.4030   31.6660   41.4580 C   0  0  0  0  0  3  0  0  0  0  0  0
   42.6030   32.1310   41.9820 C   0  0  0  0  0  0  0  0  0  0  0  0
   43.2450   31.4200   42.4810 H   0  0  0  0  0  0  0  0  0  0  0  0
   42.9240   33.4840   41.8420 C   0  0  0  0  0  0  0  0  0  0  0  0
   44.0240   33.8930   42.3260 O   0  0  0  0  0  0  0  0  0  0  0  0
   42.0720   34.2980   41.2080 N   0  0  0  0  0  0  0  0  0  0  0  0
   40.9070   33.8430   40.6990 C   0  0  0  0  0  0  0  0  0  0  0  0
   40.1860   34.7030   40.1240 O   0  0  0  0  0  0  0  0  0  0  0  0
   42.3790   35.2790   41.1460 H   0  0  0  0  0  0  0  0  0  0  0  0
   37.6540   26.2310   42.1670 C   0  0  2  0  0  0  0  0  0  0  0  0
   37.9650   27.2330   43.2430 C   0  0  0  0  0  0  0  0  0  0  0  0
   39.3910   27.4320   43.5530 C   0  0  0  0  0  0  0  0  0  0  0  0
   39.9500   26.0520   43.8750 C   0  0  0  0  0  0  0  0  0  0  0  0
   39.9070   25.1590   42.7210 C   0  0  0  0  0  0  0  0  0  0  0  0
   38.7030   25.2840   41.8650 C   0  0  0  0  0  0  0  0  0  0  0  0
   36.7290   25.6810   42.4520 H   0  0  0  0  0  0  0  0  0  0  0  0
   37.4640   26.9000   44.1890 H   0  0  0  0  0  0  0  0  0  0  0  0
   37.5190   28.2330   43.0420 H   0  0  0  0  0  0  0  0  0  0  0  0
   39.4790   28.0600   44.4410 H   0  0  0  0  0  0  0  0  0  0  0  0
   39.8940   27.8880   42.6800 H   0  0  0  0  0  0  0  0  0  0  0  0
   39.3380   25.6430   44.6990 H   0  0  0  0  0  0  0  0  0  0  0  0
   41.0040   26.2140   44.1020 H   0  0  0  0  0  0  0  0  0  0  0  0
   40.5690   24.4180   42.3500 H   0  0  0  0  0  0  0  0  0  0  0  0
   38.5510   24.4640   40.7080 N   0  0  0  0  0  0  0  0  0  0  0  0
   39.2820   24.9000   40.0790 H   0  0  0  0  0  0  0  0  0  0  0  0
   37.8930   23.6870   40.5930 H   0  0  0  0  0  0  0  0  0  0  0  0
  1  6  1  0  0  0  0
  2  1  2  0  0  0  0
  2  3  1  0  0  0  0
  3  4  2  0  0  0  0
  4  5  1  0  0  0  0
  5 28  1  0  0  0  0
  6  5  2  0  0  0  0
  7  1  1  0  0  0  0
  8  2  1  0  0  0  0
  9  3  1  0  0  0  0
  9 14  1  0  0  0  0
 10  9  2  0  0  0  0
 11 10  1  0  0  0  0
 11 12  2  0  0  0  0
 12 13  1  0  0  0  0
 13 14  2  0  0  0  0
 13 18  1  0  0  0  0
 15 10  1  0  0  0  0
 16 11  1  0  0  0  0
 17 12  1  0  0  0  0
 18 19  1  0  0  0  0
 19 20  2  0  0  0  0
 20 21  1  0  0  0  0
 22 20  1  0  0  0  0
 22 23  2  0  0  0  0
 24 22  1  0  0  0  0
 25 18  1  0  0  0  0
 25 24  1  0  0  0  0
 26 25  2  0  0  0  0
 27 24  1  0  0  0  0
 28 34  1  1  0  0  0
 28 29  1  0  0  0  0
 29 30  1  0  0  0  0
 29 35  1  0  0  0  0
 30 31  1  0  0  0  0
 30 37  1  0  0  0  0
 31 40  1  0  0  0  0
 31 39  1  0  0  0  0
 32 31  1  0  0  0  0
 33 28  1  0  0  0  0
 33 32  2  0  0  0  0
 36 29  1  0  0  0  0
 38 30  1  0  0  0  0
 41 32  1  0  0  0  0
 42 33  1  0  0  0  0
 43 42  1  0  0  0  0
 44 42  1  0  0  0  0
M  END
>  <minimizedAffinity>
-6.88270617

$$$$

 OpenBabel03252505093D

 44 47  0  0  1  0  0  0  0  0999 V2000
   35.8750   28.7520   38.4610 C   0  0  0  0  0  0  0  0  0  0  0  0
   36.5620   29.9890   38.4830 C   0  0  0  0  0  0  0  0  0  0  0  0
   37.4900   30.2160   39.5470 C   0  0  0  0  0  0  0  0  0  0  0  0
   37.6640   29.2460   40.4700 N   0  0  0  0  0  0  0  0  0  0  0  0
   36.9900   28.0830   40.4130 C   0  0  0  0  0  0  0  0  0  0  0  0
   36.0960   27.8290   39.4140 N   0  0  0  0  0  0  0  0  0  0  0  0
   35.1680   28.5630   37.6640 H   0  0  0  0  0  0  0  0  0  0  0  0
   36.4110   30.7530   37.7370 H   0  0  0  0  0  0  0  0  0  0  0  0
   38.2040   31.4750   39.5830 C   0  0  0  0  0  0  0  0  0  0  0  0
   37.5850   32.5550   40.1260 C   0  0  0  0  0  0  0  0  0  0  0  0
   38.3240   33.7540   40.1350 C   0  0  0  0  0  0  0  0  0  0  0  0
   39.5930   33.7140   39.5960 C   0  0  0  0  0  0  0  0  0  0  0  0
   40.2090   32.6260   39.0520 C   0  0  0  0  0  0  0  0  0  0  0  0
   39.4480   31.4870   39.0690 N   0  0  0  0  0  0  0  0  0  0  0  0
   36.5830   32.5160   40.5330 H   0  0  0  0  0  0  0  0  0  0  0  0
   37.8980   34.6560   40.5520 H   0  0  0  0  0  0  0  0  0  0  0  0
   40.1280   34.6520   39.6210 H   0  0  0  0  0  0  0  0  0  0  0  0
   41.5270   32.6630   38.5130 N   0  0  0  0  0  0  0  0  0  0  0  0
   42.1460   31.5660   37.9830 C   0  0  0  0  0  3  0  0  0  0  0  0
   43.4330   31.6840   37.4770 C   0  0  0  0  0  0  0  0  0  0  0  0
   43.8970   30.8000   37.0650 H   0  0  0  0  0  0  0  0  0  0  0  0
   44.0680   32.9290   37.5220 C   0  0  0  0  0  0  0  0  0  0  0  0
   45.2440   33.0210   37.0550 O   0  0  0  0  0  0  0  0  0  0  0  0
   43.4210   33.9750   38.0510 N   0  0  0  0  0  0  0  0  0  0  0  0
   42.1690   33.8570   38.5420 C   0  0  0  0  0  0  0  0  0  0  0  0
   41.6630   34.9110   39.0140 O   0  0  0  0  0  0  0  0  0  0  0  0
   43.9540   34.8560   38.0480 H   0  0  0  0  0  0  0  0  0  0  0  0
   37.2240   27.0570   41.4620 C   0  0  2  0  0  0  0  0  0  0  0  0
   36.7920   27.6930   42.7540 C   0  0  0  0  0  0  0  0  0  0  0  0
   37.8710   28.1240   43.6590 C   0  0  0  0  0  0  0  0  0  0  0  0
   38.7460   26.8990   43.8880 C   0  0  0  0  0  0  0  0  0  0  0  0
   39.4010   26.4550   42.6610 C   0  0  0  0  0  0  0  0  0  0  0  0
   38.5790   26.5530   41.4310 C   0  0  0  0  0  0  0  0  0  0  0  0
   36.5170   26.2330   41.2190 H   0  0  0  0  0  0  0  0  0  0  0  0
   36.1640   26.9540   43.3160 H   0  0  0  0  0  0  0  0  0  0  0  0
   36.1110   28.5600   42.6000 H   0  0  0  0  0  0  0  0  0  0  0  0
   37.4360   28.4260   44.6140 H   0  0  0  0  0  0  0  0  0  0  0  0
   38.4330   28.9520   43.1880 H   0  0  0  0  0  0  0  0  0  0  0  0
   38.0880   26.1040   44.2810 H   0  0  0  0  0  0  0  0  0  0  0  0
   39.5390   27.2330   44.5580 H   0  0  0  0  0  0  0  0  0  0  0  0
   40.3650   26.0660   42.4510 H   0  0  0  0  0  0  0  0  0  0  0  0
   39.1120   26.1490   40.1710 N   0  0  0  0  0  0  0  0  0  0  0  0
   39.8030   26.9340   40.0070 H   0  0  0  0  0  0  0  0  0  0  0  0
   38.8490   25.3160   39.6360 H   0  0  0  0  0  0  0  0  0  0  0  0
  1  2  2  0  0  0  0
  1  6  1  0  0  0  0
  2  3  1  0  0  0  0
  3  9  1  0  0  0  0
  3  4  2  0  0  0  0
  5  4  1  0  0  0  0
  5 28  1  0  0  0  0
  6  5  2  0  0  0  0
  7  1  1  0  0  0  0
  8  2  1  0  0  0  0
  9 10  1  0  0  0  0
 10 11  2  0  0  0  0
 10 15  1  0  0  0  0
 11 16  1  0  0  0  0
 12 17  1  0  0  0  0
 12 11  1  0  0  0  0
 13 14  1  0  0  0  0
 13 12  2  0  0  0  0
 14  9  2  0  0  0  0
 18 25  1  0  0  0  0
 18 13  1  0  0  0  0
 19 18  1  0  0  0  0
 20 22  1  0  0  0  0
 20 19  2  0  0  0  0
 21 20  1  0  0  0  0
 22 24  1  0  0  0  0
 23 22  2  0  0  0  0
 24 25  1  0  0  0  0
 25 26  2  0  0  0  0
 27 24  1  0  0  0  0
 28 34  1  6  0  0  0
 28 29  1  0  0  0  0
 29 35  1  0  0  0  0
 29 30  1  0  0  0  0
 30 31  1  0  0  0  0
 30 37  1  0  0  0  0
 31 39  1  0  0  0  0
 31 40  1  0  0  0  0
 32 31  1  0  0  0  0
 33 28  1  0  0  0  0
 33 32  2  0  0  0  0
 36 29  1  0  0  0  0
 38 30  1  0  0  0  0
 41 32  1  0  0  0  0
 42 33  1  0  0  0  0
 43 42  1  0  0  0  0
 44 42  1  0  0  0  0
M  END
>  <minimizedAffinity>
-6.5972352

$$$$

 OpenBabel03252505093D

 44 47  0  0  1  0  0  0  0  0999 V2000
   36.8650   24.0590   40.6750 C   0  0  0  0  0  0  0  0  0  0  0  0
   36.5590   25.2670   40.0020 C   0  0  0  0  0  0  0  0  0  0  0  0
   37.4930   26.3440   40.1090 C   0  0  0  0  0  0  0  0  0  0  0  0
   38.6120   26.1570   40.8410 N   0  0  0  0  0  0  0  0  0  0  0  0
   38.8660   24.9920   41.4650 C   0  0  0  0  0  0  0  0  0  0  0  0
   38.0000   23.9410   41.3870 N   0  0  0  0  0  0  0  0  0  0  0  0
   36.1700   23.2340   40.6050 H   0  0  0  0  0  0  0  0  0  0  0  0
   35.6590   25.3980   39.4220 H   0  0  0  0  0  0  0  0  0  0  0  0
   37.1960   27.5850   39.4250 C   0  0  0  0  0  0  0  0  0  0  0  0
   35.8970   27.8860   39.1650 C   0  0  0  0  0  0  0  0  0  0  0  0
   35.6660   29.1040   38.4980 C   0  0  0  0  0  0  0  0  0  0  0  0
   36.7700   29.8660   38.1770 C   0  0  0  0  0  0  0  0  0  0  0  0
   38.0720   29.5570   38.4420 C   0  0  0  0  0  0  0  0  0  0  0  0
   38.2420   28.3640   39.0910 N   0  0  0  0  0  0  0  0  0  0  0  0
   35.0760   27.2400   39.4460 H   0  0  0  0  0  0  0  0  0  0  0  0
   34.6580   29.4130   38.2570 H   0  0  0  0  0  0  0  0  0  0  0  0
   36.5520   30.7920   37.6670 H   0  0  0  0  0  0  0  0  0  0  0  0
   39.1630   30.3980   38.0780 N   0  0  0  0  0  0  0  0  0  0  0  0
   40.4640   30.0920   38.3590 C   0  0  0  0  0  3  0  0  0  0  0  0
   41.4720   30.9640   37.9700 C   0  0  0  0  0  0  0  0  0  0  0  0
   42.4910   30.6960   38.2060 H   0  0  0  0  0  0  0  0  0  0  0  0
   41.1280   32.1400   37.2970 C   0  0  0  0  0  0  0  0  0  0  0  0
   42.0610   32.9270   36.9480 O   0  0  0  0  0  0  0  0  0  0  0  0
   39.8400   32.3970   37.0440 N   0  0  0  0  0  0  0  0  0  0  0  0
   38.8620   31.5460   37.4230 C   0  0  0  0  0  0  0  0  0  0  0  0
   37.6860   31.8960   37.1290 O   0  0  0  0  0  0  0  0  0  0  0  0
   39.6670   33.2820   36.5450 H   0  0  0  0  0  0  0  0  0  0  0  0
   40.1160   24.8520   42.2570 C   0  0  2  0  0  0  0  0  0  0  0  0
   39.7870   25.3760   43.6270 C   0  0  0  0  0  0  0  0  0  0  0  0
   40.3320   26.7030   43.9630 C   0  0  0  0  0  0  0  0  0  0  0  0
   41.8340   26.6170   43.7280 C   0  0  0  0  0  0  0  0  0  0  0  0
   42.1560   26.3910   42.3220 C   0  0  0  0  0  0  0  0  0  0  0  0
   41.2440   25.4720   41.6000 C   0  0  0  0  0  0  0  0  0  0  0  0
   40.2860   23.7540   42.3300 H   0  0  0  0  0  0  0  0  0  0  0  0
   40.1870   24.6540   44.3850 H   0  0  0  0  0  0  0  0  0  0  0  0
   38.6930   25.3980   43.8290 H   0  0  0  0  0  0  0  0  0  0  0  0
   40.1550   26.9040   45.0220 H   0  0  0  0  0  0  0  0  0  0  0  0
   39.8550   27.4660   43.3200 H   0  0  0  0  0  0  0  0  0  0  0  0
   42.2070   25.7810   44.3460 H   0  0  0  0  0  0  0  0  0  0  0  0
   42.2230   27.6040   43.9790 H   0  0  0  0  0  0  0  0  0  0  0  0
   42.9250   26.7500   41.6850 H   0  0  0  0  0  0  0  0  0  0  0  0
   41.4590   25.1760   40.2210 N   0  0  0  0  0  0  0  0  0  0  0  0
   41.1820   26.1030   39.7910 H   0  0  0  0  0  0  0  0  0  0  0  0
   41.7910   24.2880   39.8320 H   0  0  0  0  0  0  0  0  0  0  0  0
  1  6  1  0  0  0  0
  2  3  1  0  0  0  0
  2  1  2  0  0  0  0
  3  4  2  0  0  0  0
  4  5  1  0  0  0  0
  5 28  1  0  0  0  0
  6  5  2  0  0  0  0
  7  1  1  0  0  0  0
  8  2  1  0  0  0  0
  9  3  1  0  0  0  0
 10  9  1  0  0  0  0
 10 15  1  0  0  0  0
 11 10  2  0  0  0  0
 12 13  2  0  0  0  0
 12 11  1  0  0  0  0
 13 14  1  0  0  0  0
 14  9  2  0  0  0  0
 16 11  1  0  0  0  0
 17 12  1  0  0  0  0
 18 19  1  0  0  0  0
 18 13  1  0  0  0  0
 20 21  1  0  0  0  0
 20 19  2  0  0  0  0
 22 20  1  0  0  0  0
 23 22  2  0  0  0  0
 24 22  1  0  0  0  0
 24 25  1  0  0  0  0
 25 18  1  0  0  0  0
 26 25  2  0  0  0  0
 27 24  1  0  0  0  0
 28 34  1  1  0  0  0
 28 29  1  0  0  0  0
 29 36  1  0  0  0  0
 29 30  1  0  0  0  0
 29 35  1  0  0  0  0
 30 37  1  0  0  0  0
 31 30  1  0  0  0  0
 31 40  1  0  0  0  0
 31 39  1  0  0  0  0
 32 31  1  0  0  0  0
 33 28  1  0  0  0  0
 33 32  2  0  0  0  0
 38 30  1  0  0  0  0
 41 32  1  0  0  0  0
 42 33  1  0  0  0  0
 43 42  1  0  0  0  0
 44 42  1  0  0  0  0
M  END
>  <minimizedAffinity>
-6.52077055

$$$$

 OpenBabel03252505093D

 44 47  0  0  1  0  0  0  0  0999 V2000
   40.7490   32.8370   40.4420 C   0  0  0  0  0  0  0  0  0  0  0  0
   41.0610   31.6470   41.1420 C   0  0  0  0  0  0  0  0  0  0  0  0
   40.1910   30.5260   40.9700 C   0  0  0  0  0  0  0  0  0  0  0  0
   39.1220   30.6570   40.1560 N   0  0  0  0  0  0  0  0  0  0  0  0
   38.8600   31.8070   39.5080 C   0  0  0  0  0  0  0  0  0  0  0  0
   39.6660   32.8990   39.6460 N   0  0  0  0  0  0  0  0  0  0  0  0
   41.3960   33.6960   40.5590 H   0  0  0  0  0  0  0  0  0  0  0  0
   41.9200   31.5610   41.7880 H   0  0  0  0  0  0  0  0  0  0  0  0
   40.4980   29.3000   41.6770 C   0  0  0  0  0  0  0  0  0  0  0  0
   41.4540   29.3310   42.6420 C   0  0  0  0  0  0  0  0  0  0  0  0
   41.7120   28.1120   43.2970 C   0  0  0  0  0  0  0  0  0  0  0  0
   40.9770   27.0150   42.8980 C   0  0  0  0  0  0  0  0  0  0  0  0
   40.0190   26.9910   41.9280 C   0  0  0  0  0  0  0  0  0  0  0  0
   39.8060   28.2010   41.3240 N   0  0  0  0  0  0  0  0  0  0  0  0
   41.9940   30.2310   42.9060 H   0  0  0  0  0  0  0  0  0  0  0  0
   42.4590   28.0570   44.0770 H   0  0  0  0  0  0  0  0  0  0  0  0
   41.2040   26.0990   43.4230 H   0  0  0  0  0  0  0  0  0  0  0  0
   39.2990   25.8140   41.5710 N   0  0  0  0  0  0  0  0  0  0  0  0
   38.3290   25.7990   40.6090 C   0  0  0  0  0  3  0  0  0  0  0  0
   37.6720   24.6110   40.3180 C   0  0  0  0  0  0  0  0  0  0  0  0
   36.9100   24.6290   39.5530 H   0  0  0  0  0  0  0  0  0  0  0  0
   38.0220   23.4540   41.0200 C   0  0  0  0  0  0  0  0  0  0  0  0
   37.4130   22.3760   40.7430 O   0  0  0  0  0  0  0  0  0  0  0  0
   38.9790   23.5180   41.9540 N   0  0  0  0  0  0  0  0  0  0  0  0
   39.6160   24.6750   42.2340 C   0  0  0  0  0  0  0  0  0  0  0  0
   40.4980   24.6120   43.1320 O   0  0  0  0  0  0  0  0  0  0  0  0
   39.1800   22.6250   42.4270 H   0  0  0  0  0  0  0  0  0  0  0  0
   37.6650   31.8870   38.6280 C   0  0  2  0  0  0  0  0  0  0  0  0
   36.6070   31.0610   39.3060 C   0  0  0  0  0  0  0  0  0  0  0  0
   36.3250   29.7460   38.7050 C   0  0  0  0  0  0  0  0  0  0  0  0
   35.9960   30.0110   37.2420 C   0  0  0  0  0  0  0  0  0  0  0  0
   37.1380   30.5530   36.5120 C   0  0  0  0  0  0  0  0  0  0  0  0
   37.9730   31.5190   37.2650 C   0  0  0  0  0  0  0  0  0  0  0  0
   37.3550   32.9560   38.6630 H   0  0  0  0  0  0  0  0  0  0  0  0
   35.6480   31.6410   39.2970 H   0  0  0  0  0  0  0  0  0  0  0  0
   36.8130   30.9020   40.3880 H   0  0  0  0  0  0  0  0  0  0  0  0
   35.4470   29.3130   39.1890 H   0  0  0  0  0  0  0  0  0  0  0  0
   37.2130   29.0950   38.8180 H   0  0  0  0  0  0  0  0  0  0  0  0
   35.1560   30.7280   37.2280 H   0  0  0  0  0  0  0  0  0  0  0  0
   35.7900   29.0310   36.8110 H   0  0  0  0  0  0  0  0  0  0  0  0
   37.5110   30.4030   35.5310 H   0  0  0  0  0  0  0  0  0  0  0  0
   39.1170   32.1150   36.6550 N   0  0  0  0  0  0  0  0  0  0  0  0
   39.7640   31.2780   36.6270 H   0  0  0  0  0  0  0  0  0  0  0  0
   39.2100   33.0900   36.3550 H   0  0  0  0  0  0  0  0  0  0  0  0
  1  7  1  0  0  0  0
  1  2  1  0  0  0  0
  2  8  1  0  0  0  0
  3  2  2  0  0  0  0
  3  9  1  0  0  0  0
  4  3  1  0  0  0  0
  5  6  1  0  0  0  0
  5  4  2  0  0  0  0
  6  1  2  0  0  0  0
  9 10  1  0  0  0  0
 10 15  1  0  0  0  0
 10 11  2  0  0  0  0
 11 16  1  0  0  0  0
 12 11  1  0  0  0  0
 12 17  1  0  0  0  0
 13 12  2  0  0  0  0
 14  9  2  0  0  0  0
 14 13  1  0  0  0  0
 18 13  1  0  0  0  0
 18 25  1  0  0  0  0
 19 18  1  0  0  0  0
 20 19  2  0  0  0  0
 20 22  1  0  0  0  0
 21 20  1  0  0  0  0
 22 24  1  0  0  0  0
 23 22  2  0  0  0  0
 24 25  1  0  0  0  0
 24 27  1  0  0  0  0
 25 26  2  0  0  0  0
 28 34  1  6  0  0  0
 28 29  1  0  0  0  0
 28  5  1  0  0  0  0
 29 36  1  0  0  0  0
 30 38  1  0  0  0  0
 30 37  1  0  0  0  0
 30 29  1  0  0  0  0
 31 30  1  0  0  0  0
 32 31  1  0  0  0  0
 32 33  2  0  0  0  0
 33 28  1  0  0  0  0
 35 29  1  0  0  0  0
 39 31  1  0  0  0  0
 40 31  1  0  0  0  0
 41 32  1  0  0  0  0
 42 33  1  0  0  0  0
 43 42  1  0  0  0  0
 44 42  1  0  0  0  0
M  END
>  <minimizedAffinity>
-6.49855137

$$$$

 OpenBabel03252505093D

 44 47  0  0  1  0  0  0  0  0999 V2000
   39.9810   24.7680   43.2680 C   0  0  0  0  0  0  0  0  0  0  0  0
   40.9150   25.8210   43.4210 C   0  0  0  0  0  0  0  0  0  0  0  0
   40.4900   27.1420   43.0760 C   0  0  0  0  0  0  0  0  0  0  0  0
   39.2300   27.3190   42.6250 N   0  0  0  0  0  0  0  0  0  0  0  0
   38.3720   26.2900   42.4950 C   0  0  0  0  0  0  0  0  0  0  0  0
   38.7390   25.0150   42.8130 N   0  0  0  0  0  0  0  0  0  0  0  0
   40.2840   23.7620   43.5240 H   0  0  0  0  0  0  0  0  0  0  0  0
   41.9180   25.6620   43.7820 H   0  0  0  0  0  0  0  0  0  0  0  0
   41.4330   28.2310   43.2280 C   0  0  0  0  0  0  0  0  0  0  0  0
   42.4350   28.0980   44.1350 C   0  0  0  0  0  0  0  0  0  0  0  0
   43.3220   29.1860   44.2420 C   0  0  0  0  0  0  0  0  0  0  0  0
   43.0890   30.2710   43.4230 C   0  0  0  0  0  0  0  0  0  0  0  0
   42.0800   30.3980   42.5140 C   0  0  0  0  0  0  0  0  0  0  0  0
   41.2470   29.3140   42.4490 N   0  0  0  0  0  0  0  0  0  0  0  0
   42.5600   27.2150   44.7480 H   0  0  0  0  0  0  0  0  0  0  0  0
   44.1460   29.1540   44.9420 H   0  0  0  0  0  0  0  0  0  0  0  0
   43.7900   31.0850   43.5340 H   0  0  0  0  0  0  0  0  0  0  0  0
   41.9040   31.5540   41.7000 N   0  0  0  0  0  0  0  0  0  0  0  0
   40.9010   31.6700   40.7800 C   0  0  0  0  0  3  0  0  0  0  0  0
   40.7960   32.8310   40.0240 C   0  0  0  0  0  0  0  0  0  0  0  0
   39.9930   32.8940   39.3050 H   0  0  0  0  0  0  0  0  0  0  0  0
   41.7240   33.8570   40.2260 C   0  0  0  0  0  0  0  0  0  0  0  0
   41.6140   34.9110   39.5290 O   0  0  0  0  0  0  0  0  0  0  0  0
   42.6890   33.6970   41.1400 N   0  0  0  0  0  0  0  0  0  0  0  0
   42.7880   32.5680   41.8730 C   0  0  0  0  0  0  0  0  0  0  0  0
   43.7380   32.5330   42.7010 O   0  0  0  0  0  0  0  0  0  0  0  0
   43.3330   34.4960   41.2290 H   0  0  0  0  0  0  0  0  0  0  0  0
   36.9990   26.5510   41.9900 C   0  0  2  0  0  0  0  0  0  0  0  0
   37.0230   26.1690   40.5370 C   0  0  0  0  0  0  0  0  0  0  0  0
   37.0340   27.2830   39.5730 C   0  0  0  0  0  0  0  0  0  0  0  0
   35.8340   28.1540   39.9170 C   0  0  0  0  0  0  0  0  0  0  0  0
   35.9580   28.7610   41.2400 C   0  0  0  0  0  0  0  0  0  0  0  0
   36.5640   27.8980   42.2810 C   0  0  0  0  0  0  0  0  0  0  0  0
   36.3520   25.8270   42.5350 H   0  0  0  0  0  0  0  0  0  0  0  0
   36.1110   25.5540   40.3190 H   0  0  0  0  0  0  0  0  0  0  0  0
   37.8690   25.4920   40.2830 H   0  0  0  0  0  0  0  0  0  0  0  0
   36.9000   26.8850   38.5650 H   0  0  0  0  0  0  0  0  0  0  0  0
   37.9880   27.8370   39.6670 H   0  0  0  0  0  0  0  0  0  0  0  0
   34.9430   27.5020   39.8770 H   0  0  0  0  0  0  0  0  0  0  0  0
   35.8560   28.9730   39.1980 H   0  0  0  0  0  0  0  0  0  0  0  0
   35.7000   29.7140   41.6300 H   0  0  0  0  0  0  0  0  0  0  0  0
   36.7380   28.3830   43.6120 N   0  0  0  0  0  0  0  0  0  0  0  0
   37.5220   29.0760   43.4510 H   0  0  0  0  0  0  0  0  0  0  0  0
   36.2100   28.0940   44.4400 H   0  0  0  0  0  0  0  0  0  0  0  0
  1  2  1  0  0  0  0
  1  7  1  0  0  0  0
  2  8  1  0  0  0  0
  3  9  1  0  0  0  0
  3  2  2  0  0  0  0
  4  3  1  0  0  0  0
  5  4  2  0  0  0  0
  5  6  1  0  0  0  0
  6  1  2  0  0  0  0
  9 10  1  0  0  0  0
 10 11  2  0  0  0  0
 10 15  1  0  0  0  0
 11 16  1  0  0  0  0
 12 17  1  0  0  0  0
 12 11  1  0  0  0  0
 13 12  2  0  0  0  0
 14 13  1  0  0  0  0
 14  9  2  0  0  0  0
 18 25  1  0  0  0  0
 18 13  1  0  0  0  0
 19 18  1  0  0  0  0
 20 22  1  0  0  0  0
 20 19  2  0  0  0  0
 21 20  1  0  0  0  0
 22 24  1  0  0  0  0
 23 22  2  0  0  0  0
 24 27  1  0  0  0  0
 24 25  1  0  0  0  0
 25 26  2  0  0  0  0
 28 33  1  0  0  0  0
 28  5  1  0  0  0  0
 28 34  1  1  0  0  0
 29 28  1  0  0  0  0
 30 38  1  0  0  0  0
 30 31  1  0  0  0  0
 30 29  1  0  0  0  0
 31 32  1  0  0  0  0
 32 41  1  0  0  0  0
 32 33  2  0  0  0  0
 33 42  1  0  0  0  0
 35 29  1  0  0  0  0
 36 29  1  0  0  0  0
 37 30  1  0  0  0  0
 39 31  1  0  0  0  0
 40 31  1  0  0  0  0
 42 44  1  0  0  0  0
 43 42  1  0  0  0  0
M  END
>  <minimizedAffinity>
-6.45973063

$$$$

 OpenBabel03252505093D

 44 47  0  0  1  0  0  0  0  0999 V2000
   37.0210   27.1510   42.7640 C   0  0  0  0  0  0  0  0  0  0  0  0
   38.3470   27.4100   43.1850 C   0  0  0  0  0  0  0  0  0  0  0  0
   39.1150   28.3500   42.4290 C   0  0  0  0  0  0  0  0  0  0  0  0
   38.5410   28.9400   41.3590 N   0  0  0  0  0  0  0  0  0  0  0  0
   37.2750   28.6660   40.9910 C   0  0  0  0  0  0  0  0  0  0  0  0
   36.5110   27.7750   41.6860 N   0  0  0  0  0  0  0  0  0  0  0  0
   36.4250   26.4420   43.3230 H   0  0  0  0  0  0  0  0  0  0  0  0
   38.7890   26.9290   44.0430 H   0  0  0  0  0  0  0  0  0  0  0  0
   40.4720   28.6280   42.8490 C   0  0  0  0  0  0  0  0  0  0  0  0
   41.1370   27.6810   43.5610 C   0  0  0  0  0  0  0  0  0  0  0  0
   42.4530   28.0030   43.9430 C   0  0  0  0  0  0  0  0  0  0  0  0
   42.9350   29.2380   43.5600 C   0  0  0  0  0  0  0  0  0  0  0  0
   42.2620   30.1840   42.8450 C   0  0  0  0  0  0  0  0  0  0  0  0
   40.9880   29.8210   42.4990 N   0  0  0  0  0  0  0  0  0  0  0  0
   40.6960   26.7290   43.8280 H   0  0  0  0  0  0  0  0  0  0  0  0
   43.0460   27.3000   44.5120 H   0  0  0  0  0  0  0  0  0  0  0  0
   43.9470   29.4480   43.8720 H   0  0  0  0  0  0  0  0  0  0  0  0
   42.8290   31.4410   42.4860 N   0  0  0  0  0  0  0  0  0  0  0  0
   42.1560   32.3790   41.7560 C   0  0  0  0  0  3  0  0  0  0  0  0
   42.7790   33.5820   41.4470 C   0  0  0  0  0  0  0  0  0  0  0  0
   42.2220   34.3040   40.8680 H   0  0  0  0  0  0  0  0  0  0  0  0
   44.0850   33.8030   41.8930 C   0  0  0  0  0  0  0  0  0  0  0  0
   44.6400   34.9060   41.6030 O   0  0  0  0  0  0  0  0  0  0  0  0
   44.7030   32.8540   42.6050 N   0  0  0  0  0  0  0  0  0  0  0  0
   44.0950   31.6860   42.9050 C   0  0  0  0  0  0  0  0  0  0  0  0
   44.7780   30.8690   43.5810 O   0  0  0  0  0  0  0  0  0  0  0  0
   45.6620   33.0910   42.8970 H   0  0  0  0  0  0  0  0  0  0  0  0
   36.7030   29.3480   39.8010 C   0  0  2  0  0  0  0  0  0  0  0  0
   37.6470   29.0480   38.6700 C   0  0  0  0  0  0  0  0  0  0  0  0
   38.5220   30.1540   38.2440 C   0  0  0  0  0  0  0  0  0  0  0  0
   37.6010   31.3250   37.9270 C   0  0  0  0  0  0  0  0  0  0  0  0
   36.8930   31.8020   39.1110 C   0  0  0  0  0  0  0  0  0  0  0  0
   36.4460   30.7470   40.0530 C   0  0  0  0  0  0  0  0  0  0  0  0
   35.7410   28.8230   39.6070 H   0  0  0  0  0  0  0  0  0  0  0  0
   37.0420   28.7430   37.7780 H   0  0  0  0  0  0  0  0  0  0  0  0
   38.2920   28.1640   38.8710 H   0  0  0  0  0  0  0  0  0  0  0  0
   39.0450   29.8640   37.3310 H   0  0  0  0  0  0  0  0  0  0  0  0
   39.2300   30.3940   39.0600 H   0  0  0  0  0  0  0  0  0  0  0  0
   36.8810   30.9700   37.1680 H   0  0  0  0  0  0  0  0  0  0  0  0
   38.2610   32.1340   37.6140 H   0  0  0  0  0  0  0  0  0  0  0  0
   36.6190   32.7670   39.4550 H   0  0  0  0  0  0  0  0  0  0  0  0
   35.7440   31.0940   41.2460 N   0  0  0  0  0  0  0  0  0  0  0  0
   36.5340   31.5280   41.8010 H   0  0  0  0  0  0  0  0  0  0  0  0
   34.7510   30.9340   41.4380 H   0  0  0  0  0  0  0  0  0  0  0  0
  1  2  1  0  0  0  0
  1  7  1  0  0  0  0
  2  8  1  0  0  0  0
  3  9  1  0  0  0  0
  3  2  2  0  0  0  0
  4  3  1  0  0  0  0
  5  4  2  0  0  0  0
  5  6  1  0  0  0  0
  6  1  2  0  0  0  0
  9 10  1  0  0  0  0
 10 15  1  0  0  0  0
 10 11  2  0  0  0  0
 11 16  1  0  0  0  0
 12 17  1  0  0  0  0
 12 11  1  0  0  0  0
 13 12  2  0  0  0  0
 14 13  1  0  0  0  0
 14  9  2  0  0  0  0
 18 13  1  0  0  0  0
 18 25  1  0  0  0  0
 19 18  1  0  0  0  0
 20 19  2  0  0  0  0
 20 22  1  0  0  0  0
 21 20  1  0  0  0  0
 22 24  1  0  0  0  0
 23 22  2  0  0  0  0
 24 27  1  0  0  0  0
 24 25  1  0  0  0  0
 25 26  2  0  0  0  0
 28 34  1  6  0  0  0
 28 33  1  0  0  0  0
 28  5  1  0  0  0  0
 29 36  1  0  0  0  0
 29 28  1  0  0  0  0
 30 29  1  0  0  0  0
 30 38  1  0  0  0  0
 31 30  1  0  0  0  0
 31 32  1  0  0  0  0
 32 41  1  0  0  0  0
 32 33  2  0  0  0  0
 33 42  1  0  0  0  0
 35 29  1  0  0  0  0
 37 30  1  0  0  0  0
 39 31  1  0  0  0  0
 40 31  1  0  0  0  0
 42 44  1  0  0  0  0
 42 43  1  0  0  0  0
M  END
>  <minimizedAffinity>
-6.45119095

$$$$
