
 OpenBabel03252506283D

 48 52  0  0  0  0  0  0  0  0999 V2000
   46.6610   30.9710   47.3810 C   0  0  0  0  0  0  0  0  0  0  0  0
   45.7760   31.5210   48.3160 C   0  0  0  0  0  0  0  0  0  0  0  0
   45.2560   32.6640   47.8170 C   0  0  0  0  0  0  0  0  0  0  0  0
   45.8000   32.8140   46.6090 N   0  0  0  0  0  0  0  0  0  0  0  0
   46.6420   31.8140   46.3310 N   0  0  0  0  0  0  0  0  0  0  0  0
   45.5560   31.0770   49.2970 H   0  0  0  0  0  0  0  0  0  0  0  0
   44.5440   33.2850   48.3410 H   0  0  0  0  0  0  0  0  0  0  0  0
   49.4210   28.6830   48.0660 C   0  0  0  0  0  0  0  0  0  0  0  0
   48.8400   27.4280   47.9340 C   0  0  0  0  0  0  0  0  0  0  0  0
   47.4880   27.3820   47.6070 C   0  0  0  0  0  0  0  0  0  0  0  0
   46.8310   28.5600   47.4390 N   0  0  0  0  0  0  0  0  0  0  0  0
   47.4090   29.7410   47.5710 C   0  0  0  0  0  0  0  0  0  0  0  0
   48.7200   29.7990   47.8890 N   0  0  0  0  0  0  0  0  0  0  0  0
   50.4820   28.6720   48.3230 H   0  0  0  0  0  0  0  0  0  0  0  0
   49.3110   26.4690   48.0550 H   0  0  0  0  0  0  0  0  0  0  0  0
   46.7280   26.1720   47.4310 N   0  0  0  0  0  0  0  0  0  0  0  0
   46.1070   25.5300   48.4360 C   0  0  0  0  0  3  0  0  0  0  0  0
   45.3900   24.3660   48.2000 C   0  0  0  0  0  0  0  0  0  0  0  0
   44.8930   23.8540   49.0120 H   0  0  0  0  0  0  0  0  0  0  0  0
   45.3290   23.8840   46.9090 C   0  0  0  0  0  0  0  0  0  0  0  0
   44.6960   22.8340   46.6220 O   0  0  0  0  0  0  0  0  0  0  0  0
   45.9750   24.5790   45.9440 N   0  0  0  0  0  0  0  0  0  0  0  0
   46.6820   25.7240   46.1720 C   0  0  0  0  0  0  0  0  0  0  0  0
   47.2140   26.2280   45.1510 O   0  0  0  0  0  0  0  0  0  0  0  0
   45.9010   24.1720   44.9700 H   0  0  0  0  0  0  0  0  0  0  0  0
   45.5370   33.9140   45.6840 C   0  0  0  0  0  0  0  0  0  0  0  0
   45.5750   34.8930   46.2150 H   0  0  0  0  0  0  0  0  0  0  0  0
   44.5380   33.8260   45.2580 H   0  0  0  0  0  0  0  0  0  0  0  0
   46.5450   33.9440   44.6030 C   0  0  0  0  0  0  0  0  0  0  0  0
   47.2890   33.1280   44.8010 H   0  0  0  0  0  0  0  0  0  0  0  0
   47.1420   34.8800   44.7200 H   0  0  0  0  0  0  0  0  0  0  0  0
   45.0020   34.5670   42.6620 C   0  0  0  0  0  0  0  0  0  0  0  0
   46.0630   33.9100   43.2360 C   0  0  0  0  0  0  0  0  0  0  0  0
   46.8060   33.0760   42.3940 C   0  0  0  0  0  0  0  0  0  0  0  0
   46.4880   32.9220   41.0560 C   0  0  0  0  0  0  0  0  0  0  0  0
   47.0010   32.2140   40.0380 N   0  0  0  0  0  0  0  0  0  0  0  0
   46.3200   32.4090   38.9120 C   0  0  0  0  0  0  0  0  0  0  0  0
   45.2830   33.2990   39.1780 C   0  0  0  0  0  0  0  0  0  0  0  0
   45.4270   33.5870   40.5090 C   0  0  0  0  0  0  0  0  0  0  0  0
   44.6900   34.4110   41.3350 C   0  0  0  0  0  0  0  0  0  0  0  0
   44.4530   35.2020   43.3450 H   0  0  0  0  0  0  0  0  0  0  0  0
   47.6680   32.4960   42.7060 H   0  0  0  0  0  0  0  0  0  0  0  0
   47.8380   31.5780   40.0980 H   0  0  0  0  0  0  0  0  0  0  0  0
   46.4690   31.9920   37.9170 H   0  0  0  0  0  0  0  0  0  0  0  0
   44.5470   33.6630   38.4730 H   0  0  0  0  0  0  0  0  0  0  0  0
   43.5480   35.1370   40.7750 C   0  0  0  0  0  0  0  0  0  0  0  0
   42.5790   35.4750   41.5190 O   0  0  0  0  0  0  0  0  0  0  0  0
   43.5100   35.3940   39.7260 H   0  0  0  0  0  0  0  0  0  0  0  0
  1 12  1  0  0  0  0
  1  2  1  0  0  0  0
  2  6  1  0  0  0  0
  3  2  2  0  0  0  0
  3  7  1  0  0  0  0
  4  3  1  0  0  0  0
  5  4  1  0  0  0  0
  5  1  2  0  0  0  0
  8 14  1  0  0  0  0
  9 15  1  0  0  0  0
  9  8  1  0  0  0  0
 10  9  2  0  0  0  0
 11 12  2  0  0  0  0
 11 10  1  0  0  0  0
 12 13  1  0  0  0  0
 13  8  2  0  0  0  0
 16 10  1  0  0  0  0
 16 17  1  0  0  0  0
 18 17  2  0  0  0  0
 18 19  1  0  0  0  0
 20 18  1  0  0  0  0
 21 20  2  0  0  0  0
 22 23  1  0  0  0  0
 22 20  1  0  0  0  0
 23 16  1  0  0  0  0
 24 23  2  0  0  0  0
 25 22  1  0  0  0  0
 26 27  1  0  0  0  0
 26  4  1  0  0  0  0
 28 26  1  0  0  0  0
 29 31  1  0  0  0  0
 29 30  1  0  0  0  0
 29 26  1  0  0  0  0
 32 33  1  0  0  0  0
 32 41  1  0  0  0  0
 33 29  1  0  0  0  0
 34 42  1  0  0  0  0
 34 33  2  0  0  0  0
 35 34  1  0  0  0  0
 36 43  1  0  0  0  0
 36 35  1  0  0  0  0
 37 38  2  0  0  0  0
 37 36  1  0  0  0  0
 38 39  1  0  0  0  0
 39 35  2  0  0  0  0
 39 40  1  0  0  0  0
 40 32  2  0  0  0  0
 44 37  1  0  0  0  0
 45 38  1  0  0  0  0
 46 40  1  0  0  0  0
 46 47  2  0  0  0  0
 48 46  1  0  0  0  0
M  END
>  <minimizedAffinity>
-4.96016932

>  <minimizedRMSD>
9.3131485

$$$$
