
 OpenBabel03252504413D

 46 49  0  0  0  0  0  0  0  0999 V2000
   45.0570   33.4490   47.7570 C   0  0  0  0  0  0  0  0  0  0  0  0
   45.2580   34.3830   48.3260 H   0  0  0  0  0  0  0  0  0  0  0  0
   44.0000   33.1750   47.9440 H   0  0  0  0  0  0  0  0  0  0  0  0
   45.9030   32.3850   48.3780 C   0  0  0  0  0  0  0  0  0  0  0  0
   45.4940   31.4280   49.2690 C   0  0  0  0  0  0  0  0  0  0  0  0
   46.5690   30.7000   49.5520 N   0  0  0  0  0  0  0  0  0  0  0  0
   47.6400   31.1360   48.8940 C   0  0  0  0  0  0  0  0  0  0  0  0
   47.2140   32.1960   48.1570 N   0  0  0  0  0  0  0  0  0  0  0  0
   48.9890   30.6950   48.8660 N   0  0  0  0  0  0  0  0  0  0  0  0
   49.9270   31.2400   49.8490 C   0  0  0  0  0  0  0  0  0  0  0  0
   50.1060   30.1230   50.8730 C   0  0  0  0  0  0  0  0  0  0  0  0
   50.3820   28.8140   50.1710 C   0  0  0  0  0  0  0  0  0  0  0  0
   50.8100   29.0930   48.7370 C   0  0  0  0  0  0  0  0  0  0  0  0
   49.6640   29.7520   48.0010 C   0  0  0  0  0  0  0  0  0  0  0  0
   44.4850   31.2840   49.6750 H   0  0  0  0  0  0  0  0  0  0  0  0
   46.5910   29.8810   50.2100 H   0  0  0  0  0  0  0  0  0  0  0  0
   49.5070   32.1330   50.3380 H   0  0  0  0  0  0  0  0  0  0  0  0
   50.8910   31.5260   49.4060 H   0  0  0  0  0  0  0  0  0  0  0  0
   49.1820   30.0750   51.4760 H   0  0  0  0  0  0  0  0  0  0  0  0
   50.9800   30.3880   51.5020 H   0  0  0  0  0  0  0  0  0  0  0  0
   51.0910   28.1760   50.6960 H   0  0  0  0  0  0  0  0  0  0  0  0
   49.4130   28.2800   50.0840 H   0  0  0  0  0  0  0  0  0  0  0  0
   50.9500   28.0850   48.2670 H   0  0  0  0  0  0  0  0  0  0  0  0
   51.7350   29.6920   48.6780 H   0  0  0  0  0  0  0  0  0  0  0  0
   48.9800   29.0390   47.5280 H   0  0  0  0  0  0  0  0  0  0  0  0
   50.1070   30.3720   47.1670 H   0  0  0  0  0  0  0  0  0  0  0  0
   44.9930   34.6430   45.6100 C   0  0  0  0  0  0  0  0  0  0  0  0
   45.3500   33.5860   46.3240 C   0  0  0  0  0  0  0  0  0  0  0  0
   45.3470   34.6560   44.1840 C   0  0  0  0  0  0  0  0  0  0  0  0
   44.5410   35.3110   43.2310 C   0  0  0  0  0  0  0  0  0  0  0  0
   44.9540   35.2700   41.9100 C   0  0  0  0  0  0  0  0  0  0  0  0
   46.0790   34.6230   41.5860 N   0  0  0  0  0  0  0  0  0  0  0  0
   46.8450   33.9960   42.5190 C   0  0  0  0  0  0  0  0  0  0  0  0
   46.4680   34.0230   43.7850 N   0  0  0  0  0  0  0  0  0  0  0  0
   43.6680   35.7900   43.6180 H   0  0  0  0  0  0  0  0  0  0  0  0
   44.3140   35.7790   41.2170 H   0  0  0  0  0  0  0  0  0  0  0  0
   48.0240   33.3390   42.0550 N   0  0  0  0  0  0  0  0  0  0  0  0
   48.6590   32.4020   42.7810 C   0  0  0  0  0  0  0  0  0  0  0  0
   49.8100   31.7510   42.3430 C   0  0  0  0  0  0  0  0  0  0  0  0
   50.3150   30.9980   42.9320 H   0  0  0  0  0  0  0  0  0  0  0  0
   50.2500   32.1490   41.0990 C   0  0  0  0  0  0  0  0  0  0  0  0
   51.3000   31.5990   40.6280 O   0  0  0  0  0  0  0  0  0  0  0  0
   49.6630   33.0770   40.3280 N   0  0  0  0  0  0  0  0  0  0  0  0
   48.5590   33.6330   40.8600 C   0  0  0  0  0  0  0  0  0  0  0  0
   47.9640   34.5190   40.1670 O   0  0  0  0  0  0  0  0  0  0  0  0
   50.0260   33.3510   39.3890 H   0  0  0  0  0  0  0  0  0  0  0  0
  1  3  1  0  0  0  0
  1  2  1  0  0  0  0
  1  4  1  0  0  0  0
  4  5  2  0  0  0  0
  5  6  1  0  0  0  0
  5 15  1  0  0  0  0
  6 16  1  0  0  0  0
  7  6  1  0  0  0  0
  8  4  1  0  0  0  0
  8  7  2  0  0  0  0
  9  7  1  0  0  0  0
  9 10  1  0  0  0  0
 10 17  1  0  0  0  0
 10 11  1  0  0  0  0
 11 19  1  0  0  0  0
 11 20  1  0  0  0  0
 12 21  1  0  0  0  0
 12 11  1  0  0  0  0
 13 12  1  0  0  0  0
 14 13  1  0  0  0  0
 14  9  1  0  0  0  0
 18 10  1  0  0  0  0
 22 12  1  0  0  0  0
 23 13  1  0  0  0  0
 24 13  1  0  0  0  0
 25 14  1  0  0  0  0
 26 14  1  0  0  0  0
 27 28  2  0  0  0  0
 28  1  1  0  0  0  0
 29 27  1  0  0  0  0
 30 35  1  0  0  0  0
 30 29  2  0  0  0  0
 31 30  1  0  0  0  0
 32 31  2  0  0  0  0
 32 33  1  0  0  0  0
 33 34  2  0  0  0  0
 34 29  1  0  0  0  0
 36 31  1  0  0  0  0
 37 33  1  0  0  0  0
 37 38  1  0  0  0  0
 39 38  2  0  0  0  0
 39 40  1  0  0  0  0
 41 39  1  0  0  0  0
 42 41  2  0  0  0  0
 43 44  1  0  0  0  0
 43 41  1  0  0  0  0
 44 37  1  0  0  0  0
 45 44  2  0  0  0  0
 46 43  1  0  0  0  0
M  END
>  <minimizedAffinity>
-7.27805281

>  <minimizedRMSD>
1.99277902

$$$$
