
 OpenBabel03242520453D

 23 24  0  0  0  0  0  0  0  0999 V2000
   47.1560   34.2380   42.5980 C   0  0  0  0  0  0  0  0  0  0  0  0
   46.6020   35.1370   41.9230 O   0  0  0  0  0  0  0  0  0  0  0  0
   45.2860   34.2850   45.7690 C   0  0  0  0  0  0  0  0  0  0  0  0
   45.7610   34.6020   44.4870 C   0  0  0  0  0  0  0  0  0  0  0  0
   46.7590   33.8060   43.9170 C   0  0  0  0  0  0  0  0  0  0  0  0
   47.2190   32.7700   44.6310 N   0  0  0  0  0  0  0  0  0  0  0  0
   46.7530   32.4790   45.8600 C   0  0  0  0  0  0  0  0  0  0  0  0
   45.8020   33.2420   46.3990 N   0  0  0  0  0  0  0  0  0  0  0  0
   44.2770   35.0730   46.3690 N   0  0  0  0  0  0  0  0  0  0  0  0
   45.3190   35.4680   43.9880 H   0  0  0  0  0  0  0  0  0  0  0  0
   47.1530   31.6330   46.4020 H   0  0  0  0  0  0  0  0  0  0  0  0
   43.5260   34.5920   46.8700 H   0  0  0  0  0  0  0  0  0  0  0  0
   44.1820   36.1220   46.3760 H   0  0  0  0  0  0  0  0  0  0  0  0
   49.4660   30.6950   40.8620 H   0  0  0  0  0  0  0  0  0  0  0  0
   49.4980   31.6440   41.2720 N   0  0  0  0  0  0  0  0  0  0  0  0
   48.3080   32.1960   41.6130 C   0  0  0  0  0  0  0  0  0  0  0  0
   48.3130   33.4630   42.1620 C   0  0  0  0  0  0  0  0  0  0  0  0
   49.5060   34.1580   42.3610 C   0  0  0  0  0  0  0  0  0  0  0  0
   49.6260   35.3050   42.8470 O   0  0  0  0  0  0  0  0  0  0  0  0
   50.6730   33.5570   41.9990 N   0  0  0  0  0  0  0  0  0  0  0  0
   50.6510   32.3130   41.4620 C   0  0  0  0  0  0  0  0  0  0  0  0
   51.7430   31.7790   41.1360 O   0  0  0  0  0  0  0  0  0  0  0  0
   51.6130   34.0130   42.1160 H   0  0  0  0  0  0  0  0  0  0  0  0
  1  5  1  0  0  0  0
  2  1  2  0  0  0  0
  3  9  1  0  0  0  0
  3  8  1  0  0  0  0
  4  3  2  0  0  0  0
  5  4  1  0  0  0  0
  5  6  2  0  0  0  0
  6  7  1  0  0  0  0
  7  8  2  0  0  0  0
  7 11  1  0  0  0  0
  9 13  1  0  0  0  0
  9 12  1  0  0  0  0
 10  4  1  0  0  0  0
 14 15  1  0  0  0  0
 15 21  1  0  0  0  0
 15 16  1  0  0  0  0
 16 17  2  0  0  0  0
 17 18  1  0  0  0  0
 17  1  1  0  0  0  0
 18 19  2  0  0  0  0
 20 23  1  0  0  0  0
 20 18  1  0  0  0  0
 21 20  1  0  0  0  0
 22 21  2  0  0  0  0
M  END
>  <minimizedAffinity>
-5.1922307

>  <minimizedRMSD>
3.38049078

$$$$
