
 OpenBabel03242518393D

 40 43  0  0  1  0  0  0  0  0999 V2000
   44.6070   34.1490   40.5220 O   0  0  0  0  0  0  0  0  0  0  0  0
   44.6540   33.0530   39.6220 C   0  0  0  0  0  0  0  0  0  0  0  0
   44.5560   31.6740   39.8360 C   0  0  0  0  0  0  0  0  0  0  0  0
   44.6660   31.0280   38.6170 C   0  0  0  0  0  0  0  0  0  0  0  0
   44.8240   32.0390   37.7230 C   0  0  0  0  0  0  0  0  0  0  0  0
   44.8170   33.2200   38.3110 O   0  0  0  0  0  0  0  0  0  0  0  0
   44.4180   31.2900   40.8330 H   0  0  0  0  0  0  0  0  0  0  0  0
   44.6240   29.9550   38.4890 H   0  0  0  0  0  0  0  0  0  0  0  0
   44.9890   31.8550   36.2650 C   0  0  2  0  0  0  0  0  0  0  0  0
   45.6170   30.6470   35.7300 C   0  0  0  0  0  0  0  0  0  0  0  0
   46.4720   31.8590   35.8100 C   0  0  1  0  0  0  0  0  0  0  0  0
   44.3040   32.4820   35.6740 H   0  0  0  0  0  0  0  0  0  0  0  0
   45.8320   29.7620   36.3730 H   0  0  0  0  0  0  0  0  0  0  0  0
   45.2490   30.3410   34.7090 H   0  0  0  0  0  0  0  0  0  0  0  0
   47.2260   31.9860   36.5820 H   0  0  0  0  0  0  0  0  0  0  0  0
   47.8330   32.3350   33.7870 C   0  0  0  0  0  0  0  0  0  0  0  0
   48.7600   31.5570   34.1560 O   0  0  0  0  0  0  0  0  0  0  0  0
   46.6680   32.5850   34.5580 N   0  0  0  0  0  0  0  0  0  0  0  0
   48.0150   32.7910   32.8240 H   0  0  0  0  0  0  0  0  0  0  0  0
   45.9580   33.2750   34.2420 H   0  0  0  0  0  0  0  0  0  0  0  0
   45.7460   34.3990   41.3430 C   0  0  0  0  0  0  0  0  0  0  0  0
   46.8640   34.3230   40.7930 O   0  0  0  0  0  0  0  0  0  0  0  0
   45.4630   34.7090   42.7070 C   0  0  0  0  0  0  0  0  0  0  0  0
   44.8930   35.9370   42.9280 C   0  0  0  0  0  0  0  0  0  0  0  0
   44.5890   36.3120   44.2260 C   0  0  0  0  0  0  0  0  0  0  0  0
   44.8680   35.4430   45.2280 N   0  0  0  0  0  0  0  0  0  0  0  0
   45.4250   34.2510   44.9840 C   0  0  0  0  0  0  0  0  0  0  0  0
   45.7110   33.9120   43.7140 N   0  0  0  0  0  0  0  0  0  0  0  0
   44.6410   36.6820   42.1890 H   0  0  0  0  0  0  0  0  0  0  0  0
   44.1370   37.2700   44.4610 H   0  0  0  0  0  0  0  0  0  0  0  0
   45.6960   33.3790   46.0790 N   0  0  0  0  0  0  0  0  0  0  0  0
   44.9840   33.2720   47.2190 C   0  0  0  0  0  3  0  0  0  0  0  0
   45.3600   32.3820   48.2040 C   0  0  0  0  0  0  0  0  0  0  0  0
   44.7610   32.3330   49.0920 H   0  0  0  0  0  0  0  0  0  0  0  0
   46.4880   31.6230   47.9530 C   0  0  0  0  0  0  0  0  0  0  0  0
   46.8460   30.7980   48.8540 O   0  0  0  0  0  0  0  0  0  0  0  0
   47.1890   31.7280   46.8330 N   0  0  0  0  0  0  0  0  0  0  0  0
   46.7930   32.6180   45.8760 C   0  0  0  0  0  0  0  0  0  0  0  0
   47.5280   32.6380   44.8510 O   0  0  0  0  0  0  0  0  0  0  0  0
   48.0370   31.1110   46.7230 H   0  0  0  0  0  0  0  0  0  0  0  0
  1 21  1  0  0  0  0
  2  3  2  0  0  0  0
  2  1  1  0  0  0  0
  3  7  1  0  0  0  0
  4  3  1  0  0  0  0
  5  6  1  0  0  0  0
  5  4  2  0  0  0  0
  6  2  1  0  0  0  0
  8  4  1  0  0  0  0
  9 12  1  6  0  0  0
  9  5  1  0  0  0  0
 10 11  1  0  0  0  0
 10  9  1  0  0  0  0
 10 13  1  0  0  0  0
 11  9  1  0  0  0  0
 11 15  1  1  0  0  0
 14 10  1  0  0  0  0
 16 17  2  0  0  0  0
 16 18  1  0  0  0  0
 18 11  1  0  0  0  0
 19 16  1  0  0  0  0
 20 18  1  0  0  0  0
 21 23  1  0  0  0  0
 22 21  2  0  0  0  0
 23 24  2  0  0  0  0
 23 28  1  0  0  0  0
 24 25  1  0  0  0  0
 25 30  1  0  0  0  0
 25 26  2  0  0  0  0
 27 26  1  0  0  0  0
 27 31  1  0  0  0  0
 28 27  2  0  0  0  0
 29 24  1  0  0  0  0
 31 32  1  0  0  0  0
 32 33  2  0  0  0  0
 33 34  1  0  0  0  0
 35 33  1  0  0  0  0
 35 36  2  0  0  0  0
 37 35  1  0  0  0  0
 38 31  1  0  0  0  0
 38 37  1  0  0  0  0
 39 38  2  0  0  0  0
 40 37  1  0  0  0  0
M  END
>  <minimizedAffinity>
-5.64000463

>  <minimizedRMSD>
1.81871021

$$$$
