
 OpenBabel03252501093D

 41 44  0  0  1  0  0  0  0  0999 V2000
   35.0330   28.8250   40.6030 O   0  0  0  0  0  0  0  0  0  0  0  0
   36.2720   29.6370   40.9710 P   0  0  2  0  0  0  0  0  0  0  0  0
   35.6950   31.1930   41.3220 O   0  0  0  0  0  0  0  0  0  0  0  0
   36.3490   31.6060   41.9550 H   0  0  0  0  0  0  0  0  0  0  0  0
   37.4280   29.5800   39.8180 O   0  0  0  0  0  0  0  0  0  0  0  0
   37.3000   30.9070   37.8010 C   0  0  1  0  0  0  0  0  0  0  0  0
   38.1350   29.7660   37.4250 C   0  0  0  0  0  0  0  0  0  0  0  0
   37.0620   29.6610   38.5260 C   0  0  1  0  0  0  0  0  0  0  0  0
   36.5670   31.3120   37.0950 H   0  0  0  0  0  0  0  0  0  0  0  0
   39.1460   29.5910   37.8420 H   0  0  0  0  0  0  0  0  0  0  0  0
   37.9870   29.2220   36.4790 H   0  0  0  0  0  0  0  0  0  0  0  0
   36.2570   28.9780   38.2090 H   0  0  0  0  0  0  0  0  0  0  0  0
   40.0410   33.0700   39.2630 C   0  0  0  0  0  0  0  0  0  0  0  0
   39.4110   32.0610   38.5420 C   0  0  0  0  0  0  0  0  0  0  0  0
   38.0040   31.9960   38.5590 C   0  0  0  0  0  0  0  0  0  0  0  0
   37.3040   32.9150   39.2760 N   0  0  0  0  0  0  0  0  0  0  0  0
   37.9460   33.8880   39.9700 C   0  0  0  0  0  0  0  0  0  0  0  0
   39.3090   33.9670   39.9640 N   0  0  0  0  0  0  0  0  0  0  0  0
   41.1180   33.0940   39.2310 H   0  0  0  0  0  0  0  0  0  0  0  0
   39.9950   31.3580   37.9930 H   0  0  0  0  0  0  0  0  0  0  0  0
   37.3380   34.5990   40.5280 H   0  0  0  0  0  0  0  0  0  0  0  0
   36.8150   28.9660   42.4110 O   0  0  0  0  0  0  0  0  0  0  0  0
   37.7700   27.9670   42.4910 C   0  0  0  0  0  0  0  0  0  0  0  0
   38.9020   27.9240   43.2840 C   0  0  0  0  0  0  0  0  0  0  0  0
   39.7540   26.8610   43.2500 C   0  0  0  0  0  0  0  0  0  0  0  0
   39.5000   25.7950   42.4120 C   0  0  0  0  0  0  0  0  0  0  0  0
   38.3510   25.8710   41.6270 C   0  0  0  0  0  0  0  0  0  0  0  0
   37.5160   26.9360   41.6750 N   0  0  0  0  0  0  0  0  0  0  0  0
   39.0360   28.7940   43.9130 H   0  0  0  0  0  0  0  0  0  0  0  0
   40.6110   26.9130   43.9020 H   0  0  0  0  0  0  0  0  0  0  0  0
   40.1650   24.9670   42.3880 H   0  0  0  0  0  0  0  0  0  0  0  0
   38.1120   24.7540   40.7710 N   0  0  0  0  0  0  0  0  0  0  0  0
   38.0420   23.4800   41.1730 C   0  0  0  0  0  3  0  0  0  0  0  0
   37.8060   22.4570   40.2750 C   0  0  0  0  0  0  0  0  0  0  0  0
   37.7520   21.4180   40.6130 H   0  0  0  0  0  0  0  0  0  0  0  0
   37.6370   22.7620   38.9290 C   0  0  0  0  0  0  0  0  0  0  0  0
   37.4200   21.8580   38.0820 O   0  0  0  0  0  0  0  0  0  0  0  0
   37.7150   24.0750   38.5650 N   0  0  0  0  0  0  0  0  0  0  0  0
   37.9480   25.0690   39.4590 C   0  0  0  0  0  0  0  0  0  0  0  0
   37.9850   26.2140   38.9310 O   0  0  0  0  0  0  0  0  0  0  0  0
   37.5780   24.2330   37.5350 H   0  0  0  0  0  0  0  0  0  0  0  0
  2  1  2  6  0  0  0
  2  3  1  0  0  0  0
  2 22  1  0  0  0  0
  3  4  1  0  0  0  0
  5  2  1  0  0  0  0
  6  9  1  6  0  0  0
  6  8  1  0  0  0  0
  6 15  1  0  0  0  0
  7  6  1  0  0  0  0
  7 10  1  0  0  0  0
  7  8  1  0  0  0  0
  8 12  1  6  0  0  0
  8  5  1  0  0  0  0
 11  7  1  0  0  0  0
 13 18  1  0  0  0  0
 14 15  1  0  0  0  0
 14 13  2  0  0  0  0
 15 16  2  0  0  0  0
 16 17  1  0  0  0  0
 17 21  1  0  0  0  0
 18 17  2  0  0  0  0
 19 13  1  0  0  0  0
 20 14  1  0  0  0  0
 22 23  1  0  0  0  0
 23 24  1  0  0  0  0
 24 29  1  0  0  0  0
 25 24  2  0  0  0  0
 25 30  1  0  0  0  0
 26 25  1  0  0  0  0
 27 28  1  0  0  0  0
 27 26  2  0  0  0  0
 28 23  2  0  0  0  0
 31 26  1  0  0  0  0
 32 33  1  0  0  0  0
 32 27  1  0  0  0  0
 34 35  1  0  0  0  0
 34 33  2  0  0  0  0
 36 34  1  0  0  0  0
 37 36  2  0  0  0  0
 38 36  1  0  0  0  0
 38 39  1  0  0  0  0
 39 32  1  0  0  0  0
 40 39  2  0  0  0  0
 41 38  1  0  0  0  0
M  END
>  <minimizedAffinity>
-6.30976772

$$$$

 OpenBabel03252501093D

 41 44  0  0  1  0  0  0  0  0999 V2000
   36.2300   25.7040   37.6910 O   0  0  0  0  0  0  0  0  0  0  0  0
   36.7410   26.5590   38.8480 P   0  0  2  0  0  0  0  0  0  0  0  0
   38.3770   26.8450   38.4990 O   0  0  0  0  0  0  0  0  0  0  0  0
   38.6200   27.7030   38.9490 H   0  0  0  0  0  0  0  0  0  0  0  0
   36.4620   25.8770   40.3060 O   0  0  0  0  0  0  0  0  0  0  0  0
   38.3480   25.2030   41.6600 C   0  0  1  0  0  0  0  0  0  0  0  0
   37.2290   24.4290   42.1960 C   0  0  0  0  0  0  0  0  0  0  0  0
   37.2700   24.8860   40.7260 C   0  0  1  0  0  0  0  0  0  0  0  0
   39.3410   24.7500   41.5700 H   0  0  0  0  0  0  0  0  0  0  0  0
   36.3730   24.8890   42.7290 H   0  0  0  0  0  0  0  0  0  0  0  0
   37.3200   23.3550   42.4270 H   0  0  0  0  0  0  0  0  0  0  0  0
   37.3520   24.0140   40.0580 H   0  0  0  0  0  0  0  0  0  0  0  0
   37.6680   28.3940   43.5800 C   0  0  0  0  0  0  0  0  0  0  0  0
   37.5870   27.0670   43.1710 C   0  0  0  0  0  0  0  0  0  0  0  0
   38.4270   26.6280   42.1300 C   0  0  0  0  0  0  0  0  0  0  0  0
   39.2900   27.5070   41.5550 N   0  0  0  0  0  0  0  0  0  0  0  0
   39.3480   28.7960   41.9750 C   0  0  0  0  0  0  0  0  0  0  0  0
   38.5410   29.2390   42.9830 N   0  0  0  0  0  0  0  0  0  0  0  0
   37.0130   28.7000   44.3790 H   0  0  0  0  0  0  0  0  0  0  0  0
   36.8970   26.4070   43.6470 H   0  0  0  0  0  0  0  0  0  0  0  0
   40.0560   29.4600   41.4810 H   0  0  0  0  0  0  0  0  0  0  0  0
   35.9330   28.0220   38.6940 O   0  0  0  0  0  0  0  0  0  0  0  0
   36.2900   29.1800   39.3630 C   0  0  0  0  0  0  0  0  0  0  0  0
   35.6680   29.7720   40.4470 C   0  0  0  0  0  0  0  0  0  0  0  0
   36.1440   30.9220   41.0000 C   0  0  0  0  0  0  0  0  0  0  0  0
   37.2690   31.5270   40.4810 C   0  0  0  0  0  0  0  0  0  0  0  0
   37.8710   30.9060   39.3880 C   0  0  0  0  0  0  0  0  0  0  0  0
   37.3830   29.7620   38.8530 N   0  0  0  0  0  0  0  0  0  0  0  0
   34.7920   29.2420   40.7990 H   0  0  0  0  0  0  0  0  0  0  0  0
   35.5960   31.3110   41.8430 H   0  0  0  0  0  0  0  0  0  0  0  0
   37.6380   32.4240   40.9140 H   0  0  0  0  0  0  0  0  0  0  0  0
   39.0340   31.5520   38.8720 N   0  0  0  0  0  0  0  0  0  0  0  0
   40.1160   31.8730   39.5910 C   0  0  0  0  0  3  0  0  0  0  0  0
   41.2030   32.5000   39.0090 C   0  0  0  0  0  0  0  0  0  0  0  0
   42.0820   32.7590   39.6050 H   0  0  0  0  0  0  0  0  0  0  0  0
   41.1660   32.7990   37.6520 C   0  0  0  0  0  0  0  0  0  0  0  0
   42.1350   33.3690   37.0880 O   0  0  0  0  0  0  0  0  0  0  0  0
   40.0420   32.4530   36.9600 N   0  0  0  0  0  0  0  0  0  0  0  0
   38.9830   31.8380   37.5450 C   0  0  0  0  0  0  0  0  0  0  0  0
   38.0410   31.5990   36.7410 O   0  0  0  0  0  0  0  0  0  0  0  0
   40.0830   32.7080   35.9410 H   0  0  0  0  0  0  0  0  0  0  0  0
  2  1  2  6  0  0  0
  2  5  1  0  0  0  0
  3  2  1  0  0  0  0
  3  4  1  0  0  0  0
  5  8  1  0  0  0  0
  6  9  1  6  0  0  0
  6 15  1  0  0  0  0
  6  7  1  0  0  0  0
  7 11  1  0  0  0  0
  7 10  1  0  0  0  0
  8 12  1  6  0  0  0
  8  6  1  0  0  0  0
  8  7  1  0  0  0  0
 13 19  1  0  0  0  0
 14 13  1  0  0  0  0
 14 20  1  0  0  0  0
 15 14  2  0  0  0  0
 16 17  2  0  0  0  0
 16 15  1  0  0  0  0
 17 18  1  0  0  0  0
 18 13  2  0  0  0  0
 21 17  1  0  0  0  0
 22  2  1  0  0  0  0
 22 23  1  0  0  0  0
 23 24  1  0  0  0  0
 24 29  1  0  0  0  0
 24 25  2  0  0  0  0
 25 30  1  0  0  0  0
 26 31  1  0  0  0  0
 26 25  1  0  0  0  0
 27 26  2  0  0  0  0
 28 23  2  0  0  0  0
 28 27  1  0  0  0  0
 32 27  1  0  0  0  0
 32 33  1  0  0  0  0
 34 33  2  0  0  0  0
 34 35  1  0  0  0  0
 36 34  1  0  0  0  0
 37 36  2  0  0  0  0
 38 39  1  0  0  0  0
 38 36  1  0  0  0  0
 39 32  1  0  0  0  0
 40 39  2  0  0  0  0
 41 38  1  0  0  0  0
M  END
>  <minimizedAffinity>
-6.28850412

$$$$

 OpenBabel03252501093D

 41 44  0  0  1  0  0  0  0  0999 V2000
   37.6160   27.6550   39.1500 O   0  0  0  0  0  0  0  0  0  0  0  0
   38.4630   28.8030   39.6950 P   0  0  2  0  0  0  0  0  0  0  0  0
   39.9270   28.7180   38.8410 O   0  0  0  0  0  0  0  0  0  0  0  0
   40.3080   29.6420   38.8340 H   0  0  0  0  0  0  0  0  0  0  0  0
   38.6170   28.7550   41.3210 O   0  0  0  0  0  0  0  0  0  0  0  0
   37.1290   27.6890   42.9000 C   0  0  1  0  0  0  0  0  0  0  0  0
   37.6290   28.8610   43.6180 C   0  0  0  0  0  0  0  0  0  0  0  0
   37.5100   28.8380   42.0820 C   0  0  1  0  0  0  0  0  0  0  0  0
   36.0840   27.3800   43.0080 H   0  0  0  0  0  0  0  0  0  0  0  0
   38.6870   28.9750   43.9290 H   0  0  0  0  0  0  0  0  0  0  0  0
   36.9630   29.5190   44.1970 H   0  0  0  0  0  0  0  0  0  0  0  0
   36.7480   29.5610   41.7480 H   0  0  0  0  0  0  0  0  0  0  0  0
   38.5990   24.2970   42.0880 C   0  0  0  0  0  0  0  0  0  0  0  0
   37.7290   25.3820   42.0910 C   0  0  0  0  0  0  0  0  0  0  0  0
   38.0580   26.5090   42.8690 C   0  0  0  0  0  0  0  0  0  0  0  0
   39.2090   26.5060   43.5920 N   0  0  0  0  0  0  0  0  0  0  0  0
   40.0390   25.4320   43.5710 C   0  0  0  0  0  0  0  0  0  0  0  0
   39.7360   24.3310   42.8220 N   0  0  0  0  0  0  0  0  0  0  0  0
   38.3210   23.4490   41.4840 H   0  0  0  0  0  0  0  0  0  0  0  0
   36.8360   25.3460   41.5110 H   0  0  0  0  0  0  0  0  0  0  0  0
   40.9480   25.4800   44.1680 H   0  0  0  0  0  0  0  0  0  0  0  0
   37.6720   30.1970   39.1990 O   0  0  0  0  0  0  0  0  0  0  0  0
   38.1220   31.4800   39.4610 C   0  0  0  0  0  0  0  0  0  0  0  0
   37.4240   32.5370   40.0160 C   0  0  0  0  0  0  0  0  0  0  0  0
   38.0100   33.7510   40.2140 C   0  0  0  0  0  0  0  0  0  0  0  0
   39.3280   33.9510   39.8580 C   0  0  0  0  0  0  0  0  0  0  0  0
   40.0020   32.8660   39.3020 C   0  0  0  0  0  0  0  0  0  0  0  0
   39.4020   31.6660   39.1130 N   0  0  0  0  0  0  0  0  0  0  0  0
   36.3970   32.3070   40.2690 H   0  0  0  0  0  0  0  0  0  0  0  0
   37.3910   34.5160   40.6520 H   0  0  0  0  0  0  0  0  0  0  0  0
   39.7830   34.8980   40.0130 H   0  0  0  0  0  0  0  0  0  0  0  0
   41.3640   33.1000   38.9440 N   0  0  0  0  0  0  0  0  0  0  0  0
   42.3050   33.5650   39.7730 C   0  0  0  0  0  3  0  0  0  0  0  0
   43.6040   33.7640   39.3430 C   0  0  0  0  0  0  0  0  0  0  0  0
   44.3660   34.1460   40.0270 H   0  0  0  0  0  0  0  0  0  0  0  0
   43.9330   33.4700   38.0240 C   0  0  0  0  0  0  0  0  0  0  0  0
   45.1050   33.6370   37.5980 O   0  0  0  0  0  0  0  0  0  0  0  0
   42.9410   32.9970   37.2160 N   0  0  0  0  0  0  0  0  0  0  0  0
   41.6700   32.8080   37.6530 C   0  0  0  0  0  0  0  0  0  0  0  0
   40.8980   32.3640   36.7590 O   0  0  0  0  0  0  0  0  0  0  0  0
   43.2600   32.7970   36.2350 H   0  0  0  0  0  0  0  0  0  0  0  0
  2  1  2  6  0  0  0
  2  5  1  0  0  0  0
  3  2  1  0  0  0  0
  4  3  1  0  0  0  0
  5  8  1  0  0  0  0
  6  9  1  1  0  0  0
  6  7  1  0  0  0  0
  7 10  1  0  0  0  0
  7 11  1  0  0  0  0
  8 12  1  6  0  0  0
  8  6  1  0  0  0  0
  8  7  1  0  0  0  0
 13 14  2  0  0  0  0
 13 18  1  0  0  0  0
 14 15  1  0  0  0  0
 15  6  1  0  0  0  0
 15 16  2  0  0  0  0
 17 16  1  0  0  0  0
 17 21  1  0  0  0  0
 18 17  2  0  0  0  0
 19 13  1  0  0  0  0
 20 14  1  0  0  0  0
 22 23  1  0  0  0  0
 22  2  1  0  0  0  0
 23 24  1  0  0  0  0
 24 25  2  0  0  0  0
 24 29  1  0  0  0  0
 25 30  1  0  0  0  0
 26 31  1  0  0  0  0
 26 25  1  0  0  0  0
 27 26  2  0  0  0  0
 28 27  1  0  0  0  0
 28 23  2  0  0  0  0
 32 27  1  0  0  0  0
 32 33  1  0  0  0  0
 34 33  2  0  0  0  0
 34 35  1  0  0  0  0
 36 34  1  0  0  0  0
 37 36  2  0  0  0  0
 38 39  1  0  0  0  0
 38 36  1  0  0  0  0
 39 32  1  0  0  0  0
 40 39  2  0  0  0  0
 41 38  1  0  0  0  0
M  END
>  <minimizedAffinity>
-6.11344337

$$$$

 OpenBabel03252501093D

 41 44  0  0  1  0  0  0  0  0999 V2000
   37.5250   29.1540   36.4670 O   0  0  0  0  0  0  0  0  0  0  0  0
   38.2440   29.7580   37.6710 P   0  0  2  0  0  0  0  0  0  0  0  0
   39.8890   29.4250   37.4160 O   0  0  0  0  0  0  0  0  0  0  0  0
   40.4030   30.1330   37.8990 H   0  0  0  0  0  0  0  0  0  0  0  0
   37.6510   29.2200   39.0940 O   0  0  0  0  0  0  0  0  0  0  0  0
   35.7870   28.6360   40.5190 C   0  0  1  0  0  0  0  0  0  0  0  0
   35.6290   30.0740   40.2980 C   0  0  0  0  0  0  0  0  0  0  0  0
   36.3170   29.1630   39.2630 C   0  0  1  0  0  0  0  0  0  0  0  0
   34.9090   27.9820   40.5450 H   0  0  0  0  0  0  0  0  0  0  0  0
   36.3390   30.8290   40.6910 H   0  0  0  0  0  0  0  0  0  0  0  0
   34.6540   30.5230   40.0530 H   0  0  0  0  0  0  0  0  0  0  0  0
   35.7150   29.1120   38.3410 H   0  0  0  0  0  0  0  0  0  0  0  0
   38.0850   26.5700   42.7040 C   0  0  0  0  0  0  0  0  0  0  0  0
   37.1570   26.9020   41.7230 C   0  0  0  0  0  0  0  0  0  0  0  0
   36.7980   28.2540   41.5620 C   0  0  0  0  0  0  0  0  0  0  0  0
   37.3640   29.1930   42.3650 N   0  0  0  0  0  0  0  0  0  0  0  0
   38.2670   28.8400   43.3150 C   0  0  0  0  0  0  0  0  0  0  0  0
   38.6270   27.5340   43.4850 N   0  0  0  0  0  0  0  0  0  0  0  0
   38.3400   25.5280   42.8040 H   0  0  0  0  0  0  0  0  0  0  0  0
   36.7340   26.1360   41.1130 H   0  0  0  0  0  0  0  0  0  0  0  0
   38.6910   29.6310   43.9320 H   0  0  0  0  0  0  0  0  0  0  0  0
   38.0370   31.4160   37.5110 O   0  0  0  0  0  0  0  0  0  0  0  0
   38.3390   32.3340   38.5010 C   0  0  0  0  0  0  0  0  0  0  0  0
   37.4670   33.0730   39.2810 C   0  0  0  0  0  0  0  0  0  0  0  0
   37.9200   33.9450   40.2240 C   0  0  0  0  0  0  0  0  0  0  0  0
   39.2750   34.1110   40.4210 C   0  0  0  0  0  0  0  0  0  0  0  0
   40.1260   33.3520   39.6190 C   0  0  0  0  0  0  0  0  0  0  0  0
   39.6560   32.4900   38.6860 N   0  0  0  0  0  0  0  0  0  0  0  0
   36.4210   32.8910   39.0700 H   0  0  0  0  0  0  0  0  0  0  0  0
   37.1690   34.4780   40.7850 H   0  0  0  0  0  0  0  0  0  0  0  0
   39.6260   34.7920   41.1570 H   0  0  0  0  0  0  0  0  0  0  0  0
   41.5220   33.5430   39.8440 N   0  0  0  0  0  0  0  0  0  0  0  0
   42.1330   33.4140   41.0280 C   0  0  0  0  0  3  0  0  0  0  0  0
   43.4940   33.6170   41.1580 C   0  0  0  0  0  0  0  0  0  0  0  0
   43.9840   33.5110   42.1300 H   0  0  0  0  0  0  0  0  0  0  0  0
   44.2380   33.9590   40.0350 C   0  0  0  0  0  0  0  0  0  0  0  0
   45.4790   34.1510   40.1150 O   0  0  0  0  0  0  0  0  0  0  0  0
   43.5730   34.0780   38.8490 N   0  0  0  0  0  0  0  0  0  0  0  0
   42.2360   33.8760   38.7380 C   0  0  0  0  0  0  0  0  0  0  0  0
   41.8070   34.0320   37.5620 O   0  0  0  0  0  0  0  0  0  0  0  0
   44.1970   34.3380   38.0440 H   0  0  0  0  0  0  0  0  0  0  0  0
  2  1  2  6  0  0  0
  2  5  1  0  0  0  0
  3  2  1  0  0  0  0
  3  4  1  0  0  0  0
  5  8  1  0  0  0  0
  6  9  1  6  0  0  0
  6 15  1  0  0  0  0
  7  6  1  0  0  0  0
  7 10  1  0  0  0  0
  8 12  1  6  0  0  0
  8  7  1  0  0  0  0
  8  6  1  0  0  0  0
 11  7  1  0  0  0  0
 13 19  1  0  0  0  0
 13 18  1  0  0  0  0
 14 13  2  0  0  0  0
 15 14  1  0  0  0  0
 15 16  2  0  0  0  0
 16 17  1  0  0  0  0
 17 18  2  0  0  0  0
 17 21  1  0  0  0  0
 20 14  1  0  0  0  0
 22  2  1  0  0  0  0
 22 23  1  0  0  0  0
 23 28  2  0  0  0  0
 23 24  1  0  0  0  0
 24 25  2  0  0  0  0
 25 26  1  0  0  0  0
 25 30  1  0  0  0  0
 26 31  1  0  0  0  0
 27 32  1  0  0  0  0
 27 26  2  0  0  0  0
 28 27  1  0  0  0  0
 29 24  1  0  0  0  0
 32 33  1  0  0  0  0
 33 34  2  0  0  0  0
 34 35  1  0  0  0  0
 36 37  2  0  0  0  0
 36 34  1  0  0  0  0
 38 36  1  0  0  0  0
 39 38  1  0  0  0  0
 39 32  1  0  0  0  0
 40 39  2  0  0  0  0
 41 38  1  0  0  0  0
M  END
>  <minimizedAffinity>
-6.04913282

$$$$

 OpenBabel03252501093D

 41 44  0  0  1  0  0  0  0  0999 V2000
   35.0340   28.9110   40.5290 O   0  0  0  0  0  0  0  0  0  0  0  0
   36.5270   29.1110   40.7760 P   0  0  2  0  0  0  0  0  0  0  0  0
   36.6200   30.2100   42.0650 O   0  0  0  0  0  0  0  0  0  0  0  0
   37.4900   30.0380   42.5260 H   0  0  0  0  0  0  0  0  0  0  0  0
   37.3330   29.5660   39.4300 O   0  0  0  0  0  0  0  0  0  0  0  0
   36.9720   31.5690   38.1250 C   0  0  1  0  0  0  0  0  0  0  0  0
   37.3770   30.5690   37.1380 C   0  0  0  0  0  0  0  0  0  0  0  0
   36.6560   30.1780   38.4410 C   0  0  1  0  0  0  0  0  0  0  0  0
   36.1910   32.2980   37.8850 H   0  0  0  0  0  0  0  0  0  0  0  0
   38.3930   30.1280   37.1020 H   0  0  0  0  0  0  0  0  0  0  0  0
   36.8510   30.4510   36.1770 H   0  0  0  0  0  0  0  0  0  0  0  0
   35.6560   29.7700   38.2160 H   0  0  0  0  0  0  0  0  0  0  0  0
   38.8580   33.5990   40.7040 C   0  0  0  0  0  0  0  0  0  0  0  0
   37.8020   33.0230   40.0050 C   0  0  0  0  0  0  0  0  0  0  0  0
   38.0940   32.1920   38.9060 C   0  0  0  0  0  0  0  0  0  0  0  0
   39.3910   31.9770   38.5590 N   0  0  0  0  0  0  0  0  0  0  0  0
   40.4000   32.5530   39.2600 C   0  0  0  0  0  0  0  0  0  0  0  0
   40.1360   33.3610   40.3290 N   0  0  0  0  0  0  0  0  0  0  0  0
   38.6030   34.2300   41.5410 H   0  0  0  0  0  0  0  0  0  0  0  0
   36.7980   33.2160   40.3070 H   0  0  0  0  0  0  0  0  0  0  0  0
   41.4210   32.3490   38.9410 H   0  0  0  0  0  0  0  0  0  0  0  0
   37.0730   27.6270   41.3410 O   0  0  0  0  0  0  0  0  0  0  0  0
   38.2090   27.4620   42.1140 C   0  0  0  0  0  0  0  0  0  0  0  0
   38.5130   26.4290   42.9830 C   0  0  0  0  0  0  0  0  0  0  0  0
   39.6840   26.4070   43.6790 C   0  0  0  0  0  0  0  0  0  0  0  0
   40.5990   27.4290   43.5310 C   0  0  0  0  0  0  0  0  0  0  0  0
   40.2610   28.4530   42.6490 C   0  0  0  0  0  0  0  0  0  0  0  0
   39.0920   28.4570   41.9640 N   0  0  0  0  0  0  0  0  0  0  0  0
   37.7490   25.6660   43.0480 H   0  0  0  0  0  0  0  0  0  0  0  0
   39.8370   25.5640   44.3320 H   0  0  0  0  0  0  0  0  0  0  0  0
   41.5110   27.4090   44.0750 H   0  0  0  0  0  0  0  0  0  0  0  0
   41.2260   29.4960   42.5130 N   0  0  0  0  0  0  0  0  0  0  0  0
   42.5110   29.3150   42.1880 C   0  0  0  0  0  3  0  0  0  0  0  0
   43.3800   30.3840   42.0770 C   0  0  0  0  0  0  0  0  0  0  0  0
   44.4290   30.2260   41.8120 H   0  0  0  0  0  0  0  0  0  0  0  0
   42.9050   31.6700   42.3080 C   0  0  0  0  0  0  0  0  0  0  0  0
   43.6660   32.6670   42.2170 O   0  0  0  0  0  0  0  0  0  0  0  0
   41.5880   31.8060   42.6360 N   0  0  0  0  0  0  0  0  0  0  0  0
   40.7470   30.7470   42.7410 C   0  0  0  0  0  0  0  0  0  0  0  0
   39.5690   31.0760   43.0530 O   0  0  0  0  0  0  0  0  0  0  0  0
   41.2980   32.8040   42.7970 H   0  0  0  0  0  0  0  0  0  0  0  0
  2  1  2  6  0  0  0
  2 22  1  0  0  0  0
  2  3  1  0  0  0  0
  3  4  1  0  0  0  0
  5  2  1  0  0  0  0
  6  9  1  6  0  0  0
  6  8  1  0  0  0  0
  6 15  1  0  0  0  0
  7  6  1  0  0  0  0
  7  8  1  0  0  0  0
  8 12  1  6  0  0  0
  8  5  1  0  0  0  0
 10  7  1  0  0  0  0
 11  7  1  0  0  0  0
 13 19  1  0  0  0  0
 14 20  1  0  0  0  0
 14 13  2  0  0  0  0
 15 14  1  0  0  0  0
 16 15  2  0  0  0  0
 16 17  1  0  0  0  0
 17 18  2  0  0  0  0
 18 13  1  0  0  0  0
 21 17  1  0  0  0  0
 22 23  1  0  0  0  0
 23 24  1  0  0  0  0
 24 29  1  0  0  0  0
 24 25  2  0  0  0  0
 25 30  1  0  0  0  0
 26 25  1  0  0  0  0
 26 31  1  0  0  0  0
 27 26  2  0  0  0  0
 28 23  2  0  0  0  0
 28 27  1  0  0  0  0
 32 27  1  0  0  0  0
 32 39  1  0  0  0  0
 33 32  1  0  0  0  0
 34 33  2  0  0  0  0
 34 36  1  0  0  0  0
 35 34  1  0  0  0  0
 36 38  1  0  0  0  0
 37 36  2  0  0  0  0
 38 39  1  0  0  0  0
 38 41  1  0  0  0  0
 39 40  2  0  0  0  0
M  END
>  <minimizedAffinity>
-6.00954294

$$$$

 OpenBabel03252501093D

 41 44  0  0  1  0  0  0  0  0999 V2000
   34.7640   29.1270   40.3780 O   0  0  0  0  0  0  0  0  0  0  0  0
   36.2380   28.7590   40.5300 P   0  0  2  0  0  0  0  0  0  0  0  0
   36.5460   28.8410   42.1960 O   0  0  0  0  0  0  0  0  0  0  0  0
   37.3080   28.2200   42.3780 H   0  0  0  0  0  0  0  0  0  0  0  0
   37.2160   29.6870   39.6080 O   0  0  0  0  0  0  0  0  0  0  0  0
   37.1680   31.5460   38.0620 C   0  0  1  0  0  0  0  0  0  0  0  0
   37.6620   30.4270   37.2590 C   0  0  0  0  0  0  0  0  0  0  0  0
   36.7310   30.2110   38.4670 C   0  0  1  0  0  0  0  0  0  0  0  0
   36.4730   32.2720   37.6280 H   0  0  0  0  0  0  0  0  0  0  0  0
   38.6470   29.9470   37.4290 H   0  0  0  0  0  0  0  0  0  0  0  0
   37.2820   30.2240   36.2460 H   0  0  0  0  0  0  0  0  0  0  0  0
   35.7570   29.8190   38.1320 H   0  0  0  0  0  0  0  0  0  0  0  0
   38.7440   33.7370   40.7160 C   0  0  0  0  0  0  0  0  0  0  0  0
   37.7770   33.1260   39.9230 C   0  0  0  0  0  0  0  0  0  0  0  0
   38.1910   32.2080   38.9400 C   0  0  0  0  0  0  0  0  0  0  0  0
   39.5170   31.9450   38.7910 N   0  0  0  0  0  0  0  0  0  0  0  0
   40.4380   32.5560   39.5780 C   0  0  0  0  0  0  0  0  0  0  0  0
   40.0540   33.4490   40.5370 N   0  0  0  0  0  0  0  0  0  0  0  0
   38.3970   34.4350   41.4600 H   0  0  0  0  0  0  0  0  0  0  0  0
   36.7470   33.3590   40.0710 H   0  0  0  0  0  0  0  0  0  0  0  0
   41.4860   32.3110   39.4170 H   0  0  0  0  0  0  0  0  0  0  0  0
   36.3290   27.1440   40.0810 O   0  0  0  0  0  0  0  0  0  0  0  0
   37.0610   26.1890   40.7650 C   0  0  0  0  0  0  0  0  0  0  0  0
   36.7040   24.8880   41.0670 C   0  0  0  0  0  0  0  0  0  0  0  0
   37.5410   24.0610   41.7530 C   0  0  0  0  0  0  0  0  0  0  0  0
   38.7780   24.5130   42.1650 C   0  0  0  0  0  0  0  0  0  0  0  0
   39.1070   25.8280   41.8450 C   0  0  0  0  0  0  0  0  0  0  0  0
   38.2600   26.6350   41.1620 N   0  0  0  0  0  0  0  0  0  0  0  0
   35.7210   24.6050   40.7130 H   0  0  0  0  0  0  0  0  0  0  0  0
   37.1800   23.0640   41.9440 H   0  0  0  0  0  0  0  0  0  0  0  0
   39.4290   23.8660   42.7000 H   0  0  0  0  0  0  0  0  0  0  0  0
   40.3920   26.2700   42.2820 N   0  0  0  0  0  0  0  0  0  0  0  0
   41.5480   25.6590   42.0010 C   0  0  0  0  0  3  0  0  0  0  0  0
   42.7520   26.1550   42.4660 C   0  0  0  0  0  0  0  0  0  0  0  0
   43.6930   25.6490   42.2320 H   0  0  0  0  0  0  0  0  0  0  0  0
   42.7550   27.3120   43.2390 C   0  0  0  0  0  0  0  0  0  0  0  0
   43.8300   27.7920   43.6790 O   0  0  0  0  0  0  0  0  0  0  0  0
   41.5510   27.9000   43.4990 N   0  0  0  0  0  0  0  0  0  0  0  0
   40.3780   27.4000   43.0360 C   0  0  0  0  0  0  0  0  0  0  0  0
   39.3760   28.0840   43.3810 O   0  0  0  0  0  0  0  0  0  0  0  0
   41.6280   28.7670   44.0870 H   0  0  0  0  0  0  0  0  0  0  0  0
  2  1  2  6  0  0  0
  2  3  1  0  0  0  0
  3  4  1  0  0  0  0
  5  2  1  0  0  0  0
  6  9  1  6  0  0  0
  6  8  1  0  0  0  0
  6 15  1  0  0  0  0
  7 10  1  0  0  0  0
  7  6  1  0  0  0  0
  7  8  1  0  0  0  0
  8 12  1  6  0  0  0
  8  5  1  0  0  0  0
 11  7  1  0  0  0  0
 13 19  1  0  0  0  0
 14 20  1  0  0  0  0
 14 13  2  0  0  0  0
 15 14  1  0  0  0  0
 16 15  2  0  0  0  0
 16 17  1  0  0  0  0
 17 18  2  0  0  0  0
 18 13  1  0  0  0  0
 21 17  1  0  0  0  0
 22  2  1  0  0  0  0
 22 23  1  0  0  0  0
 23 24  2  0  0  0  0
 23 28  1  0  0  0  0
 24 25  1  0  0  0  0
 25 30  1  0  0  0  0
 25 26  2  0  0  0  0
 26 31  1  0  0  0  0
 27 26  1  0  0  0  0
 27 32  1  0  0  0  0
 28 27  2  0  0  0  0
 29 24  1  0  0  0  0
 32 39  1  0  0  0  0
 33 32  1  0  0  0  0
 33 34  2  0  0  0  0
 34 36  1  0  0  0  0
 35 34  1  0  0  0  0
 36 38  1  0  0  0  0
 36 37  2  0  0  0  0
 38 41  1  0  0  0  0
 39 40  2  0  0  0  0
 39 38  1  0  0  0  0
M  END
>  <minimizedAffinity>
-5.9090333

$$$$

 OpenBabel03252501093D

 41 44  0  0  1  0  0  0  0  0999 V2000
   39.9160   33.1810   39.1420 O   0  0  0  0  0  0  0  0  0  0  0  0
   38.8000   32.5170   39.9450 P   0  0  2  0  0  0  0  0  0  0  0  0
   38.1820   33.7420   40.9430 O   0  0  0  0  0  0  0  0  0  0  0  0
   37.2330   33.5000   41.1410 H   0  0  0  0  0  0  0  0  0  0  0  0
   39.3030   31.1790   40.7360 O   0  0  0  0  0  0  0  0  0  0  0  0
   39.6240   30.2970   42.9640 C   0  0  1  0  0  0  0  0  0  0  0  0
   40.9720   30.3330   42.3970 C   0  0  0  0  0  0  0  0  0  0  0  0
   39.8750   31.3150   41.9470 C   0  0  1  0  0  0  0  0  0  0  0  0
   39.4580   30.5590   44.0140 H   0  0  0  0  0  0  0  0  0  0  0  0
   41.2930   29.6880   41.5550 H   0  0  0  0  0  0  0  0  0  0  0  0
   41.8340   30.7150   42.9660 H   0  0  0  0  0  0  0  0  0  0  0  0
   40.1390   32.3440   42.2430 H   0  0  0  0  0  0  0  0  0  0  0  0
   36.7940   27.7890   42.7870 C   0  0  0  0  0  0  0  0  0  0  0  0
   37.5510   28.8860   43.1850 C   0  0  0  0  0  0  0  0  0  0  0  0
   38.7810   29.1270   42.5430 C   0  0  0  0  0  0  0  0  0  0  0  0
   39.1940   28.2850   41.5570 N   0  0  0  0  0  0  0  0  0  0  0  0
   38.4350   27.2220   41.1910 C   0  0  0  0  0  0  0  0  0  0  0  0
   37.2390   26.9740   41.8010 N   0  0  0  0  0  0  0  0  0  0  0  0
   35.8580   27.6300   43.2960 H   0  0  0  0  0  0  0  0  0  0  0  0
   37.1930   29.5220   43.9620 H   0  0  0  0  0  0  0  0  0  0  0  0
   38.8120   26.5790   40.3970 H   0  0  0  0  0  0  0  0  0  0  0  0
   37.6160   32.1470   38.8140 O   0  0  0  0  0  0  0  0  0  0  0  0
   36.7700   31.0550   38.9050 C   0  0  0  0  0  0  0  0  0  0  0  0
   36.1470   30.5440   40.0290 C   0  0  0  0  0  0  0  0  0  0  0  0
   35.3350   29.4520   39.9580 C   0  0  0  0  0  0  0  0  0  0  0  0
   35.1180   28.8270   38.7470 C   0  0  0  0  0  0  0  0  0  0  0  0
   35.7610   29.3670   37.6350 C   0  0  0  0  0  0  0  0  0  0  0  0
   36.5650   30.4540   37.7260 N   0  0  0  0  0  0  0  0  0  0  0  0
   36.3640   31.0850   40.9410 H   0  0  0  0  0  0  0  0  0  0  0  0
   34.8910   29.1250   40.8830 H   0  0  0  0  0  0  0  0  0  0  0  0
   34.4840   27.9770   38.6940 H   0  0  0  0  0  0  0  0  0  0  0  0
   35.5190   28.7020   36.3960 N   0  0  0  0  0  0  0  0  0  0  0  0
   34.3080   28.4620   35.8780 C   0  0  0  0  0  3  0  0  0  0  0  0
   34.1630   27.8100   34.6680 C   0  0  0  0  0  0  0  0  0  0  0  0
   33.1690   27.6170   34.2540 H   0  0  0  0  0  0  0  0  0  0  0  0
   35.2990   27.3980   33.9800 C   0  0  0  0  0  0  0  0  0  0  0  0
   35.2050   26.8020   32.8760 O   0  0  0  0  0  0  0  0  0  0  0  0
   36.5110   27.6650   34.5460 N   0  0  0  0  0  0  0  0  0  0  0  0
   36.6370   28.3070   35.7350 C   0  0  0  0  0  0  0  0  0  0  0  0
   37.8380   28.4610   36.0910 O   0  0  0  0  0  0  0  0  0  0  0  0
   37.3240   27.3270   33.9720 H   0  0  0  0  0  0  0  0  0  0  0  0
  2  1  2  6  0  0  0
  2  5  1  0  0  0  0
  2  3  1  0  0  0  0
  3  4  1  0  0  0  0
  5  8  1  0  0  0  0
  6  9  1  1  0  0  0
  7  6  1  0  0  0  0
  7 11  1  0  0  0  0
  8 12  1  1  0  0  0
  8  7  1  0  0  0  0
  8  6  1  0  0  0  0
 10  7  1  0  0  0  0
 13 14  1  0  0  0  0
 13 19  1  0  0  0  0
 14 20  1  0  0  0  0
 15  6  1  0  0  0  0
 15 14  2  0  0  0  0
 16 15  1  0  0  0  0
 17 16  2  0  0  0  0
 17 18  1  0  0  0  0
 18 13  2  0  0  0  0
 21 17  1  0  0  0  0
 22 23  1  0  0  0  0
 22  2  1  0  0  0  0
 23 24  1  0  0  0  0
 24 29  1  0  0  0  0
 25 24  2  0  0  0  0
 25 30  1  0  0  0  0
 26 25  1  0  0  0  0
 27 28  1  0  0  0  0
 27 26  2  0  0  0  0
 28 23  2  0  0  0  0
 31 26  1  0  0  0  0
 32 27  1  0  0  0  0
 33 32  1  0  0  0  0
 34 33  2  0  0  0  0
 35 34  1  0  0  0  0
 36 38  1  0  0  0  0
 36 34  1  0  0  0  0
 37 36  2  0  0  0  0
 38 39  1  0  0  0  0
 39 40  2  0  0  0  0
 39 32  1  0  0  0  0
 41 38  1  0  0  0  0
M  END
>  <minimizedAffinity>
-5.8929081

$$$$

 OpenBabel03252501093D

 41 44  0  0  1  0  0  0  0  0999 V2000
   36.4400   29.0750   39.9720 O   0  0  0  0  0  0  0  0  0  0  0  0
   36.9530   30.0830   40.9970 P   0  0  2  0  0  0  0  0  0  0  0  0
   35.6040   31.0310   41.3990 O   0  0  0  0  0  0  0  0  0  0  0  0
   35.7630   31.3790   42.3220 H   0  0  0  0  0  0  0  0  0  0  0  0
   38.2450   30.9260   40.4590 O   0  0  0  0  0  0  0  0  0  0  0  0
   40.1330   32.3660   40.9120 C   0  0  1  0  0  0  0  0  0  0  0  0
   38.9930   33.2800   40.8570 C   0  0  0  0  0  0  0  0  0  0  0  0
   38.8350   31.8090   41.2850 C   0  0  1  0  0  0  0  0  0  0  0  0
   40.9290   32.5180   41.6480 H   0  0  0  0  0  0  0  0  0  0  0  0
   38.4220   33.4840   39.9290 H   0  0  0  0  0  0  0  0  0  0  0  0
   38.8460   34.0750   41.6050 H   0  0  0  0  0  0  0  0  0  0  0  0
   38.5400   31.7500   42.3460 H   0  0  0  0  0  0  0  0  0  0  0  0
   42.0640   30.4790   38.2580 C   0  0  0  0  0  0  0  0  0  0  0  0
   41.5590   30.8440   39.5020 C   0  0  0  0  0  0  0  0  0  0  0  0
   40.6820   31.9430   39.5790 C   0  0  0  0  0  0  0  0  0  0  0  0
   40.3560   32.6160   38.4430 N   0  0  0  0  0  0  0  0  0  0  0  0
   40.8650   32.2380   37.2430 C   0  0  0  0  0  0  0  0  0  0  0  0
   41.7160   31.1740   37.1500 N   0  0  0  0  0  0  0  0  0  0  0  0
   42.7320   29.6340   38.2310 H   0  0  0  0  0  0  0  0  0  0  0  0
   41.8380   30.2920   40.3700 H   0  0  0  0  0  0  0  0  0  0  0  0
   40.5730   32.8100   36.3640 H   0  0  0  0  0  0  0  0  0  0  0  0
   37.3420   29.1660   42.3470 O   0  0  0  0  0  0  0  0  0  0  0  0
   37.6910   27.8270   42.3020 C   0  0  0  0  0  0  0  0  0  0  0  0
   36.8790   26.7220   42.4850 C   0  0  0  0  0  0  0  0  0  0  0  0
   37.3740   25.4550   42.4080 C   0  0  0  0  0  0  0  0  0  0  0  0
   38.7120   25.2480   42.1440 C   0  0  0  0  0  0  0  0  0  0  0  0
   39.5020   26.3820   41.9660 C   0  0  0  0  0  0  0  0  0  0  0  0
   38.9910   27.6340   42.0450 N   0  0  0  0  0  0  0  0  0  0  0  0
   35.8440   26.9620   42.6880 H   0  0  0  0  0  0  0  0  0  0  0  0
   36.6690   24.6550   42.5640 H   0  0  0  0  0  0  0  0  0  0  0  0
   39.0960   24.2590   42.0850 H   0  0  0  0  0  0  0  0  0  0  0  0
   40.8820   26.1390   41.6930 N   0  0  0  0  0  0  0  0  0  0  0  0
   41.3430   25.3680   40.7020 C   0  0  0  0  0  3  0  0  0  0  0  0
   42.7000   25.1860   40.5080 C   0  0  0  0  0  0  0  0  0  0  0  0
   43.0680   24.5540   39.6950 H   0  0  0  0  0  0  0  0  0  0  0  0
   43.5970   25.8200   41.3610 C   0  0  0  0  0  0  0  0  0  0  0  0
   44.8380   25.6780   41.2150 O   0  0  0  0  0  0  0  0  0  0  0  0
   43.0800   26.5970   42.3560 N   0  0  0  0  0  0  0  0  0  0  0  0
   41.7460   26.7650   42.5340 C   0  0  0  0  0  0  0  0  0  0  0  0
   41.4650   27.5190   43.5060 O   0  0  0  0  0  0  0  0  0  0  0  0
   43.8140   27.0440   42.9610 H   0  0  0  0  0  0  0  0  0  0  0  0
  2  1  2  6  0  0  0
  2  3  1  0  0  0  0
  2 22  1  0  0  0  0
  3  4  1  0  0  0  0
  5  2  1  0  0  0  0
  5  8  1  0  0  0  0
  6  8  1  0  0  0  0
  6  9  1  1  0  0  0
  7  6  1  0  0  0  0
  7  8  1  0  0  0  0
  7 11  1  0  0  0  0
  8 12  1  1  0  0  0
 10  7  1  0  0  0  0
 13 14  1  0  0  0  0
 14 15  2  0  0  0  0
 14 20  1  0  0  0  0
 15  6  1  0  0  0  0
 16 15  1  0  0  0  0
 17 16  2  0  0  0  0
 18 17  1  0  0  0  0
 18 13  2  0  0  0  0
 19 13  1  0  0  0  0
 21 17  1  0  0  0  0
 23 22  1  0  0  0  0
 23 24  1  0  0  0  0
 24 29  1  0  0  0  0
 25 24  2  0  0  0  0
 25 30  1  0  0  0  0
 26 25  1  0  0  0  0
 27 28  1  0  0  0  0
 27 26  2  0  0  0  0
 28 23  2  0  0  0  0
 31 26  1  0  0  0  0
 32 27  1  0  0  0  0
 32 39  1  0  0  0  0
 33 32  1  0  0  0  0
 34 33  2  0  0  0  0
 34 36  1  0  0  0  0
 35 34  1  0  0  0  0
 36 38  1  0  0  0  0
 37 36  2  0  0  0  0
 38 39  1  0  0  0  0
 38 41  1  0  0  0  0
 39 40  2  0  0  0  0
M  END
>  <minimizedAffinity>
-5.68255424

$$$$

 OpenBabel03252501093D

 41 44  0  0  1  0  0  0  0  0999 V2000
   39.7560   29.5620   38.7980 O   0  0  0  0  0  0  0  0  0  0  0  0
   38.5620   30.2000   39.5040 P   0  0  2  0  0  0  0  0  0  0  0  0
   37.2200   29.2810   39.0240 O   0  0  0  0  0  0  0  0  0  0  0  0
   36.5400   29.3650   39.7510 H   0  0  0  0  0  0  0  0  0  0  0  0
   38.4360   31.8010   39.2070 O   0  0  0  0  0  0  0  0  0  0  0  0
   39.0090   33.4440   40.8860 C   0  0  1  0  0  0  0  0  0  0  0  0
   38.0730   34.1450   40.0070 C   0  0  0  0  0  0  0  0  0  0  0  0
   38.0230   32.6170   40.1950 C   0  0  1  0  0  0  0  0  0  0  0  0
   38.9730   33.6010   41.9690 H   0  0  0  0  0  0  0  0  0  0  0  0
   38.3070   34.4050   38.9550 H   0  0  0  0  0  0  0  0  0  0  0  0
   37.2510   34.7610   40.4030 H   0  0  0  0  0  0  0  0  0  0  0  0
   37.0880   32.3250   40.7020 H   0  0  0  0  0  0  0  0  0  0  0  0
   42.1350   34.0550   38.8410 C   0  0  0  0  0  0  0  0  0  0  0  0
   40.8260   34.1610   39.2980 C   0  0  0  0  0  0  0  0  0  0  0  0
   40.4220   33.3590   40.3830 C   0  0  0  0  0  0  0  0  0  0  0  0
   41.3170   32.5080   40.9510 N   0  0  0  0  0  0  0  0  0  0  0  0
   42.5880   32.4250   40.4830 C   0  0  0  0  0  0  0  0  0  0  0  0
   42.9970   33.1950   39.4330 N   0  0  0  0  0  0  0  0  0  0  0  0
   42.4150   34.6820   38.0090 H   0  0  0  0  0  0  0  0  0  0  0  0
   40.1530   34.8410   38.8260 H   0  0  0  0  0  0  0  0  0  0  0  0
   43.2650   31.7270   40.9730 H   0  0  0  0  0  0  0  0  0  0  0  0
   38.8160   29.9020   41.1370 O   0  0  0  0  0  0  0  0  0  0  0  0
   38.2030   28.8820   41.8430 C   0  0  0  0  0  0  0  0  0  0  0  0
   37.5730   28.9480   43.0730 C   0  0  0  0  0  0  0  0  0  0  0  0
   37.0110   27.8460   43.6450 C   0  0  0  0  0  0  0  0  0  0  0  0
   37.0610   26.6280   43.0000 C   0  0  0  0  0  0  0  0  0  0  0  0
   37.7030   26.5960   41.7630 C   0  0  0  0  0  0  0  0  0  0  0  0
   38.2560   27.7020   41.2110 N   0  0  0  0  0  0  0  0  0  0  0  0
   37.5740   29.9340   43.5190 H   0  0  0  0  0  0  0  0  0  0  0  0
   36.5410   27.9910   44.6040 H   0  0  0  0  0  0  0  0  0  0  0  0
   36.6220   25.7710   43.4470 H   0  0  0  0  0  0  0  0  0  0  0  0
   37.7390   25.3240   41.1180 N   0  0  0  0  0  0  0  0  0  0  0  0
   36.6680   24.5690   40.8500 C   0  0  0  0  0  3  0  0  0  0  0  0
   36.7930   23.3450   40.2190 C   0  0  0  0  0  0  0  0  0  0  0  0
   35.9110   22.7340   40.0050 H   0  0  0  0  0  0  0  0  0  0  0  0
   38.0580   22.8960   39.8570 C   0  0  0  0  0  0  0  0  0  0  0  0
   38.2110   21.7880   39.2810 O   0  0  0  0  0  0  0  0  0  0  0  0
   39.1210   23.7000   40.1490 N   0  0  0  0  0  0  0  0  0  0  0  0
   38.9820   24.8980   40.7690 C   0  0  0  0  0  0  0  0  0  0  0  0
   40.0790   25.4940   40.9520 O   0  0  0  0  0  0  0  0  0  0  0  0
   40.0440   23.2990   39.8480 H   0  0  0  0  0  0  0  0  0  0  0  0
  2  1  2  6  0  0  0
  2 22  1  0  0  0  0
  3  2  1  0  0  0  0
  3  4  1  0  0  0  0
  5  2  1  0  0  0  0
  5  8  1  0  0  0  0
  6  9  1  1  0  0  0
  7  8  1  0  0  0  0
  7 11  1  0  0  0  0
  7  6  1  0  0  0  0
  8 12  1  1  0  0  0
  8  6  1  0  0  0  0
 10  7  1  0  0  0  0
 13 14  2  0  0  0  0
 13 18  1  0  0  0  0
 14 15  1  0  0  0  0
 15  6  1  0  0  0  0
 15 16  2  0  0  0  0
 17 16  1  0  0  0  0
 17 21  1  0  0  0  0
 18 17  2  0  0  0  0
 19 13  1  0  0  0  0
 20 14  1  0  0  0  0
 22 23  1  0  0  0  0
 23 24  1  0  0  0  0
 24 29  1  0  0  0  0
 24 25  2  0  0  0  0
 25 30  1  0  0  0  0
 26 31  1  0  0  0  0
 26 25  1  0  0  0  0
 27 26  2  0  0  0  0
 28 27  1  0  0  0  0
 28 23  2  0  0  0  0
 32 27  1  0  0  0  0
 33 32  1  0  0  0  0
 34 33  2  0  0  0  0
 35 34  1  0  0  0  0
 36 38  1  0  0  0  0
 36 34  1  0  0  0  0
 37 36  2  0  0  0  0
 38 39  1  0  0  0  0
 39 40  2  0  0  0  0
 39 32  1  0  0  0  0
 41 38  1  0  0  0  0
M  END
>  <minimizedAffinity>
-5.67235565

$$$$
