
 OpenBabel03252502593D

 23 24  0  0  0  0  0  0  0  0999 V2000
   43.6190   34.1900   40.2360 C   0  0  0  0  0  0  0  0  0  0  0  0
   44.4810   34.3340   39.5400 H   0  0  0  0  0  0  0  0  0  0  0  0
   43.7040   33.1950   40.7260 H   0  0  0  0  0  0  0  0  0  0  0  0
   42.3490   34.3230   39.5080 N   0  0  0  0  0  0  0  0  0  0  0  0
   42.2390   35.2980   38.5960 C   0  0  0  0  0  3  0  0  0  0  0  0
   41.0020   35.3460   37.9590 C   0  0  0  0  0  0  0  0  0  0  0  0
   40.8120   36.1140   37.1920 H   0  0  0  0  0  0  0  0  0  0  0  0
   39.9870   34.4340   38.2730 C   0  0  0  0  0  0  0  0  0  0  0  0
   38.8660   34.4560   37.7130 O   0  0  0  0  0  0  0  0  0  0  0  0
   40.2080   33.4890   39.2110 N   0  0  0  0  0  0  0  0  0  0  0  0
   41.3930   33.4230   39.8390 C   0  0  0  0  0  0  0  0  0  0  0  0
   41.6100   32.5410   40.7200 O   0  0  0  0  0  0  0  0  0  0  0  0
   39.4640   32.7930   39.4640 H   0  0  0  0  0  0  0  0  0  0  0  0
   43.6170   35.5340   41.4470 S   0  0  0  0  0  0  0  0  0  0  0  0
   44.2900   35.7750   44.1350 C   0  0  0  0  0  0  0  0  0  0  0  0
   44.3200   34.9560   42.9910 C   0  0  0  0  0  0  0  0  0  0  0  0
   44.8950   33.6990   43.0610 C   0  0  0  0  0  0  0  0  0  0  0  0
   45.4160   33.3060   44.2610 N   0  0  0  0  0  0  0  0  0  0  0  0
   45.3700   34.1130   45.3310 C   0  0  0  0  0  0  0  0  0  0  0  0
   44.8260   35.3230   45.3000 N   0  0  0  0  0  0  0  0  0  0  0  0
   43.8300   36.7410   44.0170 H   0  0  0  0  0  0  0  0  0  0  0  0
   44.9420   33.0230   42.1960 H   0  0  0  0  0  0  0  0  0  0  0  0
   45.7660   33.8570   46.3100 H   0  0  0  0  0  0  0  0  0  0  0  0
  1  3  1  0  0  0  0
  1 14  1  0  0  0  0
  2  1  1  0  0  0  0
  4 11  1  0  0  0  0
  4  1  1  0  0  0  0
  5  4  1  0  0  0  0
  6  8  1  0  0  0  0
  6  5  2  0  0  0  0
  7  6  1  0  0  0  0
  8 10  1  0  0  0  0
  9  8  2  0  0  0  0
 10 13  1  0  0  0  0
 10 11  1  0  0  0  0
 11 12  2  0  0  0  0
 14 16  1  0  0  0  0
 15 20  1  0  0  0  0
 16 17  1  0  0  0  0
 16 15  2  0  0  0  0
 17 18  2  0  0  0  0
 18 19  1  0  0  0  0
 19 23  1  0  0  0  0
 20 19  2  0  0  0  0
 21 15  1  0  0  0  0
 22 17  1  0  0  0  0
M  END
>  <minimizedAffinity>
-4.42383671

>  <minimizedRMSD>
2.04384375

$$$$
