
 OpenBabel03252502593D

 23 24  0  0  0  0  0  0  0  0999 V2000
   44.1930   33.4220   39.5150 C   0  0  0  0  0  0  0  0  0  0  0  0
   44.8310   34.3360   39.4350 H   0  0  0  0  0  0  0  0  0  0  0  0
   44.3970   32.7540   38.6490 H   0  0  0  0  0  0  0  0  0  0  0  0
   42.7730   33.7960   39.5810 N   0  0  0  0  0  0  0  0  0  0  0  0
   41.8720   32.9630   39.0450 C   0  0  0  0  0  3  0  0  0  0  0  0
   40.5540   33.4000   39.1550 C   0  0  0  0  0  0  0  0  0  0  0  0
   39.7390   32.7830   38.7440 H   0  0  0  0  0  0  0  0  0  0  0  0
   40.2420   34.6120   39.7800 C   0  0  0  0  0  0  0  0  0  0  0  0
   39.0630   35.0280   39.8920 O   0  0  0  0  0  0  0  0  0  0  0  0
   41.2320   35.3750   40.2880 N   0  0  0  0  0  0  0  0  0  0  0  0
   42.5110   34.9750   40.1930 C   0  0  0  0  0  0  0  0  0  0  0  0
   43.4480   35.6830   40.6650 O   0  0  0  0  0  0  0  0  0  0  0  0
   41.0250   36.2900   40.7610 H   0  0  0  0  0  0  0  0  0  0  0  0
   44.5440   32.6020   41.0890 S   0  0  0  0  0  0  0  0  0  0  0  0
   46.4840   32.8460   43.0670 C   0  0  0  0  0  0  0  0  0  0  0  0
   46.0230   33.3020   41.8180 C   0  0  0  0  0  0  0  0  0  0  0  0
   46.7180   34.2970   41.1520 C   0  0  0  0  0  0  0  0  0  0  0  0
   47.8390   34.7970   41.7510 N   0  0  0  0  0  0  0  0  0  0  0  0
   48.2500   34.3370   42.9420 C   0  0  0  0  0  0  0  0  0  0  0  0
   47.6080   33.3850   43.6080 N   0  0  0  0  0  0  0  0  0  0  0  0
   45.9010   32.0710   43.5350 H   0  0  0  0  0  0  0  0  0  0  0  0
   46.4000   34.6860   40.1760 H   0  0  0  0  0  0  0  0  0  0  0  0
   49.1310   34.6950   43.4670 H   0  0  0  0  0  0  0  0  0  0  0  0
  1  4  1  0  0  0  0
  1 14  1  0  0  0  0
  2  1  1  0  0  0  0
  3  1  1  0  0  0  0
  4 11  1  0  0  0  0
  5  6  2  0  0  0  0
  5  4  1  0  0  0  0
  6  8  1  0  0  0  0
  7  6  1  0  0  0  0
  8  9  2  0  0  0  0
  8 10  1  0  0  0  0
 10 13  1  0  0  0  0
 11 10  1  0  0  0  0
 11 12  2  0  0  0  0
 14 16  1  0  0  0  0
 15 21  1  0  0  0  0
 15 20  1  0  0  0  0
 16 15  2  0  0  0  0
 17 18  2  0  0  0  0
 17 16  1  0  0  0  0
 18 19  1  0  0  0  0
 19 23  1  0  0  0  0
 19 20  2  0  0  0  0
 22 17  1  0  0  0  0
M  END
>  <minimizedAffinity>
-3.52297735

>  <minimizedRMSD>
3.12825656

$$$$
