
 OpenBabel03252500573D

 39 41  0  0  0  0  0  0  0  0999 V2000
   43.8520   34.8310   40.2110 O   0  0  0  0  0  0  0  0  0  0  0  0
   43.3910   34.7120   41.6670 P   0  0  1  0  0  0  0  0  0  0  0  0
   43.2520   33.0630   42.0270 O   0  0  0  0  0  0  0  0  0  0  0  0
   43.4330   32.4930   41.2410 H   0  0  0  0  0  0  0  0  0  0  0  0
   44.5800   35.3600   42.6740 O   0  0  0  0  0  0  0  0  0  0  0  0
   46.6560   34.3000   43.0350 C   0  0  0  0  0  0  0  0  0  0  0  0
   45.4210   34.6520   43.5210 C   0  0  0  0  0  0  0  0  0  0  0  0
   45.1140   34.2600   44.8470 C   0  0  0  0  0  0  0  0  0  0  0  0
   46.0470   33.5740   45.5320 N   0  0  0  0  0  0  0  0  0  0  0  0
   47.2420   33.2510   45.0210 C   0  0  0  0  0  0  0  0  0  0  0  0
   47.5390   33.6180   43.7690 N   0  0  0  0  0  0  0  0  0  0  0  0
   44.1390   34.5550   45.1860 H   0  0  0  0  0  0  0  0  0  0  0  0
   47.8970   32.7010   45.6750 H   0  0  0  0  0  0  0  0  0  0  0  0
   47.0450   34.6700   41.6730 C   0  0  0  0  0  0  0  0  0  0  0  0
   47.0080   33.8020   40.9590 H   0  0  0  0  0  0  0  0  0  0  0  0
   46.3190   35.4080   41.2600 H   0  0  0  0  0  0  0  0  0  0  0  0
   48.3880   35.3450   41.6960 C   0  0  0  0  0  0  0  0  0  0  0  0
   49.1280   34.5880   41.3470 H   0  0  0  0  0  0  0  0  0  0  0  0
   48.4400   36.1910   40.9820 H   0  0  0  0  0  0  0  0  0  0  0  0
   48.6410   35.6280   42.7400 H   0  0  0  0  0  0  0  0  0  0  0  0
   41.8770   35.4140   41.8690 O   0  0  0  0  0  0  0  0  0  0  0  0
   40.7700   34.7960   41.2960 C   0  0  0  0  0  0  0  0  0  0  0  0
   40.0240   35.5510   40.4040 C   0  0  0  0  0  0  0  0  0  0  0  0
   38.9000   35.0190   39.7830 C   0  0  0  0  0  0  0  0  0  0  0  0
   38.5530   33.7350   40.0750 N   0  0  0  0  0  0  0  0  0  0  0  0
   39.2750   33.0150   40.9350 C   0  0  0  0  0  0  0  0  0  0  0  0
   40.3560   33.5350   41.5280 N   0  0  0  0  0  0  0  0  0  0  0  0
   40.3100   36.5630   40.1840 H   0  0  0  0  0  0  0  0  0  0  0  0
   38.3560   35.6410   39.1020 H   0  0  0  0  0  0  0  0  0  0  0  0
   38.8900   31.6740   41.2230 N   0  0  0  0  0  0  0  0  0  0  0  0
   37.7310   31.1640   40.7710 C   0  0  0  0  0  0  0  0  0  0  0  0
   37.4160   29.8410   41.0920 C   0  0  0  0  0  0  0  0  0  0  0  0
   36.4540   29.5520   40.6670 H   0  0  0  0  0  0  0  0  0  0  0  0
   38.2760   29.0870   41.8510 C   0  0  0  0  0  0  0  0  0  0  0  0
   37.8270   27.9280   42.0350 O   0  0  0  0  0  0  0  0  0  0  0  0
   39.4330   29.6420   42.2850 N   0  0  0  0  0  0  0  0  0  0  0  0
   39.7160   30.9170   41.9640 C   0  0  0  0  0  0  0  0  0  0  0  0
   40.8220   31.3090   42.4310 O   0  0  0  0  0  0  0  0  0  0  0  0
   40.0120   28.9890   42.8510 H   0  0  0  0  0  0  0  0  0  0  0  0
  2  1  2  6  0  0  0
  2 21  1  0  0  0  0
  2  3  1  0  0  0  0
  2  5  1  0  0  0  0
  4  3  1  0  0  0  0
  5  7  1  0  0  0  0
  6  7  2  0  0  0  0
  6 11  1  0  0  0  0
  7  8  1  0  0  0  0
  8 12  1  0  0  0  0
  8  9  2  0  0  0  0
 10  9  1  0  0  0  0
 10 13  1  0  0  0  0
 11 10  2  0  0  0  0
 14 17  1  0  0  0  0
 14  6  1  0  0  0  0
 15 14  1  0  0  0  0
 16 14  1  0  0  0  0
 17 20  1  0  0  0  0
 18 17  1  0  0  0  0
 19 17  1  0  0  0  0
 22 27  1  0  0  0  0
 22 21  1  0  0  0  0
 23 22  2  0  0  0  0
 24 25  2  0  0  0  0
 24 23  1  0  0  0  0
 25 26  1  0  0  0  0
 26 30  1  0  0  0  0
 26 27  2  0  0  0  0
 28 23  1  0  0  0  0
 29 24  1  0  0  0  0
 30 37  1  0  0  0  0
 31 32  2  0  0  0  0
 31 30  1  0  0  0  0
 32 34  1  0  0  0  0
 33 32  1  0  0  0  0
 34 35  2  0  0  0  0
 34 36  1  0  0  0  0
 36 39  1  0  0  0  0
 37 36  1  0  0  0  0
 37 38  2  0  0  0  0
M  END
>  <minimizedAffinity>
-6.29724836

>  <minimizedRMSD>
0.539573669

$$$$
