
 OpenBabel03242518393D

 40 43  0  0  1  0  0  0  0  0999 V2000
   46.4210   33.6460   40.8380 O   0  0  0  0  0  0  0  0  0  0  0  0
   46.8070   33.6330   39.4730 C   0  0  0  0  0  0  0  0  0  0  0  0
   47.9790   34.0570   38.8370 C   0  0  0  0  0  0  0  0  0  0  0  0
   47.8540   33.8260   37.4780 C   0  0  0  0  0  0  0  0  0  0  0  0
   46.6190   33.2750   37.3520 C   0  0  0  0  0  0  0  0  0  0  0  0
   46.0090   33.1630   38.5160 O   0  0  0  0  0  0  0  0  0  0  0  0
   48.7850   34.4800   39.4140 H   0  0  0  0  0  0  0  0  0  0  0  0
   48.6160   34.0590   36.7470 H   0  0  0  0  0  0  0  0  0  0  0  0
   46.0140   32.8490   36.0700 C   0  0  2  0  0  0  0  0  0  0  0  0
   45.7770   31.4330   35.7900 C   0  0  0  0  0  0  0  0  0  0  0  0
   46.9850   32.0370   35.1740 C   0  0  1  0  0  0  0  0  0  0  0  0
   45.4600   33.6570   35.5690 H   0  0  0  0  0  0  0  0  0  0  0  0
   45.8770   30.6530   36.5790 H   0  0  0  0  0  0  0  0  0  0  0  0
   44.8970   31.2320   35.1130 H   0  0  0  0  0  0  0  0  0  0  0  0
   47.9840   31.8590   35.5610 H   0  0  0  0  0  0  0  0  0  0  0  0
   48.0430   32.7200   33.0320 C   0  0  0  0  0  0  0  0  0  0  0  0
   49.1940   32.7830   33.5520 O   0  0  0  0  0  0  0  0  0  0  0  0
   46.8700   32.3960   33.7620 N   0  0  0  0  0  0  0  0  0  0  0  0
   48.0400   32.9370   31.9730 H   0  0  0  0  0  0  0  0  0  0  0  0
   45.9370   32.4100   33.3050 H   0  0  0  0  0  0  0  0  0  0  0  0
   46.9700   34.6520   41.6860 C   0  0  0  0  0  0  0  0  0  0  0  0
   47.9470   35.2910   41.2430 O   0  0  0  0  0  0  0  0  0  0  0  0
   46.3270   34.8070   42.9510 C   0  0  0  0  0  0  0  0  0  0  0  0
   45.4520   35.8590   43.0440 C   0  0  0  0  0  0  0  0  0  0  0  0
   44.7880   36.0760   44.2400 C   0  0  0  0  0  0  0  0  0  0  0  0
   45.0330   35.2330   45.2730 N   0  0  0  0  0  0  0  0  0  0  0  0
   45.8920   34.2140   45.1550 C   0  0  0  0  0  0  0  0  0  0  0  0
   46.5240   34.0270   43.9820 N   0  0  0  0  0  0  0  0  0  0  0  0
   45.2030   36.5710   42.2720 H   0  0  0  0  0  0  0  0  0  0  0  0
   44.0840   36.8910   44.3720 H   0  0  0  0  0  0  0  0  0  0  0  0
   46.1110   33.3610   46.2760 N   0  0  0  0  0  0  0  0  0  0  0  0
   47.1460   32.5160   46.4560 C   0  0  0  0  0  3  0  0  0  0  0  0
   47.2350   31.7420   47.5950 C   0  0  0  0  0  0  0  0  0  0  0  0
   48.0770   31.0860   47.6920 H   0  0  0  0  0  0  0  0  0  0  0  0
   46.2180   31.8860   48.5190 C   0  0  0  0  0  0  0  0  0  0  0  0
   46.2870   31.1780   49.5770 O   0  0  0  0  0  0  0  0  0  0  0  0
   45.1990   32.7170   48.3450 N   0  0  0  0  0  0  0  0  0  0  0  0
   45.1380   33.4690   47.2060 C   0  0  0  0  0  0  0  0  0  0  0  0
   44.1310   34.2250   47.1380 O   0  0  0  0  0  0  0  0  0  0  0  0
   44.4660   32.7650   49.1010 H   0  0  0  0  0  0  0  0  0  0  0  0
  1 21  1  0  0  0  0
  2  1  1  0  0  0  0
  3  7  1  0  0  0  0
  3  2  2  0  0  0  0
  4  3  1  0  0  0  0
  5  4  2  0  0  0  0
  5  6  1  0  0  0  0
  6  2  1  0  0  0  0
  8  4  1  0  0  0  0
  9 12  1  6  0  0  0
  9  5  1  0  0  0  0
 10  9  1  0  0  0  0
 10 13  1  0  0  0  0
 11 15  1  1  0  0  0
 11 10  1  0  0  0  0
 11  9  1  0  0  0  0
 14 10  1  0  0  0  0
 16 17  2  0  0  0  0
 16 18  1  0  0  0  0
 18 11  1  0  0  0  0
 19 16  1  0  0  0  0
 20 18  1  0  0  0  0
 21 23  1  0  0  0  0
 22 21  2  0  0  0  0
 23 24  2  0  0  0  0
 23 28  1  0  0  0  0
 24 25  1  0  0  0  0
 25 30  1  0  0  0  0
 25 26  2  0  0  0  0
 27 26  1  0  0  0  0
 27 31  1  0  0  0  0
 28 27  2  0  0  0  0
 29 24  1  0  0  0  0
 31 32  1  0  0  0  0
 31 38  1  0  0  0  0
 32 33  2  0  0  0  0
 33 34  1  0  0  0  0
 33 35  1  0  0  0  0
 35 36  2  0  0  0  0
 37 35  1  0  0  0  0
 37 40  1  0  0  0  0
 38 37  1  0  0  0  0
 39 38  2  0  0  0  0
M  END
>  <minimizedAffinity>
-6.54319382

>  <minimizedRMSD>
0.604954183

$$$$
