
 OpenBabel03242520203D

 36 38  0  0  0  0  0  0  0  0999 V2000
   41.0170   35.8620   39.4520 C   0  0  0  0  0  0  0  0  0  0  0  0
   41.2140   36.9550   39.4090 H   0  0  0  0  0  0  0  0  0  0  0  0
   40.7970   35.5150   38.4110 H   0  0  0  0  0  0  0  0  0  0  0  0
   43.8900   34.6220   41.5680 C   0  0  0  0  0  0  0  0  0  0  0  0
   42.7850   35.3840   41.1410 C   0  0  0  0  0  0  0  0  0  0  0  0
   42.1890   35.0880   39.9260 C   0  0  0  0  0  0  0  0  0  0  0  0
   42.7170   34.0540   39.2010 N   0  0  0  0  0  0  0  0  0  0  0  0
   43.7940   33.3420   39.6590 C   0  0  0  0  0  0  0  0  0  0  0  0
   44.3590   33.6290   40.8180 N   0  0  0  0  0  0  0  0  0  0  0  0
   42.4370   36.1810   41.7800 H   0  0  0  0  0  0  0  0  0  0  0  0
   44.1560   32.5380   39.0260 H   0  0  0  0  0  0  0  0  0  0  0  0
   44.5280   34.9600   42.8690 C   0  0  0  0  0  0  0  0  0  0  0  0
   46.0460   35.3160   42.6970 C   0  0  0  0  0  0  0  0  0  0  0  0
   45.0290   36.2460   43.1990 C   0  0  0  0  0  0  0  0  0  0  0  0
   44.3510   34.1730   43.6540 H   0  0  0  0  0  0  0  0  0  0  0  0
   46.4380   35.3620   41.6710 H   0  0  0  0  0  0  0  0  0  0  0  0
   46.7040   34.8650   43.4670 H   0  0  0  0  0  0  0  0  0  0  0  0
   44.7790   37.0840   42.4820 H   0  0  0  0  0  0  0  0  0  0  0  0
   45.0410   36.6410   44.2360 H   0  0  0  0  0  0  0  0  0  0  0  0
   39.8140   35.6220   40.3150 C   0  0  0  0  0  0  0  0  0  0  0  0
   40.1330   35.5830   41.3760 H   0  0  0  0  0  0  0  0  0  0  0  0
   39.0850   36.4750   40.2770 H   0  0  0  0  0  0  0  0  0  0  0  0
   39.1480   33.2630   40.7230 C   0  0  0  0  0  0  0  0  0  0  0  0
   39.7370   33.2430   41.8480 O   0  0  0  0  0  0  0  0  0  0  0  0
   39.0610   34.4360   39.9420 N   0  0  0  0  0  0  0  0  0  0  0  0
   38.4940   34.5330   39.1120 H   0  0  0  0  0  0  0  0  0  0  0  0
   36.8100   29.4830   41.6530 H   0  0  0  0  0  0  0  0  0  0  0  0
   37.3120   30.0260   40.9210 N   0  0  0  0  0  0  0  0  0  0  0  0
   37.8800   31.2060   41.2210 C   0  0  0  0  0  3  0  0  0  0  0  0
   38.5700   31.9950   40.2940 C   0  0  0  0  0  0  0  0  0  0  0  0
   38.5850   31.4090   39.0740 C   0  0  0  0  0  0  0  0  0  0  0  0
   39.1680   31.9990   38.1440 O   0  0  0  0  0  0  0  0  0  0  0  0
   38.0360   30.2460   38.7410 N   0  0  0  0  0  0  0  0  0  0  0  0
   37.3840   29.5320   39.6740 C   0  0  0  0  0  0  0  0  0  0  0  0
   36.8450   28.4400   39.4440 O   0  0  0  0  0  0  0  0  0  0  0  0
   38.0800   29.8500   37.7900 H   0  0  0  0  0  0  0  0  0  0  0  0
  1  6  1  0  0  0  0
  1 20  1  0  0  0  0
  2  1  1  0  0  0  0
  3  1  1  0  0  0  0
  4 12  1  0  0  0  0
  5  4  1  0  0  0  0
  5 10  1  0  0  0  0
  6  5  2  0  0  0  0
  7  8  2  0  0  0  0
  7  6  1  0  0  0  0
  8  9  1  0  0  0  0
  9  4  2  0  0  0  0
 11  8  1  0  0  0  0
 12 14  1  0  0  0  0
 12 15  1  0  0  0  0
 13 12  1  0  0  0  0
 13 14  1  0  0  0  0
 13 17  1  0  0  0  0
 14 19  1  0  0  0  0
 16 13  1  0  0  0  0
 18 14  1  0  0  0  0
 20 21  1  0  0  0  0
 22 20  1  0  0  0  0
 23 24  2  0  0  0  0
 25 20  1  0  0  0  0
 25 23  1  0  0  0  0
 26 25  1  0  0  0  0
 28 29  1  0  0  0  0
 28 27  1  0  0  0  0
 30 23  1  0  0  0  0
 30 29  2  0  0  0  0
 31 30  1  0  0  0  0
 32 31  2  0  0  0  0
 33 31  1  0  0  0  0
 33 34  1  0  0  0  0
 34 28  1  0  0  0  0
 35 34  2  0  0  0  0
 36 33  1  0  0  0  0
M  END
>  <minimizedAffinity>
-5.21137094

>  <minimizedRMSD>
0.858600557

$$$$
