
 OpenBabel03252508253D

 42 46  0  0  1  0  0  0  0  0999 V2000
   46.3860   32.3070   46.1680 C   0  0  1  0  0  0  0  0  0  0  0  0
   46.7220   32.5580   47.5770 C   0  0  0  0  0  0  0  0  0  0  0  0
   45.3940   31.8410   47.1140 C   0  0  2  0  0  0  0  0  0  0  0  0
   47.2650   31.6910   45.7580 H   0  0  0  0  0  0  0  0  0  0  0  0
   46.5720   33.5320   48.0520 H   0  0  0  0  0  0  0  0  0  0  0  0
   47.3100   31.8630   48.2050 H   0  0  0  0  0  0  0  0  0  0  0  0
   44.5780   32.4980   47.5540 H   0  0  0  0  0  0  0  0  0  0  0  0
   45.1640   30.4410   47.4820 C   0  0  0  0  0  0  0  0  0  0  0  0
   45.0600   29.9170   48.7330 C   0  0  0  0  0  0  0  0  0  0  0  0
   44.9720   28.5680   49.0430 C   0  0  0  0  0  0  0  0  0  0  0  0
   44.9920   27.6750   47.9620 C   0  0  0  0  0  0  0  0  0  0  0  0
   45.0950   28.1880   46.6690 C   0  0  0  0  0  0  0  0  0  0  0  0
   45.0480   27.2740   45.6350 C   0  0  0  0  0  0  0  0  0  0  0  0
   45.0740   27.7410   44.3220 C   0  0  0  0  0  0  0  0  0  0  0  0
   45.1430   29.0950   44.0520 C   0  0  0  0  0  0  0  0  0  0  0  0
   45.1900   29.9520   45.1270 C   0  0  0  0  0  0  0  0  0  0  0  0
   45.1750   29.5390   46.4490 C   0  0  0  0  0  0  0  0  0  0  0  0
   45.0490   30.6510   49.5420 H   0  0  0  0  0  0  0  0  0  0  0  0
   44.8910   28.2080   50.0400 H   0  0  0  0  0  0  0  0  0  0  0  0
   44.9280   26.6220   48.1670 H   0  0  0  0  0  0  0  0  0  0  0  0
   44.9910   26.2070   45.8690 H   0  0  0  0  0  0  0  0  0  0  0  0
   45.0350   26.9230   43.5850 H   0  0  0  0  0  0  0  0  0  0  0  0
   45.1500   29.2460   43.0030 H   0  0  0  0  0  0  0  0  0  0  0  0
   45.1530   30.9060   44.6820 H   0  0  0  0  0  0  0  0  0  0  0  0
   44.8740   35.4020   44.8380 C   0  0  0  0  0  0  0  0  0  0  0  0
   45.3980   35.4450   43.4980 C   0  0  0  0  0  0  0  0  0  0  0  0
   46.2820   34.3950   43.0950 C   0  0  0  0  0  0  0  0  0  0  0  0
   46.5870   33.4150   43.9740 N   0  0  0  0  0  0  0  0  0  0  0  0
   46.0500   33.4320   45.2450 C   0  0  0  0  0  0  0  0  0  0  0  0
   45.2250   34.3900   45.6580 N   0  0  0  0  0  0  0  0  0  0  0  0
   44.2180   36.2270   45.0600 H   0  0  0  0  0  0  0  0  0  0  0  0
   45.1550   36.2220   42.7980 H   0  0  0  0  0  0  0  0  0  0  0  0
   46.8070   34.4240   41.7740 N   0  0  0  0  0  0  0  0  0  0  0  0
   47.9980   35.0410   41.6510 C   0  0  0  0  0  3  0  0  0  0  0  0
   48.6100   35.1340   40.4160 C   0  0  0  0  0  0  0  0  0  0  0  0
   49.5710   35.6260   40.2880 H   0  0  0  0  0  0  0  0  0  0  0  0
   47.9990   34.5900   39.2960 C   0  0  0  0  0  0  0  0  0  0  0  0
   48.5450   34.6660   38.1630 O   0  0  0  0  0  0  0  0  0  0  0  0
   46.8100   33.9850   39.4800 N   0  0  0  0  0  0  0  0  0  0  0  0
   46.2130   33.8960   40.6890 C   0  0  0  0  0  0  0  0  0  0  0  0
   45.1020   33.3320   40.8730 O   0  0  0  0  0  0  0  0  0  0  0  0
   46.3450   33.5760   38.6560 H   0  0  0  0  0  0  0  0  0  0  0  0
  1  4  1  6  0  0  0
  1  3  1  0  0  0  0
  1  2  1  0  0  0  0
  2  5  1  0  0  0  0
  2  6  1  0  0  0  0
  3  8  1  0  0  0  0
  3  7  1  1  0  0  0
  3  2  1  0  0  0  0
  8  9  1  0  0  0  0
  9 10  2  0  0  0  0
  9 18  1  0  0  0  0
 10 19  1  0  0  0  0
 11 20  1  0  0  0  0
 11 10  1  0  0  0  0
 12 11  2  0  0  0  0
 13 21  1  0  0  0  0
 13 12  1  0  0  0  0
 14 13  2  0  0  0  0
 15 14  1  0  0  0  0
 15 16  2  0  0  0  0
 16 17  1  0  0  0  0
 17 12  1  0  0  0  0
 17  8  2  0  0  0  0
 22 14  1  0  0  0  0
 23 15  1  0  0  0  0
 24 16  1  0  0  0  0
 25 31  1  0  0  0  0
 25 30  1  0  0  0  0
 26 25  2  0  0  0  0
 27 26  1  0  0  0  0
 27 28  2  0  0  0  0
 28 29  1  0  0  0  0
 29 30  2  0  0  0  0
 29  1  1  0  0  0  0
 32 26  1  0  0  0  0
 33 27  1  0  0  0  0
 34 33  1  0  0  0  0
 35 34  2  0  0  0  0
 36 35  1  0  0  0  0
 37 39  1  0  0  0  0
 37 35  1  0  0  0  0
 38 37  2  0  0  0  0
 39 40  1  0  0  0  0
 40 41  2  0  0  0  0
 40 33  1  0  0  0  0
 42 39  1  0  0  0  0
M  END
>  <minimizedAffinity>
-6.03742075

>  <minimizedRMSD>
0.728334725

$$$$
