
 OpenBabel03242519483D

 39 41  0  0  1  0  0  0  0  0999 V2000
   38.1290   29.7910   40.1050 C   0  0  2  0  0  0  0  0  0  0  0  0
   37.8460   31.2060   39.7940 C   0  0  1  0  0  0  0  0  0  0  0  0
   37.1830   31.7070   41.0070 O   0  0  0  0  0  0  0  0  0  0  0  0
   36.1750   30.7040   41.0210 C   0  0  0  0  0  0  0  0  0  0  0  0
   37.0740   29.4430   41.1450 C   0  0  2  0  0  0  0  0  0  0  0  0
   38.0890   29.1400   39.2310 H   0  0  0  0  0  0  0  0  0  0  0  0
   37.0570   31.2650   38.9880 H   0  0  0  0  0  0  0  0  0  0  0  0
   35.4340   30.7980   41.7740 H   0  0  0  0  0  0  0  0  0  0  0  0
   35.7180   30.6490   39.9870 H   0  0  0  0  0  0  0  0  0  0  0  0
   36.4500   28.5690   40.9050 H   0  0  0  0  0  0  0  0  0  0  0  0
   40.6320   32.5230   37.8600 C   0  0  0  0  0  0  0  0  0  0  0  0
   41.1670   33.5240   38.6860 C   0  0  0  0  0  0  0  0  0  0  0  0
   40.5750   33.7570   39.9380 C   0  0  0  0  0  0  0  0  0  0  0  0
   39.5000   32.9950   40.2960 N   0  0  0  0  0  0  0  0  0  0  0  0
   39.0060   32.0380   39.4790 C   0  0  0  0  0  0  0  0  0  0  0  0
   39.5630   31.7940   38.2650 N   0  0  0  0  0  0  0  0  0  0  0  0
   42.0120   34.0970   38.3630 H   0  0  0  0  0  0  0  0  0  0  0  0
   40.9510   34.5160   40.6090 H   0  0  0  0  0  0  0  0  0  0  0  0
   41.1900   32.2640   36.6100 O   0  0  0  0  0  0  0  0  0  0  0  0
   41.0230   32.9890   35.9080 H   0  0  0  0  0  0  0  0  0  0  0  0
   39.4150   29.6910   40.7440 O   0  0  0  0  0  0  0  0  0  0  0  0
   39.3150   30.0100   41.6760 H   0  0  0  0  0  0  0  0  0  0  0  0
   37.5910   29.4580   42.4290 O   0  0  0  0  0  0  0  0  0  0  0  0
   37.3250   28.3210   43.1600 C   0  0  0  0  0  0  0  0  0  0  0  0
   36.5050   28.4300   43.8650 H   0  0  0  0  0  0  0  0  0  0  0  0
   36.7830   27.6570   42.3220 H   0  0  0  0  0  0  0  0  0  0  0  0
   38.4940   27.4840   43.4990 C   0  0  0  0  0  0  0  0  0  0  0  0
   39.4720   27.9220   43.1940 H   0  0  0  0  0  0  0  0  0  0  0  0
   38.5450   27.4070   44.6070 H   0  0  0  0  0  0  0  0  0  0  0  0
   38.4690   26.1680   42.8970 N   0  0  0  0  0  0  0  0  0  0  0  0
   37.3100   25.9850   42.1860 C   0  0  0  0  0  3  0  0  0  0  0  0
   36.9750   24.8460   41.4780 C   0  0  0  0  0  0  0  0  0  0  0  0
   36.0590   24.7150   40.9230 H   0  0  0  0  0  0  0  0  0  0  0  0
   37.8560   23.7880   41.4690 C   0  0  0  0  0  0  0  0  0  0  0  0
   37.7150   22.6920   40.8890 O   0  0  0  0  0  0  0  0  0  0  0  0
   38.9780   23.9760   42.1640 N   0  0  0  0  0  0  0  0  0  0  0  0
   39.2500   25.0970   42.8270 C   0  0  0  0  0  0  0  0  0  0  0  0
   40.3130   25.2380   43.4710 O   0  0  0  0  0  0  0  0  0  0  0  0
   39.7130   23.2410   42.2240 H   0  0  0  0  0  0  0  0  0  0  0  0
  1  6  1  6  0  0  0
  1 21  1  0  0  0  0
  1  5  1  0  0  0  0
  2  7  1  6  0  0  0
  2  1  1  0  0  0  0
  2  3  1  0  0  0  0
  3  4  1  0  0  0  0
  4  5  1  0  0  0  0
  4  8  1  0  0  0  0
  5 10  1  6  0  0  0
  5 23  1  0  0  0  0
  9  4  1  0  0  0  0
 11 16  2  0  0  0  0
 11 12  1  0  0  0  0
 12 13  2  0  0  0  0
 13 14  1  0  0  0  0
 13 18  1  0  0  0  0
 15  2  1  0  0  0  0
 15 14  2  0  0  0  0
 16 15  1  0  0  0  0
 17 12  1  0  0  0  0
 19 11  1  0  0  0  0
 20 19  1  0  0  0  0
 21 22  1  0  0  0  0
 23 24  1  0  0  0  0
 24 27  1  0  0  0  0
 24 25  1  0  0  0  0
 26 24  1  0  0  0  0
 27 29  1  0  0  0  0
 28 27  1  0  0  0  0
 30 27  1  0  0  0  0
 31 30  1  0  0  0  0
 32 31  2  0  0  0  0
 33 32  1  0  0  0  0
 34 32  1  0  0  0  0
 34 36  1  0  0  0  0
 35 34  2  0  0  0  0
 36 39  1  0  0  0  0
 36 37  1  0  0  0  0
 37 30  1  0  0  0  0
 37 38  2  0  0  0  0
M  END
>  <minimizedAffinity>
-5.69167995

$$$$

 OpenBabel03242519483D

 39 41  0  0  1  0  0  0  0  0999 V2000
   37.8680   28.3040   42.4740 C   0  0  2  0  0  0  0  0  0  0  0  0
   37.0170   27.3570   41.7260 C   0  0  1  0  0  0  0  0  0  0  0  0
   36.6880   28.0820   40.4900 O   0  0  0  0  0  0  0  0  0  0  0  0
   36.1680   29.2280   41.1520 C   0  0  0  0  0  0  0  0  0  0  0  0
   37.4350   29.6620   41.9390 C   0  0  2  0  0  0  0  0  0  0  0  0
   37.7570   28.2230   43.5560 H   0  0  0  0  0  0  0  0  0  0  0  0
   36.0300   27.2330   42.2600 H   0  0  0  0  0  0  0  0  0  0  0  0
   35.7530   29.9790   40.5280 H   0  0  0  0  0  0  0  0  0  0  0  0
   35.4300   28.8780   41.9360 H   0  0  0  0  0  0  0  0  0  0  0  0
   37.1150   30.3850   42.7040 H   0  0  0  0  0  0  0  0  0  0  0  0
   38.8930   24.2830   42.2440 C   0  0  0  0  0  0  0  0  0  0  0  0
   38.8010   23.6250   41.0070 C   0  0  0  0  0  0  0  0  0  0  0  0
   38.0920   24.2410   39.9630 C   0  0  0  0  0  0  0  0  0  0  0  0
   37.5210   25.4580   40.2010 N   0  0  0  0  0  0  0  0  0  0  0  0
   37.6250   26.0670   41.4020 C   0  0  0  0  0  0  0  0  0  0  0  0
   38.3070   25.4920   42.4260 N   0  0  0  0  0  0  0  0  0  0  0  0
   39.2660   22.6710   40.8670 H   0  0  0  0  0  0  0  0  0  0  0  0
   37.9950   23.7730   38.9940 H   0  0  0  0  0  0  0  0  0  0  0  0
   39.5850   23.7030   43.3040 O   0  0  0  0  0  0  0  0  0  0  0  0
   39.1250   22.8920   43.7240 H   0  0  0  0  0  0  0  0  0  0  0  0
   39.2440   28.1100   42.0970 O   0  0  0  0  0  0  0  0  0  0  0  0
   39.3690   28.5070   41.1980 H   0  0  0  0  0  0  0  0  0  0  0  0
   38.3270   30.1550   41.0020 O   0  0  0  0  0  0  0  0  0  0  0  0
   38.7240   31.4540   41.2290 C   0  0  0  0  0  0  0  0  0  0  0  0
   38.7380   31.7370   42.2770 H   0  0  0  0  0  0  0  0  0  0  0  0
   39.9020   31.3500   41.0330 H   0  0  0  0  0  0  0  0  0  0  0  0
   38.3340   32.4370   40.1960 C   0  0  0  0  0  0  0  0  0  0  0  0
   37.4540   32.1300   39.5850 H   0  0  0  0  0  0  0  0  0  0  0  0
   38.0130   33.3660   40.7180 H   0  0  0  0  0  0  0  0  0  0  0  0
   39.3760   32.7260   39.2350 N   0  0  0  0  0  0  0  0  0  0  0  0
   40.2400   33.6700   39.7300 C   0  0  0  0  0  3  0  0  0  0  0  0
   41.3530   34.1610   39.0730 C   0  0  0  0  0  0  0  0  0  0  0  0
   42.0240   34.9040   39.4740 H   0  0  0  0  0  0  0  0  0  0  0  0
   41.6430   33.6850   37.8140 C   0  0  0  0  0  0  0  0  0  0  0  0
   42.5990   34.0160   37.0840 O   0  0  0  0  0  0  0  0  0  0  0  0
   40.7970   32.7690   37.3440 N   0  0  0  0  0  0  0  0  0  0  0  0
   39.7400   32.3310   38.0210 C   0  0  0  0  0  0  0  0  0  0  0  0
   38.9650   31.4710   37.5470 O   0  0  0  0  0  0  0  0  0  0  0  0
   40.9230   32.3420   36.4020 H   0  0  0  0  0  0  0  0  0  0  0  0
  1  6  1  1  0  0  0
  2  7  1  1  0  0  0
  2  1  1  0  0  0  0
  3  4  1  0  0  0  0
  3  2  1  0  0  0  0
  4  9  1  0  0  0  0
  4  5  1  0  0  0  0
  5  1  1  0  0  0  0
  5 10  1  1  0  0  0
  8  4  1  0  0  0  0
 11 16  1  0  0  0  0
 11 19  1  0  0  0  0
 12 11  2  0  0  0  0
 13 14  2  0  0  0  0
 13 12  1  0  0  0  0
 14 15  1  0  0  0  0
 15  2  1  0  0  0  0
 15 16  2  0  0  0  0
 17 12  1  0  0  0  0
 18 13  1  0  0  0  0
 19 20  1  0  0  0  0
 21  1  1  0  0  0  0
 22 21  1  0  0  0  0
 23 24  1  0  0  0  0
 23  5  1  0  0  0  0
 24 25  1  0  0  0  0
 26 24  1  0  0  0  0
 27 29  1  0  0  0  0
 27 24  1  0  0  0  0
 28 27  1  0  0  0  0
 30 31  1  0  0  0  0
 30 27  1  0  0  0  0
 32 33  1  0  0  0  0
 32 31  2  0  0  0  0
 34 32  1  0  0  0  0
 35 34  2  0  0  0  0
 36 34  1  0  0  0  0
 36 37  1  0  0  0  0
 37 30  1  0  0  0  0
 38 37  2  0  0  0  0
 39 36  1  0  0  0  0
M  END
>  <minimizedAffinity>
-5.49374199

$$$$

 OpenBabel03242519483D

 39 41  0  0  1  0  0  0  0  0999 V2000
   38.2380   31.3590   37.4430 C   0  0  2  0  0  0  0  0  0  0  0  0
   37.9950   29.9040   37.5160 C   0  0  1  0  0  0  0  0  0  0  0  0
   38.7030   29.4910   38.7360 O   0  0  0  0  0  0  0  0  0  0  0  0
   39.9550   30.0450   38.3480 C   0  0  0  0  0  0  0  0  0  0  0  0
   39.5400   31.5350   38.2120 C   0  0  2  0  0  0  0  0  0  0  0  0
   38.2980   31.7360   36.4220 H   0  0  0  0  0  0  0  0  0  0  0  0
   38.5420   29.3870   36.6740 H   0  0  0  0  0  0  0  0  0  0  0  0
   40.7680   29.8670   39.0050 H   0  0  0  0  0  0  0  0  0  0  0  0
   40.1820   29.6970   37.2950 H   0  0  0  0  0  0  0  0  0  0  0  0
   40.3410   32.0510   37.6630 H   0  0  0  0  0  0  0  0  0  0  0  0
   34.7590   29.1870   39.0160 C   0  0  0  0  0  0  0  0  0  0  0  0
   33.9670   28.7950   37.9250 C   0  0  0  0  0  0  0  0  0  0  0  0
   34.5430   28.7640   36.6450 C   0  0  0  0  0  0  0  0  0  0  0  0
   35.8560   29.1180   36.5200 N   0  0  0  0  0  0  0  0  0  0  0  0
   36.5940   29.4920   37.5880 C   0  0  0  0  0  0  0  0  0  0  0  0
   36.0580   29.5280   38.8350 N   0  0  0  0  0  0  0  0  0  0  0  0
   32.9410   28.5260   38.0720 H   0  0  0  0  0  0  0  0  0  0  0  0
   33.9730   28.4690   35.7760 H   0  0  0  0  0  0  0  0  0  0  0  0
   34.2220   29.2340   40.3000 O   0  0  0  0  0  0  0  0  0  0  0  0
   33.5570   29.9930   40.4590 H   0  0  0  0  0  0  0  0  0  0  0  0
   37.2090   32.0520   38.1720 O   0  0  0  0  0  0  0  0  0  0  0  0
   37.3940   31.9390   39.1390 H   0  0  0  0  0  0  0  0  0  0  0  0
   39.3200   31.9980   39.4980 O   0  0  0  0  0  0  0  0  0  0  0  0
   40.1360   31.4300   40.4520 C   0  0  0  0  0  0  0  0  0  0  0  0
   40.7310   30.5980   40.0860 H   0  0  0  0  0  0  0  0  0  0  0  0
   40.9880   32.2700   40.5260 H   0  0  0  0  0  0  0  0  0  0  0  0
   39.6050   31.4170   41.8300 C   0  0  0  0  0  0  0  0  0  0  0  0
   40.3790   31.2560   42.6160 H   0  0  0  0  0  0  0  0  0  0  0  0
   39.1850   32.4260   42.0410 H   0  0  0  0  0  0  0  0  0  0  0  0
   38.6110   30.3920   42.0690 N   0  0  0  0  0  0  0  0  0  0  0  0
   39.1640   29.3320   42.7420 C   0  0  0  0  0  3  0  0  0  0  0  0
   38.4880   28.1940   43.1380 C   0  0  0  0  0  0  0  0  0  0  0  0
   38.9360   27.3670   43.6670 H   0  0  0  0  0  0  0  0  0  0  0  0
   37.1480   28.0820   42.8450 C   0  0  0  0  0  0  0  0  0  0  0  0
   36.3890   27.1320   43.1240 O   0  0  0  0  0  0  0  0  0  0  0  0
   36.6210   29.1180   42.1900 N   0  0  0  0  0  0  0  0  0  0  0  0
   37.3200   30.1920   41.8340 C   0  0  0  0  0  0  0  0  0  0  0  0
   36.7930   31.1450   41.2190 O   0  0  0  0  0  0  0  0  0  0  0  0
   35.6150   29.1380   41.9190 H   0  0  0  0  0  0  0  0  0  0  0  0
  1  6  1  6  0  0  0
  1  2  1  0  0  0  0
  1 21  1  0  0  0  0
  1  5  1  0  0  0  0
  2  7  1  6  0  0  0
  2 15  1  0  0  0  0
  2  3  1  0  0  0  0
  4  3  1  0  0  0  0
  4  8  1  0  0  0  0
  5 10  1  6  0  0  0
  5  4  1  0  0  0  0
  5 23  1  0  0  0  0
  9  4  1  0  0  0  0
 11 19  1  0  0  0  0
 12 17  1  0  0  0  0
 12 11  2  0  0  0  0
 13 12  1  0  0  0  0
 14 13  2  0  0  0  0
 14 15  1  0  0  0  0
 15 16  2  0  0  0  0
 16 11  1  0  0  0  0
 18 13  1  0  0  0  0
 19 20  1  0  0  0  0
 21 22  1  0  0  0  0
 23 24  1  0  0  0  0
 24 26  1  0  0  0  0
 24 27  1  0  0  0  0
 25 24  1  0  0  0  0
 27 29  1  0  0  0  0
 27 30  1  0  0  0  0
 27 28  1  0  0  0  0
 30 31  1  0  0  0  0
 31 32  2  0  0  0  0
 32 33  1  0  0  0  0
 34 35  2  0  0  0  0
 34 32  1  0  0  0  0
 36 34  1  0  0  0  0
 37 30  1  0  0  0  0
 37 36  1  0  0  0  0
 38 37  2  0  0  0  0
 39 36  1  0  0  0  0
M  END
>  <minimizedAffinity>
-5.35059977

$$$$

 OpenBabel03242519483D

 39 41  0  0  1  0  0  0  0  0999 V2000
   36.5010   28.1560   41.8500 C   0  0  2  0  0  0  0  0  0  0  0  0
   37.5640   27.3970   41.1610 C   0  0  1  0  0  0  0  0  0  0  0  0
   38.2030   28.3970   40.2920 O   0  0  0  0  0  0  0  0  0  0  0  0
   36.9970   28.7920   39.6490 C   0  0  0  0  0  0  0  0  0  0  0  0
   36.2040   29.2960   40.8870 C   0  0  2  0  0  0  0  0  0  0  0  0
   35.6200   27.5550   42.0760 H   0  0  0  0  0  0  0  0  0  0  0  0
   37.0980   26.6530   40.4510 H   0  0  0  0  0  0  0  0  0  0  0  0
   37.0960   29.5000   38.8650 H   0  0  0  0  0  0  0  0  0  0  0  0
   36.4590   27.8580   39.3060 H   0  0  0  0  0  0  0  0  0  0  0  0
   35.1500   29.3920   40.5850 H   0  0  0  0  0  0  0  0  0  0  0  0
   40.5360   27.1340   43.2430 C   0  0  0  0  0  0  0  0  0  0  0  0
   40.5200   25.7980   43.6770 C   0  0  0  0  0  0  0  0  0  0  0  0
   39.4800   24.9590   43.2480 C   0  0  0  0  0  0  0  0  0  0  0  0
   38.5260   25.4820   42.4230 N   0  0  0  0  0  0  0  0  0  0  0  0
   38.5660   26.7720   42.0220 C   0  0  0  0  0  0  0  0  0  0  0  0
   39.5630   27.6020   42.4230 N   0  0  0  0  0  0  0  0  0  0  0  0
   41.2910   25.4320   44.3240 H   0  0  0  0  0  0  0  0  0  0  0  0
   39.4250   23.9240   43.5560 H   0  0  0  0  0  0  0  0  0  0  0  0
   41.5490   27.9980   43.6500 O   0  0  0  0  0  0  0  0  0  0  0  0
   41.5070   28.2760   44.6320 H   0  0  0  0  0  0  0  0  0  0  0  0
   37.0340   28.7360   43.0550 O   0  0  0  0  0  0  0  0  0  0  0  0
   37.5960   29.5090   42.7950 H   0  0  0  0  0  0  0  0  0  0  0  0
   36.8090   30.4770   41.2830 O   0  0  0  0  0  0  0  0  0  0  0  0
   36.6090   31.5330   40.4220 C   0  0  0  0  0  0  0  0  0  0  0  0
   36.0640   31.2710   39.5190 H   0  0  0  0  0  0  0  0  0  0  0  0
   35.7490   32.1240   41.0120 H   0  0  0  0  0  0  0  0  0  0  0  0
   37.6890   32.5410   40.3750 C   0  0  0  0  0  0  0  0  0  0  0  0
   37.3280   33.5900   40.2710 H   0  0  0  0  0  0  0  0  0  0  0  0
   38.2190   32.5130   41.3520 H   0  0  0  0  0  0  0  0  0  0  0  0
   38.6200   32.3550   39.2830 N   0  0  0  0  0  0  0  0  0  0  0  0
   39.9120   32.5110   39.7200 C   0  0  0  0  0  3  0  0  0  0  0  0
   41.0430   32.3870   38.9360 C   0  0  0  0  0  0  0  0  0  0  0  0
   42.0540   32.5130   39.2920 H   0  0  0  0  0  0  0  0  0  0  0  0
   40.8960   32.0830   37.6010 C   0  0  0  0  0  0  0  0  0  0  0  0
   41.8000   31.9360   36.7550 O   0  0  0  0  0  0  0  0  0  0  0  0
   39.6360   31.9340   37.1890 N   0  0  0  0  0  0  0  0  0  0  0  0
   38.5820   32.0640   37.9890 C   0  0  0  0  0  0  0  0  0  0  0  0
   37.4140   31.9180   37.5660 O   0  0  0  0  0  0  0  0  0  0  0  0
   39.4100   31.7030   36.1980 H   0  0  0  0  0  0  0  0  0  0  0  0
  1  6  1  1  0  0  0
  1 21  1  0  0  0  0
  2  7  1  6  0  0  0
  2  1  1  0  0  0  0
  2 15  1  0  0  0  0
  3  2  1  0  0  0  0
  4  3  1  0  0  0  0
  4  5  1  0  0  0  0
  5 10  1  6  0  0  0
  5 23  1  0  0  0  0
  5  1  1  0  0  0  0
  8  4  1  0  0  0  0
  9  4  1  0  0  0  0
 11 19  1  0  0  0  0
 11 12  1  0  0  0  0
 12 17  1  0  0  0  0
 13 18  1  0  0  0  0
 13 12  2  0  0  0  0
 14 13  1  0  0  0  0
 15 16  1  0  0  0  0
 15 14  2  0  0  0  0
 16 11  2  0  0  0  0
 19 20  1  0  0  0  0
 22 21  1  0  0  0  0
 24 26  1  0  0  0  0
 24 23  1  0  0  0  0
 25 24  1  0  0  0  0
 27 24  1  0  0  0  0
 27 29  1  0  0  0  0
 28 27  1  0  0  0  0
 30 31  1  0  0  0  0
 30 27  1  0  0  0  0
 32 33  1  0  0  0  0
 32 31  2  0  0  0  0
 34 32  1  0  0  0  0
 35 34  2  0  0  0  0
 36 34  1  0  0  0  0
 36 37  1  0  0  0  0
 37 30  1  0  0  0  0
 38 37  2  0  0  0  0
 39 36  1  0  0  0  0
M  END
>  <minimizedAffinity>
-5.33031511

$$$$

 OpenBabel03242519483D

 39 41  0  0  1  0  0  0  0  0999 V2000
   38.7950   28.3770   41.3190 C   0  0  2  0  0  0  0  0  0  0  0  0
   38.3670   27.2860   42.2170 C   0  0  1  0  0  0  0  0  0  0  0  0
   37.1520   27.8140   42.8560 O   0  0  0  0  0  0  0  0  0  0  0  0
   37.7680   29.0050   43.3300 C   0  0  0  0  0  0  0  0  0  0  0  0
   38.2070   29.6190   41.9710 C   0  0  2  0  0  0  0  0  0  0  0  0
   39.8760   28.4370   41.1980 H   0  0  0  0  0  0  0  0  0  0  0  0
   39.1120   27.1750   43.0580 H   0  0  0  0  0  0  0  0  0  0  0  0
   37.1630   29.6370   43.9290 H   0  0  0  0  0  0  0  0  0  0  0  0
   38.7280   28.7210   43.8560 H   0  0  0  0  0  0  0  0  0  0  0  0
   38.9290   30.4190   42.1900 H   0  0  0  0  0  0  0  0  0  0  0  0
   38.9130   24.3490   40.1400 C   0  0  0  0  0  0  0  0  0  0  0  0
   37.7420   23.5950   40.3170 C   0  0  0  0  0  0  0  0  0  0  0  0
   36.7330   24.0950   41.1560 C   0  0  0  0  0  0  0  0  0  0  0  0
   36.9390   25.3000   41.7650 N   0  0  0  0  0  0  0  0  0  0  0  0
   38.0770   26.0040   41.5770 C   0  0  0  0  0  0  0  0  0  0  0  0
   39.0650   25.5400   40.7690 N   0  0  0  0  0  0  0  0  0  0  0  0
   37.6250   22.6540   39.8180 H   0  0  0  0  0  0  0  0  0  0  0  0
   35.8150   23.5510   41.3220 H   0  0  0  0  0  0  0  0  0  0  0  0
   39.9370   23.8840   39.3200 O   0  0  0  0  0  0  0  0  0  0  0  0
   40.4590   23.0880   39.6930 H   0  0  0  0  0  0  0  0  0  0  0  0
   38.1560   28.2180   40.0380 O   0  0  0  0  0  0  0  0  0  0  0  0
   37.2100   28.4960   40.1360 H   0  0  0  0  0  0  0  0  0  0  0  0
   37.0470   30.0350   41.3390 O   0  0  0  0  0  0  0  0  0  0  0  0
   37.0950   31.3250   40.8590 C   0  0  0  0  0  0  0  0  0  0  0  0
   36.7400   32.0720   41.5630 H   0  0  0  0  0  0  0  0  0  0  0  0
   38.2750   31.5290   40.9250 H   0  0  0  0  0  0  0  0  0  0  0  0
   36.8430   31.4840   39.4110 C   0  0  0  0  0  0  0  0  0  0  0  0
   36.4070   30.5830   38.9230 H   0  0  0  0  0  0  0  0  0  0  0  0
   36.0770   32.2800   39.2870 H   0  0  0  0  0  0  0  0  0  0  0  0
   38.0280   31.7920   38.6390 N   0  0  0  0  0  0  0  0  0  0  0  0
   39.0440   32.2090   39.4600 C   0  0  0  0  0  3  0  0  0  0  0  0
   40.3130   32.5680   39.0470 C   0  0  0  0  0  0  0  0  0  0  0  0
   41.1040   32.8960   39.7040 H   0  0  0  0  0  0  0  0  0  0  0  0
   40.6130   32.5150   37.7040 C   0  0  0  0  0  0  0  0  0  0  0  0
   41.6990   32.8020   37.1600 O   0  0  0  0  0  0  0  0  0  0  0  0
   39.6180   32.1080   36.9150 N   0  0  0  0  0  0  0  0  0  0  0  0
   38.4130   31.7740   37.3690 C   0  0  0  0  0  0  0  0  0  0  0  0
   37.5020   31.3980   36.5990 O   0  0  0  0  0  0  0  0  0  0  0  0
   39.7360   32.0310   35.8830 H   0  0  0  0  0  0  0  0  0  0  0  0
  1  6  1  6  0  0  0
  1  5  1  0  0  0  0
  1  2  1  0  0  0  0
  2  3  1  0  0  0  0
  2  7  1  1  0  0  0
  3  4  1  0  0  0  0
  4  9  1  0  0  0  0
  4  8  1  0  0  0  0
  5 10  1  1  0  0  0
  5  4  1  0  0  0  0
 11 12  2  0  0  0  0
 11 16  1  0  0  0  0
 12 13  1  0  0  0  0
 13 18  1  0  0  0  0
 13 14  2  0  0  0  0
 15 14  1  0  0  0  0
 15  2  1  0  0  0  0
 16 15  2  0  0  0  0
 17 12  1  0  0  0  0
 19 20  1  0  0  0  0
 19 11  1  0  0  0  0
 21 22  1  0  0  0  0
 21  1  1  0  0  0  0
 23  5  1  0  0  0  0
 24 26  1  0  0  0  0
 24 23  1  0  0  0  0
 24 25  1  0  0  0  0
 27 24  1  0  0  0  0
 28 27  1  0  0  0  0
 29 27  1  0  0  0  0
 30 27  1  0  0  0  0
 30 31  1  0  0  0  0
 32 31  2  0  0  0  0
 32 33  1  0  0  0  0
 34 32  1  0  0  0  0
 35 34  2  0  0  0  0
 36 37  1  0  0  0  0
 36 34  1  0  0  0  0
 37 30  1  0  0  0  0
 38 37  2  0  0  0  0
 39 36  1  0  0  0  0
M  END
>  <minimizedAffinity>
-5.26366234

$$$$

 OpenBabel03242519483D

 39 41  0  0  1  0  0  0  0  0999 V2000
   41.6310   29.9650   41.3630 C   0  0  2  0  0  0  0  0  0  0  0  0
   40.7850   30.2160   40.1790 C   0  0  1  0  0  0  0  0  0  0  0  0
   39.8670   29.0680   40.1540 O   0  0  0  0  0  0  0  0  0  0  0  0
   40.8950   28.0850   40.1730 C   0  0  0  0  0  0  0  0  0  0  0  0
   41.5710   28.4530   41.5220 C   0  0  2  0  0  0  0  0  0  0  0  0
   42.6500   30.3370   41.2520 H   0  0  0  0  0  0  0  0  0  0  0  0
   41.4060   30.1110   39.2420 H   0  0  0  0  0  0  0  0  0  0  0  0
   40.5780   27.0760   40.0940 H   0  0  0  0  0  0  0  0  0  0  0  0
   41.6520   28.3510   39.3740 H   0  0  0  0  0  0  0  0  0  0  0  0
   42.5470   27.9470   41.5500 H   0  0  0  0  0  0  0  0  0  0  0  0
   37.8890   32.4020   40.4410 C   0  0  0  0  0  0  0  0  0  0  0  0
   38.4280   33.6890   40.2810 C   0  0  0  0  0  0  0  0  0  0  0  0
   39.8100   33.8230   40.0700 C   0  0  0  0  0  0  0  0  0  0  0  0
   40.5700   32.6890   40.0300 N   0  0  0  0  0  0  0  0  0  0  0  0
   40.0230   31.4640   40.1880 C   0  0  0  0  0  0  0  0  0  0  0  0
   38.6900   31.3100   40.3910 N   0  0  0  0  0  0  0  0  0  0  0  0
   37.7920   34.5490   40.3200 H   0  0  0  0  0  0  0  0  0  0  0  0
   40.2700   34.7920   39.9420 H   0  0  0  0  0  0  0  0  0  0  0  0
   36.5240   32.2290   40.6550 O   0  0  0  0  0  0  0  0  0  0  0  0
   36.1930   32.5250   41.5760 H   0  0  0  0  0  0  0  0  0  0  0  0
   41.0100   30.5470   42.5240 O   0  0  0  0  0  0  0  0  0  0  0  0
   40.2500   29.9660   42.7840 H   0  0  0  0  0  0  0  0  0  0  0  0
   40.6860   28.0740   42.5180 O   0  0  0  0  0  0  0  0  0  0  0  0
   40.2180   26.7840   42.3980 C   0  0  0  0  0  0  0  0  0  0  0  0
   40.6110   26.2490   41.5380 H   0  0  0  0  0  0  0  0  0  0  0  0
   40.8440   26.2520   43.2700 H   0  0  0  0  0  0  0  0  0  0  0  0
   38.8270   26.5590   42.8450 C   0  0  0  0  0  0  0  0  0  0  0  0
   38.4240   25.5520   42.5890 H   0  0  0  0  0  0  0  0  0  0  0  0
   38.8190   26.6000   43.9560 H   0  0  0  0  0  0  0  0  0  0  0  0
   37.8730   27.4960   42.2920 N   0  0  0  0  0  0  0  0  0  0  0  0
   37.3290   27.0040   41.1330 C   0  0  0  0  0  3  0  0  0  0  0  0
   36.3760   27.6410   40.3610 C   0  0  0  0  0  0  0  0  0  0  0  0
   35.9580   27.2420   39.4500 H   0  0  0  0  0  0  0  0  0  0  0  0
   35.9150   28.8750   40.7600 C   0  0  0  0  0  0  0  0  0  0  0  0
   35.0640   29.5850   40.1880 O   0  0  0  0  0  0  0  0  0  0  0  0
   36.4500   29.3430   41.8880 N   0  0  0  0  0  0  0  0  0  0  0  0
   37.3660   28.6850   42.5930 C   0  0  0  0  0  0  0  0  0  0  0  0
   37.8470   29.1570   43.6470 O   0  0  0  0  0  0  0  0  0  0  0  0
   36.1720   30.2670   42.2820 H   0  0  0  0  0  0  0  0  0  0  0  0
  1  6  1  6  0  0  0
  1  5  1  0  0  0  0
  1 21  1  0  0  0  0
  2  7  1  6  0  0  0
  2 15  1  0  0  0  0
  2  1  1  0  0  0  0
  3  4  1  0  0  0  0
  3  2  1  0  0  0  0
  4  5  1  0  0  0  0
  5 10  1  1  0  0  0
  5 23  1  0  0  0  0
  8  4  1  0  0  0  0
  9  4  1  0  0  0  0
 11 19  1  0  0  0  0
 12 17  1  0  0  0  0
 12 11  2  0  0  0  0
 13 12  1  0  0  0  0
 14 13  2  0  0  0  0
 14 15  1  0  0  0  0
 15 16  2  0  0  0  0
 16 11  1  0  0  0  0
 18 13  1  0  0  0  0
 19 20  1  0  0  0  0
 21 22  1  0  0  0  0
 24 23  1  0  0  0  0
 24 27  1  0  0  0  0
 24 26  1  0  0  0  0
 25 24  1  0  0  0  0
 27 29  1  0  0  0  0
 28 27  1  0  0  0  0
 30 37  1  0  0  0  0
 30 27  1  0  0  0  0
 31 30  1  0  0  0  0
 32 34  1  0  0  0  0
 32 31  2  0  0  0  0
 33 32  1  0  0  0  0
 34 36  1  0  0  0  0
 35 34  2  0  0  0  0
 36 39  1  0  0  0  0
 36 37  1  0  0  0  0
 37 38  2  0  0  0  0
M  END
>  <minimizedAffinity>
-5.15493202

$$$$

 OpenBabel03242519483D

 39 41  0  0  1  0  0  0  0  0999 V2000
   36.9040   28.4100   41.3860 C   0  0  2  0  0  0  0  0  0  0  0  0
   37.3420   29.6690   42.0200 C   0  0  1  0  0  0  0  0  0  0  0  0
   38.3210   29.2340   43.0260 O   0  0  0  0  0  0  0  0  0  0  0  0
   37.4440   28.3130   43.6640 C   0  0  0  0  0  0  0  0  0  0  0  0
   37.1560   27.3680   42.4660 C   0  0  2  0  0  0  0  0  0  0  0  0
   35.8660   28.4310   41.0550 H   0  0  0  0  0  0  0  0  0  0  0  0
   36.4890   30.1070   42.6170 H   0  0  0  0  0  0  0  0  0  0  0  0
   37.8220   27.8320   44.5300 H   0  0  0  0  0  0  0  0  0  0  0  0
   36.4660   28.8440   43.8720 H   0  0  0  0  0  0  0  0  0  0  0  0
   36.2840   26.7520   42.7340 H   0  0  0  0  0  0  0  0  0  0  0  0
   37.6050   32.6960   40.0180 C   0  0  0  0  0  0  0  0  0  0  0  0
   38.9120   32.6440   39.5080 C   0  0  0  0  0  0  0  0  0  0  0  0
   39.7280   31.5510   39.8430 C   0  0  0  0  0  0  0  0  0  0  0  0
   39.2080   30.5830   40.6540 N   0  0  0  0  0  0  0  0  0  0  0  0
   37.9460   30.6590   41.1300 C   0  0  0  0  0  0  0  0  0  0  0  0
   37.1390   31.7060   40.8190 N   0  0  0  0  0  0  0  0  0  0  0  0
   39.2760   33.4270   38.8750 H   0  0  0  0  0  0  0  0  0  0  0  0
   40.7400   31.4680   39.4750 H   0  0  0  0  0  0  0  0  0  0  0  0
   36.7670   33.7650   39.7110 O   0  0  0  0  0  0  0  0  0  0  0  0
   37.0190   34.6490   40.1580 H   0  0  0  0  0  0  0  0  0  0  0  0
   37.7750   28.1050   40.2800 O   0  0  0  0  0  0  0  0  0  0  0  0
   38.6310   27.7710   40.6530 H   0  0  0  0  0  0  0  0  0  0  0  0
   38.3240   26.6600   42.2370 O   0  0  0  0  0  0  0  0  0  0  0  0
   38.2310   25.3120   42.5060 C   0  0  0  0  0  0  0  0  0  0  0  0
   39.1860   24.7940   42.5080 H   0  0  0  0  0  0  0  0  0  0  0  0
   38.0190   25.3490   43.6860 H   0  0  0  0  0  0  0  0  0  0  0  0
   37.0170   24.6360   42.0030 C   0  0  0  0  0  0  0  0  0  0  0  0
   36.7060   23.7510   42.6040 H   0  0  0  0  0  0  0  0  0  0  0  0
   36.1710   25.3540   42.0870 H   0  0  0  0  0  0  0  0  0  0  0  0
   37.1360   24.1460   40.6470 N   0  0  0  0  0  0  0  0  0  0  0  0
   37.7490   22.9180   40.6310 C   0  0  0  0  0  3  0  0  0  0  0  0
   38.0060   22.1650   39.5010 C   0  0  0  0  0  0  0  0  0  0  0  0
   38.4900   21.2010   39.5030 H   0  0  0  0  0  0  0  0  0  0  0  0
   37.6290   22.6610   38.2740 C   0  0  0  0  0  0  0  0  0  0  0  0
   37.7830   22.1200   37.1600 O   0  0  0  0  0  0  0  0  0  0  0  0
   37.0340   23.8540   38.3010 N   0  0  0  0  0  0  0  0  0  0  0  0
   36.8120   24.5360   39.4210 C   0  0  0  0  0  0  0  0  0  0  0  0
   36.2520   25.6550   39.4090 O   0  0  0  0  0  0  0  0  0  0  0  0
   36.7080   24.3220   37.4290 H   0  0  0  0  0  0  0  0  0  0  0  0
  1  6  1  6  0  0  0
  1  2  1  0  0  0  0
  1  5  1  0  0  0  0
  2  7  1  1  0  0  0
  2  3  1  0  0  0  0
  3  4  1  0  0  0  0
  4  9  1  0  0  0  0
  4  8  1  0  0  0  0
  5 10  1  1  0  0  0
  5  4  1  0  0  0  0
 11 16  1  0  0  0  0
 12 13  1  0  0  0  0
 12 11  2  0  0  0  0
 13 14  2  0  0  0  0
 14 15  1  0  0  0  0
 15  2  1  0  0  0  0
 16 15  2  0  0  0  0
 17 12  1  0  0  0  0
 18 13  1  0  0  0  0
 19 11  1  0  0  0  0
 19 20  1  0  0  0  0
 21 22  1  0  0  0  0
 21  1  1  0  0  0  0
 23  5  1  0  0  0  0
 23 24  1  0  0  0  0
 24 25  1  0  0  0  0
 24 26  1  0  0  0  0
 27 29  1  0  0  0  0
 27 24  1  0  0  0  0
 27 28  1  0  0  0  0
 30 27  1  0  0  0  0
 31 30  1  0  0  0  0
 32 33  1  0  0  0  0
 32 31  2  0  0  0  0
 34 36  1  0  0  0  0
 34 32  1  0  0  0  0
 35 34  2  0  0  0  0
 36 37  1  0  0  0  0
 37 30  1  0  0  0  0
 38 37  2  0  0  0  0
 39 36  1  0  0  0  0
M  END
>  <minimizedAffinity>
-5.14291477

$$$$

 OpenBabel03242519483D

 39 41  0  0  1  0  0  0  0  0999 V2000
   39.2540   27.7800   42.4010 C   0  0  2  0  0  0  0  0  0  0  0  0
   37.9270   27.1650   42.6000 C   0  0  1  0  0  0  0  0  0  0  0  0
   36.9860   28.2240   42.2070 O   0  0  0  0  0  0  0  0  0  0  0  0
   37.5230   29.2020   43.0900 C   0  0  0  0  0  0  0  0  0  0  0  0
   38.9740   29.2700   42.5390 C   0  0  2  0  0  0  0  0  0  0  0  0
   40.0050   27.4260   43.1080 H   0  0  0  0  0  0  0  0  0  0  0  0
   37.7440   27.0100   43.7040 H   0  0  0  0  0  0  0  0  0  0  0  0
   37.0140   30.1320   43.1210 H   0  0  0  0  0  0  0  0  0  0  0  0
   37.6110   28.7370   44.1190 H   0  0  0  0  0  0  0  0  0  0  0  0
   39.5860   29.7930   43.2890 H   0  0  0  0  0  0  0  0  0  0  0  0
   36.6060   25.0860   39.9230 C   0  0  0  0  0  0  0  0  0  0  0  0
   37.0870   23.8030   40.2310 C   0  0  0  0  0  0  0  0  0  0  0  0
   37.8730   23.6320   41.3810 C   0  0  0  0  0  0  0  0  0  0  0  0
   38.1360   24.7280   42.1520 N   0  0  0  0  0  0  0  0  0  0  0  0
   37.6610   25.9510   41.8310 C   0  0  0  0  0  0  0  0  0  0  0  0
   36.8970   26.1400   40.7240 N   0  0  0  0  0  0  0  0  0  0  0  0
   36.8540   22.9730   39.5960 H   0  0  0  0  0  0  0  0  0  0  0  0
   38.2650   22.6640   41.6590 H   0  0  0  0  0  0  0  0  0  0  0  0
   35.8260   25.2960   38.7890 O   0  0  0  0  0  0  0  0  0  0  0  0
   36.3310   25.2290   37.9030 H   0  0  0  0  0  0  0  0  0  0  0  0
   39.6900   27.5470   41.0500 O   0  0  0  0  0  0  0  0  0  0  0  0
   39.1770   28.1530   40.4570 H   0  0  0  0  0  0  0  0  0  0  0  0
   38.8940   29.8960   41.3070 O   0  0  0  0  0  0  0  0  0  0  0  0
   38.5440   31.2270   41.3700 C   0  0  0  0  0  0  0  0  0  0  0  0
   38.1620   31.5390   42.3380 H   0  0  0  0  0  0  0  0  0  0  0  0
   39.6320   31.7280   41.4110 H   0  0  0  0  0  0  0  0  0  0  0  0
   37.9920   31.8070   40.1280 C   0  0  0  0  0  0  0  0  0  0  0  0
   37.2630   31.1480   39.6020 H   0  0  0  0  0  0  0  0  0  0  0  0
   37.4120   32.7140   40.4070 H   0  0  0  0  0  0  0  0  0  0  0  0
   38.9930   32.1280   39.1330 N   0  0  0  0  0  0  0  0  0  0  0  0
   40.0140   32.8530   39.6940 C   0  0  0  0  0  3  0  0  0  0  0  0
   41.1340   33.3100   39.0250 C   0  0  0  0  0  0  0  0  0  0  0  0
   41.9300   33.8800   39.4780 H   0  0  0  0  0  0  0  0  0  0  0  0
   41.2650   33.0310   37.6830 C   0  0  0  0  0  0  0  0  0  0  0  0
   42.2020   33.3630   36.9300 O   0  0  0  0  0  0  0  0  0  0  0  0
   40.2670   32.3260   37.1490 N   0  0  0  0  0  0  0  0  0  0  0  0
   39.2100   31.9110   37.8420 C   0  0  0  0  0  0  0  0  0  0  0  0
   38.2910   31.2520   37.3080 O   0  0  0  0  0  0  0  0  0  0  0  0
   40.2640   32.0590   36.1420 H   0  0  0  0  0  0  0  0  0  0  0  0
  1  5  1  0  0  0  0
  1  2  1  0  0  0  0
  1  6  1  1  0  0  0
  2  7  1  1  0  0  0
  3  2  1  0  0  0  0
  3  4  1  0  0  0  0
  4  8  1  0  0  0  0
  4  9  1  0  0  0  0
  5  4  1  0  0  0  0
  5 10  1  1  0  0  0
 11 12  2  0  0  0  0
 11 16  1  0  0  0  0
 12 13  1  0  0  0  0
 13 18  1  0  0  0  0
 13 14  2  0  0  0  0
 15 14  1  0  0  0  0
 15  2  1  0  0  0  0
 16 15  2  0  0  0  0
 17 12  1  0  0  0  0
 19 11  1  0  0  0  0
 20 19  1  0  0  0  0
 21  1  1  0  0  0  0
 22 21  1  0  0  0  0
 23 24  1  0  0  0  0
 23  5  1  0  0  0  0
 24 26  1  0  0  0  0
 24 25  1  0  0  0  0
 27 29  1  0  0  0  0
 27 24  1  0  0  0  0
 28 27  1  0  0  0  0
 30 31  1  0  0  0  0
 30 27  1  0  0  0  0
 32 33  1  0  0  0  0
 32 31  2  0  0  0  0
 34 32  1  0  0  0  0
 35 34  2  0  0  0  0
 36 34  1  0  0  0  0
 36 37  1  0  0  0  0
 37 30  1  0  0  0  0
 38 37  2  0  0  0  0
 39 36  1  0  0  0  0
M  END
>  <minimizedAffinity>
-5.10355282

$$$$

 OpenBabel03242519483D

 39 41  0  0  1  0  0  0  0  0999 V2000
   39.1200   31.9310   38.9720 C   0  0  2  0  0  0  0  0  0  0  0  0
   39.7530   33.2310   39.2700 C   0  0  1  0  0  0  0  0  0  0  0  0
   38.9930   33.7350   40.4230 O   0  0  0  0  0  0  0  0  0  0  0  0
   37.7220   33.6230   39.7930 C   0  0  0  0  0  0  0  0  0  0  0  0
   37.7100   32.0940   39.5210 C   0  0  2  0  0  0  0  0  0  0  0  0
   39.1320   31.6780   37.9110 H   0  0  0  0  0  0  0  0  0  0  0  0
   39.5310   33.9590   38.4360 H   0  0  0  0  0  0  0  0  0  0  0  0
   36.8930   33.9830   40.3480 H   0  0  0  0  0  0  0  0  0  0  0  0
   37.7890   34.1110   38.7740 H   0  0  0  0  0  0  0  0  0  0  0  0
   36.9020   31.8940   38.8010 H   0  0  0  0  0  0  0  0  0  0  0  0
   42.7630   33.4320   41.3040 C   0  0  0  0  0  0  0  0  0  0  0  0
   43.7940   33.1240   40.4020 C   0  0  0  0  0  0  0  0  0  0  0  0
   43.4660   32.8480   39.0650 C   0  0  0  0  0  0  0  0  0  0  0  0
   42.1500   32.8930   38.7010 N   0  0  0  0  0  0  0  0  0  0  0  0
   41.1790   33.1910   39.5910 C   0  0  0  0  0  0  0  0  0  0  0  0
   41.4730   33.4620   40.8890 N   0  0  0  0  0  0  0  0  0  0  0  0
   44.8120   33.1010   40.7340 H   0  0  0  0  0  0  0  0  0  0  0  0
   44.2250   32.6070   38.3350 H   0  0  0  0  0  0  0  0  0  0  0  0
   43.0480   33.7070   42.6380 O   0  0  0  0  0  0  0  0  0  0  0  0
   43.3430   32.8980   43.1890 H   0  0  0  0  0  0  0  0  0  0  0  0
   39.7660   30.8980   39.7400 O   0  0  0  0  0  0  0  0  0  0  0  0
   39.4560   30.9800   40.6770 H   0  0  0  0  0  0  0  0  0  0  0  0
   37.5620   31.4790   40.7530 O   0  0  0  0  0  0  0  0  0  0  0  0
   36.3280   30.9010   40.9520 C   0  0  0  0  0  0  0  0  0  0  0  0
   35.8970   31.1030   41.9290 H   0  0  0  0  0  0  0  0  0  0  0  0
   35.6480   31.6220   40.2780 H   0  0  0  0  0  0  0  0  0  0  0  0
   36.1170   29.5910   40.3000 C   0  0  0  0  0  0  0  0  0  0  0  0
   35.0800   29.1940   40.4010 H   0  0  0  0  0  0  0  0  0  0  0  0
   36.2680   29.7290   39.2070 H   0  0  0  0  0  0  0  0  0  0  0  0
   36.9720   28.5380   40.8050 N   0  0  0  0  0  0  0  0  0  0  0  0
   36.5130   28.0830   42.0150 C   0  0  0  0  0  3  0  0  0  0  0  0
   37.0890   27.0740   42.7630 C   0  0  0  0  0  0  0  0  0  0  0  0
   36.7180   26.7260   43.7150 H   0  0  0  0  0  0  0  0  0  0  0  0
   38.2200   26.4540   42.2810 C   0  0  0  0  0  0  0  0  0  0  0  0
   38.8650   25.5330   42.8200 O   0  0  0  0  0  0  0  0  0  0  0  0
   38.6560   26.9040   41.1040 N   0  0  0  0  0  0  0  0  0  0  0  0
   38.0600   27.8810   40.4260 C   0  0  0  0  0  0  0  0  0  0  0  0
   38.4990   28.2790   39.3240 O   0  0  0  0  0  0  0  0  0  0  0  0
   39.5040   26.5050   40.6470 H   0  0  0  0  0  0  0  0  0  0  0  0
  1  6  1  6  0  0  0
  1  2  1  0  0  0  0
  1  5  1  0  0  0  0
  1 21  1  0  0  0  0
  2  7  1  6  0  0  0
  2 15  1  0  0  0  0
  2  3  1  0  0  0  0
  4  8  1  0  0  0  0
  4  3  1  0  0  0  0
  5 10  1  6  0  0  0
  5  4  1  0  0  0  0
  5 23  1  0  0  0  0
  9  4  1  0  0  0  0
 11 19  1  0  0  0  0
 12 17  1  0  0  0  0
 12 11  2  0  0  0  0
 13 12  1  0  0  0  0
 14 13  2  0  0  0  0
 14 15  1  0  0  0  0
 15 16  2  0  0  0  0
 16 11  1  0  0  0  0
 18 13  1  0  0  0  0
 19 20  1  0  0  0  0
 21 22  1  0  0  0  0
 23 24  1  0  0  0  0
 24 25  1  0  0  0  0
 26 24  1  0  0  0  0
 27 28  1  0  0  0  0
 27 30  1  0  0  0  0
 27 24  1  0  0  0  0
 29 27  1  0  0  0  0
 30 31  1  0  0  0  0
 31 32  2  0  0  0  0
 32 33  1  0  0  0  0
 34 32  1  0  0  0  0
 34 35  2  0  0  0  0
 36 34  1  0  0  0  0
 37 30  1  0  0  0  0
 37 36  1  0  0  0  0
 38 37  2  0  0  0  0
 39 36  1  0  0  0  0
M  END
>  <minimizedAffinity>
-5.09247112

$$$$
