
 OpenBabel03242521443D

 39 41  0  0  1  0  0  0  0  0999 V2000
   45.6030   35.4660   43.7410 C   0  0  0  0  0  0  0  0  0  0  0  0
   46.6490   34.6810   43.2640 C   0  0  0  0  0  0  0  0  0  0  0  0
   47.0780   33.5730   43.9850 C   0  0  0  0  0  0  0  0  0  0  0  0
   46.4420   33.3180   45.1290 N   0  0  0  0  0  0  0  0  0  0  0  0
   45.4240   34.0790   45.5930 C   0  0  0  0  0  0  0  0  0  0  0  0
   44.9960   35.1540   44.9100 N   0  0  0  0  0  0  0  0  0  0  0  0
   47.0780   34.9830   42.3410 H   0  0  0  0  0  0  0  0  0  0  0  0
   44.9140   33.8630   46.5220 H   0  0  0  0  0  0  0  0  0  0  0  0
   49.1230   33.5780   42.5810 C   0  0  2  0  0  0  0  0  0  0  0  0
   48.1730   32.8030   43.4240 C   0  0  2  0  0  0  0  0  0  0  0  0
   47.7670   31.7850   42.5120 O   0  0  0  0  0  0  0  0  0  0  0  0
   48.9880   31.3060   42.0700 C   0  0  0  0  0  0  0  0  0  0  0  0
   50.0000   32.4060   42.1010 C   0  0  1  0  0  0  0  0  0  0  0  0
   48.6460   33.9470   41.6330 H   0  0  0  0  0  0  0  0  0  0  0  0
   48.7380   32.3160   44.2540 H   0  0  0  0  0  0  0  0  0  0  0  0
   49.2960   30.4230   42.6860 H   0  0  0  0  0  0  0  0  0  0  0  0
   48.8580   30.9880   41.0120 H   0  0  0  0  0  0  0  0  0  0  0  0
   50.8300   32.2200   42.7910 H   0  0  0  0  0  0  0  0  0  0  0  0
   49.8130   34.5510   43.2390 O   0  0  0  0  0  0  0  0  0  0  0  0
   50.6040   34.7860   42.6740 H   0  0  0  0  0  0  0  0  0  0  0  0
   50.5430   32.7300   40.8610 O   0  0  0  0  0  0  0  0  0  0  0  0
   49.9220   32.6850   40.1150 H   0  0  0  0  0  0  0  0  0  0  0  0
   45.1600   36.6620   42.9610 C   0  0  0  0  0  0  0  0  0  0  0  0
   46.0130   36.9970   42.3200 H   0  0  0  0  0  0  0  0  0  0  0  0
   44.2480   36.4420   42.3600 H   0  0  0  0  0  0  0  0  0  0  0  0
   45.2760   39.0870   43.8290 C   0  0  0  0  0  0  0  0  0  0  0  0
   45.9070   39.3990   42.7540 O   0  0  0  0  0  0  0  0  0  0  0  0
   44.8970   37.7300   43.8830 N   0  0  0  0  0  0  0  0  0  0  0  0
   44.3370   37.4180   44.6990 H   0  0  0  0  0  0  0  0  0  0  0  0
   44.5440   43.4190   44.8040 H   0  0  0  0  0  0  0  0  0  0  0  0
   44.6520   42.4630   45.1830 N   0  0  0  0  0  0  0  0  0  0  0  0
   44.8800   41.4290   44.3640 C   0  0  0  0  0  3  0  0  0  0  0  0
   45.0340   40.1160   44.8210 C   0  0  0  0  0  0  0  0  0  0  0  0
   44.9230   40.0200   46.1880 C   0  0  0  0  0  0  0  0  0  0  0  0
   45.0510   38.8670   46.6620 O   0  0  0  0  0  0  0  0  0  0  0  0
   44.6950   41.0380   47.0300 N   0  0  0  0  0  0  0  0  0  0  0  0
   44.5590   42.2680   46.5080 C   0  0  0  0  0  0  0  0  0  0  0  0
   44.3480   43.1970   47.3080 O   0  0  0  0  0  0  0  0  0  0  0  0
   44.6320   40.8310   48.0500 H   0  0  0  0  0  0  0  0  0  0  0  0
  1  6  1  0  0  0  0
  2  1  2  0  0  0  0
  2  3  1  0  0  0  0
  3  4  2  0  0  0  0
  4  5  1  0  0  0  0
  5  8  1  0  0  0  0
  6  5  2  0  0  0  0
  7  2  1  0  0  0  0
  9 14  1  6  0  0  0
  9 19  1  0  0  0  0
  9 10  1  0  0  0  0
 10  3  1  0  0  0  0
 10 15  1  1  0  0  0
 11 10  1  0  0  0  0
 12 13  1  0  0  0  0
 12 11  1  0  0  0  0
 12 16  1  0  0  0  0
 13  9  1  0  0  0  0
 13 18  1  1  0  0  0
 17 12  1  0  0  0  0
 20 19  1  0  0  0  0
 21 13  1  0  0  0  0
 22 21  1  0  0  0  0
 23  1  1  0  0  0  0
 23 28  1  0  0  0  0
 24 23  1  0  0  0  0
 25 23  1  0  0  0  0
 26 28  1  0  0  0  0
 26 33  1  0  0  0  0
 27 26  2  0  0  0  0
 28 29  1  0  0  0  0
 30 31  1  0  0  0  0
 31 37  1  0  0  0  0
 32 33  2  0  0  0  0
 32 31  1  0  0  0  0
 33 34  1  0  0  0  0
 34 35  2  0  0  0  0
 34 36  1  0  0  0  0
 36 39  1  0  0  0  0
 37 36  1  0  0  0  0
 37 38  2  0  0  0  0
M  END
>  <minimizedAffinity>
-3.30337048

>  <minimizedRMSD>
0.956195652

$$$$
