
 OpenBabel03242521403D

 22 23  0  0  0  0  0  0  0  0999 V2000
   37.3290   26.8240   41.5420 C   0  0  0  0  0  0  0  0  0  0  0  0
   37.5170   28.0920   40.9630 C   0  0  0  0  0  0  0  0  0  0  0  0
   37.5900   29.1960   41.8390 C   0  0  0  0  0  0  0  0  0  0  0  0
   37.4760   28.9740   43.1790 N   0  0  0  0  0  0  0  0  0  0  0  0
   37.2950   27.7280   43.6760 C   0  0  0  0  0  0  0  0  0  0  0  0
   37.2220   26.6540   42.8600 N   0  0  0  0  0  0  0  0  0  0  0  0
   37.6080   28.2640   39.8980 H   0  0  0  0  0  0  0  0  0  0  0  0
   37.2090   27.5960   44.7480 H   0  0  0  0  0  0  0  0  0  0  0  0
   37.7790   30.5260   41.3610 N   0  0  0  0  0  0  0  0  0  0  0  0
   39.0010   31.0920   41.4140 C   0  0  0  0  0  3  0  0  0  0  0  0
   39.1520   32.3940   40.9380 C   0  0  0  0  0  0  0  0  0  0  0  0
   40.0750   32.9420   40.9300 H   0  0  0  0  0  0  0  0  0  0  0  0
   37.9960   32.9720   40.4540 C   0  0  0  0  0  0  0  0  0  0  0  0
   38.1030   34.1610   40.0120 O   0  0  0  0  0  0  0  0  0  0  0  0
   36.7670   32.4250   40.3920 N   0  0  0  0  0  0  0  0  0  0  0  0
   36.6890   31.1560   40.8710 C   0  0  0  0  0  0  0  0  0  0  0  0
   35.5500   30.5850   40.8390 O   0  0  0  0  0  0  0  0  0  0  0  0
   35.9700   32.9700   40.0010 H   0  0  0  0  0  0  0  0  0  0  0  0
   37.2560   25.6710   40.5870 C   0  0  0  0  0  0  0  0  0  0  0  0
   36.7350   24.8410   41.1280 H   0  0  0  0  0  0  0  0  0  0  0  0
   36.6530   25.9530   39.6900 H   0  0  0  0  0  0  0  0  0  0  0  0
   38.2420   25.3450   40.2600 H   0  0  0  0  0  0  0  0  0  0  0  0
  1  6  1  0  0  0  0
  2  1  2  0  0  0  0
  2  3  1  0  0  0  0
  3  4  2  0  0  0  0
  4  5  1  0  0  0  0
  5  8  1  0  0  0  0
  6  5  2  0  0  0  0
  7  2  1  0  0  0  0
  9 10  1  0  0  0  0
  9  3  1  0  0  0  0
 11 10  2  0  0  0  0
 12 11  1  0  0  0  0
 13 11  1  0  0  0  0
 14 13  2  0  0  0  0
 15 13  1  0  0  0  0
 15 16  1  0  0  0  0
 16  9  1  0  0  0  0
 17 16  2  0  0  0  0
 18 15  1  0  0  0  0
 19 20  1  0  0  0  0
 19  1  1  0  0  0  0
 21 19  1  0  0  0  0
 22 19  1  0  0  0  0
M  END
>  <minimizedAffinity>
-4.92647743

$$$$

 OpenBabel03242521403D

 22 23  0  0  0  0  0  0  0  0999 V2000
   40.1760   32.4500   38.7830 C   0  0  0  0  0  0  0  0  0  0  0  0
   39.6380   31.3510   39.4770 C   0  0  0  0  0  0  0  0  0  0  0  0
   39.0350   31.6090   40.7260 C   0  0  0  0  0  0  0  0  0  0  0  0
   39.0080   32.8930   41.1830 N   0  0  0  0  0  0  0  0  0  0  0  0
   39.5440   33.9090   40.4690 C   0  0  0  0  0  0  0  0  0  0  0  0
   40.1270   33.6900   39.2700 N   0  0  0  0  0  0  0  0  0  0  0  0
   39.6610   30.3320   39.1100 H   0  0  0  0  0  0  0  0  0  0  0  0
   39.5020   34.9150   40.8700 H   0  0  0  0  0  0  0  0  0  0  0  0
   38.4580   30.5710   41.5140 N   0  0  0  0  0  0  0  0  0  0  0  0
   39.2330   29.8460   42.3430 C   0  0  0  0  0  3  0  0  0  0  0  0
   38.6370   28.8380   43.1000 C   0  0  0  0  0  0  0  0  0  0  0  0
   39.1540   28.1990   43.7910 H   0  0  0  0  0  0  0  0  0  0  0  0
   37.2780   28.6930   42.9050 C   0  0  0  0  0  0  0  0  0  0  0  0
   36.7050   27.7800   43.5830 O   0  0  0  0  0  0  0  0  0  0  0  0
   36.4850   29.4060   42.0830 N   0  0  0  0  0  0  0  0  0  0  0  0
   37.1280   30.3720   41.3760 C   0  0  0  0  0  0  0  0  0  0  0  0
   36.4290   31.0800   40.5800 O   0  0  0  0  0  0  0  0  0  0  0  0
   35.4660   29.1980   42.0270 H   0  0  0  0  0  0  0  0  0  0  0  0
   40.8100   32.1440   37.4600 C   0  0  0  0  0  0  0  0  0  0  0  0
   41.5030   32.9930   37.2330 H   0  0  0  0  0  0  0  0  0  0  0  0
   41.4050   31.2010   37.5270 H   0  0  0  0  0  0  0  0  0  0  0  0
   40.0730   32.0380   36.6660 H   0  0  0  0  0  0  0  0  0  0  0  0
  1  6  2  0  0  0  0
  1  2  1  0  0  0  0
  2  3  2  0  0  0  0
  3  4  1  0  0  0  0
  3  9  1  0  0  0  0
  5  8  1  0  0  0  0
  5  4  2  0  0  0  0
  6  5  1  0  0  0  0
  7  2  1  0  0  0  0
  9 10  1  0  0  0  0
 10 11  2  0  0  0  0
 11 12  1  0  0  0  0
 13 11  1  0  0  0  0
 13 14  2  0  0  0  0
 15 13  1  0  0  0  0
 16  9  1  0  0  0  0
 16 15  1  0  0  0  0
 17 16  2  0  0  0  0
 18 15  1  0  0  0  0
 19 21  1  0  0  0  0
 19  1  1  0  0  0  0
 20 19  1  0  0  0  0
 22 19  1  0  0  0  0
M  END
>  <minimizedAffinity>
-4.5850873

$$$$

 OpenBabel03242521403D

 22 23  0  0  0  0  0  0  0  0999 V2000
   37.3010   26.8880   41.4630 C   0  0  0  0  0  0  0  0  0  0  0  0
   37.6490   28.1530   40.9560 C   0  0  0  0  0  0  0  0  0  0  0  0
   37.6830   29.2270   41.8710 C   0  0  0  0  0  0  0  0  0  0  0  0
   37.3810   28.9800   43.1770 N   0  0  0  0  0  0  0  0  0  0  0  0
   37.0520   27.7390   43.6040 C   0  0  0  0  0  0  0  0  0  0  0  0
   37.0130   26.6930   42.7500 N   0  0  0  0  0  0  0  0  0  0  0  0
   37.8890   28.3440   39.9180 H   0  0  0  0  0  0  0  0  0  0  0  0
   36.8190   27.5870   44.6520 H   0  0  0  0  0  0  0  0  0  0  0  0
   38.0230   30.5510   41.4660 N   0  0  0  0  0  0  0  0  0  0  0  0
   37.1580   31.2720   40.7270 C   0  0  0  0  0  3  0  0  0  0  0  0
   37.5210   32.5630   40.3480 C   0  0  0  0  0  0  0  0  0  0  0  0
   36.9150   33.2260   39.7610 H   0  0  0  0  0  0  0  0  0  0  0  0
   38.7650   32.9680   40.7880 C   0  0  0  0  0  0  0  0  0  0  0  0
   39.1260   34.1440   40.4580 O   0  0  0  0  0  0  0  0  0  0  0  0
   39.6450   32.2650   41.5270 N   0  0  0  0  0  0  0  0  0  0  0  0
   39.2290   31.0160   41.8630 C   0  0  0  0  0  0  0  0  0  0  0  0
   40.0190   30.3020   42.5620 O   0  0  0  0  0  0  0  0  0  0  0  0
   40.5580   32.6870   41.7970 H   0  0  0  0  0  0  0  0  0  0  0  0
   37.2740   25.7680   40.4680 C   0  0  0  0  0  0  0  0  0  0  0  0
   36.6310   24.9630   40.9090 H   0  0  0  0  0  0  0  0  0  0  0  0
   36.8130   26.1140   39.5120 H   0  0  0  0  0  0  0  0  0  0  0  0
   38.2690   25.3790   40.2580 H   0  0  0  0  0  0  0  0  0  0  0  0
  1  6  1  0  0  0  0
  2  1  2  0  0  0  0
  2  3  1  0  0  0  0
  3  4  2  0  0  0  0
  4  5  1  0  0  0  0
  5  8  1  0  0  0  0
  6  5  2  0  0  0  0
  7  2  1  0  0  0  0
  9 16  1  0  0  0  0
  9  3  1  0  0  0  0
 10  9  1  0  0  0  0
 11 10  2  0  0  0  0
 11 13  1  0  0  0  0
 12 11  1  0  0  0  0
 13 15  1  0  0  0  0
 14 13  2  0  0  0  0
 15 18  1  0  0  0  0
 15 16  1  0  0  0  0
 16 17  2  0  0  0  0
 19 20  1  0  0  0  0
 19  1  1  0  0  0  0
 21 19  1  0  0  0  0
 22 19  1  0  0  0  0
M  END
>  <minimizedAffinity>
-4.5782795

$$$$

 OpenBabel03242521403D

 22 23  0  0  0  0  0  0  0  0999 V2000
   38.7420   24.4650   41.8720 C   0  0  0  0  0  0  0  0  0  0  0  0
   38.2240   25.6960   41.4300 C   0  0  0  0  0  0  0  0  0  0  0  0
   38.6440   26.8560   42.1160 C   0  0  0  0  0  0  0  0  0  0  0  0
   39.5180   26.7190   43.1530 N   0  0  0  0  0  0  0  0  0  0  0  0
   39.9810   25.5050   43.5310 C   0  0  0  0  0  0  0  0  0  0  0  0
   39.5960   24.3790   42.8930 N   0  0  0  0  0  0  0  0  0  0  0  0
   37.5310   25.8000   40.6050 H   0  0  0  0  0  0  0  0  0  0  0  0
   40.6740   25.4410   44.3620 H   0  0  0  0  0  0  0  0  0  0  0  0
   38.1820   28.1550   41.7530 N   0  0  0  0  0  0  0  0  0  0  0  0
   38.7720   28.8190   40.7410 C   0  0  0  0  0  3  0  0  0  0  0  0
   38.2970   30.0880   40.4110 C   0  0  0  0  0  0  0  0  0  0  0  0
   38.6880   30.7070   39.6260 H   0  0  0  0  0  0  0  0  0  0  0  0
   37.2440   30.5310   41.1850 C   0  0  0  0  0  0  0  0  0  0  0  0
   36.7870   31.6870   40.9070 O   0  0  0  0  0  0  0  0  0  0  0  0
   36.6400   29.8850   42.2000 N   0  0  0  0  0  0  0  0  0  0  0  0
   37.1500   28.6540   42.4690 C   0  0  0  0  0  0  0  0  0  0  0  0
   36.6200   27.9930   43.4200 O   0  0  0  0  0  0  0  0  0  0  0  0
   35.8480   30.3300   42.7090 H   0  0  0  0  0  0  0  0  0  0  0  0
   38.2780   23.2520   41.1240 C   0  0  0  0  0  0  0  0  0  0  0  0
   38.4460   22.3760   41.8010 H   0  0  0  0  0  0  0  0  0  0  0  0
   37.1870   23.3320   40.9010 H   0  0  0  0  0  0  0  0  0  0  0  0
   38.8180   23.1130   40.1890 H   0  0  0  0  0  0  0  0  0  0  0  0
  1  6  1  0  0  0  0
  2  1  2  0  0  0  0
  2  3  1  0  0  0  0
  3  4  2  0  0  0  0
  4  5  1  0  0  0  0
  5  8  1  0  0  0  0
  6  5  2  0  0  0  0
  7  2  1  0  0  0  0
  9  3  1  0  0  0  0
  9 16  1  0  0  0  0
 10  9  1  0  0  0  0
 11 10  2  0  0  0  0
 11 13  1  0  0  0  0
 12 11  1  0  0  0  0
 13 15  1  0  0  0  0
 14 13  2  0  0  0  0
 15 16  1  0  0  0  0
 15 18  1  0  0  0  0
 16 17  2  0  0  0  0
 19 20  1  0  0  0  0
 19  1  1  0  0  0  0
 21 19  1  0  0  0  0
 22 19  1  0  0  0  0
M  END
>  <minimizedAffinity>
-4.3900218

$$$$

 OpenBabel03242521403D

 22 23  0  0  0  0  0  0  0  0999 V2000
   37.1490   28.7610   40.5440 C   0  0  0  0  0  0  0  0  0  0  0  0
   38.2240   29.3250   39.8320 C   0  0  0  0  0  0  0  0  0  0  0  0
   38.2720   30.7330   39.7450 C   0  0  0  0  0  0  0  0  0  0  0  0
   37.2890   31.4570   40.3500 N   0  0  0  0  0  0  0  0  0  0  0  0
   36.2790   30.8560   41.0210 C   0  0  0  0  0  0  0  0  0  0  0  0
   36.2080   29.5110   41.1190 N   0  0  0  0  0  0  0  0  0  0  0  0
   39.0030   28.7460   39.3540 H   0  0  0  0  0  0  0  0  0  0  0  0
   35.5170   31.4700   41.4860 H   0  0  0  0  0  0  0  0  0  0  0  0
   39.3160   31.4100   39.0490 N   0  0  0  0  0  0  0  0  0  0  0  0
   40.4610   31.7180   39.6890 C   0  0  0  0  0  3  0  0  0  0  0  0
   41.4620   32.3800   38.9800 C   0  0  0  0  0  0  0  0  0  0  0  0
   42.4110   32.6750   39.3850 H   0  0  0  0  0  0  0  0  0  0  0  0
   41.1550   32.6520   37.6620 C   0  0  0  0  0  0  0  0  0  0  0  0
   42.0510   33.2560   36.9880 O   0  0  0  0  0  0  0  0  0  0  0  0
   40.0190   32.3530   37.0030 N   0  0  0  0  0  0  0  0  0  0  0  0
   39.0860   31.7080   37.7520 C   0  0  0  0  0  0  0  0  0  0  0  0
   37.9890   31.3980   37.1830 O   0  0  0  0  0  0  0  0  0  0  0  0
   39.9100   32.6140   36.0010 H   0  0  0  0  0  0  0  0  0  0  0  0
   37.1240   27.2650   40.6180 C   0  0  0  0  0  0  0  0  0  0  0  0
   36.0680   26.9730   40.8510 H   0  0  0  0  0  0  0  0  0  0  0  0
   37.4110   26.8260   39.6320 H   0  0  0  0  0  0  0  0  0  0  0  0
   37.7970   26.8800   41.3820 H   0  0  0  0  0  0  0  0  0  0  0  0
  1 19  1  0  0  0  0
  1  6  1  0  0  0  0
  2  1  2  0  0  0  0
  3  2  1  0  0  0  0
  3  4  2  0  0  0  0
  4  5  1  0  0  0  0
  5  6  2  0  0  0  0
  5  8  1  0  0  0  0
  7  2  1  0  0  0  0
  9 10  1  0  0  0  0
  9  3  1  0  0  0  0
 11 12  1  0  0  0  0
 11 10  2  0  0  0  0
 13 11  1  0  0  0  0
 14 13  2  0  0  0  0
 15 13  1  0  0  0  0
 15 16  1  0  0  0  0
 16  9  1  0  0  0  0
 17 16  2  0  0  0  0
 18 15  1  0  0  0  0
 19 20  1  0  0  0  0
 19 22  1  0  0  0  0
 21 19  1  0  0  0  0
M  END
>  <minimizedAffinity>
-4.37204456

$$$$

 OpenBabel03242521403D

 22 23  0  0  0  0  0  0  0  0999 V2000
   37.8160   29.7910   42.1210 C   0  0  0  0  0  0  0  0  0  0  0  0
   38.8480   30.4310   41.4110 C   0  0  0  0  0  0  0  0  0  0  0  0
   38.4730   31.2330   40.3110 C   0  0  0  0  0  0  0  0  0  0  0  0
   37.1500   31.3410   40.0050 N   0  0  0  0  0  0  0  0  0  0  0  0
   36.2030   30.6990   40.7280 C   0  0  0  0  0  0  0  0  0  0  0  0
   36.5330   29.9260   41.7850 N   0  0  0  0  0  0  0  0  0  0  0  0
   39.8990   30.3430   41.6570 H   0  0  0  0  0  0  0  0  0  0  0  0
   35.1610   30.8120   40.4490 H   0  0  0  0  0  0  0  0  0  0  0  0
   39.4360   31.9270   39.5210 N   0  0  0  0  0  0  0  0  0  0  0  0
   40.1290   31.2680   38.5720 C   0  0  0  0  0  3  0  0  0  0  0  0
   41.0630   31.9760   37.8170 C   0  0  0  0  0  0  0  0  0  0  0  0
   41.6690   31.5560   37.0380 H   0  0  0  0  0  0  0  0  0  0  0  0
   41.1740   33.3130   38.1390 C   0  0  0  0  0  0  0  0  0  0  0  0
   42.0190   33.9870   37.4670 O   0  0  0  0  0  0  0  0  0  0  0  0
   40.4920   33.9920   39.0820 N   0  0  0  0  0  0  0  0  0  0  0  0
   39.5980   33.2430   39.7810 C   0  0  0  0  0  0  0  0  0  0  0  0
   38.9230   33.8300   40.6870 O   0  0  0  0  0  0  0  0  0  0  0  0
   40.6690   35.0080   39.2280 H   0  0  0  0  0  0  0  0  0  0  0  0
   38.2460   28.9470   43.2820 C   0  0  0  0  0  0  0  0  0  0  0  0
   37.4090   28.2310   43.4840 H   0  0  0  0  0  0  0  0  0  0  0  0
   39.1620   28.3670   43.0180 H   0  0  0  0  0  0  0  0  0  0  0  0
   38.4510   29.5430   44.1700 H   0  0  0  0  0  0  0  0  0  0  0  0
  1 19  1  0  0  0  0
  2  7  1  0  0  0  0
  2  1  2  0  0  0  0
  3  2  1  0  0  0  0
  4  3  2  0  0  0  0
  4  5  1  0  0  0  0
  5  6  2  0  0  0  0
  6  1  1  0  0  0  0
  8  5  1  0  0  0  0
  9 16  1  0  0  0  0
  9  3  1  0  0  0  0
 10  9  1  0  0  0  0
 11 13  1  0  0  0  0
 11 10  2  0  0  0  0
 12 11  1  0  0  0  0
 13 15  1  0  0  0  0
 14 13  2  0  0  0  0
 15 18  1  0  0  0  0
 15 16  1  0  0  0  0
 16 17  2  0  0  0  0
 19 20  1  0  0  0  0
 19 22  1  0  0  0  0
 21 19  1  0  0  0  0
M  END
>  <minimizedAffinity>
-4.29894114

$$$$

 OpenBabel03242521403D

 22 23  0  0  0  0  0  0  0  0999 V2000
   38.0380   32.3890   40.3660 C   0  0  0  0  0  0  0  0  0  0  0  0
   37.5230   31.1060   40.6250 C   0  0  0  0  0  0  0  0  0  0  0  0
   38.3220   30.2350   41.3980 C   0  0  0  0  0  0  0  0  0  0  0  0
   39.5290   30.6820   41.8430 N   0  0  0  0  0  0  0  0  0  0  0  0
   39.9710   31.9290   41.5590 C   0  0  0  0  0  0  0  0  0  0  0  0
   39.2270   32.7830   40.8220 N   0  0  0  0  0  0  0  0  0  0  0  0
   36.5620   30.7560   40.2700 H   0  0  0  0  0  0  0  0  0  0  0  0
   40.9380   32.2440   41.9330 H   0  0  0  0  0  0  0  0  0  0  0  0
   37.8980   28.9130   41.7220 N   0  0  0  0  0  0  0  0  0  0  0  0
   37.1700   28.6940   42.8340 C   0  0  0  0  0  3  0  0  0  0  0  0
   36.7720   27.3890   43.1220 C   0  0  0  0  0  0  0  0  0  0  0  0
   36.1910   27.0970   43.9760 H   0  0  0  0  0  0  0  0  0  0  0  0
   37.1830   26.4420   42.2060 C   0  0  0  0  0  0  0  0  0  0  0  0
   36.8350   25.2400   42.4420 O   0  0  0  0  0  0  0  0  0  0  0  0
   37.9110   26.6390   41.0900 N   0  0  0  0  0  0  0  0  0  0  0  0
   38.2650   27.9320   40.8680 C   0  0  0  0  0  0  0  0  0  0  0  0
   38.9540   28.1810   39.8260 O   0  0  0  0  0  0  0  0  0  0  0  0
   38.1570   25.8350   40.4760 H   0  0  0  0  0  0  0  0  0  0  0  0
   37.1680   33.2900   39.5430 C   0  0  0  0  0  0  0  0  0  0  0  0
   37.8400   34.0750   39.1100 H   0  0  0  0  0  0  0  0  0  0  0  0
   36.6990   32.7160   38.7090 H   0  0  0  0  0  0  0  0  0  0  0  0
   36.3820   33.7560   40.1360 H   0  0  0  0  0  0  0  0  0  0  0  0
  1  2  2  0  0  0  0
  1  6  1  0  0  0  0
  2  3  1  0  0  0  0
  3  9  1  0  0  0  0
  3  4  2  0  0  0  0
  5  4  1  0  0  0  0
  5  8  1  0  0  0  0
  6  5  2  0  0  0  0
  7  2  1  0  0  0  0
  9 10  1  0  0  0  0
 10 11  2  0  0  0  0
 11 12  1  0  0  0  0
 13 14  2  0  0  0  0
 13 11  1  0  0  0  0
 15 13  1  0  0  0  0
 16 15  1  0  0  0  0
 16  9  1  0  0  0  0
 17 16  2  0  0  0  0
 18 15  1  0  0  0  0
 19 22  1  0  0  0  0
 19  1  1  0  0  0  0
 20 19  1  0  0  0  0
 21 19  1  0  0  0  0
M  END
>  <minimizedAffinity>
-4.22347164

$$$$

 OpenBabel03242521403D

 22 23  0  0  0  0  0  0  0  0999 V2000
   39.1710   28.7720   42.3800 C   0  0  0  0  0  0  0  0  0  0  0  0
   39.0960   27.5260   41.7320 C   0  0  0  0  0  0  0  0  0  0  0  0
   38.0530   26.6570   42.1230 C   0  0  0  0  0  0  0  0  0  0  0  0
   37.1900   27.0720   43.0920 N   0  0  0  0  0  0  0  0  0  0  0  0
   37.3150   28.2850   43.6800 C   0  0  0  0  0  0  0  0  0  0  0  0
   38.3030   29.1350   43.3250 N   0  0  0  0  0  0  0  0  0  0  0  0
   39.7830   27.2010   40.9620 H   0  0  0  0  0  0  0  0  0  0  0  0
   36.6070   28.5740   44.4470 H   0  0  0  0  0  0  0  0  0  0  0  0
   37.8830   25.3710   41.5330 N   0  0  0  0  0  0  0  0  0  0  0  0
   37.0520   25.2180   40.4830 C   0  0  0  0  0  3  0  0  0  0  0  0
   36.9080   23.9460   39.9300 C   0  0  0  0  0  0  0  0  0  0  0  0
   36.2770   23.7070   39.0950 H   0  0  0  0  0  0  0  0  0  0  0  0
   37.6550   22.9600   40.5400 C   0  0  0  0  0  0  0  0  0  0  0  0
   37.5450   21.7870   40.0570 O   0  0  0  0  0  0  0  0  0  0  0  0
   38.4900   23.0910   41.5890 N   0  0  0  0  0  0  0  0  0  0  0  0
   38.5860   24.3540   42.0800 C   0  0  0  0  0  0  0  0  0  0  0  0
   39.3610   24.5410   43.0730 O   0  0  0  0  0  0  0  0  0  0  0  0
   39.0010   22.2620   41.9590 H   0  0  0  0  0  0  0  0  0  0  0  0
   40.2870   29.6710   41.9440 C   0  0  0  0  0  0  0  0  0  0  0  0
   40.4500   30.4050   42.7730 H   0  0  0  0  0  0  0  0  0  0  0  0
   41.2230   29.0790   41.7970 H   0  0  0  0  0  0  0  0  0  0  0  0
   40.0550   30.1960   41.0180 H   0  0  0  0  0  0  0  0  0  0  0  0
  1  6  1  0  0  0  0
  2  3  1  0  0  0  0
  2  1  2  0  0  0  0
  3  4  2  0  0  0  0
  4  5  1  0  0  0  0
  5  8  1  0  0  0  0
  6  5  2  0  0  0  0
  7  2  1  0  0  0  0
  9 16  1  0  0  0  0
  9  3  1  0  0  0  0
 10  9  1  0  0  0  0
 11 10  2  0  0  0  0
 11 13  1  0  0  0  0
 12 11  1  0  0  0  0
 13 15  1  0  0  0  0
 14 13  2  0  0  0  0
 15 18  1  0  0  0  0
 15 16  1  0  0  0  0
 16 17  2  0  0  0  0
 19  1  1  0  0  0  0
 19 20  1  0  0  0  0
 21 19  1  0  0  0  0
 22 19  1  0  0  0  0
M  END
>  <minimizedAffinity>
-4.20181036

$$$$

 OpenBabel03242521403D

 22 23  0  0  0  0  0  0  0  0999 V2000
   37.9170   25.7550   42.1670 C   0  0  0  0  0  0  0  0  0  0  0  0
   37.4810   26.8810   41.4450 C   0  0  0  0  0  0  0  0  0  0  0  0
   38.1670   28.0950   41.6660 C   0  0  0  0  0  0  0  0  0  0  0  0
   39.2010   28.1060   42.5540 N   0  0  0  0  0  0  0  0  0  0  0  0
   39.5740   26.9880   43.2190 C   0  0  0  0  0  0  0  0  0  0  0  0
   38.9350   25.8140   43.0270 N   0  0  0  0  0  0  0  0  0  0  0  0
   36.6590   26.8670   40.7400 H   0  0  0  0  0  0  0  0  0  0  0  0
   40.4010   27.0420   43.9170 H   0  0  0  0  0  0  0  0  0  0  0  0
   37.8090   29.2970   40.9880 N   0  0  0  0  0  0  0  0  0  0  0  0
   36.8200   30.0730   41.4730 C   0  0  0  0  0  3  0  0  0  0  0  0
   36.4960   31.2420   40.7860 C   0  0  0  0  0  0  0  0  0  0  0  0
   35.7290   31.9350   41.0780 H   0  0  0  0  0  0  0  0  0  0  0  0
   37.2470   31.4770   39.6530 C   0  0  0  0  0  0  0  0  0  0  0  0
   36.9740   32.5380   39.0040 O   0  0  0  0  0  0  0  0  0  0  0  0
   38.2380   30.7150   39.1510 N   0  0  0  0  0  0  0  0  0  0  0  0
   38.5050   29.5920   39.8680 C   0  0  0  0  0  0  0  0  0  0  0  0
   39.4340   28.8310   39.4430 O   0  0  0  0  0  0  0  0  0  0  0  0
   38.7330   31.0040   38.2820 H   0  0  0  0  0  0  0  0  0  0  0  0
   37.1700   24.4820   41.9120 C   0  0  0  0  0  0  0  0  0  0  0  0
   37.3550   23.8190   42.7950 H   0  0  0  0  0  0  0  0  0  0  0  0
   36.0750   24.6870   41.8380 H   0  0  0  0  0  0  0  0  0  0  0  0
   37.4970   23.9890   40.9980 H   0  0  0  0  0  0  0  0  0  0  0  0
  1  6  1  0  0  0  0
  2  3  1  0  0  0  0
  2  1  2  0  0  0  0
  3  4  2  0  0  0  0
  4  5  1  0  0  0  0
  5  8  1  0  0  0  0
  6  5  2  0  0  0  0
  7  2  1  0  0  0  0
  9 10  1  0  0  0  0
  9  3  1  0  0  0  0
 11 12  1  0  0  0  0
 11 10  2  0  0  0  0
 13 11  1  0  0  0  0
 14 13  2  0  0  0  0
 15 13  1  0  0  0  0
 15 16  1  0  0  0  0
 16  9  1  0  0  0  0
 17 16  2  0  0  0  0
 18 15  1  0  0  0  0
 19  1  1  0  0  0  0
 19 20  1  0  0  0  0
 21 19  1  0  0  0  0
 22 19  1  0  0  0  0
M  END
>  <minimizedAffinity>
-4.14435005

$$$$
