
 OpenBabel03252502593D

 23 24  0  0  0  0  0  0  0  0999 V2000
   43.9040   33.5730   40.3440 C   0  0  0  0  0  0  0  0  0  0  0  0
   44.4640   33.6390   39.3790 H   0  0  0  0  0  0  0  0  0  0  0  0
   43.9640   32.5330   40.7350 H   0  0  0  0  0  0  0  0  0  0  0  0
   42.5090   33.9950   40.1530 N   0  0  0  0  0  0  0  0  0  0  0  0
   42.2620   35.0200   39.3280 C   0  0  0  0  0  3  0  0  0  0  0  0
   40.9140   35.3470   39.2110 C   0  0  0  0  0  0  0  0  0  0  0  0
   40.6090   36.1770   38.5550 H   0  0  0  0  0  0  0  0  0  0  0  0
   39.9320   34.6400   39.9140 C   0  0  0  0  0  0  0  0  0  0  0  0
   38.7120   34.9140   39.8260 O   0  0  0  0  0  0  0  0  0  0  0  0
   40.2930   33.6210   40.7220 N   0  0  0  0  0  0  0  0  0  0  0  0
   41.5880   33.2860   40.8500 C   0  0  0  0  0  0  0  0  0  0  0  0
   41.9390   32.3320   41.6050 O   0  0  0  0  0  0  0  0  0  0  0  0
   39.5780   33.0730   41.2600 H   0  0  0  0  0  0  0  0  0  0  0  0
   44.6080   34.7660   41.5090 S   0  0  0  0  0  0  0  0  0  0  0  0
   46.9980   34.5340   42.9130 C   0  0  0  0  0  0  0  0  0  0  0  0
   46.3740   34.5000   41.6510 C   0  0  0  0  0  0  0  0  0  0  0  0
   47.1310   34.2580   40.5180 C   0  0  0  0  0  0  0  0  0  0  0  0
   48.4730   34.0620   40.6810 N   0  0  0  0  0  0  0  0  0  0  0  0
   49.0330   34.1010   41.8990 C   0  0  0  0  0  0  0  0  0  0  0  0
   48.3380   34.3290   43.0060 N   0  0  0  0  0  0  0  0  0  0  0  0
   46.3560   34.7250   43.7560 H   0  0  0  0  0  0  0  0  0  0  0  0
   46.6910   34.2220   39.5120 H   0  0  0  0  0  0  0  0  0  0  0  0
   50.0920   33.9530   42.0920 H   0  0  0  0  0  0  0  0  0  0  0  0
  1  3  1  0  0  0  0
  1 14  1  0  0  0  0
  2  1  1  0  0  0  0
  4  1  1  0  0  0  0
  4 11  1  0  0  0  0
  5  4  1  0  0  0  0
  6  5  2  0  0  0  0
  6  8  1  0  0  0  0
  7  6  1  0  0  0  0
  8 10  1  0  0  0  0
  9  8  2  0  0  0  0
 10 11  1  0  0  0  0
 10 13  1  0  0  0  0
 11 12  2  0  0  0  0
 14 16  1  0  0  0  0
 15 20  1  0  0  0  0
 15 21  1  0  0  0  0
 16 15  2  0  0  0  0
 17 18  2  0  0  0  0
 17 16  1  0  0  0  0
 18 19  1  0  0  0  0
 19 23  1  0  0  0  0
 19 20  2  0  0  0  0
 22 17  1  0  0  0  0
M  END
>  <minimizedAffinity>
-3.99008536

>  <minimizedRMSD>
3.41850066

$$$$
