
 OpenBabel03252508253D

 42 46  0  0  1  0  0  0  0  0999 V2000
   46.1500   32.3380   46.4660 C   0  0  1  0  0  0  0  0  0  0  0  0
   45.9810   32.4790   47.9180 C   0  0  0  0  0  0  0  0  0  0  0  0
   45.0570   31.5680   47.0190 C   0  0  2  0  0  0  0  0  0  0  0  0
   47.2300   31.9690   46.3260 H   0  0  0  0  0  0  0  0  0  0  0  0
   45.4750   33.3360   48.3710 H   0  0  0  0  0  0  0  0  0  0  0  0
   46.4980   31.8470   48.6650 H   0  0  0  0  0  0  0  0  0  0  0  0
   44.0180   31.9860   47.2100 H   0  0  0  0  0  0  0  0  0  0  0  0
   45.0580   30.1170   47.2220 C   0  0  0  0  0  0  0  0  0  0  0  0
   45.0380   29.4420   48.4030 C   0  0  0  0  0  0  0  0  0  0  0  0
   45.1710   28.0700   48.5570 C   0  0  0  0  0  0  0  0  0  0  0  0
   45.3410   27.3220   47.3820 C   0  0  0  0  0  0  0  0  0  0  0  0
   45.3610   27.9910   46.1580 C   0  0  0  0  0  0  0  0  0  0  0  0
   45.4680   27.2070   45.0260 C   0  0  0  0  0  0  0  0  0  0  0  0
   45.4220   27.8200   43.7760 C   0  0  0  0  0  0  0  0  0  0  0  0
   45.2690   29.1890   43.6620 C   0  0  0  0  0  0  0  0  0  0  0  0
   45.1710   29.9130   44.8270 C   0  0  0  0  0  0  0  0  0  0  0  0
   45.2200   29.3530   46.0940 C   0  0  0  0  0  0  0  0  0  0  0  0
   44.9040   30.0660   49.2890 H   0  0  0  0  0  0  0  0  0  0  0  0
   45.1470   27.5900   49.5040 H   0  0  0  0  0  0  0  0  0  0  0  0
   45.4490   26.2560   47.4650 H   0  0  0  0  0  0  0  0  0  0  0  0
   45.5860   26.1250   45.1370 H   0  0  0  0  0  0  0  0  0  0  0  0
   45.5190   27.0960   42.9500 H   0  0  0  0  0  0  0  0  0  0  0  0
   45.2540   29.4590   42.6370 H   0  0  0  0  0  0  0  0  0  0  0  0
   44.9800   30.8930   44.4920 H   0  0  0  0  0  0  0  0  0  0  0  0
   44.7180   35.4650   45.1210 C   0  0  0  0  0  0  0  0  0  0  0  0
   45.2790   35.5110   43.7960 C   0  0  0  0  0  0  0  0  0  0  0  0
   46.1590   34.4520   43.4080 C   0  0  0  0  0  0  0  0  0  0  0  0
   46.4260   33.4620   44.2870 N   0  0  0  0  0  0  0  0  0  0  0  0
   45.8550   33.4750   45.5420 C   0  0  0  0  0  0  0  0  0  0  0  0
   45.0330   34.4420   45.9410 N   0  0  0  0  0  0  0  0  0  0  0  0
   44.0680   36.2980   45.3330 H   0  0  0  0  0  0  0  0  0  0  0  0
   45.0660   36.2980   43.0960 H   0  0  0  0  0  0  0  0  0  0  0  0
   46.7210   34.4860   42.1030 N   0  0  0  0  0  0  0  0  0  0  0  0
   47.9160   35.1000   42.0140 C   0  0  0  0  0  3  0  0  0  0  0  0
   48.5620   35.1960   40.7970 C   0  0  0  0  0  0  0  0  0  0  0  0
   49.5270   35.6860   40.6980 H   0  0  0  0  0  0  0  0  0  0  0  0
   47.9810   34.6570   39.6590 C   0  0  0  0  0  0  0  0  0  0  0  0
   48.5590   34.7370   38.5420 O   0  0  0  0  0  0  0  0  0  0  0  0
   46.7850   34.0540   39.8090 N   0  0  0  0  0  0  0  0  0  0  0  0
   46.1570   33.9630   41.0000 C   0  0  0  0  0  0  0  0  0  0  0  0
   45.0390   33.4020   41.1510 O   0  0  0  0  0  0  0  0  0  0  0  0
   46.3430   33.6510   38.9700 H   0  0  0  0  0  0  0  0  0  0  0  0
  1  4  1  6  0  0  0
  1  3  1  0  0  0  0
  1  2  1  0  0  0  0
  2  5  1  0  0  0  0
  2  6  1  0  0  0  0
  3  7  1  6  0  0  0
  3  8  1  0  0  0  0
  3  2  1  0  0  0  0
  8  9  1  0  0  0  0
  9 10  2  0  0  0  0
  9 18  1  0  0  0  0
 10 19  1  0  0  0  0
 11 20  1  0  0  0  0
 11 10  1  0  0  0  0
 12 11  2  0  0  0  0
 13 21  1  0  0  0  0
 13 12  1  0  0  0  0
 14 13  2  0  0  0  0
 15 14  1  0  0  0  0
 15 16  2  0  0  0  0
 16 17  1  0  0  0  0
 17 12  1  0  0  0  0
 17  8  2  0  0  0  0
 22 14  1  0  0  0  0
 23 15  1  0  0  0  0
 24 16  1  0  0  0  0
 25 31  1  0  0  0  0
 25 30  1  0  0  0  0
 26 25  2  0  0  0  0
 27 26  1  0  0  0  0
 27 28  2  0  0  0  0
 28 29  1  0  0  0  0
 29 30  2  0  0  0  0
 29  1  1  0  0  0  0
 32 26  1  0  0  0  0
 33 27  1  0  0  0  0
 34 33  1  0  0  0  0
 35 34  2  0  0  0  0
 36 35  1  0  0  0  0
 37 39  1  0  0  0  0
 37 35  1  0  0  0  0
 38 37  2  0  0  0  0
 39 40  1  0  0  0  0
 40 41  2  0  0  0  0
 40 33  1  0  0  0  0
 42 39  1  0  0  0  0
M  END
>  <minimizedAffinity>
-5.84861374

>  <minimizedRMSD>
0.907535613

$$$$
