
 OpenBabel03242518393D

 40 43  0  0  1  0  0  0  0  0999 V2000
   46.8140   33.5510   40.9730 O   0  0  0  0  0  0  0  0  0  0  0  0
   47.0760   33.6540   39.5830 C   0  0  0  0  0  0  0  0  0  0  0  0
   48.1330   34.2430   38.8810 C   0  0  0  0  0  0  0  0  0  0  0  0
   47.9150   34.0720   37.5260 C   0  0  0  0  0  0  0  0  0  0  0  0
   46.7410   33.3900   37.4660 C   0  0  0  0  0  0  0  0  0  0  0  0
   46.2530   33.1480   38.6680 O   0  0  0  0  0  0  0  0  0  0  0  0
   48.9350   34.7260   39.4160 H   0  0  0  0  0  0  0  0  0  0  0  0
   48.5780   34.4300   36.7500 H   0  0  0  0  0  0  0  0  0  0  0  0
   46.0760   32.9660   36.2150 C   0  0  2  0  0  0  0  0  0  0  0  0
   45.7670   31.5570   35.9730 C   0  0  0  0  0  0  0  0  0  0  0  0
   46.9800   32.0950   35.3050 C   0  0  1  0  0  0  0  0  0  0  0  0
   45.5420   33.7880   35.7150 H   0  0  0  0  0  0  0  0  0  0  0  0
   45.8590   30.7890   36.7740 H   0  0  0  0  0  0  0  0  0  0  0  0
   44.8580   31.3820   35.3290 H   0  0  0  0  0  0  0  0  0  0  0  0
   47.9830   31.8790   35.6630 H   0  0  0  0  0  0  0  0  0  0  0  0
   47.9960   32.6240   33.1010 C   0  0  0  0  0  0  0  0  0  0  0  0
   49.1710   32.5900   33.5680 O   0  0  0  0  0  0  0  0  0  0  0  0
   46.8340   32.4290   33.8900 N   0  0  0  0  0  0  0  0  0  0  0  0
   47.9640   32.8160   32.0370 H   0  0  0  0  0  0  0  0  0  0  0  0
   45.8850   32.5220   33.4750 H   0  0  0  0  0  0  0  0  0  0  0  0
   47.1010   34.6750   41.8020 C   0  0  0  0  0  0  0  0  0  0  0  0
   47.9950   35.4510   41.4070 O   0  0  0  0  0  0  0  0  0  0  0  0
   46.3220   34.7750   42.9940 C   0  0  0  0  0  0  0  0  0  0  0  0
   45.3860   35.7780   43.0050 C   0  0  0  0  0  0  0  0  0  0  0  0
   44.5900   35.9400   44.1260 C   0  0  0  0  0  0  0  0  0  0  0  0
   44.7700   35.0950   45.1700 N   0  0  0  0  0  0  0  0  0  0  0  0
   45.6910   34.1240   45.1320 C   0  0  0  0  0  0  0  0  0  0  0  0
   46.4510   33.9890   44.0300 N   0  0  0  0  0  0  0  0  0  0  0  0
   45.1820   36.4900   42.2190 H   0  0  0  0  0  0  0  0  0  0  0  0
   43.8340   36.7160   44.1930 H   0  0  0  0  0  0  0  0  0  0  0  0
   45.8350   33.2650   46.2600 N   0  0  0  0  0  0  0  0  0  0  0  0
   45.0960   33.2860   47.3870 C   0  0  0  0  0  3  0  0  0  0  0  0
   45.3430   32.3910   48.4100 C   0  0  0  0  0  0  0  0  0  0  0  0
   44.7280   32.4470   49.2860 H   0  0  0  0  0  0  0  0  0  0  0  0
   46.3740   31.4930   48.2080 C   0  0  0  0  0  0  0  0  0  0  0  0
   46.6130   30.6620   49.1430 O   0  0  0  0  0  0  0  0  0  0  0  0
   47.1020   31.4710   47.1000 N   0  0  0  0  0  0  0  0  0  0  0  0
   46.8330   32.3680   46.1060 C   0  0  0  0  0  0  0  0  0  0  0  0
   47.5820   32.2630   45.0970 O   0  0  0  0  0  0  0  0  0  0  0  0
   47.8690   30.7530   47.0280 H   0  0  0  0  0  0  0  0  0  0  0  0
  1 21  1  0  0  0  0
  2  1  1  0  0  0  0
  3  7  1  0  0  0  0
  3  2  2  0  0  0  0
  4  3  1  0  0  0  0
  5  4  2  0  0  0  0
  5  6  1  0  0  0  0
  6  2  1  0  0  0  0
  8  4  1  0  0  0  0
  9 12  1  6  0  0  0
  9  5  1  0  0  0  0
 10  9  1  0  0  0  0
 10 13  1  0  0  0  0
 11 15  1  1  0  0  0
 11 10  1  0  0  0  0
 11  9  1  0  0  0  0
 14 10  1  0  0  0  0
 16 17  2  0  0  0  0
 16 18  1  0  0  0  0
 18 11  1  0  0  0  0
 19 16  1  0  0  0  0
 20 18  1  0  0  0  0
 21 23  1  0  0  0  0
 22 21  2  0  0  0  0
 23 24  2  0  0  0  0
 23 28  1  0  0  0  0
 24 25  1  0  0  0  0
 25 30  1  0  0  0  0
 25 26  2  0  0  0  0
 27 26  1  0  0  0  0
 27 31  1  0  0  0  0
 28 27  2  0  0  0  0
 29 24  1  0  0  0  0
 31 32  1  0  0  0  0
 32 33  2  0  0  0  0
 33 34  1  0  0  0  0
 35 33  1  0  0  0  0
 35 36  2  0  0  0  0
 37 35  1  0  0  0  0
 38 31  1  0  0  0  0
 38 37  1  0  0  0  0
 39 38  2  0  0  0  0
 40 37  1  0  0  0  0
M  END
>  <minimizedAffinity>
-6.72840452

>  <minimizedRMSD>
0.325094849

$$$$
