
 OpenBabel03252509033D

 49 51  0  0  1  0  0  0  0  0999 V2000
   47.1330   34.2050   43.4210 N   0  0  0  0  0  0  0  0  0  0  0  0
   46.7340   35.3900   42.7640 C   0  0  0  0  0  0  0  0  0  0  0  0
   45.2320   35.6220   42.7650 C   0  0  0  0  0  0  0  0  0  0  0  0
   44.5380   35.1500   44.0190 C   0  0  0  0  0  0  0  0  0  0  0  0
   45.5400   34.6430   45.0410 C   0  0  0  0  0  0  0  0  0  0  0  0
   46.2990   33.5000   44.2510 C   0  0  2  0  0  0  0  0  0  0  0  0
   47.1960   36.2500   43.3070 H   0  0  0  0  0  0  0  0  0  0  0  0
   47.0520   35.4920   41.7200 H   0  0  0  0  0  0  0  0  0  0  0  0
   44.7580   35.2010   41.8470 H   0  0  0  0  0  0  0  0  0  0  0  0
   45.0580   36.7170   42.6920 H   0  0  0  0  0  0  0  0  0  0  0  0
   43.9080   34.2770   43.7380 H   0  0  0  0  0  0  0  0  0  0  0  0
   43.8510   35.8980   44.4490 H   0  0  0  0  0  0  0  0  0  0  0  0
   45.0060   34.1990   45.8880 H   0  0  0  0  0  0  0  0  0  0  0  0
   46.2590   35.4180   45.3080 H   0  0  0  0  0  0  0  0  0  0  0  0
   45.5240   32.8840   43.7500 H   0  0  0  0  0  0  0  0  0  0  0  0
   48.2260   33.5190   42.7860 C   0  0  0  0  0  0  0  0  0  0  0  0
   48.8320   33.0750   43.6010 H   0  0  0  0  0  0  0  0  0  0  0  0
   48.8220   34.2890   42.2540 H   0  0  0  0  0  0  0  0  0  0  0  0
   47.6550   32.4910   41.8760 C   0  0  0  0  0  0  0  0  0  0  0  0
   46.5370   32.5170   41.8600 H   0  0  0  0  0  0  0  0  0  0  0  0
   47.9520   31.4770   42.1650 H   0  0  0  0  0  0  0  0  0  0  0  0
   49.2960   32.1230   38.5170 C   0  0  0  0  0  0  0  0  0  0  0  0
   48.8820   31.8710   39.8390 C   0  0  0  0  0  0  0  0  0  0  0  0
   48.0790   32.7760   40.4830 C   0  0  0  0  0  0  0  0  0  0  0  0
   47.7210   33.8730   39.8070 N   0  0  0  0  0  0  0  0  0  0  0  0
   48.1080   34.1210   38.5500 C   0  0  0  0  0  0  0  0  0  0  0  0
   48.9010   33.2500   37.8860 N   0  0  0  0  0  0  0  0  0  0  0  0
   49.9270   31.3610   38.0820 H   0  0  0  0  0  0  0  0  0  0  0  0
   49.1850   30.9730   40.3720 H   0  0  0  0  0  0  0  0  0  0  0  0
   47.8270   35.0040   37.9910 H   0  0  0  0  0  0  0  0  0  0  0  0
   46.9560   32.8640   45.2870 O   0  0  0  0  0  0  0  0  0  0  0  0
   45.4280   30.8110   44.5450 O   0  0  0  0  0  0  0  0  0  0  0  0
   46.2580   31.3960   45.6960 P   0  0  2  0  0  0  0  0  0  0  0  0
   45.0800   31.7670   46.8940 O   0  0  0  0  0  0  0  0  0  0  0  0
   45.4780   31.7460   47.7860 H   0  0  0  0  0  0  0  0  0  0  0  0
   47.3260   30.3000   46.3490 O   0  0  0  0  0  0  0  0  0  0  0  0
   47.1950   29.0920   45.6790 C   0  0  0  0  0  0  0  0  0  0  0  0
   46.5580   29.2090   44.7620 H   0  0  0  0  0  0  0  0  0  0  0  0
   48.1730   28.6760   45.3940 H   0  0  0  0  0  0  0  0  0  0  0  0
   46.4970   28.1770   46.5640 N   0  0  0  0  0  0  0  0  0  0  0  0
   45.1660   28.0160   46.6690 C   0  0  0  0  0  3  0  0  0  0  0  0
   44.6370   27.1000   47.5630 C   0  0  0  0  0  0  0  0  0  0  0  0
   43.5660   26.9900   47.6260 H   0  0  0  0  0  0  0  0  0  0  0  0
   45.4640   26.3280   48.3690 C   0  0  0  0  0  0  0  0  0  0  0  0
   44.9950   25.4950   49.1810 O   0  0  0  0  0  0  0  0  0  0  0  0
   46.7840   26.5230   48.2300 N   0  0  0  0  0  0  0  0  0  0  0  0
   47.2910   27.4150   47.3610 C   0  0  0  0  0  0  0  0  0  0  0  0
   48.5380   27.4870   47.3410 O   0  0  0  0  0  0  0  0  0  0  0  0
   47.3770   25.9240   48.8530 H   0  0  0  0  0  0  0  0  0  0  0  0
  1  6  1  0  0  0  0
  2  3  1  0  0  0  0
  2  7  1  0  0  0  0
  2  1  1  0  0  0  0
  3  4  1  0  0  0  0
  4 12  1  0  0  0  0
  4  5  1  0  0  0  0
  5 14  1  0  0  0  0
  5 13  1  0  0  0  0
  6 15  1  6  0  0  0
  6  5  1  0  0  0  0
  6 31  1  0  0  0  0
  8  2  1  0  0  0  0
  9  3  1  0  0  0  0
 10  3  1  0  0  0  0
 11  4  1  0  0  0  0
 16  1  1  0  0  0  0
 16 17  1  0  0  0  0
 18 16  1  0  0  0  0
 19 21  1  0  0  0  0
 19 16  1  0  0  0  0
 20 19  1  0  0  0  0
 22 23  1  0  0  0  0
 23 29  1  0  0  0  0
 23 24  2  0  0  0  0
 24 19  1  0  0  0  0
 25 24  1  0  0  0  0
 26 25  2  0  0  0  0
 27 22  2  0  0  0  0
 27 26  1  0  0  0  0
 28 22  1  0  0  0  0
 30 26  1  0  0  0  0
 31 33  1  0  0  0  0
 33 32  2  6  0  0  0
 33 36  1  0  0  0  0
 33 34  1  0  0  0  0
 34 35  1  0  0  0  0
 37 36  1  0  0  0  0
 37 40  1  0  0  0  0
 38 37  1  0  0  0  0
 39 37  1  0  0  0  0
 40 41  1  0  0  0  0
 40 47  1  0  0  0  0
 41 42  2  0  0  0  0
 42 43  1  0  0  0  0
 42 44  1  0  0  0  0
 44 45  2  0  0  0  0
 46 44  1  0  0  0  0
 46 49  1  0  0  0  0
 47 46  1  0  0  0  0
 48 47  2  0  0  0  0
M  END
>  <minimizedAffinity>
-4.51337242

>  <minimizedRMSD>
2.53414798

$$$$
