
 OpenBabel03252506183D

 24 25  0  0  0  0  0  0  0  0999 V2000
   44.9120   35.8740   43.4840 C   0  0  0  0  0  0  0  0  0  0  0  0
   44.4720   35.8720   42.1480 C   0  0  0  0  0  0  0  0  0  0  0  0
   44.5120   34.6820   41.4340 C   0  0  0  0  0  0  0  0  0  0  0  0
   44.9750   33.5800   42.0650 N   0  0  0  0  0  0  0  0  0  0  0  0
   45.3910   33.6040   43.3510 C   0  0  0  0  0  0  0  0  0  0  0  0
   45.3590   34.7380   44.0470 N   0  0  0  0  0  0  0  0  0  0  0  0
   44.1260   36.8090   41.7540 H   0  0  0  0  0  0  0  0  0  0  0  0
   44.1740   34.6800   40.4050 H   0  0  0  0  0  0  0  0  0  0  0  0
   45.8480   32.3580   43.8600 N   0  0  0  0  0  0  0  0  0  0  0  0
   46.9900   32.2400   44.5940 C   0  0  0  0  0  3  0  0  0  0  0  0
   47.4090   31.0150   45.0760 C   0  0  0  0  0  0  0  0  0  0  0  0
   48.3330   30.9750   45.6590 H   0  0  0  0  0  0  0  0  0  0  0  0
   46.6600   29.8860   44.8140 C   0  0  0  0  0  0  0  0  0  0  0  0
   47.0620   28.7920   45.2640 O   0  0  0  0  0  0  0  0  0  0  0  0
   45.5280   30.0520   44.0790 N   0  0  0  0  0  0  0  0  0  0  0  0
   45.1310   31.2500   43.6150 C   0  0  0  0  0  0  0  0  0  0  0  0
   44.0510   31.2390   42.9440 O   0  0  0  0  0  0  0  0  0  0  0  0
   45.0220   29.1290   43.9320 H   0  0  0  0  0  0  0  0  0  0  0  0
   44.8750   37.1290   44.2550 C   0  0  0  0  0  3  0  0  0  0  0  0
   45.3600   38.2110   43.6600 C   0  0  0  0  0  3  0  0  0  0  0  0
   45.3540   39.5140   44.3880 C   0  0  0  0  0  0  0  0  0  0  0  0
   45.3830   40.3160   43.5980 H   0  0  0  0  0  0  0  0  0  0  0  0
   44.4970   39.6210   45.0670 H   0  0  0  0  0  0  0  0  0  0  0  0
   46.2800   39.5840   44.9900 H   0  0  0  0  0  0  0  0  0  0  0  0
  1  6  1  0  0  0  0
  1 19  1  0  0  0  0
  2  1  2  0  0  0  0
  3  4  2  0  0  0  0
  3  2  1  0  0  0  0
  4  5  1  0  0  0  0
  5  9  1  0  0  0  0
  5  6  2  0  0  0  0
  7  2  1  0  0  0  0
  8  3  1  0  0  0  0
  9 10  1  0  0  0  0
 10 11  2  0  0  0  0
 11 12  1  0  0  0  0
 13 11  1  0  0  0  0
 13 14  2  0  0  0  0
 15 13  1  0  0  0  0
 16  9  1  0  0  0  0
 16 15  1  0  0  0  0
 17 16  2  0  0  0  0
 18 15  1  0  0  0  0
 20 19  2  0  0  0  0
 20 21  1  0  0  0  0
 21 24  1  0  0  0  0
 21 23  1  0  0  0  0
 22 21  1  0  0  0  0
M  END
>  <minimizedAffinity>
-3.36868334

>  <minimizedRMSD>
0.592445612

$$$$
