
 OpenBabel03252507073D

 25 26  0  0  0  0  0  0  0  0999 V2000
   44.6040   35.4200   44.5130 C   0  0  0  0  0  0  0  0  0  0  0  0
   45.3530   35.8310   43.3760 C   0  0  0  0  0  0  0  0  0  0  0  0
   46.3310   34.9640   42.9050 C   0  0  0  0  0  0  0  0  0  0  0  0
   46.5260   33.7700   43.5500 N   0  0  0  0  0  0  0  0  0  0  0  0
   45.7900   33.4190   44.6310 C   0  0  0  0  0  0  0  0  0  0  0  0
   44.8340   34.2400   45.1090 N   0  0  0  0  0  0  0  0  0  0  0  0
   43.8390   36.0670   44.9040 H   0  0  0  0  0  0  0  0  0  0  0  0
   45.1220   36.7990   42.9340 H   0  0  0  0  0  0  0  0  0  0  0  0
   46.1860   32.1400   45.1120 N   0  0  0  0  0  0  0  0  0  0  0  0
   47.2820   32.0940   45.8960 C   0  0  0  0  0  3  0  0  0  0  0  0
   47.6830   30.8400   46.3750 C   0  0  0  0  0  0  0  0  0  0  0  0
   48.5560   30.7870   47.0010 H   0  0  0  0  0  0  0  0  0  0  0  0
   46.9330   29.7410   46.0170 C   0  0  0  0  0  0  0  0  0  0  0  0
   47.2890   28.6060   46.4470 O   0  0  0  0  0  0  0  0  0  0  0  0
   45.8440   29.8330   45.2320 N   0  0  0  0  0  0  0  0  0  0  0  0
   45.4710   31.0500   44.7760 C   0  0  0  0  0  0  0  0  0  0  0  0
   44.4480   31.0930   44.0460 O   0  0  0  0  0  0  0  0  0  0  0  0
   45.3130   28.9550   44.9940 H   0  0  0  0  0  0  0  0  0  0  0  0
   47.0640   35.3580   41.7960 O   0  0  0  0  0  0  0  0  0  0  0  0
   48.9610   33.7640   40.8500 O   0  0  0  0  0  0  0  0  0  0  0  0
   48.7420   35.0020   41.7260 P   0  0  0  0  0  0  0  0  0  0  0  0
   49.5440   36.3340   41.1290 O   0  0  0  0  0  0  0  0  0  0  0  0
   49.5050   36.2820   40.1390 H   0  0  0  0  0  0  0  0  0  0  0  0
   49.2360   34.5960   43.2970 O   0  0  0  0  0  0  0  0  0  0  0  0
   49.3440   35.4560   43.7830 H   0  0  0  0  0  0  0  0  0  0  0  0
  1  7  1  0  0  0  0
  1  6  1  0  0  0  0
  2  1  2  0  0  0  0
  3  2  1  0  0  0  0
  3  4  2  0  0  0  0
  4  5  1  0  0  0  0
  5  6  2  0  0  0  0
  5  9  1  0  0  0  0
  8  2  1  0  0  0  0
  9 10  1  0  0  0  0
 10 11  2  0  0  0  0
 11 12  1  0  0  0  0
 13 11  1  0  0  0  0
 13 14  2  0  0  0  0
 15 13  1  0  0  0  0
 16  9  1  0  0  0  0
 16 15  1  0  0  0  0
 17 16  2  0  0  0  0
 18 15  1  0  0  0  0
 19  3  1  0  0  0  0
 20 21  2  0  0  0  0
 21 19  1  0  0  0  0
 21 24  1  0  0  0  0
 22 21  1  0  0  0  0
 23 22  1  0  0  0  0
 24 25  1  0  0  0  0
M  END
>  <minimizedAffinity>
-3.97587252

>  <minimizedRMSD>
1.06199467

$$$$
