
 OpenBabel03252506193D

 24 25  0  0  0  0  0  0  0  0999 V2000
   44.8700   35.6870   44.0940 C   0  0  0  0  0  0  0  0  0  0  0  0
   44.4630   35.1900   42.8420 C   0  0  0  0  0  0  0  0  0  0  0  0
   44.5740   33.8290   42.5960 C   0  0  0  0  0  0  0  0  0  0  0  0
   45.0720   33.0460   43.5800 N   0  0  0  0  0  0  0  0  0  0  0  0
   45.4560   33.5450   44.7760 C   0  0  0  0  0  0  0  0  0  0  0  0
   45.3540   34.8480   45.0260 N   0  0  0  0  0  0  0  0  0  0  0  0
   44.0840   35.9080   42.1400 H   0  0  0  0  0  0  0  0  0  0  0  0
   44.2620   33.4460   41.6330 H   0  0  0  0  0  0  0  0  0  0  0  0
   45.9560   32.5840   45.6970 N   0  0  0  0  0  0  0  0  0  0  0  0
   45.8290   32.7280   47.0470 C   0  0  0  0  0  3  0  0  0  0  0  0
   46.3250   31.7780   47.9180 C   0  0  0  0  0  0  0  0  0  0  0  0
   46.1980   31.9410   48.9920 H   0  0  0  0  0  0  0  0  0  0  0  0
   46.9610   30.6590   47.4200 C   0  0  0  0  0  0  0  0  0  0  0  0
   47.3990   29.8170   48.2310 O   0  0  0  0  0  0  0  0  0  0  0  0
   47.0640   30.5580   46.0670 N   0  0  0  0  0  0  0  0  0  0  0  0
   46.5770   31.4900   45.2290 C   0  0  0  0  0  0  0  0  0  0  0  0
   46.7520   31.2510   43.9920 O   0  0  0  0  0  0  0  0  0  0  0  0
   47.5660   29.6670   45.7820 H   0  0  0  0  0  0  0  0  0  0  0  0
   44.7570   37.1300   44.3710 C   0  0  0  0  0  3  0  0  0  0  0  0
   45.4450   37.9460   43.5820 C   0  0  0  0  0  3  0  0  0  0  0  0
   45.3760   39.4190   43.8100 C   0  0  0  0  0  0  0  0  0  0  0  0
   45.6430   39.9020   42.8280 H   0  0  0  0  0  0  0  0  0  0  0  0
   44.3990   39.7480   44.1900 H   0  0  0  0  0  0  0  0  0  0  0  0
   46.1460   39.6950   44.5560 H   0  0  0  0  0  0  0  0  0  0  0  0
  1 19  1  0  0  0  0
  1  6  1  0  0  0  0
  2  1  2  0  0  0  0
  3  2  1  0  0  0  0
  3  4  2  0  0  0  0
  4  5  1  0  0  0  0
  5  6  2  0  0  0  0
  5  9  1  0  0  0  0
  7  2  1  0  0  0  0
  8  3  1  0  0  0  0
  9 10  1  0  0  0  0
 10 11  2  0  0  0  0
 11 12  1  0  0  0  0
 13 11  1  0  0  0  0
 13 14  2  0  0  0  0
 15 13  1  0  0  0  0
 16  9  1  0  0  0  0
 16 15  1  0  0  0  0
 17 16  2  0  0  0  0
 18 15  1  0  0  0  0
 20 21  1  0  0  0  0
 20 19  2  0  0  0  0
 21 23  1  0  0  0  0
 21 24  1  0  0  0  0
 22 21  1  0  0  0  0
M  END
>  <minimizedAffinity>
-3.92575336

>  <minimizedRMSD>
1.72951591

$$$$
