
 OpenBabel03252505313D

 28 29  0  0  0  0  0  0  0  0999 V2000
   37.3380   29.2300   40.0850 O   0  0  0  0  0  0  0  0  0  0  0  0
   37.0210   30.2310   41.2040 P   0  0  1  0  0  0  0  0  0  0  0  0
   35.4490   30.7850   41.1100 O   0  0  0  0  0  0  0  0  0  0  0  0
   35.3500   31.7680   41.1890 H   0  0  0  0  0  0  0  0  0  0  0  0
   37.3330   29.4500   42.6810 O   0  0  0  0  0  0  0  0  0  0  0  0
   39.1720   26.5860   43.6800 C   0  0  0  0  0  0  0  0  0  0  0  0
   40.5300   26.9260   43.4810 C   0  0  0  0  0  0  0  0  0  0  0  0
   40.7530   28.2270   42.9730 C   0  0  0  0  0  0  0  0  0  0  0  0
   39.6720   29.0380   42.7190 N   0  0  0  0  0  0  0  0  0  0  0  0
   38.4220   28.6330   42.9360 C   0  0  0  0  0  0  0  0  0  0  0  0
   38.1760   27.4210   43.4130 N   0  0  0  0  0  0  0  0  0  0  0  0
   38.9780   25.5780   44.0740 H   0  0  0  0  0  0  0  0  0  0  0  0
   41.3520   26.2530   43.6970 H   0  0  0  0  0  0  0  0  0  0  0  0
   41.7680   28.5640   42.7920 H   0  0  0  0  0  0  0  0  0  0  0  0
   38.0530   31.5500   40.9800 O   0  0  0  0  0  0  0  0  0  0  0  0
   37.6860   32.1790   39.8030 C   0  0  0  0  0  0  0  0  0  0  0  0
   37.0180   31.5630   39.1720 H   0  0  0  0  0  0  0  0  0  0  0  0
   37.1720   33.1460   39.9460 H   0  0  0  0  0  0  0  0  0  0  0  0
   38.9080   32.4300   39.0530 N   0  0  0  0  0  0  0  0  0  0  0  0
   39.9530   33.0760   39.6340 C   0  0  0  0  0  3  0  0  0  0  0  0
   41.1100   33.3000   38.8850 C   0  0  0  0  0  0  0  0  0  0  0  0
   41.9220   33.8150   39.3760 H   0  0  0  0  0  0  0  0  0  0  0  0
   41.1470   32.8550   37.5800 C   0  0  0  0  0  0  0  0  0  0  0  0
   42.2190   33.0920   36.9710 O   0  0  0  0  0  0  0  0  0  0  0  0
   40.1250   32.2200   37.0010 N   0  0  0  0  0  0  0  0  0  0  0  0
   39.0540   32.0400   37.7740 C   0  0  0  0  0  0  0  0  0  0  0  0
   38.0370   31.4400   37.2880 O   0  0  0  0  0  0  0  0  0  0  0  0
   40.1690   31.8900   36.0140 H   0  0  0  0  0  0  0  0  0  0  0  0
  2  1  2  6  0  0  0
  2  5  1  0  0  0  0
  3  4  1  0  0  0  0
  3  2  1  0  0  0  0
  5 10  1  0  0  0  0
  6 12  1  0  0  0  0
  7  6  1  0  0  0  0
  7 13  1  0  0  0  0
  8  7  2  0  0  0  0
  9 10  2  0  0  0  0
  9  8  1  0  0  0  0
 10 11  1  0  0  0  0
 11  6  2  0  0  0  0
 14  8  1  0  0  0  0
 15  2  1  0  0  0  0
 16 18  1  0  0  0  0
 16 15  1  0  0  0  0
 17 16  1  0  0  0  0
 19 20  1  0  0  0  0
 19 16  1  0  0  0  0
 21 22  1  0  0  0  0
 21 20  2  0  0  0  0
 23 21  1  0  0  0  0
 24 23  2  0  0  0  0
 25 23  1  0  0  0  0
 25 26  1  0  0  0  0
 26 19  1  0  0  0  0
 27 26  2  0  0  0  0
 28 25  1  0  0  0  0
M  END
>  <minimizedAffinity>
-5.41300964

$$$$

 OpenBabel03252505313D

 28 29  0  0  0  0  0  0  0  0999 V2000
   35.4900   29.8290   39.0560 O   0  0  0  0  0  0  0  0  0  0  0  0
   36.1910   29.8570   40.4210 P   0  0  1  0  0  0  0  0  0  0  0  0
   35.5690   31.0490   41.4110 O   0  0  0  0  0  0  0  0  0  0  0  0
   36.2500   31.6140   41.8590 H   0  0  0  0  0  0  0  0  0  0  0  0
   36.0210   28.3100   41.1050 O   0  0  0  0  0  0  0  0  0  0  0  0
   38.2010   25.6890   42.0830 C   0  0  0  0  0  0  0  0  0  0  0  0
   38.9500   26.2100   43.1640 C   0  0  0  0  0  0  0  0  0  0  0  0
   38.6360   27.5410   43.5240 C   0  0  0  0  0  0  0  0  0  0  0  0
   37.6600   28.2090   42.8210 N   0  0  0  0  0  0  0  0  0  0  0  0
   37.0030   27.6380   41.8120 C   0  0  0  0  0  0  0  0  0  0  0  0
   37.2710   26.3920   41.4490 N   0  0  0  0  0  0  0  0  0  0  0  0
   38.4310   24.6550   41.7890 H   0  0  0  0  0  0  0  0  0  0  0  0
   39.7110   25.6450   43.6910 H   0  0  0  0  0  0  0  0  0  0  0  0
   39.1660   28.0140   44.3430 H   0  0  0  0  0  0  0  0  0  0  0  0
   37.8140   30.2190   40.1250 O   0  0  0  0  0  0  0  0  0  0  0  0
   38.1300   29.7450   38.8630 C   0  0  0  0  0  0  0  0  0  0  0  0
   38.4830   28.6970   38.8700 H   0  0  0  0  0  0  0  0  0  0  0  0
   37.2960   29.7850   38.1410 H   0  0  0  0  0  0  0  0  0  0  0  0
   39.2060   30.5800   38.3500 N   0  0  0  0  0  0  0  0  0  0  0  0
   40.4910   30.3580   38.7310 C   0  0  0  0  0  3  0  0  0  0  0  0
   41.4990   31.1790   38.2180 C   0  0  0  0  0  0  0  0  0  0  0  0
   42.5100   30.9760   38.5400 H   0  0  0  0  0  0  0  0  0  0  0  0
   41.1490   32.1850   37.3430 C   0  0  0  0  0  0  0  0  0  0  0  0
   42.1070   32.8800   36.9260 O   0  0  0  0  0  0  0  0  0  0  0  0
   39.8880   32.4100   36.9640 N   0  0  0  0  0  0  0  0  0  0  0  0
   38.9800   31.5890   37.4910 C   0  0  0  0  0  0  0  0  0  0  0  0
   37.7520   31.7450   37.1740 O   0  0  0  0  0  0  0  0  0  0  0  0
   39.6400   33.1750   36.3010 H   0  0  0  0  0  0  0  0  0  0  0  0
  2  1  2  6  0  0  0
  2  5  1  0  0  0  0
  2  3  1  0  0  0  0
  3  4  1  0  0  0  0
  5 10  1  0  0  0  0
  6  7  1  0  0  0  0
  7  8  2  0  0  0  0
  7 13  1  0  0  0  0
  8 14  1  0  0  0  0
  9  8  1  0  0  0  0
 10  9  2  0  0  0  0
 11 10  1  0  0  0  0
 11  6  2  0  0  0  0
 12  6  1  0  0  0  0
 15  2  1  0  0  0  0
 16 17  1  0  0  0  0
 16 15  1  0  0  0  0
 18 16  1  0  0  0  0
 19 20  1  0  0  0  0
 19 16  1  0  0  0  0
 21 22  1  0  0  0  0
 21 20  2  0  0  0  0
 23 21  1  0  0  0  0
 24 23  2  0  0  0  0
 25 23  1  0  0  0  0
 25 26  1  0  0  0  0
 26 19  1  0  0  0  0
 27 26  2  0  0  0  0
 28 25  1  0  0  0  0
M  END
>  <minimizedAffinity>
-5.20911503

$$$$

 OpenBabel03252505313D

 28 29  0  0  0  0  0  0  0  0999 V2000
   36.5410   31.0110   38.7970 O   0  0  0  0  0  0  0  0  0  0  0  0
   37.1840   31.6370   40.0420 P   0  0  1  0  0  0  0  0  0  0  0  0
   36.8760   33.2750   40.1390 O   0  0  0  0  0  0  0  0  0  0  0  0
   37.6700   33.8360   40.3340 H   0  0  0  0  0  0  0  0  0  0  0  0
   36.5860   30.7960   41.3920 O   0  0  0  0  0  0  0  0  0  0  0  0
   38.5340   28.4250   43.1730 C   0  0  0  0  0  0  0  0  0  0  0  0
   38.0370   27.1610   42.7780 C   0  0  0  0  0  0  0  0  0  0  0  0
   36.9730   27.2010   41.8450 C   0  0  0  0  0  0  0  0  0  0  0  0
   36.5170   28.4220   41.4060 N   0  0  0  0  0  0  0  0  0  0  0  0
   37.0460   29.5670   41.8340 C   0  0  0  0  0  0  0  0  0  0  0  0
   38.0440   29.5670   42.7070 N   0  0  0  0  0  0  0  0  0  0  0  0
   39.3600   28.4150   43.8970 H   0  0  0  0  0  0  0  0  0  0  0  0
   38.4290   26.2220   43.1500 H   0  0  0  0  0  0  0  0  0  0  0  0
   36.5360   26.2730   41.4930 H   0  0  0  0  0  0  0  0  0  0  0  0
   38.8530   31.4280   39.8810 O   0  0  0  0  0  0  0  0  0  0  0  0
   39.2530   32.0870   38.7320 C   0  0  0  0  0  0  0  0  0  0  0  0
   38.4100   32.3380   38.0610 H   0  0  0  0  0  0  0  0  0  0  0  0
   39.7950   33.0310   38.9150 H   0  0  0  0  0  0  0  0  0  0  0  0
   40.1470   31.1900   38.0140 N   0  0  0  0  0  0  0  0  0  0  0  0
   39.9410   29.8470   38.0380 C   0  0  0  0  0  3  0  0  0  0  0  0
   40.8190   29.0160   37.3380 C   0  0  0  0  0  0  0  0  0  0  0  0
   40.6260   27.9540   37.3760 H   0  0  0  0  0  0  0  0  0  0  0  0
   41.8640   29.5930   36.6480 C   0  0  0  0  0  0  0  0  0  0  0  0
   42.6100   28.7840   36.0450 O   0  0  0  0  0  0  0  0  0  0  0  0
   42.0740   30.9120   36.6200 N   0  0  0  0  0  0  0  0  0  0  0  0
   41.1980   31.6430   37.3090 C   0  0  0  0  0  0  0  0  0  0  0  0
   41.3370   32.9130   37.3280 O   0  0  0  0  0  0  0  0  0  0  0  0
   42.8690   31.3320   36.0940 H   0  0  0  0  0  0  0  0  0  0  0  0
  2  1  2  6  0  0  0
  2  3  1  0  0  0  0
  2  5  1  0  0  0  0
  3  4  1  0  0  0  0
  5 10  1  0  0  0  0
  6 12  1  0  0  0  0
  7 13  1  0  0  0  0
  7  6  1  0  0  0  0
  8  7  2  0  0  0  0
  9 10  2  0  0  0  0
  9  8  1  0  0  0  0
 10 11  1  0  0  0  0
 11  6  2  0  0  0  0
 14  8  1  0  0  0  0
 15  2  1  0  0  0  0
 16 18  1  0  0  0  0
 16 15  1  0  0  0  0
 17 16  1  0  0  0  0
 19 20  1  0  0  0  0
 19 16  1  0  0  0  0
 21 22  1  0  0  0  0
 21 20  2  0  0  0  0
 23 21  1  0  0  0  0
 24 23  2  0  0  0  0
 25 23  1  0  0  0  0
 25 26  1  0  0  0  0
 26 27  2  0  0  0  0
 26 19  1  0  0  0  0
 28 25  1  0  0  0  0
M  END
>  <minimizedAffinity>
-4.84599113

$$$$

 OpenBabel03252505313D

 28 29  0  0  0  0  0  0  0  0999 V2000
   37.7650   32.6810   40.6740 O   0  0  0  0  0  0  0  0  0  0  0  0
   37.2100   31.2660   40.4650 P   0  0  1  0  0  0  0  0  0  0  0  0
   35.7860   31.0300   41.3050 O   0  0  0  0  0  0  0  0  0  0  0  0
   35.7470   30.1890   41.8270 H   0  0  0  0  0  0  0  0  0  0  0  0
   37.0050   31.0480   38.7920 O   0  0  0  0  0  0  0  0  0  0  0  0
   34.4880   28.5710   38.4620 C   0  0  0  0  0  0  0  0  0  0  0  0
   34.5830   28.1180   37.1250 C   0  0  0  0  0  0  0  0  0  0  0  0
   35.5900   28.7410   36.3520 C   0  0  0  0  0  0  0  0  0  0  0  0
   36.3750   29.7080   36.9350 N   0  0  0  0  0  0  0  0  0  0  0  0
   36.2140   30.0750   38.2050 C   0  0  0  0  0  0  0  0  0  0  0  0
   35.2810   29.5100   38.9600 N   0  0  0  0  0  0  0  0  0  0  0  0
   33.7110   28.0980   39.0790 H   0  0  0  0  0  0  0  0  0  0  0  0
   33.9410   27.3500   36.7080 H   0  0  0  0  0  0  0  0  0  0  0  0
   35.7260   28.4500   35.3160 H   0  0  0  0  0  0  0  0  0  0  0  0
   38.3640   30.1980   41.0840 O   0  0  0  0  0  0  0  0  0  0  0  0
   37.9360   29.7900   42.3350 C   0  0  0  0  0  0  0  0  0  0  0  0
   38.5170   30.2420   43.1610 H   0  0  0  0  0  0  0  0  0  0  0  0
   36.8750   30.0120   42.5470 H   0  0  0  0  0  0  0  0  0  0  0  0
   38.1110   28.3470   42.3980 N   0  0  0  0  0  0  0  0  0  0  0  0
   39.3260   27.8120   42.6880 C   0  0  0  0  0  3  0  0  0  0  0  0
   39.4590   26.4230   42.7400 C   0  0  0  0  0  0  0  0  0  0  0  0
   40.4370   26.0310   42.9730 H   0  0  0  0  0  0  0  0  0  0  0  0
   38.3470   25.6450   42.4940 C   0  0  0  0  0  0  0  0  0  0  0  0
   38.5430   24.4070   42.5580 O   0  0  0  0  0  0  0  0  0  0  0  0
   37.1490   26.1620   42.2080 N   0  0  0  0  0  0  0  0  0  0  0  0
   37.0960   27.4930   42.1760 C   0  0  0  0  0  0  0  0  0  0  0  0
   35.9820   28.0590   41.9090 O   0  0  0  0  0  0  0  0  0  0  0  0
   36.3190   25.5600   42.0250 H   0  0  0  0  0  0  0  0  0  0  0  0
  2  1  2  1  0  0  0
  2 15  1  0  0  0  0
  2  3  1  0  0  0  0
  3  4  1  0  0  0  0
  5  2  1  0  0  0  0
  6 11  1  0  0  0  0
  6 12  1  0  0  0  0
  7  6  2  0  0  0  0
  8  9  2  0  0  0  0
  8  7  1  0  0  0  0
  9 10  1  0  0  0  0
 10  5  1  0  0  0  0
 10 11  2  0  0  0  0
 13  7  1  0  0  0  0
 14  8  1  0  0  0  0
 15 16  1  0  0  0  0
 16 19  1  0  0  0  0
 16 18  1  0  0  0  0
 16 17  1  0  0  0  0
 19 20  1  0  0  0  0
 20 21  2  0  0  0  0
 21 22  1  0  0  0  0
 23 24  2  0  0  0  0
 23 21  1  0  0  0  0
 25 23  1  0  0  0  0
 26 25  1  0  0  0  0
 26 19  1  0  0  0  0
 27 26  2  0  0  0  0
 28 25  1  0  0  0  0
M  END
>  <minimizedAffinity>
-4.74582481

$$$$

 OpenBabel03252505313D

 28 29  0  0  0  0  0  0  0  0999 V2000
   37.2020   32.6950   38.6750 O   0  0  0  0  0  0  0  0  0  0  0  0
   38.1880   31.7440   37.9840 P   0  0  1  0  0  0  0  0  0  0  0  0
   38.5150   32.2230   36.4180 O   0  0  0  0  0  0  0  0  0  0  0  0
   38.4630   31.4990   35.7430 H   0  0  0  0  0  0  0  0  0  0  0  0
   39.5920   31.6960   38.9400 O   0  0  0  0  0  0  0  0  0  0  0  0
   40.1270   29.0280   41.2160 C   0  0  0  0  0  0  0  0  0  0  0  0
   39.9760   29.5980   42.5020 C   0  0  0  0  0  0  0  0  0  0  0  0
   39.6750   30.9800   42.5120 C   0  0  0  0  0  0  0  0  0  0  0  0
   39.5540   31.6450   41.3140 N   0  0  0  0  0  0  0  0  0  0  0  0
   39.7140   31.0260   40.1460 C   0  0  0  0  0  0  0  0  0  0  0  0
   39.9960   29.7310   40.0980 N   0  0  0  0  0  0  0  0  0  0  0  0
   40.3610   27.9540   41.1870 H   0  0  0  0  0  0  0  0  0  0  0  0
   40.0800   29.0330   43.4210 H   0  0  0  0  0  0  0  0  0  0  0  0
   39.5440   31.4920   43.4590 H   0  0  0  0  0  0  0  0  0  0  0  0
   37.4390   30.2310   37.9210 O   0  0  0  0  0  0  0  0  0  0  0  0
   36.2870   30.2980   38.6860 C   0  0  0  0  0  0  0  0  0  0  0  0
   36.1090   31.3020   39.1140 H   0  0  0  0  0  0  0  0  0  0  0  0
   35.3650   30.0250   38.1430 H   0  0  0  0  0  0  0  0  0  0  0  0
   36.4500   29.3610   39.7870 N   0  0  0  0  0  0  0  0  0  0  0  0
   36.7040   28.0480   39.5440 C   0  0  0  0  0  3  0  0  0  0  0  0
   36.8550   27.1770   40.6250 C   0  0  0  0  0  0  0  0  0  0  0  0
   37.0570   26.1410   40.3980 H   0  0  0  0  0  0  0  0  0  0  0  0
   36.7400   27.6850   41.9020 C   0  0  0  0  0  0  0  0  0  0  0  0
   36.8870   26.8430   42.8210 O   0  0  0  0  0  0  0  0  0  0  0  0
   36.4900   28.9730   42.1500 N   0  0  0  0  0  0  0  0  0  0  0  0
   36.3590   29.7460   41.0730 C   0  0  0  0  0  0  0  0  0  0  0  0
   36.1180   30.9900   41.2330 O   0  0  0  0  0  0  0  0  0  0  0  0
   36.4060   29.3410   43.1220 H   0  0  0  0  0  0  0  0  0  0  0  0
  2  1  2  1  0  0  0
  2  5  1  0  0  0  0
  3  2  1  0  0  0  0
  4  3  1  0  0  0  0
  5 10  1  0  0  0  0
  6  7  1  0  0  0  0
  7  8  2  0  0  0  0
  7 13  1  0  0  0  0
  8 14  1  0  0  0  0
  9  8  1  0  0  0  0
 10  9  2  0  0  0  0
 11 10  1  0  0  0  0
 11  6  2  0  0  0  0
 12  6  1  0  0  0  0
 15  2  1  0  0  0  0
 15 16  1  0  0  0  0
 16 17  1  0  0  0  0
 16 19  1  0  0  0  0
 18 16  1  0  0  0  0
 19 26  1  0  0  0  0
 20 19  1  0  0  0  0
 20 21  2  0  0  0  0
 21 23  1  0  0  0  0
 22 21  1  0  0  0  0
 23 25  1  0  0  0  0
 23 24  2  0  0  0  0
 25 28  1  0  0  0  0
 26 27  2  0  0  0  0
 26 25  1  0  0  0  0
M  END
>  <minimizedAffinity>
-4.72907352

$$$$

 OpenBabel03252505313D

 28 29  0  0  0  0  0  0  0  0999 V2000
   35.3400   28.9740   40.9240 O   0  0  0  0  0  0  0  0  0  0  0  0
   36.8160   29.0560   41.3370 P   0  0  1  0  0  0  0  0  0  0  0  0
   36.9890   29.5700   42.9160 O   0  0  0  0  0  0  0  0  0  0  0  0
   37.6600   30.2880   43.0470 H   0  0  0  0  0  0  0  0  0  0  0  0
   37.4920   27.5160   41.0930 O   0  0  0  0  0  0  0  0  0  0  0  0
   40.0530   27.1440   43.5190 C   0  0  0  0  0  0  0  0  0  0  0  0
   40.2180   25.7490   43.6780 C   0  0  0  0  0  0  0  0  0  0  0  0
   39.3690   24.9510   42.8760 C   0  0  0  0  0  0  0  0  0  0  0  0
   38.4770   25.5680   42.0290 N   0  0  0  0  0  0  0  0  0  0  0  0
   38.3900   26.8940   41.9450 C   0  0  0  0  0  0  0  0  0  0  0  0
   39.1700   27.6730   42.6810 N   0  0  0  0  0  0  0  0  0  0  0  0
   40.7040   27.7810   44.1350 H   0  0  0  0  0  0  0  0  0  0  0  0
   40.9360   25.3050   44.3580 H   0  0  0  0  0  0  0  0  0  0  0  0
   39.4330   23.8700   42.9400 H   0  0  0  0  0  0  0  0  0  0  0  0
   37.5360   30.2070   40.3310 O   0  0  0  0  0  0  0  0  0  0  0  0
   37.4800   31.4290   40.9780 C   0  0  0  0  0  0  0  0  0  0  0  0
   36.6840   32.0900   40.5870 H   0  0  0  0  0  0  0  0  0  0  0  0
   37.3160   31.3590   42.0680 H   0  0  0  0  0  0  0  0  0  0  0  0
   38.7600   32.0870   40.7600 N   0  0  0  0  0  0  0  0  0  0  0  0
   38.9270   32.9400   39.7160 C   0  0  0  0  0  3  0  0  0  0  0  0
   40.1680   33.5540   39.5370 C   0  0  0  0  0  0  0  0  0  0  0  0
   40.2680   34.2280   38.6990 H   0  0  0  0  0  0  0  0  0  0  0  0
   41.1800   33.2690   40.4290 C   0  0  0  0  0  0  0  0  0  0  0  0
   42.2660   33.8570   40.2040 O   0  0  0  0  0  0  0  0  0  0  0  0
   41.0240   32.4310   41.4580 N   0  0  0  0  0  0  0  0  0  0  0  0
   39.8150   31.8820   41.5680 C   0  0  0  0  0  0  0  0  0  0  0  0
   39.5930   31.0690   42.5280 O   0  0  0  0  0  0  0  0  0  0  0  0
   41.8000   32.2260   42.1230 H   0  0  0  0  0  0  0  0  0  0  0  0
  2  1  2  6  0  0  0
  2  3  1  0  0  0  0
  3  4  1  0  0  0  0
  5  2  1  0  0  0  0
  5 10  1  0  0  0  0
  6  7  1  0  0  0  0
  6 12  1  0  0  0  0
  7 13  1  0  0  0  0
  8 14  1  0  0  0  0
  8  7  2  0  0  0  0
  9  8  1  0  0  0  0
 10  9  2  0  0  0  0
 10 11  1  0  0  0  0
 11  6  2  0  0  0  0
 15 16  1  0  0  0  0
 15  2  1  0  0  0  0
 16 18  1  0  0  0  0
 17 16  1  0  0  0  0
 19 16  1  0  0  0  0
 19 26  1  0  0  0  0
 20 19  1  0  0  0  0
 21 20  2  0  0  0  0
 21 23  1  0  0  0  0
 22 21  1  0  0  0  0
 23 25  1  0  0  0  0
 24 23  2  0  0  0  0
 25 26  1  0  0  0  0
 25 28  1  0  0  0  0
 26 27  2  0  0  0  0
M  END
>  <minimizedAffinity>
-4.72306204

$$$$

 OpenBabel03252505313D

 28 29  0  0  0  0  0  0  0  0999 V2000
   36.4030   30.9000   38.6460 O   0  0  0  0  0  0  0  0  0  0  0  0
   36.7970   30.9860   40.1280 P   0  0  1  0  0  0  0  0  0  0  0  0
   35.4880   30.7250   41.1310 O   0  0  0  0  0  0  0  0  0  0  0  0
   35.3900   31.3850   41.8640 H   0  0  0  0  0  0  0  0  0  0  0  0
   38.0330   29.8480   40.3860 O   0  0  0  0  0  0  0  0  0  0  0  0
   39.4850   28.0760   43.0940 C   0  0  0  0  0  0  0  0  0  0  0  0
   38.4210   27.3510   43.6800 C   0  0  0  0  0  0  0  0  0  0  0  0
   37.1620   27.5290   43.0580 C   0  0  0  0  0  0  0  0  0  0  0  0
   37.0690   28.3630   41.9680 N   0  0  0  0  0  0  0  0  0  0  0  0
   38.1270   29.0080   41.4830 C   0  0  0  0  0  0  0  0  0  0  0  0
   39.3220   28.8650   42.0390 N   0  0  0  0  0  0  0  0  0  0  0  0
   40.4710   27.9500   43.5630 H   0  0  0  0  0  0  0  0  0  0  0  0
   38.5420   26.7030   44.5400 H   0  0  0  0  0  0  0  0  0  0  0  0
   36.2950   27.0070   43.4480 H   0  0  0  0  0  0  0  0  0  0  0  0
   37.3510   32.5610   40.3900 O   0  0  0  0  0  0  0  0  0  0  0  0
   37.9070   33.0160   39.2080 C   0  0  0  0  0  0  0  0  0  0  0  0
   37.6620   32.3770   38.3390 H   0  0  0  0  0  0  0  0  0  0  0  0
   37.6090   34.0420   38.9300 H   0  0  0  0  0  0  0  0  0  0  0  0
   39.3520   33.0010   39.3820 N   0  0  0  0  0  0  0  0  0  0  0  0
   39.9300   33.6840   40.4060 C   0  0  0  0  0  3  0  0  0  0  0  0
   41.3190   33.6480   40.5430 C   0  0  0  0  0  0  0  0  0  0  0  0
   41.7460   34.2000   41.3670 H   0  0  0  0  0  0  0  0  0  0  0  0
   42.0540   32.9200   39.6310 C   0  0  0  0  0  0  0  0  0  0  0  0
   43.2940   32.9350   39.8180 O   0  0  0  0  0  0  0  0  0  0  0  0
   41.4940   32.2470   38.6220 N   0  0  0  0  0  0  0  0  0  0  0  0
   40.1660   32.3240   38.5520 C   0  0  0  0  0  0  0  0  0  0  0  0
   39.5610   31.7060   37.6120 O   0  0  0  0  0  0  0  0  0  0  0  0
   42.0640   31.7010   37.9410 H   0  0  0  0  0  0  0  0  0  0  0  0
  2  1  2  6  0  0  0
  2  5  1  0  0  0  0
  2 15  1  0  0  0  0
  2  3  1  0  0  0  0
  3  4  1  0  0  0  0
  5 10  1  0  0  0  0
  6 12  1  0  0  0  0
  6  7  1  0  0  0  0
  7 13  1  0  0  0  0
  8 14  1  0  0  0  0
  8  7  2  0  0  0  0
  9  8  1  0  0  0  0
 10  9  2  0  0  0  0
 10 11  1  0  0  0  0
 11  6  2  0  0  0  0
 16 19  1  0  0  0  0
 16 15  1  0  0  0  0
 17 16  1  0  0  0  0
 18 16  1  0  0  0  0
 19 20  1  0  0  0  0
 20 21  2  0  0  0  0
 21 22  1  0  0  0  0
 23 24  2  0  0  0  0
 23 21  1  0  0  0  0
 25 23  1  0  0  0  0
 26 25  1  0  0  0  0
 26 19  1  0  0  0  0
 27 26  2  0  0  0  0
 28 25  1  0  0  0  0
M  END
>  <minimizedAffinity>
-4.70861197

$$$$

 OpenBabel03252505313D

 28 29  0  0  0  0  0  0  0  0999 V2000
   38.3730   32.6420   39.0590 O   0  0  0  0  0  0  0  0  0  0  0  0
   39.1460   31.6720   38.1540 P   0  0  1  0  0  0  0  0  0  0  0  0
   39.3070   32.2700   36.6040 O   0  0  0  0  0  0  0  0  0  0  0  0
   39.0840   31.6240   35.8850 H   0  0  0  0  0  0  0  0  0  0  0  0
   40.6530   31.3940   38.8880 O   0  0  0  0  0  0  0  0  0  0  0  0
   44.1500   31.3560   38.2930 C   0  0  0  0  0  0  0  0  0  0  0  0
   44.2960   30.9320   36.9510 C   0  0  0  0  0  0  0  0  0  0  0  0
   43.0840   30.6630   36.2730 C   0  0  0  0  0  0  0  0  0  0  0  0
   41.8940   30.8270   36.9440 N   0  0  0  0  0  0  0  0  0  0  0  0
   41.8510   31.2300   38.2130 C   0  0  0  0  0  0  0  0  0  0  0  0
   42.9670   31.4920   38.8780 N   0  0  0  0  0  0  0  0  0  0  0  0
   45.0810   31.5700   38.8360 H   0  0  0  0  0  0  0  0  0  0  0  0
   45.2560   30.8180   36.4620 H   0  0  0  0  0  0  0  0  0  0  0  0
   43.1110   30.3330   35.2410 H   0  0  0  0  0  0  0  0  0  0  0  0
   38.2330   30.2530   38.0750 O   0  0  0  0  0  0  0  0  0  0  0  0
   37.0180   30.4970   38.6920 C   0  0  0  0  0  0  0  0  0  0  0  0
   36.9290   31.5280   39.0800 H   0  0  0  0  0  0  0  0  0  0  0  0
   36.1390   30.3330   38.0440 H   0  0  0  0  0  0  0  0  0  0  0  0
   36.9200   29.5810   39.8190 N   0  0  0  0  0  0  0  0  0  0  0  0
   37.2440   28.2700   39.6730 C   0  0  0  0  0  3  0  0  0  0  0  0
   37.1370   27.4200   40.7760 C   0  0  0  0  0  0  0  0  0  0  0  0
   37.4030   26.3840   40.6260 H   0  0  0  0  0  0  0  0  0  0  0  0
   36.7060   27.9470   41.9750 C   0  0  0  0  0  0  0  0  0  0  0  0
   36.6360   27.1230   42.9190 O   0  0  0  0  0  0  0  0  0  0  0  0
   36.3860   29.2340   42.1270 N   0  0  0  0  0  0  0  0  0  0  0  0
   36.5110   29.9860   41.0350 C   0  0  0  0  0  0  0  0  0  0  0  0
   36.2210   31.2280   41.1050 O   0  0  0  0  0  0  0  0  0  0  0  0
   36.0610   29.6160   43.0410 H   0  0  0  0  0  0  0  0  0  0  0  0
  2  5  1  0  0  0  0
  2  1  2  1  0  0  0
  3  2  1  0  0  0  0
  4  3  1  0  0  0  0
  6 12  1  0  0  0  0
  6 11  1  0  0  0  0
  7  6  2  0  0  0  0
  8  9  2  0  0  0  0
  8  7  1  0  0  0  0
  9 10  1  0  0  0  0
 10 11  2  0  0  0  0
 10  5  1  0  0  0  0
 13  7  1  0  0  0  0
 14  8  1  0  0  0  0
 15  2  1  0  0  0  0
 15 16  1  0  0  0  0
 16 17  1  0  0  0  0
 16 19  1  0  0  0  0
 18 16  1  0  0  0  0
 19 26  1  0  0  0  0
 20 19  1  0  0  0  0
 20 21  2  0  0  0  0
 21 23  1  0  0  0  0
 22 21  1  0  0  0  0
 23 25  1  0  0  0  0
 23 24  2  0  0  0  0
 25 28  1  0  0  0  0
 26 27  2  0  0  0  0
 26 25  1  0  0  0  0
M  END
>  <minimizedAffinity>
-4.61404228

$$$$

 OpenBabel03252505313D

 28 29  0  0  0  0  0  0  0  0999 V2000
   36.2920   30.6340   39.3700 O   0  0  0  0  0  0  0  0  0  0  0  0
   37.3030   31.4000   40.2350 P   0  0  1  0  0  0  0  0  0  0  0  0
   36.9500   33.0310   40.2990 O   0  0  0  0  0  0  0  0  0  0  0  0
   37.7250   33.6290   40.1410 H   0  0  0  0  0  0  0  0  0  0  0  0
   37.2860   30.6850   41.7770 O   0  0  0  0  0  0  0  0  0  0  0  0
   38.3280   27.3400   41.2210 C   0  0  0  0  0  0  0  0  0  0  0  0
   38.4100   26.7560   42.5060 C   0  0  0  0  0  0  0  0  0  0  0  0
   38.0750   27.6170   43.5780 C   0  0  0  0  0  0  0  0  0  0  0  0
   37.7060   28.9130   43.3010 N   0  0  0  0  0  0  0  0  0  0  0  0
   37.6570   29.3800   42.0550 C   0  0  0  0  0  0  0  0  0  0  0  0
   37.9640   28.6010   41.0270 N   0  0  0  0  0  0  0  0  0  0  0  0
   38.5840   26.6860   40.3760 H   0  0  0  0  0  0  0  0  0  0  0  0
   38.7050   25.7270   42.6770 H   0  0  0  0  0  0  0  0  0  0  0  0
   38.1140   27.2440   44.5960 H   0  0  0  0  0  0  0  0  0  0  0  0
   38.8100   31.2200   39.4930 O   0  0  0  0  0  0  0  0  0  0  0  0
   38.8720   32.1140   38.4390 C   0  0  0  0  0  0  0  0  0  0  0  0
   38.6390   31.6500   37.4630 H   0  0  0  0  0  0  0  0  0  0  0  0
   38.1960   32.9810   38.5380 H   0  0  0  0  0  0  0  0  0  0  0  0
   40.2370   32.6150   38.3840 N   0  0  0  0  0  0  0  0  0  0  0  0
   41.1410   32.0630   37.5320 C   0  0  0  0  0  3  0  0  0  0  0  0
   42.4420   32.5690   37.5060 C   0  0  0  0  0  0  0  0  0  0  0  0
   43.1350   32.1090   36.8180 H   0  0  0  0  0  0  0  0  0  0  0  0
   42.7610   33.6130   38.3490 C   0  0  0  0  0  0  0  0  0  0  0  0
   43.9480   34.0130   38.2690 O   0  0  0  0  0  0  0  0  0  0  0  0
   41.8790   34.1610   39.1890 N   0  0  0  0  0  0  0  0  0  0  0  0
   40.6580   33.6300   39.1600 C   0  0  0  0  0  0  0  0  0  0  0  0
   39.7620   34.1030   39.9380 O   0  0  0  0  0  0  0  0  0  0  0  0
   42.1370   34.9500   39.8200 H   0  0  0  0  0  0  0  0  0  0  0  0
  2  1  2  6  0  0  0
  2  3  1  0  0  0  0
  2  5  1  0  0  0  0
  4  3  1  0  0  0  0
  5 10  1  0  0  0  0
  6  7  1  0  0  0  0
  7 13  1  0  0  0  0
  7  8  2  0  0  0  0
  8 14  1  0  0  0  0
  9  8  1  0  0  0  0
 10  9  2  0  0  0  0
 11  6  2  0  0  0  0
 11 10  1  0  0  0  0
 12  6  1  0  0  0  0
 15  2  1  0  0  0  0
 16 18  1  0  0  0  0
 16 15  1  0  0  0  0
 17 16  1  0  0  0  0
 19 16  1  0  0  0  0
 19 26  1  0  0  0  0
 20 19  1  0  0  0  0
 21 20  2  0  0  0  0
 21 23  1  0  0  0  0
 22 21  1  0  0  0  0
 23 25  1  0  0  0  0
 24 23  2  0  0  0  0
 25 28  1  0  0  0  0
 26 25  1  0  0  0  0
 26 27  2  0  0  0  0
M  END
>  <minimizedAffinity>
-4.5796299

$$$$
