
 OpenBabel03252505373D

 34 36  0  0  0  0  0  0  0  0999 V2000
   39.4970   30.5760   41.8150 C   0  0  0  0  0  0  0  0  0  0  0  0
   38.4720   29.8900   41.1220 C   0  0  0  0  0  0  0  0  0  0  0  0
   37.5430   30.6310   40.4260 C   0  0  0  0  0  0  0  0  0  0  0  0
   37.6630   31.9700   40.4450 N   0  0  0  0  0  0  0  0  0  0  0  0
   38.6560   32.6080   41.1200 C   0  0  0  0  0  0  0  0  0  0  0  0
   39.5690   31.9110   41.8010 N   0  0  0  0  0  0  0  0  0  0  0  0
   38.7390   34.0310   41.1240 N   0  0  0  0  0  0  0  0  0  0  0  0
   40.2690   30.0840   42.3890 H   0  0  0  0  0  0  0  0  0  0  0  0
   37.9840   34.2500   41.8390 H   0  0  0  0  0  0  0  0  0  0  0  0
   39.4820   34.3360   40.4470 H   0  0  0  0  0  0  0  0  0  0  0  0
   36.4690   30.0510   39.6860 C   0  0  0  0  0  0  0  0  0  0  0  0
   35.3380   29.6430   40.3930 C   0  0  0  0  0  0  0  0  0  0  0  0
   34.2260   29.0750   39.7750 C   0  0  0  0  0  0  0  0  0  0  0  0
   34.2360   28.9050   38.4150 C   0  0  0  0  0  0  0  0  0  0  0  0
   35.3390   29.3010   37.7040 C   0  0  0  0  0  0  0  0  0  0  0  0
   36.4440   29.8670   38.3280 C   0  0  0  0  0  0  0  0  0  0  0  0
   35.3070   29.7680   41.4770 H   0  0  0  0  0  0  0  0  0  0  0  0
   33.3650   28.7710   40.3610 H   0  0  0  0  0  0  0  0  0  0  0  0
   33.4070   28.4700   37.8630 H   0  0  0  0  0  0  0  0  0  0  0  0
   35.3910   29.1860   36.6330 H   0  0  0  0  0  0  0  0  0  0  0  0
   37.6260   30.3040   37.5560 C   0  0  0  0  0  0  0  0  0  0  0  0
   37.5880   31.6940   37.4680 F   0  0  0  0  0  0  0  0  0  0  0  0
   37.5890   29.7450   36.2950 F   0  0  0  0  0  0  0  0  0  0  0  0
   38.8320   29.9350   38.1050 F   0  0  0  0  0  0  0  0  0  0  0  0
   38.5580   28.4830   41.2720 N   0  0  0  0  0  0  0  0  0  0  0  0
   39.1450   27.5700   40.4840 C   0  0  0  0  0  3  0  0  0  0  0  0
   39.1670   26.2310   40.7090 C   0  0  0  0  0  0  0  0  0  0  0  0
   39.6700   25.5790   40.0080 H   0  0  0  0  0  0  0  0  0  0  0  0
   38.5470   25.7190   41.8290 C   0  0  0  0  0  0  0  0  0  0  0  0
   38.5310   24.4910   42.0940 O   0  0  0  0  0  0  0  0  0  0  0  0
   37.9480   26.6000   42.6420 N   0  0  0  0  0  0  0  0  0  0  0  0
   37.9620   27.9100   42.3630 C   0  0  0  0  0  0  0  0  0  0  0  0
   37.3540   28.6320   43.2240 O   0  0  0  0  0  0  0  0  0  0  0  0
   37.4820   26.2120   43.4820 H   0  0  0  0  0  0  0  0  0  0  0  0
  1  8  1  0  0  0  0
  2 25  1  0  0  0  0
  2  1  2  0  0  0  0
  3  4  2  0  0  0  0
  3  2  1  0  0  0  0
  4  5  1  0  0  0  0
  5  7  1  0  0  0  0
  5  6  2  0  0  0  0
  6  1  1  0  0  0  0
  7  9  1  0  0  0  0
 10  7  1  0  0  0  0
 11 12  1  0  0  0  0
 11  3  1  0  0  0  0
 12 17  1  0  0  0  0
 13 18  1  0  0  0  0
 13 12  2  0  0  0  0
 14 13  1  0  0  0  0
 15 16  1  0  0  0  0
 15 14  2  0  0  0  0
 16 11  2  0  0  0  0
 19 14  1  0  0  0  0
 20 15  1  0  0  0  0
 21 24  1  0  0  0  0
 21 16  1  0  0  0  0
 22 21  1  0  0  0  0
 23 21  1  0  0  0  0
 25 32  1  0  0  0  0
 26 27  2  0  0  0  0
 26 25  1  0  0  0  0
 27 29  1  0  0  0  0
 28 27  1  0  0  0  0
 29 30  2  0  0  0  0
 29 31  1  0  0  0  0
 31 34  1  0  0  0  0
 32 31  1  0  0  0  0
 32 33  2  0  0  0  0
M  END
>  <minimizedAffinity>
-6.19873428

$$$$

 OpenBabel03252505373D

 34 36  0  0  0  0  0  0  0  0999 V2000
   36.5930   28.6570   37.8730 C   0  0  0  0  0  0  0  0  0  0  0  0
   37.4010   28.8550   39.0180 C   0  0  0  0  0  0  0  0  0  0  0  0
   37.8060   27.7510   39.7310 C   0  0  0  0  0  0  0  0  0  0  0  0
   37.4100   26.5400   39.3000 N   0  0  0  0  0  0  0  0  0  0  0  0
   36.6310   26.3750   38.1980 C   0  0  0  0  0  0  0  0  0  0  0  0
   36.2260   27.4310   37.4880 N   0  0  0  0  0  0  0  0  0  0  0  0
   36.2220   25.0750   37.7820 N   0  0  0  0  0  0  0  0  0  0  0  0
   36.2250   29.4600   37.2500 H   0  0  0  0  0  0  0  0  0  0  0  0
   35.4370   24.9050   38.4780 H   0  0  0  0  0  0  0  0  0  0  0  0
   36.8190   24.7660   36.9750 H   0  0  0  0  0  0  0  0  0  0  0  0
   38.6270   27.8250   40.8970 C   0  0  0  0  0  0  0  0  0  0  0  0
   39.9700   28.1620   40.7260 C   0  0  0  0  0  0  0  0  0  0  0  0
   40.8610   28.2740   41.7910 C   0  0  0  0  0  0  0  0  0  0  0  0
   40.4080   28.0440   43.0650 C   0  0  0  0  0  0  0  0  0  0  0  0
   39.0910   27.7120   43.2510 C   0  0  0  0  0  0  0  0  0  0  0  0
   38.2090   27.6030   42.1830 C   0  0  0  0  0  0  0  0  0  0  0  0
   40.3550   28.3500   39.7220 H   0  0  0  0  0  0  0  0  0  0  0  0
   41.8990   28.5390   41.6170 H   0  0  0  0  0  0  0  0  0  0  0  0
   41.0420   28.1120   43.9440 H   0  0  0  0  0  0  0  0  0  0  0  0
   38.6910   27.5220   44.2350 H   0  0  0  0  0  0  0  0  0  0  0  0
   36.7870   27.2560   42.3910 C   0  0  0  0  0  0  0  0  0  0  0  0
   36.4360   27.6530   43.6800 F   0  0  0  0  0  0  0  0  0  0  0  0
   36.6150   25.8950   42.2480 F   0  0  0  0  0  0  0  0  0  0  0  0
   35.9210   27.8500   41.5020 F   0  0  0  0  0  0  0  0  0  0  0  0
   37.6670   30.2250   39.2690 N   0  0  0  0  0  0  0  0  0  0  0  0
   38.6990   30.9860   38.8740 C   0  0  0  0  0  3  0  0  0  0  0  0
   38.8710   32.2990   39.1750 C   0  0  0  0  0  0  0  0  0  0  0  0
   39.7420   32.8220   38.8060 H   0  0  0  0  0  0  0  0  0  0  0  0
   37.9330   32.9490   39.9500 C   0  0  0  0  0  0  0  0  0  0  0  0
   38.0340   34.1610   40.2620 O   0  0  0  0  0  0  0  0  0  0  0  0
   36.8860   32.2220   40.3640 N   0  0  0  0  0  0  0  0  0  0  0  0
   36.7740   30.9290   40.0310 C   0  0  0  0  0  0  0  0  0  0  0  0
   35.7270   30.3620   40.4940 O   0  0  0  0  0  0  0  0  0  0  0  0
   36.1830   32.7130   40.9460 H   0  0  0  0  0  0  0  0  0  0  0  0
  1  2  1  0  0  0  0
  2 25  1  0  0  0  0
  2  3  2  0  0  0  0
  3 11  1  0  0  0  0
  4  3  1  0  0  0  0
  5  4  2  0  0  0  0
  6  1  2  0  0  0  0
  6  5  1  0  0  0  0
  7  5  1  0  0  0  0
  7  9  1  0  0  0  0
  8  1  1  0  0  0  0
 10  7  1  0  0  0  0
 11 16  1  0  0  0  0
 12 11  2  0  0  0  0
 12 13  1  0  0  0  0
 13 14  2  0  0  0  0
 14 15  1  0  0  0  0
 14 19  1  0  0  0  0
 15 20  1  0  0  0  0
 16 21  1  0  0  0  0
 16 15  2  0  0  0  0
 17 12  1  0  0  0  0
 18 13  1  0  0  0  0
 21 22  1  0  0  0  0
 23 21  1  0  0  0  0
 24 21  1  0  0  0  0
 25 32  1  0  0  0  0
 26 27  2  0  0  0  0
 26 25  1  0  0  0  0
 27 29  1  0  0  0  0
 28 27  1  0  0  0  0
 29 30  2  0  0  0  0
 29 31  1  0  0  0  0
 31 34  1  0  0  0  0
 32 31  1  0  0  0  0
 32 33  2  0  0  0  0
M  END
>  <minimizedAffinity>
-5.95253086

$$$$

 OpenBabel03252505373D

 34 36  0  0  0  0  0  0  0  0999 V2000
   39.6970   31.7420   38.8940 C   0  0  0  0  0  0  0  0  0  0  0  0
   39.2530   30.5270   39.4680 C   0  0  0  0  0  0  0  0  0  0  0  0
   38.6770   30.5660   40.7170 C   0  0  0  0  0  0  0  0  0  0  0  0
   38.5680   31.7610   41.3250 N   0  0  0  0  0  0  0  0  0  0  0  0
   39.0030   32.9150   40.7530 C   0  0  0  0  0  0  0  0  0  0  0  0
   39.5640   32.9030   39.5420 N   0  0  0  0  0  0  0  0  0  0  0  0
   38.8800   34.1600   41.4370 N   0  0  0  0  0  0  0  0  0  0  0  0
   40.1610   31.8130   37.9200 H   0  0  0  0  0  0  0  0  0  0  0  0
   39.6980   34.0740   42.1100 H   0  0  0  0  0  0  0  0  0  0  0  0
   38.0600   34.6890   41.0480 H   0  0  0  0  0  0  0  0  0  0  0  0
   38.1880   29.4090   41.3950 C   0  0  0  0  0  0  0  0  0  0  0  0
   39.1030   28.6440   42.1200 C   0  0  0  0  0  0  0  0  0  0  0  0
   38.7370   27.5010   42.8280 C   0  0  0  0  0  0  0  0  0  0  0  0
   37.4250   27.1030   42.8170 C   0  0  0  0  0  0  0  0  0  0  0  0
   36.5130   27.8430   42.1100 C   0  0  0  0  0  0  0  0  0  0  0  0
   36.8860   28.9820   41.4060 C   0  0  0  0  0  0  0  0  0  0  0  0
   40.1530   28.9410   42.1440 H   0  0  0  0  0  0  0  0  0  0  0  0
   39.4790   26.9340   43.3800 H   0  0  0  0  0  0  0  0  0  0  0  0
   37.0650   26.2240   43.3440 H   0  0  0  0  0  0  0  0  0  0  0  0
   35.4710   27.5670   42.0730 H   0  0  0  0  0  0  0  0  0  0  0  0
   35.8960   29.7820   40.6560 C   0  0  0  0  0  0  0  0  0  0  0  0
   35.7920   31.0250   41.2790 F   0  0  0  0  0  0  0  0  0  0  0  0
   34.6750   29.1400   40.6660 F   0  0  0  0  0  0  0  0  0  0  0  0
   36.2140   29.9850   39.3330 F   0  0  0  0  0  0  0  0  0  0  0  0
   39.4970   29.4070   38.6340 N   0  0  0  0  0  0  0  0  0  0  0  0
   38.7140   28.8450   37.7000 C   0  0  0  0  0  3  0  0  0  0  0  0
   39.0350   27.7590   36.9520 C   0  0  0  0  0  0  0  0  0  0  0  0
   38.3280   27.3840   36.2240 H   0  0  0  0  0  0  0  0  0  0  0  0
   40.2560   27.1450   37.1300 C   0  0  0  0  0  0  0  0  0  0  0  0
   40.6130   26.1390   36.4700 O   0  0  0  0  0  0  0  0  0  0  0  0
   41.0680   27.6780   38.0540 N   0  0  0  0  0  0  0  0  0  0  0  0
   40.6920   28.7530   38.7600 C   0  0  0  0  0  0  0  0  0  0  0  0
   41.5650   29.1520   39.6040 O   0  0  0  0  0  0  0  0  0  0  0  0
   41.9860   27.2150   38.1860 H   0  0  0  0  0  0  0  0  0  0  0  0
  1  2  2  0  0  0  0
  1  6  1  0  0  0  0
  2  3  1  0  0  0  0
  3  4  2  0  0  0  0
  3 11  1  0  0  0  0
  5  4  1  0  0  0  0
  5  7  1  0  0  0  0
  6  5  2  0  0  0  0
  7  9  1  0  0  0  0
  8  1  1  0  0  0  0
 10  7  1  0  0  0  0
 11 16  2  0  0  0  0
 11 12  1  0  0  0  0
 12 17  1  0  0  0  0
 12 13  2  0  0  0  0
 13 18  1  0  0  0  0
 14 13  1  0  0  0  0
 14 19  1  0  0  0  0
 15 14  2  0  0  0  0
 16 15  1  0  0  0  0
 20 15  1  0  0  0  0
 21 23  1  0  0  0  0
 21 22  1  0  0  0  0
 21 16  1  0  0  0  0
 24 21  1  0  0  0  0
 25 32  1  0  0  0  0
 25  2  1  0  0  0  0
 26 25  1  0  0  0  0
 27 29  1  0  0  0  0
 27 26  2  0  0  0  0
 28 27  1  0  0  0  0
 29 31  1  0  0  0  0
 30 29  2  0  0  0  0
 31 34  1  0  0  0  0
 31 32  1  0  0  0  0
 32 33  2  0  0  0  0
M  END
>  <minimizedAffinity>
-5.94328451

$$$$

 OpenBabel03252505373D

 34 36  0  0  0  0  0  0  0  0999 V2000
   41.0210   27.7580   42.9260 C   0  0  0  0  0  0  0  0  0  0  0  0
   39.9380   27.2200   42.1910 C   0  0  0  0  0  0  0  0  0  0  0  0
   39.9290   25.8680   41.9350 C   0  0  0  0  0  0  0  0  0  0  0  0
   40.9540   25.1310   42.3990 N   0  0  0  0  0  0  0  0  0  0  0  0
   41.9850   25.6710   43.1020 C   0  0  0  0  0  0  0  0  0  0  0  0
   42.0160   26.9800   43.3640 N   0  0  0  0  0  0  0  0  0  0  0  0
   43.0590   24.8560   43.5640 N   0  0  0  0  0  0  0  0  0  0  0  0
   41.1170   28.8050   43.1760 H   0  0  0  0  0  0  0  0  0  0  0  0
   43.6060   24.7540   42.6590 H   0  0  0  0  0  0  0  0  0  0  0  0
   42.9280   24.6580   44.5870 H   0  0  0  0  0  0  0  0  0  0  0  0
   38.8890   25.2110   41.2110 C   0  0  0  0  0  0  0  0  0  0  0  0
   37.7400   24.8430   41.9130 C   0  0  0  0  0  0  0  0  0  0  0  0
   36.6580   24.2070   41.3090 C   0  0  0  0  0  0  0  0  0  0  0  0
   36.7160   23.9250   39.9680 C   0  0  0  0  0  0  0  0  0  0  0  0
   37.8370   24.2800   39.2630 C   0  0  0  0  0  0  0  0  0  0  0  0
   38.9120   24.9140   39.8740 C   0  0  0  0  0  0  0  0  0  0  0  0
   37.6710   25.0570   42.9810 H   0  0  0  0  0  0  0  0  0  0  0  0
   35.7820   23.9380   41.8890 H   0  0  0  0  0  0  0  0  0  0  0  0
   35.9130   23.4320   39.4280 H   0  0  0  0  0  0  0  0  0  0  0  0
   37.9270   24.0780   38.2070 H   0  0  0  0  0  0  0  0  0  0  0  0
   40.1130   25.3050   39.1060 C   0  0  0  0  0  0  0  0  0  0  0  0
   39.8570   25.0580   37.7590 F   0  0  0  0  0  0  0  0  0  0  0  0
   41.1970   24.5630   39.5290 F   0  0  0  0  0  0  0  0  0  0  0  0
   40.4720   26.6260   39.2460 F   0  0  0  0  0  0  0  0  0  0  0  0
   38.9960   28.2060   41.8050 N   0  0  0  0  0  0  0  0  0  0  0  0
   38.9890   29.0140   40.7340 C   0  0  0  0  0  3  0  0  0  0  0  0
   38.0390   29.9420   40.4520 C   0  0  0  0  0  0  0  0  0  0  0  0
   38.1290   30.5450   39.5580 H   0  0  0  0  0  0  0  0  0  0  0  0
   36.9710   30.1040   41.3080 C   0  0  0  0  0  0  0  0  0  0  0  0
   36.0590   30.9430   41.1030 O   0  0  0  0  0  0  0  0  0  0  0  0
   36.9410   29.3140   42.3900 N   0  0  0  0  0  0  0  0  0  0  0  0
   37.9110   28.4170   42.6120 C   0  0  0  0  0  0  0  0  0  0  0  0
   37.7530   27.7340   43.6800 O   0  0  0  0  0  0  0  0  0  0  0  0
   36.1370   29.4390   43.0320 H   0  0  0  0  0  0  0  0  0  0  0  0
  1  8  1  0  0  0  0
  1  6  1  0  0  0  0
  2  1  2  0  0  0  0
  3  2  1  0  0  0  0
  3  4  2  0  0  0  0
  4  5  1  0  0  0  0
  5  6  2  0  0  0  0
  5  7  1  0  0  0  0
  7 10  1  0  0  0  0
  9  7  1  0  0  0  0
 11 12  1  0  0  0  0
 11  3  1  0  0  0  0
 12 17  1  0  0  0  0
 13 18  1  0  0  0  0
 13 12  2  0  0  0  0
 14 13  1  0  0  0  0
 15 16  1  0  0  0  0
 15 14  2  0  0  0  0
 16 11  2  0  0  0  0
 19 14  1  0  0  0  0
 20 15  1  0  0  0  0
 21 24  1  0  0  0  0
 21 23  1  0  0  0  0
 21 16  1  0  0  0  0
 22 21  1  0  0  0  0
 25  2  1  0  0  0  0
 25 32  1  0  0  0  0
 26 25  1  0  0  0  0
 27 26  2  0  0  0  0
 27 29  1  0  0  0  0
 28 27  1  0  0  0  0
 29 31  1  0  0  0  0
 30 29  2  0  0  0  0
 31 32  1  0  0  0  0
 31 34  1  0  0  0  0
 32 33  2  0  0  0  0
M  END
>  <minimizedAffinity>
-5.82035303

$$$$

 OpenBabel03252505373D

 34 36  0  0  0  0  0  0  0  0999 V2000
   36.7520   29.9260   37.9460 C   0  0  0  0  0  0  0  0  0  0  0  0
   37.7190   30.0320   38.9740 C   0  0  0  0  0  0  0  0  0  0  0  0
   38.7310   30.9530   38.8270 C   0  0  0  0  0  0  0  0  0  0  0  0
   38.7450   31.7030   37.7100 N   0  0  0  0  0  0  0  0  0  0  0  0
   37.8050   31.5810   36.7350 C   0  0  0  0  0  0  0  0  0  0  0  0
   36.8130   30.6960   36.8550 N   0  0  0  0  0  0  0  0  0  0  0  0
   37.8650   32.3870   35.5610 N   0  0  0  0  0  0  0  0  0  0  0  0
   35.9220   29.2330   37.9690 H   0  0  0  0  0  0  0  0  0  0  0  0
   38.6220   31.8670   35.0270 H   0  0  0  0  0  0  0  0  0  0  0  0
   37.1700   33.1700   35.6430 H   0  0  0  0  0  0  0  0  0  0  0  0
   39.7570   31.1550   39.7980 C   0  0  0  0  0  0  0  0  0  0  0  0
   40.7690   30.1980   39.8830 C   0  0  0  0  0  0  0  0  0  0  0  0
   41.8260   30.2960   40.7850 C   0  0  0  0  0  0  0  0  0  0  0  0
   41.8830   31.3760   41.6280 C   0  0  0  0  0  0  0  0  0  0  0  0
   40.8980   32.3260   41.5580 C   0  0  0  0  0  0  0  0  0  0  0  0
   39.8470   32.2200   40.6550 C   0  0  0  0  0  0  0  0  0  0  0  0
   40.7460   29.3290   39.2220 H   0  0  0  0  0  0  0  0  0  0  0  0
   42.5940   29.5300   40.8200 H   0  0  0  0  0  0  0  0  0  0  0  0
   42.6750   31.5210   42.3570 H   0  0  0  0  0  0  0  0  0  0  0  0
   40.9020   33.1910   42.2020 H   0  0  0  0  0  0  0  0  0  0  0  0
   38.7940   33.2540   40.5750 C   0  0  0  0  0  0  0  0  0  0  0  0
   39.0070   34.1610   41.6110 F   0  0  0  0  0  0  0  0  0  0  0  0
   37.5530   32.6650   40.7050 F   0  0  0  0  0  0  0  0  0  0  0  0
   38.7680   33.9490   39.3870 F   0  0  0  0  0  0  0  0  0  0  0  0
   37.4900   29.1210   40.0350 N   0  0  0  0  0  0  0  0  0  0  0  0
   38.0380   27.9190   40.2690 C   0  0  0  0  0  3  0  0  0  0  0  0
   37.7450   27.1100   41.3190 C   0  0  0  0  0  0  0  0  0  0  0  0
   38.2470   26.1560   41.4150 H   0  0  0  0  0  0  0  0  0  0  0  0
   36.8110   27.5120   42.2500 C   0  0  0  0  0  0  0  0  0  0  0  0
   36.4970   26.8110   43.2430 O   0  0  0  0  0  0  0  0  0  0  0  0
   36.2400   28.7090   42.0510 N   0  0  0  0  0  0  0  0  0  0  0  0
   36.5740   29.4610   40.9940 C   0  0  0  0  0  0  0  0  0  0  0  0
   35.9520   30.5750   40.9320 O   0  0  0  0  0  0  0  0  0  0  0  0
   35.5390   29.0090   42.7530 H   0  0  0  0  0  0  0  0  0  0  0  0
  1  8  1  0  0  0  0
  1  2  1  0  0  0  0
  2 25  1  0  0  0  0
  3  2  2  0  0  0  0
  3 11  1  0  0  0  0
  4  3  1  0  0  0  0
  5  6  1  0  0  0  0
  5  4  2  0  0  0  0
  6  1  2  0  0  0  0
  7 10  1  0  0  0  0
  7  5  1  0  0  0  0
  9  7  1  0  0  0  0
 11 12  2  0  0  0  0
 11 16  1  0  0  0  0
 12 13  1  0  0  0  0
 13 18  1  0  0  0  0
 13 14  2  0  0  0  0
 14 19  1  0  0  0  0
 15 14  1  0  0  0  0
 15 20  1  0  0  0  0
 16 15  2  0  0  0  0
 17 12  1  0  0  0  0
 21 16  1  0  0  0  0
 21 23  1  0  0  0  0
 21 22  1  0  0  0  0
 24 21  1  0  0  0  0
 25 26  1  0  0  0  0
 25 32  1  0  0  0  0
 26 27  2  0  0  0  0
 27 28  1  0  0  0  0
 27 29  1  0  0  0  0
 29 30  2  0  0  0  0
 31 29  1  0  0  0  0
 31 34  1  0  0  0  0
 32 31  1  0  0  0  0
 33 32  2  0  0  0  0
M  END
>  <minimizedAffinity>
-5.72029209

$$$$

 OpenBabel03252505373D

 34 36  0  0  0  0  0  0  0  0999 V2000
   39.2690   28.7130   42.3500 C   0  0  0  0  0  0  0  0  0  0  0  0
   38.4940   28.2960   41.2420 C   0  0  0  0  0  0  0  0  0  0  0  0
   38.0970   29.2440   40.3270 C   0  0  0  0  0  0  0  0  0  0  0  0
   38.4690   30.5190   40.5380 N   0  0  0  0  0  0  0  0  0  0  0  0
   39.2120   30.8970   41.6110 C   0  0  0  0  0  0  0  0  0  0  0  0
   39.6100   29.9950   42.5120 N   0  0  0  0  0  0  0  0  0  0  0  0
   39.5740   32.2620   41.8050 N   0  0  0  0  0  0  0  0  0  0  0  0
   39.6260   28.0450   43.1200 H   0  0  0  0  0  0  0  0  0  0  0  0
   38.6570   32.6350   42.1900 H   0  0  0  0  0  0  0  0  0  0  0  0
   40.5720   32.4010   41.5080 H   0  0  0  0  0  0  0  0  0  0  0  0
   37.3200   28.9430   39.1680 C   0  0  0  0  0  0  0  0  0  0  0  0
   38.0000   28.5550   38.0120 C   0  0  0  0  0  0  0  0  0  0  0  0
   37.3450   28.2270   36.8270 C   0  0  0  0  0  0  0  0  0  0  0  0
   35.9760   28.2860   36.7850 C   0  0  0  0  0  0  0  0  0  0  0  0
   35.2920   28.6650   37.9110 C   0  0  0  0  0  0  0  0  0  0  0  0
   35.9530   28.9900   39.0900 C   0  0  0  0  0  0  0  0  0  0  0  0
   39.0890   28.5010   38.0210 H   0  0  0  0  0  0  0  0  0  0  0  0
   37.9100   27.9290   35.9490 H   0  0  0  0  0  0  0  0  0  0  0  0
   35.3960   28.0460   35.8980 H   0  0  0  0  0  0  0  0  0  0  0  0
   34.2150   28.7250   37.9230 H   0  0  0  0  0  0  0  0  0  0  0  0
   35.2100   29.3850   40.3050 C   0  0  0  0  0  0  0  0  0  0  0  0
   33.8490   29.2860   40.0230 F   0  0  0  0  0  0  0  0  0  0  0  0
   35.5330   30.6830   40.6450 F   0  0  0  0  0  0  0  0  0  0  0  0
   35.4830   28.6170   41.4130 F   0  0  0  0  0  0  0  0  0  0  0  0
   38.2240   26.9040   41.2570 N   0  0  0  0  0  0  0  0  0  0  0  0
   37.2240   26.2300   41.8450 C   0  0  0  0  0  3  0  0  0  0  0  0
   37.0540   24.8830   41.8100 C   0  0  0  0  0  0  0  0  0  0  0  0
   36.2110   24.4380   42.3190 H   0  0  0  0  0  0  0  0  0  0  0  0
   37.9590   24.1000   41.1250 C   0  0  0  0  0  0  0  0  0  0  0  0
   37.8570   22.8500   41.0550 O   0  0  0  0  0  0  0  0  0  0  0  0
   38.9730   24.7370   40.5240 N   0  0  0  0  0  0  0  0  0  0  0  0
   39.0850   26.0700   40.5960 C   0  0  0  0  0  0  0  0  0  0  0  0
   40.0980   26.5420   39.9760 O   0  0  0  0  0  0  0  0  0  0  0  0
   39.6520   24.1460   40.0100 H   0  0  0  0  0  0  0  0  0  0  0  0
  1  6  1  0  0  0  0
  1  8  1  0  0  0  0
  2 25  1  0  0  0  0
  2  1  2  0  0  0  0
  3  4  2  0  0  0  0
  3  2  1  0  0  0  0
  4  5  1  0  0  0  0
  5  7  1  0  0  0  0
  5  6  2  0  0  0  0
  7  9  1  0  0  0  0
 10  7  1  0  0  0  0
 11  3  1  0  0  0  0
 12 17  1  0  0  0  0
 12 11  2  0  0  0  0
 13 12  1  0  0  0  0
 14 13  2  0  0  0  0
 14 15  1  0  0  0  0
 15 20  1  0  0  0  0
 15 16  2  0  0  0  0
 16 11  1  0  0  0  0
 16 21  1  0  0  0  0
 18 13  1  0  0  0  0
 19 14  1  0  0  0  0
 21 23  1  0  0  0  0
 21 24  1  0  0  0  0
 22 21  1  0  0  0  0
 25 26  1  0  0  0  0
 27 26  2  0  0  0  0
 27 28  1  0  0  0  0
 29 27  1  0  0  0  0
 30 29  2  0  0  0  0
 31 32  1  0  0  0  0
 31 29  1  0  0  0  0
 32 25  1  0  0  0  0
 33 32  2  0  0  0  0
 34 31  1  0  0  0  0
M  END
>  <minimizedAffinity>
-5.71758509

$$$$

 OpenBabel03252505373D

 34 36  0  0  0  0  0  0  0  0999 V2000
   37.4580   31.2970   40.3160 C   0  0  0  0  0  0  0  0  0  0  0  0
   37.3040   29.8990   40.1590 C   0  0  0  0  0  0  0  0  0  0  0  0
   38.2010   29.0670   40.7900 C   0  0  0  0  0  0  0  0  0  0  0  0
   39.1780   29.6320   41.5220 N   0  0  0  0  0  0  0  0  0  0  0  0
   39.3060   30.9780   41.6570 C   0  0  0  0  0  0  0  0  0  0  0  0
   38.4480   31.8060   41.0550 N   0  0  0  0  0  0  0  0  0  0  0  0
   40.3640   31.5360   42.4320 N   0  0  0  0  0  0  0  0  0  0  0  0
   36.8060   32.0290   39.8600 H   0  0  0  0  0  0  0  0  0  0  0  0
   41.1640   31.4340   41.7400 H   0  0  0  0  0  0  0  0  0  0  0  0
   39.9890   31.8320   43.3670 H   0  0  0  0  0  0  0  0  0  0  0  0
   38.1430   27.6430   40.7110 C   0  0  0  0  0  0  0  0  0  0  0  0
   38.7090   27.0310   39.5910 C   0  0  0  0  0  0  0  0  0  0  0  0
   38.7210   25.6490   39.4120 C   0  0  0  0  0  0  0  0  0  0  0  0
   38.1540   24.8490   40.3710 C   0  0  0  0  0  0  0  0  0  0  0  0
   37.5940   25.4340   41.4780 C   0  0  0  0  0  0  0  0  0  0  0  0
   37.5870   26.8130   41.6490 C   0  0  0  0  0  0  0  0  0  0  0  0
   39.1660   27.6460   38.8140 H   0  0  0  0  0  0  0  0  0  0  0  0
   39.1710   25.2120   38.5280 H   0  0  0  0  0  0  0  0  0  0  0  0
   38.1250   23.7660   40.3020 H   0  0  0  0  0  0  0  0  0  0  0  0
   37.1380   24.8450   42.2570 H   0  0  0  0  0  0  0  0  0  0  0  0
   36.9930   27.4380   42.8490 C   0  0  0  0  0  0  0  0  0  0  0  0
   38.0370   27.8490   43.6760 F   0  0  0  0  0  0  0  0  0  0  0  0
   36.1990   26.5200   43.5060 F   0  0  0  0  0  0  0  0  0  0  0  0
   36.1910   28.5240   42.5880 F   0  0  0  0  0  0  0  0  0  0  0  0
   36.2080   29.5590   39.3270 N   0  0  0  0  0  0  0  0  0  0  0  0
   34.9490   29.2310   39.6560 C   0  0  0  0  0  3  0  0  0  0  0  0
   33.9630   28.9110   38.7790 C   0  0  0  0  0  0  0  0  0  0  0  0
   32.9790   28.6600   39.1500 H   0  0  0  0  0  0  0  0  0  0  0  0
   34.2280   28.9080   37.4260 C   0  0  0  0  0  0  0  0  0  0  0  0
   33.3610   28.6220   36.5650 O   0  0  0  0  0  0  0  0  0  0  0  0
   35.4760   29.2310   37.0570 N   0  0  0  0  0  0  0  0  0  0  0  0
   36.4050   29.5380   37.9730 C   0  0  0  0  0  0  0  0  0  0  0  0
   37.5470   29.8260   37.4780 O   0  0  0  0  0  0  0  0  0  0  0  0
   35.6730   29.2280   36.0400 H   0  0  0  0  0  0  0  0  0  0  0  0
  1  6  1  0  0  0  0
  2  1  2  0  0  0  0
  2  3  1  0  0  0  0
  3  4  2  0  0  0  0
  4  5  1  0  0  0  0
  5  7  1  0  0  0  0
  6  5  2  0  0  0  0
  7 10  1  0  0  0  0
  8  1  1  0  0  0  0
  9  7  1  0  0  0  0
 11  3  1  0  0  0  0
 11 16  1  0  0  0  0
 12 11  2  0  0  0  0
 13 12  1  0  0  0  0
 13 14  2  0  0  0  0
 14 15  1  0  0  0  0
 15 16  2  0  0  0  0
 15 20  1  0  0  0  0
 16 21  1  0  0  0  0
 17 12  1  0  0  0  0
 18 13  1  0  0  0  0
 19 14  1  0  0  0  0
 21 23  1  0  0  0  0
 21 22  1  0  0  0  0
 24 21  1  0  0  0  0
 25 26  1  0  0  0  0
 25  2  1  0  0  0  0
 27 28  1  0  0  0  0
 27 26  2  0  0  0  0
 29 27  1  0  0  0  0
 30 29  2  0  0  0  0
 31 29  1  0  0  0  0
 31 32  1  0  0  0  0
 32 25  1  0  0  0  0
 33 32  2  0  0  0  0
 34 31  1  0  0  0  0
M  END
>  <minimizedAffinity>
-5.67633963

$$$$

 OpenBabel03252505373D

 34 36  0  0  0  0  0  0  0  0999 V2000
   37.6070   30.6580   38.0120 C   0  0  0  0  0  0  0  0  0  0  0  0
   37.7190   29.7140   39.0600 C   0  0  0  0  0  0  0  0  0  0  0  0
   37.5440   30.1490   40.3530 C   0  0  0  0  0  0  0  0  0  0  0  0
   37.2760   31.4520   40.5510 N   0  0  0  0  0  0  0  0  0  0  0  0
   37.1750   32.3410   39.5270 C   0  0  0  0  0  0  0  0  0  0  0  0
   37.3400   31.9440   38.2640 N   0  0  0  0  0  0  0  0  0  0  0  0
   36.9030   33.7170   39.7810 N   0  0  0  0  0  0  0  0  0  0  0  0
   37.7290   30.4140   36.9660 H   0  0  0  0  0  0  0  0  0  0  0  0
   37.8690   34.0360   40.0880 H   0  0  0  0  0  0  0  0  0  0  0  0
   35.8890   33.9110   39.5840 H   0  0  0  0  0  0  0  0  0  0  0  0
   37.6260   29.2890   41.4900 C   0  0  0  0  0  0  0  0  0  0  0  0
   36.5230   28.4830   41.7760 C   0  0  0  0  0  0  0  0  0  0  0  0
   36.4950   27.5990   42.8530 C   0  0  0  0  0  0  0  0  0  0  0  0
   37.5920   27.5110   43.6710 C   0  0  0  0  0  0  0  0  0  0  0  0
   38.6840   28.2960   43.4040 C   0  0  0  0  0  0  0  0  0  0  0  0
   38.7040   29.1750   42.3280 C   0  0  0  0  0  0  0  0  0  0  0  0
   35.6390   28.5350   41.1400 H   0  0  0  0  0  0  0  0  0  0  0  0
   35.6180   26.9880   43.0420 H   0  0  0  0  0  0  0  0  0  0  0  0
   37.6440   26.8460   44.5290 H   0  0  0  0  0  0  0  0  0  0  0  0
   39.5680   28.2600   44.0210 H   0  0  0  0  0  0  0  0  0  0  0  0
   39.8890   30.0090   42.0370 C   0  0  0  0  0  0  0  0  0  0  0  0
   40.9410   29.5430   42.8230 F   0  0  0  0  0  0  0  0  0  0  0  0
   39.6150   31.3270   42.3410 F   0  0  0  0  0  0  0  0  0  0  0  0
   40.2880   29.9920   40.7210 F   0  0  0  0  0  0  0  0  0  0  0  0
   38.0220   28.4110   38.5910 N   0  0  0  0  0  0  0  0  0  0  0  0
   39.2110   27.8160   38.4160 C   0  0  0  0  0  3  0  0  0  0  0  0
   39.4010   26.5550   37.9490 C   0  0  0  0  0  0  0  0  0  0  0  0
   40.4060   26.1690   37.8450 H   0  0  0  0  0  0  0  0  0  0  0  0
   38.3110   25.7820   37.6110 C   0  0  0  0  0  0  0  0  0  0  0  0
   38.4190   24.6100   37.1740 O   0  0  0  0  0  0  0  0  0  0  0  0
   37.1030   26.3420   37.7720 N   0  0  0  0  0  0  0  0  0  0  0  0
   36.9830   27.5920   38.2380 C   0  0  0  0  0  0  0  0  0  0  0  0
   35.7750   27.9950   38.3400 O   0  0  0  0  0  0  0  0  0  0  0  0
   36.2850   25.7580   37.5170 H   0  0  0  0  0  0  0  0  0  0  0  0
  1  6  2  0  0  0  0
  1  2  1  0  0  0  0
  2  3  2  0  0  0  0
  3  4  1  0  0  0  0
  3 11  1  0  0  0  0
  5  7  1  0  0  0  0
  5  4  2  0  0  0  0
  6  5  1  0  0  0  0
  7  9  1  0  0  0  0
  8  1  1  0  0  0  0
 10  7  1  0  0  0  0
 11 12  2  0  0  0  0
 11 16  1  0  0  0  0
 12 13  1  0  0  0  0
 13 18  1  0  0  0  0
 13 14  2  0  0  0  0
 14 19  1  0  0  0  0
 15 14  1  0  0  0  0
 15 20  1  0  0  0  0
 16 15  2  0  0  0  0
 17 12  1  0  0  0  0
 21 16  1  0  0  0  0
 21 23  1  0  0  0  0
 21 22  1  0  0  0  0
 24 21  1  0  0  0  0
 25  2  1  0  0  0  0
 26 25  1  0  0  0  0
 27 26  2  0  0  0  0
 28 27  1  0  0  0  0
 29 31  1  0  0  0  0
 29 27  1  0  0  0  0
 30 29  2  0  0  0  0
 31 32  1  0  0  0  0
 32 33  2  0  0  0  0
 32 25  1  0  0  0  0
 34 31  1  0  0  0  0
M  END
>  <minimizedAffinity>
-5.64799595

$$$$

 OpenBabel03252505373D

 34 36  0  0  0  0  0  0  0  0999 V2000
   36.1870   28.9480   37.8000 C   0  0  0  0  0  0  0  0  0  0  0  0
   36.8190   28.9400   39.0660 C   0  0  0  0  0  0  0  0  0  0  0  0
   36.8400   27.7630   39.7790 C   0  0  0  0  0  0  0  0  0  0  0  0
   36.2550   26.6830   39.2310 N   0  0  0  0  0  0  0  0  0  0  0  0
   35.6520   26.7160   38.0130 C   0  0  0  0  0  0  0  0  0  0  0  0
   35.6200   27.8450   37.3020 N   0  0  0  0  0  0  0  0  0  0  0  0
   35.0330   25.5500   37.4740 N   0  0  0  0  0  0  0  0  0  0  0  0
   36.1190   29.8220   37.1670 H   0  0  0  0  0  0  0  0  0  0  0  0
   34.1260   25.5600   38.0280 H   0  0  0  0  0  0  0  0  0  0  0  0
   35.6680   25.1210   36.7570 H   0  0  0  0  0  0  0  0  0  0  0  0
   37.4520   27.6310   41.0620 C   0  0  0  0  0  0  0  0  0  0  0  0
   36.6780   27.9250   42.1850 C   0  0  0  0  0  0  0  0  0  0  0  0
   37.1670   27.8210   43.4860 C   0  0  0  0  0  0  0  0  0  0  0  0
   38.4610   27.4150   43.6800 C   0  0  0  0  0  0  0  0  0  0  0  0
   39.2360   27.1220   42.5870 C   0  0  0  0  0  0  0  0  0  0  0  0
   38.7410   27.2270   41.2930 C   0  0  0  0  0  0  0  0  0  0  0  0
   35.6440   28.2500   42.0560 H   0  0  0  0  0  0  0  0  0  0  0  0
   36.5320   28.0590   44.3330 H   0  0  0  0  0  0  0  0  0  0  0  0
   38.9120   27.3110   44.6630 H   0  0  0  0  0  0  0  0  0  0  0  0
   40.2600   26.7990   42.6920 H   0  0  0  0  0  0  0  0  0  0  0  0
   39.5770   26.8980   40.1200 C   0  0  0  0  0  0  0  0  0  0  0  0
   39.0290   25.7710   39.5090 F   0  0  0  0  0  0  0  0  0  0  0  0
   40.8690   26.6380   40.5270 F   0  0  0  0  0  0  0  0  0  0  0  0
   39.6620   27.9020   39.1830 F   0  0  0  0  0  0  0  0  0  0  0  0
   37.3440   30.2070   39.4230 N   0  0  0  0  0  0  0  0  0  0  0  0
   38.5110   30.7790   39.0880 C   0  0  0  0  0  3  0  0  0  0  0  0
   38.9320   32.0060   39.4910 C   0  0  0  0  0  0  0  0  0  0  0  0
   39.8940   32.3750   39.1630 H   0  0  0  0  0  0  0  0  0  0  0  0
   38.1290   32.7660   40.3140 C   0  0  0  0  0  0  0  0  0  0  0  0
   38.4600   33.9060   40.7210 O   0  0  0  0  0  0  0  0  0  0  0  0
   36.9530   32.2280   40.6710 N   0  0  0  0  0  0  0  0  0  0  0  0
   36.5950   31.0120   40.2390 C   0  0  0  0  0  0  0  0  0  0  0  0
   35.4510   30.6270   40.6570 O   0  0  0  0  0  0  0  0  0  0  0  0
   36.3510   32.8020   41.2900 H   0  0  0  0  0  0  0  0  0  0  0  0
  1  2  1  0  0  0  0
  2 25  1  0  0  0  0
  2  3  2  0  0  0  0
  3 11  1  0  0  0  0
  4  3  1  0  0  0  0
  5  4  2  0  0  0  0
  6  1  2  0  0  0  0
  6  5  1  0  0  0  0
  7  5  1  0  0  0  0
  7  9  1  0  0  0  0
  8  1  1  0  0  0  0
 10  7  1  0  0  0  0
 11 16  2  0  0  0  0
 11 12  1  0  0  0  0
 12 13  2  0  0  0  0
 13 14  1  0  0  0  0
 13 18  1  0  0  0  0
 14 19  1  0  0  0  0
 15 20  1  0  0  0  0
 15 14  2  0  0  0  0
 16 15  1  0  0  0  0
 17 12  1  0  0  0  0
 21 23  1  0  0  0  0
 21 16  1  0  0  0  0
 22 21  1  0  0  0  0
 24 21  1  0  0  0  0
 25 32  1  0  0  0  0
 26 25  1  0  0  0  0
 26 27  2  0  0  0  0
 27 29  1  0  0  0  0
 28 27  1  0  0  0  0
 29 31  1  0  0  0  0
 29 30  2  0  0  0  0
 31 34  1  0  0  0  0
 32 33  2  0  0  0  0
 32 31  1  0  0  0  0
M  END
>  <minimizedAffinity>
-5.62376738

$$$$
