
 OpenBabel03252501463D

 24 25  0  0  0  0  0  0  0  0999 V2000
   37.4090   27.1730   42.1430 C   0  0  0  0  0  0  0  0  0  0  0  0
   37.6830   26.2980   41.0710 C   0  0  0  0  0  0  0  0  0  0  0  0
   38.0740   26.8640   39.8680 C   0  0  0  0  0  0  0  0  0  0  0  0
   38.1760   28.2240   39.7720 N   0  0  0  0  0  0  0  0  0  0  0  0
   37.9090   29.0260   40.8120 C   0  0  0  0  0  0  0  0  0  0  0  0
   37.5340   28.4870   41.9670 N   0  0  0  0  0  0  0  0  0  0  0  0
   37.1020   26.7600   43.0940 H   0  0  0  0  0  0  0  0  0  0  0  0
   38.3030   26.2700   38.9970 H   0  0  0  0  0  0  0  0  0  0  0  0
   38.0340   30.4350   40.6480 N   0  0  0  0  0  0  0  0  0  0  0  0
   39.2530   31.0030   40.5250 C   0  0  0  0  0  3  0  0  0  0  0  0
   39.2770   32.3840   40.3690 C   0  0  0  0  0  0  0  0  0  0  0  0
   40.2500   32.8770   40.2660 H   0  0  0  0  0  0  0  0  0  0  0  0
   38.1050   33.0990   40.3470 C   0  0  0  0  0  0  0  0  0  0  0  0
   38.1450   34.3480   40.2060 O   0  0  0  0  0  0  0  0  0  0  0  0
   36.9010   32.5080   40.4730 N   0  0  0  0  0  0  0  0  0  0  0  0
   36.9090   31.1750   40.6220 C   0  0  0  0  0  0  0  0  0  0  0  0
   35.7810   30.6230   40.7390 O   0  0  0  0  0  0  0  0  0  0  0  0
   36.0100   33.0600   40.4560 H   0  0  0  0  0  0  0  0  0  0  0  0
   37.5650   24.8540   41.2030 C   0  0  0  0  0  3  0  0  0  0  0  0
   38.0880   23.9640   40.3670 C   0  0  0  0  0  3  0  0  0  0  0  0
   37.8850   22.4950   40.6300 C   0  0  0  0  0  0  0  0  0  0  0  0
   36.9330   22.3650   41.1650 H   0  0  0  0  0  0  0  0  0  0  0  0
   38.7060   22.1260   41.2670 H   0  0  0  0  0  0  0  0  0  0  0  0
   37.8900   21.9420   39.6710 H   0  0  0  0  0  0  0  0  0  0  0  0
  1  7  1  0  0  0  0
  2 19  1  0  0  0  0
  2  1  2  0  0  0  0
  3  2  1  0  0  0  0
  4  3  2  0  0  0  0
  4  5  1  0  0  0  0
  5  6  2  0  0  0  0
  6  1  1  0  0  0  0
  8  3  1  0  0  0  0
  9  5  1  0  0  0  0
 10  9  1  0  0  0  0
 11 10  2  0  0  0  0
 12 11  1  0  0  0  0
 13 11  1  0  0  0  0
 13 15  1  0  0  0  0
 14 13  2  0  0  0  0
 15 16  1  0  0  0  0
 16  9  1  0  0  0  0
 16 17  2  0  0  0  0
 18 15  1  0  0  0  0
 20 21  1  0  0  0  0
 20 19  2  0  0  0  0
 21 22  1  0  0  0  0
 21 23  1  0  0  0  0
 24 21  1  0  0  0  0
M  END
>  <minimizedAffinity>
-4.89860392

$$$$

 OpenBabel03252501463D

 24 25  0  0  0  0  0  0  0  0999 V2000
   38.0010   26.8120   40.6840 C   0  0  0  0  0  0  0  0  0  0  0  0
   37.0920   26.0210   39.9510 C   0  0  0  0  0  0  0  0  0  0  0  0
   36.2240   26.6740   39.0900 C   0  0  0  0  0  0  0  0  0  0  0  0
   36.2860   28.0350   38.9870 N   0  0  0  0  0  0  0  0  0  0  0  0
   37.1640   28.7570   39.6980 C   0  0  0  0  0  0  0  0  0  0  0  0
   37.9960   28.1350   40.5240 N   0  0  0  0  0  0  0  0  0  0  0  0
   38.6900   26.3310   41.3630 H   0  0  0  0  0  0  0  0  0  0  0  0
   35.4980   26.1460   38.4930 H   0  0  0  0  0  0  0  0  0  0  0  0
   37.1780   30.1720   39.5460 N   0  0  0  0  0  0  0  0  0  0  0  0
   37.6390   30.7340   38.4080 C   0  0  0  0  0  3  0  0  0  0  0  0
   37.6140   32.1220   38.3490 C   0  0  0  0  0  0  0  0  0  0  0  0
   37.9810   32.6090   37.4390 H   0  0  0  0  0  0  0  0  0  0  0  0
   37.1390   32.8510   39.4110 C   0  0  0  0  0  0  0  0  0  0  0  0
   37.1240   34.1070   39.3430 O   0  0  0  0  0  0  0  0  0  0  0  0
   36.6850   32.2670   40.5370 N   0  0  0  0  0  0  0  0  0  0  0  0
   36.7210   30.9260   40.5650 C   0  0  0  0  0  0  0  0  0  0  0  0
   36.2950   30.3810   41.6190 O   0  0  0  0  0  0  0  0  0  0  0  0
   36.3240   32.8300   41.3450 H   0  0  0  0  0  0  0  0  0  0  0  0
   37.0500   24.5720   40.0830 C   0  0  0  0  0  3  0  0  0  0  0  0
   38.1150   23.7800   40.1680 C   0  0  0  0  0  3  0  0  0  0  0  0
   37.9190   22.2930   40.3010 C   0  0  0  0  0  0  0  0  0  0  0  0
   36.9760   22.0200   39.8080 H   0  0  0  0  0  0  0  0  0  0  0  0
   37.8520   22.0340   41.3710 H   0  0  0  0  0  0  0  0  0  0  0  0
   38.7810   21.7650   39.8510 H   0  0  0  0  0  0  0  0  0  0  0  0
  1  7  1  0  0  0  0
  2 19  1  0  0  0  0
  2  1  2  0  0  0  0
  3  2  1  0  0  0  0
  4  3  2  0  0  0  0
  4  5  1  0  0  0  0
  5  6  2  0  0  0  0
  6  1  1  0  0  0  0
  8  3  1  0  0  0  0
  9  5  1  0  0  0  0
  9 16  1  0  0  0  0
 10  9  1  0  0  0  0
 11 10  2  0  0  0  0
 11 13  1  0  0  0  0
 12 11  1  0  0  0  0
 13 15  1  0  0  0  0
 14 13  2  0  0  0  0
 15 16  1  0  0  0  0
 15 18  1  0  0  0  0
 16 17  2  0  0  0  0
 19 20  2  0  0  0  0
 20 21  1  0  0  0  0
 21 23  1  0  0  0  0
 22 21  1  0  0  0  0
 24 21  1  0  0  0  0
M  END
>  <minimizedAffinity>
-4.84950018

$$$$

 OpenBabel03252501463D

 24 25  0  0  0  0  0  0  0  0999 V2000
   33.3100   29.1260   38.0460 C   0  0  0  0  0  0  0  0  0  0  0  0
   33.9400   29.0600   36.7860 C   0  0  0  0  0  0  0  0  0  0  0  0
   35.3080   28.8400   36.7650 C   0  0  0  0  0  0  0  0  0  0  0  0
   35.9790   28.6980   37.9480 N   0  0  0  0  0  0  0  0  0  0  0  0
   35.3480   28.7660   39.1280 C   0  0  0  0  0  0  0  0  0  0  0  0
   34.0370   28.9770   39.1520 N   0  0  0  0  0  0  0  0  0  0  0  0
   32.2430   29.2970   38.0930 H   0  0  0  0  0  0  0  0  0  0  0  0
   35.8690   28.7750   35.8460 H   0  0  0  0  0  0  0  0  0  0  0  0
   36.1030   28.6100   40.3250 N   0  0  0  0  0  0  0  0  0  0  0  0
   36.6070   27.4040   40.6640 C   0  0  0  0  0  3  0  0  0  0  0  0
   37.3310   27.3470   41.8500 C   0  0  0  0  0  0  0  0  0  0  0  0
   37.7520   26.3840   42.1540 H   0  0  0  0  0  0  0  0  0  0  0  0
   37.5040   28.4780   42.6080 C   0  0  0  0  0  0  0  0  0  0  0  0
   38.1610   28.4100   43.6790 O   0  0  0  0  0  0  0  0  0  0  0  0
   36.9910   29.6710   42.2480 N   0  0  0  0  0  0  0  0  0  0  0  0
   36.2980   29.6950   41.1000 C   0  0  0  0  0  0  0  0  0  0  0  0
   35.8190   30.8110   40.7650 O   0  0  0  0  0  0  0  0  0  0  0  0
   37.1270   30.5300   42.8330 H   0  0  0  0  0  0  0  0  0  0  0  0
   33.1980   29.2150   35.5430 C   0  0  0  0  0  3  0  0  0  0  0  0
   32.0330   29.8430   35.4210 C   0  0  0  0  0  3  0  0  0  0  0  0
   31.3790   29.9270   34.0670 C   0  0  0  0  0  0  0  0  0  0  0  0
   31.6790   29.0470   33.4800 H   0  0  0  0  0  0  0  0  0  0  0  0
   31.7310   30.8370   33.5530 H   0  0  0  0  0  0  0  0  0  0  0  0
   30.2800   29.9780   34.1890 H   0  0  0  0  0  0  0  0  0  0  0  0
  1  7  1  0  0  0  0
  1  6  1  0  0  0  0
  2  1  2  0  0  0  0
  3  2  1  0  0  0  0
  3  4  2  0  0  0  0
  4  5  1  0  0  0  0
  5  6  2  0  0  0  0
  5  9  1  0  0  0  0
  8  3  1  0  0  0  0
  9 10  1  0  0  0  0
  9 16  1  0  0  0  0
 10 11  2  0  0  0  0
 11 12  1  0  0  0  0
 11 13  1  0  0  0  0
 13 14  2  0  0  0  0
 15 13  1  0  0  0  0
 15 18  1  0  0  0  0
 16 15  1  0  0  0  0
 17 16  2  0  0  0  0
 19  2  1  0  0  0  0
 20 19  2  0  0  0  0
 21 24  1  0  0  0  0
 21 20  1  0  0  0  0
 22 21  1  0  0  0  0
 23 21  1  0  0  0  0
M  END
>  <minimizedAffinity>
-4.40009117

$$$$

 OpenBabel03252501463D

 24 25  0  0  0  0  0  0  0  0999 V2000
   37.5550   29.3180   40.7850 C   0  0  0  0  0  0  0  0  0  0  0  0
   38.1350   28.0370   40.9000 C   0  0  0  0  0  0  0  0  0  0  0  0
   39.4260   27.8740   40.4220 C   0  0  0  0  0  0  0  0  0  0  0  0
   40.0730   28.9440   39.8710 N   0  0  0  0  0  0  0  0  0  0  0  0
   39.4930   30.1480   39.7790 C   0  0  0  0  0  0  0  0  0  0  0  0
   38.2560   30.3080   40.2350 N   0  0  0  0  0  0  0  0  0  0  0  0
   36.5490   29.4760   41.1490 H   0  0  0  0  0  0  0  0  0  0  0  0
   39.9440   26.9300   40.4700 H   0  0  0  0  0  0  0  0  0  0  0  0
   40.2200   31.2230   39.1940 N   0  0  0  0  0  0  0  0  0  0  0  0
   41.2650   31.7770   39.8460 C   0  0  0  0  0  3  0  0  0  0  0  0
   41.9150   32.8210   39.1970 C   0  0  0  0  0  0  0  0  0  0  0  0
   42.7660   33.2930   39.6990 H   0  0  0  0  0  0  0  0  0  0  0  0
   41.4900   33.2390   37.9610 C   0  0  0  0  0  0  0  0  0  0  0  0
   42.0890   34.1850   37.3870 O   0  0  0  0  0  0  0  0  0  0  0  0
   40.4440   32.6690   37.3310 N   0  0  0  0  0  0  0  0  0  0  0  0
   39.8370   31.6650   37.9800 C   0  0  0  0  0  0  0  0  0  0  0  0
   38.8580   31.1330   37.3890 O   0  0  0  0  0  0  0  0  0  0  0  0
   40.1240   32.9940   36.3860 H   0  0  0  0  0  0  0  0  0  0  0  0
   37.4200   26.9170   41.4920 C   0  0  0  0  0  3  0  0  0  0  0  0
   37.6410   25.6360   41.2150 C   0  0  0  0  0  3  0  0  0  0  0  0
   36.8210   24.5790   41.9080 C   0  0  0  0  0  0  0  0  0  0  0  0
   35.8370   25.0050   42.1500 H   0  0  0  0  0  0  0  0  0  0  0  0
   37.3260   24.2880   42.8440 H   0  0  0  0  0  0  0  0  0  0  0  0
   36.7300   23.6920   41.2510 H   0  0  0  0  0  0  0  0  0  0  0  0
  1  2  1  0  0  0  0
  1  7  1  0  0  0  0
  2 19  1  0  0  0  0
  3  8  1  0  0  0  0
  3  2  2  0  0  0  0
  4  3  1  0  0  0  0
  5  4  2  0  0  0  0
  5  6  1  0  0  0  0
  6  1  2  0  0  0  0
  9  5  1  0  0  0  0
  9 10  1  0  0  0  0
 11 12  1  0  0  0  0
 11 10  2  0  0  0  0
 13 11  1  0  0  0  0
 14 13  2  0  0  0  0
 15 13  1  0  0  0  0
 15 16  1  0  0  0  0
 16  9  1  0  0  0  0
 17 16  2  0  0  0  0
 18 15  1  0  0  0  0
 20 19  2  0  0  0  0
 20 21  1  0  0  0  0
 21 22  1  0  0  0  0
 21 23  1  0  0  0  0
 24 21  1  0  0  0  0
M  END
>  <minimizedAffinity>
-4.39398861

$$$$

 OpenBabel03252501463D

 24 25  0  0  0  0  0  0  0  0999 V2000
   36.2420   26.8620   38.6780 C   0  0  0  0  0  0  0  0  0  0  0  0
   35.1510   26.7120   37.7960 C   0  0  0  0  0  0  0  0  0  0  0  0
   34.5660   27.8660   37.3000 C   0  0  0  0  0  0  0  0  0  0  0  0
   35.0630   29.0820   37.6780 N   0  0  0  0  0  0  0  0  0  0  0  0
   36.1030   29.1880   38.5170 C   0  0  0  0  0  0  0  0  0  0  0  0
   36.6650   28.0850   38.9950 N   0  0  0  0  0  0  0  0  0  0  0  0
   36.7190   25.9800   39.0810 H   0  0  0  0  0  0  0  0  0  0  0  0
   33.7280   27.8430   36.6210 H   0  0  0  0  0  0  0  0  0  0  0  0
   36.5730   30.4840   38.8730 N   0  0  0  0  0  0  0  0  0  0  0  0
   37.2260   31.2470   37.9690 C   0  0  0  0  0  3  0  0  0  0  0  0
   37.6490   32.4970   38.4050 C   0  0  0  0  0  0  0  0  0  0  0  0
   38.1810   33.1400   37.6970 H   0  0  0  0  0  0  0  0  0  0  0  0
   37.3980   32.9000   39.6930 C   0  0  0  0  0  0  0  0  0  0  0  0
   37.7880   34.0350   40.0730 O   0  0  0  0  0  0  0  0  0  0  0  0
   36.7450   32.1210   40.5770 N   0  0  0  0  0  0  0  0  0  0  0  0
   36.3490   30.9210   40.1270 C   0  0  0  0  0  0  0  0  0  0  0  0
   35.7380   30.1920   40.9550 O   0  0  0  0  0  0  0  0  0  0  0  0
   36.5580   32.4350   41.5590 H   0  0  0  0  0  0  0  0  0  0  0  0
   34.6440   25.4030   37.4120 C   0  0  0  0  0  3  0  0  0  0  0  0
   34.9270   24.2610   38.0310 C   0  0  0  0  0  3  0  0  0  0  0  0
   34.3270   22.9780   37.5210 C   0  0  0  0  0  0  0  0  0  0  0  0
   34.1600   23.0770   36.4400 H   0  0  0  0  0  0  0  0  0  0  0  0
   33.3580   22.8110   38.0190 H   0  0  0  0  0  0  0  0  0  0  0  0
   35.0060   22.1340   37.7520 H   0  0  0  0  0  0  0  0  0  0  0  0
  1  6  1  0  0  0  0
  1  7  1  0  0  0  0
  2  1  2  0  0  0  0
  3  4  2  0  0  0  0
  3  2  1  0  0  0  0
  4  5  1  0  0  0  0
  5  9  1  0  0  0  0
  5  6  2  0  0  0  0
  8  3  1  0  0  0  0
  9 16  1  0  0  0  0
 10 11  2  0  0  0  0
 10  9  1  0  0  0  0
 11 13  1  0  0  0  0
 12 11  1  0  0  0  0
 13 14  2  0  0  0  0
 13 15  1  0  0  0  0
 15 18  1  0  0  0  0
 16 15  1  0  0  0  0
 16 17  2  0  0  0  0
 19  2  1  0  0  0  0
 19 20  2  0  0  0  0
 21 24  1  0  0  0  0
 21 23  1  0  0  0  0
 21 20  1  0  0  0  0
 22 21  1  0  0  0  0
M  END
>  <minimizedAffinity>
-4.38723373

$$$$

 OpenBabel03252501463D

 24 25  0  0  0  0  0  0  0  0999 V2000
   36.9940   24.3250   41.4590 C   0  0  0  0  0  0  0  0  0  0  0  0
   36.3450   24.3020   40.2070 C   0  0  0  0  0  0  0  0  0  0  0  0
   36.3500   25.4710   39.4620 C   0  0  0  0  0  0  0  0  0  0  0  0
   36.9750   26.5790   39.9630 N   0  0  0  0  0  0  0  0  0  0  0  0
   37.5840   26.5650   41.1570 C   0  0  0  0  0  0  0  0  0  0  0  0
   37.5800   25.4470   41.8730 N   0  0  0  0  0  0  0  0  0  0  0  0
   37.0060   23.4280   42.0620 H   0  0  0  0  0  0  0  0  0  0  0  0
   35.8780   25.5420   38.4950 H   0  0  0  0  0  0  0  0  0  0  0  0
   38.2170   27.7520   41.6230 N   0  0  0  0  0  0  0  0  0  0  0  0
   39.3580   28.1900   41.0480 C   0  0  0  0  0  3  0  0  0  0  0  0
   39.9040   29.3570   41.5690 C   0  0  0  0  0  0  0  0  0  0  0  0
   40.8290   29.7390   41.1250 H   0  0  0  0  0  0  0  0  0  0  0  0
   39.2890   30.0020   42.6130 C   0  0  0  0  0  0  0  0  0  0  0  0
   39.7970   31.0570   43.0740 O   0  0  0  0  0  0  0  0  0  0  0  0
   38.1510   29.5440   43.1710 N   0  0  0  0  0  0  0  0  0  0  0  0
   37.6480   28.4170   42.6470 C   0  0  0  0  0  0  0  0  0  0  0  0
   36.5830   27.9890   43.1700 O   0  0  0  0  0  0  0  0  0  0  0  0
   37.6880   30.0410   43.9690 H   0  0  0  0  0  0  0  0  0  0  0  0
   35.6880   23.1070   39.7000 C   0  0  0  0  0  3  0  0  0  0  0  0
   34.6050   23.0980   38.9290 C   0  0  0  0  0  3  0  0  0  0  0  0
   34.0310   21.7810   38.4780 C   0  0  0  0  0  0  0  0  0  0  0  0
   34.2640   21.0210   39.2370 H   0  0  0  0  0  0  0  0  0  0  0  0
   34.5040   21.4900   37.5250 H   0  0  0  0  0  0  0  0  0  0  0  0
   32.9400   21.8850   38.3270 H   0  0  0  0  0  0  0  0  0  0  0  0
  1  6  1  0  0  0  0
  1  7  1  0  0  0  0
  2  1  2  0  0  0  0
  3  4  2  0  0  0  0
  3  2  1  0  0  0  0
  4  5  1  0  0  0  0
  5  9  1  0  0  0  0
  5  6  2  0  0  0  0
  8  3  1  0  0  0  0
  9 16  1  0  0  0  0
 10 11  2  0  0  0  0
 10  9  1  0  0  0  0
 11 13  1  0  0  0  0
 12 11  1  0  0  0  0
 13 14  2  0  0  0  0
 13 15  1  0  0  0  0
 15 18  1  0  0  0  0
 16 17  2  0  0  0  0
 16 15  1  0  0  0  0
 19  2  1  0  0  0  0
 20 19  2  0  0  0  0
 21 20  1  0  0  0  0
 21 22  1  0  0  0  0
 23 21  1  0  0  0  0
 24 21  1  0  0  0  0
M  END
>  <minimizedAffinity>
-4.38709497

$$$$

 OpenBabel03252501463D

 24 25  0  0  0  0  0  0  0  0999 V2000
   40.3700   30.9440   39.1170 C   0  0  0  0  0  0  0  0  0  0  0  0
   40.6490   32.2280   39.6300 C   0  0  0  0  0  0  0  0  0  0  0  0
   40.1260   32.5490   40.8730 C   0  0  0  0  0  0  0  0  0  0  0  0
   39.3750   31.6220   41.5400 N   0  0  0  0  0  0  0  0  0  0  0  0
   39.1300   30.4100   41.0230 C   0  0  0  0  0  0  0  0  0  0  0  0
   39.6290   30.0990   39.8320 N   0  0  0  0  0  0  0  0  0  0  0  0
   40.7650   30.6660   38.1500 H   0  0  0  0  0  0  0  0  0  0  0  0
   40.2900   33.5070   41.3390 H   0  0  0  0  0  0  0  0  0  0  0  0
   38.3390   29.4890   41.7670 N   0  0  0  0  0  0  0  0  0  0  0  0
   38.8310   28.9120   42.8850 C   0  0  0  0  0  3  0  0  0  0  0  0
   37.9880   28.0260   43.5460 C   0  0  0  0  0  0  0  0  0  0  0  0
   38.3570   27.5410   44.4560 H   0  0  0  0  0  0  0  0  0  0  0  0
   36.7300   27.7760   43.0590 C   0  0  0  0  0  0  0  0  0  0  0  0
   35.9790   26.9710   43.6680 O   0  0  0  0  0  0  0  0  0  0  0  0
   36.2620   28.3640   41.9400 N   0  0  0  0  0  0  0  0  0  0  0  0
   37.0970   29.2130   41.3250 C   0  0  0  0  0  0  0  0  0  0  0  0
   36.6580   29.7630   40.2780 O   0  0  0  0  0  0  0  0  0  0  0  0
   35.2990   28.1670   41.5740 H   0  0  0  0  0  0  0  0  0  0  0  0
   41.4530   33.1940   38.8960 C   0  0  0  0  0  3  0  0  0  0  0  0
   42.1250   32.9390   37.7780 C   0  0  0  0  0  3  0  0  0  0  0  0
   42.9160   34.0410   37.1250 C   0  0  0  0  0  0  0  0  0  0  0  0
   43.2450   34.7430   37.9040 H   0  0  0  0  0  0  0  0  0  0  0  0
   42.2680   34.5760   36.4120 H   0  0  0  0  0  0  0  0  0  0  0  0
   43.7770   33.6060   36.5810 H   0  0  0  0  0  0  0  0  0  0  0  0
  1  2  2  0  0  0  0
  1  6  1  0  0  0  0
  2  3  1  0  0  0  0
  3  8  1  0  0  0  0
  3  4  2  0  0  0  0
  5  4  1  0  0  0  0
  5  9  1  0  0  0  0
  6  5  2  0  0  0  0
  7  1  1  0  0  0  0
  9 10  1  0  0  0  0
 10 11  2  0  0  0  0
 11 12  1  0  0  0  0
 13 11  1  0  0  0  0
 13 14  2  0  0  0  0
 15 13  1  0  0  0  0
 16  9  1  0  0  0  0
 16 15  1  0  0  0  0
 17 16  2  0  0  0  0
 18 15  1  0  0  0  0
 19  2  1  0  0  0  0
 20 19  2  0  0  0  0
 21 20  1  0  0  0  0
 21 22  1  0  0  0  0
 23 21  1  0  0  0  0
 24 21  1  0  0  0  0
M  END
>  <minimizedAffinity>
-4.36944962

$$$$

 OpenBabel03252501463D

 24 25  0  0  0  0  0  0  0  0999 V2000
   36.4140   29.3460   41.3610 C   0  0  0  0  0  0  0  0  0  0  0  0
   37.1470   30.1210   40.4380 C   0  0  0  0  0  0  0  0  0  0  0  0
   37.9320   29.4450   39.5160 C   0  0  0  0  0  0  0  0  0  0  0  0
   37.9610   28.0790   39.5390 N   0  0  0  0  0  0  0  0  0  0  0  0
   37.2500   27.3740   40.4300 C   0  0  0  0  0  0  0  0  0  0  0  0
   36.4980   28.0180   41.3150 N   0  0  0  0  0  0  0  0  0  0  0  0
   35.7940   29.8460   42.0920 H   0  0  0  0  0  0  0  0  0  0  0  0
   38.5240   29.9590   38.7750 H   0  0  0  0  0  0  0  0  0  0  0  0
   37.3230   25.9520   40.4020 N   0  0  0  0  0  0  0  0  0  0  0  0
   36.7490   25.2580   39.3960 C   0  0  0  0  0  3  0  0  0  0  0  0
   36.8720   23.8740   39.4520 C   0  0  0  0  0  0  0  0  0  0  0  0
   36.4170   23.2810   38.6510 H   0  0  0  0  0  0  0  0  0  0  0  0
   37.5460   23.2810   40.4900 C   0  0  0  0  0  0  0  0  0  0  0  0
   37.6480   22.0280   40.5260 O   0  0  0  0  0  0  0  0  0  0  0  0
   38.1100   23.9970   41.4830 N   0  0  0  0  0  0  0  0  0  0  0  0
   37.9760   25.3290   41.4020 C   0  0  0  0  0  0  0  0  0  0  0  0
   38.5040   25.9970   42.3310 O   0  0  0  0  0  0  0  0  0  0  0  0
   38.6230   23.5370   42.2730 H   0  0  0  0  0  0  0  0  0  0  0  0
   37.0960   31.5750   40.4380 C   0  0  0  0  0  3  0  0  0  0  0  0
   37.3080   32.3490   39.3780 C   0  0  0  0  0  3  0  0  0  0  0  0
   37.2210   33.8450   39.5280 C   0  0  0  0  0  0  0  0  0  0  0  0
   37.4980   34.1090   40.5580 H   0  0  0  0  0  0  0  0  0  0  0  0
   36.1830   34.1660   39.3430 H   0  0  0  0  0  0  0  0  0  0  0  0
   37.8900   34.3300   38.7910 H   0  0  0  0  0  0  0  0  0  0  0  0
  1  7  1  0  0  0  0
  2 19  1  0  0  0  0
  2  1  2  0  0  0  0
  3  4  2  0  0  0  0
  3  2  1  0  0  0  0
  4  5  1  0  0  0  0
  5  6  2  0  0  0  0
  6  1  1  0  0  0  0
  8  3  1  0  0  0  0
  9  5  1  0  0  0  0
  9 16  1  0  0  0  0
 10 11  2  0  0  0  0
 10  9  1  0  0  0  0
 11 13  1  0  0  0  0
 12 11  1  0  0  0  0
 13 14  2  0  0  0  0
 13 15  1  0  0  0  0
 15 18  1  0  0  0  0
 16 15  1  0  0  0  0
 16 17  2  0  0  0  0
 20 21  1  0  0  0  0
 20 19  2  0  0  0  0
 21 22  1  0  0  0  0
 23 21  1  0  0  0  0
 24 21  1  0  0  0  0
M  END
>  <minimizedAffinity>
-4.33838367

$$$$

 OpenBabel03252501463D

 24 25  0  0  0  0  0  0  0  0999 V2000
   38.1650   29.5730   39.8370 C   0  0  0  0  0  0  0  0  0  0  0  0
   37.0370   30.2370   40.3640 C   0  0  0  0  0  0  0  0  0  0  0  0
   36.0530   29.4580   40.9530 C   0  0  0  0  0  0  0  0  0  0  0  0
   36.2150   28.1020   41.0000 N   0  0  0  0  0  0  0  0  0  0  0  0
   37.3010   27.5040   40.4900 C   0  0  0  0  0  0  0  0  0  0  0  0
   38.2450   28.2460   39.9240 N   0  0  0  0  0  0  0  0  0  0  0  0
   38.9480   30.1540   39.3710 H   0  0  0  0  0  0  0  0  0  0  0  0
   35.1600   29.8830   41.3810 H   0  0  0  0  0  0  0  0  0  0  0  0
   37.4100   26.0860   40.5690 N   0  0  0  0  0  0  0  0  0  0  0  0
   37.6360   25.4830   41.7560 C   0  0  0  0  0  3  0  0  0  0  0  0
   37.7270   24.0960   41.7370 C   0  0  0  0  0  0  0  0  0  0  0  0
   37.9110   23.5760   42.6830 H   0  0  0  0  0  0  0  0  0  0  0  0
   37.5900   23.4100   40.5560 C   0  0  0  0  0  0  0  0  0  0  0  0
   37.6760   22.1550   40.5560 O   0  0  0  0  0  0  0  0  0  0  0  0
   37.3650   24.0360   39.3840 N   0  0  0  0  0  0  0  0  0  0  0  0
   37.2810   25.3730   39.4330 C   0  0  0  0  0  0  0  0  0  0  0  0
   37.0700   25.9570   38.3360 O   0  0  0  0  0  0  0  0  0  0  0  0
   37.2610   23.5050   38.4850 H   0  0  0  0  0  0  0  0  0  0  0  0
   36.8930   31.6840   40.2990 C   0  0  0  0  0  3  0  0  0  0  0  0
   37.4130   32.4630   39.3560 C   0  0  0  0  0  3  0  0  0  0  0  0
   37.1810   33.9500   39.4170 C   0  0  0  0  0  0  0  0  0  0  0  0
   37.0580   34.2400   40.4690 H   0  0  0  0  0  0  0  0  0  0  0  0
   36.2560   34.1920   38.8680 H   0  0  0  0  0  0  0  0  0  0  0  0
   38.0330   34.4770   38.9460 H   0  0  0  0  0  0  0  0  0  0  0  0
  1  6  2  0  0  0  0
  1  2  1  0  0  0  0
  2  3  2  0  0  0  0
  3  4  1  0  0  0  0
  3  8  1  0  0  0  0
  5  9  1  0  0  0  0
  5  4  2  0  0  0  0
  6  5  1  0  0  0  0
  7  1  1  0  0  0  0
  9 10  1  0  0  0  0
 11 10  2  0  0  0  0
 11 12  1  0  0  0  0
 13 11  1  0  0  0  0
 14 13  2  0  0  0  0
 15 16  1  0  0  0  0
 15 13  1  0  0  0  0
 16  9  1  0  0  0  0
 17 16  2  0  0  0  0
 18 15  1  0  0  0  0
 19  2  1  0  0  0  0
 20 21  1  0  0  0  0
 20 19  2  0  0  0  0
 21 22  1  0  0  0  0
 23 21  1  0  0  0  0
 24 21  1  0  0  0  0
M  END
>  <minimizedAffinity>
-4.33615828

$$$$
