
 OpenBabel03252509203D

 44 47  0  0  1  0  0  0  0  0999 V2000
   37.4490   27.1750   42.2130 C   0  0  1  0  0  0  0  0  0  0  0  0
   37.5300   25.6870   42.0740 C   0  0  0  0  0  0  0  0  0  0  0  0
   38.9000   25.1180   42.3710 C   0  0  0  0  0  0  0  0  0  0  0  0
   39.5300   25.6970   43.6000 C   0  0  0  0  0  0  0  0  0  0  0  0
   39.3690   27.1820   43.6770 C   0  0  0  0  0  0  0  0  0  0  0  0
   38.8760   27.7460   42.3150 C   0  0  2  0  0  0  0  0  0  0  0  0
   36.9540   27.4740   43.1580 H   0  0  0  0  0  0  0  0  0  0  0  0
   36.8320   25.2420   42.8190 H   0  0  0  0  0  0  0  0  0  0  0  0
   37.2260   25.2980   41.0930 H   0  0  0  0  0  0  0  0  0  0  0  0
   38.7790   24.0510   42.4980 H   0  0  0  0  0  0  0  0  0  0  0  0
   39.5380   25.3060   41.4850 H   0  0  0  0  0  0  0  0  0  0  0  0
   40.5930   25.3820   43.6170 H   0  0  0  0  0  0  0  0  0  0  0  0
   39.0340   25.2690   44.5010 H   0  0  0  0  0  0  0  0  0  0  0  0
   38.5600   27.4740   44.3980 H   0  0  0  0  0  0  0  0  0  0  0  0
   40.3310   27.6460   43.9450 H   0  0  0  0  0  0  0  0  0  0  0  0
   39.4830   27.2940   41.4980 H   0  0  0  0  0  0  0  0  0  0  0  0
   35.8300   28.5650   38.7110 C   0  0  0  0  0  0  0  0  0  0  0  0
   35.1900   29.0570   39.8430 C   0  0  0  0  0  0  0  0  0  0  0  0
   35.6310   28.6680   41.0360 C   0  0  0  0  0  0  0  0  0  0  0  0
   36.7240   27.7810   41.1400 C   0  0  0  0  0  0  0  0  0  0  0  0
   37.1550   27.4710   39.3960 S   0  0  0  0  0  0  0  0  0  0  0  0
   34.3550   29.7370   39.7490 H   0  0  0  0  0  0  0  0  0  0  0  0
   35.2510   28.9480   42.0050 H   0  0  0  0  0  0  0  0  0  0  0  0
   34.1150   29.0940   35.4440 C   0  0  0  0  0  0  0  0  0  0  0  0
   35.1700   29.5950   34.6830 C   0  0  0  0  0  0  0  0  0  0  0  0
   36.4170   29.7340   35.3150 C   0  0  0  0  0  0  0  0  0  0  0  0
   36.5230   29.3740   36.6260 N   0  0  0  0  0  0  0  0  0  0  0  0
   35.4830   28.8970   37.3210 C   0  0  0  0  0  0  0  0  0  0  0  0
   34.2730   28.7570   36.7220 N   0  0  0  0  0  0  0  0  0  0  0  0
   33.1380   28.9700   34.9970 H   0  0  0  0  0  0  0  0  0  0  0  0
   35.0660   29.8700   33.6590 H   0  0  0  0  0  0  0  0  0  0  0  0
   37.2870   30.1150   34.7950 H   0  0  0  0  0  0  0  0  0  0  0  0
   38.8880   29.1820   42.3350 C   0  0  0  0  0  0  0  0  0  0  0  0
   38.5500   29.7990   43.3310 O   0  0  0  0  0  0  0  0  0  0  0  0
   37.5240   32.9350   40.0020 H   0  0  0  0  0  0  0  0  0  0  0  0
   38.2330   32.4240   40.5600 N   0  0  0  0  0  0  0  0  0  0  0  0
   38.1850   31.2110   41.1180 C   0  0  0  0  0  3  0  0  0  0  0  0
   39.0770   30.4820   41.8620 C   0  0  0  0  0  0  0  0  0  0  0  0
   40.2760   31.1950   42.0510 C   0  0  0  0  0  0  0  0  0  0  0  0
   41.3470   30.8640   42.6830 O   0  0  0  0  0  0  0  0  0  0  0  0
   40.4280   32.4640   41.5120 N   0  0  0  0  0  0  0  0  0  0  0  0
   39.4160   32.9780   40.8190 C   0  0  0  0  0  0  0  0  0  0  0  0
   39.6550   34.1460   40.3690 O   0  0  0  0  0  0  0  0  0  0  0  0
   41.3210   32.9710   41.6660 H   0  0  0  0  0  0  0  0  0  0  0  0
  1  6  1  0  0  0  0
  1  7  1  1  0  0  0
  2  1  1  0  0  0  0
  2  3  1  0  0  0  0
  2  8  1  0  0  0  0
  3 10  1  0  0  0  0
  3  4  1  0  0  0  0
  4 12  1  0  0  0  0
  4  5  1  0  0  0  0
  4 13  1  0  0  0  0
  5 15  1  0  0  0  0
  5 14  1  0  0  0  0
  6 16  1  6  0  0  0
  6 33  1  0  0  0  0
  6  5  1  0  0  0  0
  9  2  1  0  0  0  0
 11  3  1  0  0  0  0
 17 21  1  0  0  0  0
 17 18  2  0  0  0  0
 18 19  1  0  0  0  0
 19 20  2  0  0  0  0
 19 23  1  0  0  0  0
 20  1  1  0  0  0  0
 21 20  1  0  0  0  0
 22 18  1  0  0  0  0
 24 29  1  0  0  0  0
 25 26  1  0  0  0  0
 25 24  2  0  0  0  0
 26 27  2  0  0  0  0
 27 28  1  0  0  0  0
 28 17  1  0  0  0  0
 29 28  2  0  0  0  0
 30 24  1  0  0  0  0
 31 25  1  0  0  0  0
 32 26  1  0  0  0  0
 33 34  2  0  0  0  0
 35 36  1  0  0  0  0
 36 42  1  0  0  0  0
 36 37  1  0  0  0  0
 37 38  2  0  0  0  0
 38 39  1  0  0  0  0
 38 33  1  0  0  0  0
 39 40  2  0  0  0  0
 41 44  1  0  0  0  0
 41 39  1  0  0  0  0
 42 41  1  0  0  0  0
 43 42  2  0  0  0  0
M  END
>  <minimizedAffinity>
-6.30733252

$$$$

 OpenBabel03252509203D

 44 48  0  0  1  0  0  0  0  0999 V2000
   37.4020   27.2550   42.1310 C   0  0  1  0  0  0  0  0  0  0  0  0
   37.2900   25.7630   42.1010 C   0  0  0  0  0  0  0  0  0  0  0  0
   38.6160   25.0470   42.2290 C   0  0  0  0  0  0  0  0  0  0  0  0
   39.4990   25.6160   43.2950 C   0  0  0  0  0  0  0  0  0  0  0  0
   39.5230   27.1110   43.2760 C   0  0  0  0  0  0  0  0  0  0  0  0
   38.8830   27.6480   41.9650 C   0  0  2  0  0  0  0  0  0  0  0  0
   37.1050   27.6710   43.1140 H   0  0  0  0  0  0  0  0  0  0  0  0
   36.6760   25.4560   42.9780 H   0  0  0  0  0  0  0  0  0  0  0  0
   36.7880   25.3550   41.2140 H   0  0  0  0  0  0  0  0  0  0  0  0
   38.3960   24.0130   42.4580 H   0  0  0  0  0  0  0  0  0  0  0  0
   39.1180   25.0980   41.2430 H   0  0  0  0  0  0  0  0  0  0  0  0
   40.5080   25.1720   43.1730 H   0  0  0  0  0  0  0  0  0  0  0  0
   39.1110   25.3100   44.2930 H   0  0  0  0  0  0  0  0  0  0  0  0
   38.8810   27.5460   44.0870 H   0  0  0  0  0  0  0  0  0  0  0  0
   40.5620   27.4670   43.3540 H   0  0  0  0  0  0  0  0  0  0  0  0
   39.2930   27.0740   41.1030 H   0  0  0  0  0  0  0  0  0  0  0  0
   35.3040   28.5320   38.8460 C   0  0  0  0  0  0  0  0  0  0  0  0
   35.1090   29.3320   39.9660 C   0  0  0  0  0  0  0  0  0  0  0  0
   35.7390   29.0080   41.0910 C   0  0  0  0  0  0  0  0  0  0  0  0
   36.5860   27.8800   41.1370 C   0  0  0  0  0  0  0  0  0  0  0  0
   36.4710   27.2240   39.4400 S   0  0  0  0  0  0  0  0  0  0  0  0
   34.4590   30.1940   39.9170 H   0  0  0  0  0  0  0  0  0  0  0  0
   35.6960   29.5140   42.0420 H   0  0  0  0  0  0  0  0  0  0  0  0
   34.6380   28.9600   35.2040 C   0  0  0  0  0  0  0  0  0  0  0  0
   33.2680   29.2160   35.2270 C   0  0  0  0  0  0  0  0  0  0  0  0
   32.6310   29.2290   36.4780 C   0  0  0  0  0  0  0  0  0  0  0  0
   33.3830   28.9910   37.5920 N   0  0  0  0  0  0  0  0  0  0  0  0
   34.6980   28.7490   37.5250 C   0  0  0  0  0  0  0  0  0  0  0  0
   35.3260   28.7340   36.3210 N   0  0  0  0  0  0  0  0  0  0  0  0
   35.1700   28.9420   34.2620 H   0  0  0  0  0  0  0  0  0  0  0  0
   32.6990   29.4000   34.3450 H   0  0  0  0  0  0  0  0  0  0  0  0
   31.5700   29.4190   36.5830 H   0  0  0  0  0  0  0  0  0  0  0  0
   39.0610   29.0690   41.8680 C   0  0  1  0  0  3  0  0  0  0  0  0
   38.9880   29.7820   42.8550 O   0  0  0  0  0  0  0  0  0  0  0  0
   40.1350   33.5650   42.0230 H   0  0  0  0  0  0  0  0  0  0  0  0
   39.8700   32.7160   41.4910 N   0  0  0  0  0  0  0  0  0  0  0  0
   39.6520   31.4660   41.9100 C   0  0  0  0  0  2  0  0  0  0  0  0
   39.3040   30.3060   41.2660 C   0  0  1  0  0  0  0  0  0  0  0  0
   39.1530   30.5230   39.8830 C   0  0  0  0  0  0  0  0  0  0  0  0
   38.8360   29.7020   38.9440 O   0  0  0  0  0  0  0  0  0  0  0  0
   39.3560   31.7860   39.3460 N   0  0  0  0  0  0  0  0  0  0  0  0
   39.6930   32.7730   40.1720 C   0  0  0  0  0  0  0  0  0  0  0  0
   39.8580   33.8890   39.5820 O   0  0  0  0  0  0  0  0  0  0  0  0
   39.2400   31.9210   38.3240 H   0  0  0  0  0  0  0  0  0  0  0  0
  1  7  1  1  0  0  0
  2  1  1  0  0  0  0
  2  3  1  0  0  0  0
  2  8  1  0  0  0  0
  3 10  1  0  0  0  0
  3  4  1  0  0  0  0
  4 13  1  0  0  0  0
  5  4  1  0  0  0  0
  5 15  1  0  0  0  0
  5 14  1  0  0  0  0
  6 16  1  6  0  0  0
  6  1  1  0  0  0  0
  6  5  1  0  0  0  0
  9  2  1  0  0  0  0
 11  3  1  0  0  0  0
 12  4  1  0  0  0  0
 17 21  1  0  0  0  0
 17 18  2  0  0  0  0
 18 19  1  0  0  0  0
 19 20  2  0  0  0  0
 19 23  1  0  0  0  0
 20  1  1  0  0  0  0
 21 20  1  0  0  0  0
 22 18  1  0  0  0  0
 24 25  2  0  0  0  0
 24 29  1  0  0  0  0
 25 26  1  0  0  0  0
 26 32  1  0  0  0  0
 26 27  2  0  0  0  0
 28 27  1  0  0  0  0
 28 17  1  0  0  0  0
 29 28  2  0  0  0  0
 30 24  1  0  0  0  0
 31 25  1  0  0  0  0
 33  6  1  0  0  0  0
 33 34  1  1  0  0  0
 36 37  1  0  0  0  0
 36 35  1  0  0  0  0
 38 33  1  0  0  0  0
 38 37  1  1  0  0  0
 38 34  1  0  0  0  0
 39 38  1  0  0  0  0
 40 39  2  0  0  0  0
 41 39  1  0  0  0  0
 41 42  1  0  0  0  0
 42 36  1  0  0  0  0
 43 42  2  0  0  0  0
 44 41  1  0  0  0  0
M  END
>  <minimizedAffinity>
-6.2418232

$$$$

 OpenBabel03252509203D

 44 47  0  0  1  0  0  0  0  0999 V2000
   36.1300   27.6380   37.7510 C   0  0  1  0  0  0  0  0  0  0  0  0
   35.0690   26.6150   37.4930 C   0  0  0  0  0  0  0  0  0  0  0  0
   33.8030   27.1840   36.8910 C   0  0  0  0  0  0  0  0  0  0  0  0
   34.0570   28.1570   35.7830 C   0  0  0  0  0  0  0  0  0  0  0  0
   35.1570   29.1170   36.1090 C   0  0  0  0  0  0  0  0  0  0  0  0
   35.5120   29.0430   37.6210 C   0  0  2  0  0  0  0  0  0  0  0  0
   36.9280   27.6050   36.9830 H   0  0  0  0  0  0  0  0  0  0  0  0
   35.4750   25.8890   36.7520 H   0  0  0  0  0  0  0  0  0  0  0  0
   34.7710   26.0270   38.3720 H   0  0  0  0  0  0  0  0  0  0  0  0
   33.2290   26.3490   36.5120 H   0  0  0  0  0  0  0  0  0  0  0  0
   33.2340   27.6690   37.7090 H   0  0  0  0  0  0  0  0  0  0  0  0
   33.1000   28.6680   35.5530 H   0  0  0  0  0  0  0  0  0  0  0  0
   34.3730   27.5990   34.8720 H   0  0  0  0  0  0  0  0  0  0  0  0
   36.1150   28.8400   35.5940 H   0  0  0  0  0  0  0  0  0  0  0  0
   34.8450   30.1410   35.8510 H   0  0  0  0  0  0  0  0  0  0  0  0
   34.5680   29.0560   38.2120 H   0  0  0  0  0  0  0  0  0  0  0  0
   38.5280   27.0850   41.0310 C   0  0  0  0  0  0  0  0  0  0  0  0
   37.1820   27.2120   41.3520 C   0  0  0  0  0  0  0  0  0  0  0  0
   36.3120   27.3990   40.3640 C   0  0  0  0  0  0  0  0  0  0  0  0
   36.7540   27.4620   39.0250 C   0  0  0  0  0  0  0  0  0  0  0  0
   38.5560   27.2430   39.1880 S   0  0  0  0  0  0  0  0  0  0  0  0
   36.8570   27.1590   42.3820 H   0  0  0  0  0  0  0  0  0  0  0  0
   35.2430   27.5190   40.4380 H   0  0  0  0  0  0  0  0  0  0  0  0
   41.2180   27.4390   43.5870 C   0  0  0  0  0  0  0  0  0  0  0  0
   41.6550   26.1190   43.6780 C   0  0  0  0  0  0  0  0  0  0  0  0
   41.0140   25.1660   42.8700 C   0  0  0  0  0  0  0  0  0  0  0  0
   40.0080   25.5830   42.0480 N   0  0  0  0  0  0  0  0  0  0  0  0
   39.6190   26.8630   41.9910 C   0  0  0  0  0  0  0  0  0  0  0  0
   40.2310   27.7940   42.7670 N   0  0  0  0  0  0  0  0  0  0  0  0
   41.6840   28.2060   44.1910 H   0  0  0  0  0  0  0  0  0  0  0  0
   42.4430   25.8130   44.3270 H   0  0  0  0  0  0  0  0  0  0  0  0
   41.2930   24.1200   42.8810 H   0  0  0  0  0  0  0  0  0  0  0  0
   36.4420   30.0810   37.9670 C   0  0  0  0  0  0  0  0  0  0  0  0
   37.4300   30.2930   37.2850 O   0  0  0  0  0  0  0  0  0  0  0  0
   39.2870   33.6970   38.4320 H   0  0  0  0  0  0  0  0  0  0  0  0
   38.5750   33.0500   38.8190 N   0  0  0  0  0  0  0  0  0  0  0  0
   37.9310   32.0290   38.2450 C   0  0  0  0  0  3  0  0  0  0  0  0
   36.9860   31.1430   38.6920 C   0  0  0  0  0  0  0  0  0  0  0  0
   36.6570   31.3940   40.0380 C   0  0  0  0  0  0  0  0  0  0  0  0
   35.8250   30.7940   40.8150 O   0  0  0  0  0  0  0  0  0  0  0  0
   37.2690   32.4320   40.7260 N   0  0  0  0  0  0  0  0  0  0  0  0
   38.1660   33.1710   40.0810 C   0  0  0  0  0  0  0  0  0  0  0  0
   38.6680   34.0960   40.7980 O   0  0  0  0  0  0  0  0  0  0  0  0
   37.0090   32.5980   41.7180 H   0  0  0  0  0  0  0  0  0  0  0  0
  1  7  1  6  0  0  0
  1 20  1  0  0  0  0
  2  1  1  0  0  0  0
  2  9  1  0  0  0  0
  3  2  1  0  0  0  0
  3 11  1  0  0  0  0
  4  5  1  0  0  0  0
  4  3  1  0  0  0  0
  5  6  1  0  0  0  0
  6  1  1  0  0  0  0
  6 33  1  0  0  0  0
  6 16  1  1  0  0  0
  8  2  1  0  0  0  0
 10  3  1  0  0  0  0
 12  4  1  0  0  0  0
 13  4  1  0  0  0  0
 14  5  1  0  0  0  0
 15  5  1  0  0  0  0
 17 18  2  0  0  0  0
 17 28  1  0  0  0  0
 18 22  1  0  0  0  0
 19 23  1  0  0  0  0
 19 18  1  0  0  0  0
 20 21  1  0  0  0  0
 20 19  2  0  0  0  0
 21 17  1  0  0  0  0
 24 25  1  0  0  0  0
 24 30  1  0  0  0  0
 25 31  1  0  0  0  0
 26 32  1  0  0  0  0
 26 25  2  0  0  0  0
 27 26  1  0  0  0  0
 28 27  2  0  0  0  0
 28 29  1  0  0  0  0
 29 24  2  0  0  0  0
 33 38  1  0  0  0  0
 34 33  2  0  0  0  0
 35 36  1  0  0  0  0
 36 42  1  0  0  0  0
 37 38  2  0  0  0  0
 37 36  1  0  0  0  0
 38 39  1  0  0  0  0
 39 41  1  0  0  0  0
 39 40  2  0  0  0  0
 41 44  1  0  0  0  0
 42 41  1  0  0  0  0
 42 43  2  0  0  0  0
M  END
>  <minimizedAffinity>
-6.08864737

$$$$

 OpenBabel03252509203D

 44 48  0  0  1  0  0  0  0  0999 V2000
   38.7370   28.7530   41.4920 C   0  0  1  0  0  0  0  0  0  0  0  0
   39.0660   28.1740   42.8310 C   0  0  0  0  0  0  0  0  0  0  0  0
   37.8520   27.8650   43.6800 C   0  0  0  0  0  0  0  0  0  0  0  0
   36.7570   27.1820   42.9220 C   0  0  0  0  0  0  0  0  0  0  0  0
   36.5200   27.7990   41.5810 C   0  0  0  0  0  0  0  0  0  0  0  0
   37.2530   29.1670   41.4760 C   0  0  2  0  0  0  0  0  0  0  0  0
   38.8310   28.0000   40.6840 H   0  0  0  0  0  0  0  0  0  0  0  0
   39.5890   27.2060   42.6590 H   0  0  0  0  0  0  0  0  0  0  0  0
   39.7400   28.7850   43.4460 H   0  0  0  0  0  0  0  0  0  0  0  0
   38.1840   27.2250   44.4860 H   0  0  0  0  0  0  0  0  0  0  0  0
   37.4900   28.8220   44.1040 H   0  0  0  0  0  0  0  0  0  0  0  0
   35.8490   27.1870   43.5600 H   0  0  0  0  0  0  0  0  0  0  0  0
   37.0420   26.1200   42.7440 H   0  0  0  0  0  0  0  0  0  0  0  0
   36.9740   27.1870   40.7570 H   0  0  0  0  0  0  0  0  0  0  0  0
   35.4400   27.9450   41.4240 H   0  0  0  0  0  0  0  0  0  0  0  0
   37.0540   29.7530   42.4020 H   0  0  0  0  0  0  0  0  0  0  0  0
   41.3920   31.4900   39.9830 C   0  0  0  0  0  0  0  0  0  0  0  0
   40.7290   31.9390   41.1190 C   0  0  0  0  0  0  0  0  0  0  0  0
   39.8400   31.1330   41.6920 C   0  0  0  0  0  0  0  0  0  0  0  0
   39.5850   29.8530   41.1530 C   0  0  0  0  0  0  0  0  0  0  0  0
   40.6990   29.7970   39.7110 S   0  0  0  0  0  0  0  0  0  0  0  0
   40.9350   32.9210   41.5220 H   0  0  0  0  0  0  0  0  0  0  0  0
   39.2420   31.3230   42.5670 H   0  0  0  0  0  0  0  0  0  0  0  0
   43.8490   34.0140   38.7640 C   0  0  0  0  0  0  0  0  0  0  0  0
   44.2860   33.3960   37.5930 C   0  0  0  0  0  0  0  0  0  0  0  0
   43.7290   32.1470   37.2730 C   0  0  0  0  0  0  0  0  0  0  0  0
   42.8000   31.6150   38.1170 N   0  0  0  0  0  0  0  0  0  0  0  0
   42.4080   32.2430   39.2330 C   0  0  0  0  0  0  0  0  0  0  0  0
   42.9380   33.4510   39.5540 N   0  0  0  0  0  0  0  0  0  0  0  0
   44.2500   34.9770   39.0490 H   0  0  0  0  0  0  0  0  0  0  0  0
   45.0130   33.8290   36.9470 H   0  0  0  0  0  0  0  0  0  0  0  0
   44.0150   31.6010   36.3820 H   0  0  0  0  0  0  0  0  0  0  0  0
   36.8880   29.8380   40.2610 C   0  0  1  0  0  3  0  0  0  0  0  0
   35.7170   29.9920   39.9550 O   0  0  0  0  0  0  0  0  0  0  0  0
   37.3420   29.9840   35.6600 H   0  0  0  0  0  0  0  0  0  0  0  0
   37.3160   30.4570   36.5830 N   0  0  0  0  0  0  0  0  0  0  0  0
   37.1120   29.9570   37.8060 C   0  0  0  0  0  2  0  0  0  0  0  0
   37.0640   30.5200   39.0550 C   0  0  2  0  0  0  0  0  0  0  0  0
   37.2820   31.9100   38.9900 C   0  0  0  0  0  0  0  0  0  0  0  0
   37.3160   32.7890   39.9290 O   0  0  0  0  0  0  0  0  0  0  0  0
   37.5040   32.5270   37.7680 N   0  0  0  0  0  0  0  0  0  0  0  0
   37.5060   31.7720   36.6730 C   0  0  0  0  0  0  0  0  0  0  0  0
   37.7160   32.4330   35.6050 O   0  0  0  0  0  0  0  0  0  0  0  0
   37.6620   33.5530   37.7460 H   0  0  0  0  0  0  0  0  0  0  0  0
  1  7  1  6  0  0  0
  1  2  1  0  0  0  0
  2  9  1  0  0  0  0
  2  3  1  0  0  0  0
  3 11  1  0  0  0  0
  3 10  1  0  0  0  0
  4 12  1  0  0  0  0
  4  3  1  0  0  0  0
  5  4  1  0  0  0  0
  6  1  1  0  0  0  0
  6  5  1  0  0  0  0
  6 16  1  1  0  0  0
  8  2  1  0  0  0  0
 13  4  1  0  0  0  0
 14  5  1  0  0  0  0
 15  5  1  0  0  0  0
 17 18  2  0  0  0  0
 18 22  1  0  0  0  0
 18 19  1  0  0  0  0
 19 23  1  0  0  0  0
 20  1  1  0  0  0  0
 20 19  2  0  0  0  0
 21 17  1  0  0  0  0
 21 20  1  0  0  0  0
 24 30  1  0  0  0  0
 24 29  1  0  0  0  0
 25 24  2  0  0  0  0
 26 25  1  0  0  0  0
 26 27  2  0  0  0  0
 27 28  1  0  0  0  0
 28 29  2  0  0  0  0
 28 17  1  0  0  0  0
 31 25  1  0  0  0  0
 32 26  1  0  0  0  0
 33 34  1  1  0  0  0
 33  6  1  0  0  0  0
 35 36  1  0  0  0  0
 36 42  1  0  0  0  0
 36 37  1  0  0  0  0
 38 37  1  6  0  0  0
 38 34  1  0  0  0  0
 38 33  1  0  0  0  0
 39 38  1  0  0  0  0
 39 40  2  0  0  0  0
 41 39  1  0  0  0  0
 42 41  1  0  0  0  0
 43 42  2  0  0  0  0
 44 41  1  0  0  0  0
M  END
>  <minimizedAffinity>
-5.85933781

$$$$

 OpenBabel03252509203D

 44 47  0  0  1  0  0  0  0  0999 V2000
   40.4080   31.3390   39.2390 C   0  0  1  0  0  0  0  0  0  0  0  0
   40.8550   32.3510   38.2320 C   0  0  0  0  0  0  0  0  0  0  0  0
   41.0970   33.7270   38.8130 C   0  0  0  0  0  0  0  0  0  0  0  0
   41.8590   33.7020   40.1010 C   0  0  0  0  0  0  0  0  0  0  0  0
   41.3730   32.6370   41.0310 C   0  0  0  0  0  0  0  0  0  0  0  0
   40.0130   32.0660   40.5390 C   0  0  2  0  0  0  0  0  0  0  0  0
   41.2310   30.6580   39.5320 H   0  0  0  0  0  0  0  0  0  0  0  0
   41.8290   32.0050   37.8180 H   0  0  0  0  0  0  0  0  0  0  0  0
   40.1810   32.4790   37.3750 H   0  0  0  0  0  0  0  0  0  0  0  0
   41.6540   34.2890   38.0760 H   0  0  0  0  0  0  0  0  0  0  0  0
   40.1080   34.2060   38.9590 H   0  0  0  0  0  0  0  0  0  0  0  0
   41.8050   34.7160   40.5480 H   0  0  0  0  0  0  0  0  0  0  0  0
   42.9300   33.4820   39.8880 H   0  0  0  0  0  0  0  0  0  0  0  0
   42.0540   31.7460   41.0340 H   0  0  0  0  0  0  0  0  0  0  0  0
   41.2540   33.0540   42.0440 H   0  0  0  0  0  0  0  0  0  0  0  0
   39.3450   32.9140   40.2650 H   0  0  0  0  0  0  0  0  0  0  0  0
   37.0160   29.6370   37.6840 C   0  0  0  0  0  0  0  0  0  0  0  0
   37.9310   28.7030   38.1540 C   0  0  0  0  0  0  0  0  0  0  0  0
   39.0710   29.1440   38.6780 C   0  0  0  0  0  0  0  0  0  0  0  0
   39.3350   30.5290   38.7520 C   0  0  0  0  0  0  0  0  0  0  0  0
   37.8390   31.2610   38.0110 S   0  0  0  0  0  0  0  0  0  0  0  0
   37.7150   27.6450   38.0930 H   0  0  0  0  0  0  0  0  0  0  0  0
   39.8830   28.5610   39.0820 H   0  0  0  0  0  0  0  0  0  0  0  0
   34.1660   28.9610   35.3790 C   0  0  0  0  0  0  0  0  0  0  0  0
   33.1420   28.7470   36.3000 C   0  0  0  0  0  0  0  0  0  0  0  0
   33.4660   28.8400   37.6630 C   0  0  0  0  0  0  0  0  0  0  0  0
   34.7540   29.1300   38.0060 N   0  0  0  0  0  0  0  0  0  0  0  0
   35.7080   29.3270   37.0880 C   0  0  0  0  0  0  0  0  0  0  0  0
   35.4080   29.2420   35.7670 N   0  0  0  0  0  0  0  0  0  0  0  0
   33.9610   28.9000   34.3180 H   0  0  0  0  0  0  0  0  0  0  0  0
   32.1410   28.5220   36.0110 H   0  0  0  0  0  0  0  0  0  0  0  0
   32.7290   28.6880   38.4420 H   0  0  0  0  0  0  0  0  0  0  0  0
   39.4630   31.1710   41.5170 C   0  0  0  0  0  0  0  0  0  0  0  0
   39.8520   31.1870   42.6730 O   0  0  0  0  0  0  0  0  0  0  0  0
   38.7870   27.2300   43.8420 H   0  0  0  0  0  0  0  0  0  0  0  0
   38.4230   28.0290   43.2900 N   0  0  0  0  0  0  0  0  0  0  0  0
   39.0610   29.0820   42.7700 C   0  0  0  0  0  3  0  0  0  0  0  0
   38.6460   30.1650   42.0380 C   0  0  0  0  0  0  0  0  0  0  0  0
   37.2570   30.1150   41.8070 C   0  0  0  0  0  0  0  0  0  0  0  0
   36.4920   30.9300   41.1700 O   0  0  0  0  0  0  0  0  0  0  0  0
   36.5030   29.0630   42.3040 N   0  0  0  0  0  0  0  0  0  0  0  0
   37.1270   28.1140   42.9960 C   0  0  0  0  0  0  0  0  0  0  0  0
   36.3470   27.1950   43.4090 O   0  0  0  0  0  0  0  0  0  0  0  0
   35.4810   29.0480   42.1220 H   0  0  0  0  0  0  0  0  0  0  0  0
  1  7  1  1  0  0  0
  1  6  1  0  0  0  0
  2  3  1  0  0  0  0
  2  1  1  0  0  0  0
  3 11  1  0  0  0  0
  3  4  1  0  0  0  0
  4 12  1  0  0  0  0
  4  5  1  0  0  0  0
  5 14  1  0  0  0  0
  5 15  1  0  0  0  0
  6 16  1  6  0  0  0
  6  5  1  0  0  0  0
  6 33  1  0  0  0  0
  8  2  1  0  0  0  0
  9  2  1  0  0  0  0
 10  3  1  0  0  0  0
 13  4  1  0  0  0  0
 17 21  1  0  0  0  0
 17 18  2  0  0  0  0
 18 19  1  0  0  0  0
 19 20  2  0  0  0  0
 19 23  1  0  0  0  0
 20  1  1  0  0  0  0
 21 20  1  0  0  0  0
 22 18  1  0  0  0  0
 24 29  2  0  0  0  0
 24 25  1  0  0  0  0
 25 26  2  0  0  0  0
 26 27  1  0  0  0  0
 26 32  1  0  0  0  0
 28 17  1  0  0  0  0
 28 27  2  0  0  0  0
 29 28  1  0  0  0  0
 30 24  1  0  0  0  0
 31 25  1  0  0  0  0
 33 38  1  0  0  0  0
 33 34  2  0  0  0  0
 36 35  1  0  0  0  0
 37 36  1  0  0  0  0
 38 37  2  0  0  0  0
 39 38  1  0  0  0  0
 39 41  1  0  0  0  0
 40 39  2  0  0  0  0
 41 42  1  0  0  0  0
 42 36  1  0  0  0  0
 42 43  2  0  0  0  0
 44 41  1  0  0  0  0
M  END
>  <minimizedAffinity>
-5.83348322

$$$$

 OpenBabel03252509203D

 44 47  0  0  1  0  0  0  0  0999 V2000
   37.0110   26.0560   39.3190 C   0  0  1  0  0  0  0  0  0  0  0  0
   37.1100   25.0810   40.4490 C   0  0  0  0  0  0  0  0  0  0  0  0
   36.2020   23.8790   40.3020 C   0  0  0  0  0  0  0  0  0  0  0  0
   36.2150   23.2910   38.9250 C   0  0  0  0  0  0  0  0  0  0  0  0
   36.1520   24.3360   37.8580 C   0  0  0  0  0  0  0  0  0  0  0  0
   35.7720   25.7140   38.4690 C   0  0  2  0  0  0  0  0  0  0  0  0
   37.8680   25.9670   38.6220 H   0  0  0  0  0  0  0  0  0  0  0  0
   38.1530   24.6920   40.4660 H   0  0  0  0  0  0  0  0  0  0  0  0
   36.9210   25.5060   41.4440 H   0  0  0  0  0  0  0  0  0  0  0  0
   36.5410   23.1380   41.0130 H   0  0  0  0  0  0  0  0  0  0  0  0
   35.1780   24.2000   40.5760 H   0  0  0  0  0  0  0  0  0  0  0  0
   35.3790   22.5640   38.8600 H   0  0  0  0  0  0  0  0  0  0  0  0
   37.1660   22.7310   38.7760 H   0  0  0  0  0  0  0  0  0  0  0  0
   37.1580   24.5160   37.3940 H   0  0  0  0  0  0  0  0  0  0  0  0
   35.4060   24.0490   37.1000 H   0  0  0  0  0  0  0  0  0  0  0  0
   34.9120   25.5750   39.1630 H   0  0  0  0  0  0  0  0  0  0  0  0
   37.4420   30.0430   40.1770 C   0  0  0  0  0  0  0  0  0  0  0  0
   36.4240   29.4340   40.9020 C   0  0  0  0  0  0  0  0  0  0  0  0
   36.1930   28.1400   40.7010 C   0  0  0  0  0  0  0  0  0  0  0  0
   36.9690   27.4110   39.7740 C   0  0  0  0  0  0  0  0  0  0  0  0
   38.1170   28.6730   39.1330 S   0  0  0  0  0  0  0  0  0  0  0  0
   35.8390   30.0040   41.6100 H   0  0  0  0  0  0  0  0  0  0  0  0
   35.4490   27.5200   41.1720 H   0  0  0  0  0  0  0  0  0  0  0  0
   39.0670   33.2840   41.0410 C   0  0  0  0  0  0  0  0  0  0  0  0
   38.3100   34.1610   40.2660 C   0  0  0  0  0  0  0  0  0  0  0  0
   37.2830   33.6110   39.4810 C   0  0  0  0  0  0  0  0  0  0  0  0
   37.0860   32.2620   39.5220 N   0  0  0  0  0  0  0  0  0  0  0  0
   37.8380   31.4550   40.2810 C   0  0  0  0  0  0  0  0  0  0  0  0
   38.8340   31.9740   41.0450 N   0  0  0  0  0  0  0  0  0  0  0  0
   39.8680   33.6640   41.6620 H   0  0  0  0  0  0  0  0  0  0  0  0
   38.4790   35.2120   40.2490 H   0  0  0  0  0  0  0  0  0  0  0  0
   36.6490   34.2230   38.8510 H   0  0  0  0  0  0  0  0  0  0  0  0
   35.5420   26.6770   37.4290 C   0  0  0  0  0  0  0  0  0  0  0  0
   34.4250   27.1150   37.2130 O   0  0  0  0  0  0  0  0  0  0  0  0
   34.4160   29.9330   34.3430 H   0  0  0  0  0  0  0  0  0  0  0  0
   35.1040   29.2760   34.7550 N   0  0  0  0  0  0  0  0  0  0  0  0
   34.9840   28.4290   35.7830 C   0  0  0  0  0  3  0  0  0  0  0  0
   35.8450   27.5420   36.3750 C   0  0  0  0  0  0  0  0  0  0  0  0
   37.1010   27.5560   35.7380 C   0  0  0  0  0  0  0  0  0  0  0  0
   38.1660   26.8780   35.9870 O   0  0  0  0  0  0  0  0  0  0  0  0
   37.3290   28.3990   34.6600 N   0  0  0  0  0  0  0  0  0  0  0  0
   36.3350   29.1830   34.2540 C   0  0  0  0  0  0  0  0  0  0  0  0
   36.6450   29.9190   33.2620 O   0  0  0  0  0  0  0  0  0  0  0  0
   38.2630   28.3920   34.2070 H   0  0  0  0  0  0  0  0  0  0  0  0
  1  7  1  6  0  0  0
  1 20  1  0  0  0  0
  1  2  1  0  0  0  0
  2  8  1  0  0  0  0
  2  9  1  0  0  0  0
  3  2  1  0  0  0  0
  3 11  1  0  0  0  0
  3 10  1  0  0  0  0
  4  3  1  0  0  0  0
  5  6  1  0  0  0  0
  5  4  1  0  0  0  0
  6 16  1  1  0  0  0
  6  1  1  0  0  0  0
 12  4  1  0  0  0  0
 13  4  1  0  0  0  0
 14  5  1  0  0  0  0
 15  5  1  0  0  0  0
 17 28  1  0  0  0  0
 17 18  2  0  0  0  0
 18 22  1  0  0  0  0
 19 18  1  0  0  0  0
 19 23  1  0  0  0  0
 20 19  2  0  0  0  0
 21 20  1  0  0  0  0
 21 17  1  0  0  0  0
 24 29  1  0  0  0  0
 24 30  1  0  0  0  0
 25 24  2  0  0  0  0
 26 27  2  0  0  0  0
 26 25  1  0  0  0  0
 27 28  1  0  0  0  0
 28 29  2  0  0  0  0
 31 25  1  0  0  0  0
 32 26  1  0  0  0  0
 33  6  1  0  0  0  0
 34 33  2  0  0  0  0
 35 36  1  0  0  0  0
 36 37  1  0  0  0  0
 37 38  2  0  0  0  0
 38 33  1  0  0  0  0
 39 40  2  0  0  0  0
 39 38  1  0  0  0  0
 41 39  1  0  0  0  0
 42 41  1  0  0  0  0
 42 36  1  0  0  0  0
 43 42  2  0  0  0  0
 44 41  1  0  0  0  0
M  END
>  <minimizedAffinity>
-5.68345118

$$$$

 OpenBabel03252509203D

 44 48  0  0  1  0  0  0  0  0999 V2000
   35.6330   29.6090   36.7810 C   0  0  1  0  0  0  0  0  0  0  0  0
   35.4350   29.2430   35.3440 C   0  0  0  0  0  0  0  0  0  0  0  0
   34.4120   28.1510   35.1250 C   0  0  0  0  0  0  0  0  0  0  0  0
   33.1640   28.3370   35.9300 C   0  0  0  0  0  0  0  0  0  0  0  0
   33.4510   28.7390   37.3420 C   0  0  0  0  0  0  0  0  0  0  0  0
   34.9590   28.5430   37.6660 C   0  0  2  0  0  0  0  0  0  0  0  0
   35.1200   30.5570   37.0380 H   0  0  0  0  0  0  0  0  0  0  0  0
   35.0550   30.1470   34.8160 H   0  0  0  0  0  0  0  0  0  0  0  0
   36.3480   28.9370   34.8150 H   0  0  0  0  0  0  0  0  0  0  0  0
   34.1630   28.1560   34.0720 H   0  0  0  0  0  0  0  0  0  0  0  0
   34.8940   27.1860   35.3770 H   0  0  0  0  0  0  0  0  0  0  0  0
   32.5750   27.3990   35.8660 H   0  0  0  0  0  0  0  0  0  0  0  0
   32.5550   29.1530   35.4790 H   0  0  0  0  0  0  0  0  0  0  0  0
   33.2820   29.8360   37.5030 H   0  0  0  0  0  0  0  0  0  0  0  0
   32.8420   28.1340   38.0320 H   0  0  0  0  0  0  0  0  0  0  0  0
   35.2790   27.5420   37.2950 H   0  0  0  0  0  0  0  0  0  0  0  0
   39.4270   30.7430   37.8440 C   0  0  0  0  0  0  0  0  0  0  0  0
   39.3270   29.3920   37.5300 C   0  0  0  0  0  0  0  0  0  0  0  0
   38.1390   28.9140   37.1730 C   0  0  0  0  0  0  0  0  0  0  0  0
   37.0130   29.7640   37.1160 C   0  0  0  0  0  0  0  0  0  0  0  0
   37.7040   31.3750   37.6160 S   0  0  0  0  0  0  0  0  0  0  0  0
   40.1980   28.7530   37.5760 H   0  0  0  0  0  0  0  0  0  0  0  0
   37.8880   27.9010   36.9040 H   0  0  0  0  0  0  0  0  0  0  0  0
   42.0720   32.6610   39.6390 C   0  0  0  0  0  0  0  0  0  0  0  0
   43.0770   32.6690   38.6730 C   0  0  0  0  0  0  0  0  0  0  0  0
   42.8130   32.0180   37.4570 C   0  0  0  0  0  0  0  0  0  0  0  0
   41.5980   31.4220   37.2900 N   0  0  0  0  0  0  0  0  0  0  0  0
   40.6590   31.4380   38.2450 C   0  0  0  0  0  0  0  0  0  0  0  0
   40.9020   32.0640   39.4260 N   0  0  0  0  0  0  0  0  0  0  0  0
   42.2320   33.1510   40.5900 H   0  0  0  0  0  0  0  0  0  0  0  0
   44.0200   33.1410   38.8230 H   0  0  0  0  0  0  0  0  0  0  0  0
   43.5400   31.9780   36.6550 H   0  0  0  0  0  0  0  0  0  0  0  0
   35.2030   28.7620   39.0630 C   0  0  1  0  0  3  0  0  0  0  0  0
   34.3300   29.2020   39.7930 O   0  0  0  0  0  0  0  0  0  0  0  0
   36.8700   30.9060   42.8070 H   0  0  0  0  0  0  0  0  0  0  0  0
   36.7660   30.0570   42.2220 N   0  0  0  0  0  0  0  0  0  0  0  0
   36.0900   29.8670   41.0840 C   0  0  0  0  0  2  0  0  0  0  0  0
   35.9110   28.7810   40.2670 C   0  0  2  0  0  0  0  0  0  0  0  0
   36.5990   27.6570   40.7650 C   0  0  0  0  0  0  0  0  0  0  0  0
   36.6830   26.4620   40.2960 O   0  0  0  0  0  0  0  0  0  0  0  0
   37.3310   27.7480   41.9390 N   0  0  0  0  0  0  0  0  0  0  0  0
   37.3620   28.9180   42.5720 C   0  0  0  0  0  0  0  0  0  0  0  0
   38.0580   28.8960   43.6380 O   0  0  0  0  0  0  0  0  0  0  0  0
   37.8290   26.9060   42.2860 H   0  0  0  0  0  0  0  0  0  0  0  0
  1  7  1  1  0  0  0
  1 20  1  0  0  0  0
  1  6  1  0  0  0  0
  2  1  1  0  0  0  0
  3  2  1  0  0  0  0
  3 11  1  0  0  0  0
  3  4  1  0  0  0  0
  4  5  1  0  0  0  0
  5 14  1  0  0  0  0
  5  6  1  0  0  0  0
  5 15  1  0  0  0  0
  6 16  1  6  0  0  0
  6 33  1  0  0  0  0
  8  2  1  0  0  0  0
  9  2  1  0  0  0  0
 10  3  1  0  0  0  0
 12  4  1  0  0  0  0
 13  4  1  0  0  0  0
 17 28  1  0  0  0  0
 18 22  1  0  0  0  0
 18 17  2  0  0  0  0
 19 18  1  0  0  0  0
 20 19  2  0  0  0  0
 20 21  1  0  0  0  0
 21 17  1  0  0  0  0
 23 19  1  0  0  0  0
 24 30  1  0  0  0  0
 25 31  1  0  0  0  0
 25 24  2  0  0  0  0
 26 25  1  0  0  0  0
 27 26  2  0  0  0  0
 27 28  1  0  0  0  0
 28 29  2  0  0  0  0
 29 24  1  0  0  0  0
 32 26  1  0  0  0  0
 33 34  1  1  0  0  0
 33 38  1  0  0  0  0
 34 38  1  0  0  0  0
 36 42  1  0  0  0  0
 36 35  1  0  0  0  0
 37 36  1  0  0  0  0
 38 39  1  0  0  0  0
 38 37  1  1  0  0  0
 39 41  1  0  0  0  0
 40 39  2  0  0  0  0
 41 44  1  0  0  0  0
 41 42  1  0  0  0  0
 42 43  2  0  0  0  0
M  END
>  <minimizedAffinity>
-5.67970324

$$$$

 OpenBabel03252509203D

 44 47  0  0  1  0  0  0  0  0999 V2000
   37.5280   26.7750   39.0160 C   0  0  1  0  0  0  0  0  0  0  0  0
   37.0820   25.3760   39.3030 C   0  0  0  0  0  0  0  0  0  0  0  0
   35.6620   25.0860   38.8680 C   0  0  0  0  0  0  0  0  0  0  0  0
   35.3400   25.6100   37.5030 C   0  0  0  0  0  0  0  0  0  0  0  0
   35.8550   26.9970   37.2890 C   0  0  0  0  0  0  0  0  0  0  0  0
   36.3000   27.6260   38.6400 C   0  0  2  0  0  0  0  0  0  0  0  0
   38.1900   26.8220   38.1290 H   0  0  0  0  0  0  0  0  0  0  0  0
   37.7390   24.6890   38.7230 H   0  0  0  0  0  0  0  0  0  0  0  0
   37.1640   25.0710   40.3540 H   0  0  0  0  0  0  0  0  0  0  0  0
   35.5420   24.0110   38.8780 H   0  0  0  0  0  0  0  0  0  0  0  0
   34.9850   25.5310   39.6230 H   0  0  0  0  0  0  0  0  0  0  0  0
   34.2420   25.5360   37.3620 H   0  0  0  0  0  0  0  0  0  0  0  0
   35.8250   24.9620   36.7380 H   0  0  0  0  0  0  0  0  0  0  0  0
   36.7910   27.0010   36.6700 H   0  0  0  0  0  0  0  0  0  0  0  0
   35.0700   27.6190   36.8320 H   0  0  0  0  0  0  0  0  0  0  0  0
   35.5090   27.4370   39.4020 H   0  0  0  0  0  0  0  0  0  0  0  0
   40.0970   28.5370   41.6840 C   0  0  0  0  0  0  0  0  0  0  0  0
   38.8960   28.1380   42.2610 C   0  0  0  0  0  0  0  0  0  0  0  0
   37.9850   27.5570   41.4860 C   0  0  0  0  0  0  0  0  0  0  0  0
   38.2410   27.3520   40.1130 C   0  0  0  0  0  0  0  0  0  0  0  0
   39.9140   28.0480   39.9100 S   0  0  0  0  0  0  0  0  0  0  0  0
   38.7140   28.3000   43.3150 H   0  0  0  0  0  0  0  0  0  0  0  0
   37.0110   27.1950   41.7690 H   0  0  0  0  0  0  0  0  0  0  0  0
   43.2220   29.2950   43.5690 C   0  0  0  0  0  0  0  0  0  0  0  0
   43.1230   30.6820   43.6730 C   0  0  0  0  0  0  0  0  0  0  0  0
   42.0010   31.2970   43.0950 C   0  0  0  0  0  0  0  0  0  0  0  0
   41.0790   30.5110   42.4700 N   0  0  0  0  0  0  0  0  0  0  0  0
   41.2130   29.1800   42.3920 C   0  0  0  0  0  0  0  0  0  0  0  0
   42.2930   28.5730   42.9470 N   0  0  0  0  0  0  0  0  0  0  0  0
   44.0690   28.7790   44.0000 H   0  0  0  0  0  0  0  0  0  0  0  0
   43.8550   31.2790   44.1660 H   0  0  0  0  0  0  0  0  0  0  0  0
   41.8490   32.3690   43.1320 H   0  0  0  0  0  0  0  0  0  0  0  0
   36.6310   29.0110   38.4620 C   0  0  0  0  0  0  0  0  0  0  0  0
   36.9890   29.4380   37.3770 O   0  0  0  0  0  0  0  0  0  0  0  0
   38.1240   33.2990   37.5800 H   0  0  0  0  0  0  0  0  0  0  0  0
   37.6820   32.6070   38.2130 N   0  0  0  0  0  0  0  0  0  0  0  0
   37.3950   31.3160   38.0180 C   0  0  0  0  0  3  0  0  0  0  0  0
   36.8150   30.3530   38.8040 C   0  0  0  0  0  0  0  0  0  0  0  0
   36.4690   30.8730   40.0660 C   0  0  0  0  0  0  0  0  0  0  0  0
   35.9140   30.3000   41.0750 O   0  0  0  0  0  0  0  0  0  0  0  0
   36.7250   32.2020   40.3690 N   0  0  0  0  0  0  0  0  0  0  0  0
   37.3010   32.9590   39.4400 C   0  0  0  0  0  0  0  0  0  0  0  0
   37.4910   34.1610   39.8160 O   0  0  0  0  0  0  0  0  0  0  0  0
   36.4600   32.5620   41.3060 H   0  0  0  0  0  0  0  0  0  0  0  0
  1  7  1  6  0  0  0
  1  2  1  0  0  0  0
  1 20  1  0  0  0  0
  2  9  1  0  0  0  0
  3 10  1  0  0  0  0
  3  2  1  0  0  0  0
  3 11  1  0  0  0  0
  4  3  1  0  0  0  0
  5  4  1  0  0  0  0
  5  6  1  0  0  0  0
  6  1  1  0  0  0  0
  6 16  1  1  0  0  0
  8  2  1  0  0  0  0
 12  4  1  0  0  0  0
 13  4  1  0  0  0  0
 14  5  1  0  0  0  0
 15  5  1  0  0  0  0
 17 18  2  0  0  0  0
 17 28  1  0  0  0  0
 18 22  1  0  0  0  0
 19 23  1  0  0  0  0
 19 18  1  0  0  0  0
 20 19  2  0  0  0  0
 21 20  1  0  0  0  0
 21 17  1  0  0  0  0
 24 25  1  0  0  0  0
 24 30  1  0  0  0  0
 25 31  1  0  0  0  0
 26 32  1  0  0  0  0
 26 25  2  0  0  0  0
 27 26  1  0  0  0  0
 28 27  2  0  0  0  0
 28 29  1  0  0  0  0
 29 24  2  0  0  0  0
 33  6  1  0  0  0  0
 33 38  1  0  0  0  0
 34 33  2  0  0  0  0
 35 36  1  0  0  0  0
 36 42  1  0  0  0  0
 37 36  1  0  0  0  0
 37 38  2  0  0  0  0
 38 39  1  0  0  0  0
 39 41  1  0  0  0  0
 39 40  2  0  0  0  0
 41 44  1  0  0  0  0
 42 43  2  0  0  0  0
 42 41  1  0  0  0  0
M  END
>  <minimizedAffinity>
-5.64277649

$$$$

 OpenBabel03252509203D

 44 48  0  0  1  0  0  0  0  0999 V2000
   37.7100   29.4490   40.2800 C   0  0  1  0  0  0  0  0  0  0  0  0
   36.7880   28.5310   41.0190 C   0  0  0  0  0  0  0  0  0  0  0  0
   35.3230   28.7790   40.7380 C   0  0  0  0  0  0  0  0  0  0  0  0
   35.0220   28.9800   39.2860 C   0  0  0  0  0  0  0  0  0  0  0  0
   36.0130   29.8790   38.6180 C   0  0  0  0  0  0  0  0  0  0  0  0
   36.8890   30.6040   39.6780 C   0  0  2  0  0  0  0  0  0  0  0  0
   38.1790   28.9480   39.4100 H   0  0  0  0  0  0  0  0  0  0  0  0
   37.0060   27.4920   40.6800 H   0  0  0  0  0  0  0  0  0  0  0  0
   36.9110   28.5330   42.1100 H   0  0  0  0  0  0  0  0  0  0  0  0
   34.7800   27.9170   41.1010 H   0  0  0  0  0  0  0  0  0  0  0  0
   35.0180   29.6690   41.3230 H   0  0  0  0  0  0  0  0  0  0  0  0
   33.9820   29.3570   39.2030 H   0  0  0  0  0  0  0  0  0  0  0  0
   35.0700   27.9980   38.7630 H   0  0  0  0  0  0  0  0  0  0  0  0
   36.7550   29.2970   38.0080 H   0  0  0  0  0  0  0  0  0  0  0  0
   35.4850   30.6230   38.0010 H   0  0  0  0  0  0  0  0  0  0  0  0
   36.2260   31.0050   40.4790 H   0  0  0  0  0  0  0  0  0  0  0  0
   41.1710   30.5720   42.1710 C   0  0  0  0  0  0  0  0  0  0  0  0
   40.0240   30.9490   42.8600 C   0  0  0  0  0  0  0  0  0  0  0  0
   38.8420   30.6380   42.3360 C   0  0  0  0  0  0  0  0  0  0  0  0
   38.7650   29.9400   41.1110 C   0  0  0  0  0  0  0  0  0  0  0  0
   40.5190   29.7140   40.6680 S   0  0  0  0  0  0  0  0  0  0  0  0
   40.0980   31.4810   43.7980 H   0  0  0  0  0  0  0  0  0  0  0  0
   37.8650   30.8560   42.7330 H   0  0  0  0  0  0  0  0  0  0  0  0
   44.6430   30.3100   43.5020 C   0  0  0  0  0  0  0  0  0  0  0  0
   45.0720   31.6280   43.3500 C   0  0  0  0  0  0  0  0  0  0  0  0
   44.1640   32.5450   42.7980 C   0  0  0  0  0  0  0  0  0  0  0  0
   42.9240   32.1000   42.4460 N   0  0  0  0  0  0  0  0  0  0  0  0
   42.5520   30.8240   42.6090 C   0  0  0  0  0  0  0  0  0  0  0  0
   43.4210   29.9270   43.1420 N   0  0  0  0  0  0  0  0  0  0  0  0
   45.3100   29.5700   43.9230 H   0  0  0  0  0  0  0  0  0  0  0  0
   46.0450   31.9560   43.6320 H   0  0  0  0  0  0  0  0  0  0  0  0
   44.4180   33.5870   42.6460 H   0  0  0  0  0  0  0  0  0  0  0  0
   37.7200   31.5920   39.0490 C   0  0  1  0  0  3  0  0  0  0  0  0
   37.2330   32.5720   38.5090 O   0  0  0  0  0  0  0  0  0  0  0  0
   41.1460   32.2300   36.0090 H   0  0  0  0  0  0  0  0  0  0  0  0
   40.6890   32.4430   36.9140 N   0  0  0  0  0  0  0  0  0  0  0  0
   39.5520   31.9750   37.4400 C   0  0  0  0  0  2  0  0  0  0  0  0
   38.8950   32.2130   38.6200 C   0  0  2  0  0  0  0  0  0  0  0  0
   39.5970   33.1450   39.4090 C   0  0  0  0  0  0  0  0  0  0  0  0
   39.3170   33.6260   40.5700 O   0  0  0  0  0  0  0  0  0  0  0  0
   40.7880   33.6900   38.9550 N   0  0  0  0  0  0  0  0  0  0  0  0
   41.2400   33.3080   37.7640 C   0  0  0  0  0  0  0  0  0  0  0  0
   42.3380   33.8670   37.4380 O   0  0  0  0  0  0  0  0  0  0  0  0
   41.2870   34.3750   39.5540 H   0  0  0  0  0  0  0  0  0  0  0  0
  1  7  1  6  0  0  0
  1  2  1  0  0  0  0
  1 20  1  0  0  0  0
  2  9  1  0  0  0  0
  3  2  1  0  0  0  0
  3 10  1  0  0  0  0
  3 11  1  0  0  0  0
  4  3  1  0  0  0  0
  5  4  1  0  0  0  0
  5  6  1  0  0  0  0
  6  1  1  0  0  0  0
  6 16  1  1  0  0  0
  8  2  1  0  0  0  0
 12  4  1  0  0  0  0
 13  4  1  0  0  0  0
 14  5  1  0  0  0  0
 15  5  1  0  0  0  0
 17 28  1  0  0  0  0
 17 18  2  0  0  0  0
 18 22  1  0  0  0  0
 19 23  1  0  0  0  0
 19 18  1  0  0  0  0
 20 19  2  0  0  0  0
 21 20  1  0  0  0  0
 21 17  1  0  0  0  0
 24 30  1  0  0  0  0
 25 24  1  0  0  0  0
 25 31  1  0  0  0  0
 26 25  2  0  0  0  0
 27 28  2  0  0  0  0
 27 26  1  0  0  0  0
 28 29  1  0  0  0  0
 29 24  2  0  0  0  0
 32 26  1  0  0  0  0
 33 34  1  1  0  0  0
 33  6  1  0  0  0  0
 34 38  1  0  0  0  0
 35 36  1  0  0  0  0
 36 37  1  0  0  0  0
 36 42  1  0  0  0  0
 38 37  1  6  0  0  0
 38 33  1  0  0  0  0
 38 39  1  0  0  0  0
 39 40  2  0  0  0  0
 41 39  1  0  0  0  0
 41 44  1  0  0  0  0
 42 41  1  0  0  0  0
 43 42  2  0  0  0  0
M  END
>  <minimizedAffinity>
-5.63381195

$$$$
