
 OpenBabel03252500593D

 39 41  0  0  0  0  0  0  0  0999 V2000
   37.0330   29.8470   39.6290 O   0  0  0  0  0  0  0  0  0  0  0  0
   37.0610   30.9390   40.7010 P   0  0  1  0  0  0  0  0  0  0  0  0
   35.5450   30.9540   41.4560 O   0  0  0  0  0  0  0  0  0  0  0  0
   34.9170   30.3140   41.0440 H   0  0  0  0  0  0  0  0  0  0  0  0
   38.2130   30.5360   41.8670 O   0  0  0  0  0  0  0  0  0  0  0  0
   38.7270   28.4090   42.7450 C   0  0  0  0  0  0  0  0  0  0  0  0
   39.0330   29.4180   41.8660 C   0  0  0  0  0  0  0  0  0  0  0  0
   40.1630   29.2270   41.0330 C   0  0  0  0  0  0  0  0  0  0  0  0
   40.8530   28.0780   41.1610 N   0  0  0  0  0  0  0  0  0  0  0  0
   40.5200   27.1170   42.0330 C   0  0  0  0  0  0  0  0  0  0  0  0
   39.4530   27.2910   42.8230 N   0  0  0  0  0  0  0  0  0  0  0  0
   40.3660   30.0390   40.3610 H   0  0  0  0  0  0  0  0  0  0  0  0
   41.1550   26.2480   42.0350 H   0  0  0  0  0  0  0  0  0  0  0  0
   37.5740   28.5330   43.6380 C   0  0  0  0  0  0  0  0  0  0  0  0
   37.8660   28.5580   44.7240 H   0  0  0  0  0  0  0  0  0  0  0  0
   37.0630   29.5080   43.4610 H   0  0  0  0  0  0  0  0  0  0  0  0
   36.5760   27.4540   43.3300 C   0  0  0  0  0  0  0  0  0  0  0  0
   36.6890   26.6810   44.1260 H   0  0  0  0  0  0  0  0  0  0  0  0
   35.5320   27.8220   43.3940 H   0  0  0  0  0  0  0  0  0  0  0  0
   36.8240   26.9890   42.3520 H   0  0  0  0  0  0  0  0  0  0  0  0
   37.3050   32.4490   40.0030 O   0  0  0  0  0  0  0  0  0  0  0  0
   38.6040   32.8500   39.7100 C   0  0  0  0  0  0  0  0  0  0  0  0
   39.0480   34.0200   40.3090 C   0  0  0  0  0  0  0  0  0  0  0  0
   40.3310   34.5000   40.0750 C   0  0  0  0  0  0  0  0  0  0  0  0
   41.1410   33.7890   39.2430 N   0  0  0  0  0  0  0  0  0  0  0  0
   40.7080   32.6650   38.6710 C   0  0  0  0  0  0  0  0  0  0  0  0
   39.4700   32.2090   38.9010 N   0  0  0  0  0  0  0  0  0  0  0  0
   38.3970   34.5700   40.9630 H   0  0  0  0  0  0  0  0  0  0  0  0
   40.6270   35.4080   40.5600 H   0  0  0  0  0  0  0  0  0  0  0  0
   41.5750   31.9400   37.8040 N   0  0  0  0  0  0  0  0  0  0  0  0
   42.7660   32.4380   37.4250 C   0  0  0  0  0  3  0  0  0  0  0  0
   43.5660   31.6730   36.5730 C   0  0  0  0  0  0  0  0  0  0  0  0
   44.4990   32.1880   36.3430 H   0  0  0  0  0  0  0  0  0  0  0  0
   43.1390   30.4420   36.1380 C   0  0  0  0  0  0  0  0  0  0  0  0
   43.9880   29.9050   35.3830 O   0  0  0  0  0  0  0  0  0  0  0  0
   41.9330   29.9800   36.5450 N   0  0  0  0  0  0  0  0  0  0  0  0
   41.1790   30.7330   37.3660 C   0  0  0  0  0  0  0  0  0  0  0  0
   40.0810   30.1860   37.6680 O   0  0  0  0  0  0  0  0  0  0  0  0
   41.7040   29.0410   36.1600 H   0  0  0  0  0  0  0  0  0  0  0  0
  2  1  2  6  0  0  0
  2  3  1  0  0  0  0
  2  5  1  0  0  0  0
  4  3  1  0  0  0  0
  6 11  1  0  0  0  0
  6 14  1  0  0  0  0
  7  5  1  0  0  0  0
  7  6  2  0  0  0  0
  8  9  2  0  0  0  0
  8  7  1  0  0  0  0
  9 10  1  0  0  0  0
 10 13  1  0  0  0  0
 10 11  2  0  0  0  0
 12  8  1  0  0  0  0
 14 15  1  0  0  0  0
 16 14  1  0  0  0  0
 17 19  1  0  0  0  0
 17 14  1  0  0  0  0
 17 18  1  0  0  0  0
 20 17  1  0  0  0  0
 21  2  1  0  0  0  0
 22 21  1  0  0  0  0
 22 23  1  0  0  0  0
 23 28  1  0  0  0  0
 24 23  2  0  0  0  0
 24 29  1  0  0  0  0
 25 24  1  0  0  0  0
 26 27  1  0  0  0  0
 26 25  2  0  0  0  0
 27 22  2  0  0  0  0
 30 26  1  0  0  0  0
 31 30  1  0  0  0  0
 32 31  2  0  0  0  0
 33 32  1  0  0  0  0
 34 36  1  0  0  0  0
 34 32  1  0  0  0  0
 35 34  2  0  0  0  0
 36 37  1  0  0  0  0
 37 38  2  0  0  0  0
 37 30  1  0  0  0  0
 39 36  1  0  0  0  0
M  END
>  <minimizedAffinity>
-6.40709305

$$$$

 OpenBabel03252500593D

 39 41  0  0  0  0  0  0  0  0999 V2000
   36.9970   29.7720   39.7050 O   0  0  0  0  0  0  0  0  0  0  0  0
   37.0400   30.9670   40.6610 P   0  0  1  0  0  0  0  0  0  0  0  0
   35.5420   31.0490   41.4470 O   0  0  0  0  0  0  0  0  0  0  0  0
   34.9100   30.3660   41.1160 H   0  0  0  0  0  0  0  0  0  0  0  0
   38.2220   30.6900   41.8340 O   0  0  0  0  0  0  0  0  0  0  0  0
   39.7780   28.9910   42.3370 C   0  0  0  0  0  0  0  0  0  0  0  0
   38.5010   29.4830   42.4560 C   0  0  0  0  0  0  0  0  0  0  0  0
   37.5800   28.7100   43.2050 C   0  0  0  0  0  0  0  0  0  0  0  0
   38.0180   27.5570   43.7440 N   0  0  0  0  0  0  0  0  0  0  0  0
   39.2740   27.1130   43.6030 C   0  0  0  0  0  0  0  0  0  0  0  0
   40.1490   27.8370   42.8970 N   0  0  0  0  0  0  0  0  0  0  0  0
   36.5950   29.1300   43.2730 H   0  0  0  0  0  0  0  0  0  0  0  0
   39.4930   26.1750   44.0850 H   0  0  0  0  0  0  0  0  0  0  0  0
   40.7860   29.7330   41.5770 C   0  0  0  0  0  0  0  0  0  0  0  0
   41.4950   29.0600   41.0220 H   0  0  0  0  0  0  0  0  0  0  0  0
   40.2900   30.3380   40.7830 H   0  0  0  0  0  0  0  0  0  0  0  0
   41.4930   30.6990   42.4850 C   0  0  0  0  0  0  0  0  0  0  0  0
   42.4840   30.2450   42.7200 H   0  0  0  0  0  0  0  0  0  0  0  0
   41.7000   31.6660   41.9830 H   0  0  0  0  0  0  0  0  0  0  0  0
   40.9220   30.8030   43.4320 H   0  0  0  0  0  0  0  0  0  0  0  0
   37.2550   32.4000   39.8090 O   0  0  0  0  0  0  0  0  0  0  0  0
   38.5490   32.8440   39.5610 C   0  0  0  0  0  0  0  0  0  0  0  0
   38.9330   34.0300   40.1700 C   0  0  0  0  0  0  0  0  0  0  0  0
   40.2060   34.5520   39.9800 C   0  0  0  0  0  0  0  0  0  0  0  0
   41.0680   33.8680   39.1790 N   0  0  0  0  0  0  0  0  0  0  0  0
   40.6930   32.7290   38.5950 C   0  0  0  0  0  0  0  0  0  0  0  0
   39.4640   32.2320   38.7840 N   0  0  0  0  0  0  0  0  0  0  0  0
   38.2410   34.5590   40.7990 H   0  0  0  0  0  0  0  0  0  0  0  0
   40.4540   35.4710   40.4720 H   0  0  0  0  0  0  0  0  0  0  0  0
   41.6140   32.0320   37.7620 N   0  0  0  0  0  0  0  0  0  0  0  0
   42.7990   32.5690   37.4220 C   0  0  0  0  0  3  0  0  0  0  0  0
   43.6540   31.8300   36.6010 C   0  0  0  0  0  0  0  0  0  0  0  0
   44.5770   32.3760   36.4020 H   0  0  0  0  0  0  0  0  0  0  0  0
   43.2850   30.5840   36.1550 C   0  0  0  0  0  0  0  0  0  0  0  0
   44.1770   30.0750   35.4320 O   0  0  0  0  0  0  0  0  0  0  0  0
   42.0810   30.0830   36.5220 N   0  0  0  0  0  0  0  0  0  0  0  0
   41.2750   30.8110   37.3140 C   0  0  0  0  0  0  0  0  0  0  0  0
   40.1860   30.2280   37.5790 O   0  0  0  0  0  0  0  0  0  0  0  0
   41.8980   29.1360   36.1320 H   0  0  0  0  0  0  0  0  0  0  0  0
  2  1  2  6  0  0  0
  2  3  1  0  0  0  0
  2  5  1  0  0  0  0
  4  3  1  0  0  0  0
  5  7  1  0  0  0  0
  6  7  2  0  0  0  0
  6 11  1  0  0  0  0
  7  8  1  0  0  0  0
  8 12  1  0  0  0  0
  8  9  2  0  0  0  0
 10  9  1  0  0  0  0
 10 13  1  0  0  0  0
 11 10  2  0  0  0  0
 14  6  1  0  0  0  0
 14 17  1  0  0  0  0
 15 14  1  0  0  0  0
 16 14  1  0  0  0  0
 17 18  1  0  0  0  0
 17 20  1  0  0  0  0
 19 17  1  0  0  0  0
 21  2  1  0  0  0  0
 22 21  1  0  0  0  0
 22 23  1  0  0  0  0
 23 28  1  0  0  0  0
 24 23  2  0  0  0  0
 24 29  1  0  0  0  0
 25 24  1  0  0  0  0
 26 27  1  0  0  0  0
 26 25  2  0  0  0  0
 27 22  2  0  0  0  0
 30 26  1  0  0  0  0
 31 30  1  0  0  0  0
 32 31  2  0  0  0  0
 33 32  1  0  0  0  0
 34 36  1  0  0  0  0
 34 32  1  0  0  0  0
 35 34  2  0  0  0  0
 36 37  1  0  0  0  0
 37 38  2  0  0  0  0
 37 30  1  0  0  0  0
 39 36  1  0  0  0  0
M  END
>  <minimizedAffinity>
-6.23188353

$$$$

 OpenBabel03252500593D

 39 41  0  0  0  0  0  0  0  0999 V2000
   35.9770   28.2150   41.6190 O   0  0  0  0  0  0  0  0  0  0  0  0
   37.1390   29.1120   42.0550 P   0  0  1  0  0  0  0  0  0  0  0  0
   37.0790   29.2430   43.7430 O   0  0  0  0  0  0  0  0  0  0  0  0
   36.2960   28.7790   44.1250 H   0  0  0  0  0  0  0  0  0  0  0  0
   38.5950   28.3610   41.6500 O   0  0  0  0  0  0  0  0  0  0  0  0
   39.0310   26.0570   41.4000 C   0  0  0  0  0  0  0  0  0  0  0  0
   39.0940   27.1830   42.1840 C   0  0  0  0  0  0  0  0  0  0  0  0
   39.6630   27.0390   43.4730 C   0  0  0  0  0  0  0  0  0  0  0  0
   40.0990   25.8180   43.8360 N   0  0  0  0  0  0  0  0  0  0  0  0
   40.0190   24.7450   43.0390 C   0  0  0  0  0  0  0  0  0  0  0  0
   39.4830   24.8730   41.8200 N   0  0  0  0  0  0  0  0  0  0  0  0
   39.6920   27.9420   44.0530 H   0  0  0  0  0  0  0  0  0  0  0  0
   40.4050   23.8280   43.4520 H   0  0  0  0  0  0  0  0  0  0  0  0
   38.4560   26.1270   40.0550 C   0  0  0  0  0  0  0  0  0  0  0  0
   38.2830   27.1830   39.7110 H   0  0  0  0  0  0  0  0  0  0  0  0
   39.1730   25.7020   39.3150 H   0  0  0  0  0  0  0  0  0  0  0  0
   37.2120   25.2860   39.9930 C   0  0  0  0  0  0  0  0  0  0  0  0
   36.3500   25.9910   40.0380 H   0  0  0  0  0  0  0  0  0  0  0  0
   37.1260   24.7430   39.0290 H   0  0  0  0  0  0  0  0  0  0  0  0
   37.1700   24.6220   40.8820 H   0  0  0  0  0  0  0  0  0  0  0  0
   36.9710   30.6550   41.4110 O   0  0  0  0  0  0  0  0  0  0  0  0
   37.5470   30.9330   40.1760 C   0  0  0  0  0  0  0  0  0  0  0  0
   36.8370   30.5400   39.0510 C   0  0  0  0  0  0  0  0  0  0  0  0
   37.3340   30.7740   37.7750 C   0  0  0  0  0  0  0  0  0  0  0  0
   38.5370   31.4000   37.6590 N   0  0  0  0  0  0  0  0  0  0  0  0
   39.2140   31.7750   38.7440 C   0  0  0  0  0  0  0  0  0  0  0  0
   38.7290   31.5460   39.9710 N   0  0  0  0  0  0  0  0  0  0  0  0
   35.8890   30.0460   39.1590 H   0  0  0  0  0  0  0  0  0  0  0  0
   36.7480   30.4510   36.9370 H   0  0  0  0  0  0  0  0  0  0  0  0
   40.4710   32.4290   38.5960 N   0  0  0  0  0  0  0  0  0  0  0  0
   41.0660   32.5420   37.3950 C   0  0  0  0  0  3  0  0  0  0  0  0
   42.2990   33.1950   37.3210 C   0  0  0  0  0  0  0  0  0  0  0  0
   42.6710   33.2180   36.2970 H   0  0  0  0  0  0  0  0  0  0  0  0
   42.8810   33.7090   38.4540 C   0  0  0  0  0  0  0  0  0  0  0  0
   43.9810   34.2580   38.1930 O   0  0  0  0  0  0  0  0  0  0  0  0
   42.2460   33.5720   39.6430 N   0  0  0  0  0  0  0  0  0  0  0  0
   41.0600   32.9400   39.6900 C   0  0  0  0  0  0  0  0  0  0  0  0
   40.5780   32.8820   40.8560 O   0  0  0  0  0  0  0  0  0  0  0  0
   42.7700   33.9940   40.4360 H   0  0  0  0  0  0  0  0  0  0  0  0
  2  1  2  6  0  0  0
  2  3  1  0  0  0  0
  3  4  1  0  0  0  0
  5  2  1  0  0  0  0
  5  7  1  0  0  0  0
  6 11  2  0  0  0  0
  6  7  1  0  0  0  0
  7  8  2  0  0  0  0
  8  9  1  0  0  0  0
  8 12  1  0  0  0  0
 10 13  1  0  0  0  0
 10  9  2  0  0  0  0
 11 10  1  0  0  0  0
 14  6  1  0  0  0  0
 15 14  1  0  0  0  0
 16 14  1  0  0  0  0
 17 18  1  0  0  0  0
 17 14  1  0  0  0  0
 17 20  1  0  0  0  0
 19 17  1  0  0  0  0
 21  2  1  0  0  0  0
 22 21  1  0  0  0  0
 23 28  1  0  0  0  0
 23 22  2  0  0  0  0
 24 23  1  0  0  0  0
 25 24  2  0  0  0  0
 25 26  1  0  0  0  0
 26 27  2  0  0  0  0
 27 22  1  0  0  0  0
 29 24  1  0  0  0  0
 30 26  1  0  0  0  0
 30 37  1  0  0  0  0
 31 30  1  0  0  0  0
 32 31  2  0  0  0  0
 32 34  1  0  0  0  0
 33 32  1  0  0  0  0
 34 36  1  0  0  0  0
 35 34  2  0  0  0  0
 36 37  1  0  0  0  0
 36 39  1  0  0  0  0
 37 38  2  0  0  0  0
M  END
>  <minimizedAffinity>
-5.93201208

$$$$

 OpenBabel03252500593D

 39 41  0  0  0  0  0  0  0  0999 V2000
   37.2630   30.1680   39.5470 O   0  0  0  0  0  0  0  0  0  0  0  0
   37.1870   30.5680   41.0230 P   0  0  1  0  0  0  0  0  0  0  0  0
   35.5940   31.0480   41.3410 O   0  0  0  0  0  0  0  0  0  0  0  0
   35.0320   31.0380   40.5290 H   0  0  0  0  0  0  0  0  0  0  0  0
   37.5160   29.2150   41.9770 O   0  0  0  0  0  0  0  0  0  0  0  0
   37.8440   26.9320   42.4680 C   0  0  0  0  0  0  0  0  0  0  0  0
   37.3550   27.8880   41.6110 C   0  0  0  0  0  0  0  0  0  0  0  0
   36.7280   27.4300   40.4260 C   0  0  0  0  0  0  0  0  0  0  0  0
   36.6560   26.1020   40.2240 N   0  0  0  0  0  0  0  0  0  0  0  0
   37.1460   25.2020   41.0870 C   0  0  0  0  0  0  0  0  0  0  0  0
   37.7400   25.6260   42.2080 N   0  0  0  0  0  0  0  0  0  0  0  0
   36.3610   28.2090   39.7840 H   0  0  0  0  0  0  0  0  0  0  0  0
   37.0230   24.1700   40.8050 H   0  0  0  0  0  0  0  0  0  0  0  0
   38.5040   27.3270   43.7130 C   0  0  0  0  0  0  0  0  0  0  0  0
   38.6750   28.4370   43.7810 H   0  0  0  0  0  0  0  0  0  0  0  0
   37.8470   27.0880   44.5810 H   0  0  0  0  0  0  0  0  0  0  0  0
   39.7680   26.5340   43.8890 C   0  0  0  0  0  0  0  0  0  0  0  0
   40.6090   27.2130   43.6150 H   0  0  0  0  0  0  0  0  0  0  0  0
   39.9310   26.2400   44.9460 H   0  0  0  0  0  0  0  0  0  0  0  0
   39.7670   25.6760   43.1840 H   0  0  0  0  0  0  0  0  0  0  0  0
   38.1930   31.8780   41.3350 O   0  0  0  0  0  0  0  0  0  0  0  0
   39.1670   32.2120   40.4000 C   0  0  0  0  0  0  0  0  0  0  0  0
   39.4930   33.5550   40.2880 C   0  0  0  0  0  0  0  0  0  0  0  0
   40.4530   33.9850   39.3800 C   0  0  0  0  0  0  0  0  0  0  0  0
   41.0660   33.0500   38.6040 N   0  0  0  0  0  0  0  0  0  0  0  0
   40.7480   31.7600   38.7160 C   0  0  0  0  0  0  0  0  0  0  0  0
   39.8220   31.3540   39.5930 N   0  0  0  0  0  0  0  0  0  0  0  0
   39.0000   34.2820   40.9080 H   0  0  0  0  0  0  0  0  0  0  0  0
   40.6700   35.0330   39.3310 H   0  0  0  0  0  0  0  0  0  0  0  0
   41.4040   30.8010   37.8920 N   0  0  0  0  0  0  0  0  0  0  0  0
   42.2250   31.1770   36.8950 C   0  0  0  0  0  3  0  0  0  0  0  0
   42.8360   30.1840   36.1250 C   0  0  0  0  0  0  0  0  0  0  0  0
   43.4730   30.6200   35.3550 H   0  0  0  0  0  0  0  0  0  0  0  0
   42.5980   28.8570   36.3870 C   0  0  0  0  0  0  0  0  0  0  0  0
   43.2310   28.1140   35.5960 O   0  0  0  0  0  0  0  0  0  0  0  0
   41.7630   28.5240   37.4010 N   0  0  0  0  0  0  0  0  0  0  0  0
   41.1870   29.4970   38.1290 C   0  0  0  0  0  0  0  0  0  0  0  0
   40.4340   29.0510   39.0400 O   0  0  0  0  0  0  0  0  0  0  0  0
   41.6510   27.4970   37.5160 H   0  0  0  0  0  0  0  0  0  0  0  0
  2  1  2  6  0  0  0
  2 21  1  0  0  0  0
  2  3  1  0  0  0  0
  2  5  1  0  0  0  0
  4  3  1  0  0  0  0
  6 14  1  0  0  0  0
  7  5  1  0  0  0  0
  7  6  2  0  0  0  0
  8  7  1  0  0  0  0
  9  8  2  0  0  0  0
  9 10  1  0  0  0  0
 10 11  2  0  0  0  0
 11  6  1  0  0  0  0
 12  8  1  0  0  0  0
 13 10  1  0  0  0  0
 14 15  1  0  0  0  0
 14 17  1  0  0  0  0
 14 16  1  0  0  0  0
 17 19  1  0  0  0  0
 18 17  1  0  0  0  0
 20 17  1  0  0  0  0
 22 21  1  0  0  0  0
 23 22  1  0  0  0  0
 23 28  1  0  0  0  0
 24 23  2  0  0  0  0
 25 26  2  0  0  0  0
 25 24  1  0  0  0  0
 26 27  1  0  0  0  0
 27 22  2  0  0  0  0
 29 24  1  0  0  0  0
 30 37  1  0  0  0  0
 30 26  1  0  0  0  0
 31 30  1  0  0  0  0
 32 34  1  0  0  0  0
 32 31  2  0  0  0  0
 33 32  1  0  0  0  0
 34 36  1  0  0  0  0
 35 34  2  0  0  0  0
 36 39  1  0  0  0  0
 36 37  1  0  0  0  0
 37 38  2  0  0  0  0
M  END
>  <minimizedAffinity>
-5.87843037

$$$$

 OpenBabel03252500593D

 39 41  0  0  0  0  0  0  0  0999 V2000
   36.2630   27.5820   43.0080 O   0  0  0  0  0  0  0  0  0  0  0  0
   37.2710   28.5710   42.4180 P   0  0  1  0  0  0  0  0  0  0  0  0
   37.9340   29.4530   43.7030 O   0  0  0  0  0  0  0  0  0  0  0  0
   37.5240   29.2170   44.5690 H   0  0  0  0  0  0  0  0  0  0  0  0
   38.5230   27.7090   41.6850 O   0  0  0  0  0  0  0  0  0  0  0  0
   39.5070   25.6090   42.1120 C   0  0  0  0  0  0  0  0  0  0  0  0
   39.5010   26.9660   42.3280 C   0  0  0  0  0  0  0  0  0  0  0  0
   40.4960   27.4850   43.1920 C   0  0  0  0  0  0  0  0  0  0  0  0
   41.3710   26.6200   43.7370 N   0  0  0  0  0  0  0  0  0  0  0  0
   41.3430   25.3020   43.4990 C   0  0  0  0  0  0  0  0  0  0  0  0
   40.4060   24.8040   42.6840 N   0  0  0  0  0  0  0  0  0  0  0  0
   40.4540   28.5490   43.3340 H   0  0  0  0  0  0  0  0  0  0  0  0
   42.1010   24.7220   43.9980 H   0  0  0  0  0  0  0  0  0  0  0  0
   38.5100   24.9980   41.2310 C   0  0  0  0  0  0  0  0  0  0  0  0
   38.1000   25.7200   40.4730 H   0  0  0  0  0  0  0  0  0  0  0  0
   38.9850   24.1910   40.6260 H   0  0  0  0  0  0  0  0  0  0  0  0
   37.4350   24.3510   42.0570 C   0  0  0  0  0  0  0  0  0  0  0  0
   36.5570   25.0370   42.0270 H   0  0  0  0  0  0  0  0  0  0  0  0
   37.0990   23.3890   41.6210 H   0  0  0  0  0  0  0  0  0  0  0  0
   37.7780   24.2670   43.1100 H   0  0  0  0  0  0  0  0  0  0  0  0
   36.5030   29.6570   41.3890 O   0  0  0  0  0  0  0  0  0  0  0  0
   37.2430   30.6990   40.8420 C   0  0  0  0  0  0  0  0  0  0  0  0
   36.6450   31.4230   39.8210 C   0  0  0  0  0  0  0  0  0  0  0  0
   37.3080   32.4810   39.2120 C   0  0  0  0  0  0  0  0  0  0  0  0
   38.5610   32.7900   39.6470 N   0  0  0  0  0  0  0  0  0  0  0  0
   39.1290   32.0900   40.6290 C   0  0  0  0  0  0  0  0  0  0  0  0
   38.4840   31.0720   41.2110 N   0  0  0  0  0  0  0  0  0  0  0  0
   35.6560   31.1670   39.4880 H   0  0  0  0  0  0  0  0  0  0  0  0
   36.8050   33.0090   38.4270 H   0  0  0  0  0  0  0  0  0  0  0  0
   40.4410   32.4330   41.0660 N   0  0  0  0  0  0  0  0  0  0  0  0
   41.1830   33.3450   40.4120 C   0  0  0  0  0  3  0  0  0  0  0  0
   42.4620   33.6330   40.8950 C   0  0  0  0  0  0  0  0  0  0  0  0
   42.9550   34.3840   40.2780 H   0  0  0  0  0  0  0  0  0  0  0  0
   42.9420   32.9970   42.0140 C   0  0  0  0  0  0  0  0  0  0  0  0
   44.1030   33.3830   42.2960 O   0  0  0  0  0  0  0  0  0  0  0  0
   42.1600   32.0850   42.6410 N   0  0  0  0  0  0  0  0  0  0  0  0
   40.9320   31.8240   42.1590 C   0  0  0  0  0  0  0  0  0  0  0  0
   40.3100   30.9580   42.8350 O   0  0  0  0  0  0  0  0  0  0  0  0
   42.6150   31.6620   43.4750 H   0  0  0  0  0  0  0  0  0  0  0  0
  2  1  2  1  0  0  0
  2  3  1  0  0  0  0
  3  4  1  0  0  0  0
  5  7  1  0  0  0  0
  5  2  1  0  0  0  0
  6  7  2  0  0  0  0
  6 11  1  0  0  0  0
  7  8  1  0  0  0  0
  8 12  1  0  0  0  0
  8  9  2  0  0  0  0
 10  9  1  0  0  0  0
 10 13  1  0  0  0  0
 11 10  2  0  0  0  0
 14 17  1  0  0  0  0
 14  6  1  0  0  0  0
 15 14  1  0  0  0  0
 16 14  1  0  0  0  0
 17 20  1  0  0  0  0
 18 17  1  0  0  0  0
 19 17  1  0  0  0  0
 21  2  1  0  0  0  0
 22 27  1  0  0  0  0
 22 21  1  0  0  0  0
 23 22  2  0  0  0  0
 24 25  2  0  0  0  0
 24 23  1  0  0  0  0
 25 26  1  0  0  0  0
 26 30  1  0  0  0  0
 26 27  2  0  0  0  0
 28 23  1  0  0  0  0
 29 24  1  0  0  0  0
 30 37  1  0  0  0  0
 31 32  2  0  0  0  0
 31 30  1  0  0  0  0
 32 34  1  0  0  0  0
 33 32  1  0  0  0  0
 34 35  2  0  0  0  0
 34 36  1  0  0  0  0
 36 39  1  0  0  0  0
 37 36  1  0  0  0  0
 37 38  2  0  0  0  0
M  END
>  <minimizedAffinity>
-5.86682415

$$$$

 OpenBabel03252500593D

 39 41  0  0  0  0  0  0  0  0999 V2000
   36.2600   27.5950   43.3380 O   0  0  0  0  0  0  0  0  0  0  0  0
   37.2930   28.4440   42.5910 P   0  0  1  0  0  0  0  0  0  0  0  0
   38.0570   29.4380   43.7290 O   0  0  0  0  0  0  0  0  0  0  0  0
   37.6730   29.3360   44.6320 H   0  0  0  0  0  0  0  0  0  0  0  0
   38.4640   27.4270   41.9270 O   0  0  0  0  0  0  0  0  0  0  0  0
   38.9150   25.1260   42.1750 C   0  0  0  0  0  0  0  0  0  0  0  0
   38.2740   26.1260   41.4860 C   0  0  0  0  0  0  0  0  0  0  0  0
   37.4740   25.7380   40.3830 C   0  0  0  0  0  0  0  0  0  0  0  0
   37.3990   24.4270   40.0900 N   0  0  0  0  0  0  0  0  0  0  0  0
   38.0410   23.4820   40.7890 C   0  0  0  0  0  0  0  0  0  0  0  0
   38.7990   23.8410   41.8320 N   0  0  0  0  0  0  0  0  0  0  0  0
   36.9920   26.5510   39.8730 H   0  0  0  0  0  0  0  0  0  0  0  0
   37.8960   22.4710   40.4480 H   0  0  0  0  0  0  0  0  0  0  0  0
   39.7600   25.4480   43.3270 C   0  0  0  0  0  0  0  0  0  0  0  0
   39.6050   26.4980   43.6990 H   0  0  0  0  0  0  0  0  0  0  0  0
   39.4850   24.7980   44.1900 H   0  0  0  0  0  0  0  0  0  0  0  0
   41.1970   25.1550   42.9980 C   0  0  0  0  0  0  0  0  0  0  0  0
   41.6800   26.1370   42.7880 H   0  0  0  0  0  0  0  0  0  0  0  0
   41.7380   24.7140   43.8590 H   0  0  0  0  0  0  0  0  0  0  0  0
   41.2460   24.5360   42.0770 H   0  0  0  0  0  0  0  0  0  0  0  0
   36.5390   29.4360   41.4620 O   0  0  0  0  0  0  0  0  0  0  0  0
   37.2610   30.4840   40.9020 C   0  0  0  0  0  0  0  0  0  0  0  0
   36.6560   31.1800   39.8670 C   0  0  0  0  0  0  0  0  0  0  0  0
   37.3010   32.2420   39.2460 C   0  0  0  0  0  0  0  0  0  0  0  0
   38.5450   32.5820   39.6820 N   0  0  0  0  0  0  0  0  0  0  0  0
   39.1220   31.9080   40.6780 C   0  0  0  0  0  0  0  0  0  0  0  0
   38.4930   30.8860   41.2720 N   0  0  0  0  0  0  0  0  0  0  0  0
   35.6740   30.9000   39.5330 H   0  0  0  0  0  0  0  0  0  0  0  0
   36.7920   32.7480   38.4500 H   0  0  0  0  0  0  0  0  0  0  0  0
   40.4240   32.2830   41.1170 N   0  0  0  0  0  0  0  0  0  0  0  0
   41.1520   33.1990   40.4530 C   0  0  0  0  0  3  0  0  0  0  0  0
   42.4220   33.5200   40.9380 C   0  0  0  0  0  0  0  0  0  0  0  0
   42.9050   34.2700   40.3120 H   0  0  0  0  0  0  0  0  0  0  0  0
   42.9080   32.9100   42.0690 C   0  0  0  0  0  0  0  0  0  0  0  0
   44.0610   33.3230   42.3510 O   0  0  0  0  0  0  0  0  0  0  0  0
   42.1410   31.9930   42.7060 N   0  0  0  0  0  0  0  0  0  0  0  0
   40.9210   31.7010   42.2210 C   0  0  0  0  0  0  0  0  0  0  0  0
   40.3120   30.8330   42.9080 O   0  0  0  0  0  0  0  0  0  0  0  0
   42.5990   31.5910   43.5480 H   0  0  0  0  0  0  0  0  0  0  0  0
  2  1  2  1  0  0  0
  2  3  1  0  0  0  0
  3  4  1  0  0  0  0
  5  2  1  0  0  0  0
  6 14  1  0  0  0  0
  7  5  1  0  0  0  0
  7  6  2  0  0  0  0
  8  7  1  0  0  0  0
  9  8  2  0  0  0  0
  9 10  1  0  0  0  0
 10 11  2  0  0  0  0
 11  6  1  0  0  0  0
 12  8  1  0  0  0  0
 13 10  1  0  0  0  0
 14 15  1  0  0  0  0
 14 16  1  0  0  0  0
 17 14  1  0  0  0  0
 17 19  1  0  0  0  0
 18 17  1  0  0  0  0
 20 17  1  0  0  0  0
 21  2  1  0  0  0  0
 22 27  1  0  0  0  0
 22 21  1  0  0  0  0
 23 22  2  0  0  0  0
 24 25  2  0  0  0  0
 24 23  1  0  0  0  0
 25 26  1  0  0  0  0
 26 30  1  0  0  0  0
 26 27  2  0  0  0  0
 28 23  1  0  0  0  0
 29 24  1  0  0  0  0
 30 37  1  0  0  0  0
 31 32  2  0  0  0  0
 31 30  1  0  0  0  0
 32 34  1  0  0  0  0
 33 32  1  0  0  0  0
 34 35  2  0  0  0  0
 34 36  1  0  0  0  0
 36 39  1  0  0  0  0
 37 36  1  0  0  0  0
 37 38  2  0  0  0  0
M  END
>  <minimizedAffinity>
-5.84524202

$$$$

 OpenBabel03252500593D

 39 41  0  0  0  0  0  0  0  0999 V2000
   34.1820   27.1610   37.2110 O   0  0  0  0  0  0  0  0  0  0  0  0
   33.9320   28.6710   37.2490 P   0  0  1  0  0  0  0  0  0  0  0  0
   35.1450   29.4140   36.3300 O   0  0  0  0  0  0  0  0  0  0  0  0
   35.8070   28.7640   35.9920 H   0  0  0  0  0  0  0  0  0  0  0  0
   32.4520   29.0030   36.5100 O   0  0  0  0  0  0  0  0  0  0  0  0
   31.0870   30.8830   36.1000 C   0  0  0  0  0  0  0  0  0  0  0  0
   31.4830   29.8880   36.9600 C   0  0  0  0  0  0  0  0  0  0  0  0
   30.8660   29.8540   38.2340 C   0  0  0  0  0  0  0  0  0  0  0  0
   29.9420   30.7930   38.5120 N   0  0  0  0  0  0  0  0  0  0  0  0
   29.5840   31.7470   37.6430 C   0  0  0  0  0  0  0  0  0  0  0  0
   30.1630   31.7850   36.4370 N   0  0  0  0  0  0  0  0  0  0  0  0
   31.2040   29.0610   38.8750 H   0  0  0  0  0  0  0  0  0  0  0  0
   28.8330   32.4360   37.9900 H   0  0  0  0  0  0  0  0  0  0  0  0
   31.6800   30.9820   34.7650 C   0  0  0  0  0  0  0  0  0  0  0  0
   32.7820   30.7550   34.7610 H   0  0  0  0  0  0  0  0  0  0  0  0
   31.2310   30.2140   34.0940 H   0  0  0  0  0  0  0  0  0  0  0  0
   31.3620   32.3240   34.1690 C   0  0  0  0  0  0  0  0  0  0  0  0
   32.2870   32.9400   34.2640 H   0  0  0  0  0  0  0  0  0  0  0  0
   31.1380   32.2550   33.0850 H   0  0  0  0  0  0  0  0  0  0  0  0
   30.5560   32.8090   34.7590 H   0  0  0  0  0  0  0  0  0  0  0  0
   34.0480   29.2520   38.8220 O   0  0  0  0  0  0  0  0  0  0  0  0
   35.3080   29.4040   39.3900 C   0  0  0  0  0  0  0  0  0  0  0  0
   35.5170   28.8070   40.6240 C   0  0  0  0  0  0  0  0  0  0  0  0
   36.7430   28.9060   41.2680 C   0  0  0  0  0  0  0  0  0  0  0  0
   37.7370   29.6060   40.6540 N   0  0  0  0  0  0  0  0  0  0  0  0
   37.5300   30.1780   39.4670 C   0  0  0  0  0  0  0  0  0  0  0  0
   36.3450   30.0770   38.8530 N   0  0  0  0  0  0  0  0  0  0  0  0
   34.7230   28.2580   41.0970 H   0  0  0  0  0  0  0  0  0  0  0  0
   36.8550   28.4280   42.2200 H   0  0  0  0  0  0  0  0  0  0  0  0
   38.5850   30.9040   38.8450 N   0  0  0  0  0  0  0  0  0  0  0  0
   39.7380   31.1600   39.4910 C   0  0  0  0  0  3  0  0  0  0  0  0
   40.7310   31.8780   38.8210 C   0  0  0  0  0  0  0  0  0  0  0  0
   41.6090   32.0170   39.4520 H   0  0  0  0  0  0  0  0  0  0  0  0
   40.5280   32.3080   37.5330 C   0  0  0  0  0  0  0  0  0  0  0  0
   41.5270   32.9340   37.0970 O   0  0  0  0  0  0  0  0  0  0  0  0
   39.3520   32.0290   36.9210 N   0  0  0  0  0  0  0  0  0  0  0  0
   38.4100   31.3350   37.5850 C   0  0  0  0  0  0  0  0  0  0  0  0
   37.3660   31.1430   36.9010 O   0  0  0  0  0  0  0  0  0  0  0  0
   39.2990   32.3980   35.9500 H   0  0  0  0  0  0  0  0  0  0  0  0
  2  1  2  1  0  0  0
  2 21  1  0  0  0  0
  3  2  1  0  0  0  0
  4  3  1  0  0  0  0
  5  7  1  0  0  0  0
  5  2  1  0  0  0  0
  6 11  2  0  0  0  0
  6  7  1  0  0  0  0
  7  8  2  0  0  0  0
  8  9  1  0  0  0  0
  8 12  1  0  0  0  0
 10 13  1  0  0  0  0
 10  9  2  0  0  0  0
 11 10  1  0  0  0  0
 14  6  1  0  0  0  0
 15 14  1  0  0  0  0
 16 14  1  0  0  0  0
 17 18  1  0  0  0  0
 17 20  1  0  0  0  0
 17 14  1  0  0  0  0
 19 17  1  0  0  0  0
 21 22  1  0  0  0  0
 22 23  1  0  0  0  0
 23 28  1  0  0  0  0
 23 24  2  0  0  0  0
 24 29  1  0  0  0  0
 25 24  1  0  0  0  0
 26 25  2  0  0  0  0
 27 22  2  0  0  0  0
 27 26  1  0  0  0  0
 30 26  1  0  0  0  0
 30 31  1  0  0  0  0
 32 33  1  0  0  0  0
 32 31  2  0  0  0  0
 34 32  1  0  0  0  0
 35 34  2  0  0  0  0
 36 34  1  0  0  0  0
 36 37  1  0  0  0  0
 37 30  1  0  0  0  0
 38 37  2  0  0  0  0
 39 36  1  0  0  0  0
M  END
>  <minimizedAffinity>
-5.80526733

$$$$

 OpenBabel03252500593D

 39 41  0  0  0  0  0  0  0  0999 V2000
   37.0970   28.2120   39.8510 O   0  0  0  0  0  0  0  0  0  0  0  0
   36.5880   28.6830   41.2160 P   0  0  1  0  0  0  0  0  0  0  0  0
   34.9720   29.1510   41.0250 O   0  0  0  0  0  0  0  0  0  0  0  0
   34.6740   29.0910   40.0860 H   0  0  0  0  0  0  0  0  0  0  0  0
   36.6250   27.3860   42.2940 O   0  0  0  0  0  0  0  0  0  0  0  0
   38.6130   26.2350   42.8270 C   0  0  0  0  0  0  0  0  0  0  0  0
   37.4000   26.2410   42.1830 C   0  0  0  0  0  0  0  0  0  0  0  0
   37.0480   25.0750   41.4610 C   0  0  0  0  0  0  0  0  0  0  0  0
   37.9200   24.0500   41.4560 N   0  0  0  0  0  0  0  0  0  0  0  0
   39.0950   24.0850   42.0980 C   0  0  0  0  0  0  0  0  0  0  0  0
   39.4350   25.1840   42.7830 N   0  0  0  0  0  0  0  0  0  0  0  0
   36.0920   25.1220   40.9730 H   0  0  0  0  0  0  0  0  0  0  0  0
   39.7000   23.1980   42.0130 H   0  0  0  0  0  0  0  0  0  0  0  0
   39.0470   27.4050   43.5940 C   0  0  0  0  0  0  0  0  0  0  0  0
   38.2030   28.1130   43.8210 H   0  0  0  0  0  0  0  0  0  0  0  0
   39.4220   27.0830   44.5930 H   0  0  0  0  0  0  0  0  0  0  0  0
   40.1930   28.0750   42.8900 C   0  0  0  0  0  0  0  0  0  0  0  0
   39.7710   28.9750   42.3860 H   0  0  0  0  0  0  0  0  0  0  0  0
   40.9600   28.4410   43.6020 H   0  0  0  0  0  0  0  0  0  0  0  0
   40.5980   27.3940   42.1120 H   0  0  0  0  0  0  0  0  0  0  0  0
   37.4550   30.0240   41.7400 O   0  0  0  0  0  0  0  0  0  0  0  0
   37.8940   30.9490   40.7990 C   0  0  0  0  0  0  0  0  0  0  0  0
   37.0010   31.9450   40.4350 C   0  0  0  0  0  0  0  0  0  0  0  0
   37.3510   32.9130   39.5010 C   0  0  0  0  0  0  0  0  0  0  0  0
   38.5960   32.8560   38.9530 N   0  0  0  0  0  0  0  0  0  0  0  0
   39.4500   31.8950   39.3070 C   0  0  0  0  0  0  0  0  0  0  0  0
   39.1060   30.9670   40.2080 N   0  0  0  0  0  0  0  0  0  0  0  0
   36.0220   31.9770   40.8760 H   0  0  0  0  0  0  0  0  0  0  0  0
   36.6260   33.6620   39.2530 H   0  0  0  0  0  0  0  0  0  0  0  0
   40.7470   31.8580   38.7200 N   0  0  0  0  0  0  0  0  0  0  0  0
   41.0810   32.6730   37.7030 C   0  0  0  0  0  3  0  0  0  0  0  0
   42.3700   32.5830   37.1730 C   0  0  0  0  0  0  0  0  0  0  0  0
   42.5120   33.2940   36.3590 H   0  0  0  0  0  0  0  0  0  0  0  0
   43.2700   31.6800   37.6860 C   0  0  0  0  0  0  0  0  0  0  0  0
   44.3720   31.7440   37.0860 O   0  0  0  0  0  0  0  0  0  0  0  0
   42.8910   30.8780   38.7090 N   0  0  0  0  0  0  0  0  0  0  0  0
   41.6450   30.9830   39.2040 C   0  0  0  0  0  0  0  0  0  0  0  0
   41.4220   30.1800   40.1530 O   0  0  0  0  0  0  0  0  0  0  0  0
   43.6440   30.2330   39.0220 H   0  0  0  0  0  0  0  0  0  0  0  0
  2  1  2  6  0  0  0
  2 21  1  0  0  0  0
  2  5  1  0  0  0  0
  3  2  1  0  0  0  0
  4  3  1  0  0  0  0
  6 14  1  0  0  0  0
  7  5  1  0  0  0  0
  7  6  2  0  0  0  0
  8  7  1  0  0  0  0
  9  8  2  0  0  0  0
  9 10  1  0  0  0  0
 10 11  2  0  0  0  0
 11  6  1  0  0  0  0
 12  8  1  0  0  0  0
 13 10  1  0  0  0  0
 14 15  1  0  0  0  0
 14 16  1  0  0  0  0
 17 14  1  0  0  0  0
 17 19  1  0  0  0  0
 18 17  1  0  0  0  0
 20 17  1  0  0  0  0
 22 21  1  0  0  0  0
 23 22  1  0  0  0  0
 23 28  1  0  0  0  0
 24 23  2  0  0  0  0
 25 26  2  0  0  0  0
 25 24  1  0  0  0  0
 26 27  1  0  0  0  0
 27 22  2  0  0  0  0
 29 24  1  0  0  0  0
 30 37  1  0  0  0  0
 30 26  1  0  0  0  0
 31 30  1  0  0  0  0
 32 34  1  0  0  0  0
 32 31  2  0  0  0  0
 33 32  1  0  0  0  0
 34 36  1  0  0  0  0
 35 34  2  0  0  0  0
 36 39  1  0  0  0  0
 36 37  1  0  0  0  0
 37 38  2  0  0  0  0
M  END
>  <minimizedAffinity>
-5.64660931

$$$$

 OpenBabel03252500593D

 39 41  0  0  0  0  0  0  0  0999 V2000
   37.3830   30.0320   39.5080 O   0  0  0  0  0  0  0  0  0  0  0  0
   37.1610   30.2990   40.9990 P   0  0  1  0  0  0  0  0  0  0  0  0
   35.8520   31.3630   41.1390 O   0  0  0  0  0  0  0  0  0  0  0  0
   35.5130   31.6560   40.2590 H   0  0  0  0  0  0  0  0  0  0  0  0
   36.7330   28.8540   41.7590 O   0  0  0  0  0  0  0  0  0  0  0  0
   37.6390   26.6890   41.5310 C   0  0  0  0  0  0  0  0  0  0  0  0
   37.6010   27.8760   42.2200 C   0  0  0  0  0  0  0  0  0  0  0  0
   38.4530   27.9950   43.3450 C   0  0  0  0  0  0  0  0  0  0  0  0
   39.2340   26.9440   43.6570 N   0  0  0  0  0  0  0  0  0  0  0  0
   39.2410   25.8020   42.9570 C   0  0  0  0  0  0  0  0  0  0  0  0
   38.4380   25.6830   41.8930 N   0  0  0  0  0  0  0  0  0  0  0  0
   38.3920   28.9380   43.8550 H   0  0  0  0  0  0  0  0  0  0  0  0
   39.9130   25.0400   43.3130 H   0  0  0  0  0  0  0  0  0  0  0  0
   36.7860   26.4910   40.3570 C   0  0  0  0  0  0  0  0  0  0  0  0
   35.6910   26.5910   40.5930 H   0  0  0  0  0  0  0  0  0  0  0  0
   36.9870   27.2890   39.6050 H   0  0  0  0  0  0  0  0  0  0  0  0
   37.1210   25.1800   39.7040 C   0  0  0  0  0  0  0  0  0  0  0  0
   36.3170   24.4660   39.9960 H   0  0  0  0  0  0  0  0  0  0  0  0
   37.0950   25.2480   38.5970 H   0  0  0  0  0  0  0  0  0  0  0  0
   38.0870   24.8040   40.1030 H   0  0  0  0  0  0  0  0  0  0  0  0
   38.5080   31.0460   41.6740 O   0  0  0  0  0  0  0  0  0  0  0  0
   39.1590   32.0370   40.9470 C   0  0  0  0  0  0  0  0  0  0  0  0
   38.5280   33.2690   40.8630 C   0  0  0  0  0  0  0  0  0  0  0  0
   39.1020   34.3200   40.1580 C   0  0  0  0  0  0  0  0  0  0  0  0
   40.3030   34.1060   39.5520 N   0  0  0  0  0  0  0  0  0  0  0  0
   40.9040   32.9190   39.6370 C   0  0  0  0  0  0  0  0  0  0  0  0
   40.3450   31.9120   40.3190 N   0  0  0  0  0  0  0  0  0  0  0  0
   37.5810   33.4220   41.3460 H   0  0  0  0  0  0  0  0  0  0  0  0
   38.5760   35.2520   40.1220 H   0  0  0  0  0  0  0  0  0  0  0  0
   42.1600   32.7210   38.9950 N   0  0  0  0  0  0  0  0  0  0  0  0
   42.6840   33.6510   38.1750 C   0  0  0  0  0  3  0  0  0  0  0  0
   43.9190   33.3920   37.5780 C   0  0  0  0  0  0  0  0  0  0  0  0
   44.2300   34.2200   36.9410 H   0  0  0  0  0  0  0  0  0  0  0  0
   44.5780   32.2120   37.8270 C   0  0  0  0  0  0  0  0  0  0  0  0
   45.6680   32.1580   37.2050 O   0  0  0  0  0  0  0  0  0  0  0  0
   44.0130   31.3040   38.6580 N   0  0  0  0  0  0  0  0  0  0  0  0
   42.8230   31.5750   39.2230 C   0  0  0  0  0  0  0  0  0  0  0  0
   42.4110   30.6470   39.9740 O   0  0  0  0  0  0  0  0  0  0  0  0
   44.5900   30.4480   38.7800 H   0  0  0  0  0  0  0  0  0  0  0  0
  2  1  2  6  0  0  0
  2  3  1  0  0  0  0
  2 21  1  0  0  0  0
  2  5  1  0  0  0  0
  4  3  1  0  0  0  0
  5  7  1  0  0  0  0
  6 11  2  0  0  0  0
  6  7  1  0  0  0  0
  7  8  2  0  0  0  0
  8  9  1  0  0  0  0
  8 12  1  0  0  0  0
 10 13  1  0  0  0  0
 10  9  2  0  0  0  0
 11 10  1  0  0  0  0
 14 15  1  0  0  0  0
 14  6  1  0  0  0  0
 16 14  1  0  0  0  0
 17 18  1  0  0  0  0
 17 20  1  0  0  0  0
 17 14  1  0  0  0  0
 19 17  1  0  0  0  0
 22 21  1  0  0  0  0
 23 22  1  0  0  0  0
 23 28  1  0  0  0  0
 24 23  2  0  0  0  0
 25 26  2  0  0  0  0
 25 24  1  0  0  0  0
 26 27  1  0  0  0  0
 27 22  2  0  0  0  0
 29 24  1  0  0  0  0
 30 37  1  0  0  0  0
 30 26  1  0  0  0  0
 31 30  1  0  0  0  0
 32 34  1  0  0  0  0
 32 31  2  0  0  0  0
 33 32  1  0  0  0  0
 34 36  1  0  0  0  0
 35 34  2  0  0  0  0
 36 39  1  0  0  0  0
 36 37  1  0  0  0  0
 37 38  2  0  0  0  0
M  END
>  <minimizedAffinity>
-5.62091303

$$$$
