
 OpenBabel03252503413D

 22 23  0  0  0  0  0  0  0  0999 V2000
   46.5090   34.7600   42.7640 C   0  0  0  0  0  0  0  0  0  0  0  0
   47.7020   34.3870   42.1510 C   0  0  0  0  0  0  0  0  0  0  0  0
   48.4570   33.4060   42.7720 C   0  0  0  0  0  0  0  0  0  0  0  0
   47.9970   32.8750   43.9220 N   0  0  0  0  0  0  0  0  0  0  0  0
   46.8400   33.2540   44.4930 C   0  0  0  0  0  0  0  0  0  0  0  0
   46.0720   34.2130   43.9140 N   0  0  0  0  0  0  0  0  0  0  0  0
   45.8400   35.5230   42.3600 H   0  0  0  0  0  0  0  0  0  0  0  0
   49.3620   33.1440   42.2770 H   0  0  0  0  0  0  0  0  0  0  0  0
   46.3710   32.6780   45.7120 N   0  0  0  0  0  0  0  0  0  0  0  0
   46.6750   31.4920   46.2650 C   0  0  0  0  0  0  0  0  0  0  0  0
   46.0940   31.1400   47.4660 C   0  0  0  0  0  0  0  0  0  0  0  0
   46.3900   30.1540   47.8590 H   0  0  0  0  0  0  0  0  0  0  0  0
   45.2080   31.9910   48.1020 C   0  0  0  0  0  0  0  0  0  0  0  0
   44.7000   31.6280   49.1960 O   0  0  0  0  0  0  0  0  0  0  0  0
   44.9320   33.1690   47.5120 N   0  0  0  0  0  0  0  0  0  0  0  0
   45.5050   33.5190   46.3250 C   0  0  0  0  0  0  0  0  0  0  0  0
   45.1210   34.6530   45.9390 O   0  0  0  0  0  0  0  0  0  0  0  0
   44.2570   33.7590   48.0460 H   0  0  0  0  0  0  0  0  0  0  0  0
   48.0270   35.0970   40.8850 C   0  0  0  0  0  0  0  0  0  0  0  0
   47.4230   34.6800   40.0260 H   0  0  0  0  0  0  0  0  0  0  0  0
   47.8250   36.1740   40.9180 H   0  0  0  0  0  0  0  0  0  0  0  0
   49.0790   34.8330   40.6310 H   0  0  0  0  0  0  0  0  0  0  0  0
  1  6  1  0  0  0  0
  2  1  2  0  0  0  0
  2  3  1  0  0  0  0
  3  4  2  0  0  0  0
  4  5  1  0  0  0  0
  5  9  1  0  0  0  0
  6  5  2  0  0  0  0
  7  1  1  0  0  0  0
  8  3  1  0  0  0  0
  9 10  1  0  0  0  0
  9 16  1  0  0  0  0
 10 11  2  0  0  0  0
 11 12  1  0  0  0  0
 11 13  1  0  0  0  0
 13 14  2  0  0  0  0
 15 18  1  0  0  0  0
 15 13  1  0  0  0  0
 16 15  1  0  0  0  0
 17 16  2  0  0  0  0
 19 21  1  0  0  0  0
 19  2  1  0  0  0  0
 20 19  1  0  0  0  0
 22 19  1  0  0  0  0
M  END
>  <minimizedAffinity>
-5.16849518

>  <minimizedRMSD>
2.56404543

$$$$
