
 OpenBabel03242518383D

 40 43  0  0  1  0  0  0  0  0999 V2000
   47.3780   33.5720   40.9190 O   0  0  0  0  0  0  0  0  0  0  0  0
   47.4960   33.7340   39.5140 C   0  0  0  0  0  0  0  0  0  0  0  0
   48.3730   34.5010   38.7410 C   0  0  0  0  0  0  0  0  0  0  0  0
   48.0680   34.3100   37.4050 C   0  0  0  0  0  0  0  0  0  0  0  0
   47.0250   33.4400   37.4280 C   0  0  0  0  0  0  0  0  0  0  0  0
   46.6920   33.1050   38.6590 O   0  0  0  0  0  0  0  0  0  0  0  0
   49.1270   35.1060   39.2180 H   0  0  0  0  0  0  0  0  0  0  0  0
   48.5910   34.7840   36.5850 H   0  0  0  0  0  0  0  0  0  0  0  0
   46.3330   32.9240   36.2260 C   0  0  2  0  0  0  0  0  0  0  0  0
   46.1870   31.4840   36.0090 C   0  0  0  0  0  0  0  0  0  0  0  0
   47.2740   32.1620   35.2560 C   0  0  1  0  0  0  0  0  0  0  0  0
   45.6670   33.6670   35.7640 H   0  0  0  0  0  0  0  0  0  0  0  0
   46.4300   30.7420   36.8030 H   0  0  0  0  0  0  0  0  0  0  0  0
   45.2640   31.1900   35.4310 H   0  0  0  0  0  0  0  0  0  0  0  0
   48.3180   32.0780   35.5440 H   0  0  0  0  0  0  0  0  0  0  0  0
   48.0650   32.7440   32.9750 C   0  0  0  0  0  0  0  0  0  0  0  0
   49.2710   32.8190   33.3480 O   0  0  0  0  0  0  0  0  0  0  0  0
   46.9890   32.4610   33.8550 N   0  0  0  0  0  0  0  0  0  0  0  0
   47.9330   32.9160   31.9150 H   0  0  0  0  0  0  0  0  0  0  0  0
   46.0070   32.4650   33.5150 H   0  0  0  0  0  0  0  0  0  0  0  0
   47.4930   34.7270   41.7450 C   0  0  0  0  0  0  0  0  0  0  0  0
   48.3580   35.5670   41.4210 O   0  0  0  0  0  0  0  0  0  0  0  0
   46.5960   34.7820   42.8540 C   0  0  0  0  0  0  0  0  0  0  0  0
   45.7160   35.8350   42.8500 C   0  0  0  0  0  0  0  0  0  0  0  0
   44.8130   35.9580   43.8920 C   0  0  0  0  0  0  0  0  0  0  0  0
   44.8360   35.0270   44.8770 N   0  0  0  0  0  0  0  0  0  0  0  0
   45.7060   34.0090   44.8550 C   0  0  0  0  0  0  0  0  0  0  0  0
   46.5730   33.9140   43.8310 N   0  0  0  0  0  0  0  0  0  0  0  0
   45.6340   36.6140   42.1070 H   0  0  0  0  0  0  0  0  0  0  0  0
   44.0930   36.7690   43.9420 H   0  0  0  0  0  0  0  0  0  0  0  0
   45.6840   33.0610   45.9190 N   0  0  0  0  0  0  0  0  0  0  0  0
   45.2820   33.2820   47.1860 C   0  0  0  0  0  3  0  0  0  0  0  0
   45.3120   32.2680   48.1230 C   0  0  0  0  0  0  0  0  0  0  0  0
   44.9820   32.4920   49.1180 H   0  0  0  0  0  0  0  0  0  0  0  0
   45.7720   31.0400   47.6880 C   0  0  0  0  0  0  0  0  0  0  0  0
   45.8060   30.0950   48.5420 O   0  0  0  0  0  0  0  0  0  0  0  0
   46.1690   30.8200   46.4410 N   0  0  0  0  0  0  0  0  0  0  0  0
   46.1270   31.8430   45.5370 C   0  0  0  0  0  0  0  0  0  0  0  0
   46.5250   31.5310   44.3820 O   0  0  0  0  0  0  0  0  0  0  0  0
   46.5050   29.8530   46.1940 H   0  0  0  0  0  0  0  0  0  0  0  0
  1 21  1  0  0  0  0
  2  1  1  0  0  0  0
  3  7  1  0  0  0  0
  3  2  2  0  0  0  0
  4  5  2  0  0  0  0
  4  3  1  0  0  0  0
  5  6  1  0  0  0  0
  6  2  1  0  0  0  0
  8  4  1  0  0  0  0
  9 12  1  6  0  0  0
  9  5  1  0  0  0  0
 10  9  1  0  0  0  0
 10 13  1  0  0  0  0
 11 15  1  1  0  0  0
 11 10  1  0  0  0  0
 11  9  1  0  0  0  0
 14 10  1  0  0  0  0
 16 17  2  0  0  0  0
 16 18  1  0  0  0  0
 18 11  1  0  0  0  0
 19 16  1  0  0  0  0
 20 18  1  0  0  0  0
 21 23  1  0  0  0  0
 22 21  2  0  0  0  0
 23 28  1  0  0  0  0
 24 23  2  0  0  0  0
 24 25  1  0  0  0  0
 25 30  1  0  0  0  0
 25 26  2  0  0  0  0
 27 26  1  0  0  0  0
 27 31  1  0  0  0  0
 28 27  2  0  0  0  0
 29 24  1  0  0  0  0
 31 32  1  0  0  0  0
 32 33  2  0  0  0  0
 33 34  1  0  0  0  0
 35 33  1  0  0  0  0
 35 36  2  0  0  0  0
 37 35  1  0  0  0  0
 38 31  1  0  0  0  0
 38 37  1  0  0  0  0
 39 38  2  0  0  0  0
 40 37  1  0  0  0  0
M  END
>  <minimizedAffinity>
-6.57261515

>  <minimizedRMSD>
0.311702043

$$$$
