
 OpenBabel03252505533D

 34 36  0  0  0  0  0  0  0  0999 V2000
   46.5930   30.0870   47.5800 C   0  0  0  0  0  0  0  0  0  0  0  0
   46.8060   28.9110   46.8930 C   0  0  0  0  0  0  0  0  0  0  0  0
   47.9170   28.1590   47.1760 C   0  0  0  0  0  0  0  0  0  0  0  0
   48.8110   28.5320   48.1060 N   0  0  0  0  0  0  0  0  0  0  0  0
   48.5910   29.6820   48.7680 C   0  0  0  0  0  0  0  0  0  0  0  0
   47.5040   30.4630   48.5260 N   0  0  0  0  0  0  0  0  0  0  0  0
   46.0350   28.7030   46.1740 H   0  0  0  0  0  0  0  0  0  0  0  0
   47.9880   27.2580   46.5800 H   0  0  0  0  0  0  0  0  0  0  0  0
   49.5710   30.0530   49.7610 N   0  0  0  0  0  0  0  0  0  0  0  0
   50.2810   29.2910   50.5760 C   0  0  0  0  0  3  0  0  0  0  0  0
   51.1660   29.8870   51.4470 C   0  0  0  0  0  0  0  0  0  0  0  0
   51.7270   29.2310   52.0960 H   0  0  0  0  0  0  0  0  0  0  0  0
   51.3020   31.2540   51.4630 C   0  0  0  0  0  0  0  0  0  0  0  0
   52.1170   31.7850   52.2660 O   0  0  0  0  0  0  0  0  0  0  0  0
   50.5670   32.0090   50.6210 N   0  0  0  0  0  0  0  0  0  0  0  0
   49.7070   31.4100   49.7760 C   0  0  0  0  0  0  0  0  0  0  0  0
   49.0930   32.2480   49.0540 O   0  0  0  0  0  0  0  0  0  0  0  0
   50.7250   33.0400   50.6890 H   0  0  0  0  0  0  0  0  0  0  0  0
   45.5100   31.0570   47.4730 C   0  0  0  0  0  0  0  0  0  0  0  0
   44.7470   30.9680   48.2870 H   0  0  0  0  0  0  0  0  0  0  0  0
   44.9420   30.8920   46.5260 H   0  0  0  0  0  0  0  0  0  0  0  0
   46.0820   32.3400   47.3960 O   0  0  0  0  0  0  0  0  0  0  0  0
   45.1360   34.7820   44.9890 C   0  0  0  0  0  0  0  0  0  0  0  0
   46.0100   34.5640   43.9290 C   0  0  0  0  0  0  0  0  0  0  0  0
   46.9600   33.5300   44.0640 C   0  0  0  0  0  0  0  0  0  0  0  0
   46.9580   32.8180   45.2140 N   0  0  0  0  0  0  0  0  0  0  0  0
   46.0890   33.0690   46.2120 C   0  0  0  0  0  0  0  0  0  0  0  0
   45.1880   34.0370   46.1060 N   0  0  0  0  0  0  0  0  0  0  0  0
   44.3840   35.5680   44.9360 H   0  0  0  0  0  0  0  0  0  0  0  0
   47.6250   33.3730   43.2420 H   0  0  0  0  0  0  0  0  0  0  0  0
   45.8920   35.4350   42.7160 C   0  0  0  0  0  0  0  0  0  0  0  0
   45.3490   36.6100   43.1710 F   0  0  0  0  0  0  0  0  0  0  0  0
   45.0020   34.7910   41.8650 F   0  0  0  0  0  0  0  0  0  0  0  0
   47.1350   35.5930   42.1600 F   0  0  0  0  0  0  0  0  0  0  0  0
  1  6  1  0  0  0  0
  2  3  1  0  0  0  0
  2  1  2  0  0  0  0
  3  4  2  0  0  0  0
  4  5  1  0  0  0  0
  5  9  1  0  0  0  0
  6  5  2  0  0  0  0
  7  2  1  0  0  0  0
  8  3  1  0  0  0  0
  9 16  1  0  0  0  0
  9 10  1  0  0  0  0
 10 11  2  0  0  0  0
 11 13  1  0  0  0  0
 11 12  1  0  0  0  0
 13 14  2  0  0  0  0
 15 18  1  0  0  0  0
 15 13  1  0  0  0  0
 16 15  1  0  0  0  0
 17 16  2  0  0  0  0
 19  1  1  0  0  0  0
 19 20  1  0  0  0  0
 21 19  1  0  0  0  0
 22 19  1  0  0  0  0
 23 28  1  0  0  0  0
 24 25  1  0  0  0  0
 24 23  2  0  0  0  0
 25 26  2  0  0  0  0
 26 27  1  0  0  0  0
 27 22  1  0  0  0  0
 28 27  2  0  0  0  0
 29 23  1  0  0  0  0
 30 25  1  0  0  0  0
 31 32  1  0  0  0  0
 31 24  1  0  0  0  0
 33 31  1  0  0  0  0
 34 31  1  0  0  0  0
M  END
>  <minimizedAffinity>
-6.08722162

>  <minimizedRMSD>
1.32807469

$$$$
