
 OpenBabel03252502593D

 23 24  0  0  0  0  0  0  0  0999 V2000
   43.2220   35.1820   40.2430 C   0  0  0  0  0  0  0  0  0  0  0  0
   43.3510   36.1920   39.7830 H   0  0  0  0  0  0  0  0  0  0  0  0
   43.8550   34.4460   39.7000 H   0  0  0  0  0  0  0  0  0  0  0  0
   41.8040   34.7900   40.2230 N   0  0  0  0  0  0  0  0  0  0  0  0
   41.3040   34.1650   41.2950 C   0  0  0  0  0  3  0  0  0  0  0  0
   39.9560   33.8340   41.1840 C   0  0  0  0  0  0  0  0  0  0  0  0
   39.4510   33.3140   42.0150 H   0  0  0  0  0  0  0  0  0  0  0  0
   39.2240   34.1450   40.0330 C   0  0  0  0  0  0  0  0  0  0  0  0
   38.0100   33.8570   39.9090 O   0  0  0  0  0  0  0  0  0  0  0  0
   39.8310   34.7800   39.0080 N   0  0  0  0  0  0  0  0  0  0  0  0
   41.1310   35.1090   39.0920 C   0  0  0  0  0  0  0  0  0  0  0  0
   41.7100   35.7040   38.1380 O   0  0  0  0  0  0  0  0  0  0  0  0
   39.3050   35.0250   38.1340 H   0  0  0  0  0  0  0  0  0  0  0  0
   43.6640   35.2790   41.9950 S   0  0  0  0  0  0  0  0  0  0  0  0
   45.8880   34.5930   43.5180 C   0  0  0  0  0  0  0  0  0  0  0  0
   45.3510   34.7200   42.2230 C   0  0  0  0  0  0  0  0  0  0  0  0
   46.1310   34.4100   41.1230 C   0  0  0  0  0  0  0  0  0  0  0  0
   47.4100   33.9880   41.3520 N   0  0  0  0  0  0  0  0  0  0  0  0
   47.8890   33.8790   42.6000 C   0  0  0  0  0  0  0  0  0  0  0  0
   47.1690   34.1670   43.6770 N   0  0  0  0  0  0  0  0  0  0  0  0
   45.2310   34.8490   44.3320 H   0  0  0  0  0  0  0  0  0  0  0  0
   45.7580   34.4920   40.0930 H   0  0  0  0  0  0  0  0  0  0  0  0
   48.8950   33.5500   42.8450 H   0  0  0  0  0  0  0  0  0  0  0  0
  1 14  1  0  0  0  0
  2  1  1  0  0  0  0
  3  1  1  0  0  0  0
  4  1  1  0  0  0  0
  4  5  1  0  0  0  0
  6  5  2  0  0  0  0
  6  7  1  0  0  0  0
  8  6  1  0  0  0  0
  9  8  2  0  0  0  0
 10 11  1  0  0  0  0
 10  8  1  0  0  0  0
 11  4  1  0  0  0  0
 12 11  2  0  0  0  0
 13 10  1  0  0  0  0
 14 16  1  0  0  0  0
 15 20  1  0  0  0  0
 15 21  1  0  0  0  0
 16 15  2  0  0  0  0
 17 18  2  0  0  0  0
 17 16  1  0  0  0  0
 18 19  1  0  0  0  0
 19 23  1  0  0  0  0
 19 20  2  0  0  0  0
 22 17  1  0  0  0  0
M  END
>  <minimizedAffinity>
-4.20134592

>  <minimizedRMSD>
3.42944813

$$$$
