
 OpenBabel03252507463D

 38 40  0  0  0  0  0  0  0  0999 V2000
   47.4320   34.5930   40.9090 C   0  0  0  0  0  0  0  0  0  0  0  0
   47.6800   35.4960   40.3340 H   0  0  0  0  0  0  0  0  0  0  0  0
   46.8010   33.9500   40.2770 H   0  0  0  0  0  0  0  0  0  0  0  0
   48.6850   33.9250   41.3070 C   0  0  0  0  0  0  0  0  0  0  0  0
   48.8750   32.6360   40.8410 C   0  0  0  0  0  0  0  0  0  0  0  0
   50.0150   31.9130   41.1530 C   0  0  0  0  0  0  0  0  0  0  0  0
   50.9430   32.5480   41.9480 N   0  0  0  0  0  0  0  0  0  0  0  0
   50.7200   33.8030   42.3810 C   0  0  0  0  0  0  0  0  0  0  0  0
   49.6180   34.4750   42.0680 N   0  0  0  0  0  0  0  0  0  0  0  0
   50.1840   30.9150   40.8040 H   0  0  0  0  0  0  0  0  0  0  0  0
   51.4310   34.3340   43.0120 H   0  0  0  0  0  0  0  0  0  0  0  0
   47.6240   31.8410   39.7950 S   0  0  0  0  0  0  0  0  0  0  0  0
   50.4970   32.0120   35.8500 H   0  0  0  0  0  0  0  0  0  0  0  0
   49.5530   32.2380   36.2440 N   0  0  0  0  0  0  0  0  0  0  0  0
   49.3650   31.9080   37.5200 C   0  0  0  0  0  3  0  0  0  0  0  0
   48.1550   32.1740   38.1050 C   0  0  0  0  0  0  0  0  0  0  0  0
   47.1450   32.7780   37.3650 C   0  0  0  0  0  0  0  0  0  0  0  0
   45.9770   33.0790   37.7840 O   0  0  0  0  0  0  0  0  0  0  0  0
   47.3660   33.1030   36.0640 N   0  0  0  0  0  0  0  0  0  0  0  0
   48.5730   32.8290   35.5160 C   0  0  0  0  0  0  0  0  0  0  0  0
   48.8390   33.1040   34.3230 O   0  0  0  0  0  0  0  0  0  0  0  0
   46.6280   33.5610   35.4760 H   0  0  0  0  0  0  0  0  0  0  0  0
   46.5800   34.9970   42.0860 C   0  0  0  0  0  0  0  0  0  0  0  0
   46.8900   34.4250   42.9820 H   0  0  0  0  0  0  0  0  0  0  0  0
   46.8040   36.0700   42.3160 H   0  0  0  0  0  0  0  0  0  0  0  0
   45.1220   34.9480   41.8160 C   0  0  0  0  0  0  0  0  0  0  0  0
   44.2120   35.5180   42.7630 C   0  0  0  0  0  0  0  0  0  0  0  0
   42.5750   35.2150   41.9960 S   0  0  0  0  0  0  0  0  0  0  0  0
   43.3990   34.3620   40.5110 C   0  0  0  0  0  0  0  0  0  0  0  0
   44.5040   34.4380   40.7890 N   0  0  0  0  0  0  0  0  0  0  0  0
   44.4560   36.0040   43.6960 H   0  0  0  0  0  0  0  0  0  0  0  0
   42.6790   33.8380   39.4470 O   0  0  0  0  0  0  0  0  0  0  0  0
   40.6800   34.1600   37.7380 O   0  0  0  0  0  0  0  0  0  0  0  0
   41.7410   34.9250   38.5260 P   0  0  0  0  0  0  0  0  0  0  0  0
   40.9690   35.9750   39.6010 O   0  0  0  0  0  0  0  0  0  0  0  0
   40.4500   36.6400   39.0820 H   0  0  0  0  0  0  0  0  0  0  0  0
   42.7380   35.8100   37.4880 O   0  0  0  0  0  0  0  0  0  0  0  0
   42.8310   35.3690   36.6230 H   0  0  0  0  0  0  0  0  0  0  0  0
  1  4  1  0  0  0  0
  1 23  1  0  0  0  0
  2  1  1  0  0  0  0
  3  1  1  0  0  0  0
  4  9  1  0  0  0  0
  5  6  1  0  0  0  0
  5  4  2  0  0  0  0
  6  7  2  0  0  0  0
  7  8  1  0  0  0  0
  8 11  1  0  0  0  0
  9  8  2  0  0  0  0
 10  6  1  0  0  0  0
 12  5  1  0  0  0  0
 13 14  1  0  0  0  0
 14 15  1  0  0  0  0
 15 16  2  0  0  0  0
 16 12  1  0  0  0  0
 17 18  2  0  0  0  0
 17 16  1  0  0  0  0
 19 17  1  0  0  0  0
 20 19  1  0  0  0  0
 20 14  1  0  0  0  0
 21 20  2  0  0  0  0
 22 19  1  0  0  0  0
 23 25  1  0  0  0  0
 23 24  1  0  0  0  0
 26 23  1  0  0  0  0
 26 27  2  0  0  0  0
 27 31  1  0  0  0  0
 28 27  1  0  0  0  0
 29 30  2  0  0  0  0
 29 28  1  0  0  0  0
 30 26  1  0  0  0  0
 32 29  1  0  0  0  0
 33 34  2  0  0  0  0
 34 32  1  0  0  0  0
 34 35  1  0  0  0  0
 36 35  1  0  0  0  0
 37 34  1  0  0  0  0
 38 37  1  0  0  0  0
M  END
>  <minimizedAffinity>
-5.63793087

>  <minimizedRMSD>
0.599499583

$$$$
