
 OpenBabel03252502593D

 23 24  0  0  0  0  0  0  0  0999 V2000
   43.6200   34.1910   40.2360 C   0  0  0  0  0  0  0  0  0  0  0  0
   44.4820   34.3350   39.5410 H   0  0  0  0  0  0  0  0  0  0  0  0
   43.7050   33.1950   40.7270 H   0  0  0  0  0  0  0  0  0  0  0  0
   42.3500   34.3230   39.5080 N   0  0  0  0  0  0  0  0  0  0  0  0
   42.2400   35.2990   38.5980 C   0  0  0  0  0  3  0  0  0  0  0  0
   41.0020   35.3460   37.9600 C   0  0  0  0  0  0  0  0  0  0  0  0
   40.8120   36.1140   37.1940 H   0  0  0  0  0  0  0  0  0  0  0  0
   39.9890   34.4330   38.2730 C   0  0  0  0  0  0  0  0  0  0  0  0
   38.8670   34.4550   37.7130 O   0  0  0  0  0  0  0  0  0  0  0  0
   40.2090   33.4870   39.2100 N   0  0  0  0  0  0  0  0  0  0  0  0
   41.3940   33.4220   39.8390 C   0  0  0  0  0  0  0  0  0  0  0  0
   41.6130   32.5390   40.7190 O   0  0  0  0  0  0  0  0  0  0  0  0
   39.4670   32.7900   39.4640 H   0  0  0  0  0  0  0  0  0  0  0  0
   43.6180   35.5340   41.4480 S   0  0  0  0  0  0  0  0  0  0  0  0
   44.2910   35.7740   44.1370 C   0  0  0  0  0  0  0  0  0  0  0  0
   44.3200   34.9560   42.9920 C   0  0  0  0  0  0  0  0  0  0  0  0
   44.8950   33.6990   43.0620 C   0  0  0  0  0  0  0  0  0  0  0  0
   45.4160   33.3060   44.2620 N   0  0  0  0  0  0  0  0  0  0  0  0
   45.3700   34.1120   45.3320 C   0  0  0  0  0  0  0  0  0  0  0  0
   44.8270   35.3230   45.3010 N   0  0  0  0  0  0  0  0  0  0  0  0
   43.8300   36.7410   44.0180 H   0  0  0  0  0  0  0  0  0  0  0  0
   44.9420   33.0230   42.1970 H   0  0  0  0  0  0  0  0  0  0  0  0
   45.7660   33.8570   46.3110 H   0  0  0  0  0  0  0  0  0  0  0  0
  1  3  1  0  0  0  0
  1 14  1  0  0  0  0
  2  1  1  0  0  0  0
  4 11  1  0  0  0  0
  4  1  1  0  0  0  0
  5  4  1  0  0  0  0
  6  8  1  0  0  0  0
  6  5  2  0  0  0  0
  7  6  1  0  0  0  0
  8 10  1  0  0  0  0
  9  8  2  0  0  0  0
 10 13  1  0  0  0  0
 10 11  1  0  0  0  0
 11 12  2  0  0  0  0
 14 16  1  0  0  0  0
 15 20  1  0  0  0  0
 16 17  1  0  0  0  0
 16 15  2  0  0  0  0
 17 18  2  0  0  0  0
 18 19  1  0  0  0  0
 19 23  1  0  0  0  0
 20 19  2  0  0  0  0
 21 15  1  0  0  0  0
 22 17  1  0  0  0  0
M  END
>  <minimizedAffinity>
-4.42386961

>  <minimizedRMSD>
1.85177541

$$$$
