
 OpenBabel03252506253D

 46 50  0  0  0  0  0  0  0  0999 V2000
   45.5350   27.8690   47.9060 C   0  0  0  0  0  0  0  0  0  0  0  0
   45.1670   29.2040   47.8830 C   0  0  0  0  0  0  0  0  0  0  0  0
   44.2610   29.5710   46.8910 C   0  0  0  0  0  0  0  0  0  0  0  0
   43.7520   28.6720   45.9810 C   0  0  0  0  0  0  0  0  0  0  0  0
   42.8950   28.7310   44.9510 N   0  0  0  0  0  0  0  0  0  0  0  0
   42.7420   27.5300   44.3780 C   0  0  0  0  0  0  0  0  0  0  0  0
   43.5260   26.6100   45.0440 C   0  0  0  0  0  0  0  0  0  0  0  0
   44.1330   27.3490   46.0240 C   0  0  0  0  0  0  0  0  0  0  0  0
   45.0340   26.9720   47.0040 C   0  0  0  0  0  0  0  0  0  0  0  0
   46.2460   27.6410   48.7030 H   0  0  0  0  0  0  0  0  0  0  0  0
   43.8830   30.5760   46.7510 H   0  0  0  0  0  0  0  0  0  0  0  0
   42.3970   29.6070   44.6230 H   0  0  0  0  0  0  0  0  0  0  0  0
   42.1000   27.3270   43.5290 H   0  0  0  0  0  0  0  0  0  0  0  0
   43.6540   25.5520   44.8630 H   0  0  0  0  0  0  0  0  0  0  0  0
   45.4620   25.6150   47.0960 N   0  0  0  0  0  0  0  0  0  0  0  0
   44.8800   24.6260   47.7990 C   0  0  0  0  0  3  0  0  0  0  0  0
   45.4520   23.3590   47.7620 C   0  0  0  0  0  0  0  0  0  0  0  0
   44.9610   22.5840   48.3380 H   0  0  0  0  0  0  0  0  0  0  0  0
   46.5920   23.1210   47.0210 C   0  0  0  0  0  0  0  0  0  0  0  0
   47.1120   21.9760   46.9850 O   0  0  0  0  0  0  0  0  0  0  0  0
   47.1440   24.1560   46.3250 N   0  0  0  0  0  0  0  0  0  0  0  0
   46.5750   25.3750   46.3750 C   0  0  0  0  0  0  0  0  0  0  0  0
   47.1890   26.2510   45.6810 O   0  0  0  0  0  0  0  0  0  0  0  0
   48.0170   23.9360   45.7690 H   0  0  0  0  0  0  0  0  0  0  0  0
   45.5780   30.3050   48.7380 C   0  0  0  0  0  0  0  0  0  0  0  0
   44.7810   31.0800   48.8250 H   0  0  0  0  0  0  0  0  0  0  0  0
   45.6530   29.8960   49.7870 H   0  0  0  0  0  0  0  0  0  0  0  0
   46.8850   30.9400   48.4420 C   0  0  0  0  0  0  0  0  0  0  0  0
   47.0550   31.7310   49.2270 H   0  0  0  0  0  0  0  0  0  0  0  0
   47.6860   30.2100   48.5270 H   0  0  0  0  0  0  0  0  0  0  0  0
   46.4140   32.9610   45.5360 C   0  0  0  0  0  0  0  0  0  0  0  0
   47.2180   31.9280   45.0400 C   0  0  0  0  0  0  0  0  0  0  0  0
   47.4880   31.0610   46.0480 C   0  0  0  0  0  0  0  0  0  0  0  0
   46.8730   31.5420   47.1260 N   0  0  0  0  0  0  0  0  0  0  0  0
   46.2200   32.6860   46.8370 N   0  0  0  0  0  0  0  0  0  0  0  0
   47.5910   31.7980   44.0230 H   0  0  0  0  0  0  0  0  0  0  0  0
   48.0850   30.1480   46.0070 H   0  0  0  0  0  0  0  0  0  0  0  0
   44.4960   35.9020   44.5320 C   0  0  0  0  0  0  0  0  0  0  0  0
   45.0000   36.1850   43.2570 C   0  0  0  0  0  0  0  0  0  0  0  0
   45.9960   35.3580   42.7550 C   0  0  0  0  0  0  0  0  0  0  0  0
   46.4030   34.3430   43.5380 N   0  0  0  0  0  0  0  0  0  0  0  0
   45.9170   34.0810   44.7530 C   0  0  0  0  0  0  0  0  0  0  0  0
   44.9610   34.8690   45.2420 N   0  0  0  0  0  0  0  0  0  0  0  0
   43.7180   36.5670   44.8940 H   0  0  0  0  0  0  0  0  0  0  0  0
   44.6940   36.9830   42.6160 H   0  0  0  0  0  0  0  0  0  0  0  0
   46.4650   35.4720   41.7850 H   0  0  0  0  0  0  0  0  0  0  0  0
  1 10  1  0  0  0  0
  2  1  1  0  0  0  0
  2 25  1  0  0  0  0
  3  2  2  0  0  0  0
  4  8  2  0  0  0  0
  4  3  1  0  0  0  0
  5  4  1  0  0  0  0
  6  5  1  0  0  0  0
  6  7  2  0  0  0  0
  7  8  1  0  0  0  0
  8  9  1  0  0  0  0
  9 15  1  0  0  0  0
  9  1  2  0  0  0  0
 11  3  1  0  0  0  0
 12  5  1  0  0  0  0
 13  6  1  0  0  0  0
 14  7  1  0  0  0  0
 15 16  1  0  0  0  0
 17 16  2  0  0  0  0
 17 18  1  0  0  0  0
 19 17  1  0  0  0  0
 20 19  2  0  0  0  0
 21 22  1  0  0  0  0
 21 19  1  0  0  0  0
 22 15  1  0  0  0  0
 23 22  2  0  0  0  0
 24 21  1  0  0  0  0
 25 26  1  0  0  0  0
 25 27  1  0  0  0  0
 28 30  1  0  0  0  0
 28 25  1  0  0  0  0
 28 29  1  0  0  0  0
 31 35  2  0  0  0  0
 32 31  1  0  0  0  0
 32 33  2  0  0  0  0
 33 34  1  0  0  0  0
 34 28  1  0  0  0  0
 35 34  1  0  0  0  0
 36 32  1  0  0  0  0
 37 33  1  0  0  0  0
 38 44  1  0  0  0  0
 38 43  1  0  0  0  0
 39 38  2  0  0  0  0
 40 39  1  0  0  0  0
 40 41  2  0  0  0  0
 41 42  1  0  0  0  0
 42 43  2  0  0  0  0
 42 31  1  0  0  0  0
 45 39  1  0  0  0  0
 46 40  1  0  0  0  0
M  END
>  <minimizedAffinity>
-5.4553299

>  <minimizedRMSD>
1.25512266

$$$$
