
 OpenBabel03242514333D

 27 28  0  0  0  0  0  0  0  0999 V2000
   48.7080   35.8040   41.8180 O   0  0  0  0  0  0  0  0  0  0  0  0
   48.3490   34.3910   41.4810 P   0  0  1  0  0  0  0  0  0  0  0  0
   49.7770   33.5750   41.1400 O   0  0  0  0  0  0  0  0  0  0  0  0
   49.5490   32.8210   40.5360 H   0  0  0  0  0  0  0  0  0  0  0  0
   47.5340   33.6640   42.8010 O   0  0  0  0  0  0  0  0  0  0  0  0
   45.9230   35.4290   42.8560 C   0  0  0  0  0  0  0  0  0  0  0  0
   46.5160   34.3410   43.4740 C   0  0  0  0  0  0  0  0  0  0  0  0
   46.0680   33.9660   44.7500 C   0  0  0  0  0  0  0  0  0  0  0  0
   45.0640   34.7040   45.3130 N   0  0  0  0  0  0  0  0  0  0  0  0
   44.5170   35.7460   44.6850 C   0  0  0  0  0  0  0  0  0  0  0  0
   44.9470   36.0970   43.4730 N   0  0  0  0  0  0  0  0  0  0  0  0
   46.2430   35.7500   41.8680 H   0  0  0  0  0  0  0  0  0  0  0  0
   46.5320   33.1220   45.2230 H   0  0  0  0  0  0  0  0  0  0  0  0
   43.7230   36.3100   45.1580 H   0  0  0  0  0  0  0  0  0  0  0  0
   47.3740   34.3770   40.1290 O   0  0  0  0  0  0  0  0  0  0  0  0
   47.3150   33.4270   39.1730 C   0  0  0  0  0  0  0  0  0  0  0  0
   46.7610   32.3430   39.6180 O   0  0  0  0  0  0  0  0  0  0  0  0
   50.5120   32.6110   36.0540 H   0  0  0  0  0  0  0  0  0  0  0  0
   49.4950   32.7670   36.1900 N   0  0  0  0  0  0  0  0  0  0  0  0
   49.0190   32.9800   37.4250 C   0  0  0  0  0  0  0  0  0  0  0  0
   47.6760   33.2030   37.7440 C   0  0  0  0  0  0  0  0  0  0  0  0
   46.7610   33.2090   36.7510 C   0  0  0  0  0  0  0  0  0  0  0  0
   45.5520   33.3980   36.9470 O   0  0  0  0  0  0  0  0  0  0  0  0
   47.2800   32.9880   35.5100 N   0  0  0  0  0  0  0  0  0  0  0  0
   48.5740   32.7750   35.2120 C   0  0  0  0  0  0  0  0  0  0  0  0
   48.9360   32.5830   34.0340 O   0  0  0  0  0  0  0  0  0  0  0  0
   46.5660   32.9910   34.7210 H   0  0  0  0  0  0  0  0  0  0  0  0
  2  1  2  1  0  0  0
  2  5  1  0  0  0  0
  3  2  1  0  0  0  0
  4  3  1  0  0  0  0
  5  7  1  0  0  0  0
  6 11  2  0  0  0  0
  6  7  1  0  0  0  0
  7  8  2  0  0  0  0
  8 13  1  0  0  0  0
  8  9  1  0  0  0  0
 10 14  1  0  0  0  0
 10  9  2  0  0  0  0
 11 10  1  0  0  0  0
 12  6  1  0  0  0  0
 15  2  1  0  0  0  0
 16 17  2  0  0  0  0
 16 15  1  0  0  0  0
 18 19  1  0  0  0  0
 19 20  1  0  0  0  0
 20 21  2  0  0  0  0
 21 16  1  0  0  0  0
 22 23  2  0  0  0  0
 22 21  1  0  0  0  0
 24 22  1  0  0  0  0
 25 24  1  0  0  0  0
 25 19  1  0  0  0  0
 26 25  2  0  0  0  0
 27 24  1  0  0  0  0
M  END
>  <minimizedAffinity>
-5.29066992

>  <minimizedRMSD>
1.10784388

$$$$
