
 OpenBabel03252508463D

 46 48  0  0  0  0  0  0  0  0999 V2000
   42.1610   31.8840   42.4980 N   0  0  0  0  0  0  0  0  0  0  0  0
   42.4180   30.9110   42.7810 H   0  0  0  0  0  0  0  0  0  0  0  0
   43.0370   32.5070   41.5620 C   0  0  0  0  0  0  0  0  0  0  0  0
   43.7380   31.7490   41.1050 H   0  0  0  0  0  0  0  0  0  0  0  0
   42.4280   32.9060   40.7320 H   0  0  0  0  0  0  0  0  0  0  0  0
   43.6680   34.9220   41.8000 C   0  0  0  0  0  0  0  0  0  0  0  0
   43.8930   33.5870   42.1290 C   0  0  0  0  0  0  0  0  0  0  0  0
   44.9250   33.2890   42.9940 C   0  0  0  0  0  0  0  0  0  0  0  0
   45.6980   34.2990   43.5040 C   0  0  0  0  0  0  0  0  0  0  0  0
   45.4990   35.6150   43.1970 C   0  0  0  0  0  0  0  0  0  0  0  0
   44.4560   35.8640   42.3280 C   0  0  0  0  0  0  0  0  0  0  0  0
   45.1340   32.2660   43.2760 H   0  0  0  0  0  0  0  0  0  0  0  0
   46.5130   34.0470   44.1890 H   0  0  0  0  0  0  0  0  0  0  0  0
   46.0800   36.4440   43.5720 H   0  0  0  0  0  0  0  0  0  0  0  0
   44.2190   36.8870   42.0240 H   0  0  0  0  0  0  0  0  0  0  0  0
   40.3440   35.8730   40.2860 C   0  0  0  0  0  0  0  0  0  0  0  0
   41.3310   35.6650   41.2570 C   0  0  0  0  0  0  0  0  0  0  0  0
   42.5650   35.1780   40.8820 C   0  0  0  0  0  0  0  0  0  0  0  0
   42.7420   34.9260   39.5530 N   0  0  0  0  0  0  0  0  0  0  0  0
   41.7860   35.1310   38.6220 C   0  0  0  0  0  0  0  0  0  0  0  0
   40.5880   35.6050   39.0040 N   0  0  0  0  0  0  0  0  0  0  0  0
   39.3750   36.2570   40.5850 H   0  0  0  0  0  0  0  0  0  0  0  0
   41.1740   35.8680   42.2880 H   0  0  0  0  0  0  0  0  0  0  0  0
   42.1210   34.8680   37.6130 H   0  0  0  0  0  0  0  0  0  0  0  0
   40.5220   31.9130   41.9860 S   0  0  0  0  0  0  0  0  0  0  0  0
   39.7870   33.0840   42.5970 O   0  0  0  0  0  0  0  0  0  0  0  0
   38.9380   33.0440   43.1000 H   0  0  0  0  0  0  0  0  0  0  0  0
   39.8370   30.6360   42.3240 O   0  0  0  0  0  0  0  0  0  0  0  0
   40.2700   29.7340   42.1970 H   0  0  0  0  0  0  0  0  0  0  0  0
   40.5160   32.1010   40.3160 O   0  0  0  0  0  0  0  0  0  0  0  0
   39.5500   31.2450   39.7950 C   0  0  0  0  0  0  0  0  0  0  0  0
   38.9840   31.8330   39.0230 H   0  0  0  0  0  0  0  0  0  0  0  0
   38.8490   30.8390   40.5170 H   0  0  0  0  0  0  0  0  0  0  0  0
   40.2580   30.1250   39.0080 C   0  0  0  0  0  0  0  0  0  0  0  0
   41.2450   30.5050   38.6780 H   0  0  0  0  0  0  0  0  0  0  0  0
   40.4370   29.2680   39.6670 H   0  0  0  0  0  0  0  0  0  0  0  0
   39.4120   29.7350   37.9000 N   0  0  0  0  0  0  0  0  0  0  0  0
   39.2790   30.5610   36.8360 C   0  0  0  0  0  3  0  0  0  0  0  0
   38.4560   30.1350   35.8020 C   0  0  0  0  0  0  0  0  0  0  0  0
   38.3110   30.7660   34.9130 H   0  0  0  0  0  0  0  0  0  0  0  0
   37.8220   28.9130   35.9050 C   0  0  0  0  0  0  0  0  0  0  0  0
   37.0580   28.4820   34.9820 O   0  0  0  0  0  0  0  0  0  0  0  0
   37.9920   28.1250   36.9950 N   0  0  0  0  0  0  0  0  0  0  0  0
   38.7890   28.5430   37.9900 C   0  0  0  0  0  0  0  0  0  0  0  0
   38.9500   27.8020   39.0180 O   0  0  0  0  0  0  0  0  0  0  0  0
   37.5300   27.1970   37.1080 H   0  0  0  0  0  0  0  0  0  0  0  0
  1  2  1  0  0  0  0
  3  7  1  0  0  0  0
  3  1  1  0  0  0  0
  4  3  1  0  0  0  0
  5  3  1  0  0  0  0
  6  7  2  0  0  0  0
  6 11  1  0  0  0  0
  7  8  1  0  0  0  0
  8 12  1  0  0  0  0
  8  9  2  0  0  0  0
  9 13  1  0  0  0  0
 10  9  1  0  0  0  0
 10 14  1  0  0  0  0
 11 10  2  0  0  0  0
 15 11  1  0  0  0  0
 16 22  1  0  0  0  0
 16 17  1  0  0  0  0
 17 23  1  0  0  0  0
 18 17  2  0  0  0  0
 18  6  1  0  0  0  0
 19 18  1  0  0  0  0
 20 21  1  0  0  0  0
 20 19  2  0  0  0  0
 21 16  2  0  0  0  0
 24 20  1  0  0  0  0
 25 28  1  0  0  0  0
 25  1  1  0  0  0  0
 25 26  1  0  0  0  0
 26 27  1  0  0  0  0
 29 28  1  0  0  0  0
 30 25  1  0  0  0  0
 31 30  1  0  0  0  0
 31 33  1  0  0  0  0
 32 31  1  0  0  0  0
 34 36  1  0  0  0  0
 34 31  1  0  0  0  0
 35 34  1  0  0  0  0
 37 44  1  0  0  0  0
 37 34  1  0  0  0  0
 38 37  1  0  0  0  0
 39 41  1  0  0  0  0
 39 38  2  0  0  0  0
 40 39  1  0  0  0  0
 41 43  1  0  0  0  0
 42 41  2  0  0  0  0
 43 46  1  0  0  0  0
 43 44  1  0  0  0  0
 44 45  2  0  0  0  0
M  END
>  <minimizedAffinity>
-5.21534967

>  <minimizedRMSD>
2.19181871

$$$$
