
 OpenBabel03252503393D

 42 45  0  0  1  0  0  0  0  0999 V2000
   37.1950   28.0120   40.7260 C   0  0  1  0  0  0  0  0  0  0  0  0
   37.3040   26.6210   41.5200 C   0  0  0  0  0  0  0  0  0  0  0  0
   36.9650   26.8160   42.9560 C   0  0  0  0  0  0  0  0  0  0  0  0
   37.9760   27.6800   43.6790 C   0  0  0  0  0  0  0  0  0  0  0  0
   38.6370   28.5880   42.6680 C   0  0  0  0  0  0  0  0  0  0  0  0
   37.5920   29.0560   41.6520 C   0  0  1  0  0  0  0  0  0  0  0  0
   36.1140   27.9500   40.4600 H   0  0  0  0  0  0  0  0  0  0  0  0
   38.3350   26.3030   41.3220 H   0  0  0  0  0  0  0  0  0  0  0  0
   36.6060   25.9090   41.0770 H   0  0  0  0  0  0  0  0  0  0  0  0
   35.9420   27.2200   43.0250 H   0  0  0  0  0  0  0  0  0  0  0  0
   36.9610   25.8300   43.4250 H   0  0  0  0  0  0  0  0  0  0  0  0
   37.4340   28.3210   44.4010 H   0  0  0  0  0  0  0  0  0  0  0  0
   38.7390   27.0780   44.2060 H   0  0  0  0  0  0  0  0  0  0  0  0
   39.3020   27.8770   42.0730 H   0  0  0  0  0  0  0  0  0  0  0  0
   39.3100   29.3260   43.0490 H   0  0  0  0  0  0  0  0  0  0  0  0
   36.6560   29.1530   42.3620 H   0  0  0  0  0  0  0  0  0  0  0  0
   37.8290   30.3790   41.2700 N   0  0  0  0  0  0  0  0  0  0  0  0
   39.1490   30.7330   41.2900 C   0  0  0  0  0  3  0  0  0  0  0  0
   39.5620   32.0030   40.9500 C   0  0  0  0  0  0  0  0  0  0  0  0
   40.5680   32.4180   40.9200 H   0  0  0  0  0  0  0  0  0  0  0  0
   38.6260   32.9730   40.5700 C   0  0  0  0  0  0  0  0  0  0  0  0
   38.9270   34.1610   40.2420 O   0  0  0  0  0  0  0  0  0  0  0  0
   37.3310   32.6390   40.5470 N   0  0  0  0  0  0  0  0  0  0  0  0
   37.0230   31.3830   40.8940 C   0  0  0  0  0  0  0  0  0  0  0  0
   35.7990   31.1240   40.8610 O   0  0  0  0  0  0  0  0  0  0  0  0
   36.6150   33.3270   40.2740 H   0  0  0  0  0  0  0  0  0  0  0  0
   37.9900   27.8040   39.4940 C   0  0  0  0  0  0  0  0  0  0  0  0
   37.8470   28.3760   38.2380 C   0  0  0  0  0  0  0  0  0  0  0  0
   38.7360   27.9720   37.2710 C   0  0  0  0  0  0  0  0  0  0  0  0
   39.7100   27.0390   37.5880 N   0  0  0  0  0  0  0  0  0  0  0  0
   39.8080   26.5100   38.8390 C   0  0  0  0  0  0  0  0  0  0  0  0
   38.9260   26.9110   39.7940 N   0  0  0  0  0  0  0  0  0  0  0  0
   38.6630   28.3870   36.2760 H   0  0  0  0  0  0  0  0  0  0  0  0
   40.6290   25.8060   38.8820 H   0  0  0  0  0  0  0  0  0  0  0  0
   36.8500   29.4310   37.9050 C   0  0  0  0  0  0  0  0  0  0  0  0
   36.2050   29.5530   36.6780 C   0  0  0  0  0  0  0  0  0  0  0  0
   35.3510   28.8720   37.6520 C   0  0  0  0  0  0  0  0  0  0  0  0
   36.6600   30.0380   38.8660 H   0  0  0  0  0  0  0  0  0  0  0  0
   36.5740   28.9880   35.7830 H   0  0  0  0  0  0  0  0  0  0  0  0
   35.8800   30.5860   36.3190 H   0  0  0  0  0  0  0  0  0  0  0  0
   34.5460   29.4450   38.0890 H   0  0  0  0  0  0  0  0  0  0  0  0
   35.3350   27.7630   37.6460 H   0  0  0  0  0  0  0  0  0  0  0  0
  1  7  1  6  0  0  0
  1  2  1  0  0  0  0
  1  6  1  0  0  0  0
  2  3  1  0  0  0  0
  3 10  1  0  0  0  0
  3 11  1  0  0  0  0
  3  4  1  0  0  0  0
  4 13  1  0  0  0  0
  4 12  1  0  0  0  0
  5 15  1  0  0  0  0
  5  4  1  0  0  0  0
  6 16  1  1  0  0  0
  6  5  1  0  0  0  0
  8  2  1  0  0  0  0
  9  2  1  0  0  0  0
 14  5  1  0  0  0  0
 17 18  1  0  0  0  0
 17  6  1  0  0  0  0
 19 18  2  0  0  0  0
 20 19  1  0  0  0  0
 21 19  1  0  0  0  0
 22 21  2  0  0  0  0
 23 21  1  0  0  0  0
 23 24  1  0  0  0  0
 24 17  1  0  0  0  0
 25 24  2  0  0  0  0
 26 23  1  0  0  0  0
 27 32  1  0  0  0  0
 27  1  1  0  0  0  0
 28 27  2  0  0  0  0
 29 30  2  0  0  0  0
 29 28  1  0  0  0  0
 30 31  1  0  0  0  0
 31 34  1  0  0  0  0
 31 32  2  0  0  0  0
 33 29  1  0  0  0  0
 35 28  1  0  0  0  0
 35 38  1  0  0  0  0
 36 37  1  0  0  0  0
 36 35  1  0  0  0  0
 37 35  1  0  0  0  0
 37 41  1  0  0  0  0
 39 36  1  0  0  0  0
 40 36  1  0  0  0  0
 42 37  1  0  0  0  0
M  END
>  <minimizedAffinity>
-5.60107946

$$$$

 OpenBabel03252503393D

 42 45  0  0  1  0  0  0  0  0999 V2000
   37.4310   27.7980   39.2840 C   0  0  1  0  0  0  0  0  0  0  0  0
   36.6710   26.4230   38.9540 C   0  0  0  0  0  0  0  0  0  0  0  0
   35.8410   26.5710   37.7280 C   0  0  0  0  0  0  0  0  0  0  0  0
   34.6910   27.5370   37.9170 C   0  0  0  0  0  0  0  0  0  0  0  0
   35.0680   28.5190   39.0030 C   0  0  0  0  0  0  0  0  0  0  0  0
   36.5510   28.8740   38.8680 C   0  0  1  0  0  0  0  0  0  0  0  0
   38.3430   27.6180   38.6680 H   0  0  0  0  0  0  0  0  0  0  0  0
   36.1120   26.2220   39.8760 H   0  0  0  0  0  0  0  0  0  0  0  0
   37.4150   25.6400   38.7960 H   0  0  0  0  0  0  0  0  0  0  0  0
   36.4970   26.8570   36.8910 H   0  0  0  0  0  0  0  0  0  0  0  0
   35.4260   25.5870   37.4980 H   0  0  0  0  0  0  0  0  0  0  0  0
   34.5590   28.1100   36.9790 H   0  0  0  0  0  0  0  0  0  0  0  0
   33.7500   27.0210   38.1820 H   0  0  0  0  0  0  0  0  0  0  0  0
   35.0190   27.8890   39.9530 H   0  0  0  0  0  0  0  0  0  0  0  0
   34.3890   29.3240   39.1820 H   0  0  0  0  0  0  0  0  0  0  0  0
   36.6510   28.8620   37.6940 H   0  0  0  0  0  0  0  0  0  0  0  0
   36.7700   30.2170   39.1840 N   0  0  0  0  0  0  0  0  0  0  0  0
   37.4380   30.9120   38.2140 C   0  0  0  0  0  3  0  0  0  0  0  0
   37.7450   32.2480   38.3640 C   0  0  0  0  0  0  0  0  0  0  0  0
   38.2650   32.9180   37.6820 H   0  0  0  0  0  0  0  0  0  0  0  0
   37.3750   32.9320   39.5280 C   0  0  0  0  0  0  0  0  0  0  0  0
   37.6210   34.1590   39.7400 O   0  0  0  0  0  0  0  0  0  0  0  0
   36.7220   32.2630   40.4850 N   0  0  0  0  0  0  0  0  0  0  0  0
   36.4670   30.9680   40.2530 C   0  0  0  0  0  0  0  0  0  0  0  0
   35.8610   30.3880   41.1810 O   0  0  0  0  0  0  0  0  0  0  0  0
   36.4360   32.7340   41.3550 H   0  0  0  0  0  0  0  0  0  0  0  0
   37.8050   27.6870   40.7120 C   0  0  0  0  0  0  0  0  0  0  0  0
   38.8330   28.3030   41.4110 C   0  0  0  0  0  0  0  0  0  0  0  0
   38.9480   27.9900   42.7450 C   0  0  0  0  0  0  0  0  0  0  0  0
   38.0520   27.1000   43.3150 N   0  0  0  0  0  0  0  0  0  0  0  0
   37.0580   26.5250   42.5830 C   0  0  0  0  0  0  0  0  0  0  0  0
   36.9480   26.8350   41.2630 N   0  0  0  0  0  0  0  0  0  0  0  0
   39.7340   28.4440   43.3310 H   0  0  0  0  0  0  0  0  0  0  0  0
   36.4690   25.8660   43.2080 H   0  0  0  0  0  0  0  0  0  0  0  0
   39.7570   29.3150   40.8260 C   0  0  0  0  0  0  0  0  0  0  0  0
   41.0750   29.5100   41.2260 C   0  0  0  0  0  0  0  0  0  0  0  0
   41.0110   28.6820   40.0220 C   0  0  0  0  0  0  0  0  0  0  0  0
   39.2050   29.8130   39.9450 H   0  0  0  0  0  0  0  0  0  0  0  0
   41.4520   29.0590   42.1820 H   0  0  0  0  0  0  0  0  0  0  0  0
   41.5390   30.5480   41.1320 H   0  0  0  0  0  0  0  0  0  0  0  0
   41.2660   29.1550   39.0830 H   0  0  0  0  0  0  0  0  0  0  0  0
   41.0480   27.5800   40.1420 H   0  0  0  0  0  0  0  0  0  0  0  0
  1  7  1  6  0  0  0
  1 27  1  0  0  0  0
  2  1  1  0  0  0  0
  2  8  1  0  0  0  0
  3  4  1  0  0  0  0
  3  2  1  0  0  0  0
  4 13  1  0  0  0  0
  4  5  1  0  0  0  0
  5 15  1  0  0  0  0
  5 14  1  0  0  0  0
  6 16  1  6  0  0  0
  6  5  1  0  0  0  0
  6 17  1  0  0  0  0
  6  1  1  0  0  0  0
  9  2  1  0  0  0  0
 10  3  1  0  0  0  0
 11  3  1  0  0  0  0
 12  4  1  0  0  0  0
 17 24  1  0  0  0  0
 18 19  2  0  0  0  0
 18 17  1  0  0  0  0
 19 21  1  0  0  0  0
 20 19  1  0  0  0  0
 21 22  2  0  0  0  0
 21 23  1  0  0  0  0
 23 26  1  0  0  0  0
 24 23  1  0  0  0  0
 24 25  2  0  0  0  0
 27 32  2  0  0  0  0
 27 28  1  0  0  0  0
 28 29  2  0  0  0  0
 29 30  1  0  0  0  0
 29 33  1  0  0  0  0
 31 34  1  0  0  0  0
 31 30  2  0  0  0  0
 32 31  1  0  0  0  0
 35 36  1  0  0  0  0
 35 28  1  0  0  0  0
 36 39  1  0  0  0  0
 37 42  1  0  0  0  0
 37 35  1  0  0  0  0
 37 36  1  0  0  0  0
 38 35  1  0  0  0  0
 40 36  1  0  0  0  0
 41 37  1  0  0  0  0
M  END
>  <minimizedAffinity>
-5.45767975

$$$$

 OpenBabel03252503393D

 42 45  0  0  1  0  0  0  0  0999 V2000
   36.5880   28.1710   41.2320 C   0  0  1  0  0  0  0  0  0  0  0  0
   36.6070   27.1740   42.4900 C   0  0  0  0  0  0  0  0  0  0  0  0
   37.1900   27.8520   43.6790 C   0  0  0  0  0  0  0  0  0  0  0  0
   38.6580   28.1760   43.5030 C   0  0  0  0  0  0  0  0  0  0  0  0
   38.9410   28.3170   42.0240 C   0  0  0  0  0  0  0  0  0  0  0  0
   37.7590   29.0190   41.3500 C   0  0  1  0  0  0  0  0  0  0  0  0
   35.5960   28.6410   41.4260 H   0  0  0  0  0  0  0  0  0  0  0  0
   37.1770   26.3150   42.1150 H   0  0  0  0  0  0  0  0  0  0  0  0
   35.5830   26.8700   42.7120 H   0  0  0  0  0  0  0  0  0  0  0  0
   36.5870   28.7460   43.9060 H   0  0  0  0  0  0  0  0  0  0  0  0
   37.0910   27.1660   44.5240 H   0  0  0  0  0  0  0  0  0  0  0  0
   38.8580   29.1570   43.9770 H   0  0  0  0  0  0  0  0  0  0  0  0
   39.3130   27.4020   43.9430 H   0  0  0  0  0  0  0  0  0  0  0  0
   38.8780   27.2430   41.6430 H   0  0  0  0  0  0  0  0  0  0  0  0
   39.9210   28.6400   41.7490 H   0  0  0  0  0  0  0  0  0  0  0  0
   37.4590   29.7690   42.2090 H   0  0  0  0  0  0  0  0  0  0  0  0
   38.2020   29.8720   40.3360 N   0  0  0  0  0  0  0  0  0  0  0  0
   39.2720   29.3890   39.6350 C   0  0  0  0  0  3  0  0  0  0  0  0
   39.8430   30.1050   38.6040 C   0  0  0  0  0  0  0  0  0  0  0  0
   40.6860   29.8460   37.9680 H   0  0  0  0  0  0  0  0  0  0  0  0
   39.3330   31.3590   38.2470 C   0  0  0  0  0  0  0  0  0  0  0  0
   39.8020   32.0760   37.3110 O   0  0  0  0  0  0  0  0  0  0  0  0
   38.2860   31.8430   38.9260 N   0  0  0  0  0  0  0  0  0  0  0  0
   37.7980   31.0780   39.9120 C   0  0  0  0  0  0  0  0  0  0  0  0
   36.8250   31.5790   40.5180 O   0  0  0  0  0  0  0  0  0  0  0  0
   37.8860   32.7620   38.6900 H   0  0  0  0  0  0  0  0  0  0  0  0
   36.4600   27.2850   40.0520 C   0  0  0  0  0  0  0  0  0  0  0  0
   35.8930   27.5350   38.8110 C   0  0  0  0  0  0  0  0  0  0  0  0
   35.9050   26.5000   37.9060 C   0  0  0  0  0  0  0  0  0  0  0  0
   36.4710   25.2870   38.2660 N   0  0  0  0  0  0  0  0  0  0  0  0
   37.0160   25.0950   39.4990 C   0  0  0  0  0  0  0  0  0  0  0  0
   37.0020   26.1210   40.3920 N   0  0  0  0  0  0  0  0  0  0  0  0
   35.4740   26.6470   36.9260 H   0  0  0  0  0  0  0  0  0  0  0  0
   37.4040   24.0880   39.5810 H   0  0  0  0  0  0  0  0  0  0  0  0
   35.3480   28.8550   38.3890 C   0  0  0  0  0  0  0  0  0  0  0  0
   34.3510   29.0320   37.4330 C   0  0  0  0  0  0  0  0  0  0  0  0
   33.7950   29.0890   38.7850 C   0  0  0  0  0  0  0  0  0  0  0  0
   35.8320   29.6570   39.0600 H   0  0  0  0  0  0  0  0  0  0  0  0
   34.0580   28.1880   36.7550 H   0  0  0  0  0  0  0  0  0  0  0  0
   34.3370   29.9900   36.8130 H   0  0  0  0  0  0  0  0  0  0  0  0
   33.5420   30.0650   39.1750 H   0  0  0  0  0  0  0  0  0  0  0  0
   33.3470   28.1650   39.2050 H   0  0  0  0  0  0  0  0  0  0  0  0
  1  6  1  0  0  0  0
  1  7  1  1  0  0  0
  1  2  1  0  0  0  0
  2  9  1  0  0  0  0
  2  3  1  0  0  0  0
  3 10  1  0  0  0  0
  3 11  1  0  0  0  0
  4  3  1  0  0  0  0
  4 13  1  0  0  0  0
  4 12  1  0  0  0  0
  5  4  1  0  0  0  0
  6  5  1  0  0  0  0
  6 16  1  1  0  0  0
  8  2  1  0  0  0  0
 14  5  1  0  0  0  0
 15  5  1  0  0  0  0
 17  6  1  0  0  0  0
 18 17  1  0  0  0  0
 19 18  2  0  0  0  0
 20 19  1  0  0  0  0
 21 19  1  0  0  0  0
 21 23  1  0  0  0  0
 22 21  2  0  0  0  0
 23 24  1  0  0  0  0
 24 17  1  0  0  0  0
 24 25  2  0  0  0  0
 26 23  1  0  0  0  0
 27 32  1  0  0  0  0
 27  1  1  0  0  0  0
 28 27  2  0  0  0  0
 29 30  2  0  0  0  0
 29 28  1  0  0  0  0
 30 31  1  0  0  0  0
 31 34  1  0  0  0  0
 31 32  2  0  0  0  0
 33 29  1  0  0  0  0
 35 37  1  0  0  0  0
 35 28  1  0  0  0  0
 35 38  1  0  0  0  0
 36 35  1  0  0  0  0
 36 37  1  0  0  0  0
 37 41  1  0  0  0  0
 37 42  1  0  0  0  0
 39 36  1  0  0  0  0
 40 36  1  0  0  0  0
M  END
>  <minimizedAffinity>
-5.4219346

$$$$

 OpenBabel03252503393D

 42 45  0  0  1  0  0  0  0  0999 V2000
   38.3060   27.8310   40.9680 C   0  0  1  0  0  0  0  0  0  0  0  0
   38.2490   26.5750   41.9670 C   0  0  0  0  0  0  0  0  0  0  0  0
   36.9710   26.5770   42.7290 C   0  0  0  0  0  0  0  0  0  0  0  0
   36.8630   27.7500   43.6800 C   0  0  0  0  0  0  0  0  0  0  0  0
   37.7200   28.8760   43.1470 C   0  0  0  0  0  0  0  0  0  0  0  0
   37.6030   28.9190   41.6210 C   0  0  1  0  0  0  0  0  0  0  0  0
   37.8060   27.3520   40.0940 H   0  0  0  0  0  0  0  0  0  0  0  0
   39.1550   26.6990   42.5720 H   0  0  0  0  0  0  0  0  0  0  0  0
   38.3190   25.6580   41.3800 H   0  0  0  0  0  0  0  0  0  0  0  0
   36.1340   26.5380   42.0140 H   0  0  0  0  0  0  0  0  0  0  0  0
   36.9430   25.6570   43.3170 H   0  0  0  0  0  0  0  0  0  0  0  0
   35.8130   28.1010   43.6830 H   0  0  0  0  0  0  0  0  0  0  0  0
   37.1770   27.4860   44.7060 H   0  0  0  0  0  0  0  0  0  0  0  0
   38.7830   28.5050   43.3330 H   0  0  0  0  0  0  0  0  0  0  0  0
   37.6690   29.8080   43.6660 H   0  0  0  0  0  0  0  0  0  0  0  0
   36.4700   28.6150   41.5020 H   0  0  0  0  0  0  0  0  0  0  0  0
   37.6190   30.2380   41.1600 N   0  0  0  0  0  0  0  0  0  0  0  0
   38.7590   30.9220   41.4800 C   0  0  0  0  0  3  0  0  0  0  0  0
   38.9400   32.2380   41.1100 C   0  0  0  0  0  0  0  0  0  0  0  0
   39.7860   32.8960   41.2940 H   0  0  0  0  0  0  0  0  0  0  0  0
   37.9470   32.9120   40.3890 C   0  0  0  0  0  0  0  0  0  0  0  0
   38.0400   34.1200   40.0120 O   0  0  0  0  0  0  0  0  0  0  0  0
   36.8270   32.2540   40.0710 N   0  0  0  0  0  0  0  0  0  0  0  0
   36.7380   30.9790   40.4720 C   0  0  0  0  0  0  0  0  0  0  0  0
   35.6700   30.4120   40.1540 O   0  0  0  0  0  0  0  0  0  0  0  0
   36.0760   32.7190   39.5420 H   0  0  0  0  0  0  0  0  0  0  0  0
   39.7430   27.9930   40.6500 C   0  0  0  0  0  0  0  0  0  0  0  0
   40.3530   28.3750   39.4640 C   0  0  0  0  0  0  0  0  0  0  0  0
   41.7260   28.4220   39.4630 C   0  0  0  0  0  0  0  0  0  0  0  0
   42.4200   28.0970   40.6170 N   0  0  0  0  0  0  0  0  0  0  0  0
   41.7720   27.7310   41.7570 C   0  0  0  0  0  0  0  0  0  0  0  0
   40.4130   27.6840   41.7550 N   0  0  0  0  0  0  0  0  0  0  0  0
   42.2470   28.7120   38.5610 H   0  0  0  0  0  0  0  0  0  0  0  0
   42.4880   27.5200   42.5410 H   0  0  0  0  0  0  0  0  0  0  0  0
   39.6160   28.7950   38.2400 C   0  0  0  0  0  0  0  0  0  0  0  0
   40.0680   28.6030   36.9370 C   0  0  0  0  0  0  0  0  0  0  0  0
   39.1080   27.5660   37.3160 C   0  0  0  0  0  0  0  0  0  0  0  0
   38.5930   29.2050   38.5790 H   0  0  0  0  0  0  0  0  0  0  0  0
   41.1350   28.3180   36.7420 H   0  0  0  0  0  0  0  0  0  0  0  0
   39.7580   29.3410   36.1250 H   0  0  0  0  0  0  0  0  0  0  0  0
   38.1070   27.6490   36.9160 H   0  0  0  0  0  0  0  0  0  0  0  0
   39.5040   26.5980   37.6870 H   0  0  0  0  0  0  0  0  0  0  0  0
  1  7  1  6  0  0  0
  1  6  1  0  0  0  0
  1  2  1  0  0  0  0
  2  8  1  0  0  0  0
  2  3  1  0  0  0  0
  3 11  1  0  0  0  0
  3  4  1  0  0  0  0
  4 12  1  0  0  0  0
  4 13  1  0  0  0  0
  5 14  1  0  0  0  0
  5 15  1  0  0  0  0
  5  4  1  0  0  0  0
  6 16  1  6  0  0  0
  6  5  1  0  0  0  0
  9  2  1  0  0  0  0
 10  3  1  0  0  0  0
 17 18  1  0  0  0  0
 17  6  1  0  0  0  0
 19 20  1  0  0  0  0
 19 18  2  0  0  0  0
 21 19  1  0  0  0  0
 22 21  2  0  0  0  0
 23 21  1  0  0  0  0
 23 24  1  0  0  0  0
 24 17  1  0  0  0  0
 25 24  2  0  0  0  0
 26 23  1  0  0  0  0
 27  1  1  0  0  0  0
 27 32  1  0  0  0  0
 28 27  2  0  0  0  0
 29 28  1  0  0  0  0
 29 30  2  0  0  0  0
 30 31  1  0  0  0  0
 31 34  1  0  0  0  0
 32 31  2  0  0  0  0
 33 29  1  0  0  0  0
 35 38  1  0  0  0  0
 35 28  1  0  0  0  0
 36 37  1  0  0  0  0
 36 35  1  0  0  0  0
 37 42  1  0  0  0  0
 37 35  1  0  0  0  0
 39 36  1  0  0  0  0
 40 36  1  0  0  0  0
 41 37  1  0  0  0  0
M  END
>  <minimizedAffinity>
-5.34448051

$$$$

 OpenBabel03252503393D

 42 45  0  0  1  0  0  0  0  0999 V2000
   37.2010   28.5970   38.6540 C   0  0  1  0  0  0  0  0  0  0  0  0
   35.9810   27.5590   38.7690 C   0  0  0  0  0  0  0  0  0  0  0  0
   34.6940   28.2360   38.4530 C   0  0  0  0  0  0  0  0  0  0  0  0
   34.3220   29.2850   39.4770 C   0  0  0  0  0  0  0  0  0  0  0  0
   35.5910   29.7890   40.1270 C   0  0  0  0  0  0  0  0  0  0  0  0
   36.6920   29.8910   39.0680 C   0  0  1  0  0  0  0  0  0  0  0  0
   37.4160   28.4570   37.5690 H   0  0  0  0  0  0  0  0  0  0  0  0
   36.0730   27.1840   39.7960 H   0  0  0  0  0  0  0  0  0  0  0  0
   36.1460   26.7450   38.0620 H   0  0  0  0  0  0  0  0  0  0  0  0
   34.7540   28.6470   37.4330 H   0  0  0  0  0  0  0  0  0  0  0  0
   33.9170   27.4680   38.4520 H   0  0  0  0  0  0  0  0  0  0  0  0
   33.8550   30.1390   38.9490 H   0  0  0  0  0  0  0  0  0  0  0  0
   33.6310   28.8930   40.2460 H   0  0  0  0  0  0  0  0  0  0  0  0
   35.9150   28.9110   40.7800 H   0  0  0  0  0  0  0  0  0  0  0  0
   35.4930   30.6060   40.8080 H   0  0  0  0  0  0  0  0  0  0  0  0
   36.0450   30.2320   38.1440 H   0  0  0  0  0  0  0  0  0  0  0  0
   37.5050   31.0020   39.3050 N   0  0  0  0  0  0  0  0  0  0  0  0
   37.7740   31.2200   40.6270 C   0  0  0  0  0  3  0  0  0  0  0  0
   38.5550   32.2780   41.0410 C   0  0  0  0  0  0  0  0  0  0  0  0
   38.8490   32.5670   42.0480 H   0  0  0  0  0  0  0  0  0  0  0  0
   39.0980   33.1650   40.1040 C   0  0  0  0  0  0  0  0  0  0  0  0
   39.8250   34.1600   40.4050 O   0  0  0  0  0  0  0  0  0  0  0  0
   38.8400   32.9640   38.8060 N   0  0  0  0  0  0  0  0  0  0  0  0
   38.0720   31.9110   38.4970 C   0  0  0  0  0  0  0  0  0  0  0  0
   37.8580   31.7710   37.2730 O   0  0  0  0  0  0  0  0  0  0  0  0
   39.2220   33.5970   38.0900 H   0  0  0  0  0  0  0  0  0  0  0  0
   38.2980   27.9750   39.4290 C   0  0  0  0  0  0  0  0  0  0  0  0
   38.2600   27.3110   40.6470 C   0  0  0  0  0  0  0  0  0  0  0  0
   39.4590   26.8480   41.1350 C   0  0  0  0  0  0  0  0  0  0  0  0
   40.6190   27.0580   40.4070 N   0  0  0  0  0  0  0  0  0  0  0  0
   40.6000   27.7150   39.2150 C   0  0  0  0  0  0  0  0  0  0  0  0
   39.4130   28.1730   38.7340 N   0  0  0  0  0  0  0  0  0  0  0  0
   39.4800   26.3260   42.0810 H   0  0  0  0  0  0  0  0  0  0  0  0
   41.6010   27.7740   38.8060 H   0  0  0  0  0  0  0  0  0  0  0  0
   37.0120   27.0170   41.4030 C   0  0  0  0  0  0  0  0  0  0  0  0
   36.9650   26.3740   42.6370 C   0  0  0  0  0  0  0  0  0  0  0  0
   36.8750   27.8250   42.7990 C   0  0  0  0  0  0  0  0  0  0  0  0
   36.1390   27.4990   40.8240 H   0  0  0  0  0  0  0  0  0  0  0  0
   37.8650   25.8330   43.0300 H   0  0  0  0  0  0  0  0  0  0  0  0
   36.0470   25.7530   42.9080 H   0  0  0  0  0  0  0  0  0  0  0  0
   35.9010   28.2390   43.0200 H   0  0  0  0  0  0  0  0  0  0  0  0
   37.8060   28.3840   43.0290 H   0  0  0  0  0  0  0  0  0  0  0  0
  1  7  1  6  0  0  0
  1  2  1  0  0  0  0
  1  6  1  0  0  0  0
  1 27  1  0  0  0  0
  2  8  1  0  0  0  0
  3  2  1  0  0  0  0
  3  4  1  0  0  0  0
  4  5  1  0  0  0  0
  4 13  1  0  0  0  0
  5 14  1  0  0  0  0
  5 15  1  0  0  0  0
  6 16  1  6  0  0  0
  6 17  1  0  0  0  0
  6  5  1  0  0  0  0
  9  2  1  0  0  0  0
 10  3  1  0  0  0  0
 11  3  1  0  0  0  0
 12  4  1  0  0  0  0
 17 18  1  0  0  0  0
 18 19  2  0  0  0  0
 19 20  1  0  0  0  0
 21 22  2  0  0  0  0
 21 19  1  0  0  0  0
 23 21  1  0  0  0  0
 24 23  1  0  0  0  0
 24 17  1  0  0  0  0
 25 24  2  0  0  0  0
 26 23  1  0  0  0  0
 27 28  1  0  0  0  0
 28 29  2  0  0  0  0
 28 35  1  0  0  0  0
 29 33  1  0  0  0  0
 30 29  1  0  0  0  0
 31 30  2  0  0  0  0
 32 31  1  0  0  0  0
 32 27  2  0  0  0  0
 34 31  1  0  0  0  0
 35 36  1  0  0  0  0
 35 37  1  0  0  0  0
 36 37  1  0  0  0  0
 36 40  1  0  0  0  0
 36 39  1  0  0  0  0
 37 41  1  0  0  0  0
 37 42  1  0  0  0  0
 38 35  1  0  0  0  0
M  END
>  <minimizedAffinity>
-5.31385803

$$$$

 OpenBabel03252503393D

 42 45  0  0  1  0  0  0  0  0999 V2000
   37.0330   30.9550   38.1580 C   0  0  1  0  0  0  0  0  0  0  0  0
   37.3400   31.0220   36.5840 C   0  0  0  0  0  0  0  0  0  0  0  0
   36.8040   29.8140   35.9000 C   0  0  0  0  0  0  0  0  0  0  0  0
   37.5200   28.5470   36.3130 C   0  0  0  0  0  0  0  0  0  0  0  0
   38.0880   28.7500   37.6990 C   0  0  0  0  0  0  0  0  0  0  0  0
   37.0920   29.5560   38.5380 C   0  0  1  0  0  0  0  0  0  0  0  0
   36.0280   31.4360   38.1380 H   0  0  0  0  0  0  0  0  0  0  0  0
   38.4300   31.1350   36.5490 H   0  0  0  0  0  0  0  0  0  0  0  0
   36.8630   31.9130   36.1720 H   0  0  0  0  0  0  0  0  0  0  0  0
   35.7180   29.7610   36.0790 H   0  0  0  0  0  0  0  0  0  0  0  0
   36.9530   29.9570   34.8270 H   0  0  0  0  0  0  0  0  0  0  0  0
   36.7760   27.7290   36.3740 H   0  0  0  0  0  0  0  0  0  0  0  0
   38.3260   28.2730   35.6080 H   0  0  0  0  0  0  0  0  0  0  0  0
   38.9520   29.4750   37.5230 H   0  0  0  0  0  0  0  0  0  0  0  0
   38.5420   27.9030   38.1640 H   0  0  0  0  0  0  0  0  0  0  0  0
   36.0820   29.1220   38.1150 H   0  0  0  0  0  0  0  0  0  0  0  0
   37.0890   29.1140   39.8630 N   0  0  0  0  0  0  0  0  0  0  0  0
   38.3260   28.7810   40.3390 C   0  0  0  0  0  3  0  0  0  0  0  0
   38.5060   28.3180   41.6250 C   0  0  0  0  0  0  0  0  0  0  0  0
   39.4220   28.0200   42.1310 H   0  0  0  0  0  0  0  0  0  0  0  0
   37.4090   28.1760   42.4850 C   0  0  0  0  0  0  0  0  0  0  0  0
   37.4930   27.7580   43.6800 O   0  0  0  0  0  0  0  0  0  0  0  0
   36.1930   28.4970   42.0310 N   0  0  0  0  0  0  0  0  0  0  0  0
   36.1140   28.9380   40.7680 C   0  0  0  0  0  0  0  0  0  0  0  0
   34.9550   29.2190   40.3920 O   0  0  0  0  0  0  0  0  0  0  0  0
   35.3640   28.4040   42.6350 H   0  0  0  0  0  0  0  0  0  0  0  0
   37.9910   31.9060   38.7680 C   0  0  0  0  0  0  0  0  0  0  0  0
   39.3650   32.0080   38.6080 C   0  0  0  0  0  0  0  0  0  0  0  0
   39.9990   32.9940   39.3260 C   0  0  0  0  0  0  0  0  0  0  0  0
   39.2550   33.8200   40.1530 N   0  0  0  0  0  0  0  0  0  0  0  0
   37.9060   33.6780   40.2730 C   0  0  0  0  0  0  0  0  0  0  0  0
   37.2810   32.7010   39.5620 N   0  0  0  0  0  0  0  0  0  0  0  0
   41.0690   33.1120   39.2360 H   0  0  0  0  0  0  0  0  0  0  0  0
   37.5140   34.4150   40.9610 H   0  0  0  0  0  0  0  0  0  0  0  0
   40.1640   31.1740   37.6680 C   0  0  0  0  0  0  0  0  0  0  0  0
   41.5290   31.3240   37.4390 C   0  0  0  0  0  0  0  0  0  0  0  0
   41.2750   30.2410   38.3890 C   0  0  0  0  0  0  0  0  0  0  0  0
   39.4670   30.3500   37.2630 H   0  0  0  0  0  0  0  0  0  0  0  0
   42.0660   32.2450   37.7880 H   0  0  0  0  0  0  0  0  0  0  0  0
   41.9570   31.0450   36.4190 H   0  0  0  0  0  0  0  0  0  0  0  0
   41.3630   29.2290   38.0200 H   0  0  0  0  0  0  0  0  0  0  0  0
   41.3450   30.4690   39.4730 H   0  0  0  0  0  0  0  0  0  0  0  0
  1  7  1  1  0  0  0
  1  6  1  0  0  0  0
  1 27  1  0  0  0  0
  2  1  1  0  0  0  0
  3 10  1  0  0  0  0
  3  4  1  0  0  0  0
  3  2  1  0  0  0  0
  4 12  1  0  0  0  0
  4  5  1  0  0  0  0
  5 15  1  0  0  0  0
  5  6  1  0  0  0  0
  6 16  1  6  0  0  0
  6 17  1  0  0  0  0
  8  2  1  0  0  0  0
  9  2  1  0  0  0  0
 11  3  1  0  0  0  0
 13  4  1  0  0  0  0
 14  5  1  0  0  0  0
 17 18  1  0  0  0  0
 17 24  1  0  0  0  0
 18 19  2  0  0  0  0
 19 20  1  0  0  0  0
 19 21  1  0  0  0  0
 21 22  2  0  0  0  0
 23 21  1  0  0  0  0
 23 26  1  0  0  0  0
 24 23  1  0  0  0  0
 25 24  2  0  0  0  0
 27 32  1  0  0  0  0
 28 27  2  0  0  0  0
 28 29  1  0  0  0  0
 29 30  2  0  0  0  0
 30 31  1  0  0  0  0
 31 34  1  0  0  0  0
 32 31  2  0  0  0  0
 33 29  1  0  0  0  0
 35 37  1  0  0  0  0
 35 28  1  0  0  0  0
 36 35  1  0  0  0  0
 36 39  1  0  0  0  0
 36 37  1  0  0  0  0
 37 42  1  0  0  0  0
 38 35  1  0  0  0  0
 40 36  1  0  0  0  0
 41 37  1  0  0  0  0
M  END
>  <minimizedAffinity>
-5.19333553

$$$$

 OpenBabel03252503393D

 42 45  0  0  1  0  0  0  0  0999 V2000
   40.2490   30.4510   39.9780 C   0  0  1  0  0  0  0  0  0  0  0  0
   41.6140   31.2900   39.8720 C   0  0  0  0  0  0  0  0  0  0  0  0
   42.7500   30.5040   40.4270 C   0  0  0  0  0  0  0  0  0  0  0  0
   42.6260   30.2780   41.9180 C   0  0  0  0  0  0  0  0  0  0  0  0
   41.1610   30.3300   42.2880 C   0  0  0  0  0  0  0  0  0  0  0  0
   40.3390   29.6550   41.1870 C   0  0  1  0  0  0  0  0  0  0  0  0
   40.3270   29.9120   39.0050 H   0  0  0  0  0  0  0  0  0  0  0  0
   41.3780   32.2160   40.4110 H   0  0  0  0  0  0  0  0  0  0  0  0
   41.8070   31.5130   38.8210 H   0  0  0  0  0  0  0  0  0  0  0  0
   42.8330   29.5610   39.8640 H   0  0  0  0  0  0  0  0  0  0  0  0
   43.6610   31.0780   40.2430 H   0  0  0  0  0  0  0  0  0  0  0  0
   42.9930   29.2590   42.1490 H   0  0  0  0  0  0  0  0  0  0  0  0
   43.1930   31.0260   42.5030 H   0  0  0  0  0  0  0  0  0  0  0  0
   40.9050   31.4380   42.1850 H   0  0  0  0  0  0  0  0  0  0  0  0
   40.9100   30.0920   43.2990 H   0  0  0  0  0  0  0  0  0  0  0  0
   41.0850   28.7940   40.8850 H   0  0  0  0  0  0  0  0  0  0  0  0
   39.2610   28.9540   41.7330 N   0  0  0  0  0  0  0  0  0  0  0  0
   38.7440   29.5250   42.8620 C   0  0  0  0  0  3  0  0  0  0  0  0
   37.6810   28.9610   43.5360 C   0  0  0  0  0  0  0  0  0  0  0  0
   37.1740   29.3030   44.4350 H   0  0  0  0  0  0  0  0  0  0  0  0
   37.1000   27.7750   43.0720 C   0  0  0  0  0  0  0  0  0  0  0  0
   36.1210   27.1960   43.6350 O   0  0  0  0  0  0  0  0  0  0  0  0
   37.5970   27.2050   41.9680 N   0  0  0  0  0  0  0  0  0  0  0  0
   38.6300   27.8240   41.3810 C   0  0  0  0  0  0  0  0  0  0  0  0
   39.0610   27.2480   40.3570 O   0  0  0  0  0  0  0  0  0  0  0  0
   37.1950   26.3320   41.5990 H   0  0  0  0  0  0  0  0  0  0  0  0
   39.1760   31.4650   39.8640 C   0  0  0  0  0  0  0  0  0  0  0  0
   37.8930   31.3460   39.3490 C   0  0  0  0  0  0  0  0  0  0  0  0
   37.1150   32.4790   39.3600 C   0  0  0  0  0  0  0  0  0  0  0  0
   37.6340   33.6570   39.8750 N   0  0  0  0  0  0  0  0  0  0  0  0
   38.9000   33.7190   40.3700 C   0  0  0  0  0  0  0  0  0  0  0  0
   39.6690   32.5960   40.3560 N   0  0  0  0  0  0  0  0  0  0  0  0
   36.1090   32.4360   38.9690 H   0  0  0  0  0  0  0  0  0  0  0  0
   39.1140   34.7200   40.7220 H   0  0  0  0  0  0  0  0  0  0  0  0
   37.3010   30.0700   38.8610 C   0  0  0  0  0  0  0  0  0  0  0  0
   36.2790   29.9790   37.9190 C   0  0  0  0  0  0  0  0  0  0  0  0
   37.5850   29.7610   37.2970 C   0  0  0  0  0  0  0  0  0  0  0  0
   37.9050   29.2090   39.3310 H   0  0  0  0  0  0  0  0  0  0  0  0
   35.6830   30.8860   37.6390 H   0  0  0  0  0  0  0  0  0  0  0  0
   35.5590   29.0960   37.9610 H   0  0  0  0  0  0  0  0  0  0  0  0
   37.8520   28.7430   37.0500 H   0  0  0  0  0  0  0  0  0  0  0  0
   38.0790   30.6240   36.8040 H   0  0  0  0  0  0  0  0  0  0  0  0
  1  7  1  6  0  0  0
  1  6  1  0  0  0  0
  2  1  1  0  0  0  0
  2  8  1  0  0  0  0
  2  3  1  0  0  0  0
  3  4  1  0  0  0  0
  4 12  1  0  0  0  0
  4  5  1  0  0  0  0
  4 13  1  0  0  0  0
  5 15  1  0  0  0  0
  6 16  1  6  0  0  0
  6 17  1  0  0  0  0
  6  5  1  0  0  0  0
  9  2  1  0  0  0  0
 10  3  1  0  0  0  0
 11  3  1  0  0  0  0
 14  5  1  0  0  0  0
 17 18  1  0  0  0  0
 18 19  2  0  0  0  0
 19 20  1  0  0  0  0
 21 19  1  0  0  0  0
 21 22  2  0  0  0  0
 23 21  1  0  0  0  0
 24 17  1  0  0  0  0
 24 23  1  0  0  0  0
 25 24  2  0  0  0  0
 26 23  1  0  0  0  0
 27  1  1  0  0  0  0
 27 32  1  0  0  0  0
 28 29  1  0  0  0  0
 28 27  2  0  0  0  0
 29 30  2  0  0  0  0
 30 31  1  0  0  0  0
 31 34  1  0  0  0  0
 32 31  2  0  0  0  0
 33 29  1  0  0  0  0
 35 38  1  0  0  0  0
 35 28  1  0  0  0  0
 36 40  1  0  0  0  0
 36 35  1  0  0  0  0
 37 36  1  0  0  0  0
 37 35  1  0  0  0  0
 39 36  1  0  0  0  0
 41 37  1  0  0  0  0
 42 37  1  0  0  0  0
M  END
>  <minimizedAffinity>
-5.1338191

$$$$

 OpenBabel03252503393D

 42 45  0  0  1  0  0  0  0  0999 V2000
   36.7020   29.5150   39.2070 C   0  0  1  0  0  0  0  0  0  0  0  0
   35.8700   29.5670   37.8350 C   0  0  0  0  0  0  0  0  0  0  0  0
   34.6750   28.6840   37.9210 C   0  0  0  0  0  0  0  0  0  0  0  0
   35.0410   27.2180   38.0210 C   0  0  0  0  0  0  0  0  0  0  0  0
   36.4180   27.1120   38.6350 C   0  0  0  0  0  0  0  0  0  0  0  0
   36.5630   28.1700   39.7320 C   0  0  1  0  0  0  0  0  0  0  0  0
   36.1610   30.3310   39.7420 H   0  0  0  0  0  0  0  0  0  0  0  0
   36.6140   29.2760   37.0840 H   0  0  0  0  0  0  0  0  0  0  0  0
   35.5480   30.5940   37.6580 H   0  0  0  0  0  0  0  0  0  0  0  0
   34.0490   29.0180   38.7630 H   0  0  0  0  0  0  0  0  0  0  0  0
   34.0980   28.8300   37.0050 H   0  0  0  0  0  0  0  0  0  0  0  0
   34.3280   26.7270   38.7100 H   0  0  0  0  0  0  0  0  0  0  0  0
   35.0240   26.7150   37.0370 H   0  0  0  0  0  0  0  0  0  0  0  0
   37.1050   27.4810   37.8020 H   0  0  0  0  0  0  0  0  0  0  0  0
   36.7730   26.1290   38.8570 H   0  0  0  0  0  0  0  0  0  0  0  0
   35.4650   28.1630   40.1600 H   0  0  0  0  0  0  0  0  0  0  0  0
   37.3150   27.6770   40.8010 N   0  0  0  0  0  0  0  0  0  0  0  0
   37.9100   26.4720   40.5500 C   0  0  0  0  0  3  0  0  0  0  0  0
   38.6830   25.8360   41.4980 C   0  0  0  0  0  0  0  0  0  0  0  0
   39.2110   24.8870   41.4350 H   0  0  0  0  0  0  0  0  0  0  0  0
   38.8780   26.4170   42.7570 C   0  0  0  0  0  0  0  0  0  0  0  0
   39.5750   25.8950   43.6800 O   0  0  0  0  0  0  0  0  0  0  0  0
   38.3000   27.5950   43.0160 N   0  0  0  0  0  0  0  0  0  0  0  0
   37.5670   28.1390   42.0350 C   0  0  0  0  0  0  0  0  0  0  0  0
   37.0440   29.2360   42.3310 O   0  0  0  0  0  0  0  0  0  0  0  0
   38.4210   28.0510   43.9310 H   0  0  0  0  0  0  0  0  0  0  0  0
   38.0500   30.0100   38.8470 C   0  0  0  0  0  0  0  0  0  0  0  0
   38.7110   31.1620   39.2500 C   0  0  0  0  0  0  0  0  0  0  0  0
   39.9660   31.3680   38.7300 C   0  0  0  0  0  0  0  0  0  0  0  0
   40.5020   30.4380   37.8530 N   0  0  0  0  0  0  0  0  0  0  0  0
   39.8120   29.3210   37.4920 C   0  0  0  0  0  0  0  0  0  0  0  0
   38.5680   29.1210   38.0070 N   0  0  0  0  0  0  0  0  0  0  0  0
   40.5200   32.2520   39.0130 H   0  0  0  0  0  0  0  0  0  0  0  0
   40.3990   28.7260   36.8060 H   0  0  0  0  0  0  0  0  0  0  0  0
   38.1750   32.1310   40.2450 C   0  0  0  0  0  0  0  0  0  0  0  0
   38.5750   33.4600   40.3530 C   0  0  0  0  0  0  0  0  0  0  0  0
   37.3270   33.3490   39.5970 C   0  0  0  0  0  0  0  0  0  0  0  0
   37.3270   31.6000   40.8180 H   0  0  0  0  0  0  0  0  0  0  0  0
   39.5010   33.8190   39.8320 H   0  0  0  0  0  0  0  0  0  0  0  0
   38.5340   33.9740   41.3700 H   0  0  0  0  0  0  0  0  0  0  0  0
   36.4140   33.6220   40.1080 H   0  0  0  0  0  0  0  0  0  0  0  0
   37.3870   33.3310   38.4890 H   0  0  0  0  0  0  0  0  0  0  0  0
  1  6  1  0  0  0  0
  1  7  1  1  0  0  0
  2  3  1  0  0  0  0
  2  1  1  0  0  0  0
  3  4  1  0  0  0  0
  3 10  1  0  0  0  0
  4  5  1  0  0  0  0
  4 12  1  0  0  0  0
  5 15  1  0  0  0  0
  5  6  1  0  0  0  0
  6 16  1  1  0  0  0
  6 17  1  0  0  0  0
  8  2  1  0  0  0  0
  9  2  1  0  0  0  0
 11  3  1  0  0  0  0
 13  4  1  0  0  0  0
 14  5  1  0  0  0  0
 17 24  1  0  0  0  0
 18 17  1  0  0  0  0
 18 19  2  0  0  0  0
 19 21  1  0  0  0  0
 20 19  1  0  0  0  0
 21 23  1  0  0  0  0
 21 22  2  0  0  0  0
 23 26  1  0  0  0  0
 24 25  2  0  0  0  0
 24 23  1  0  0  0  0
 27  1  1  0  0  0  0
 27 28  1  0  0  0  0
 28 35  1  0  0  0  0
 29 33  1  0  0  0  0
 29 28  2  0  0  0  0
 30 29  1  0  0  0  0
 31 30  2  0  0  0  0
 31 32  1  0  0  0  0
 32 27  2  0  0  0  0
 34 31  1  0  0  0  0
 35 36  1  0  0  0  0
 35 38  1  0  0  0  0
 36 40  1  0  0  0  0
 37 41  1  0  0  0  0
 37 35  1  0  0  0  0
 37 36  1  0  0  0  0
 39 36  1  0  0  0  0
 42 37  1  0  0  0  0
M  END
>  <minimizedAffinity>
-5.08958626

$$$$

 OpenBabel03252503393D

 42 45  0  0  1  0  0  0  0  0999 V2000
   36.5510   30.3190   40.4090 C   0  0  1  0  0  0  0  0  0  0  0  0
   37.1810   31.7860   40.5790 C   0  0  0  0  0  0  0  0  0  0  0  0
   37.0710   32.5470   39.3040 C   0  0  0  0  0  0  0  0  0  0  0  0
   37.9210   31.9570   38.2000 C   0  0  0  0  0  0  0  0  0  0  0  0
   38.1100   30.4830   38.4790 C   0  0  0  0  0  0  0  0  0  0  0  0
   36.8090   29.9060   39.0430 C   0  0  1  0  0  0  0  0  0  0  0  0
   35.4990   30.5750   40.6750 H   0  0  0  0  0  0  0  0  0  0  0  0
   38.2050   31.5780   40.9120 H   0  0  0  0  0  0  0  0  0  0  0  0
   36.6360   32.3130   41.3630 H   0  0  0  0  0  0  0  0  0  0  0  0
   36.0080   32.6150   39.0260 H   0  0  0  0  0  0  0  0  0  0  0  0
   37.4240   33.5620   39.5020 H   0  0  0  0  0  0  0  0  0  0  0  0
   37.3660   32.0480   37.2460 H   0  0  0  0  0  0  0  0  0  0  0  0
   38.9030   32.4570   38.1150 H   0  0  0  0  0  0  0  0  0  0  0  0
   38.8240   30.4760   39.3690 H   0  0  0  0  0  0  0  0  0  0  0  0
   38.6120   29.9100   37.7300 H   0  0  0  0  0  0  0  0  0  0  0  0
   36.0290   30.5360   38.4220 H   0  0  0  0  0  0  0  0  0  0  0  0
   36.5990   28.6070   38.5750 N   0  0  0  0  0  0  0  0  0  0  0  0
   37.7510   27.9050   38.3550 C   0  0  0  0  0  3  0  0  0  0  0  0
   37.7300   26.6090   37.8850 C   0  0  0  0  0  0  0  0  0  0  0  0
   38.5590   25.9390   37.6690 H   0  0  0  0  0  0  0  0  0  0  0  0
   36.5110   25.9740   37.6190 C   0  0  0  0  0  0  0  0  0  0  0  0
   36.4090   24.7850   37.1860 O   0  0  0  0  0  0  0  0  0  0  0  0
   35.3760   26.6500   37.8280 N   0  0  0  0  0  0  0  0  0  0  0  0
   35.4940   27.9040   38.2860 C   0  0  0  0  0  0  0  0  0  0  0  0
   34.4040   28.4940   38.4590 O   0  0  0  0  0  0  0  0  0  0  0  0
   34.4620   26.2150   37.6420 H   0  0  0  0  0  0  0  0  0  0  0  0
   37.1320   29.5300   41.5190 C   0  0  0  0  0  0  0  0  0  0  0  0
   38.3330   29.6960   42.1930 C   0  0  0  0  0  0  0  0  0  0  0  0
   38.6170   28.7860   43.1830 C   0  0  0  0  0  0  0  0  0  0  0  0
   37.7120   27.7730   43.4580 N   0  0  0  0  0  0  0  0  0  0  0  0
   36.5440   27.6560   42.7670 C   0  0  0  0  0  0  0  0  0  0  0  0
   36.2670   28.5580   41.7860 N   0  0  0  0  0  0  0  0  0  0  0  0
   39.5420   28.8720   43.7350 H   0  0  0  0  0  0  0  0  0  0  0  0
   35.9800   26.8080   43.1300 H   0  0  0  0  0  0  0  0  0  0  0  0
   39.2790   30.8210   41.9560 C   0  0  0  0  0  0  0  0  0  0  0  0
   40.5460   30.9250   42.5240 C   0  0  0  0  0  0  0  0  0  0  0  0
   40.6250   30.4010   41.1600 C   0  0  0  0  0  0  0  0  0  0  0  0
   38.8030   31.5080   41.1630 H   0  0  0  0  0  0  0  0  0  0  0  0
   40.8400   30.2660   43.3820 H   0  0  0  0  0  0  0  0  0  0  0  0
   40.9860   31.9590   42.7200 H   0  0  0  0  0  0  0  0  0  0  0  0
   40.9570   31.0800   40.3880 H   0  0  0  0  0  0  0  0  0  0  0  0
   40.6820   29.3010   41.0260 H   0  0  0  0  0  0  0  0  0  0  0  0
  1  2  1  0  0  0  0
  1  7  1  1  0  0  0
  1 27  1  0  0  0  0
  2  8  1  0  0  0  0
  2  9  1  0  0  0  0
  3 11  1  0  0  0  0
  3  2  1  0  0  0  0
  4  5  1  0  0  0  0
  4  3  1  0  0  0  0
  5  6  1  0  0  0  0
  5 14  1  0  0  0  0
  6 16  1  6  0  0  0
  6  1  1  0  0  0  0
 10  3  1  0  0  0  0
 12  4  1  0  0  0  0
 13  4  1  0  0  0  0
 15  5  1  0  0  0  0
 17  6  1  0  0  0  0
 18 17  1  0  0  0  0
 19 18  2  0  0  0  0
 20 19  1  0  0  0  0
 21 23  1  0  0  0  0
 21 19  1  0  0  0  0
 22 21  2  0  0  0  0
 23 24  1  0  0  0  0
 24 25  2  0  0  0  0
 24 17  1  0  0  0  0
 26 23  1  0  0  0  0
 27 32  2  0  0  0  0
 27 28  1  0  0  0  0
 28 29  2  0  0  0  0
 29 30  1  0  0  0  0
 29 33  1  0  0  0  0
 31 34  1  0  0  0  0
 31 30  2  0  0  0  0
 32 31  1  0  0  0  0
 35 28  1  0  0  0  0
 35 36  1  0  0  0  0
 36 40  1  0  0  0  0
 36 39  1  0  0  0  0
 37 35  1  0  0  0  0
 37 36  1  0  0  0  0
 38 35  1  0  0  0  0
 41 37  1  0  0  0  0
 42 37  1  0  0  0  0
M  END
>  <minimizedAffinity>
-5.08640051

$$$$
