
 OpenBabel03242523073D

 46 50  0  0  1  0  0  0  0  0999 V2000
   45.1180   36.0350   43.5040 C   0  0  0  0  0  0  0  0  0  0  0  0
   45.9030   34.9180   43.2710 C   0  0  0  0  0  0  0  0  0  0  0  0
   46.0120   33.9910   44.2740 C   0  0  0  0  0  0  0  0  0  0  0  0
   45.3480   34.2050   45.4530 N   0  0  0  0  0  0  0  0  0  0  0  0
   44.5910   35.3040   45.6450 C   0  0  0  0  0  0  0  0  0  0  0  0
   44.4810   36.2010   44.6860 N   0  0  0  0  0  0  0  0  0  0  0  0
   45.0190   36.7860   42.7150 H   0  0  0  0  0  0  0  0  0  0  0  0
   44.0390   35.5470   46.5420 H   0  0  0  0  0  0  0  0  0  0  0  0
   46.5510   34.8110   42.0410 N   0  0  0  0  0  0  0  0  0  0  0  0
   47.8680   35.2730   41.8220 C   0  0  0  0  0  0  0  0  0  0  0  0
   48.4540   34.9200   40.4800 C   0  0  0  0  0  0  0  0  0  0  0  0
   48.1350   33.6360   39.9830 N   0  0  0  0  0  0  0  0  0  0  0  0
   46.8300   33.1880   40.2050 C   0  0  0  0  0  0  0  0  0  0  0  0
   45.9710   34.2430   40.8730 C   0  0  0  0  0  0  0  0  0  0  0  0
   48.5920   35.0120   42.6230 H   0  0  0  0  0  0  0  0  0  0  0  0
   47.8300   36.3880   41.8560 H   0  0  0  0  0  0  0  0  0  0  0  0
   48.1500   35.6860   39.7370 H   0  0  0  0  0  0  0  0  0  0  0  0
   49.5760   35.0070   40.5550 H   0  0  0  0  0  0  0  0  0  0  0  0
   48.8980   32.9560   39.9470 H   0  0  0  0  0  0  0  0  0  0  0  0
   46.2960   32.9970   39.2200 H   0  0  0  0  0  0  0  0  0  0  0  0
   46.6840   32.2440   40.7560 H   0  0  0  0  0  0  0  0  0  0  0  0
   45.7580   35.0480   40.1410 H   0  0  0  0  0  0  0  0  0  0  0  0
   44.9850   33.7910   41.1320 H   0  0  0  0  0  0  0  0  0  0  0  0
   46.4330   32.0570   45.5500 C   0  0  0  0  0  0  0  0  0  0  0  0
   46.7190   32.7760   44.3720 C   0  0  0  0  0  0  0  0  0  0  0  0
   47.6890   32.1230   43.6340 C   0  0  0  0  0  0  0  0  0  0  0  0
   48.3100   30.9590   43.9560 C   0  0  0  0  0  0  0  0  0  0  0  0
   47.9730   30.3280   45.1330 C   0  0  0  0  0  0  0  0  0  0  0  0
   47.0250   30.8710   45.9440 C   0  0  0  0  0  0  0  0  0  0  0  0
   48.7710   29.2150   45.1810 O   0  0  0  0  0  0  0  0  0  0  0  0
   49.6320   29.1670   44.0610 C   0  0  2  0  0  0  0  0  0  0  0  0
   49.2740   30.2740   43.2360 O   0  0  0  0  0  0  0  0  0  0  0  0
   45.7030   32.2810   46.3570 H   0  0  0  0  0  0  0  0  0  0  0  0
   47.9100   32.6540   42.7630 H   0  0  0  0  0  0  0  0  0  0  0  0
   46.8350   30.3110   46.8180 H   0  0  0  0  0  0  0  0  0  0  0  0
   50.7040   29.3740   44.3560 H   0  0  0  0  0  0  0  0  0  0  0  0
   49.5260   27.8970   43.3570 N   0  0  0  0  0  0  0  0  0  0  0  0
   48.4000   27.1660   43.2540 C   0  0  0  0  0  0  0  0  0  0  0  0
   48.3510   25.9700   42.5760 C   0  0  0  0  0  0  0  0  0  0  0  0
   47.4010   25.4750   42.5600 H   0  0  0  0  0  0  0  0  0  0  0  0
   49.5350   25.5440   41.9940 C   0  0  0  0  0  0  0  0  0  0  0  0
   49.4870   24.4470   41.3730 O   0  0  0  0  0  0  0  0  0  0  0  0
   50.6460   26.3000   42.1160 N   0  0  0  0  0  0  0  0  0  0  0  0
   50.6700   27.4670   42.7840 C   0  0  0  0  0  0  0  0  0  0  0  0
   51.7650   28.1000   42.8390 O   0  0  0  0  0  0  0  0  0  0  0  0
   51.4610   25.8640   41.6330 H   0  0  0  0  0  0  0  0  0  0  0  0
  1  6  1  0  0  0  0
  2  1  2  0  0  0  0
  2  3  1  0  0  0  0
  3 25  1  0  0  0  0
  3  4  2  0  0  0  0
  4  5  1  0  0  0  0
  5  8  1  0  0  0  0
  6  5  2  0  0  0  0
  7  1  1  0  0  0  0
  9  2  1  0  0  0  0
 10 16  1  0  0  0  0
 10  9  1  0  0  0  0
 10 15  1  0  0  0  0
 11 18  1  0  0  0  0
 11 10  1  0  0  0  0
 12 13  1  0  0  0  0
 12 11  1  0  0  0  0
 13 21  1  0  0  0  0
 13 14  1  0  0  0  0
 14 23  1  0  0  0  0
 14  9  1  0  0  0  0
 17 11  1  0  0  0  0
 19 12  1  0  0  0  0
 20 13  1  0  0  0  0
 22 14  1  0  0  0  0
 24 29  1  0  0  0  0
 24 33  1  0  0  0  0
 25 24  2  0  0  0  0
 26 27  2  0  0  0  0
 26 25  1  0  0  0  0
 27 28  1  0  0  0  0
 28 30  1  0  0  0  0
 28 29  2  0  0  0  0
 29 35  1  0  0  0  0
 31 36  1  1  0  0  0
 31 30  1  0  0  0  0
 32 27  1  0  0  0  0
 32 31  1  0  0  0  0
 34 26  1  0  0  0  0
 37 31  1  0  0  0  0
 38 37  1  0  0  0  0
 39 38  2  0  0  0  0
 40 39  1  0  0  0  0
 41 43  1  0  0  0  0
 41 39  1  0  0  0  0
 42 41  2  0  0  0  0
 43 44  1  0  0  0  0
 44 45  2  0  0  0  0
 44 37  1  0  0  0  0
 46 43  1  0  0  0  0
M  END
>  <minimizedAffinity>
-4.93984032

>  <minimizedRMSD>
0.999115527

$$$$
