
 OpenBabel03252503003D

 23 24  0  0  0  0  0  0  0  0999 V2000
   37.1100   29.0210   41.8220 C   0  0  0  0  0  0  0  0  0  0  0  0
   37.3390   28.2810   41.0170 H   0  0  0  0  0  0  0  0  0  0  0  0
   36.0210   28.9970   42.0460 H   0  0  0  0  0  0  0  0  0  0  0  0
   37.5440   30.3660   41.4140 N   0  0  0  0  0  0  0  0  0  0  0  0
   38.7910   30.7480   41.7150 C   0  0  0  0  0  3  0  0  0  0  0  0
   39.1110   32.0360   41.2900 C   0  0  0  0  0  0  0  0  0  0  0  0
   40.1150   32.4430   41.4900 H   0  0  0  0  0  0  0  0  0  0  0  0
   38.1790   32.8280   40.6090 C   0  0  0  0  0  0  0  0  0  0  0  0
   38.4430   33.9890   40.2160 O   0  0  0  0  0  0  0  0  0  0  0  0
   36.9470   32.3400   40.3580 N   0  0  0  0  0  0  0  0  0  0  0  0
   36.6150   31.1010   40.7580 C   0  0  0  0  0  0  0  0  0  0  0  0
   35.4610   30.6340   40.5280 O   0  0  0  0  0  0  0  0  0  0  0  0
   36.2290   32.9130   39.8500 H   0  0  0  0  0  0  0  0  0  0  0  0
   38.1030   28.6230   43.2810 S   0  0  0  0  0  0  0  0  0  0  0  0
   37.9780   25.9580   42.4920 C   0  0  0  0  0  0  0  0  0  0  0  0
   38.7330   26.9510   43.1440 C   0  0  0  0  0  0  0  0  0  0  0  0
   39.9690   26.6320   43.6790 C   0  0  0  0  0  0  0  0  0  0  0  0
   40.4040   25.3440   43.5480 N   0  0  0  0  0  0  0  0  0  0  0  0
   39.6570   24.4240   42.9200 C   0  0  0  0  0  0  0  0  0  0  0  0
   38.4690   24.6950   42.3940 N   0  0  0  0  0  0  0  0  0  0  0  0
   37.0260   26.2690   42.0970 H   0  0  0  0  0  0  0  0  0  0  0  0
   40.5960   27.3710   44.1970 H   0  0  0  0  0  0  0  0  0  0  0  0
   39.9480   23.3870   42.7840 H   0  0  0  0  0  0  0  0  0  0  0  0
  1  3  1  0  0  0  0
  1 14  1  0  0  0  0
  2  1  1  0  0  0  0
  4  5  1  0  0  0  0
  4  1  1  0  0  0  0
  6  7  1  0  0  0  0
  6  5  2  0  0  0  0
  8  6  1  0  0  0  0
  9  8  2  0  0  0  0
 10  8  1  0  0  0  0
 10 11  1  0  0  0  0
 11  4  1  0  0  0  0
 12 11  2  0  0  0  0
 13 10  1  0  0  0  0
 15 16  1  0  0  0  0
 16 14  1  0  0  0  0
 16 17  2  0  0  0  0
 17 22  1  0  0  0  0
 18 17  1  0  0  0  0
 19 18  2  0  0  0  0
 20 15  2  0  0  0  0
 20 19  1  0  0  0  0
 21 15  1  0  0  0  0
 23 19  1  0  0  0  0
M  END
>  <minimizedAffinity>
-4.58265686

$$$$

 OpenBabel03252503003D

 23 24  0  0  0  0  0  0  0  0999 V2000
   38.7620   27.1170   43.2510 C   0  0  0  0  0  0  0  0  0  0  0  0
   39.5820   27.6510   42.7130 H   0  0  0  0  0  0  0  0  0  0  0  0
   39.0950   26.8760   44.2850 H   0  0  0  0  0  0  0  0  0  0  0  0
   38.3750   25.9040   42.5150 N   0  0  0  0  0  0  0  0  0  0  0  0
   37.2640   25.9420   41.7700 C   0  0  0  0  0  3  0  0  0  0  0  0
   36.9790   24.7480   41.1110 C   0  0  0  0  0  0  0  0  0  0  0  0
   36.0840   24.6780   40.4720 H   0  0  0  0  0  0  0  0  0  0  0  0
   37.8090   23.6300   41.2430 C   0  0  0  0  0  0  0  0  0  0  0  0
   37.5740   22.5450   40.6610 O   0  0  0  0  0  0  0  0  0  0  0  0
   38.9070   23.7040   42.0230 N   0  0  0  0  0  0  0  0  0  0  0  0
   39.2040   24.8440   42.6690 C   0  0  0  0  0  0  0  0  0  0  0  0
   40.2320   24.9240   43.4030 O   0  0  0  0  0  0  0  0  0  0  0  0
   39.5470   22.8800   42.1400 H   0  0  0  0  0  0  0  0  0  0  0  0
   37.2860   28.1650   43.2520 S   0  0  0  0  0  0  0  0  0  0  0  0
   36.5230   30.1660   41.4780 C   0  0  0  0  0  0  0  0  0  0  0  0
   37.5720   29.6110   42.2340 C   0  0  0  0  0  0  0  0  0  0  0  0
   38.8300   30.1880   42.1910 C   0  0  0  0  0  0  0  0  0  0  0  0
   38.9940   31.2890   41.3990 N   0  0  0  0  0  0  0  0  0  0  0  0
   37.9720   31.7910   40.6920 C   0  0  0  0  0  0  0  0  0  0  0  0
   36.7540   31.2640   40.7110 N   0  0  0  0  0  0  0  0  0  0  0  0
   35.5690   29.6720   41.5540 H   0  0  0  0  0  0  0  0  0  0  0  0
   39.6800   29.7930   42.7620 H   0  0  0  0  0  0  0  0  0  0  0  0
   38.0410   32.6620   40.0470 H   0  0  0  0  0  0  0  0  0  0  0  0
  1 14  1  0  0  0  0
  1  3  1  0  0  0  0
  2  1  1  0  0  0  0
  4 11  1  0  0  0  0
  4  1  1  0  0  0  0
  5  4  1  0  0  0  0
  6  8  1  0  0  0  0
  6  5  2  0  0  0  0
  7  6  1  0  0  0  0
  8 10  1  0  0  0  0
  9  8  2  0  0  0  0
 10 13  1  0  0  0  0
 10 11  1  0  0  0  0
 11 12  2  0  0  0  0
 15 21  1  0  0  0  0
 15 16  1  0  0  0  0
 16 14  1  0  0  0  0
 17 16  2  0  0  0  0
 17 22  1  0  0  0  0
 18 17  1  0  0  0  0
 19 20  1  0  0  0  0
 19 18  2  0  0  0  0
 20 15  2  0  0  0  0
 23 19  1  0  0  0  0
M  END
>  <minimizedAffinity>
-4.43137884

$$$$

 OpenBabel03252503003D

 23 24  0  0  0  0  0  0  0  0999 V2000
   37.3730   31.3450   39.4030 C   0  0  0  0  0  0  0  0  0  0  0  0
   36.5290   31.6690   38.7470 H   0  0  0  0  0  0  0  0  0  0  0  0
   37.2280   31.7630   40.4230 H   0  0  0  0  0  0  0  0  0  0  0  0
   38.6580   31.7690   38.8260 N   0  0  0  0  0  0  0  0  0  0  0  0
   39.6850   31.9830   39.6560 C   0  0  0  0  0  3  0  0  0  0  0  0
   40.8590   32.3820   39.0210 C   0  0  0  0  0  0  0  0  0  0  0  0
   41.7620   32.5820   39.6190 H   0  0  0  0  0  0  0  0  0  0  0  0
   40.9160   32.5320   37.6310 C   0  0  0  0  0  0  0  0  0  0  0  0
   41.9600   32.8890   37.0350 O   0  0  0  0  0  0  0  0  0  0  0  0
   39.8160   32.2890   36.8880 N   0  0  0  0  0  0  0  0  0  0  0  0
   38.6730   31.9040   37.4790 C   0  0  0  0  0  0  0  0  0  0  0  0
   37.6350   31.6720   36.7910 O   0  0  0  0  0  0  0  0  0  0  0  0
   39.8310   32.3950   35.8440 H   0  0  0  0  0  0  0  0  0  0  0  0
   37.4340   29.5360   39.4250 S   0  0  0  0  0  0  0  0  0  0  0  0
   38.1280   29.6250   42.1170 C   0  0  0  0  0  0  0  0  0  0  0  0
   37.3990   28.9520   41.1180 C   0  0  0  0  0  0  0  0  0  0  0  0
   36.6520   27.8350   41.4500 C   0  0  0  0  0  0  0  0  0  0  0  0
   36.6600   27.4320   42.7540 N   0  0  0  0  0  0  0  0  0  0  0  0
   37.3660   28.0980   43.6800 C   0  0  0  0  0  0  0  0  0  0  0  0
   38.0930   29.1720   43.3980 N   0  0  0  0  0  0  0  0  0  0  0  0
   38.6890   30.4870   41.7970 H   0  0  0  0  0  0  0  0  0  0  0  0
   36.0670   27.2760   40.7070 H   0  0  0  0  0  0  0  0  0  0  0  0
   37.4110   27.8260   44.7300 H   0  0  0  0  0  0  0  0  0  0  0  0
  1 14  1  0  0  0  0
  1  3  1  0  0  0  0
  2  1  1  0  0  0  0
  4  1  1  0  0  0  0
  4  5  1  0  0  0  0
  6  7  1  0  0  0  0
  6  5  2  0  0  0  0
  8  6  1  0  0  0  0
  9  8  2  0  0  0  0
 10 11  1  0  0  0  0
 10  8  1  0  0  0  0
 11  4  1  0  0  0  0
 12 11  2  0  0  0  0
 13 10  1  0  0  0  0
 14 16  1  0  0  0  0
 15 20  1  0  0  0  0
 16 17  1  0  0  0  0
 16 15  2  0  0  0  0
 17 18  2  0  0  0  0
 18 19  1  0  0  0  0
 19 23  1  0  0  0  0
 20 19  2  0  0  0  0
 21 15  1  0  0  0  0
 22 17  1  0  0  0  0
M  END
>  <minimizedAffinity>
-4.41024351

$$$$

 OpenBabel03252503003D

 23 24  0  0  0  0  0  0  0  0999 V2000
   38.8260   29.6190   42.8260 C   0  0  0  0  0  0  0  0  0  0  0  0
   38.9610   30.1420   43.8030 H   0  0  0  0  0  0  0  0  0  0  0  0
   39.8020   29.2030   42.4920 H   0  0  0  0  0  0  0  0  0  0  0  0
   38.2670   30.5430   41.8270 N   0  0  0  0  0  0  0  0  0  0  0  0
   37.0120   30.3420   41.4100 C   0  0  0  0  0  3  0  0  0  0  0  0
   36.5700   31.2650   40.4650 C   0  0  0  0  0  0  0  0  0  0  0  0
   35.5490   31.1840   40.0590 H   0  0  0  0  0  0  0  0  0  0  0  0
   37.4000   32.2990   40.0170 C   0  0  0  0  0  0  0  0  0  0  0  0
   37.0260   33.1420   39.1680 O   0  0  0  0  0  0  0  0  0  0  0  0
   38.6530   32.4070   40.5070 N   0  0  0  0  0  0  0  0  0  0  0  0
   39.1010   31.5290   41.4190 C   0  0  0  0  0  0  0  0  0  0  0  0
   40.2740   31.6220   41.8850 O   0  0  0  0  0  0  0  0  0  0  0  0
   39.2960   33.1730   40.1880 H   0  0  0  0  0  0  0  0  0  0  0  0
   37.5800   28.3220   43.0250 S   0  0  0  0  0  0  0  0  0  0  0  0
   39.5690   26.4920   43.6800 C   0  0  0  0  0  0  0  0  0  0  0  0
   38.3700   26.7150   42.9780 C   0  0  0  0  0  0  0  0  0  0  0  0
   37.8000   25.6850   42.2490 C   0  0  0  0  0  0  0  0  0  0  0  0
   38.4420   24.4800   42.2460 N   0  0  0  0  0  0  0  0  0  0  0  0
   39.5830   24.3030   42.9270 C   0  0  0  0  0  0  0  0  0  0  0  0
   40.1570   25.2670   43.6360 N   0  0  0  0  0  0  0  0  0  0  0  0
   39.9620   27.3310   44.2280 H   0  0  0  0  0  0  0  0  0  0  0  0
   36.8650   25.8090   41.6850 H   0  0  0  0  0  0  0  0  0  0  0  0
   40.1380   23.3700   42.9620 H   0  0  0  0  0  0  0  0  0  0  0  0
  1 14  1  0  0  0  0
  1  2  1  0  0  0  0
  3  1  1  0  0  0  0
  4  1  1  0  0  0  0
  5  4  1  0  0  0  0
  6  5  2  0  0  0  0
  7  6  1  0  0  0  0
  8  6  1  0  0  0  0
  8 10  1  0  0  0  0
  9  8  2  0  0  0  0
 10 11  1  0  0  0  0
 11  4  1  0  0  0  0
 11 12  2  0  0  0  0
 13 10  1  0  0  0  0
 15 21  1  0  0  0  0
 16 14  1  0  0  0  0
 16 15  2  0  0  0  0
 17 16  1  0  0  0  0
 18 17  2  0  0  0  0
 18 19  1  0  0  0  0
 19 23  1  0  0  0  0
 19 20  2  0  0  0  0
 20 15  1  0  0  0  0
 22 17  1  0  0  0  0
M  END
>  <minimizedAffinity>
-4.35974836

$$$$

 OpenBabel03252503003D

 23 24  0  0  0  0  0  0  0  0999 V2000
   37.1580   31.4330   40.0020 C   0  0  0  0  0  0  0  0  0  0  0  0
   37.4160   32.4280   40.4400 H   0  0  0  0  0  0  0  0  0  0  0  0
   36.1390   31.4790   39.5580 H   0  0  0  0  0  0  0  0  0  0  0  0
   37.2500   30.3850   41.0290 N   0  0  0  0  0  0  0  0  0  0  0  0
   38.3430   30.3460   41.8000 C   0  0  0  0  0  3  0  0  0  0  0  0
   38.3410   29.3210   42.7420 C   0  0  0  0  0  0  0  0  0  0  0  0
   39.1980   29.2050   43.4250 H   0  0  0  0  0  0  0  0  0  0  0  0
   37.2680   28.4280   42.8410 C   0  0  0  0  0  0  0  0  0  0  0  0
   37.2420   27.4970   43.6800 O   0  0  0  0  0  0  0  0  0  0  0  0
   36.2130   28.5600   42.0090 N   0  0  0  0  0  0  0  0  0  0  0  0
   36.1920   29.5410   41.0920 C   0  0  0  0  0  0  0  0  0  0  0  0
   35.2080   29.6730   40.3080 O   0  0  0  0  0  0  0  0  0  0  0  0
   35.3950   27.9040   42.0620 H   0  0  0  0  0  0  0  0  0  0  0  0
   38.4060   30.9990   38.7650 S   0  0  0  0  0  0  0  0  0  0  0  0
   40.6120   32.2900   37.6690 C   0  0  0  0  0  0  0  0  0  0  0  0
   39.6740   32.2640   38.7180 C   0  0  0  0  0  0  0  0  0  0  0  0
   39.7340   33.2200   39.7170 C   0  0  0  0  0  0  0  0  0  0  0  0
   40.7210   34.1610   39.6340 N   0  0  0  0  0  0  0  0  0  0  0  0
   41.5970   34.1560   38.6190 C   0  0  0  0  0  0  0  0  0  0  0  0
   41.5690   33.2550   37.6460 N   0  0  0  0  0  0  0  0  0  0  0  0
   40.5130   31.5200   36.9230 H   0  0  0  0  0  0  0  0  0  0  0  0
   39.0260   33.2420   40.5560 H   0  0  0  0  0  0  0  0  0  0  0  0
   42.4020   34.8770   38.5000 H   0  0  0  0  0  0  0  0  0  0  0  0
  1  2  1  0  0  0  0
  1  4  1  0  0  0  0
  3  1  1  0  0  0  0
  4 11  1  0  0  0  0
  4  5  1  0  0  0  0
  5  6  2  0  0  0  0
  6  8  1  0  0  0  0
  6  7  1  0  0  0  0
  8  9  2  0  0  0  0
 10 13  1  0  0  0  0
 10  8  1  0  0  0  0
 11 10  1  0  0  0  0
 12 11  2  0  0  0  0
 14  1  1  0  0  0  0
 15 16  1  0  0  0  0
 16 14  1  0  0  0  0
 16 17  2  0  0  0  0
 17 22  1  0  0  0  0
 18 17  1  0  0  0  0
 19 18  2  0  0  0  0
 20 15  2  0  0  0  0
 20 19  1  0  0  0  0
 21 15  1  0  0  0  0
 23 19  1  0  0  0  0
M  END
>  <minimizedAffinity>
-4.27690887

$$$$

 OpenBabel03252503003D

 23 24  0  0  0  0  0  0  0  0999 V2000
   36.1820   29.0470   38.9720 C   0  0  0  0  0  0  0  0  0  0  0  0
   35.7460   28.8860   37.9560 H   0  0  0  0  0  0  0  0  0  0  0  0
   35.4260   28.7820   39.7440 H   0  0  0  0  0  0  0  0  0  0  0  0
   36.6320   30.4390   39.1180 N   0  0  0  0  0  0  0  0  0  0  0  0
   37.2870   31.0040   38.0970 C   0  0  0  0  0  3  0  0  0  0  0  0
   37.6740   32.3230   38.3260 C   0  0  0  0  0  0  0  0  0  0  0  0
   38.2190   32.8750   37.5450 H   0  0  0  0  0  0  0  0  0  0  0  0
   37.3820   32.9640   39.5350 C   0  0  0  0  0  0  0  0  0  0  0  0
   37.7190   34.1490   39.7670 O   0  0  0  0  0  0  0  0  0  0  0  0
   36.7150   32.2970   40.5000 N   0  0  0  0  0  0  0  0  0  0  0  0
   36.3310   31.0250   40.3010 C   0  0  0  0  0  0  0  0  0  0  0  0
   35.7040   30.3910   41.1990 O   0  0  0  0  0  0  0  0  0  0  0  0
   36.4830   32.7540   41.4160 H   0  0  0  0  0  0  0  0  0  0  0  0
   37.6790   28.0430   39.1300 S   0  0  0  0  0  0  0  0  0  0  0  0
   37.3820   26.8990   41.6480 C   0  0  0  0  0  0  0  0  0  0  0  0
   38.0840   27.8330   40.8620 C   0  0  0  0  0  0  0  0  0  0  0  0
   39.0930   28.5890   41.4340 C   0  0  0  0  0  0  0  0  0  0  0  0
   39.3620   28.3900   42.7580 N   0  0  0  0  0  0  0  0  0  0  0  0
   38.6720   27.4910   43.4760 C   0  0  0  0  0  0  0  0  0  0  0  0
   37.6990   26.7490   42.9600 N   0  0  0  0  0  0  0  0  0  0  0  0
   36.6090   26.3410   41.1450 H   0  0  0  0  0  0  0  0  0  0  0  0
   39.6700   29.3300   40.8640 H   0  0  0  0  0  0  0  0  0  0  0  0
   38.8390   27.2880   44.5290 H   0  0  0  0  0  0  0  0  0  0  0  0
  1  4  1  0  0  0  0
  1 14  1  0  0  0  0
  1  3  1  0  0  0  0
  2  1  1  0  0  0  0
  4 11  1  0  0  0  0
  5  6  2  0  0  0  0
  5  4  1  0  0  0  0
  6  8  1  0  0  0  0
  7  6  1  0  0  0  0
  8  9  2  0  0  0  0
  8 10  1  0  0  0  0
 10 13  1  0  0  0  0
 11 10  1  0  0  0  0
 11 12  2  0  0  0  0
 14 16  1  0  0  0  0
 15 20  1  0  0  0  0
 16 17  1  0  0  0  0
 16 15  2  0  0  0  0
 17 18  2  0  0  0  0
 18 19  1  0  0  0  0
 19 23  1  0  0  0  0
 20 19  2  0  0  0  0
 21 15  1  0  0  0  0
 22 17  1  0  0  0  0
M  END
>  <minimizedAffinity>
-4.22619772

$$$$

 OpenBabel03252503003D

 23 24  0  0  0  0  0  0  0  0999 V2000
   38.1820   29.2710   43.2450 C   0  0  0  0  0  0  0  0  0  0  0  0
   38.4140   29.4680   44.3190 H   0  0  0  0  0  0  0  0  0  0  0  0
   37.1640   29.6550   43.0110 H   0  0  0  0  0  0  0  0  0  0  0  0
   38.2910   27.8330   42.9560 N   0  0  0  0  0  0  0  0  0  0  0  0
   39.3710   27.1780   43.3980 C   0  0  0  0  0  3  0  0  0  0  0  0
   39.3870   25.8220   43.0770 C   0  0  0  0  0  0  0  0  0  0  0  0
   40.2350   25.1960   43.3970 H   0  0  0  0  0  0  0  0  0  0  0  0
   38.3430   25.2360   42.3530 C   0  0  0  0  0  0  0  0  0  0  0  0
   38.3340   24.0190   42.0520 O   0  0  0  0  0  0  0  0  0  0  0  0
   37.3000   25.9930   41.9560 N   0  0  0  0  0  0  0  0  0  0  0  0
   37.2620   27.3030   42.2530 C   0  0  0  0  0  0  0  0  0  0  0  0
   36.2880   28.0220   41.8860 O   0  0  0  0  0  0  0  0  0  0  0  0
   36.5040   25.5790   41.4110 H   0  0  0  0  0  0  0  0  0  0  0  0
   39.4460   30.0600   42.2190 S   0  0  0  0  0  0  0  0  0  0  0  0
   37.4570   31.1210   40.5900 C   0  0  0  0  0  0  0  0  0  0  0  0
   38.6970   31.3440   41.2190 C   0  0  0  0  0  0  0  0  0  0  0  0
   39.3370   32.5610   41.0620 C   0  0  0  0  0  0  0  0  0  0  0  0
   38.7230   33.5050   40.2900 N   0  0  0  0  0  0  0  0  0  0  0  0
   37.5410   33.2580   39.7060 C   0  0  0  0  0  0  0  0  0  0  0  0
   36.9000   32.1030   39.8350 N   0  0  0  0  0  0  0  0  0  0  0  0
   37.0100   30.1550   40.7500 H   0  0  0  0  0  0  0  0  0  0  0  0
   40.3040   32.7830   41.5320 H   0  0  0  0  0  0  0  0  0  0  0  0
   37.0050   33.9670   39.0820 H   0  0  0  0  0  0  0  0  0  0  0  0
  1  2  1  0  0  0  0
  3  1  1  0  0  0  0
  4  1  1  0  0  0  0
  4  5  1  0  0  0  0
  6  7  1  0  0  0  0
  6  5  2  0  0  0  0
  8  6  1  0  0  0  0
  9  8  2  0  0  0  0
 10 11  1  0  0  0  0
 10  8  1  0  0  0  0
 11  4  1  0  0  0  0
 12 11  2  0  0  0  0
 13 10  1  0  0  0  0
 14  1  1  0  0  0  0
 15 21  1  0  0  0  0
 15 16  1  0  0  0  0
 16 14  1  0  0  0  0
 17 16  2  0  0  0  0
 17 22  1  0  0  0  0
 18 17  1  0  0  0  0
 19 20  1  0  0  0  0
 19 18  2  0  0  0  0
 20 15  2  0  0  0  0
 23 19  1  0  0  0  0
M  END
>  <minimizedAffinity>
-4.20201731

$$$$

 OpenBabel03252503003D

 23 24  0  0  0  0  0  0  0  0999 V2000
   36.8680   30.7600   39.3580 C   0  0  0  0  0  0  0  0  0  0  0  0
   37.2240   29.7760   38.9690 H   0  0  0  0  0  0  0  0  0  0  0  0
   36.0640   31.1500   38.6950 H   0  0  0  0  0  0  0  0  0  0  0  0
   37.9900   31.7060   39.4540 N   0  0  0  0  0  0  0  0  0  0  0  0
   38.1650   32.3670   40.6050 C   0  0  0  0  0  3  0  0  0  0  0  0
   39.2500   33.2400   40.6020 C   0  0  0  0  0  0  0  0  0  0  0  0
   39.4780   33.8300   41.5030 H   0  0  0  0  0  0  0  0  0  0  0  0
   40.0630   33.3830   39.4720 C   0  0  0  0  0  0  0  0  0  0  0  0
   41.0460   34.1610   39.4440 O   0  0  0  0  0  0  0  0  0  0  0  0
   39.7940   32.6650   38.3620 N   0  0  0  0  0  0  0  0  0  0  0  0
   38.7520   31.8170   38.3410 C   0  0  0  0  0  0  0  0  0  0  0  0
   38.4910   31.1380   37.3050 O   0  0  0  0  0  0  0  0  0  0  0  0
   40.3870   32.7530   37.5000 H   0  0  0  0  0  0  0  0  0  0  0  0
   36.2840   30.5390   41.0560 S   0  0  0  0  0  0  0  0  0  0  0  0
   37.6390   29.0170   42.9490 C   0  0  0  0  0  0  0  0  0  0  0  0
   36.9410   29.0130   41.7270 C   0  0  0  0  0  0  0  0  0  0  0  0
   36.7620   27.8230   41.0420 C   0  0  0  0  0  0  0  0  0  0  0  0
   37.2830   26.6890   41.5970 N   0  0  0  0  0  0  0  0  0  0  0  0
   37.9420   26.7300   42.7640 C   0  0  0  0  0  0  0  0  0  0  0  0
   38.1320   27.8520   43.4460 N   0  0  0  0  0  0  0  0  0  0  0  0
   37.7450   29.9730   43.4330 H   0  0  0  0  0  0  0  0  0  0  0  0
   36.2250   27.7680   40.0860 H   0  0  0  0  0  0  0  0  0  0  0  0
   38.3780   25.8630   43.2530 H   0  0  0  0  0  0  0  0  0  0  0  0
  1  4  1  0  0  0  0
  1 14  1  0  0  0  0
  2  1  1  0  0  0  0
  3  1  1  0  0  0  0
  4  5  1  0  0  0  0
  6  5  2  0  0  0  0
  6  7  1  0  0  0  0
  8  6  1  0  0  0  0
  9  8  2  0  0  0  0
 10  8  1  0  0  0  0
 11 10  1  0  0  0  0
 11  4  1  0  0  0  0
 12 11  2  0  0  0  0
 13 10  1  0  0  0  0
 14 16  1  0  0  0  0
 15 21  1  0  0  0  0
 15 20  1  0  0  0  0
 16 15  2  0  0  0  0
 17 18  2  0  0  0  0
 17 16  1  0  0  0  0
 18 19  1  0  0  0  0
 19 23  1  0  0  0  0
 19 20  2  0  0  0  0
 22 17  1  0  0  0  0
M  END
>  <minimizedAffinity>
-4.17783642

$$$$

 OpenBabel03252503003D

 23 24  0  0  0  0  0  0  0  0999 V2000
   37.3720   31.2100   39.6150 C   0  0  0  0  0  0  0  0  0  0  0  0
   37.2550   32.3200   39.5580 H   0  0  0  0  0  0  0  0  0  0  0  0
   38.4330   30.9630   39.8430 H   0  0  0  0  0  0  0  0  0  0  0  0
   36.9350   30.5880   38.3560 N   0  0  0  0  0  0  0  0  0  0  0  0
   35.9040   29.7350   38.3960 C   0  0  0  0  0  3  0  0  0  0  0  0
   35.5620   29.1960   37.1580 C   0  0  0  0  0  0  0  0  0  0  0  0
   34.7260   28.4830   37.0860 H   0  0  0  0  0  0  0  0  0  0  0  0
   36.2630   29.5420   35.9970 C   0  0  0  0  0  0  0  0  0  0  0  0
   35.9750   29.0710   34.8720 O   0  0  0  0  0  0  0  0  0  0  0  0
   37.2890   30.4140   36.0730 N   0  0  0  0  0  0  0  0  0  0  0  0
   37.6380   30.9480   37.2560 C   0  0  0  0  0  0  0  0  0  0  0  0
   38.5990   31.7670   37.3380 O   0  0  0  0  0  0  0  0  0  0  0  0
   37.8320   30.6910   35.2180 H   0  0  0  0  0  0  0  0  0  0  0  0
   36.2500   30.5680   40.8800 S   0  0  0  0  0  0  0  0  0  0  0  0
   36.5320   28.0480   42.0230 C   0  0  0  0  0  0  0  0  0  0  0  0
   37.0930   29.3290   41.8620 C   0  0  0  0  0  0  0  0  0  0  0  0
   38.3020   29.6300   42.4650 C   0  0  0  0  0  0  0  0  0  0  0  0
   38.9030   28.6500   43.2020 N   0  0  0  0  0  0  0  0  0  0  0  0
   38.3390   27.4400   43.3340 C   0  0  0  0  0  0  0  0  0  0  0  0
   37.1820   27.1180   42.7700 N   0  0  0  0  0  0  0  0  0  0  0  0
   35.5900   27.8760   41.5290 H   0  0  0  0  0  0  0  0  0  0  0  0
   38.7800   30.6140   42.3690 H   0  0  0  0  0  0  0  0  0  0  0  0
   38.7680   26.6230   43.9070 H   0  0  0  0  0  0  0  0  0  0  0  0
  1  3  1  0  0  0  0
  1 14  1  0  0  0  0
  2  1  1  0  0  0  0
  4  5  1  0  0  0  0
  4  1  1  0  0  0  0
  6  5  2  0  0  0  0
  7  6  1  0  0  0  0
  8 10  1  0  0  0  0
  8  6  1  0  0  0  0
  9  8  2  0  0  0  0
 10 11  1  0  0  0  0
 11 12  2  0  0  0  0
 11  4  1  0  0  0  0
 13 10  1  0  0  0  0
 14 16  1  0  0  0  0
 15 20  1  0  0  0  0
 16 15  2  0  0  0  0
 16 17  1  0  0  0  0
 17 18  2  0  0  0  0
 18 19  1  0  0  0  0
 19 23  1  0  0  0  0
 20 19  2  0  0  0  0
 21 15  1  0  0  0  0
 22 17  1  0  0  0  0
M  END
>  <minimizedAffinity>
-4.16410351

$$$$
