
 OpenBabel03252507073D

 25 26  0  0  0  0  0  0  0  0999 V2000
   44.5780   35.6940   44.4510 C   0  0  0  0  0  0  0  0  0  0  0  0
   45.2990   35.8430   43.2350 C   0  0  0  0  0  0  0  0  0  0  0  0
   46.2810   34.9030   42.9510 C   0  0  0  0  0  0  0  0  0  0  0  0
   46.5070   33.8890   43.8450 N   0  0  0  0  0  0  0  0  0  0  0  0
   45.7960   33.7840   44.9940 C   0  0  0  0  0  0  0  0  0  0  0  0
   44.8370   34.6820   45.2940 N   0  0  0  0  0  0  0  0  0  0  0  0
   43.8110   36.4040   44.7020 H   0  0  0  0  0  0  0  0  0  0  0  0
   45.0450   36.6840   42.5900 H   0  0  0  0  0  0  0  0  0  0  0  0
   46.2210   32.6510   45.7430 N   0  0  0  0  0  0  0  0  0  0  0  0
   47.1270   32.8670   46.7180 C   0  0  0  0  0  3  0  0  0  0  0  0
   47.5530   31.7610   47.4630 C   0  0  0  0  0  0  0  0  0  0  0  0
   48.2750   31.9170   48.2440 H   0  0  0  0  0  0  0  0  0  0  0  0
   47.0210   30.5270   47.1530 C   0  0  0  0  0  0  0  0  0  0  0  0
   47.4010   29.5250   47.8200 O   0  0  0  0  0  0  0  0  0  0  0  0
   46.1170   30.3580   46.1690 N   0  0  0  0  0  0  0  0  0  0  0  0
   45.7160   31.4360   45.4590 C   0  0  0  0  0  0  0  0  0  0  0  0
   44.8710   31.2340   44.5500 O   0  0  0  0  0  0  0  0  0  0  0  0
   45.7470   29.3900   45.9800 H   0  0  0  0  0  0  0  0  0  0  0  0
   46.9880   35.0430   41.7660 O   0  0  0  0  0  0  0  0  0  0  0  0
   49.0480   33.5440   41.0300 O   0  0  0  0  0  0  0  0  0  0  0  0
   48.6920   34.8360   41.7720 P   0  0  0  0  0  0  0  0  0  0  0  0
   49.3920   36.1720   41.0640 O   0  0  0  0  0  0  0  0  0  0  0  0
   49.3890   36.0200   40.0840 H   0  0  0  0  0  0  0  0  0  0  0  0
   49.1670   34.6330   43.3880 O   0  0  0  0  0  0  0  0  0  0  0  0
   49.1830   35.5420   43.7870 H   0  0  0  0  0  0  0  0  0  0  0  0
  1  7  1  0  0  0  0
  1  6  1  0  0  0  0
  2  1  2  0  0  0  0
  3  2  1  0  0  0  0
  3  4  2  0  0  0  0
  4  5  1  0  0  0  0
  5  6  2  0  0  0  0
  5  9  1  0  0  0  0
  8  2  1  0  0  0  0
  9 10  1  0  0  0  0
 10 11  2  0  0  0  0
 11 12  1  0  0  0  0
 13 11  1  0  0  0  0
 13 14  2  0  0  0  0
 15 13  1  0  0  0  0
 16  9  1  0  0  0  0
 16 15  1  0  0  0  0
 17 16  2  0  0  0  0
 18 15  1  0  0  0  0
 19 21  1  0  0  0  0
 19  3  1  0  0  0  0
 20 21  2  0  0  0  0
 21 24  1  0  0  0  0
 22 21  1  0  0  0  0
 23 22  1  0  0  0  0
 24 25  1  0  0  0  0
M  END
>  <minimizedAffinity>
-5.08682299

>  <minimizedRMSD>
0.36504519

$$$$
