
 OpenBabel03252507143D

 43 45  0  0  1  0  0  0  0  0999 V2000
   37.3470   30.6700   40.1770 C   0  0  2  0  0  0  0  0  0  0  0  0
   36.6040   30.5350   38.9090 C   0  0  0  0  0  0  0  0  0  0  0  0
   36.3330   29.0980   38.6040 C   0  0  0  0  0  0  0  0  0  0  0  0
   35.4380   28.5180   39.4970 O   0  0  0  0  0  0  0  0  0  0  0  0
   35.4860   29.1410   40.7270 C   0  0  0  0  0  0  0  0  0  0  0  0
   36.9030   29.5360   41.0810 C   0  0  1  0  0  0  0  0  0  0  0  0
   38.4370   30.5400   39.9610 H   0  0  0  0  0  0  0  0  0  0  0  0
   37.0910   31.0350   38.0460 H   0  0  0  0  0  0  0  0  0  0  0  0
   35.5920   31.0310   38.9700 H   0  0  0  0  0  0  0  0  0  0  0  0
   35.7360   29.1290   37.6380 H   0  0  0  0  0  0  0  0  0  0  0  0
   37.1950   28.4820   38.3420 H   0  0  0  0  0  0  0  0  0  0  0  0
   34.9050   30.0970   40.7050 H   0  0  0  0  0  0  0  0  0  0  0  0
   35.0040   28.4960   41.4560 H   0  0  0  0  0  0  0  0  0  0  0  0
   36.7620   30.0270   42.0790 H   0  0  0  0  0  0  0  0  0  0  0  0
   37.7830   28.4710   41.3210 N   0  0  0  0  0  0  0  0  0  0  0  0
   38.4300   27.6560   40.4720 C   0  0  0  0  0  3  0  0  0  0  0  0
   39.2810   26.6310   40.7780 C   0  0  0  0  0  0  0  0  0  0  0  0
   39.7420   26.0450   39.9920 H   0  0  0  0  0  0  0  0  0  0  0  0
   39.5210   26.3840   42.1080 C   0  0  0  0  0  0  0  0  0  0  0  0
   40.2840   25.4690   42.4650 O   0  0  0  0  0  0  0  0  0  0  0  0
   38.8790   27.1940   42.9610 N   0  0  0  0  0  0  0  0  0  0  0  0
   38.0430   28.2000   42.6400 C   0  0  0  0  0  0  0  0  0  0  0  0
   37.5020   28.8890   43.5740 O   0  0  0  0  0  0  0  0  0  0  0  0
   39.0370   27.0360   43.9860 H   0  0  0  0  0  0  0  0  0  0  0  0
   37.2900   31.8640   40.7910 O   0  0  0  0  0  0  0  0  0  0  0  0
   38.5530   34.1450   41.0860 O   0  0  0  0  0  0  0  0  0  0  0  0
   38.0790   33.1430   40.1050 P   0  0  2  0  0  0  0  0  0  0  0  0
   37.0000   33.9440   39.0580 O   0  0  0  0  0  0  0  0  0  0  0  0
   36.2600   34.2820   39.6450 H   0  0  0  0  0  0  0  0  0  0  0  0
   39.3910   32.5890   39.1320 O   0  0  0  0  0  0  0  0  0  0  0  0
   41.2550   32.7460   40.5690 C   0  0  0  0  0  0  0  0  0  0  0  0
   40.6830   33.0240   39.3500 C   0  0  0  0  0  0  0  0  0  0  0  0
   41.4440   33.7350   38.3860 C   0  0  0  0  0  0  0  0  0  0  0  0
   42.6970   34.0980   38.7350 N   0  0  0  0  0  0  0  0  0  0  0  0
   43.2120   33.8130   39.9170 C   0  0  0  0  0  0  0  0  0  0  0  0
   42.4780   33.1330   40.8330 N   0  0  0  0  0  0  0  0  0  0  0  0
   40.7790   30.6500   41.8280 C   0  0  0  0  0  0  0  0  0  0  0  0
   40.8820   29.9010   40.7850 O   0  0  0  0  0  0  0  0  0  0  0  0
   40.9460   32.1090   41.8000 N   0  0  0  0  0  0  0  0  0  0  0  0
   40.9130   33.9020   37.4710 H   0  0  0  0  0  0  0  0  0  0  0  0
   44.2150   34.1290   40.1340 H   0  0  0  0  0  0  0  0  0  0  0  0
   40.5540   30.0880   42.7250 H   0  0  0  0  0  0  0  0  0  0  0  0
   40.8100   32.5310   42.7240 H   0  0  0  0  0  0  0  0  0  0  0  0
  1  7  1  6  0  0  0
  1 25  1  0  0  0  0
  1  6  1  0  0  0  0
  2  9  1  0  0  0  0
  2  1  1  0  0  0  0
  3  2  1  0  0  0  0
  3  4  1  0  0  0  0
  4  5  1  0  0  0  0
  5  6  1  0  0  0  0
  5 13  1  0  0  0  0
  6 15  1  0  0  0  0
  6 14  1  1  0  0  0
  8  2  1  0  0  0  0
 10  3  1  0  0  0  0
 11  3  1  0  0  0  0
 12  5  1  0  0  0  0
 15 22  1  0  0  0  0
 16 17  2  0  0  0  0
 16 15  1  0  0  0  0
 17 19  1  0  0  0  0
 18 17  1  0  0  0  0
 19 20  2  0  0  0  0
 19 21  1  0  0  0  0
 21 24  1  0  0  0  0
 22 21  1  0  0  0  0
 22 23  2  0  0  0  0
 27 25  1  0  0  0  0
 27 26  2  1  0  0  0
 28 29  1  0  0  0  0
 28 27  1  0  0  0  0
 30 32  1  0  0  0  0
 30 27  1  0  0  0  0
 31 36  1  0  0  0  0
 31 39  1  0  0  0  0
 32 31  2  0  0  0  0
 33 34  2  0  0  0  0
 33 32  1  0  0  0  0
 34 35  1  0  0  0  0
 35 41  1  0  0  0  0
 35 36  2  0  0  0  0
 37 42  1  0  0  0  0
 38 37  2  0  0  0  0
 39 37  1  0  0  0  0
 39 43  1  0  0  0  0
 40 33  1  0  0  0  0
M  END
>  <minimizedAffinity>
-5.8802104

$$$$

 OpenBabel03252507143D

 43 45  0  0  1  0  0  0  0  0999 V2000
   38.2050   31.0720   39.2870 C   0  0  2  0  0  0  0  0  0  0  0  0
   36.9360   31.0780   38.5320 C   0  0  0  0  0  0  0  0  0  0  0  0
   36.0650   29.9410   38.9520 C   0  0  0  0  0  0  0  0  0  0  0  0
   35.5980   30.0720   40.2560 O   0  0  0  0  0  0  0  0  0  0  0  0
   36.4690   30.8170   41.0250 C   0  0  0  0  0  0  0  0  0  0  0  0
   37.9070   30.5130   40.6640 C   0  0  1  0  0  0  0  0  0  0  0  0
   38.9150   30.3760   38.7720 H   0  0  0  0  0  0  0  0  0  0  0  0
   37.0670   31.0880   37.4300 H   0  0  0  0  0  0  0  0  0  0  0  0
   36.3390   32.0140   38.7400 H   0  0  0  0  0  0  0  0  0  0  0  0
   35.1200   30.0740   38.3350 H   0  0  0  0  0  0  0  0  0  0  0  0
   36.4000   28.9390   38.6760 H   0  0  0  0  0  0  0  0  0  0  0  0
   36.3330   31.9090   40.8240 H   0  0  0  0  0  0  0  0  0  0  0  0
   36.2240   30.6550   42.0710 H   0  0  0  0  0  0  0  0  0  0  0  0
   38.4660   31.1950   41.3580 H   0  0  0  0  0  0  0  0  0  0  0  0
   38.3490   29.2220   40.9870 N   0  0  0  0  0  0  0  0  0  0  0  0
   38.3980   28.1000   40.2530 C   0  0  0  0  0  3  0  0  0  0  0  0
   38.8470   26.8660   40.6350 C   0  0  0  0  0  0  0  0  0  0  0  0
   38.8320   26.0360   39.9400 H   0  0  0  0  0  0  0  0  0  0  0  0
   39.3100   26.7320   41.9210 C   0  0  0  0  0  0  0  0  0  0  0  0
   39.7360   25.6430   42.3420 O   0  0  0  0  0  0  0  0  0  0  0  0
   39.2650   27.8500   42.6600 N   0  0  0  0  0  0  0  0  0  0  0  0
   38.8190   29.0570   42.2660 C   0  0  0  0  0  0  0  0  0  0  0  0
   38.8390   30.0350   43.0920 O   0  0  0  0  0  0  0  0  0  0  0  0
   39.6110   27.7870   43.6480 H   0  0  0  0  0  0  0  0  0  0  0  0
   38.8860   32.2290   39.3410 O   0  0  0  0  0  0  0  0  0  0  0  0
   40.9400   33.6820   38.5980 O   0  0  0  0  0  0  0  0  0  0  0  0
   40.2250   32.4030   38.3900 P   0  0  2  0  0  0  0  0  0  0  0  0
   39.7360   32.3660   36.7580 O   0  0  0  0  0  0  0  0  0  0  0  0
   39.1370   33.1610   36.6420 H   0  0  0  0  0  0  0  0  0  0  0  0
   41.3000   31.0730   38.6130 O   0  0  0  0  0  0  0  0  0  0  0  0
   42.9220   31.2530   36.9110 C   0  0  0  0  0  0  0  0  0  0  0  0
   41.9670   30.4980   37.5500 C   0  0  0  0  0  0  0  0  0  0  0  0
   41.7190   29.1790   37.0900 C   0  0  0  0  0  0  0  0  0  0  0  0
   42.4470   28.7460   36.0390 N   0  0  0  0  0  0  0  0  0  0  0  0
   43.3570   29.5010   35.4500 C   0  0  0  0  0  0  0  0  0  0  0  0
   43.5880   30.7610   35.8960 N   0  0  0  0  0  0  0  0  0  0  0  0
   44.3690   32.8850   38.1150 C   0  0  0  0  0  0  0  0  0  0  0  0
   44.6070   32.0810   39.0920 O   0  0  0  0  0  0  0  0  0  0  0  0
   43.5150   32.5420   36.9700 N   0  0  0  0  0  0  0  0  0  0  0  0
   40.9600   28.6730   37.6510 H   0  0  0  0  0  0  0  0  0  0  0  0
   43.9030   29.0980   34.6190 H   0  0  0  0  0  0  0  0  0  0  0  0
   44.8660   33.8400   38.2290 H   0  0  0  0  0  0  0  0  0  0  0  0
   43.4320   33.3160   36.3030 H   0  0  0  0  0  0  0  0  0  0  0  0
  1  7  1  6  0  0  0
  1 25  1  0  0  0  0
  1  6  1  0  0  0  0
  2  9  1  0  0  0  0
  2  3  1  0  0  0  0
  2  1  1  0  0  0  0
  3  4  1  0  0  0  0
  4  5  1  0  0  0  0
  5 13  1  0  0  0  0
  6 15  1  0  0  0  0
  6  5  1  0  0  0  0
  6 14  1  1  0  0  0
  8  2  1  0  0  0  0
 10  3  1  0  0  0  0
 11  3  1  0  0  0  0
 12  5  1  0  0  0  0
 15 22  1  0  0  0  0
 16 17  2  0  0  0  0
 16 15  1  0  0  0  0
 17 19  1  0  0  0  0
 18 17  1  0  0  0  0
 19 20  2  0  0  0  0
 19 21  1  0  0  0  0
 21 24  1  0  0  0  0
 22 21  1  0  0  0  0
 22 23  2  0  0  0  0
 27 26  2  1  0  0  0
 27 30  1  0  0  0  0
 27 25  1  0  0  0  0
 28 27  1  0  0  0  0
 29 28  1  0  0  0  0
 31 39  1  0  0  0  0
 31 32  1  0  0  0  0
 32 30  1  0  0  0  0
 33 32  2  0  0  0  0
 33 40  1  0  0  0  0
 34 33  1  0  0  0  0
 35 36  1  0  0  0  0
 35 34  2  0  0  0  0
 36 31  2  0  0  0  0
 37 42  1  0  0  0  0
 37 38  2  0  0  0  0
 39 37  1  0  0  0  0
 41 35  1  0  0  0  0
 43 39  1  0  0  0  0
M  END
>  <minimizedAffinity>
-5.86698341

$$$$

 OpenBabel03252507143D

 43 45  0  0  1  0  0  0  0  0999 V2000
   38.5900   28.3760   41.9330 C   0  0  2  0  0  0  0  0  0  0  0  0
   38.2690   28.0780   43.3430 C   0  0  0  0  0  0  0  0  0  0  0  0
   36.8650   27.5870   43.4740 C   0  0  0  0  0  0  0  0  0  0  0  0
   36.6740   26.3390   42.8900 O   0  0  0  0  0  0  0  0  0  0  0  0
   37.5640   26.1300   41.8560 C   0  0  0  0  0  0  0  0  0  0  0  0
   37.7990   27.4060   41.0760 C   0  0  1  0  0  0  0  0  0  0  0  0
   38.2370   29.4130   41.7040 H   0  0  0  0  0  0  0  0  0  0  0  0
   38.4570   28.9240   44.0360 H   0  0  0  0  0  0  0  0  0  0  0  0
   38.9220   27.2500   43.7460 H   0  0  0  0  0  0  0  0  0  0  0  0
   36.7530   27.3630   44.5820 H   0  0  0  0  0  0  0  0  0  0  0  0
   36.0720   28.3140   43.2880 H   0  0  0  0  0  0  0  0  0  0  0  0
   38.5660   25.8340   42.2560 H   0  0  0  0  0  0  0  0  0  0  0  0
   37.2040   25.2980   41.2580 H   0  0  0  0  0  0  0  0  0  0  0  0
   38.5370   27.0680   40.3020 H   0  0  0  0  0  0  0  0  0  0  0  0
   36.6980   27.8790   40.3490 N   0  0  0  0  0  0  0  0  0  0  0  0
   35.7120   28.7220   40.6950 C   0  0  0  0  0  3  0  0  0  0  0  0
   34.6620   29.1450   39.9280 C   0  0  0  0  0  0  0  0  0  0  0  0
   33.9280   29.8320   40.3300 H   0  0  0  0  0  0  0  0  0  0  0  0
   34.5840   28.6640   38.6430 C   0  0  0  0  0  0  0  0  0  0  0  0
   33.6590   29.0020   37.8840 O   0  0  0  0  0  0  0  0  0  0  0  0
   35.5660   27.8220   38.2910 N   0  0  0  0  0  0  0  0  0  0  0  0
   36.5930   27.4170   39.0610 C   0  0  0  0  0  0  0  0  0  0  0  0
   37.4570   26.6040   38.5810 O   0  0  0  0  0  0  0  0  0  0  0  0
   35.5400   27.4340   37.3170 H   0  0  0  0  0  0  0  0  0  0  0  0
   39.8910   28.4090   41.5990 O   0  0  0  0  0  0  0  0  0  0  0  0
   40.3430   29.8610   39.4610 O   0  0  0  0  0  0  0  0  0  0  0  0
   40.5010   29.7910   40.9310 P   0  0  2  0  0  0  0  0  0  0  0  0
   42.1720   29.8560   41.2550 O   0  0  0  0  0  0  0  0  0  0  0  0
   42.5640   29.0580   40.7920 H   0  0  0  0  0  0  0  0  0  0  0  0
   39.7990   31.1800   41.6750 O   0  0  0  0  0  0  0  0  0  0  0  0
   39.4330   33.3060   40.7220 C   0  0  0  0  0  0  0  0  0  0  0  0
   38.9730   32.0350   40.9720 C   0  0  0  0  0  0  0  0  0  0  0  0
   37.6870   31.6690   40.5000 C   0  0  0  0  0  0  0  0  0  0  0  0
   36.9880   32.6080   39.8250 N   0  0  0  0  0  0  0  0  0  0  0  0
   37.4640   33.8190   39.6040 C   0  0  0  0  0  0  0  0  0  0  0  0
   38.6950   34.1610   40.0590 N   0  0  0  0  0  0  0  0  0  0  0  0
   41.8350   33.8010   40.2860 C   0  0  0  0  0  0  0  0  0  0  0  0
   41.9840   32.8010   39.4890 O   0  0  0  0  0  0  0  0  0  0  0  0
   40.5710   34.1220   40.9600 N   0  0  0  0  0  0  0  0  0  0  0  0
   37.4190   30.6610   40.7440 H   0  0  0  0  0  0  0  0  0  0  0  0
   36.8590   34.5200   39.0610 H   0  0  0  0  0  0  0  0  0  0  0  0
   42.7430   34.3790   40.4040 H   0  0  0  0  0  0  0  0  0  0  0  0
   40.6530   34.9450   41.5660 H   0  0  0  0  0  0  0  0  0  0  0  0
  1  7  1  6  0  0  0
  1  2  1  0  0  0  0
  2  3  1  0  0  0  0
  2  9  1  0  0  0  0
  2  8  1  0  0  0  0
  3 10  1  0  0  0  0
  4  3  1  0  0  0  0
  5 12  1  0  0  0  0
  5  4  1  0  0  0  0
  6 14  1  6  0  0  0
  6  5  1  0  0  0  0
  6  1  1  0  0  0  0
 11  3  1  0  0  0  0
 13  5  1  0  0  0  0
 15 16  1  0  0  0  0
 15  6  1  0  0  0  0
 17 18  1  0  0  0  0
 17 16  2  0  0  0  0
 19 17  1  0  0  0  0
 20 19  2  0  0  0  0
 21 19  1  0  0  0  0
 21 22  1  0  0  0  0
 22 15  1  0  0  0  0
 23 22  2  0  0  0  0
 24 21  1  0  0  0  0
 25  1  1  0  0  0  0
 27 26  2  6  0  0  0
 27 28  1  0  0  0  0
 27 25  1  0  0  0  0
 27 30  1  0  0  0  0
 29 28  1  0  0  0  0
 31 39  1  0  0  0  0
 31 32  1  0  0  0  0
 32 30  1  0  0  0  0
 33 40  1  0  0  0  0
 33 32  2  0  0  0  0
 34 33  1  0  0  0  0
 35 34  2  0  0  0  0
 35 36  1  0  0  0  0
 36 31  2  0  0  0  0
 37 42  1  0  0  0  0
 37 39  1  0  0  0  0
 38 37  2  0  0  0  0
 39 43  1  0  0  0  0
 41 35  1  0  0  0  0
M  END
>  <minimizedAffinity>
-5.76154852

$$$$

 OpenBabel03252507143D

 43 45  0  0  1  0  0  0  0  0999 V2000
   36.6410   29.2590   37.2760 C   0  0  2  0  0  0  0  0  0  0  0  0
   36.0670   28.3070   36.3050 C   0  0  0  0  0  0  0  0  0  0  0  0
   35.3670   27.1910   37.0090 C   0  0  0  0  0  0  0  0  0  0  0  0
   34.2210   27.6110   37.6770 O   0  0  0  0  0  0  0  0  0  0  0  0
   34.3190   28.9350   38.0510 C   0  0  0  0  0  0  0  0  0  0  0  0
   35.7280   29.2740   38.4860 C   0  0  1  0  0  0  0  0  0  0  0  0
   37.6420   28.8720   37.5970 H   0  0  0  0  0  0  0  0  0  0  0  0
   36.8010   27.9110   35.5730 H   0  0  0  0  0  0  0  0  0  0  0  0
   35.2840   28.8010   35.6590 H   0  0  0  0  0  0  0  0  0  0  0  0
   34.9440   26.5550   36.1670 H   0  0  0  0  0  0  0  0  0  0  0  0
   35.9950   26.4870   37.5590 H   0  0  0  0  0  0  0  0  0  0  0  0
   34.1040   29.6050   37.1800 H   0  0  0  0  0  0  0  0  0  0  0  0
   33.5570   29.1360   38.7990 H   0  0  0  0  0  0  0  0  0  0  0  0
   35.6340   30.3630   38.7380 H   0  0  0  0  0  0  0  0  0  0  0  0
   36.1560   28.6610   39.6720 N   0  0  0  0  0  0  0  0  0  0  0  0
   36.5710   27.4080   39.9140 C   0  0  0  0  0  3  0  0  0  0  0  0
   36.9790   26.8740   41.1050 C   0  0  0  0  0  0  0  0  0  0  0  0
   37.2920   25.8390   41.1660 H   0  0  0  0  0  0  0  0  0  0  0  0
   36.9740   27.7000   42.2030 C   0  0  0  0  0  0  0  0  0  0  0  0
   37.3320   27.2890   43.3200 O   0  0  0  0  0  0  0  0  0  0  0  0
   36.5610   28.9540   41.9680 N   0  0  0  0  0  0  0  0  0  0  0  0
   36.1620   29.4620   40.7870 C   0  0  0  0  0  0  0  0  0  0  0  0
   35.7940   30.6860   40.7200 O   0  0  0  0  0  0  0  0  0  0  0  0
   36.5430   29.6150   42.7820 H   0  0  0  0  0  0  0  0  0  0  0  0
   36.9150   30.4950   36.8260 O   0  0  0  0  0  0  0  0  0  0  0  0
   37.3660   32.4150   38.5570 O   0  0  0  0  0  0  0  0  0  0  0  0
   37.9980   31.4190   37.6630 P   0  0  2  0  0  0  0  0  0  0  0  0
   38.9460   32.2860   36.5440 O   0  0  0  0  0  0  0  0  0  0  0  0
   38.3040   32.8820   36.0570 H   0  0  0  0  0  0  0  0  0  0  0  0
   39.0820   30.4160   38.5550 O   0  0  0  0  0  0  0  0  0  0  0  0
   41.2080   30.8800   39.4640 C   0  0  0  0  0  0  0  0  0  0  0  0
   39.8400   30.9190   39.5940 C   0  0  0  0  0  0  0  0  0  0  0  0
   39.2820   31.4690   40.7760 C   0  0  0  0  0  0  0  0  0  0  0  0
   40.1440   31.9250   41.7100 N   0  0  0  0  0  0  0  0  0  0  0  0
   41.4530   31.8710   41.5500 C   0  0  0  0  0  0  0  0  0  0  0  0
   41.9790   31.3420   40.4160 N   0  0  0  0  0  0  0  0  0  0  0  0
   42.3570   31.1790   37.2750 C   0  0  0  0  0  0  0  0  0  0  0  0
   41.6190   32.1760   36.9280 O   0  0  0  0  0  0  0  0  0  0  0  0
   42.2060   30.4600   38.5460 N   0  0  0  0  0  0  0  0  0  0  0  0
   38.2110   31.4550   40.7820 H   0  0  0  0  0  0  0  0  0  0  0  0
   42.0860   32.2500   42.3300 H   0  0  0  0  0  0  0  0  0  0  0  0
   43.1000   30.9290   36.5270 H   0  0  0  0  0  0  0  0  0  0  0  0
   42.8740   29.6860   38.6340 H   0  0  0  0  0  0  0  0  0  0  0  0
  1  7  1  1  0  0  0
  1  6  1  0  0  0  0
  2  3  1  0  0  0  0
  2  1  1  0  0  0  0
  3 11  1  0  0  0  0
  3  4  1  0  0  0  0
  4  5  1  0  0  0  0
  5  6  1  0  0  0  0
  5 13  1  0  0  0  0
  6 14  1  1  0  0  0
  6 15  1  0  0  0  0
  8  2  1  0  0  0  0
  9  2  1  0  0  0  0
 10  3  1  0  0  0  0
 12  5  1  0  0  0  0
 15 16  1  0  0  0  0
 15 22  1  0  0  0  0
 16 17  2  0  0  0  0
 17 18  1  0  0  0  0
 17 19  1  0  0  0  0
 19 20  2  0  0  0  0
 21 19  1  0  0  0  0
 21 24  1  0  0  0  0
 22 21  1  0  0  0  0
 23 22  2  0  0  0  0
 25  1  1  0  0  0  0
 25 27  1  0  0  0  0
 27 30  1  0  0  0  0
 27 26  2  1  0  0  0
 28 27  1  0  0  0  0
 29 28  1  0  0  0  0
 30 32  1  0  0  0  0
 31 32  2  0  0  0  0
 31 36  1  0  0  0  0
 32 33  1  0  0  0  0
 33 40  1  0  0  0  0
 33 34  2  0  0  0  0
 35 34  1  0  0  0  0
 35 41  1  0  0  0  0
 36 35  2  0  0  0  0
 37 39  1  0  0  0  0
 38 37  2  0  0  0  0
 39 43  1  0  0  0  0
 39 31  1  0  0  0  0
 42 37  1  0  0  0  0
M  END
>  <minimizedAffinity>
-5.75374508

$$$$

 OpenBabel03252507143D

 43 45  0  0  1  0  0  0  0  0999 V2000
   37.2670   29.8820   39.7910 C   0  0  2  0  0  0  0  0  0  0  0  0
   36.5900   30.1380   38.5040 C   0  0  0  0  0  0  0  0  0  0  0  0
   35.7350   28.9780   38.1150 C   0  0  0  0  0  0  0  0  0  0  0  0
   34.6420   28.8060   38.9590 O   0  0  0  0  0  0  0  0  0  0  0  0
   34.9070   29.2930   40.2230 C   0  0  0  0  0  0  0  0  0  0  0  0
   36.3400   29.0160   40.6220 C   0  0  1  0  0  0  0  0  0  0  0  0
   38.2010   29.3000   39.5860 H   0  0  0  0  0  0  0  0  0  0  0  0
   37.2790   30.4140   37.6790 H   0  0  0  0  0  0  0  0  0  0  0  0
   35.8910   31.0220   38.5770 H   0  0  0  0  0  0  0  0  0  0  0  0
   35.2480   29.3060   37.1420 H   0  0  0  0  0  0  0  0  0  0  0  0
   36.2540   28.0590   37.8330 H   0  0  0  0  0  0  0  0  0  0  0  0
   34.8000   30.4070   40.2450 H   0  0  0  0  0  0  0  0  0  0  0  0
   34.1650   28.8910   40.9060 H   0  0  0  0  0  0  0  0  0  0  0  0
   36.3870   29.4760   41.6440 H   0  0  0  0  0  0  0  0  0  0  0  0
   36.6610   27.6650   40.8160 N   0  0  0  0  0  0  0  0  0  0  0  0
   36.7430   26.6470   39.9450 C   0  0  0  0  0  3  0  0  0  0  0  0
   37.0660   25.3430   40.2060 C   0  0  0  0  0  0  0  0  0  0  0  0
   37.0970   24.6140   39.4070 H   0  0  0  0  0  0  0  0  0  0  0  0
   37.3450   25.0100   41.5100 C   0  0  0  0  0  0  0  0  0  0  0  0
   37.6470   23.8460   41.8260 O   0  0  0  0  0  0  0  0  0  0  0  0
   37.2650   26.0230   42.3840 N   0  0  0  0  0  0  0  0  0  0  0  0
   36.9450   27.3010   42.1080 C   0  0  0  0  0  0  0  0  0  0  0  0
   36.9110   28.1590   43.0570 O   0  0  0  0  0  0  0  0  0  0  0  0
   37.4710   25.8070   43.3900 H   0  0  0  0  0  0  0  0  0  0  0  0
   37.7100   30.9540   40.4690 O   0  0  0  0  0  0  0  0  0  0  0  0
   40.1490   29.9890   40.5450 O   0  0  0  0  0  0  0  0  0  0  0  0
   39.1680   30.8550   41.2380 P   0  0  2  0  0  0  0  0  0  0  0  0
   38.9200   30.1860   42.7850 O   0  0  0  0  0  0  0  0  0  0  0  0
   38.5640   29.2630   42.6210 H   0  0  0  0  0  0  0  0  0  0  0  0
   39.8280   32.4300   41.4810 O   0  0  0  0  0  0  0  0  0  0  0  0
   41.9260   33.3940   40.9960 C   0  0  0  0  0  0  0  0  0  0  0  0
   40.6810   33.0050   40.5600 C   0  0  0  0  0  0  0  0  0  0  0  0
   40.3400   33.2110   39.1980 C   0  0  0  0  0  0  0  0  0  0  0  0
   41.2730   33.7840   38.4090 N   0  0  0  0  0  0  0  0  0  0  0  0
   42.4590   34.1440   38.8640 C   0  0  0  0  0  0  0  0  0  0  0  0
   42.7780   33.9440   40.1670 N   0  0  0  0  0  0  0  0  0  0  0  0
   43.1860   32.1420   42.7420 C   0  0  0  0  0  0  0  0  0  0  0  0
   42.9190   30.9910   42.2300 O   0  0  0  0  0  0  0  0  0  0  0  0
   42.7110   33.4120   42.1780 N   0  0  0  0  0  0  0  0  0  0  0  0
   39.3520   32.8750   38.9560 H   0  0  0  0  0  0  0  0  0  0  0  0
   43.1580   34.5960   38.1850 H   0  0  0  0  0  0  0  0  0  0  0  0
   43.7990   32.0720   43.6320 H   0  0  0  0  0  0  0  0  0  0  0  0
   43.0130   34.2190   42.7340 H   0  0  0  0  0  0  0  0  0  0  0  0
  1  7  1  6  0  0  0
  1 25  1  0  0  0  0
  1  6  1  0  0  0  0
  2  9  1  0  0  0  0
  2  1  1  0  0  0  0
  3  2  1  0  0  0  0
  3  4  1  0  0  0  0
  4  5  1  0  0  0  0
  5 12  1  0  0  0  0
  5  6  1  0  0  0  0
  5 13  1  0  0  0  0
  6 15  1  0  0  0  0
  6 14  1  1  0  0  0
  8  2  1  0  0  0  0
 10  3  1  0  0  0  0
 11  3  1  0  0  0  0
 15 22  1  0  0  0  0
 16 17  2  0  0  0  0
 16 15  1  0  0  0  0
 17 19  1  0  0  0  0
 18 17  1  0  0  0  0
 19 20  2  0  0  0  0
 19 21  1  0  0  0  0
 21 24  1  0  0  0  0
 22 21  1  0  0  0  0
 22 23  2  0  0  0  0
 25 27  1  0  0  0  0
 27 26  2  6  0  0  0
 27 30  1  0  0  0  0
 27 28  1  0  0  0  0
 29 28  1  0  0  0  0
 31 39  1  0  0  0  0
 32 31  1  0  0  0  0
 32 30  1  0  0  0  0
 33 32  2  0  0  0  0
 34 35  2  0  0  0  0
 34 33  1  0  0  0  0
 35 36  1  0  0  0  0
 36 31  2  0  0  0  0
 37 42  1  0  0  0  0
 38 37  2  0  0  0  0
 39 43  1  0  0  0  0
 39 37  1  0  0  0  0
 40 33  1  0  0  0  0
 41 35  1  0  0  0  0
M  END
>  <minimizedAffinity>
-5.74519539

$$$$

 OpenBabel03252507143D

 43 45  0  0  1  0  0  0  0  0999 V2000
   39.0190   28.3540   41.9800 C   0  0  2  0  0  0  0  0  0  0  0  0
   37.8630   29.2670   41.8780 C   0  0  0  0  0  0  0  0  0  0  0  0
   36.5860   28.4970   41.7970 C   0  0  0  0  0  0  0  0  0  0  0  0
   36.2870   27.8240   42.9780 O   0  0  0  0  0  0  0  0  0  0  0  0
   37.4350   27.5140   43.6790 C   0  0  0  0  0  0  0  0  0  0  0  0
   38.5560   27.1260   42.7410 C   0  0  1  0  0  0  0  0  0  0  0  0
   39.3090   28.0370   40.9460 H   0  0  0  0  0  0  0  0  0  0  0  0
   37.9370   29.9950   41.0440 H   0  0  0  0  0  0  0  0  0  0  0  0
   37.7710   29.9170   42.7960 H   0  0  0  0  0  0  0  0  0  0  0  0
   35.7820   29.2990   41.7580 H   0  0  0  0  0  0  0  0  0  0  0  0
   36.4120   27.9290   40.8810 H   0  0  0  0  0  0  0  0  0  0  0  0
   37.8070   28.4100   44.2370 H   0  0  0  0  0  0  0  0  0  0  0  0
   37.1880   26.7600   44.4210 H   0  0  0  0  0  0  0  0  0  0  0  0
   39.3950   26.9220   43.4570 H   0  0  0  0  0  0  0  0  0  0  0  0
   38.3710   25.9220   42.0450 N   0  0  0  0  0  0  0  0  0  0  0  0
   37.6600   25.6460   40.9410 C   0  0  0  0  0  3  0  0  0  0  0  0
   37.5240   24.4390   40.3110 C   0  0  0  0  0  0  0  0  0  0  0  0
   36.9160   24.3490   39.4200 H   0  0  0  0  0  0  0  0  0  0  0  0
   38.1860   23.3640   40.8540 C   0  0  0  0  0  0  0  0  0  0  0  0
   38.1120   22.2350   40.3390 O   0  0  0  0  0  0  0  0  0  0  0  0
   38.8980   23.6350   41.9570 N   0  0  0  0  0  0  0  0  0  0  0  0
   39.0200   24.8300   42.5630 C   0  0  0  0  0  0  0  0  0  0  0  0
   39.7410   24.9310   43.6160 O   0  0  0  0  0  0  0  0  0  0  0  0
   39.4180   22.8390   42.4010 H   0  0  0  0  0  0  0  0  0  0  0  0
   40.1560   28.8660   42.4790 O   0  0  0  0  0  0  0  0  0  0  0  0
   42.3290   30.1610   41.7830 O   0  0  0  0  0  0  0  0  0  0  0  0
   40.8510   30.1490   41.7070 P   0  0  2  0  0  0  0  0  0  0  0  0
   40.3030   31.5840   42.4440 O   0  0  0  0  0  0  0  0  0  0  0  0
   40.6360   31.5420   43.3890 H   0  0  0  0  0  0  0  0  0  0  0  0
   40.3360   30.2120   40.0620 O   0  0  0  0  0  0  0  0  0  0  0  0
   40.2600   32.0100   38.5360 C   0  0  0  0  0  0  0  0  0  0  0  0
   40.9830   31.0040   39.1340 C   0  0  0  0  0  0  0  0  0  0  0  0
   42.3440   30.8340   38.7710 C   0  0  0  0  0  0  0  0  0  0  0  0
   42.8460   31.6830   37.8490 N   0  0  0  0  0  0  0  0  0  0  0  0
   42.1200   32.6380   37.2970 C   0  0  0  0  0  0  0  0  0  0  0  0
   40.8190   32.7930   37.6490 N   0  0  0  0  0  0  0  0  0  0  0  0
   38.4860   33.2820   39.7370 C   0  0  0  0  0  0  0  0  0  0  0  0
   39.1930   33.4260   40.8040 O   0  0  0  0  0  0  0  0  0  0  0  0
   38.9540   32.5670   38.5420 N   0  0  0  0  0  0  0  0  0  0  0  0
   42.8200   30.0280   39.2900 H   0  0  0  0  0  0  0  0  0  0  0  0
   42.5790   33.2810   36.5690 H   0  0  0  0  0  0  0  0  0  0  0  0
   37.5110   33.7440   39.8170 H   0  0  0  0  0  0  0  0  0  0  0  0
   38.2440   32.5440   37.8030 H   0  0  0  0  0  0  0  0  0  0  0  0
  1  7  1  6  0  0  0
  1 25  1  0  0  0  0
  1  6  1  0  0  0  0
  2  1  1  0  0  0  0
  2  9  1  0  0  0  0
  3  2  1  0  0  0  0
  3  4  1  0  0  0  0
  4  5  1  0  0  0  0
  5 12  1  0  0  0  0
  5 13  1  0  0  0  0
  6 14  1  1  0  0  0
  6  5  1  0  0  0  0
  8  2  1  0  0  0  0
 10  3  1  0  0  0  0
 11  3  1  0  0  0  0
 15 22  1  0  0  0  0
 15  6  1  0  0  0  0
 16 15  1  0  0  0  0
 17 19  1  0  0  0  0
 17 16  2  0  0  0  0
 18 17  1  0  0  0  0
 19 21  1  0  0  0  0
 20 19  2  0  0  0  0
 21 24  1  0  0  0  0
 21 22  1  0  0  0  0
 22 23  2  0  0  0  0
 27 26  2  1  0  0  0
 27 28  1  0  0  0  0
 27 25  1  0  0  0  0
 28 29  1  0  0  0  0
 30 27  1  0  0  0  0
 31 39  1  0  0  0  0
 31 32  1  0  0  0  0
 32 30  1  0  0  0  0
 33 32  2  0  0  0  0
 33 40  1  0  0  0  0
 34 33  1  0  0  0  0
 35 36  1  0  0  0  0
 35 34  2  0  0  0  0
 36 31  2  0  0  0  0
 37 42  1  0  0  0  0
 37 38  2  0  0  0  0
 39 37  1  0  0  0  0
 41 35  1  0  0  0  0
 43 39  1  0  0  0  0
M  END
>  <minimizedAffinity>
-5.71247101

$$$$

 OpenBabel03252507143D

 43 45  0  0  1  0  0  0  0  0999 V2000
   36.7420   29.3190   37.4530 C   0  0  2  0  0  0  0  0  0  0  0  0
   36.1820   28.3420   36.4990 C   0  0  0  0  0  0  0  0  0  0  0  0
   35.4720   27.2450   37.2210 C   0  0  0  0  0  0  0  0  0  0  0  0
   34.3160   27.6820   37.8610 O   0  0  0  0  0  0  0  0  0  0  0  0
   34.4080   29.0160   38.2020 C   0  0  0  0  0  0  0  0  0  0  0  0
   35.8110   29.3660   38.6490 C   0  0  1  0  0  0  0  0  0  0  0  0
   37.7380   28.9420   37.7990 H   0  0  0  0  0  0  0  0  0  0  0  0
   36.9280   27.9270   35.7890 H   0  0  0  0  0  0  0  0  0  0  0  0
   35.4090   28.8190   35.8290 H   0  0  0  0  0  0  0  0  0  0  0  0
   35.0620   26.5870   36.3900 H   0  0  0  0  0  0  0  0  0  0  0  0
   36.0910   26.5560   37.7980 H   0  0  0  0  0  0  0  0  0  0  0  0
   34.2070   29.6620   37.3100 H   0  0  0  0  0  0  0  0  0  0  0  0
   33.6350   29.2360   38.9320 H   0  0  0  0  0  0  0  0  0  0  0  0
   35.7130   30.4620   38.8710 H   0  0  0  0  0  0  0  0  0  0  0  0
   36.2210   28.7850   39.8570 N   0  0  0  0  0  0  0  0  0  0  0  0
   36.6110   27.5320   40.1410 C   0  0  0  0  0  3  0  0  0  0  0  0
   37.0030   27.0300   41.3520 C   0  0  0  0  0  0  0  0  0  0  0  0
   37.2960   25.9930   41.4490 H   0  0  0  0  0  0  0  0  0  0  0  0
   37.0070   27.8920   42.4220 C   0  0  0  0  0  0  0  0  0  0  0  0
   37.3510   27.5110   43.5540 O   0  0  0  0  0  0  0  0  0  0  0  0
   36.6190   29.1440   42.1440 N   0  0  0  0  0  0  0  0  0  0  0  0
   36.2360   29.6210   40.9450 C   0  0  0  0  0  0  0  0  0  0  0  0
   35.8910   30.8490   40.8360 O   0  0  0  0  0  0  0  0  0  0  0  0
   36.6090   29.8320   42.9360 H   0  0  0  0  0  0  0  0  0  0  0  0
   37.0230   30.5440   36.9760 O   0  0  0  0  0  0  0  0  0  0  0  0
   37.7290   32.4200   38.6690 O   0  0  0  0  0  0  0  0  0  0  0  0
   38.2230   31.4180   37.6980 P   0  0  2  0  0  0  0  0  0  0  0  0
   39.0710   32.2710   36.4910 O   0  0  0  0  0  0  0  0  0  0  0  0
   38.3990   32.8960   36.0850 H   0  0  0  0  0  0  0  0  0  0  0  0
   39.3640   30.3660   38.4510 O   0  0  0  0  0  0  0  0  0  0  0  0
   40.8650   31.6050   39.7840 C   0  0  0  0  0  0  0  0  0  0  0  0
   40.6580   30.7720   38.7100 C   0  0  0  0  0  0  0  0  0  0  0  0
   41.7750   30.3750   37.9300 C   0  0  0  0  0  0  0  0  0  0  0  0
   42.9840   30.8480   38.3000 N   0  0  0  0  0  0  0  0  0  0  0  0
   43.1430   31.6470   39.3390 C   0  0  0  0  0  0  0  0  0  0  0  0
   42.0700   32.0230   40.0790 N   0  0  0  0  0  0  0  0  0  0  0  0
   39.5270   31.4490   41.8790 C   0  0  0  0  0  0  0  0  0  0  0  0
   39.5960   30.1640   41.9280 O   0  0  0  0  0  0  0  0  0  0  0  0
   40.1380   32.2570   40.8160 N   0  0  0  0  0  0  0  0  0  0  0  0
   41.5120   29.7270   37.1190 H   0  0  0  0  0  0  0  0  0  0  0  0
   44.1320   31.9890   39.5810 H   0  0  0  0  0  0  0  0  0  0  0  0
   38.9680   31.8690   42.7060 H   0  0  0  0  0  0  0  0  0  0  0  0
   39.9610   33.2590   40.9400 H   0  0  0  0  0  0  0  0  0  0  0  0
  1  7  1  1  0  0  0
  1  6  1  0  0  0  0
  2  3  1  0  0  0  0
  2  1  1  0  0  0  0
  3 11  1  0  0  0  0
  3  4  1  0  0  0  0
  4  5  1  0  0  0  0
  5  6  1  0  0  0  0
  5 13  1  0  0  0  0
  6 14  1  1  0  0  0
  6 15  1  0  0  0  0
  8  2  1  0  0  0  0
  9  2  1  0  0  0  0
 10  3  1  0  0  0  0
 12  5  1  0  0  0  0
 15 16  1  0  0  0  0
 15 22  1  0  0  0  0
 16 17  2  0  0  0  0
 17 18  1  0  0  0  0
 17 19  1  0  0  0  0
 19 20  2  0  0  0  0
 21 19  1  0  0  0  0
 21 24  1  0  0  0  0
 22 21  1  0  0  0  0
 23 22  2  0  0  0  0
 25  1  1  0  0  0  0
 25 27  1  0  0  0  0
 27 30  1  0  0  0  0
 27 26  2  1  0  0  0
 28 27  1  0  0  0  0
 29 28  1  0  0  0  0
 30 32  1  0  0  0  0
 31 36  1  0  0  0  0
 31 39  1  0  0  0  0
 32 31  2  0  0  0  0
 33 34  2  0  0  0  0
 33 32  1  0  0  0  0
 34 35  1  0  0  0  0
 35 41  1  0  0  0  0
 35 36  2  0  0  0  0
 37 38  2  0  0  0  0
 37 42  1  0  0  0  0
 39 43  1  0  0  0  0
 39 37  1  0  0  0  0
 40 33  1  0  0  0  0
M  END
>  <minimizedAffinity>
-5.69489908

$$$$

 OpenBabel03252507143D

 43 45  0  0  1  0  0  0  0  0999 V2000
   36.7840   29.2910   37.5130 C   0  0  2  0  0  0  0  0  0  0  0  0
   36.2640   28.2790   36.5720 C   0  0  0  0  0  0  0  0  0  0  0  0
   35.5430   27.1970   37.3060 C   0  0  0  0  0  0  0  0  0  0  0  0
   34.3640   27.6390   37.8970 O   0  0  0  0  0  0  0  0  0  0  0  0
   34.4320   28.9840   38.1990 C   0  0  0  0  0  0  0  0  0  0  0  0
   35.8160   29.3640   38.6770 C   0  0  1  0  0  0  0  0  0  0  0  0
   37.7730   28.9360   37.9000 H   0  0  0  0  0  0  0  0  0  0  0  0
   37.0350   27.8520   35.8980 H   0  0  0  0  0  0  0  0  0  0  0  0
   35.5070   28.7270   35.8650 H   0  0  0  0  0  0  0  0  0  0  0  0
   35.1660   26.5090   36.4830 H   0  0  0  0  0  0  0  0  0  0  0  0
   36.1520   26.5320   37.9220 H   0  0  0  0  0  0  0  0  0  0  0  0
   34.2510   29.6010   37.2830 H   0  0  0  0  0  0  0  0  0  0  0  0
   33.6350   29.2170   38.8990 H   0  0  0  0  0  0  0  0  0  0  0  0
   35.7010   30.4640   38.8630 H   0  0  0  0  0  0  0  0  0  0  0  0
   36.1960   28.8240   39.9140 N   0  0  0  0  0  0  0  0  0  0  0  0
   36.5360   27.5720   40.2600 C   0  0  0  0  0  3  0  0  0  0  0  0
   36.9000   27.1120   41.4960 C   0  0  0  0  0  0  0  0  0  0  0  0
   37.1530   26.0700   41.6420 H   0  0  0  0  0  0  0  0  0  0  0  0
   36.9280   28.0210   42.5250 C   0  0  0  0  0  0  0  0  0  0  0  0
   37.2500   27.6800   43.6770 O   0  0  0  0  0  0  0  0  0  0  0  0
   36.5890   29.2730   42.1860 N   0  0  0  0  0  0  0  0  0  0  0  0
   36.2340   29.7080   40.9630 C   0  0  0  0  0  0  0  0  0  0  0  0
   35.9360   30.9410   40.7950 O   0  0  0  0  0  0  0  0  0  0  0  0
   36.5990   29.9960   42.9460 H   0  0  0  0  0  0  0  0  0  0  0  0
   37.0660   30.5040   37.0060 O   0  0  0  0  0  0  0  0  0  0  0  0
   37.5980   32.4650   38.6660 O   0  0  0  0  0  0  0  0  0  0  0  0
   38.1880   31.4400   37.7760 P   0  0  2  0  0  0  0  0  0  0  0  0
   39.1000   32.2680   36.5990 O   0  0  0  0  0  0  0  0  0  0  0  0
   38.4440   32.8570   36.1200 H   0  0  0  0  0  0  0  0  0  0  0  0
   39.2970   30.4530   38.6540 O   0  0  0  0  0  0  0  0  0  0  0  0
   41.0690   29.8180   37.2320 C   0  0  0  0  0  0  0  0  0  0  0  0
   40.0150   29.4490   38.0350 C   0  0  0  0  0  0  0  0  0  0  0  0
   39.7230   28.0690   38.1860 C   0  0  0  0  0  0  0  0  0  0  0  0
   40.5100   27.1960   37.5220 N   0  0  0  0  0  0  0  0  0  0  0  0
   41.5140   27.5890   36.7590 C   0  0  0  0  0  0  0  0  0  0  0  0
   41.7870   28.9110   36.6200 N   0  0  0  0  0  0  0  0  0  0  0  0
   42.5070   31.7890   37.7300 C   0  0  0  0  0  0  0  0  0  0  0  0
   42.6080   31.5060   38.9820 O   0  0  0  0  0  0  0  0  0  0  0  0
   41.7350   30.9850   36.7740 N   0  0  0  0  0  0  0  0  0  0  0  0
   38.8870   27.8830   38.8300 H   0  0  0  0  0  0  0  0  0  0  0  0
   42.1030   26.8450   36.2570 H   0  0  0  0  0  0  0  0  0  0  0  0
   43.0530   32.6850   37.4590 H   0  0  0  0  0  0  0  0  0  0  0  0
   41.7610   31.3790   35.8280 H   0  0  0  0  0  0  0  0  0  0  0  0
  1  7  1  1  0  0  0
  1  6  1  0  0  0  0
  2  3  1  0  0  0  0
  2  1  1  0  0  0  0
  3  4  1  0  0  0  0
  3 11  1  0  0  0  0
  4  5  1  0  0  0  0
  5  6  1  0  0  0  0
  5 13  1  0  0  0  0
  6 14  1  1  0  0  0
  6 15  1  0  0  0  0
  8  2  1  0  0  0  0
  9  2  1  0  0  0  0
 10  3  1  0  0  0  0
 12  5  1  0  0  0  0
 15 16  1  0  0  0  0
 15 22  1  0  0  0  0
 16 17  2  0  0  0  0
 17 18  1  0  0  0  0
 17 19  1  0  0  0  0
 19 20  2  0  0  0  0
 21 19  1  0  0  0  0
 21 24  1  0  0  0  0
 22 21  1  0  0  0  0
 23 22  2  0  0  0  0
 25  1  1  0  0  0  0
 25 27  1  0  0  0  0
 27 30  1  0  0  0  0
 27 26  2  1  0  0  0
 28 27  1  0  0  0  0
 29 28  1  0  0  0  0
 31 32  1  0  0  0  0
 32 33  2  0  0  0  0
 32 30  1  0  0  0  0
 33 40  1  0  0  0  0
 34 33  1  0  0  0  0
 35 34  2  0  0  0  0
 36 35  1  0  0  0  0
 36 31  2  0  0  0  0
 37 38  2  0  0  0  0
 39 31  1  0  0  0  0
 39 37  1  0  0  0  0
 41 35  1  0  0  0  0
 42 37  1  0  0  0  0
 43 39  1  0  0  0  0
M  END
>  <minimizedAffinity>
-5.65462685

$$$$

 OpenBabel03252507143D

 43 45  0  0  1  0  0  0  0  0999 V2000
   40.1660   32.2380   38.9120 C   0  0  2  0  0  0  0  0  0  0  0  0
   40.4840   32.4260   37.4820 C   0  0  0  0  0  0  0  0  0  0  0  0
   41.9510   32.6220   37.2880 C   0  0  0  0  0  0  0  0  0  0  0  0
   42.6900   31.4780   37.5760 O   0  0  0  0  0  0  0  0  0  0  0  0
   42.0450   30.6880   38.5040 C   0  0  0  0  0  0  0  0  0  0  0  0
   41.3480   31.5340   39.5480 C   0  0  1  0  0  0  0  0  0  0  0  0
   40.0640   33.2480   39.3840 H   0  0  0  0  0  0  0  0  0  0  0  0
   39.9100   33.2410   36.9960 H   0  0  0  0  0  0  0  0  0  0  0  0
   40.2150   31.5110   36.8780 H   0  0  0  0  0  0  0  0  0  0  0  0
   42.0710   32.7180   36.1620 H   0  0  0  0  0  0  0  0  0  0  0  0
   42.3750   33.5560   37.6620 H   0  0  0  0  0  0  0  0  0  0  0  0
   41.2350   30.0890   38.0140 H   0  0  0  0  0  0  0  0  0  0  0  0
   42.7620   29.9780   38.9060 H   0  0  0  0  0  0  0  0  0  0  0  0
   40.8770   30.7520   40.1990 H   0  0  0  0  0  0  0  0  0  0  0  0
   42.1950   32.2570   40.4000 N   0  0  0  0  0  0  0  0  0  0  0  0
   43.1880   33.1190   40.1290 C   0  0  0  0  0  3  0  0  0  0  0  0
   43.9780   33.7940   41.0180 C   0  0  0  0  0  0  0  0  0  0  0  0
   44.7510   34.4660   40.6670 H   0  0  0  0  0  0  0  0  0  0  0  0
   43.7480   33.5830   42.3560 C   0  0  0  0  0  0  0  0  0  0  0  0
   44.4240   34.1610   43.2250 O   0  0  0  0  0  0  0  0  0  0  0  0
   42.7570   32.7230   42.6330 N   0  0  0  0  0  0  0  0  0  0  0  0
   41.9890   32.0670   41.7430 C   0  0  0  0  0  0  0  0  0  0  0  0
   41.0770   31.2740   42.1640 O   0  0  0  0  0  0  0  0  0  0  0  0
   42.5520   32.5360   43.6440 H   0  0  0  0  0  0  0  0  0  0  0  0
   38.9980   31.6400   39.2020 O   0  0  0  0  0  0  0  0  0  0  0  0
   37.0840   33.4110   39.4910 O   0  0  0  0  0  0  0  0  0  0  0  0
   37.9340   32.4220   40.1920 P   0  0  2  0  0  0  0  0  0  0  0  0
   38.8200   33.2750   41.3710 O   0  0  0  0  0  0  0  0  0  0  0  0
   39.3600   33.9490   40.8620 H   0  0  0  0  0  0  0  0  0  0  0  0
   36.9530   31.2840   41.0400 O   0  0  0  0  0  0  0  0  0  0  0  0
   37.5890   29.0250   40.8070 C   0  0  0  0  0  0  0  0  0  0  0  0
   36.6940   30.0300   40.5250 C   0  0  0  0  0  0  0  0  0  0  0  0
   35.5610   29.7290   39.7260 C   0  0  0  0  0  0  0  0  0  0  0  0
   35.4340   28.4580   39.2900 N   0  0  0  0  0  0  0  0  0  0  0  0
   36.3150   27.5190   39.5830 C   0  0  0  0  0  0  0  0  0  0  0  0
   37.3960   27.8150   40.3460 N   0  0  0  0  0  0  0  0  0  0  0  0
   38.8030   28.8820   42.9780 C   0  0  0  0  0  0  0  0  0  0  0  0
   37.7550   29.1440   43.6780 O   0  0  0  0  0  0  0  0  0  0  0  0
   38.8040   28.8110   41.5110 N   0  0  0  0  0  0  0  0  0  0  0  0
   34.9240   30.5750   39.5630 H   0  0  0  0  0  0  0  0  0  0  0  0
   36.1570   26.5260   39.2050 H   0  0  0  0  0  0  0  0  0  0  0  0
   39.6830   28.7200   43.5880 H   0  0  0  0  0  0  0  0  0  0  0  0
   39.7350   28.6080   41.1340 H   0  0  0  0  0  0  0  0  0  0  0  0
  1 25  1  0  0  0  0
  1  7  1  1  0  0  0
  1  6  1  0  0  0  0
  2  1  1  0  0  0  0
  3  2  1  0  0  0  0
  3  4  1  0  0  0  0
  3 11  1  0  0  0  0
  4  5  1  0  0  0  0
  5 13  1  0  0  0  0
  5  6  1  0  0  0  0
  6 14  1  1  0  0  0
  6 15  1  0  0  0  0
  8  2  1  0  0  0  0
  9  2  1  0  0  0  0
 10  3  1  0  0  0  0
 12  5  1  0  0  0  0
 15 22  1  0  0  0  0
 16 15  1  0  0  0  0
 16 17  2  0  0  0  0
 17 19  1  0  0  0  0
 18 17  1  0  0  0  0
 19 21  1  0  0  0  0
 19 20  2  0  0  0  0
 21 24  1  0  0  0  0
 22 23  2  0  0  0  0
 22 21  1  0  0  0  0
 25 27  1  0  0  0  0
 27 26  2  6  0  0  0
 27 30  1  0  0  0  0
 27 28  1  0  0  0  0
 29 28  1  0  0  0  0
 31 39  1  0  0  0  0
 32 31  1  0  0  0  0
 32 30  1  0  0  0  0
 33 32  2  0  0  0  0
 34 35  2  0  0  0  0
 34 33  1  0  0  0  0
 35 36  1  0  0  0  0
 36 31  2  0  0  0  0
 37 42  1  0  0  0  0
 37 38  2  0  0  0  0
 39 37  1  0  0  0  0
 40 33  1  0  0  0  0
 41 35  1  0  0  0  0
 43 39  1  0  0  0  0
M  END
>  <minimizedAffinity>
-5.62092352

$$$$
