
 OpenBabel03242513253D

 46 49  0  0  1  0  0  0  0  0999 V2000
   37.5810   25.0560   41.4120 C   0  0  2  0  0  0  0  0  0  0  0  0
   36.5940   24.1790   40.6600 C   0  0  0  0  0  0  0  0  0  0  0  0
   37.6180   23.2710   39.9890 C   0  0  0  0  0  0  0  0  0  0  0  0
   38.5660   23.0250   40.9530 O   0  0  0  0  0  0  0  0  0  0  0  0
   38.5330   24.0230   41.8930 C   0  0  1  0  0  0  0  0  0  0  0  0
   37.9880   25.7740   40.6800 H   0  0  0  0  0  0  0  0  0  0  0  0
   35.9250   23.6410   41.3520 H   0  0  0  0  0  0  0  0  0  0  0  0
   36.0450   24.7990   39.9280 H   0  0  0  0  0  0  0  0  0  0  0  0
   38.0520   23.8390   39.1440 H   0  0  0  0  0  0  0  0  0  0  0  0
   37.0820   22.3610   39.6360 H   0  0  0  0  0  0  0  0  0  0  0  0
   38.2190   23.6790   42.8980 H   0  0  0  0  0  0  0  0  0  0  0  0
   39.9150   24.5900   42.0500 C   0  0  1  0  0  0  0  0  0  0  0  0
   40.1620   25.7110   41.0430 C   0  0  0  0  0  0  0  0  0  0  0  0
   40.8800   26.7290   41.8870 C   0  0  0  0  0  0  0  0  0  0  0  0
   41.2270   26.0780   43.0800 O   0  0  0  0  0  0  0  0  0  0  0  0
   40.0620   25.3560   43.3540 C   0  0  0  0  0  0  0  0  0  0  0  0
   40.7130   23.8470   42.0190 H   0  0  0  0  0  0  0  0  0  0  0  0
   39.2230   26.1040   40.6230 H   0  0  0  0  0  0  0  0  0  0  0  0
   40.8390   25.3250   40.2350 H   0  0  0  0  0  0  0  0  0  0  0  0
   41.7780   27.1040   41.3540 H   0  0  0  0  0  0  0  0  0  0  0  0
   40.1680   27.5650   42.0940 H   0  0  0  0  0  0  0  0  0  0  0  0
   40.1300   24.7180   44.2390 H   0  0  0  0  0  0  0  0  0  0  0  0
   39.2800   26.1570   43.4540 H   0  0  0  0  0  0  0  0  0  0  0  0
   36.9350   25.8620   42.4940 C   0  0  0  0  0  0  0  0  0  0  0  0
   37.4890   25.7530   43.4670 H   0  0  0  0  0  0  0  0  0  0  0  0
   35.8970   25.5090   42.6520 H   0  0  0  0  0  0  0  0  0  0  0  0
   37.2960   27.8030   41.0520 C   0  0  0  0  0  3  0  0  0  0  0  0
   36.8700   27.3020   42.1850 C   0  0  0  0  0  3  0  0  0  0  0  0
   36.1440   31.2620   40.9420 C   0  0  0  0  0  0  0  0  0  0  0  0
   37.1790   31.9050   40.1860 C   0  0  0  0  0  0  0  0  0  0  0  0
   38.2260   31.0960   39.7550 C   0  0  0  0  0  0  0  0  0  0  0  0
   38.2340   29.7600   40.0540 N   0  0  0  0  0  0  0  0  0  0  0  0
   37.2250   29.2120   40.7740 C   0  0  0  0  0  0  0  0  0  0  0  0
   36.2000   29.9380   41.2100 N   0  0  0  0  0  0  0  0  0  0  0  0
   35.3280   31.8810   41.2800 H   0  0  0  0  0  0  0  0  0  0  0  0
   37.1640   32.9410   39.9600 H   0  0  0  0  0  0  0  0  0  0  0  0
   39.3090   31.6340   38.9960 N   0  0  0  0  0  0  0  0  0  0  0  0
   40.4500   31.9660   39.6610 C   0  0  0  0  0  3  0  0  0  0  0  0
   41.5160   32.4880   38.9680 C   0  0  0  0  0  0  0  0  0  0  0  0
   42.4560   32.7760   39.4210 H   0  0  0  0  0  0  0  0  0  0  0  0
   41.3250   32.6340   37.6100 C   0  0  0  0  0  0  0  0  0  0  0  0
   42.2820   33.1100   36.9350 O   0  0  0  0  0  0  0  0  0  0  0  0
   40.2130   32.3160   36.9240 N   0  0  0  0  0  0  0  0  0  0  0  0
   39.1980   31.8090   37.6490 C   0  0  0  0  0  0  0  0  0  0  0  0
   38.1070   31.4720   37.1390 O   0  0  0  0  0  0  0  0  0  0  0  0
   40.1280   32.4480   35.9040 H   0  0  0  0  0  0  0  0  0  0  0  0
  1  6  1  6  0  0  0
  1  5  1  0  0  0  0
  1 24  1  0  0  0  0
  2  7  1  0  0  0  0
  2  1  1  0  0  0  0
  3  2  1  0  0  0  0
  3  4  1  0  0  0  0
  4  5  1  0  0  0  0
  5 12  1  0  0  0  0
  5 11  1  1  0  0  0
  8  2  1  0  0  0  0
  9  3  1  0  0  0  0
 10  3  1  0  0  0  0
 12 17  1  6  0  0  0
 12 16  1  0  0  0  0
 13 14  1  0  0  0  0
 13 12  1  0  0  0  0
 14 21  1  0  0  0  0
 14 15  1  0  0  0  0
 15 16  1  0  0  0  0
 16 23  1  0  0  0  0
 16 22  1  0  0  0  0
 18 13  1  0  0  0  0
 19 13  1  0  0  0  0
 20 14  1  0  0  0  0
 24 26  1  0  0  0  0
 24 25  1  0  0  0  0
 27 28  2  0  0  0  0
 28 24  1  0  0  0  0
 29 34  1  0  0  0  0
 29 35  1  0  0  0  0
 30 29  2  0  0  0  0
 31 32  2  0  0  0  0
 31 30  1  0  0  0  0
 32 33  1  0  0  0  0
 33 27  1  0  0  0  0
 33 34  2  0  0  0  0
 36 30  1  0  0  0  0
 37 38  1  0  0  0  0
 37 31  1  0  0  0  0
 39 40  1  0  0  0  0
 39 38  2  0  0  0  0
 41 39  1  0  0  0  0
 42 41  2  0  0  0  0
 43 41  1  0  0  0  0
 43 44  1  0  0  0  0
 44 37  1  0  0  0  0
 45 44  2  0  0  0  0
 46 43  1  0  0  0  0
M  END
>  <minimizedAffinity>
-6.13686419

$$$$

 OpenBabel03242513253D

 46 49  0  0  1  0  0  0  0  0999 V2000
   40.6940   26.2300   42.8730 C   0  0  2  0  0  0  0  0  0  0  0  0
   42.0730   26.5250   42.3080 C   0  0  0  0  0  0  0  0  0  0  0  0
   42.1830   25.2910   41.4190 C   0  0  0  0  0  0  0  0  0  0  0  0
   40.9380   25.1410   40.8580 O   0  0  0  0  0  0  0  0  0  0  0  0
   40.0030   25.7650   41.6440 C   0  0  1  0  0  0  0  0  0  0  0  0
   40.8310   25.4690   43.6600 H   0  0  0  0  0  0  0  0  0  0  0  0
   42.0810   27.4710   41.7390 H   0  0  0  0  0  0  0  0  0  0  0  0
   42.8110   26.5130   43.1310 H   0  0  0  0  0  0  0  0  0  0  0  0
   42.4260   24.4370   42.0790 H   0  0  0  0  0  0  0  0  0  0  0  0
   42.9950   25.4800   40.6800 H   0  0  0  0  0  0  0  0  0  0  0  0
   39.5120   26.6280   41.1540 H   0  0  0  0  0  0  0  0  0  0  0  0
   38.9120   24.7860   41.9730 C   0  0  1  0  0  0  0  0  0  0  0  0
   37.5370   25.4370   41.8440 C   0  0  0  0  0  0  0  0  0  0  0  0
   36.7460   24.3540   41.1650 C   0  0  0  0  0  0  0  0  0  0  0  0
   37.5320   23.1940   41.2260 O   0  0  0  0  0  0  0  0  0  0  0  0
   38.7980   23.6980   40.9180 C   0  0  0  0  0  0  0  0  0  0  0  0
   39.0260   24.2910   42.9380 H   0  0  0  0  0  0  0  0  0  0  0  0
   37.5730   26.3640   41.2500 H   0  0  0  0  0  0  0  0  0  0  0  0
   37.1340   25.6300   42.8750 H   0  0  0  0  0  0  0  0  0  0  0  0
   35.7720   24.2110   41.6790 H   0  0  0  0  0  0  0  0  0  0  0  0
   36.5880   24.6600   40.1020 H   0  0  0  0  0  0  0  0  0  0  0  0
   39.5980   22.9540   40.9600 H   0  0  0  0  0  0  0  0  0  0  0  0
   38.6610   24.1310   39.8900 H   0  0  0  0  0  0  0  0  0  0  0  0
   40.0680   27.4210   43.5280 C   0  0  0  0  0  0  0  0  0  0  0  0
   40.8010   27.9440   44.2030 H   0  0  0  0  0  0  0  0  0  0  0  0
   39.2070   27.0970   44.1450 H   0  0  0  0  0  0  0  0  0  0  0  0
   38.4140   29.0210   42.7000 C   0  0  0  0  0  3  0  0  0  0  0  0
   39.5700   28.4200   42.5640 C   0  0  0  0  0  3  0  0  0  0  0  0
   36.2240   31.1590   40.7170 C   0  0  0  0  0  0  0  0  0  0  0  0
   37.1570   31.8650   39.8870 C   0  0  0  0  0  0  0  0  0  0  0  0
   38.5020   31.5570   40.0650 C   0  0  0  0  0  0  0  0  0  0  0  0
   38.8800   30.6230   40.9920 N   0  0  0  0  0  0  0  0  0  0  0  0
   37.9490   29.9900   41.7470 C   0  0  0  0  0  0  0  0  0  0  0  0
   36.6500   30.2450   41.6170 N   0  0  0  0  0  0  0  0  0  0  0  0
   35.1790   31.3910   40.5860 H   0  0  0  0  0  0  0  0  0  0  0  0
   36.8540   32.5870   39.1710 H   0  0  0  0  0  0  0  0  0  0  0  0
   39.5140   32.2020   39.2910 N   0  0  0  0  0  0  0  0  0  0  0  0
   39.9800   31.5570   38.1850 C   0  0  0  0  0  3  0  0  0  0  0  0
   40.9540   32.1430   37.4140 C   0  0  0  0  0  0  0  0  0  0  0  0
   41.3760   31.6980   36.5230 H   0  0  0  0  0  0  0  0  0  0  0  0
   41.3870   33.3790   37.8450 C   0  0  0  0  0  0  0  0  0  0  0  0
   42.2830   33.9540   37.1620 O   0  0  0  0  0  0  0  0  0  0  0  0
   40.9480   34.0430   38.9300 N   0  0  0  0  0  0  0  0  0  0  0  0
   39.9940   33.4250   39.6520 C   0  0  0  0  0  0  0  0  0  0  0  0
   39.4970   33.9280   40.6840 O   0  0  0  0  0  0  0  0  0  0  0  0
   41.3110   34.9690   39.2040 H   0  0  0  0  0  0  0  0  0  0  0  0
  1 24  1  0  0  0  0
  1  6  1  1  0  0  0
  2  1  1  0  0  0  0
  2  8  1  0  0  0  0
  3  9  1  0  0  0  0
  3  2  1  0  0  0  0
  4  3  1  0  0  0  0
  4  5  1  0  0  0  0
  5 11  1  6  0  0  0
  5 12  1  0  0  0  0
  5  1  1  0  0  0  0
  7  2  1  0  0  0  0
 10  3  1  0  0  0  0
 12 17  1  1  0  0  0
 13 12  1  0  0  0  0
 13 19  1  0  0  0  0
 14 15  1  0  0  0  0
 14 20  1  0  0  0  0
 14 13  1  0  0  0  0
 16 22  1  0  0  0  0
 16 15  1  0  0  0  0
 16 12  1  0  0  0  0
 18 13  1  0  0  0  0
 21 14  1  0  0  0  0
 23 16  1  0  0  0  0
 24 26  1  0  0  0  0
 24 25  1  0  0  0  0
 28 27  2  0  0  0  0
 28 24  1  0  0  0  0
 29 34  1  0  0  0  0
 30 31  1  0  0  0  0
 30 29  2  0  0  0  0
 31 32  2  0  0  0  0
 32 33  1  0  0  0  0
 33 27  1  0  0  0  0
 34 33  2  0  0  0  0
 35 29  1  0  0  0  0
 36 30  1  0  0  0  0
 37 44  1  0  0  0  0
 37 31  1  0  0  0  0
 38 37  1  0  0  0  0
 39 41  1  0  0  0  0
 39 38  2  0  0  0  0
 40 39  1  0  0  0  0
 41 43  1  0  0  0  0
 42 41  2  0  0  0  0
 43 46  1  0  0  0  0
 43 44  1  0  0  0  0
 44 45  2  0  0  0  0
M  END
>  <minimizedAffinity>
-5.95669508

$$$$

 OpenBabel03242513253D

 46 49  0  0  1  0  0  0  0  0999 V2000
   38.4430   26.8330   43.3990 C   0  0  2  0  0  0  0  0  0  0  0  0
   39.9350   26.8010   43.6790 C   0  0  0  0  0  0  0  0  0  0  0  0
   40.2400   25.5040   42.9380 C   0  0  0  0  0  0  0  0  0  0  0  0
   39.4900   25.5630   41.7880 O   0  0  0  0  0  0  0  0  0  0  0  0
   38.4360   26.4220   41.9730 C   0  0  1  0  0  0  0  0  0  0  0  0
   37.9730   26.1240   44.1020 H   0  0  0  0  0  0  0  0  0  0  0  0
   40.4460   27.6780   43.2470 H   0  0  0  0  0  0  0  0  0  0  0  0
   40.0960   26.7050   44.7690 H   0  0  0  0  0  0  0  0  0  0  0  0
   39.9060   24.6720   43.5860 H   0  0  0  0  0  0  0  0  0  0  0  0
   41.3390   25.4680   42.7610 H   0  0  0  0  0  0  0  0  0  0  0  0
   38.4790   27.3250   41.3330 H   0  0  0  0  0  0  0  0  0  0  0  0
   37.1610   25.7100   41.6190 C   0  0  1  0  0  0  0  0  0  0  0  0
   36.7620   25.9920   40.1720 C   0  0  0  0  0  0  0  0  0  0  0  0
   36.3160   24.6330   39.7070 C   0  0  0  0  0  0  0  0  0  0  0  0
   36.2060   23.8380   40.8570 O   0  0  0  0  0  0  0  0  0  0  0  0
   37.3570   24.2040   41.5600 C   0  0  0  0  0  0  0  0  0  0  0  0
   36.3330   25.9020   42.3020 H   0  0  0  0  0  0  0  0  0  0  0  0
   37.6050   26.3800   39.5800 H   0  0  0  0  0  0  0  0  0  0  0  0
   35.8990   26.7100   40.1720 H   0  0  0  0  0  0  0  0  0  0  0  0
   35.3450   24.7100   39.1740 H   0  0  0  0  0  0  0  0  0  0  0  0
   37.1050   24.2270   39.0280 H   0  0  0  0  0  0  0  0  0  0  0  0
   37.4520   23.7300   42.5410 H   0  0  0  0  0  0  0  0  0  0  0  0
   38.1890   23.9220   40.8590 H   0  0  0  0  0  0  0  0  0  0  0  0
   37.8310   28.1730   43.6650 C   0  0  0  0  0  0  0  0  0  0  0  0
   38.1750   28.5870   44.6530 H   0  0  0  0  0  0  0  0  0  0  0  0
   36.7290   28.0790   43.6990 H   0  0  0  0  0  0  0  0  0  0  0  0
   37.2390   29.8640   42.0010 C   0  0  0  0  0  3  0  0  0  0  0  0
   38.1570   29.1750   42.6330 C   0  0  0  0  0  3  0  0  0  0  0  0
   37.0020   32.1710   39.1850 C   0  0  0  0  0  0  0  0  0  0  0  0
   38.3340   32.6970   39.1090 C   0  0  0  0  0  0  0  0  0  0  0  0
   39.2450   32.2180   40.0460 C   0  0  0  0  0  0  0  0  0  0  0  0
   38.8560   31.2940   40.9760 N   0  0  0  0  0  0  0  0  0  0  0  0
   37.5800   30.8350   40.9970 C   0  0  0  0  0  0  0  0  0  0  0  0
   36.6700   31.2570   40.1250 N   0  0  0  0  0  0  0  0  0  0  0  0
   36.2900   32.5360   38.4620 H   0  0  0  0  0  0  0  0  0  0  0  0
   38.6260   33.4140   38.3830 H   0  0  0  0  0  0  0  0  0  0  0  0
   40.5970   32.6760   40.0590 N   0  0  0  0  0  0  0  0  0  0  0  0
   40.8590   33.8710   40.6580 C   0  0  0  0  0  3  0  0  0  0  0  0
   42.1480   34.3490   40.6930 C   0  0  0  0  0  0  0  0  0  0  0  0
   42.4380   35.2860   41.1480 H   0  0  0  0  0  0  0  0  0  0  0  0
   43.0940   33.5430   40.0950 C   0  0  0  0  0  0  0  0  0  0  0  0
   44.2930   33.9450   40.1050 O   0  0  0  0  0  0  0  0  0  0  0  0
   42.8690   32.3600   39.4970 N   0  0  0  0  0  0  0  0  0  0  0  0
   41.5900   31.9370   39.4900 C   0  0  0  0  0  0  0  0  0  0  0  0
   41.2400   30.8560   38.9670 O   0  0  0  0  0  0  0  0  0  0  0  0
   43.6200   31.7990   39.0640 H   0  0  0  0  0  0  0  0  0  0  0  0
  1 24  1  0  0  0  0
  1  2  1  0  0  0  0
  1  6  1  1  0  0  0
  2  8  1  0  0  0  0
  3  9  1  0  0  0  0
  3  2  1  0  0  0  0
  4  5  1  0  0  0  0
  4  3  1  0  0  0  0
  5 11  1  6  0  0  0
  5  1  1  0  0  0  0
  7  2  1  0  0  0  0
 10  3  1  0  0  0  0
 12  5  1  0  0  0  0
 12 17  1  1  0  0  0
 13 12  1  0  0  0  0
 14 13  1  0  0  0  0
 14 15  1  0  0  0  0
 15 16  1  0  0  0  0
 16 12  1  0  0  0  0
 16 22  1  0  0  0  0
 18 13  1  0  0  0  0
 19 13  1  0  0  0  0
 20 14  1  0  0  0  0
 21 14  1  0  0  0  0
 23 16  1  0  0  0  0
 24 26  1  0  0  0  0
 24 25  1  0  0  0  0
 27 28  2  0  0  0  0
 28 24  1  0  0  0  0
 29 34  1  0  0  0  0
 30 29  2  0  0  0  0
 30 31  1  0  0  0  0
 31 37  1  0  0  0  0
 31 32  2  0  0  0  0
 32 33  1  0  0  0  0
 33 27  1  0  0  0  0
 34 33  2  0  0  0  0
 35 29  1  0  0  0  0
 36 30  1  0  0  0  0
 37 38  1  0  0  0  0
 38 39  2  0  0  0  0
 39 40  1  0  0  0  0
 41 42  2  0  0  0  0
 41 39  1  0  0  0  0
 43 41  1  0  0  0  0
 44 43  1  0  0  0  0
 44 37  1  0  0  0  0
 45 44  2  0  0  0  0
 46 43  1  0  0  0  0
M  END
>  <minimizedAffinity>
-5.84928036

$$$$

 OpenBabel03242513253D

 46 49  0  0  1  0  0  0  0  0999 V2000
   39.0070   26.7570   43.5160 C   0  0  2  0  0  0  0  0  0  0  0  0
   40.4450   27.2190   43.6790 C   0  0  0  0  0  0  0  0  0  0  0  0
   41.1120   25.9370   43.1930 C   0  0  0  0  0  0  0  0  0  0  0  0
   40.3610   25.5270   42.1170 O   0  0  0  0  0  0  0  0  0  0  0  0
   39.1020   26.0640   42.2070 C   0  0  1  0  0  0  0  0  0  0  0  0
   38.7820   26.1120   44.3830 H   0  0  0  0  0  0  0  0  0  0  0  0
   40.6630   28.0910   43.0400 H   0  0  0  0  0  0  0  0  0  0  0  0
   40.6440   27.4100   44.7490 H   0  0  0  0  0  0  0  0  0  0  0  0
   41.0510   25.2050   44.0200 H   0  0  0  0  0  0  0  0  0  0  0  0
   42.1690   26.1830   42.9410 H   0  0  0  0  0  0  0  0  0  0  0  0
   38.8630   26.7800   41.3970 H   0  0  0  0  0  0  0  0  0  0  0  0
   38.0930   24.9560   42.1060 C   0  0  1  0  0  0  0  0  0  0  0  0
   36.9450   25.3460   41.1770 C   0  0  0  0  0  0  0  0  0  0  0  0
   36.7330   24.0760   40.4000 C   0  0  0  0  0  0  0  0  0  0  0  0
   37.4640   23.0800   41.0650 O   0  0  0  0  0  0  0  0  0  0  0  0
   38.6510   23.7550   41.3600 C   0  0  0  0  0  0  0  0  0  0  0  0
   37.7200   24.5960   43.0660 H   0  0  0  0  0  0  0  0  0  0  0  0
   37.2100   26.1940   40.5270 H   0  0  0  0  0  0  0  0  0  0  0  0
   36.0420   25.5790   41.8020 H   0  0  0  0  0  0  0  0  0  0  0  0
   35.6520   23.8260   40.3610 H   0  0  0  0  0  0  0  0  0  0  0  0
   37.1370   24.2320   39.3710 H   0  0  0  0  0  0  0  0  0  0  0  0
   39.3670   23.1670   41.9390 H   0  0  0  0  0  0  0  0  0  0  0  0
   39.0430   24.0430   40.3470 H   0  0  0  0  0  0  0  0  0  0  0  0
   38.0270   27.8880   43.5540 C   0  0  0  0  0  0  0  0  0  0  0  0
   38.2820   28.6190   44.3710 H   0  0  0  0  0  0  0  0  0  0  0  0
   37.0120   27.4940   43.7530 H   0  0  0  0  0  0  0  0  0  0  0  0
   38.2910   29.9140   42.2100 C   0  0  0  0  0  3  0  0  0  0  0  0
   37.9670   28.6460   42.2900 C   0  0  0  0  0  3  0  0  0  0  0  0
   37.0940   32.0220   39.4840 C   0  0  0  0  0  0  0  0  0  0  0  0
   38.1900   31.9770   38.5600 C   0  0  0  0  0  0  0  0  0  0  0  0
   39.2900   31.2120   38.9380 C   0  0  0  0  0  0  0  0  0  0  0  0
   39.2910   30.5510   40.1360 N   0  0  0  0  0  0  0  0  0  0  0  0
   38.2230   30.6330   40.9680 C   0  0  0  0  0  0  0  0  0  0  0  0
   37.1470   31.3490   40.6560 N   0  0  0  0  0  0  0  0  0  0  0  0
   36.2380   32.6120   39.1990 H   0  0  0  0  0  0  0  0  0  0  0  0
   38.1800   32.4930   37.6330 H   0  0  0  0  0  0  0  0  0  0  0  0
   40.4340   31.0990   38.0920 N   0  0  0  0  0  0  0  0  0  0  0  0
   41.2740   32.1690   38.0100 C   0  0  0  0  0  3  0  0  0  0  0  0
   42.3870   32.1020   37.2070 C   0  0  0  0  0  0  0  0  0  0  0  0
   43.1020   32.9060   37.0880 H   0  0  0  0  0  0  0  0  0  0  0  0
   42.5590   30.9120   36.5320 C   0  0  0  0  0  0  0  0  0  0  0  0
   43.5720   30.8090   35.7820 O   0  0  0  0  0  0  0  0  0  0  0  0
   41.7510   29.8390   36.5910 N   0  0  0  0  0  0  0  0  0  0  0  0
   40.6740   29.9550   37.3920 C   0  0  0  0  0  0  0  0  0  0  0  0
   39.8400   29.0350   37.5390 O   0  0  0  0  0  0  0  0  0  0  0  0
   41.9310   28.9720   36.0610 H   0  0  0  0  0  0  0  0  0  0  0  0
  1 24  1  0  0  0  0
  1  2  1  0  0  0  0
  1  6  1  1  0  0  0
  2  8  1  0  0  0  0
  3  2  1  0  0  0  0
  3  9  1  0  0  0  0
  4  5  1  0  0  0  0
  4  3  1  0  0  0  0
  5 11  1  6  0  0  0
  5  1  1  0  0  0  0
  7  2  1  0  0  0  0
 10  3  1  0  0  0  0
 12  5  1  0  0  0  0
 12 17  1  1  0  0  0
 13 19  1  0  0  0  0
 13 12  1  0  0  0  0
 14 15  1  0  0  0  0
 14 13  1  0  0  0  0
 15 16  1  0  0  0  0
 16 22  1  0  0  0  0
 16 12  1  0  0  0  0
 18 13  1  0  0  0  0
 20 14  1  0  0  0  0
 21 14  1  0  0  0  0
 23 16  1  0  0  0  0
 24 26  1  0  0  0  0
 24 25  1  0  0  0  0
 27 28  2  0  0  0  0
 28 24  1  0  0  0  0
 29 34  1  0  0  0  0
 30 31  1  0  0  0  0
 30 29  2  0  0  0  0
 31 32  2  0  0  0  0
 32 33  1  0  0  0  0
 33 27  1  0  0  0  0
 34 33  2  0  0  0  0
 35 29  1  0  0  0  0
 36 30  1  0  0  0  0
 37 31  1  0  0  0  0
 38 37  1  0  0  0  0
 39 38  2  0  0  0  0
 40 39  1  0  0  0  0
 41 43  1  0  0  0  0
 41 39  1  0  0  0  0
 42 41  2  0  0  0  0
 43 44  1  0  0  0  0
 44 45  2  0  0  0  0
 44 37  1  0  0  0  0
 46 43  1  0  0  0  0
M  END
>  <minimizedAffinity>
-5.82608509

$$$$

 OpenBabel03242513253D

 46 49  0  0  1  0  0  0  0  0999 V2000
   38.2420   26.1670   42.4250 C   0  0  2  0  0  0  0  0  0  0  0  0
   37.3000   24.9930   42.2210 C   0  0  0  0  0  0  0  0  0  0  0  0
   38.3520   23.9780   41.7870 C   0  0  0  0  0  0  0  0  0  0  0  0
   39.4280   24.2020   42.6130 O   0  0  0  0  0  0  0  0  0  0  0  0
   39.3710   25.4810   43.1030 C   0  0  1  0  0  0  0  0  0  0  0  0
   38.4640   26.5730   41.4230 H   0  0  0  0  0  0  0  0  0  0  0  0
   36.7910   24.7170   43.1600 H   0  0  0  0  0  0  0  0  0  0  0  0
   36.5940   25.2350   41.4050 H   0  0  0  0  0  0  0  0  0  0  0  0
   38.6070   24.2050   40.7350 H   0  0  0  0  0  0  0  0  0  0  0  0
   37.9030   22.9640   41.8900 H   0  0  0  0  0  0  0  0  0  0  0  0
   39.2230   25.5330   44.1990 H   0  0  0  0  0  0  0  0  0  0  0  0
   40.6740   26.1700   42.8180 C   0  0  1  0  0  0  0  0  0  0  0  0
   41.8470   25.2040   42.9720 C   0  0  0  0  0  0  0  0  0  0  0  0
   42.7010   25.5650   41.7880 C   0  0  0  0  0  0  0  0  0  0  0  0
   42.1850   26.7670   41.2810 O   0  0  0  0  0  0  0  0  0  0  0  0
   40.8090   26.5290   41.3470 C   0  0  0  0  0  0  0  0  0  0  0  0
   40.8370   27.0840   43.3900 H   0  0  0  0  0  0  0  0  0  0  0  0
   41.5220   24.1520   42.9470 H   0  0  0  0  0  0  0  0  0  0  0  0
   42.3840   25.4420   43.9300 H   0  0  0  0  0  0  0  0  0  0  0  0
   43.7610   25.6800   42.1000 H   0  0  0  0  0  0  0  0  0  0  0  0
   42.6010   24.7500   41.0310 H   0  0  0  0  0  0  0  0  0  0  0  0
   40.1940   27.3790   41.0400 H   0  0  0  0  0  0  0  0  0  0  0  0
   40.6700   25.6300   40.6870 H   0  0  0  0  0  0  0  0  0  0  0  0
   37.6230   27.2780   43.2140 C   0  0  0  0  0  0  0  0  0  0  0  0
   38.2840   27.5840   44.0710 H   0  0  0  0  0  0  0  0  0  0  0  0
   36.6550   26.9430   43.6320 H   0  0  0  0  0  0  0  0  0  0  0  0
   38.3220   29.2130   41.8910 C   0  0  0  0  0  3  0  0  0  0  0  0
   37.3620   28.4870   42.4090 C   0  0  0  0  0  3  0  0  0  0  0  0
   36.5580   31.9750   40.2900 C   0  0  0  0  0  0  0  0  0  0  0  0
   37.6150   32.6460   39.5890 C   0  0  0  0  0  0  0  0  0  0  0  0
   38.8880   32.0980   39.7130 C   0  0  0  0  0  0  0  0  0  0  0  0
   39.0850   30.9760   40.4720 N   0  0  0  0  0  0  0  0  0  0  0  0
   38.0450   30.3880   41.1110 C   0  0  0  0  0  0  0  0  0  0  0  0
   36.8080   30.8690   41.0270 N   0  0  0  0  0  0  0  0  0  0  0  0
   35.5680   32.3930   40.2000 H   0  0  0  0  0  0  0  0  0  0  0  0
   37.4510   33.5150   39.0030 H   0  0  0  0  0  0  0  0  0  0  0  0
   40.0100   32.6870   39.0570 N   0  0  0  0  0  0  0  0  0  0  0  0
   40.4420   32.1190   37.8960 C   0  0  0  0  0  3  0  0  0  0  0  0
   41.5190   32.6560   37.2330 C   0  0  0  0  0  0  0  0  0  0  0  0
   41.9220   32.2650   36.3090 H   0  0  0  0  0  0  0  0  0  0  0  0
   42.0870   33.7630   37.8270 C   0  0  0  0  0  0  0  0  0  0  0  0
   43.0820   34.2890   37.2480 O   0  0  0  0  0  0  0  0  0  0  0  0
   41.6860   34.3480   38.9690 N   0  0  0  0  0  0  0  0  0  0  0  0
   40.6260   33.7840   39.5800 C   0  0  0  0  0  0  0  0  0  0  0  0
   40.1500   34.2250   40.6490 O   0  0  0  0  0  0  0  0  0  0  0  0
   42.1520   35.1790   39.3670 H   0  0  0  0  0  0  0  0  0  0  0  0
  1  6  1  6  0  0  0
  1  5  1  0  0  0  0
  1 24  1  0  0  0  0
  2  1  1  0  0  0  0
  2  7  1  0  0  0  0
  3 10  1  0  0  0  0
  3  2  1  0  0  0  0
  3  4  1  0  0  0  0
  4  5  1  0  0  0  0
  5 11  1  1  0  0  0
  8  2  1  0  0  0  0
  9  3  1  0  0  0  0
 12 13  1  0  0  0  0
 12  5  1  0  0  0  0
 12 17  1  1  0  0  0
 13 19  1  0  0  0  0
 14 20  1  0  0  0  0
 14 13  1  0  0  0  0
 15 16  1  0  0  0  0
 15 14  1  0  0  0  0
 16 12  1  0  0  0  0
 18 13  1  0  0  0  0
 21 14  1  0  0  0  0
 22 16  1  0  0  0  0
 23 16  1  0  0  0  0
 24 26  1  0  0  0  0
 24 25  1  0  0  0  0
 27 28  2  0  0  0  0
 28 24  1  0  0  0  0
 29 34  1  0  0  0  0
 30 31  1  0  0  0  0
 30 29  2  0  0  0  0
 31 32  2  0  0  0  0
 32 33  1  0  0  0  0
 33 27  1  0  0  0  0
 34 33  2  0  0  0  0
 35 29  1  0  0  0  0
 36 30  1  0  0  0  0
 37 44  1  0  0  0  0
 37 31  1  0  0  0  0
 38 37  1  0  0  0  0
 39 41  1  0  0  0  0
 39 38  2  0  0  0  0
 40 39  1  0  0  0  0
 41 43  1  0  0  0  0
 42 41  2  0  0  0  0
 43 46  1  0  0  0  0
 43 44  1  0  0  0  0
 44 45  2  0  0  0  0
M  END
>  <minimizedAffinity>
-5.79008341

$$$$

 OpenBabel03242513253D

 46 49  0  0  1  0  0  0  0  0999 V2000
   38.6270   26.9620   43.3350 C   0  0  2  0  0  0  0  0  0  0  0  0
   40.1040   26.8740   43.6780 C   0  0  0  0  0  0  0  0  0  0  0  0
   40.3360   25.4590   43.1610 C   0  0  0  0  0  0  0  0  0  0  0  0
   39.6270   25.3850   41.9860 O   0  0  0  0  0  0  0  0  0  0  0  0
   38.6330   26.3300   41.9910 C   0  0  1  0  0  0  0  0  0  0  0  0
   38.0860   26.4060   44.1200 H   0  0  0  0  0  0  0  0  0  0  0  0
   40.6900   27.6360   43.1350 H   0  0  0  0  0  0  0  0  0  0  0  0
   40.2250   26.9420   44.7740 H   0  0  0  0  0  0  0  0  0  0  0  0
   39.9220   24.7650   43.9180 H   0  0  0  0  0  0  0  0  0  0  0  0
   41.4340   25.3220   43.0380 H   0  0  0  0  0  0  0  0  0  0  0  0
   38.7610   27.1150   41.2200 H   0  0  0  0  0  0  0  0  0  0  0  0
   37.3210   25.6590   41.7010 C   0  0  1  0  0  0  0  0  0  0  0  0
   36.8780   25.9240   40.2640 C   0  0  0  0  0  0  0  0  0  0  0  0
   36.3660   24.5730   39.8460 C   0  0  0  0  0  0  0  0  0  0  0  0
   36.2720   23.8070   41.0170 O   0  0  0  0  0  0  0  0  0  0  0  0
   37.4610   24.1460   41.6680 C   0  0  0  0  0  0  0  0  0  0  0  0
   36.5270   25.8960   42.4100 H   0  0  0  0  0  0  0  0  0  0  0  0
   37.7120   26.2690   39.6320 H   0  0  0  0  0  0  0  0  0  0  0  0
   36.0420   26.6740   40.2790 H   0  0  0  0  0  0  0  0  0  0  0  0
   35.3790   24.6750   39.3480 H   0  0  0  0  0  0  0  0  0  0  0  0
   37.1140   24.1250   39.1470 H   0  0  0  0  0  0  0  0  0  0  0  0
   37.5750   23.6900   42.6550 H   0  0  0  0  0  0  0  0  0  0  0  0
   38.2550   23.8190   40.9430 H   0  0  0  0  0  0  0  0  0  0  0  0
   38.1070   28.3650   43.3620 C   0  0  0  0  0  0  0  0  0  0  0  0
   38.6940   29.0020   44.0800 H   0  0  0  0  0  0  0  0  0  0  0  0
   37.0500   28.3640   43.6930 H   0  0  0  0  0  0  0  0  0  0  0  0
   37.1360   29.6760   41.5400 C   0  0  0  0  0  3  0  0  0  0  0  0
   38.1570   29.0290   42.0460 C   0  0  0  0  0  3  0  0  0  0  0  0
   37.6560   32.1720   38.9320 C   0  0  0  0  0  0  0  0  0  0  0  0
   37.3110   31.4470   37.7430 C   0  0  0  0  0  0  0  0  0  0  0  0
   36.9150   30.1240   37.9150 C   0  0  0  0  0  0  0  0  0  0  0  0
   36.8690   29.5760   39.1680 N   0  0  0  0  0  0  0  0  0  0  0  0
   37.2080   30.3140   40.2540 C   0  0  0  0  0  0  0  0  0  0  0  0
   37.5920   31.5820   40.1470 N   0  0  0  0  0  0  0  0  0  0  0  0
   37.9630   33.1980   38.8080 H   0  0  0  0  0  0  0  0  0  0  0  0
   37.3510   31.8810   36.7760 H   0  0  0  0  0  0  0  0  0  0  0  0
   36.5520   29.3130   36.7980 N   0  0  0  0  0  0  0  0  0  0  0  0
   35.2500   29.3230   36.3990 C   0  0  0  0  0  3  0  0  0  0  0  0
   34.8590   28.5560   35.3280 C   0  0  0  0  0  0  0  0  0  0  0  0
   33.8460   28.5090   34.9500 H   0  0  0  0  0  0  0  0  0  0  0  0
   35.8590   27.8170   34.7330 C   0  0  0  0  0  0  0  0  0  0  0  0
   35.5410   27.0970   33.7420 O   0  0  0  0  0  0  0  0  0  0  0  0
   37.1520   27.7850   35.1010 N   0  0  0  0  0  0  0  0  0  0  0  0
   37.4840   28.5540   36.1560 C   0  0  0  0  0  0  0  0  0  0  0  0
   38.6500   28.6180   36.6040 O   0  0  0  0  0  0  0  0  0  0  0  0
   37.8590   27.2100   34.6150 H   0  0  0  0  0  0  0  0  0  0  0  0
  1 24  1  0  0  0  0
  1  2  1  0  0  0  0
  1  6  1  1  0  0  0
  2  8  1  0  0  0  0
  3  2  1  0  0  0  0
  3  9  1  0  0  0  0
  4  5  1  0  0  0  0
  4  3  1  0  0  0  0
  5 11  1  6  0  0  0
  5  1  1  0  0  0  0
  7  2  1  0  0  0  0
 10  3  1  0  0  0  0
 12  5  1  0  0  0  0
 12 17  1  1  0  0  0
 13 19  1  0  0  0  0
 13 12  1  0  0  0  0
 14 13  1  0  0  0  0
 14 15  1  0  0  0  0
 15 16  1  0  0  0  0
 16 12  1  0  0  0  0
 16 22  1  0  0  0  0
 18 13  1  0  0  0  0
 20 14  1  0  0  0  0
 21 14  1  0  0  0  0
 23 16  1  0  0  0  0
 24 26  1  0  0  0  0
 24 25  1  0  0  0  0
 27 28  2  0  0  0  0
 28 24  1  0  0  0  0
 29 34  1  0  0  0  0
 30 31  1  0  0  0  0
 30 29  2  0  0  0  0
 31 32  2  0  0  0  0
 32 33  1  0  0  0  0
 33 27  1  0  0  0  0
 34 33  2  0  0  0  0
 35 29  1  0  0  0  0
 36 30  1  0  0  0  0
 37 31  1  0  0  0  0
 38 37  1  0  0  0  0
 39 38  2  0  0  0  0
 40 39  1  0  0  0  0
 41 43  1  0  0  0  0
 41 39  1  0  0  0  0
 42 41  2  0  0  0  0
 43 44  1  0  0  0  0
 44 45  2  0  0  0  0
 44 37  1  0  0  0  0
 46 43  1  0  0  0  0
M  END
>  <minimizedAffinity>
-5.68049526

$$$$

 OpenBabel03242513253D

 46 49  0  0  1  0  0  0  0  0999 V2000
   39.8290   26.0480   43.1560 C   0  0  2  0  0  0  0  0  0  0  0  0
   41.2470   26.5350   42.9130 C   0  0  0  0  0  0  0  0  0  0  0  0
   41.7040   25.3660   42.0480 C   0  0  0  0  0  0  0  0  0  0  0  0
   40.6390   25.0910   41.2240 O   0  0  0  0  0  0  0  0  0  0  0  0
   39.4840   25.5600   41.7970 C   0  0  1  0  0  0  0  0  0  0  0  0
   39.8890   25.2730   43.9390 H   0  0  0  0  0  0  0  0  0  0  0  0
   41.2550   27.5000   42.3790 H   0  0  0  0  0  0  0  0  0  0  0  0
   41.7850   26.5740   43.8780 H   0  0  0  0  0  0  0  0  0  0  0  0
   41.9070   24.5170   42.7290 H   0  0  0  0  0  0  0  0  0  0  0  0
   42.6240   25.6870   41.5090 H   0  0  0  0  0  0  0  0  0  0  0  0
   39.0030   26.3780   41.2270 H   0  0  0  0  0  0  0  0  0  0  0  0
   38.4840   24.4410   41.8590 C   0  0  1  0  0  0  0  0  0  0  0  0
   37.0730   24.9530   41.5750 C   0  0  0  0  0  0  0  0  0  0  0  0
   36.5280   23.8710   40.6830 C   0  0  0  0  0  0  0  0  0  0  0  0
   37.4310   22.8010   40.7630 O   0  0  0  0  0  0  0  0  0  0  0  0
   38.6580   23.4670   40.7060 C   0  0  0  0  0  0  0  0  0  0  0  0
   38.5150   23.8590   42.7820 H   0  0  0  0  0  0  0  0  0  0  0  0
   37.0830   25.9370   41.0800 H   0  0  0  0  0  0  0  0  0  0  0  0
   36.5030   24.9900   42.5420 H   0  0  0  0  0  0  0  0  0  0  0  0
   35.5140   23.5710   41.0220 H   0  0  0  0  0  0  0  0  0  0  0  0
   36.4910   24.2720   39.6420 H   0  0  0  0  0  0  0  0  0  0  0  0
   39.5270   22.8120   40.8060 H   0  0  0  0  0  0  0  0  0  0  0  0
   38.6210   23.9920   39.7120 H   0  0  0  0  0  0  0  0  0  0  0  0
   38.9270   27.1220   43.6800 C   0  0  0  0  0  0  0  0  0  0  0  0
   39.4580   27.7640   44.4360 H   0  0  0  0  0  0  0  0  0  0  0  0
   38.0510   26.6630   44.1770 H   0  0  0  0  0  0  0  0  0  0  0  0
   38.7450   29.2850   42.5530 C   0  0  0  0  0  3  0  0  0  0  0  0
   38.4180   28.0180   42.6250 C   0  0  0  0  0  3  0  0  0  0  0  0
   38.0840   32.2210   40.4920 C   0  0  0  0  0  0  0  0  0  0  0  0
   37.2010   31.6970   39.4900 C   0  0  0  0  0  0  0  0  0  0  0  0
   36.8840   30.3460   39.5870 C   0  0  0  0  0  0  0  0  0  0  0  0
   37.4050   29.5860   40.5990 N   0  0  0  0  0  0  0  0  0  0  0  0
   38.2350   30.1400   41.5170 C   0  0  0  0  0  0  0  0  0  0  0  0
   38.5700   31.4260   41.4720 N   0  0  0  0  0  0  0  0  0  0  0  0
   38.3340   33.2670   40.4250 H   0  0  0  0  0  0  0  0  0  0  0  0
   36.8030   32.2950   38.7090 H   0  0  0  0  0  0  0  0  0  0  0  0
   36.0150   29.7230   38.6410 N   0  0  0  0  0  0  0  0  0  0  0  0
   36.3990   29.7120   37.3340 C   0  0  0  0  0  3  0  0  0  0  0  0
   35.5910   29.1230   36.3910 C   0  0  0  0  0  0  0  0  0  0  0  0
   35.8240   29.0720   35.3350 H   0  0  0  0  0  0  0  0  0  0  0  0
   34.4210   28.5770   36.8720 C   0  0  0  0  0  0  0  0  0  0  0  0
   33.6490   28.0240   36.0370 O   0  0  0  0  0  0  0  0  0  0  0  0
   34.0130   28.5700   38.1540 N   0  0  0  0  0  0  0  0  0  0  0  0
   34.8400   29.1600   39.0380 C   0  0  0  0  0  0  0  0  0  0  0  0
   34.5840   29.2260   40.2600 O   0  0  0  0  0  0  0  0  0  0  0  0
   33.1230   28.1440   38.4560 H   0  0  0  0  0  0  0  0  0  0  0  0
  1 24  1  0  0  0  0
  1  6  1  1  0  0  0
  2  1  1  0  0  0  0
  2  8  1  0  0  0  0
  3  9  1  0  0  0  0
  3  2  1  0  0  0  0
  4  5  1  0  0  0  0
  4  3  1  0  0  0  0
  5 11  1  6  0  0  0
  5 12  1  0  0  0  0
  5  1  1  0  0  0  0
  7  2  1  0  0  0  0
 10  3  1  0  0  0  0
 12 17  1  1  0  0  0
 13 12  1  0  0  0  0
 13 19  1  0  0  0  0
 14 15  1  0  0  0  0
 14 20  1  0  0  0  0
 14 13  1  0  0  0  0
 16 15  1  0  0  0  0
 16 22  1  0  0  0  0
 16 12  1  0  0  0  0
 18 13  1  0  0  0  0
 21 14  1  0  0  0  0
 23 16  1  0  0  0  0
 24 26  1  0  0  0  0
 24 25  1  0  0  0  0
 27 28  2  0  0  0  0
 28 24  1  0  0  0  0
 29 34  1  0  0  0  0
 30 31  1  0  0  0  0
 30 29  2  0  0  0  0
 31 32  2  0  0  0  0
 32 33  1  0  0  0  0
 33 27  1  0  0  0  0
 34 33  2  0  0  0  0
 35 29  1  0  0  0  0
 36 30  1  0  0  0  0
 37 44  1  0  0  0  0
 37 31  1  0  0  0  0
 38 37  1  0  0  0  0
 39 41  1  0  0  0  0
 39 38  2  0  0  0  0
 40 39  1  0  0  0  0
 41 43  1  0  0  0  0
 42 41  2  0  0  0  0
 43 46  1  0  0  0  0
 43 44  1  0  0  0  0
 44 45  2  0  0  0  0
M  END
>  <minimizedAffinity>
-5.67396832

$$$$

 OpenBabel03242513253D

 46 49  0  0  1  0  0  0  0  0999 V2000
   35.3980   23.8370   38.8220 C   0  0  2  0  0  0  0  0  0  0  0  0
   34.5550   22.5960   39.0660 C   0  0  0  0  0  0  0  0  0  0  0  0
   33.6330   22.7530   37.8620 C   0  0  0  0  0  0  0  0  0  0  0  0
   34.4500   23.1610   36.8340 O   0  0  0  0  0  0  0  0  0  0  0  0
   35.5780   23.7450   37.3510 C   0  0  1  0  0  0  0  0  0  0  0  0
   34.8040   24.6970   39.1760 H   0  0  0  0  0  0  0  0  0  0  0  0
   35.1680   21.6790   39.0270 H   0  0  0  0  0  0  0  0  0  0  0  0
   34.0140   22.7100   40.0220 H   0  0  0  0  0  0  0  0  0  0  0  0
   32.8960   23.5380   38.1170 H   0  0  0  0  0  0  0  0  0  0  0  0
   33.1390   21.7700   37.6870 H   0  0  0  0  0  0  0  0  0  0  0  0
   36.5090   23.1860   37.1330 H   0  0  0  0  0  0  0  0  0  0  0  0
   35.7450   25.1060   36.7390 C   0  0  1  0  0  0  0  0  0  0  0  0
   35.0480   26.1730   37.5810 C   0  0  0  0  0  0  0  0  0  0  0  0
   36.0570   27.2880   37.5600 C   0  0  0  0  0  0  0  0  0  0  0  0
   36.9990   26.9500   36.5770 O   0  0  0  0  0  0  0  0  0  0  0  0
   37.1840   25.5870   36.8260 C   0  0  0  0  0  0  0  0  0  0  0  0
   35.4450   25.1700   35.6920 H   0  0  0  0  0  0  0  0  0  0  0  0
   34.8370   25.8200   38.6020 H   0  0  0  0  0  0  0  0  0  0  0  0
   34.1060   26.4850   37.0550 H   0  0  0  0  0  0  0  0  0  0  0  0
   35.5570   28.2520   37.3260 H   0  0  0  0  0  0  0  0  0  0  0  0
   36.5420   27.3310   38.5650 H   0  0  0  0  0  0  0  0  0  0  0  0
   37.8610   25.0930   36.1240 H   0  0  0  0  0  0  0  0  0  0  0  0
   37.5650   25.5670   37.8840 H   0  0  0  0  0  0  0  0  0  0  0  0
   36.6710   23.8380   39.6080 C   0  0  0  0  0  0  0  0  0  0  0  0
   37.5650   23.9390   38.9320 H   0  0  0  0  0  0  0  0  0  0  0  0
   36.7680   22.8840   40.1610 H   0  0  0  0  0  0  0  0  0  0  0  0
   37.5970   25.9200   40.4950 C   0  0  0  0  0  3  0  0  0  0  0  0
   36.7430   24.9310   40.5950 C   0  0  0  0  0  3  0  0  0  0  0  0
   37.6520   27.6980   43.6800 C   0  0  0  0  0  0  0  0  0  0  0  0
   37.7580   29.0660   43.2630 C   0  0  0  0  0  0  0  0  0  0  0  0
   37.8040   29.2960   41.8910 C   0  0  0  0  0  0  0  0  0  0  0  0
   37.7500   28.2470   41.0140 N   0  0  0  0  0  0  0  0  0  0  0  0
   37.6500   26.9740   41.4710 C   0  0  0  0  0  0  0  0  0  0  0  0
   37.6000   26.6980   42.7710 N   0  0  0  0  0  0  0  0  0  0  0  0
   37.6140   27.5110   44.7410 H   0  0  0  0  0  0  0  0  0  0  0  0
   37.8000   29.8730   43.9510 H   0  0  0  0  0  0  0  0  0  0  0  0
   37.9110   30.6200   41.3690 N   0  0  0  0  0  0  0  0  0  0  0  0
   39.1410   31.2050   41.3590 C   0  0  0  0  0  3  0  0  0  0  0  0
   39.2870   32.4790   40.8650 C   0  0  0  0  0  0  0  0  0  0  0  0
   40.2270   33.0120   40.8220 H   0  0  0  0  0  0  0  0  0  0  0  0
   38.1290   33.0720   40.4070 C   0  0  0  0  0  0  0  0  0  0  0  0
   38.2190   34.2460   39.9440 O   0  0  0  0  0  0  0  0  0  0  0  0
   36.9010   32.5230   40.4020 N   0  0  0  0  0  0  0  0  0  0  0  0
   36.8120   31.2740   40.8970 C   0  0  0  0  0  0  0  0  0  0  0  0
   35.7320   30.6460   40.9530 O   0  0  0  0  0  0  0  0  0  0  0  0
   36.0680   33.0180   40.0450 H   0  0  0  0  0  0  0  0  0  0  0  0
  1  2  1  0  0  0  0
  1  6  1  1  0  0  0
  1 24  1  0  0  0  0
  2  8  1  0  0  0  0
  3  9  1  0  0  0  0
  3  2  1  0  0  0  0
  4  5  1  0  0  0  0
  4  3  1  0  0  0  0
  5 11  1  6  0  0  0
  5  1  1  0  0  0  0
  7  2  1  0  0  0  0
 10  3  1  0  0  0  0
 12 17  1  6  0  0  0
 12 16  1  0  0  0  0
 12  5  1  0  0  0  0
 12 13  1  0  0  0  0
 13 18  1  0  0  0  0
 14 13  1  0  0  0  0
 14 21  1  0  0  0  0
 15 16  1  0  0  0  0
 15 14  1  0  0  0  0
 16 23  1  0  0  0  0
 19 13  1  0  0  0  0
 20 14  1  0  0  0  0
 22 16  1  0  0  0  0
 24 26  1  0  0  0  0
 24 28  1  0  0  0  0
 25 24  1  0  0  0  0
 27 28  2  0  0  0  0
 27 33  1  0  0  0  0
 29 35  1  0  0  0  0
 30 29  1  0  0  0  0
 30 36  1  0  0  0  0
 31 30  2  0  0  0  0
 32 33  2  0  0  0  0
 32 31  1  0  0  0  0
 33 34  1  0  0  0  0
 34 29  2  0  0  0  0
 37 31  1  0  0  0  0
 38 37  1  0  0  0  0
 39 38  2  0  0  0  0
 40 39  1  0  0  0  0
 41 39  1  0  0  0  0
 42 41  2  0  0  0  0
 43 41  1  0  0  0  0
 43 44  1  0  0  0  0
 44 45  2  0  0  0  0
 44 37  1  0  0  0  0
 46 43  1  0  0  0  0
M  END
>  <minimizedAffinity>
-5.61672401

$$$$

 OpenBabel03242513253D

 46 49  0  0  1  0  0  0  0  0999 V2000
   39.2940   31.6770   40.8790 C   0  0  2  0  0  0  0  0  0  0  0  0
   40.3710   32.7360   40.7190 C   0  0  0  0  0  0  0  0  0  0  0  0
   39.8060   33.3930   39.4650 C   0  0  0  0  0  0  0  0  0  0  0  0
   38.4470   33.4410   39.6660 O   0  0  0  0  0  0  0  0  0  0  0  0
   38.0860   32.4850   40.5800 C   0  0  1  0  0  0  0  0  0  0  0  0
   39.5250   30.8780   40.1540 H   0  0  0  0  0  0  0  0  0  0  0  0
   40.4010   33.4150   41.5890 H   0  0  0  0  0  0  0  0  0  0  0  0
   41.3400   32.2400   40.5280 H   0  0  0  0  0  0  0  0  0  0  0  0
   40.0570   32.7350   38.6120 H   0  0  0  0  0  0  0  0  0  0  0  0
   40.2850   34.3940   39.3640 H   0  0  0  0  0  0  0  0  0  0  0  0
   37.6830   32.9010   41.5240 H   0  0  0  0  0  0  0  0  0  0  0  0
   36.9970   31.6350   39.9910 C   0  0  1  0  0  0  0  0  0  0  0  0
   37.5830   30.4520   39.2230 C   0  0  0  0  0  0  0  0  0  0  0  0
   36.6700   29.3320   39.6400 C   0  0  0  0  0  0  0  0  0  0  0  0
   35.5780   29.9320   40.2850 O   0  0  0  0  0  0  0  0  0  0  0  0
   36.2140   30.9000   41.0670 C   0  0  0  0  0  0  0  0  0  0  0  0
   36.2760   32.1830   39.3830 H   0  0  0  0  0  0  0  0  0  0  0  0
   38.6320   30.2610   39.4970 H   0  0  0  0  0  0  0  0  0  0  0  0
   37.4800   30.6530   38.1220 H   0  0  0  0  0  0  0  0  0  0  0  0
   36.3450   28.7510   38.7510 H   0  0  0  0  0  0  0  0  0  0  0  0
   37.2320   28.6800   40.3520 H   0  0  0  0  0  0  0  0  0  0  0  0
   35.5290   31.5390   41.6310 H   0  0  0  0  0  0  0  0  0  0  0  0
   36.8900   30.2940   41.7300 H   0  0  0  0  0  0  0  0  0  0  0  0
   39.3010   31.0430   42.2350 C   0  0  0  0  0  0  0  0  0  0  0  0
   38.3280   31.2210   42.7710 H   0  0  0  0  0  0  0  0  0  0  0  0
   40.1130   31.4800   42.8470 H   0  0  0  0  0  0  0  0  0  0  0  0
   38.7660   28.7380   42.8570 C   0  0  0  0  0  3  0  0  0  0  0  0
   39.5160   29.5840   42.1930 C   0  0  0  0  0  3  0  0  0  0  0  0
   40.0080   25.3950   43.6190 C   0  0  0  0  0  0  0  0  0  0  0  0
   39.3710   24.5960   42.6120 C   0  0  0  0  0  0  0  0  0  0  0  0
   38.5420   25.2680   41.7190 C   0  0  0  0  0  0  0  0  0  0  0  0
   38.3650   26.6210   41.8260 N   0  0  0  0  0  0  0  0  0  0  0  0
   38.9960   27.3210   42.8020 C   0  0  0  0  0  0  0  0  0  0  0  0
   39.8000   26.7290   43.6800 N   0  0  0  0  0  0  0  0  0  0  0  0
   40.6540   24.8820   44.3140 H   0  0  0  0  0  0  0  0  0  0  0  0
   39.5140   23.5480   42.5370 H   0  0  0  0  0  0  0  0  0  0  0  0
   37.8590   24.5690   40.6790 N   0  0  0  0  0  0  0  0  0  0  0  0
   36.5840   24.1540   40.9200 C   0  0  0  0  0  3  0  0  0  0  0  0
   35.8910   23.4770   39.9450 C   0  0  0  0  0  0  0  0  0  0  0  0
   34.8780   23.1150   40.0570 H   0  0  0  0  0  0  0  0  0  0  0  0
   36.5770   23.2720   38.7660 C   0  0  0  0  0  0  0  0  0  0  0  0
   35.9740   22.6530   37.8420 O   0  0  0  0  0  0  0  0  0  0  0  0
   37.8330   23.6680   38.4960 N   0  0  0  0  0  0  0  0  0  0  0  0
   38.4680   24.3270   39.4840 C   0  0  0  0  0  0  0  0  0  0  0  0
   39.6390   24.7510   39.3680 O   0  0  0  0  0  0  0  0  0  0  0  0
   38.2960   23.4850   37.5920 H   0  0  0  0  0  0  0  0  0  0  0  0
  1  6  1  6  0  0  0
  1 24  1  0  0  0  0
  2  1  1  0  0  0  0
  2  7  1  0  0  0  0
  3  4  1  0  0  0  0
  3  2  1  0  0  0  0
  4  5  1  0  0  0  0
  5  1  1  0  0  0  0
  5 11  1  1  0  0  0
  8  2  1  0  0  0  0
  9  3  1  0  0  0  0
 10  3  1  0  0  0  0
 12 17  1  6  0  0  0
 12  5  1  0  0  0  0
 12 16  1  0  0  0  0
 13 18  1  0  0  0  0
 13 14  1  0  0  0  0
 13 12  1  0  0  0  0
 14 15  1  0  0  0  0
 14 21  1  0  0  0  0
 15 16  1  0  0  0  0
 16 22  1  0  0  0  0
 16 23  1  0  0  0  0
 19 13  1  0  0  0  0
 20 14  1  0  0  0  0
 24 25  1  0  0  0  0
 24 26  1  0  0  0  0
 28 24  1  0  0  0  0
 28 27  2  0  0  0  0
 29 34  1  0  0  0  0
 29 35  1  0  0  0  0
 30 29  2  0  0  0  0
 31 32  2  0  0  0  0
 31 30  1  0  0  0  0
 32 33  1  0  0  0  0
 33 27  1  0  0  0  0
 33 34  2  0  0  0  0
 36 30  1  0  0  0  0
 37 38  1  0  0  0  0
 37 31  1  0  0  0  0
 39 40  1  0  0  0  0
 39 38  2  0  0  0  0
 41 39  1  0  0  0  0
 42 41  2  0  0  0  0
 43 41  1  0  0  0  0
 43 44  1  0  0  0  0
 44 37  1  0  0  0  0
 45 44  2  0  0  0  0
 46 43  1  0  0  0  0
M  END
>  <minimizedAffinity>
-5.57818031

$$$$
