
 OpenBabel03252507463D

 38 40  0  0  0  0  0  0  0  0999 V2000
   47.4140   34.3900   40.4050 C   0  0  0  0  0  0  0  0  0  0  0  0
   47.9010   35.3200   40.0850 H   0  0  0  0  0  0  0  0  0  0  0  0
   46.6270   34.1490   39.6740 H   0  0  0  0  0  0  0  0  0  0  0  0
   48.4340   33.3270   40.4950 C   0  0  0  0  0  0  0  0  0  0  0  0
   48.2920   32.2570   39.6290 C   0  0  0  0  0  0  0  0  0  0  0  0
   49.1900   31.2020   39.6250 C   0  0  0  0  0  0  0  0  0  0  0  0
   50.2280   31.2810   40.5280 N   0  0  0  0  0  0  0  0  0  0  0  0
   50.3300   32.3400   41.3530 C   0  0  0  0  0  0  0  0  0  0  0  0
   49.4540   33.3380   41.3370 N   0  0  0  0  0  0  0  0  0  0  0  0
   49.1010   30.3650   38.9650 H   0  0  0  0  0  0  0  0  0  0  0  0
   51.1360   32.4330   42.0790 H   0  0  0  0  0  0  0  0  0  0  0  0
   46.9080   32.1980   38.4560 S   0  0  0  0  0  0  0  0  0  0  0  0
   48.5400   30.1450   34.3380 H   0  0  0  0  0  0  0  0  0  0  0  0
   48.4470   31.0330   34.8840 N   0  0  0  0  0  0  0  0  0  0  0  0
   47.8410   30.9260   36.0640 C   0  0  0  0  0  3  0  0  0  0  0  0
   47.6820   32.0470   36.8350 C   0  0  0  0  0  0  0  0  0  0  0  0
   48.1520   33.2740   36.3800 C   0  0  0  0  0  0  0  0  0  0  0  0
   48.0700   34.3890   36.9950 O   0  0  0  0  0  0  0  0  0  0  0  0
   48.7680   33.3530   35.1710 N   0  0  0  0  0  0  0  0  0  0  0  0
   48.9100   32.2260   34.4330 C   0  0  0  0  0  0  0  0  0  0  0  0
   49.4670   32.2340   33.3120 O   0  0  0  0  0  0  0  0  0  0  0  0
   49.1350   34.2610   34.7960 H   0  0  0  0  0  0  0  0  0  0  0  0
   46.7120   34.6440   41.7140 C   0  0  0  0  0  0  0  0  0  0  0  0
   47.0340   33.8910   42.4610 H   0  0  0  0  0  0  0  0  0  0  0  0
   47.0670   35.6320   42.1050 H   0  0  0  0  0  0  0  0  0  0  0  0
   45.2400   34.7750   41.5900 C   0  0  0  0  0  0  0  0  0  0  0  0
   44.5230   35.5770   42.5350 C   0  0  0  0  0  0  0  0  0  0  0  0
   42.7860   35.4280   41.9710 S   0  0  0  0  0  0  0  0  0  0  0  0
   43.3210   34.2980   40.5390 C   0  0  0  0  0  0  0  0  0  0  0  0
   44.4500   34.2440   40.7000 N   0  0  0  0  0  0  0  0  0  0  0  0
   44.9300   36.1280   43.3700 H   0  0  0  0  0  0  0  0  0  0  0  0
   42.4250   33.7630   39.6250 O   0  0  0  0  0  0  0  0  0  0  0  0
   40.5980   34.1020   37.7360 O   0  0  0  0  0  0  0  0  0  0  0  0
   41.6020   34.8560   38.6060 P   0  0  0  0  0  0  0  0  0  0  0  0
   40.7640   35.9430   39.5900 O   0  0  0  0  0  0  0  0  0  0  0  0
   40.3110   36.6110   39.0150 H   0  0  0  0  0  0  0  0  0  0  0  0
   42.7110   35.6980   37.6480 O   0  0  0  0  0  0  0  0  0  0  0  0
   42.8710   35.2390   36.8020 H   0  0  0  0  0  0  0  0  0  0  0  0
  1  4  1  0  0  0  0
  1 23  1  0  0  0  0
  2  1  1  0  0  0  0
  3  1  1  0  0  0  0
  4  9  1  0  0  0  0
  5  4  2  0  0  0  0
  6  5  1  0  0  0  0
  6  7  2  0  0  0  0
  7  8  1  0  0  0  0
  8 11  1  0  0  0  0
  9  8  2  0  0  0  0
 10  6  1  0  0  0  0
 12  5  1  0  0  0  0
 13 14  1  0  0  0  0
 14 15  1  0  0  0  0
 15 16  2  0  0  0  0
 16 12  1  0  0  0  0
 17 16  1  0  0  0  0
 17 18  2  0  0  0  0
 19 17  1  0  0  0  0
 20 14  1  0  0  0  0
 20 19  1  0  0  0  0
 21 20  2  0  0  0  0
 22 19  1  0  0  0  0
 23 25  1  0  0  0  0
 23 24  1  0  0  0  0
 26 23  1  0  0  0  0
 26 27  2  0  0  0  0
 27 31  1  0  0  0  0
 28 27  1  0  0  0  0
 29 30  2  0  0  0  0
 29 28  1  0  0  0  0
 30 26  1  0  0  0  0
 32 29  1  0  0  0  0
 33 34  2  0  0  0  0
 34 35  1  0  0  0  0
 34 32  1  0  0  0  0
 36 35  1  0  0  0  0
 37 34  1  0  0  0  0
 38 37  1  0  0  0  0
M  END
>  <minimizedAffinity>
-5.3253994

>  <minimizedRMSD>
1.38789427

$$$$
