
 OpenBabel03252508253D

 42 46  0  0  1  0  0  0  0  0999 V2000
   46.3900   32.3030   46.1610 C   0  0  1  0  0  0  0  0  0  0  0  0
   46.7310   32.5540   47.5680 C   0  0  0  0  0  0  0  0  0  0  0  0
   45.3990   31.8410   47.1100 C   0  0  2  0  0  0  0  0  0  0  0  0
   47.2660   31.6850   45.7480 H   0  0  0  0  0  0  0  0  0  0  0  0
   46.5860   33.5280   48.0440 H   0  0  0  0  0  0  0  0  0  0  0  0
   47.3190   31.8570   48.1950 H   0  0  0  0  0  0  0  0  0  0  0  0
   44.5870   32.5000   47.5530 H   0  0  0  0  0  0  0  0  0  0  0  0
   45.1670   30.4410   47.4800 C   0  0  0  0  0  0  0  0  0  0  0  0
   45.0620   29.9180   48.7310 C   0  0  0  0  0  0  0  0  0  0  0  0
   44.9710   28.5700   49.0430 C   0  0  0  0  0  0  0  0  0  0  0  0
   44.9900   27.6760   47.9620 C   0  0  0  0  0  0  0  0  0  0  0  0
   45.0930   28.1870   46.6690 C   0  0  0  0  0  0  0  0  0  0  0  0
   45.0450   27.2720   45.6360 C   0  0  0  0  0  0  0  0  0  0  0  0
   45.0720   27.7390   44.3230 C   0  0  0  0  0  0  0  0  0  0  0  0
   45.1440   29.0920   44.0510 C   0  0  0  0  0  0  0  0  0  0  0  0
   45.1920   29.9500   45.1250 C   0  0  0  0  0  0  0  0  0  0  0  0
   45.1760   29.5380   46.4480 C   0  0  0  0  0  0  0  0  0  0  0  0
   45.0530   30.6530   49.5400 H   0  0  0  0  0  0  0  0  0  0  0  0
   44.8900   28.2120   50.0400 H   0  0  0  0  0  0  0  0  0  0  0  0
   44.9240   26.6230   48.1680 H   0  0  0  0  0  0  0  0  0  0  0  0
   44.9860   26.2060   45.8710 H   0  0  0  0  0  0  0  0  0  0  0  0
   45.0310   26.9190   43.5860 H   0  0  0  0  0  0  0  0  0  0  0  0
   45.1500   29.2420   43.0020 H   0  0  0  0  0  0  0  0  0  0  0  0
   45.1570   30.9030   44.6790 H   0  0  0  0  0  0  0  0  0  0  0  0
   44.8780   35.3990   44.8330 C   0  0  0  0  0  0  0  0  0  0  0  0
   45.4010   35.4430   43.4930 C   0  0  0  0  0  0  0  0  0  0  0  0
   46.2850   34.3920   43.0890 C   0  0  0  0  0  0  0  0  0  0  0  0
   46.5900   33.4130   43.9670 N   0  0  0  0  0  0  0  0  0  0  0  0
   46.0530   33.4280   45.2380 C   0  0  0  0  0  0  0  0  0  0  0  0
   45.2290   34.3870   45.6520 N   0  0  0  0  0  0  0  0  0  0  0  0
   44.2220   36.2250   45.0560 H   0  0  0  0  0  0  0  0  0  0  0  0
   45.1590   36.2210   42.7930 H   0  0  0  0  0  0  0  0  0  0  0  0
   46.8100   34.4230   41.7680 N   0  0  0  0  0  0  0  0  0  0  0  0
   48.0000   35.0410   41.6450 C   0  0  0  0  0  3  0  0  0  0  0  0
   48.6120   35.1330   40.4090 C   0  0  0  0  0  0  0  0  0  0  0  0
   49.5720   35.6250   40.2810 H   0  0  0  0  0  0  0  0  0  0  0  0
   48.0000   34.5890   39.2900 C   0  0  0  0  0  0  0  0  0  0  0  0
   48.5460   34.6670   38.1580 O   0  0  0  0  0  0  0  0  0  0  0  0
   46.8120   33.9840   39.4750 N   0  0  0  0  0  0  0  0  0  0  0  0
   46.2160   33.8940   40.6820 C   0  0  0  0  0  0  0  0  0  0  0  0
   45.1050   33.3300   40.8670 O   0  0  0  0  0  0  0  0  0  0  0  0
   46.3460   33.5750   38.6500 H   0  0  0  0  0  0  0  0  0  0  0  0
  1  4  1  6  0  0  0
  1  3  1  0  0  0  0
  1  2  1  0  0  0  0
  2  5  1  0  0  0  0
  2  6  1  0  0  0  0
  3  8  1  0  0  0  0
  3  7  1  1  0  0  0
  3  2  1  0  0  0  0
  8  9  1  0  0  0  0
  9 10  2  0  0  0  0
  9 18  1  0  0  0  0
 10 19  1  0  0  0  0
 11 20  1  0  0  0  0
 11 10  1  0  0  0  0
 12 11  2  0  0  0  0
 13 21  1  0  0  0  0
 13 12  1  0  0  0  0
 14 13  2  0  0  0  0
 15 14  1  0  0  0  0
 15 16  2  0  0  0  0
 16 17  1  0  0  0  0
 17 12  1  0  0  0  0
 17  8  2  0  0  0  0
 22 14  1  0  0  0  0
 23 15  1  0  0  0  0
 24 16  1  0  0  0  0
 25 31  1  0  0  0  0
 25 30  1  0  0  0  0
 26 25  2  0  0  0  0
 27 26  1  0  0  0  0
 27 28  2  0  0  0  0
 28 29  1  0  0  0  0
 29 30  2  0  0  0  0
 29  1  1  0  0  0  0
 32 26  1  0  0  0  0
 33 27  1  0  0  0  0
 34 33  1  0  0  0  0
 35 34  2  0  0  0  0
 36 35  1  0  0  0  0
 37 39  1  0  0  0  0
 37 35  1  0  0  0  0
 38 37  2  0  0  0  0
 39 40  1  0  0  0  0
 40 41  2  0  0  0  0
 40 33  1  0  0  0  0
 42 39  1  0  0  0  0
M  END
>  <minimizedAffinity>
-6.0340066

>  <minimizedRMSD>
0.746790648

$$$$
