
 OpenBabel03242521063D

 35 38  0  0  1  0  0  0  0  0999 V2000
   38.5660   24.9560   42.0050 C   0  0  0  0  0  0  0  0  0  0  0  0
   39.5270   24.4780   42.8740 C   0  0  0  0  0  0  0  0  0  0  0  0
   40.2850   25.2520   43.7200 C   0  0  0  0  0  0  0  0  0  0  0  0
   40.0900   26.6160   43.7200 C   0  0  0  0  0  0  0  0  0  0  0  0
   39.1260   27.0750   42.8470 C   0  0  0  0  0  0  0  0  0  0  0  0
   38.4160   26.2850   42.0450 N   0  0  0  0  0  0  0  0  0  0  0  0
   39.7180   23.4050   42.9090 H   0  0  0  0  0  0  0  0  0  0  0  0
   41.0220   24.7990   44.3750 H   0  0  0  0  0  0  0  0  0  0  0  0
   40.6990   27.1900   44.3940 H   0  0  0  0  0  0  0  0  0  0  0  0
   35.9010   23.4270   39.8220 C   0  0  0  0  0  0  0  0  0  0  0  0
   36.5190   24.3700   40.6710 C   0  0  0  0  0  0  0  0  0  0  0  0
   37.7890   24.0990   41.1300 C   0  0  0  0  0  0  0  0  0  0  0  0
   38.3640   22.9460   40.7370 N   0  0  0  0  0  0  0  0  0  0  0  0
   37.7660   22.0460   39.9230 C   0  0  0  0  0  0  0  0  0  0  0  0
   36.5370   22.3080   39.4790 N   0  0  0  0  0  0  0  0  0  0  0  0
   34.9030   23.6380   39.4600 H   0  0  0  0  0  0  0  0  0  0  0  0
   36.0600   25.2760   40.9760 H   0  0  0  0  0  0  0  0  0  0  0  0
   38.3490   21.1450   39.6810 H   0  0  0  0  0  0  0  0  0  0  0  0
   38.9000   28.5480   42.8320 C   0  0  2  0  0  0  0  0  0  0  0  0
   37.6300   29.0190   43.4490 C   0  0  0  0  0  0  0  0  0  0  0  0
   37.8640   29.1180   41.9700 C   0  0  1  0  0  0  0  0  0  0  0  0
   39.7920   29.1860   43.1000 H   0  0  0  0  0  0  0  0  0  0  0  0
   37.6000   29.9270   44.0730 H   0  0  0  0  0  0  0  0  0  0  0  0
   36.9100   28.2330   43.7940 H   0  0  0  0  0  0  0  0  0  0  0  0
   37.2870   28.4100   41.3340 H   0  0  0  0  0  0  0  0  0  0  0  0
   37.9290   30.4560   41.4530 N   0  0  0  0  0  0  0  0  0  0  0  0
   39.0470   31.2030   41.4450 C   0  0  0  0  0  3  0  0  0  0  0  0
   39.0940   32.5050   40.9390 C   0  0  0  0  0  0  0  0  0  0  0  0
   40.0120   33.0710   40.9500 H   0  0  0  0  0  0  0  0  0  0  0  0
   37.9480   33.0700   40.4170 C   0  0  0  0  0  0  0  0  0  0  0  0
   37.9470   34.2360   39.9520 O   0  0  0  0  0  0  0  0  0  0  0  0
   36.8350   32.3150   40.4310 N   0  0  0  0  0  0  0  0  0  0  0  0
   36.8560   31.0670   40.9330 C   0  0  0  0  0  0  0  0  0  0  0  0
   35.7360   30.4730   40.8810 O   0  0  0  0  0  0  0  0  0  0  0  0
   35.9760   32.7570   40.0330 H   0  0  0  0  0  0  0  0  0  0  0  0
  1  6  2  0  0  0  0
  1  2  1  0  0  0  0
  2  7  1  0  0  0  0
  2  3  2  0  0  0  0
  3  4  1  0  0  0  0
  3  8  1  0  0  0  0
  4  9  1  0  0  0  0
  5  4  2  0  0  0  0
  6  5  1  0  0  0  0
 10 11  1  0  0  0  0
 11 17  1  0  0  0  0
 11 12  2  0  0  0  0
 12  1  1  0  0  0  0
 13 12  1  0  0  0  0
 14 13  2  0  0  0  0
 15 10  2  0  0  0  0
 15 14  1  0  0  0  0
 16 10  1  0  0  0  0
 18 14  1  0  0  0  0
 19  5  1  0  0  0  0
 19 22  1  1  0  0  0
 19 20  1  0  0  0  0
 20 24  1  0  0  0  0
 20 23  1  0  0  0  0
 21 25  1  6  0  0  0
 21 19  1  0  0  0  0
 21 20  1  0  0  0  0
 26 21  1  0  0  0  0
 27 26  1  0  0  0  0
 28 29  1  0  0  0  0
 28 27  2  0  0  0  0
 30 32  1  0  0  0  0
 30 28  1  0  0  0  0
 31 30  2  0  0  0  0
 32 33  1  0  0  0  0
 33 26  1  0  0  0  0
 34 33  2  0  0  0  0
 35 32  1  0  0  0  0
M  END
>  <minimizedAffinity>
-6.53047895

$$$$

 OpenBabel03242521063D

 35 38  0  0  1  0  0  0  0  0999 V2000
   37.1490   26.9010   41.5350 C   0  0  0  0  0  0  0  0  0  0  0  0
   36.9410   26.8970   42.8990 C   0  0  0  0  0  0  0  0  0  0  0  0
   37.2150   27.9450   43.7460 C   0  0  0  0  0  0  0  0  0  0  0  0
   37.7400   29.1030   43.2150 C   0  0  0  0  0  0  0  0  0  0  0  0
   37.9400   29.0900   41.8500 C   0  0  0  0  0  0  0  0  0  0  0  0
   37.6590   28.0490   41.0700 N   0  0  0  0  0  0  0  0  0  0  0  0
   36.5280   26.0020   43.3660 H   0  0  0  0  0  0  0  0  0  0  0  0
   37.0220   27.8630   44.8100 H   0  0  0  0  0  0  0  0  0  0  0  0
   37.9410   29.9020   43.9040 H   0  0  0  0  0  0  0  0  0  0  0  0
   36.6430   23.4620   40.0760 C   0  0  0  0  0  0  0  0  0  0  0  0
   36.9870   24.4450   41.0290 C   0  0  0  0  0  0  0  0  0  0  0  0
   36.8430   25.7700   40.6800 C   0  0  0  0  0  0  0  0  0  0  0  0
   36.3820   26.0450   39.4450 N   0  0  0  0  0  0  0  0  0  0  0  0
   36.0540   25.0980   38.5350 C   0  0  0  0  0  0  0  0  0  0  0  0
   36.1930   23.8160   38.8730 N   0  0  0  0  0  0  0  0  0  0  0  0
   36.7550   22.4210   40.3480 H   0  0  0  0  0  0  0  0  0  0  0  0
   37.3490   24.2210   42.0010 H   0  0  0  0  0  0  0  0  0  0  0  0
   35.6900   25.4620   37.5640 H   0  0  0  0  0  0  0  0  0  0  0  0
   38.5070   30.3330   41.2550 C   0  0  2  0  0  0  0  0  0  0  0  0
   37.5240   31.2750   40.6540 C   0  0  0  0  0  0  0  0  0  0  0  0
   38.5000   30.5160   39.8040 C   0  0  1  0  0  0  0  0  0  0  0  0
   39.3090   30.8480   41.8620 H   0  0  0  0  0  0  0  0  0  0  0  0
   37.6240   32.3650   40.7830 H   0  0  0  0  0  0  0  0  0  0  0  0
   36.4560   30.9400   40.6160 H   0  0  0  0  0  0  0  0  0  0  0  0
   38.0770   29.6900   39.1900 H   0  0  0  0  0  0  0  0  0  0  0  0
   39.4660   31.3260   39.1150 N   0  0  0  0  0  0  0  0  0  0  0  0
   40.6000   31.7790   39.6770 C   0  0  0  0  0  3  0  0  0  0  0  0
   41.5300   32.5680   38.9940 C   0  0  0  0  0  0  0  0  0  0  0  0
   42.4290   32.9120   39.4800 H   0  0  0  0  0  0  0  0  0  0  0  0
   41.2910   32.9100   37.6770 C   0  0  0  0  0  0  0  0  0  0  0  0
   42.1000   33.6170   37.0280 O   0  0  0  0  0  0  0  0  0  0  0  0
   40.1520   32.4520   37.1260 N   0  0  0  0  0  0  0  0  0  0  0  0
   39.2980   31.6960   37.8390 C   0  0  0  0  0  0  0  0  0  0  0  0
   38.2680   31.3360   37.1910 O   0  0  0  0  0  0  0  0  0  0  0  0
   39.9860   32.7200   36.1300 H   0  0  0  0  0  0  0  0  0  0  0  0
  1  2  1  0  0  0  0
  2  7  1  0  0  0  0
  2  3  2  0  0  0  0
  3  8  1  0  0  0  0
  4  3  1  0  0  0  0
  4  9  1  0  0  0  0
  5  4  2  0  0  0  0
  6  1  2  0  0  0  0
  6  5  1  0  0  0  0
 10 16  1  0  0  0  0
 10 11  1  0  0  0  0
 11 17  1  0  0  0  0
 12 11  2  0  0  0  0
 12  1  1  0  0  0  0
 13 12  1  0  0  0  0
 14 15  1  0  0  0  0
 14 13  2  0  0  0  0
 15 10  2  0  0  0  0
 18 14  1  0  0  0  0
 19  5  1  0  0  0  0
 19 22  1  1  0  0  0
 20 23  1  0  0  0  0
 20 19  1  0  0  0  0
 21 25  1  6  0  0  0
 21 20  1  0  0  0  0
 21 19  1  0  0  0  0
 24 20  1  0  0  0  0
 26 27  1  0  0  0  0
 26 21  1  0  0  0  0
 28 29  1  0  0  0  0
 28 27  2  0  0  0  0
 30 28  1  0  0  0  0
 31 30  2  0  0  0  0
 32 30  1  0  0  0  0
 32 33  1  0  0  0  0
 33 26  1  0  0  0  0
 34 33  2  0  0  0  0
 35 32  1  0  0  0  0
M  END
>  <minimizedAffinity>
-6.0403657

$$$$

 OpenBabel03242521063D

 35 38  0  0  1  0  0  0  0  0999 V2000
   38.3500   24.8150   41.8340 C   0  0  0  0  0  0  0  0  0  0  0  0
   39.3260   24.4860   42.7530 C   0  0  0  0  0  0  0  0  0  0  0  0
   39.9450   25.3710   43.6040 C   0  0  0  0  0  0  0  0  0  0  0  0
   39.5820   26.6990   43.5530 C   0  0  0  0  0  0  0  0  0  0  0  0
   38.6060   27.0100   42.6280 C   0  0  0  0  0  0  0  0  0  0  0  0
   38.0350   26.1160   41.8250 N   0  0  0  0  0  0  0  0  0  0  0  0
   39.6470   23.4460   42.8310 H   0  0  0  0  0  0  0  0  0  0  0  0
   40.7030   25.0320   44.3000 H   0  0  0  0  0  0  0  0  0  0  0  0
   40.0850   27.3630   44.2310 H   0  0  0  0  0  0  0  0  0  0  0  0
   37.5680   21.8560   39.6340 C   0  0  0  0  0  0  0  0  0  0  0  0
   38.3200   22.6970   40.4820 C   0  0  0  0  0  0  0  0  0  0  0  0
   37.7240   23.8440   40.9570 C   0  0  0  0  0  0  0  0  0  0  0  0
   36.4550   24.0920   40.5790 N   0  0  0  0  0  0  0  0  0  0  0  0
   35.7390   23.2830   39.7660 C   0  0  0  0  0  0  0  0  0  0  0  0
   36.3160   22.1720   39.3060 N   0  0  0  0  0  0  0  0  0  0  0  0
   38.0340   20.9540   39.2600 H   0  0  0  0  0  0  0  0  0  0  0  0
   39.3190   22.4950   40.7750 H   0  0  0  0  0  0  0  0  0  0  0  0
   34.7130   23.6050   39.5380 H   0  0  0  0  0  0  0  0  0  0  0  0
   38.1980   28.4420   42.5580 C   0  0  2  0  0  0  0  0  0  0  0  0
   36.8660   28.7120   41.9520 C   0  0  0  0  0  0  0  0  0  0  0  0
   38.1350   29.1190   41.2620 C   0  0  1  0  0  0  0  0  0  0  0  0
   38.4050   29.0590   43.4820 H   0  0  0  0  0  0  0  0  0  0  0  0
   36.1900   29.4730   42.3740 H   0  0  0  0  0  0  0  0  0  0  0  0
   36.3170   27.8360   41.5210 H   0  0  0  0  0  0  0  0  0  0  0  0
   38.4170   28.5250   40.3640 H   0  0  0  0  0  0  0  0  0  0  0  0
   38.3190   30.5360   41.1130 N   0  0  0  0  0  0  0  0  0  0  0  0
   37.5000   31.3260   40.3960 C   0  0  0  0  0  3  0  0  0  0  0  0
   37.6930   32.7040   40.2600 C   0  0  0  0  0  0  0  0  0  0  0  0
   37.0140   33.3040   39.6760 H   0  0  0  0  0  0  0  0  0  0  0  0
   38.7690   33.3020   40.8850 C   0  0  0  0  0  0  0  0  0  0  0  0
   38.9780   34.5360   40.7890 O   0  0  0  0  0  0  0  0  0  0  0  0
   39.5810   32.5020   41.6000 N   0  0  0  0  0  0  0  0  0  0  0  0
   39.3410   31.1810   41.6910 C   0  0  0  0  0  0  0  0  0  0  0  0
   40.1870   30.5530   42.3960 O   0  0  0  0  0  0  0  0  0  0  0  0
   40.3910   32.9700   42.0660 H   0  0  0  0  0  0  0  0  0  0  0  0
  1  2  1  0  0  0  0
  2  7  1  0  0  0  0
  2  3  2  0  0  0  0
  3  8  1  0  0  0  0
  4  3  1  0  0  0  0
  4  9  1  0  0  0  0
  5  4  2  0  0  0  0
  6  1  2  0  0  0  0
  6  5  1  0  0  0  0
 10 11  1  0  0  0  0
 11 17  1  0  0  0  0
 11 12  2  0  0  0  0
 12  1  1  0  0  0  0
 13 12  1  0  0  0  0
 14 13  2  0  0  0  0
 15 10  2  0  0  0  0
 15 14  1  0  0  0  0
 16 10  1  0  0  0  0
 18 14  1  0  0  0  0
 19  5  1  0  0  0  0
 19 22  1  1  0  0  0
 20 23  1  0  0  0  0
 20 19  1  0  0  0  0
 21 25  1  6  0  0  0
 21 20  1  0  0  0  0
 21 19  1  0  0  0  0
 24 20  1  0  0  0  0
 26 21  1  0  0  0  0
 26 33  1  0  0  0  0
 27 26  1  0  0  0  0
 28 27  2  0  0  0  0
 28 30  1  0  0  0  0
 29 28  1  0  0  0  0
 30 32  1  0  0  0  0
 31 30  2  0  0  0  0
 32 33  1  0  0  0  0
 32 35  1  0  0  0  0
 33 34  2  0  0  0  0
M  END
>  <minimizedAffinity>
-5.9844656

$$$$

 OpenBabel03242521063D

 35 38  0  0  1  0  0  0  0  0999 V2000
   37.2230   25.0090   40.8070 C   0  0  0  0  0  0  0  0  0  0  0  0
   37.9110   24.1440   41.6350 C   0  0  0  0  0  0  0  0  0  0  0  0
   38.8210   24.5210   42.5940 C   0  0  0  0  0  0  0  0  0  0  0  0
   39.0870   25.8620   42.7610 C   0  0  0  0  0  0  0  0  0  0  0  0
   38.3910   26.7120   41.9260 C   0  0  0  0  0  0  0  0  0  0  0  0
   37.5170   26.2990   41.0110 N   0  0  0  0  0  0  0  0  0  0  0  0
   37.7340   23.0730   41.5390 H   0  0  0  0  0  0  0  0  0  0  0  0
   39.3200   23.7780   43.2060 H   0  0  0  0  0  0  0  0  0  0  0  0
   39.8030   26.1210   43.5190 H   0  0  0  0  0  0  0  0  0  0  0  0
   34.6660   23.1050   38.7970 C   0  0  0  0  0  0  0  0  0  0  0  0
   35.5570   23.3870   39.8540 C   0  0  0  0  0  0  0  0  0  0  0  0
   36.2690   24.5650   39.8090 C   0  0  0  0  0  0  0  0  0  0  0  0
   36.0690   25.3770   38.7520 N   0  0  0  0  0  0  0  0  0  0  0  0
   35.2130   25.1010   37.7420 C   0  0  0  0  0  0  0  0  0  0  0  0
   34.5240   23.9600   37.7860 N   0  0  0  0  0  0  0  0  0  0  0  0
   34.1050   22.1800   38.8310 H   0  0  0  0  0  0  0  0  0  0  0  0
   35.7090   22.7430   40.6830 H   0  0  0  0  0  0  0  0  0  0  0  0
   35.1460   25.8510   36.9410 H   0  0  0  0  0  0  0  0  0  0  0  0
   38.6640   28.1670   42.0920 C   0  0  2  0  0  0  0  0  0  0  0  0
   38.0010   28.8280   43.2490 C   0  0  0  0  0  0  0  0  0  0  0  0
   37.6030   29.1420   41.8360 C   0  0  1  0  0  0  0  0  0  0  0  0
   39.7380   28.4860   41.9480 H   0  0  0  0  0  0  0  0  0  0  0  0
   38.5300   29.5760   43.8600 H   0  0  0  0  0  0  0  0  0  0  0  0
   37.2860   28.2070   43.8480 H   0  0  0  0  0  0  0  0  0  0  0  0
   36.6180   28.7450   41.5040 H   0  0  0  0  0  0  0  0  0  0  0  0
   37.8670   30.4890   41.4160 N   0  0  0  0  0  0  0  0  0  0  0  0
   39.0700   31.0820   41.5120 C   0  0  0  0  0  3  0  0  0  0  0  0
   39.3110   32.3960   41.0990 C   0  0  0  0  0  0  0  0  0  0  0  0
   40.2910   32.8360   41.1930 H   0  0  0  0  0  0  0  0  0  0  0  0
   38.2770   33.1370   40.5620 C   0  0  0  0  0  0  0  0  0  0  0  0
   38.4510   34.3200   40.1780 O   0  0  0  0  0  0  0  0  0  0  0  0
   37.0780   32.5340   40.4710 N   0  0  0  0  0  0  0  0  0  0  0  0
   36.9110   31.2660   40.8870 C   0  0  0  0  0  0  0  0  0  0  0  0
   35.7300   30.8280   40.7400 O   0  0  0  0  0  0  0  0  0  0  0  0
   36.3070   33.1090   40.0630 H   0  0  0  0  0  0  0  0  0  0  0  0
  1  6  2  0  0  0  0
  1  2  1  0  0  0  0
  2  3  2  0  0  0  0
  3  4  1  0  0  0  0
  3  8  1  0  0  0  0
  4  9  1  0  0  0  0
  5 19  1  0  0  0  0
  5  4  2  0  0  0  0
  6  5  1  0  0  0  0
  7  2  1  0  0  0  0
 10 16  1  0  0  0  0
 10 11  1  0  0  0  0
 11 17  1  0  0  0  0
 12 11  2  0  0  0  0
 12  1  1  0  0  0  0
 13 12  1  0  0  0  0
 14 15  1  0  0  0  0
 14 13  2  0  0  0  0
 15 10  2  0  0  0  0
 18 14  1  0  0  0  0
 19 22  1  6  0  0  0
 19 20  1  0  0  0  0
 20 24  1  0  0  0  0
 20 23  1  0  0  0  0
 21 25  1  6  0  0  0
 21 19  1  0  0  0  0
 21 20  1  0  0  0  0
 26 27  1  0  0  0  0
 26 21  1  0  0  0  0
 28 29  1  0  0  0  0
 28 27  2  0  0  0  0
 30 28  1  0  0  0  0
 31 30  2  0  0  0  0
 32 30  1  0  0  0  0
 32 33  1  0  0  0  0
 33 26  1  0  0  0  0
 34 33  2  0  0  0  0
 35 32  1  0  0  0  0
M  END
>  <minimizedAffinity>
-5.911273

$$$$

 OpenBabel03242521063D

 35 38  0  0  1  0  0  0  0  0999 V2000
   38.6880   24.5260   40.4780 C   0  0  0  0  0  0  0  0  0  0  0  0
   37.6910   23.9480   41.2370 C   0  0  0  0  0  0  0  0  0  0  0  0
   36.9440   24.5960   42.1920 C   0  0  0  0  0  0  0  0  0  0  0  0
   37.1920   25.9300   42.4310 C   0  0  0  0  0  0  0  0  0  0  0  0
   38.1910   26.4920   41.6640 C   0  0  0  0  0  0  0  0  0  0  0  0
   38.8880   25.8220   40.7490 N   0  0  0  0  0  0  0  0  0  0  0  0
   37.4580   22.8930   41.0840 H   0  0  0  0  0  0  0  0  0  0  0  0
   36.1760   24.0690   42.7470 H   0  0  0  0  0  0  0  0  0  0  0  0
   36.5910   26.4050   43.1830 H   0  0  0  0  0  0  0  0  0  0  0  0
   39.9460   22.0210   37.9590 C   0  0  0  0  0  0  0  0  0  0  0  0
   39.0890   22.5950   38.9220 C   0  0  0  0  0  0  0  0  0  0  0  0
   39.4500   23.8010   39.4790 C   0  0  0  0  0  0  0  0  0  0  0  0
   40.6050   24.3600   39.0680 N   0  0  0  0  0  0  0  0  0  0  0  0
   41.4220   23.8060   38.1450 C   0  0  0  0  0  0  0  0  0  0  0  0
   41.0730   22.6370   37.6050 N   0  0  0  0  0  0  0  0  0  0  0  0
   39.6650   21.0740   37.5190 H   0  0  0  0  0  0  0  0  0  0  0  0
   38.1800   22.1490   39.2400 H   0  0  0  0  0  0  0  0  0  0  0  0
   42.3350   24.3680   37.9010 H   0  0  0  0  0  0  0  0  0  0  0  0
   38.4750   27.9350   41.9060 C   0  0  2  0  0  0  0  0  0  0  0  0
   37.7750   28.5510   43.0650 C   0  0  0  0  0  0  0  0  0  0  0  0
   37.4360   28.9340   41.6540 C   0  0  1  0  0  0  0  0  0  0  0  0
   39.5580   28.2450   41.8190 H   0  0  0  0  0  0  0  0  0  0  0  0
   38.2880   29.2640   43.7290 H   0  0  0  0  0  0  0  0  0  0  0  0
   37.0290   27.9150   43.6070 H   0  0  0  0  0  0  0  0  0  0  0  0
   36.4600   28.5660   41.2660 H   0  0  0  0  0  0  0  0  0  0  0  0
   37.7330   30.2960   41.3050 N   0  0  0  0  0  0  0  0  0  0  0  0
   38.9440   30.8600   41.4540 C   0  0  0  0  0  3  0  0  0  0  0  0
   39.2170   32.1880   41.1100 C   0  0  0  0  0  0  0  0  0  0  0  0
   40.2020   32.6040   41.2440 H   0  0  0  0  0  0  0  0  0  0  0  0
   38.2070   32.9740   40.5920 C   0  0  0  0  0  0  0  0  0  0  0  0
   38.4100   34.1710   40.2710 O   0  0  0  0  0  0  0  0  0  0  0  0
   36.9990   32.3990   40.4480 N   0  0  0  0  0  0  0  0  0  0  0  0
   36.8020   31.1150   40.7980 C   0  0  0  0  0  0  0  0  0  0  0  0
   35.6160   30.7080   40.6080 O   0  0  0  0  0  0  0  0  0  0  0  0
   36.2470   33.0080   40.0550 H   0  0  0  0  0  0  0  0  0  0  0  0
  1  6  2  0  0  0  0
  1  2  1  0  0  0  0
  2  3  2  0  0  0  0
  3  4  1  0  0  0  0
  3  8  1  0  0  0  0
  4  9  1  0  0  0  0
  5 19  1  0  0  0  0
  5  4  2  0  0  0  0
  6  5  1  0  0  0  0
  7  2  1  0  0  0  0
 10 11  1  0  0  0  0
 11 17  1  0  0  0  0
 11 12  2  0  0  0  0
 12  1  1  0  0  0  0
 13 12  1  0  0  0  0
 14 13  2  0  0  0  0
 15 10  2  0  0  0  0
 15 14  1  0  0  0  0
 16 10  1  0  0  0  0
 18 14  1  0  0  0  0
 19 22  1  6  0  0  0
 19 20  1  0  0  0  0
 20 24  1  0  0  0  0
 20 23  1  0  0  0  0
 21 25  1  6  0  0  0
 21 19  1  0  0  0  0
 21 20  1  0  0  0  0
 26 27  1  0  0  0  0
 26 21  1  0  0  0  0
 28 29  1  0  0  0  0
 28 27  2  0  0  0  0
 30 28  1  0  0  0  0
 31 30  2  0  0  0  0
 32 30  1  0  0  0  0
 32 33  1  0  0  0  0
 33 26  1  0  0  0  0
 34 33  2  0  0  0  0
 35 32  1  0  0  0  0
M  END
>  <minimizedAffinity>
-5.66060352

$$$$

 OpenBabel03242521063D

 35 38  0  0  1  0  0  0  0  0999 V2000
   39.0460   31.1900   41.2690 C   0  0  0  0  0  0  0  0  0  0  0  0
   38.1310   32.0980   40.7760 C   0  0  0  0  0  0  0  0  0  0  0  0
   36.8500   31.7960   40.3790 C   0  0  0  0  0  0  0  0  0  0  0  0
   36.4220   30.4900   40.4680 C   0  0  0  0  0  0  0  0  0  0  0  0
   37.3490   29.5960   40.9630 C   0  0  0  0  0  0  0  0  0  0  0  0
   38.5800   29.9370   41.3360 N   0  0  0  0  0  0  0  0  0  0  0  0
   38.4240   33.1440   40.6860 H   0  0  0  0  0  0  0  0  0  0  0  0
   36.1900   32.5700   40.0010 H   0  0  0  0  0  0  0  0  0  0  0  0
   35.4160   30.2890   40.1490 H   0  0  0  0  0  0  0  0  0  0  0  0
   42.4000   31.4430   42.9700 C   0  0  0  0  0  0  0  0  0  0  0  0
   41.1000   30.9660   42.7000 C   0  0  0  0  0  0  0  0  0  0  0  0
   40.3890   31.5560   41.6780 C   0  0  0  0  0  0  0  0  0  0  0  0
   40.9830   32.5550   40.9980 N   0  0  0  0  0  0  0  0  0  0  0  0
   42.2300   33.0080   41.2620 C   0  0  0  0  0  0  0  0  0  0  0  0
   42.9180   32.4370   42.2510 N   0  0  0  0  0  0  0  0  0  0  0  0
   42.9610   30.9810   43.7720 H   0  0  0  0  0  0  0  0  0  0  0  0
   40.6390   30.1780   43.2390 H   0  0  0  0  0  0  0  0  0  0  0  0
   42.5930   33.8310   40.6290 H   0  0  0  0  0  0  0  0  0  0  0  0
   36.9040   28.1780   41.0680 C   0  0  2  0  0  0  0  0  0  0  0  0
   36.6230   27.6830   42.4430 C   0  0  0  0  0  0  0  0  0  0  0  0
   37.7960   27.1760   41.6550 C   0  0  1  0  0  0  0  0  0  0  0  0
   36.1410   27.8430   40.3060 H   0  0  0  0  0  0  0  0  0  0  0  0
   35.7630   27.0260   42.6490 H   0  0  0  0  0  0  0  0  0  0  0  0
   36.8490   28.3790   43.2910 H   0  0  0  0  0  0  0  0  0  0  0  0
   38.7980   27.5230   41.9900 H   0  0  0  0  0  0  0  0  0  0  0  0
   37.7390   25.7840   41.3080 N   0  0  0  0  0  0  0  0  0  0  0  0
   36.9950   25.2920   40.3020 C   0  0  0  0  0  3  0  0  0  0  0  0
   36.9500   23.9330   39.9770 C   0  0  0  0  0  0  0  0  0  0  0  0
   36.3410   23.5770   39.1620 H   0  0  0  0  0  0  0  0  0  0  0  0
   37.6990   23.0350   40.7130 C   0  0  0  0  0  0  0  0  0  0  0  0
   37.6870   21.8070   40.4540 O   0  0  0  0  0  0  0  0  0  0  0  0
   38.4390   23.5390   41.7170 N   0  0  0  0  0  0  0  0  0  0  0  0
   38.4380   24.8580   41.9790 C   0  0  0  0  0  0  0  0  0  0  0  0
   39.1810   25.1890   42.9520 O   0  0  0  0  0  0  0  0  0  0  0  0
   38.9990   22.8470   42.2640 H   0  0  0  0  0  0  0  0  0  0  0  0
  1  6  1  0  0  0  0
  1 12  1  0  0  0  0
  2  1  2  0  0  0  0
  3  4  2  0  0  0  0
  3  2  1  0  0  0  0
  4  5  1  0  0  0  0
  5 19  1  0  0  0  0
  5  6  2  0  0  0  0
  7  2  1  0  0  0  0
  8  3  1  0  0  0  0
  9  4  1  0  0  0  0
 10 16  1  0  0  0  0
 11 10  1  0  0  0  0
 11 17  1  0  0  0  0
 12 11  2  0  0  0  0
 13 14  2  0  0  0  0
 13 12  1  0  0  0  0
 14 15  1  0  0  0  0
 15 10  2  0  0  0  0
 18 14  1  0  0  0  0
 19 22  1  6  0  0  0
 19 21  1  0  0  0  0
 19 20  1  0  0  0  0
 20 23  1  0  0  0  0
 20 24  1  0  0  0  0
 21 25  1  1  0  0  0
 21 20  1  0  0  0  0
 26 21  1  0  0  0  0
 26 33  1  0  0  0  0
 27 26  1  0  0  0  0
 28 27  2  0  0  0  0
 28 30  1  0  0  0  0
 29 28  1  0  0  0  0
 30 32  1  0  0  0  0
 31 30  2  0  0  0  0
 32 33  1  0  0  0  0
 32 35  1  0  0  0  0
 33 34  2  0  0  0  0
M  END
>  <minimizedAffinity>
-5.53206062

$$$$

 OpenBabel03242521063D

 35 38  0  0  1  0  0  0  0  0999 V2000
   37.3180   28.1860   41.3960 C   0  0  0  0  0  0  0  0  0  0  0  0
   35.9950   28.4300   41.0920 C   0  0  0  0  0  0  0  0  0  0  0  0
   35.4870   29.6370   40.6720 C   0  0  0  0  0  0  0  0  0  0  0  0
   36.3480   30.7040   40.5370 C   0  0  0  0  0  0  0  0  0  0  0  0
   37.6680   30.4420   40.8450 C   0  0  0  0  0  0  0  0  0  0  0  0
   38.1120   29.2540   41.2480 N   0  0  0  0  0  0  0  0  0  0  0  0
   35.2740   27.6160   41.1840 H   0  0  0  0  0  0  0  0  0  0  0  0
   34.4320   29.7480   40.4520 H   0  0  0  0  0  0  0  0  0  0  0  0
   35.9200   31.6310   40.2070 H   0  0  0  0  0  0  0  0  0  0  0  0
   37.8010   24.5140   42.1010 C   0  0  0  0  0  0  0  0  0  0  0  0
   37.1890   25.6850   41.6040 C   0  0  0  0  0  0  0  0  0  0  0  0
   37.8080   26.8930   41.8350 C   0  0  0  0  0  0  0  0  0  0  0  0
   38.9650   26.8810   42.5270 N   0  0  0  0  0  0  0  0  0  0  0  0
   39.5460   25.7560   43.0020 C   0  0  0  0  0  0  0  0  0  0  0  0
   38.9470   24.5860   42.7770 N   0  0  0  0  0  0  0  0  0  0  0  0
   37.3170   23.5640   41.9200 H   0  0  0  0  0  0  0  0  0  0  0  0
   36.2790   25.6860   41.0590 H   0  0  0  0  0  0  0  0  0  0  0  0
   40.4890   25.8900   43.5500 H   0  0  0  0  0  0  0  0  0  0  0  0
   38.6160   31.5830   40.7050 C   0  0  2  0  0  0  0  0  0  0  0  0
   38.1610   32.7060   39.8420 C   0  0  0  0  0  0  0  0  0  0  0  0
   39.2950   31.8130   39.4300 C   0  0  1  0  0  0  0  0  0  0  0  0
   39.1200   31.9240   41.6570 H   0  0  0  0  0  0  0  0  0  0  0  0
   38.3490   33.7550   40.1230 H   0  0  0  0  0  0  0  0  0  0  0  0
   37.1910   32.5710   39.2990 H   0  0  0  0  0  0  0  0  0  0  0  0
   39.0820   31.0990   38.6040 H   0  0  0  0  0  0  0  0  0  0  0  0
   40.5740   32.4600   39.3340 N   0  0  0  0  0  0  0  0  0  0  0  0
   41.2850   32.8760   40.3970 C   0  0  0  0  0  3  0  0  0  0  0  0
   42.5290   33.5050   40.2860 C   0  0  0  0  0  0  0  0  0  0  0  0
   43.0680   33.8250   41.1640 H   0  0  0  0  0  0  0  0  0  0  0  0
   43.0710   33.7180   39.0350 C   0  0  0  0  0  0  0  0  0  0  0  0
   44.1850   34.2790   38.8920 O   0  0  0  0  0  0  0  0  0  0  0  0
   42.3510   33.2980   37.9790 N   0  0  0  0  0  0  0  0  0  0  0  0
   41.1590   32.6990   38.1520 C   0  0  0  0  0  0  0  0  0  0  0  0
   40.5940   32.3570   37.0700 O   0  0  0  0  0  0  0  0  0  0  0  0
   42.7760   33.4670   37.0390 H   0  0  0  0  0  0  0  0  0  0  0  0
  1 12  1  0  0  0  0
  2  7  1  0  0  0  0
  2  1  2  0  0  0  0
  3  2  1  0  0  0  0
  4  3  2  0  0  0  0
  4  5  1  0  0  0  0
  5  6  2  0  0  0  0
  6  1  1  0  0  0  0
  8  3  1  0  0  0  0
  9  4  1  0  0  0  0
 10 15  1  0  0  0  0
 11 12  1  0  0  0  0
 11 10  2  0  0  0  0
 12 13  2  0  0  0  0
 13 14  1  0  0  0  0
 14 18  1  0  0  0  0
 15 14  2  0  0  0  0
 16 10  1  0  0  0  0
 17 11  1  0  0  0  0
 19  5  1  0  0  0  0
 19 22  1  1  0  0  0
 20 23  1  0  0  0  0
 20 19  1  0  0  0  0
 21 25  1  6  0  0  0
 21 20  1  0  0  0  0
 21 19  1  0  0  0  0
 24 20  1  0  0  0  0
 26 21  1  0  0  0  0
 26 27  1  0  0  0  0
 28 27  2  0  0  0  0
 28 29  1  0  0  0  0
 30 28  1  0  0  0  0
 31 30  2  0  0  0  0
 32 33  1  0  0  0  0
 32 30  1  0  0  0  0
 33 26  1  0  0  0  0
 34 33  2  0  0  0  0
 35 32  1  0  0  0  0
M  END
>  <minimizedAffinity>
-5.37658501

$$$$

 OpenBabel03242521063D

 35 38  0  0  1  0  0  0  0  0999 V2000
   37.7690   26.8020   41.7430 C   0  0  0  0  0  0  0  0  0  0  0  0
   37.1420   26.7510   42.9710 C   0  0  0  0  0  0  0  0  0  0  0  0
   37.0570   27.7950   43.8620 C   0  0  0  0  0  0  0  0  0  0  0  0
   37.6380   28.9990   43.5260 C   0  0  0  0  0  0  0  0  0  0  0  0
   38.2600   29.0320   42.2950 C   0  0  0  0  0  0  0  0  0  0  0  0
   38.3160   27.9930   41.4650 N   0  0  0  0  0  0  0  0  0  0  0  0
   36.6680   25.8200   43.2820 H   0  0  0  0  0  0  0  0  0  0  0  0
   36.5450   27.6750   44.8100 H   0  0  0  0  0  0  0  0  0  0  0  0
   37.5530   29.7920   44.2440 H   0  0  0  0  0  0  0  0  0  0  0  0
   37.4420   23.4360   40.0780 C   0  0  0  0  0  0  0  0  0  0  0  0
   37.2920   24.4290   41.0700 C   0  0  0  0  0  0  0  0  0  0  0  0
   37.8320   25.6730   40.8340 C   0  0  0  0  0  0  0  0  0  0  0  0
   38.4750   25.8650   39.6660 N   0  0  0  0  0  0  0  0  0  0  0  0
   38.6160   24.9100   38.7190 C   0  0  0  0  0  0  0  0  0  0  0  0
   38.0920   23.7050   38.9470 N   0  0  0  0  0  0  0  0  0  0  0  0
   37.0180   22.4580   40.2610 H   0  0  0  0  0  0  0  0  0  0  0  0
   36.7840   24.2700   41.9880 H   0  0  0  0  0  0  0  0  0  0  0  0
   39.1640   25.2010   37.8110 H   0  0  0  0  0  0  0  0  0  0  0  0
   38.8940   30.3250   41.9120 C   0  0  2  0  0  0  0  0  0  0  0  0
   39.0300   30.5770   40.4510 C   0  0  0  0  0  0  0  0  0  0  0  0
   40.2310   30.3340   41.3190 C   0  0  1  0  0  0  0  0  0  0  0  0
   38.5530   31.2310   42.4940 H   0  0  0  0  0  0  0  0  0  0  0  0
   38.8430   31.5750   40.0240 H   0  0  0  0  0  0  0  0  0  0  0  0
   38.7310   29.7470   39.7620 H   0  0  0  0  0  0  0  0  0  0  0  0
   40.7370   29.3510   41.1910 H   0  0  0  0  0  0  0  0  0  0  0  0
   41.1300   31.4480   41.4390 N   0  0  0  0  0  0  0  0  0  0  0  0
   41.2120   32.4440   40.5390 C   0  0  0  0  0  3  0  0  0  0  0  0
   42.0930   33.5220   40.6710 C   0  0  0  0  0  0  0  0  0  0  0  0
   42.1300   34.3020   39.9270 H   0  0  0  0  0  0  0  0  0  0  0  0
   42.9270   33.5860   41.7700 C   0  0  0  0  0  0  0  0  0  0  0  0
   43.7320   34.5360   41.9260 O   0  0  0  0  0  0  0  0  0  0  0  0
   42.8360   32.5830   42.6630 N   0  0  0  0  0  0  0  0  0  0  0  0
   41.9660   31.5730   42.4780 C   0  0  0  0  0  0  0  0  0  0  0  0
   41.9890   30.7020   43.3980 O   0  0  0  0  0  0  0  0  0  0  0  0
   43.4730   32.6470   43.4880 H   0  0  0  0  0  0  0  0  0  0  0  0
  1  2  1  0  0  0  0
  2  7  1  0  0  0  0
  2  3  2  0  0  0  0
  3  8  1  0  0  0  0
  4  3  1  0  0  0  0
  4  9  1  0  0  0  0
  5  4  2  0  0  0  0
  6  1  2  0  0  0  0
  6  5  1  0  0  0  0
 10 16  1  0  0  0  0
 10 11  1  0  0  0  0
 11 17  1  0  0  0  0
 12 11  2  0  0  0  0
 12  1  1  0  0  0  0
 13 12  1  0  0  0  0
 14 15  1  0  0  0  0
 14 13  2  0  0  0  0
 15 10  2  0  0  0  0
 18 14  1  0  0  0  0
 19  5  1  0  0  0  0
 19 22  1  1  0  0  0
 20 21  1  0  0  0  0
 20 19  1  0  0  0  0
 21 25  1  6  0  0  0
 21 26  1  0  0  0  0
 21 19  1  0  0  0  0
 23 20  1  0  0  0  0
 24 20  1  0  0  0  0
 26 33  1  0  0  0  0
 27 28  2  0  0  0  0
 27 26  1  0  0  0  0
 28 30  1  0  0  0  0
 29 28  1  0  0  0  0
 30 31  2  0  0  0  0
 30 32  1  0  0  0  0
 32 35  1  0  0  0  0
 33 32  1  0  0  0  0
 33 34  2  0  0  0  0
M  END
>  <minimizedAffinity>
-5.2257638

$$$$

 OpenBabel03242521063D

 35 38  0  0  1  0  0  0  0  0999 V2000
   36.5400   25.2310   39.9510 C   0  0  0  0  0  0  0  0  0  0  0  0
   36.8100   24.5490   41.1200 C   0  0  0  0  0  0  0  0  0  0  0  0
   37.1060   25.1340   42.3290 C   0  0  0  0  0  0  0  0  0  0  0  0
   37.1450   26.5090   42.4050 C   0  0  0  0  0  0  0  0  0  0  0  0
   36.8730   27.1740   41.2270 C   0  0  0  0  0  0  0  0  0  0  0  0
   36.5910   26.5630   40.0790 N   0  0  0  0  0  0  0  0  0  0  0  0
   36.7920   23.4590   41.1100 H   0  0  0  0  0  0  0  0  0  0  0  0
   37.3060   24.5260   43.2040 H   0  0  0  0  0  0  0  0  0  0  0  0
   37.3790   26.9330   43.3630 H   0  0  0  0  0  0  0  0  0  0  0  0
   35.8310   22.7250   37.2260 C   0  0  0  0  0  0  0  0  0  0  0  0
   36.1420   23.2080   38.5150 C   0  0  0  0  0  0  0  0  0  0  0  0
   36.2310   24.5700   38.6980 C   0  0  0  0  0  0  0  0  0  0  0  0
   36.0150   25.3600   37.6280 N   0  0  0  0  0  0  0  0  0  0  0  0
   35.7170   24.8920   36.3940 C   0  0  0  0  0  0  0  0  0  0  0  0
   35.6310   23.5730   36.2180 N   0  0  0  0  0  0  0  0  0  0  0  0
   35.7600   21.6550   37.0810 H   0  0  0  0  0  0  0  0  0  0  0  0
   36.3110   22.5790   39.3530 H   0  0  0  0  0  0  0  0  0  0  0  0
   35.5650   25.6470   35.6100 H   0  0  0  0  0  0  0  0  0  0  0  0
   36.9090   28.6630   41.2880 C   0  0  2  0  0  0  0  0  0  0  0  0
   35.7330   29.3680   40.7090 C   0  0  0  0  0  0  0  0  0  0  0  0
   37.0850   29.4390   40.0600 C   0  0  1  0  0  0  0  0  0  0  0  0
   37.2630   29.1070   42.2650 H   0  0  0  0  0  0  0  0  0  0  0  0
   35.3010   30.2550   41.1990 H   0  0  0  0  0  0  0  0  0  0  0  0
   34.9620   28.7360   40.1990 H   0  0  0  0  0  0  0  0  0  0  0  0
   37.2040   28.8690   39.1120 H   0  0  0  0  0  0  0  0  0  0  0  0
   37.6830   30.7450   40.0430 N   0  0  0  0  0  0  0  0  0  0  0  0
   38.3610   31.2730   41.0770 C   0  0  0  0  0  3  0  0  0  0  0  0
   38.9360   32.5460   41.0440 C   0  0  0  0  0  0  0  0  0  0  0  0
   39.4730   32.9340   41.8950 H   0  0  0  0  0  0  0  0  0  0  0  0
   38.8150   33.3150   39.9040 C   0  0  0  0  0  0  0  0  0  0  0  0
   39.3170   34.4630   39.8330 O   0  0  0  0  0  0  0  0  0  0  0  0
   38.1350   32.7770   38.8750 N   0  0  0  0  0  0  0  0  0  0  0  0
   37.6040   31.5440   38.9710 C   0  0  0  0  0  0  0  0  0  0  0  0
   36.9920   31.1670   37.9260 O   0  0  0  0  0  0  0  0  0  0  0  0
   38.0520   33.3720   38.0200 H   0  0  0  0  0  0  0  0  0  0  0  0
  1  6  2  0  0  0  0
  1  2  1  0  0  0  0
  2  3  2  0  0  0  0
  3  4  1  0  0  0  0
  3  8  1  0  0  0  0
  4  9  1  0  0  0  0
  5 19  1  0  0  0  0
  5  4  2  0  0  0  0
  6  5  1  0  0  0  0
  7  2  1  0  0  0  0
 10 11  1  0  0  0  0
 11 12  2  0  0  0  0
 11 17  1  0  0  0  0
 12  1  1  0  0  0  0
 13 12  1  0  0  0  0
 14 13  2  0  0  0  0
 15 14  1  0  0  0  0
 15 10  2  0  0  0  0
 16 10  1  0  0  0  0
 18 14  1  0  0  0  0
 19 22  1  1  0  0  0
 20 23  1  0  0  0  0
 20 19  1  0  0  0  0
 21 25  1  6  0  0  0
 21 20  1  0  0  0  0
 21 19  1  0  0  0  0
 24 20  1  0  0  0  0
 26 21  1  0  0  0  0
 26 27  1  0  0  0  0
 28 27  2  0  0  0  0
 28 29  1  0  0  0  0
 30 28  1  0  0  0  0
 31 30  2  0  0  0  0
 32 33  1  0  0  0  0
 32 30  1  0  0  0  0
 33 26  1  0  0  0  0
 34 33  2  0  0  0  0
 35 32  1  0  0  0  0
M  END
>  <minimizedAffinity>
-5.14953232

$$$$
