
 OpenBabel03252502543D

 32 34  0  0  0  0  0  0  0  0999 V2000
   39.6230   27.4290   39.7860 Br  0  0  0  0  0  0  0  0  0  0  0  0
   38.6700   27.8720   41.3980 C   0  0  0  0  0  0  0  0  0  0  0  0
   38.8730   29.1350   41.8920 C   0  0  0  0  0  0  0  0  0  0  0  0
   38.1640   29.4250   43.0680 C   0  0  0  0  0  0  0  0  0  0  0  0
   37.3250   28.5060   43.6800 C   0  0  0  0  0  0  0  0  0  0  0  0
   37.1710   27.2670   43.1320 C   0  0  0  0  0  0  0  0  0  0  0  0
   37.8520   26.9310   41.9680 C   0  0  0  0  0  0  0  0  0  0  0  0
   38.2310   30.3840   43.5670 H   0  0  0  0  0  0  0  0  0  0  0  0
   36.7880   28.7530   44.5860 H   0  0  0  0  0  0  0  0  0  0  0  0
   36.5310   26.5090   43.5630 H   0  0  0  0  0  0  0  0  0  0  0  0
   37.6840   25.6360   41.4050 N   0  0  0  0  0  0  0  0  0  0  0  0
   36.8770   25.2240   40.4090 C   0  0  0  0  0  3  0  0  0  0  0  0
   36.8820   23.9050   40.0270 C   0  0  0  0  0  0  0  0  0  0  0  0
   36.2100   23.6430   39.2210 H   0  0  0  0  0  0  0  0  0  0  0  0
   37.7080   22.9920   40.6510 C   0  0  0  0  0  0  0  0  0  0  0  0
   37.7010   21.7860   40.2890 O   0  0  0  0  0  0  0  0  0  0  0  0
   38.5110   23.4310   41.6510 N   0  0  0  0  0  0  0  0  0  0  0  0
   38.4960   24.7380   42.0190 C   0  0  0  0  0  0  0  0  0  0  0  0
   39.3030   24.9660   42.9630 O   0  0  0  0  0  0  0  0  0  0  0  0
   39.1020   22.6960   42.0740 H   0  0  0  0  0  0  0  0  0  0  0  0
   39.7290   30.1840   41.3380 C   0  0  0  0  0  0  0  0  0  0  0  0
   40.3260   30.6100   42.1790 H   0  0  0  0  0  0  0  0  0  0  0  0
   40.4620   29.7920   40.6040 H   0  0  0  0  0  0  0  0  0  0  0  0
   38.4470   33.6050   40.5190 C   0  0  0  0  0  0  0  0  0  0  0  0
   37.4600   33.3110   39.5660 C   0  0  0  0  0  0  0  0  0  0  0  0
   37.2590   31.9730   39.2320 C   0  0  0  0  0  0  0  0  0  0  0  0
   38.0020   31.0130   39.8200 N   0  0  0  0  0  0  0  0  0  0  0  0
   38.9620   31.3270   40.7500 C   0  0  0  0  0  0  0  0  0  0  0  0
   39.1570   32.6220   41.0740 N   0  0  0  0  0  0  0  0  0  0  0  0
   38.6590   34.6190   40.8300 H   0  0  0  0  0  0  0  0  0  0  0  0
   36.9120   34.1370   39.1460 H   0  0  0  0  0  0  0  0  0  0  0  0
   36.4950   31.7500   38.4950 H   0  0  0  0  0  0  0  0  0  0  0  0
  1  2  1  0  0  0  0
  2  3  2  0  0  0  0
  2  7  1  0  0  0  0
  3  4  1  0  0  0  0
  4  8  1  0  0  0  0
  4  5  2  0  0  0  0
  5  9  1  0  0  0  0
  6 10  1  0  0  0  0
  6  5  1  0  0  0  0
  7  6  2  0  0  0  0
 11  7  1  0  0  0  0
 11 18  1  0  0  0  0
 12 11  1  0  0  0  0
 13 12  2  0  0  0  0
 13 15  1  0  0  0  0
 14 13  1  0  0  0  0
 15 17  1  0  0  0  0
 16 15  2  0  0  0  0
 17 18  1  0  0  0  0
 17 20  1  0  0  0  0
 18 19  2  0  0  0  0
 21  3  1  0  0  0  0
 21 22  1  0  0  0  0
 23 21  1  0  0  0  0
 24 30  1  0  0  0  0
 24 29  1  0  0  0  0
 25 24  2  0  0  0  0
 26 25  1  0  0  0  0
 26 27  2  0  0  0  0
 27 28  1  0  0  0  0
 28 29  2  0  0  0  0
 28 21  1  0  0  0  0
 31 25  1  0  0  0  0
 32 26  1  0  0  0  0
M  END
>  <minimizedAffinity>
-5.79661083

$$$$

 OpenBabel03252502543D

 32 34  0  0  0  0  0  0  0  0999 V2000
   39.3820   29.9230   42.5870 Br  0  0  0  0  0  0  0  0  0  0  0  0
   37.7560   29.7370   41.5770 C   0  0  0  0  0  0  0  0  0  0  0  0
   36.9300   28.7060   41.9450 C   0  0  0  0  0  0  0  0  0  0  0  0
   35.7530   28.5990   41.1880 C   0  0  0  0  0  0  0  0  0  0  0  0
   35.4510   29.4670   40.1500 C   0  0  0  0  0  0  0  0  0  0  0  0
   36.3210   30.4700   39.8380 C   0  0  0  0  0  0  0  0  0  0  0  0
   37.5000   30.6190   40.5580 C   0  0  0  0  0  0  0  0  0  0  0  0
   35.0110   27.8310   41.3700 H   0  0  0  0  0  0  0  0  0  0  0  0
   34.5380   29.3650   39.5800 H   0  0  0  0  0  0  0  0  0  0  0  0
   36.1410   31.1780   39.0390 H   0  0  0  0  0  0  0  0  0  0  0  0
   38.4000   31.6680   40.2250 N   0  0  0  0  0  0  0  0  0  0  0  0
   38.4850   32.9220   40.7100 C   0  0  0  0  0  3  0  0  0  0  0  0
   39.4480   33.7750   40.2320 C   0  0  0  0  0  0  0  0  0  0  0  0
   39.4600   34.7650   40.6660 H   0  0  0  0  0  0  0  0  0  0  0  0
   40.3350   33.3650   39.2580 C   0  0  0  0  0  0  0  0  0  0  0  0
   41.2130   34.1590   38.8290 O   0  0  0  0  0  0  0  0  0  0  0  0
   40.2300   32.0980   38.7840 N   0  0  0  0  0  0  0  0  0  0  0  0
   39.2720   31.2650   39.2660 C   0  0  0  0  0  0  0  0  0  0  0  0
   39.3200   30.1300   38.7130 O   0  0  0  0  0  0  0  0  0  0  0  0
   40.9230   31.8580   38.0580 H   0  0  0  0  0  0  0  0  0  0  0  0
   37.1390   27.7320   43.0160 C   0  0  0  0  0  0  0  0  0  0  0  0
   37.9230   28.1420   43.6950 H   0  0  0  0  0  0  0  0  0  0  0  0
   36.2340   27.5850   43.6400 H   0  0  0  0  0  0  0  0  0  0  0  0
   37.3830   24.2200   41.7410 C   0  0  0  0  0  0  0  0  0  0  0  0
   38.7730   24.0550   41.6470 C   0  0  0  0  0  0  0  0  0  0  0  0
   39.5810   25.1280   42.0160 C   0  0  0  0  0  0  0  0  0  0  0  0
   39.0180   26.2770   42.4450 N   0  0  0  0  0  0  0  0  0  0  0  0
   37.6560   26.4150   42.5280 C   0  0  0  0  0  0  0  0  0  0  0  0
   36.8730   25.3750   42.1700 N   0  0  0  0  0  0  0  0  0  0  0  0
   36.6920   23.4320   41.4730 H   0  0  0  0  0  0  0  0  0  0  0  0
   39.1380   23.1050   41.2950 H   0  0  0  0  0  0  0  0  0  0  0  0
   40.6540   24.9960   41.9420 H   0  0  0  0  0  0  0  0  0  0  0  0
  2  3  1  0  0  0  0
  2  1  1  0  0  0  0
  3 21  1  0  0  0  0
  4  8  1  0  0  0  0
  4  3  2  0  0  0  0
  5  4  1  0  0  0  0
  6  5  2  0  0  0  0
  6  7  1  0  0  0  0
  7  2  2  0  0  0  0
  9  5  1  0  0  0  0
 10  6  1  0  0  0  0
 11  7  1  0  0  0  0
 11 12  1  0  0  0  0
 13 14  1  0  0  0  0
 13 12  2  0  0  0  0
 15 13  1  0  0  0  0
 16 15  2  0  0  0  0
 17 15  1  0  0  0  0
 17 18  1  0  0  0  0
 18 11  1  0  0  0  0
 19 18  2  0  0  0  0
 20 17  1  0  0  0  0
 21 23  1  0  0  0  0
 21 22  1  0  0  0  0
 24 29  1  0  0  0  0
 25 24  2  0  0  0  0
 25 26  1  0  0  0  0
 26 27  2  0  0  0  0
 27 28  1  0  0  0  0
 28 21  1  0  0  0  0
 29 28  2  0  0  0  0
 30 24  1  0  0  0  0
 31 25  1  0  0  0  0
 32 26  1  0  0  0  0
M  END
>  <minimizedAffinity>
-5.74497604

$$$$

 OpenBabel03252502543D

 32 34  0  0  0  0  0  0  0  0999 V2000
   38.8440   28.2860   39.3070 Br  0  0  0  0  0  0  0  0  0  0  0  0
   37.9940   27.9670   41.0030 C   0  0  0  0  0  0  0  0  0  0  0  0
   37.7640   26.6550   41.3260 C   0  0  0  0  0  0  0  0  0  0  0  0
   37.1430   26.4580   42.5700 C   0  0  0  0  0  0  0  0  0  0  0  0
   36.7910   27.5080   43.4040 C   0  0  0  0  0  0  0  0  0  0  0  0
   37.0510   28.7900   43.0170 C   0  0  0  0  0  0  0  0  0  0  0  0
   37.6640   29.0380   41.7940 C   0  0  0  0  0  0  0  0  0  0  0  0
   36.9020   25.4730   42.9510 H   0  0  0  0  0  0  0  0  0  0  0  0
   36.3140   27.3320   44.3570 H   0  0  0  0  0  0  0  0  0  0  0  0
   36.8000   29.6500   43.6240 H   0  0  0  0  0  0  0  0  0  0  0  0
   37.9300   30.3780   41.4000 N   0  0  0  0  0  0  0  0  0  0  0  0
   39.0640   31.0980   41.4960 C   0  0  0  0  0  3  0  0  0  0  0  0
   39.0890   32.3950   41.0430 C   0  0  0  0  0  0  0  0  0  0  0  0
   40.0320   32.9140   41.1500 H   0  0  0  0  0  0  0  0  0  0  0  0
   37.9650   32.9720   40.4890 C   0  0  0  0  0  0  0  0  0  0  0  0
   38.0040   34.1610   40.0790 O   0  0  0  0  0  0  0  0  0  0  0  0
   36.8350   32.2260   40.4040 N   0  0  0  0  0  0  0  0  0  0  0  0
   36.8240   30.9460   40.8560 C   0  0  0  0  0  0  0  0  0  0  0  0
   35.6930   30.4060   40.6990 O   0  0  0  0  0  0  0  0  0  0  0  0
   36.0330   32.7190   39.9800 H   0  0  0  0  0  0  0  0  0  0  0  0
   38.0880   25.4690   40.5330 C   0  0  0  0  0  0  0  0  0  0  0  0
   38.8580   25.7660   39.7840 H   0  0  0  0  0  0  0  0  0  0  0  0
   38.5420   24.6610   41.1430 H   0  0  0  0  0  0  0  0  0  0  0  0
   35.3700   25.0290   37.9960 C   0  0  0  0  0  0  0  0  0  0  0  0
   34.7800   23.8310   38.4270 C   0  0  0  0  0  0  0  0  0  0  0  0
   35.3150   23.2120   39.5540 C   0  0  0  0  0  0  0  0  0  0  0  0
   36.3660   23.7690   40.1920 N   0  0  0  0  0  0  0  0  0  0  0  0
   36.9260   24.9410   39.7520 C   0  0  0  0  0  0  0  0  0  0  0  0
   36.4080   25.5410   38.6590 N   0  0  0  0  0  0  0  0  0  0  0  0
   35.0100   25.5670   37.1290 H   0  0  0  0  0  0  0  0  0  0  0  0
   33.9450   23.4560   37.8600 H   0  0  0  0  0  0  0  0  0  0  0  0
   34.8560   22.2870   39.8830 H   0  0  0  0  0  0  0  0  0  0  0  0
  1  2  1  0  0  0  0
  2  3  2  0  0  0  0
  2  7  1  0  0  0  0
  3  4  1  0  0  0  0
  4  8  1  0  0  0  0
  4  5  2  0  0  0  0
  5  9  1  0  0  0  0
  6  5  1  0  0  0  0
  6 10  1  0  0  0  0
  7  6  2  0  0  0  0
 11 12  1  0  0  0  0
 11  7  1  0  0  0  0
 13 14  1  0  0  0  0
 13 12  2  0  0  0  0
 15 13  1  0  0  0  0
 16 15  2  0  0  0  0
 17 15  1  0  0  0  0
 17 18  1  0  0  0  0
 18 11  1  0  0  0  0
 19 18  2  0  0  0  0
 20 17  1  0  0  0  0
 21 23  1  0  0  0  0
 21  3  1  0  0  0  0
 22 21  1  0  0  0  0
 24 25  2  0  0  0  0
 24 29  1  0  0  0  0
 25 26  1  0  0  0  0
 26 32  1  0  0  0  0
 26 27  2  0  0  0  0
 28 27  1  0  0  0  0
 28 21  1  0  0  0  0
 29 28  2  0  0  0  0
 30 24  1  0  0  0  0
 31 25  1  0  0  0  0
M  END
>  <minimizedAffinity>
-5.72241688

$$$$

 OpenBabel03252502543D

 32 34  0  0  0  0  0  0  0  0999 V2000
   37.7030   28.3400   39.0190 Br  0  0  0  0  0  0  0  0  0  0  0  0
   37.4650   28.0360   40.9030 C   0  0  0  0  0  0  0  0  0  0  0  0
   37.1570   26.7530   41.2740 C   0  0  0  0  0  0  0  0  0  0  0  0
   36.9900   26.5660   42.6560 C   0  0  0  0  0  0  0  0  0  0  0  0
   37.1270   27.5990   43.5700 C   0  0  0  0  0  0  0  0  0  0  0  0
   37.4340   28.8520   43.1290 C   0  0  0  0  0  0  0  0  0  0  0  0
   37.6100   29.0890   41.7710 C   0  0  0  0  0  0  0  0  0  0  0  0
   36.7450   25.6040   43.0880 H   0  0  0  0  0  0  0  0  0  0  0  0
   36.9940   27.4310   44.6300 H   0  0  0  0  0  0  0  0  0  0  0  0
   37.5530   29.6970   43.7940 H   0  0  0  0  0  0  0  0  0  0  0  0
   37.9300   30.3990   41.3210 N   0  0  0  0  0  0  0  0  0  0  0  0
   39.1250   31.0130   41.2290 C   0  0  0  0  0  3  0  0  0  0  0  0
   39.1950   32.3020   40.7600 C   0  0  0  0  0  0  0  0  0  0  0  0
   40.1860   32.7340   40.7120 H   0  0  0  0  0  0  0  0  0  0  0  0
   38.0550   32.9790   40.3780 C   0  0  0  0  0  0  0  0  0  0  0  0
   38.1360   34.1590   39.9500 O   0  0  0  0  0  0  0  0  0  0  0  0
   36.8630   32.3390   40.4800 N   0  0  0  0  0  0  0  0  0  0  0  0
   36.8080   31.0640   40.9470 C   0  0  0  0  0  0  0  0  0  0  0  0
   35.6230   30.6290   40.9740 O   0  0  0  0  0  0  0  0  0  0  0  0
   36.0520   32.9020   40.1790 H   0  0  0  0  0  0  0  0  0  0  0  0
   36.9880   25.5880   40.4060 C   0  0  0  0  0  0  0  0  0  0  0  0
   36.5760   24.7600   41.0300 H   0  0  0  0  0  0  0  0  0  0  0  0
   36.2500   25.7640   39.5970 H   0  0  0  0  0  0  0  0  0  0  0  0
   39.5500   23.9670   38.2100 C   0  0  0  0  0  0  0  0  0  0  0  0
   40.7290   24.2160   38.9290 C   0  0  0  0  0  0  0  0  0  0  0  0
   40.6230   24.9190   40.1270 C   0  0  0  0  0  0  0  0  0  0  0  0
   39.4140   25.3350   40.5580 N   0  0  0  0  0  0  0  0  0  0  0  0
   38.2750   25.0800   39.8360 C   0  0  0  0  0  0  0  0  0  0  0  0
   38.3780   24.3990   38.6760 N   0  0  0  0  0  0  0  0  0  0  0  0
   39.5530   23.4270   37.2720 H   0  0  0  0  0  0  0  0  0  0  0  0
   41.6520   23.8480   38.5130 H   0  0  0  0  0  0  0  0  0  0  0  0
   41.5370   25.1090   40.6790 H   0  0  0  0  0  0  0  0  0  0  0  0
  1  2  1  0  0  0  0
  2  3  2  0  0  0  0
  2  7  1  0  0  0  0
  3  4  1  0  0  0  0
  4  8  1  0  0  0  0
  4  5  2  0  0  0  0
  5  9  1  0  0  0  0
  6  5  1  0  0  0  0
  6 10  1  0  0  0  0
  7  6  2  0  0  0  0
 11  7  1  0  0  0  0
 12 11  1  0  0  0  0
 13 12  2  0  0  0  0
 14 13  1  0  0  0  0
 15 17  1  0  0  0  0
 15 13  1  0  0  0  0
 16 15  2  0  0  0  0
 17 18  1  0  0  0  0
 18 19  2  0  0  0  0
 18 11  1  0  0  0  0
 20 17  1  0  0  0  0
 21 22  1  0  0  0  0
 21  3  1  0  0  0  0
 23 21  1  0  0  0  0
 24 29  2  0  0  0  0
 24 25  1  0  0  0  0
 25 26  2  0  0  0  0
 26 27  1  0  0  0  0
 26 32  1  0  0  0  0
 28 21  1  0  0  0  0
 28 27  2  0  0  0  0
 29 28  1  0  0  0  0
 30 24  1  0  0  0  0
 31 25  1  0  0  0  0
M  END
>  <minimizedAffinity>
-5.71097374

$$$$

 OpenBabel03252502543D

 32 34  0  0  0  0  0  0  0  0999 V2000
   40.5960   30.3320   41.6980 Br  0  0  0  0  0  0  0  0  0  0  0  0
   38.7620   30.4730   41.1360 C   0  0  0  0  0  0  0  0  0  0  0  0
   37.8320   29.8820   41.9510 C   0  0  0  0  0  0  0  0  0  0  0  0
   36.5050   30.0040   41.5120 C   0  0  0  0  0  0  0  0  0  0  0  0
   36.1630   30.6700   40.3450 C   0  0  0  0  0  0  0  0  0  0  0  0
   37.1410   31.2350   39.5820 C   0  0  0  0  0  0  0  0  0  0  0  0
   38.4710   31.1420   39.9740 C   0  0  0  0  0  0  0  0  0  0  0  0
   35.6690   29.5840   42.0590 H   0  0  0  0  0  0  0  0  0  0  0  0
   35.1330   30.7510   40.0260 H   0  0  0  0  0  0  0  0  0  0  0  0
   36.9360   31.7670   38.6620 H   0  0  0  0  0  0  0  0  0  0  0  0
   39.4840   31.7350   39.1700 N   0  0  0  0  0  0  0  0  0  0  0  0
   40.2390   31.1950   38.1940 C   0  0  0  0  0  3  0  0  0  0  0  0
   41.1700   31.9700   37.5450 C   0  0  0  0  0  0  0  0  0  0  0  0
   41.7410   31.4730   36.7720 H   0  0  0  0  0  0  0  0  0  0  0  0
   41.3420   33.2970   37.8790 C   0  0  0  0  0  0  0  0  0  0  0  0
   42.1990   33.9930   37.2750 O   0  0  0  0  0  0  0  0  0  0  0  0
   40.5700   33.8170   38.8660 N   0  0  0  0  0  0  0  0  0  0  0  0
   39.6540   33.0410   39.5000 C   0  0  0  0  0  0  0  0  0  0  0  0
   39.0280   33.6860   40.3860 O   0  0  0  0  0  0  0  0  0  0  0  0
   40.7510   34.8140   39.0650 H   0  0  0  0  0  0  0  0  0  0  0  0
   38.0710   29.1560   43.1980 C   0  0  0  0  0  0  0  0  0  0  0  0
   38.9790   29.5940   43.6750 H   0  0  0  0  0  0  0  0  0  0  0  0
   37.2450   29.2810   43.9280 H   0  0  0  0  0  0  0  0  0  0  0  0
   39.7520   25.8110   43.1140 C   0  0  0  0  0  0  0  0  0  0  0  0
   38.7490   25.0110   42.5470 C   0  0  0  0  0  0  0  0  0  0  0  0
   37.5420   25.6220   42.2130 C   0  0  0  0  0  0  0  0  0  0  0  0
   37.3710   26.9410   42.4370 N   0  0  0  0  0  0  0  0  0  0  0  0
   38.3680   27.7030   42.9930 C   0  0  0  0  0  0  0  0  0  0  0  0
   39.5370   27.1110   43.3170 N   0  0  0  0  0  0  0  0  0  0  0  0
   40.7150   25.4080   43.3990 H   0  0  0  0  0  0  0  0  0  0  0  0
   38.9690   23.9660   42.4020 H   0  0  0  0  0  0  0  0  0  0  0  0
   36.7700   24.9990   41.7750 H   0  0  0  0  0  0  0  0  0  0  0  0
  2  1  1  0  0  0  0
  2  3  1  0  0  0  0
  3 21  1  0  0  0  0
  4  3  2  0  0  0  0
  4  8  1  0  0  0  0
  5  4  1  0  0  0  0
  6  7  1  0  0  0  0
  6  5  2  0  0  0  0
  7  2  2  0  0  0  0
  9  5  1  0  0  0  0
 10  6  1  0  0  0  0
 11 18  1  0  0  0  0
 11  7  1  0  0  0  0
 12 11  1  0  0  0  0
 13 15  1  0  0  0  0
 13 12  2  0  0  0  0
 14 13  1  0  0  0  0
 15 17  1  0  0  0  0
 16 15  2  0  0  0  0
 17 20  1  0  0  0  0
 17 18  1  0  0  0  0
 18 19  2  0  0  0  0
 21 22  1  0  0  0  0
 21 23  1  0  0  0  0
 24 29  1  0  0  0  0
 24 30  1  0  0  0  0
 25 24  2  0  0  0  0
 26 27  2  0  0  0  0
 26 25  1  0  0  0  0
 27 28  1  0  0  0  0
 28 21  1  0  0  0  0
 28 29  2  0  0  0  0
 31 25  1  0  0  0  0
 32 26  1  0  0  0  0
M  END
>  <minimizedAffinity>
-5.69068289

$$$$

 OpenBabel03252502543D

 32 34  0  0  0  0  0  0  0  0999 V2000
   38.9910   28.3150   38.0850 Br  0  0  0  0  0  0  0  0  0  0  0  0
   37.7610   29.3040   39.1850 C   0  0  0  0  0  0  0  0  0  0  0  0
   36.6620   28.6170   39.6320 C   0  0  0  0  0  0  0  0  0  0  0  0
   35.7860   29.3670   40.4320 C   0  0  0  0  0  0  0  0  0  0  0  0
   36.0160   30.6980   40.7450 C   0  0  0  0  0  0  0  0  0  0  0  0
   37.1310   31.3190   40.2640 C   0  0  0  0  0  0  0  0  0  0  0  0
   38.0300   30.6190   39.4680 C   0  0  0  0  0  0  0  0  0  0  0  0
   34.8790   28.9500   40.8520 H   0  0  0  0  0  0  0  0  0  0  0  0
   35.3270   31.2560   41.3630 H   0  0  0  0  0  0  0  0  0  0  0  0
   37.3640   32.3550   40.4740 H   0  0  0  0  0  0  0  0  0  0  0  0
   39.1900   31.2760   38.9720 N   0  0  0  0  0  0  0  0  0  0  0  0
   40.3920   31.4600   39.5500 C   0  0  0  0  0  3  0  0  0  0  0  0
   41.3780   32.1360   38.8730 C   0  0  0  0  0  0  0  0  0  0  0  0
   42.3180   32.2470   39.3950 H   0  0  0  0  0  0  0  0  0  0  0  0
   41.1530   32.6290   37.6040 C   0  0  0  0  0  0  0  0  0  0  0  0
   42.0670   33.2460   36.9970 O   0  0  0  0  0  0  0  0  0  0  0  0
   39.9340   32.4320   37.0440 N   0  0  0  0  0  0  0  0  0  0  0  0
   38.9680   31.7620   37.7240 C   0  0  0  0  0  0  0  0  0  0  0  0
   37.9020   31.6730   37.0540 O   0  0  0  0  0  0  0  0  0  0  0  0
   39.8340   32.8270   36.0950 H   0  0  0  0  0  0  0  0  0  0  0  0
   36.3150   27.2200   39.3700 C   0  0  0  0  0  0  0  0  0  0  0  0
   35.2050   27.1330   39.4290 H   0  0  0  0  0  0  0  0  0  0  0  0
   36.5980   26.8960   38.3480 H   0  0  0  0  0  0  0  0  0  0  0  0
   38.1100   25.7490   42.3080 C   0  0  0  0  0  0  0  0  0  0  0  0
   37.7890   24.3890   42.1760 C   0  0  0  0  0  0  0  0  0  0  0  0
   36.9810   24.0130   41.1060 C   0  0  0  0  0  0  0  0  0  0  0  0
   36.5360   24.9460   40.2380 N   0  0  0  0  0  0  0  0  0  0  0  0
   36.8640   26.2700   40.3880 C   0  0  0  0  0  0  0  0  0  0  0  0
   37.6460   26.6340   41.4260 N   0  0  0  0  0  0  0  0  0  0  0  0
   38.7320   26.1160   43.1130 H   0  0  0  0  0  0  0  0  0  0  0  0
   38.1870   23.7110   42.9130 H   0  0  0  0  0  0  0  0  0  0  0  0
   36.7360   22.9610   41.0080 H   0  0  0  0  0  0  0  0  0  0  0  0
  1  2  1  0  0  0  0
  2  7  2  0  0  0  0
  2  3  1  0  0  0  0
  3  4  2  0  0  0  0
  4  5  1  0  0  0  0
  4  8  1  0  0  0  0
  5  9  1  0  0  0  0
  6 10  1  0  0  0  0
  6  5  2  0  0  0  0
  7  6  1  0  0  0  0
 11  7  1  0  0  0  0
 11 12  1  0  0  0  0
 13 14  1  0  0  0  0
 13 12  2  0  0  0  0
 15 13  1  0  0  0  0
 16 15  2  0  0  0  0
 17 15  1  0  0  0  0
 17 18  1  0  0  0  0
 18 11  1  0  0  0  0
 19 18  2  0  0  0  0
 20 17  1  0  0  0  0
 21 22  1  0  0  0  0
 21  3  1  0  0  0  0
 21 28  1  0  0  0  0
 23 21  1  0  0  0  0
 24 30  1  0  0  0  0
 25 24  1  0  0  0  0
 25 31  1  0  0  0  0
 26 25  2  0  0  0  0
 27 28  2  0  0  0  0
 27 26  1  0  0  0  0
 28 29  1  0  0  0  0
 29 24  2  0  0  0  0
 32 26  1  0  0  0  0
M  END
>  <minimizedAffinity>
-5.65488815

$$$$

 OpenBabel03252502543D

 32 34  0  0  0  0  0  0  0  0999 V2000
   39.8350   27.3260   40.1320 Br  0  0  0  0  0  0  0  0  0  0  0  0
   38.6090   27.5320   41.5990 C   0  0  0  0  0  0  0  0  0  0  0  0
   38.6430   28.7380   42.2510 C   0  0  0  0  0  0  0  0  0  0  0  0
   37.7360   28.8550   43.3160 C   0  0  0  0  0  0  0  0  0  0  0  0
   36.8750   27.8310   43.6790 C   0  0  0  0  0  0  0  0  0  0  0  0
   36.8960   26.6570   42.9860 C   0  0  0  0  0  0  0  0  0  0  0  0
   37.7750   26.4920   41.9230 C   0  0  0  0  0  0  0  0  0  0  0  0
   37.6570   29.7520   43.9180 H   0  0  0  0  0  0  0  0  0  0  0  0
   36.1850   27.9440   44.5040 H   0  0  0  0  0  0  0  0  0  0  0  0
   36.2490   25.8230   43.2220 H   0  0  0  0  0  0  0  0  0  0  0  0
   37.7890   25.2630   41.2060 N   0  0  0  0  0  0  0  0  0  0  0  0
   38.4680   24.1260   41.4520 C   0  0  0  0  0  3  0  0  0  0  0  0
   38.3240   23.0500   40.6110 C   0  0  0  0  0  0  0  0  0  0  0  0
   38.8970   22.1700   40.8680 H   0  0  0  0  0  0  0  0  0  0  0  0
   37.4910   23.1170   39.5130 C   0  0  0  0  0  0  0  0  0  0  0  0
   37.3700   22.1230   38.7520 O   0  0  0  0  0  0  0  0  0  0  0  0
   36.8190   24.2740   39.2860 N   0  0  0  0  0  0  0  0  0  0  0  0
   36.9700   25.3300   40.1260 C   0  0  0  0  0  0  0  0  0  0  0  0
   36.2730   26.3180   39.7630 O   0  0  0  0  0  0  0  0  0  0  0  0
   36.2150   24.2550   38.4490 H   0  0  0  0  0  0  0  0  0  0  0  0
   39.5020   29.8860   41.9610 C   0  0  0  0  0  0  0  0  0  0  0  0
   39.8250   30.3190   42.9370 H   0  0  0  0  0  0  0  0  0  0  0  0
   40.4300   29.5980   41.4270 H   0  0  0  0  0  0  0  0  0  0  0  0
   37.1160   31.8210   39.8210 C   0  0  0  0  0  0  0  0  0  0  0  0
   37.6220   33.1230   39.9490 C   0  0  0  0  0  0  0  0  0  0  0  0
   38.7470   33.3070   40.7500 C   0  0  0  0  0  0  0  0  0  0  0  0
   39.3120   32.2500   41.3690 N   0  0  0  0  0  0  0  0  0  0  0  0
   38.7980   30.9850   41.2290 C   0  0  0  0  0  0  0  0  0  0  0  0
   37.7080   30.8070   40.4540 N   0  0  0  0  0  0  0  0  0  0  0  0
   36.2460   31.6000   39.2170 H   0  0  0  0  0  0  0  0  0  0  0  0
   37.1110   33.9090   39.4190 H   0  0  0  0  0  0  0  0  0  0  0  0
   39.1350   34.3150   40.8450 H   0  0  0  0  0  0  0  0  0  0  0  0
  1  2  1  0  0  0  0
  2  7  2  0  0  0  0
  2  3  1  0  0  0  0
  3  4  2  0  0  0  0
  4  5  1  0  0  0  0
  4  8  1  0  0  0  0
  5  9  1  0  0  0  0
  6 10  1  0  0  0  0
  6  5  2  0  0  0  0
  7  6  1  0  0  0  0
 11 12  1  0  0  0  0
 11  7  1  0  0  0  0
 13 14  1  0  0  0  0
 13 12  2  0  0  0  0
 15 13  1  0  0  0  0
 16 15  2  0  0  0  0
 17 15  1  0  0  0  0
 17 18  1  0  0  0  0
 18 11  1  0  0  0  0
 19 18  2  0  0  0  0
 20 17  1  0  0  0  0
 21  3  1  0  0  0  0
 21 22  1  0  0  0  0
 23 21  1  0  0  0  0
 24 25  2  0  0  0  0
 24 29  1  0  0  0  0
 25 26  1  0  0  0  0
 26 32  1  0  0  0  0
 26 27  2  0  0  0  0
 28 27  1  0  0  0  0
 28 21  1  0  0  0  0
 29 28  2  0  0  0  0
 30 24  1  0  0  0  0
 31 25  1  0  0  0  0
M  END
>  <minimizedAffinity>
-5.4508934

$$$$

 OpenBabel03252502543D

 32 34  0  0  0  0  0  0  0  0999 V2000
   36.1560   26.6730   38.7310 Br  0  0  0  0  0  0  0  0  0  0  0  0
   36.6770   26.9550   40.5610 C   0  0  0  0  0  0  0  0  0  0  0  0
   36.2400   28.1170   41.1420 C   0  0  0  0  0  0  0  0  0  0  0  0
   36.6380   28.2910   42.4770 C   0  0  0  0  0  0  0  0  0  0  0  0
   37.4120   27.3600   43.1520 C   0  0  0  0  0  0  0  0  0  0  0  0
   37.8130   26.2260   42.5110 C   0  0  0  0  0  0  0  0  0  0  0  0
   37.4440   26.0060   41.1890 C   0  0  0  0  0  0  0  0  0  0  0  0
   36.3640   29.1630   43.0570 H   0  0  0  0  0  0  0  0  0  0  0  0
   37.7070   27.5160   44.1810 H   0  0  0  0  0  0  0  0  0  0  0  0
   38.4180   25.4640   42.9850 H   0  0  0  0  0  0  0  0  0  0  0  0
   37.8670   24.8190   40.5290 N   0  0  0  0  0  0  0  0  0  0  0  0
   37.2670   23.6170   40.4440 C   0  0  0  0  0  3  0  0  0  0  0  0
   37.8700   22.6010   39.7430 C   0  0  0  0  0  0  0  0  0  0  0  0
   37.3330   21.6630   39.7150 H   0  0  0  0  0  0  0  0  0  0  0  0
   39.0850   22.7970   39.1210 C   0  0  0  0  0  0  0  0  0  0  0  0
   39.6250   21.8560   38.4820 O   0  0  0  0  0  0  0  0  0  0  0  0
   39.6710   24.0160   39.2210 N   0  0  0  0  0  0  0  0  0  0  0  0
   39.0640   25.0120   39.9180 C   0  0  0  0  0  0  0  0  0  0  0  0
   39.7480   26.0730   39.9060 O   0  0  0  0  0  0  0  0  0  0  0  0
   40.5770   24.0930   38.7330 H   0  0  0  0  0  0  0  0  0  0  0  0
   35.4240   29.1670   40.5340 C   0  0  0  0  0  0  0  0  0  0  0  0
   34.9130   28.7260   39.6470 H   0  0  0  0  0  0  0  0  0  0  0  0
   34.6190   29.5250   41.2100 H   0  0  0  0  0  0  0  0  0  0  0  0
   37.3630   32.3600   40.2800 C   0  0  0  0  0  0  0  0  0  0  0  0
   37.7000   32.3720   38.9180 C   0  0  0  0  0  0  0  0  0  0  0  0
   37.2640   31.3080   38.1320 C   0  0  0  0  0  0  0  0  0  0  0  0
   36.5430   30.3120   38.6870 N   0  0  0  0  0  0  0  0  0  0  0  0
   36.2260   30.3220   40.0230 C   0  0  0  0  0  0  0  0  0  0  0  0
   36.6490   31.3530   40.7840 N   0  0  0  0  0  0  0  0  0  0  0  0
   37.6650   33.1510   40.9530 H   0  0  0  0  0  0  0  0  0  0  0  0
   38.2780   33.2060   38.5570 H   0  0  0  0  0  0  0  0  0  0  0  0
   37.5270   31.3220   37.0800 H   0  0  0  0  0  0  0  0  0  0  0  0
  1  2  1  0  0  0  0
  2  3  2  0  0  0  0
  2  7  1  0  0  0  0
  3  4  1  0  0  0  0
  4  8  1  0  0  0  0
  4  5  2  0  0  0  0
  5  9  1  0  0  0  0
  6 10  1  0  0  0  0
  6  5  1  0  0  0  0
  7  6  2  0  0  0  0
 11  7  1  0  0  0  0
 12 11  1  0  0  0  0
 13 12  2  0  0  0  0
 14 13  1  0  0  0  0
 15 17  1  0  0  0  0
 15 13  1  0  0  0  0
 16 15  2  0  0  0  0
 17 18  1  0  0  0  0
 18 11  1  0  0  0  0
 19 18  2  0  0  0  0
 20 17  1  0  0  0  0
 21  3  1  0  0  0  0
 21 23  1  0  0  0  0
 22 21  1  0  0  0  0
 24 29  1  0  0  0  0
 24 30  1  0  0  0  0
 25 24  2  0  0  0  0
 26 27  2  0  0  0  0
 26 25  1  0  0  0  0
 27 28  1  0  0  0  0
 28 21  1  0  0  0  0
 28 29  2  0  0  0  0
 31 25  1  0  0  0  0
 32 26  1  0  0  0  0
M  END
>  <minimizedAffinity>
-5.3059864

$$$$

 OpenBabel03252502543D

 32 34  0  0  0  0  0  0  0  0999 V2000
   36.5430   26.3820   39.3400 Br  0  0  0  0  0  0  0  0  0  0  0  0
   36.7130   28.0900   40.2070 C   0  0  0  0  0  0  0  0  0  0  0  0
   36.8680   28.0640   41.5690 C   0  0  0  0  0  0  0  0  0  0  0  0
   36.9890   29.3270   42.1700 C   0  0  0  0  0  0  0  0  0  0  0  0
   36.9550   30.5060   41.4420 C   0  0  0  0  0  0  0  0  0  0  0  0
   36.7980   30.4570   40.0880 C   0  0  0  0  0  0  0  0  0  0  0  0
   36.6740   29.2310   39.4460 C   0  0  0  0  0  0  0  0  0  0  0  0
   37.1160   29.4540   43.2380 H   0  0  0  0  0  0  0  0  0  0  0  0
   37.0510   31.4680   41.9260 H   0  0  0  0  0  0  0  0  0  0  0  0
   36.7640   31.3420   39.4670 H   0  0  0  0  0  0  0  0  0  0  0  0
   36.5100   29.1900   38.0330 N   0  0  0  0  0  0  0  0  0  0  0  0
   35.3850   29.1620   37.2940 C   0  0  0  0  0  3  0  0  0  0  0  0
   35.4700   29.1240   35.9240 C   0  0  0  0  0  0  0  0  0  0  0  0
   34.5280   29.1040   35.3920 H   0  0  0  0  0  0  0  0  0  0  0  0
   36.6960   29.1130   35.2920 C   0  0  0  0  0  0  0  0  0  0  0  0
   36.7580   29.0780   34.0350 O   0  0  0  0  0  0  0  0  0  0  0  0
   37.8150   29.1410   36.0580 N   0  0  0  0  0  0  0  0  0  0  0  0
   37.7170   29.1790   37.4120 C   0  0  0  0  0  0  0  0  0  0  0  0
   38.8530   29.2000   37.9620 O   0  0  0  0  0  0  0  0  0  0  0  0
   38.6970   29.1310   35.5210 H   0  0  0  0  0  0  0  0  0  0  0  0
   36.9180   26.8900   42.4400 C   0  0  0  0  0  0  0  0  0  0  0  0
   36.4360   27.1670   43.4070 H   0  0  0  0  0  0  0  0  0  0  0  0
   36.3360   26.0360   42.0370 H   0  0  0  0  0  0  0  0  0  0  0  0
   40.4520   26.8080   43.6730 C   0  0  0  0  0  0  0  0  0  0  0  0
   40.8380   25.5050   43.3230 C   0  0  0  0  0  0  0  0  0  0  0  0
   39.8980   24.6990   42.6860 C   0  0  0  0  0  0  0  0  0  0  0  0
   38.6650   25.1800   42.4250 N   0  0  0  0  0  0  0  0  0  0  0  0
   38.3110   26.4590   42.7760 C   0  0  0  0  0  0  0  0  0  0  0  0
   39.2220   27.2400   43.3950 N   0  0  0  0  0  0  0  0  0  0  0  0
   41.1280   27.4920   44.1690 H   0  0  0  0  0  0  0  0  0  0  0  0
   41.8420   25.2010   43.5680 H   0  0  0  0  0  0  0  0  0  0  0  0
   40.2000   23.6920   42.4170 H   0  0  0  0  0  0  0  0  0  0  0  0
  1  2  1  0  0  0  0
  2  3  1  0  0  0  0
  3  4  2  0  0  0  0
  3 21  1  0  0  0  0
  4  8  1  0  0  0  0
  5  9  1  0  0  0  0
  5  4  1  0  0  0  0
  6  5  2  0  0  0  0
  7  6  1  0  0  0  0
  7  2  2  0  0  0  0
 10  6  1  0  0  0  0
 11  7  1  0  0  0  0
 12 11  1  0  0  0  0
 13 12  2  0  0  0  0
 14 13  1  0  0  0  0
 15 13  1  0  0  0  0
 15 17  1  0  0  0  0
 16 15  2  0  0  0  0
 17 18  1  0  0  0  0
 18 19  2  0  0  0  0
 18 11  1  0  0  0  0
 20 17  1  0  0  0  0
 21 28  1  0  0  0  0
 21 22  1  0  0  0  0
 23 21  1  0  0  0  0
 24 30  1  0  0  0  0
 25 31  1  0  0  0  0
 25 24  2  0  0  0  0
 26 25  1  0  0  0  0
 27 26  2  0  0  0  0
 27 28  1  0  0  0  0
 28 29  2  0  0  0  0
 29 24  1  0  0  0  0
 32 26  1  0  0  0  0
M  END
>  <minimizedAffinity>
-5.24542236

$$$$
