
 OpenBabel03242523293D

 22 23  0  0  0  0  0  0  0  0999 V2000
   35.6920   28.8990   41.0000 C   0  0  0  0  0  0  0  0  0  0  0  0
   34.9540   29.2580   41.7590 H   0  0  0  0  0  0  0  0  0  0  0  0
   35.1340   28.2410   40.3130 H   0  0  0  0  0  0  0  0  0  0  0  0
   36.6930   28.0790   41.6530 N   0  0  0  0  0  0  0  0  0  0  0  0
   37.2200   28.5170   42.8160 C   0  0  0  0  0  3  0  0  0  0  0  0
   38.1850   27.7390   43.4600 C   0  0  0  0  0  0  0  0  0  0  0  0
   38.6600   28.0130   44.3940 H   0  0  0  0  0  0  0  0  0  0  0  0
   38.5840   26.5260   42.8840 C   0  0  0  0  0  0  0  0  0  0  0  0
   39.4360   25.8000   43.4160 O   0  0  0  0  0  0  0  0  0  0  0  0
   37.9790   26.2200   41.7350 N   0  0  0  0  0  0  0  0  0  0  0  0
   37.0500   26.9120   41.0650 C   0  0  0  0  0  0  0  0  0  0  0  0
   36.5600   26.5060   39.9840 O   0  0  0  0  0  0  0  0  0  0  0  0
   38.2780   25.3040   41.3000 H   0  0  0  0  0  0  0  0  0  0  0  0
   37.0890   32.2280   40.0810 C   0  0  0  0  0  0  0  0  0  0  0  0
   37.3540   32.0660   38.7070 C   0  0  0  0  0  0  0  0  0  0  0  0
   37.0430   30.8300   38.1600 C   0  0  0  0  0  0  0  0  0  0  0  0
   36.5140   29.8470   38.9280 N   0  0  0  0  0  0  0  0  0  0  0  0
   36.2750   30.0530   40.2600 C   0  0  0  0  0  0  0  0  0  0  0  0
   36.5680   31.2380   40.8030 N   0  0  0  0  0  0  0  0  0  0  0  0
   37.3160   33.1870   40.5650 H   0  0  0  0  0  0  0  0  0  0  0  0
   37.7740   32.8650   38.1240 H   0  0  0  0  0  0  0  0  0  0  0  0
   37.2340   30.6720   37.1080 H   0  0  0  0  0  0  0  0  0  0  0  0
  1  4  1  0  0  0  0
  1  2  1  0  0  0  0
  3  1  1  0  0  0  0
  4  5  1  0  0  0  0
  5  6  2  0  0  0  0
  6  7  1  0  0  0  0
  8  9  2  0  0  0  0
  8  6  1  0  0  0  0
 10  8  1  0  0  0  0
 11  4  1  0  0  0  0
 11 10  1  0  0  0  0
 12 11  2  0  0  0  0
 13 10  1  0  0  0  0
 14 20  1  0  0  0  0
 14 19  1  0  0  0  0
 15 14  2  0  0  0  0
 16 15  1  0  0  0  0
 16 17  2  0  0  0  0
 17 18  1  0  0  0  0
 18 19  2  0  0  0  0
 18  1  1  0  0  0  0
 21 15  1  0  0  0  0
 22 16  1  0  0  0  0
M  END
>  <minimizedAffinity>
-4.27527475

$$$$

 OpenBabel03242523293D

 22 23  0  0  0  0  0  0  0  0999 V2000
   37.1360   32.3100   39.9130 C   0  0  0  0  0  0  0  0  0  0  0  0
   36.2800   32.6480   39.2790 H   0  0  0  0  0  0  0  0  0  0  0  0
   37.2460   33.0640   40.7100 H   0  0  0  0  0  0  0  0  0  0  0  0
   38.3560   32.3380   39.1310 N   0  0  0  0  0  0  0  0  0  0  0  0
   39.4680   32.8530   39.6960 C   0  0  0  0  0  3  0  0  0  0  0  0
   40.6530   32.8880   38.9560 C   0  0  0  0  0  0  0  0  0  0  0  0
   41.5900   33.2820   39.3300 H   0  0  0  0  0  0  0  0  0  0  0  0
   40.6590   32.3890   37.6480 C   0  0  0  0  0  0  0  0  0  0  0  0
   41.6830   32.3970   36.9510 O   0  0  0  0  0  0  0  0  0  0  0  0
   39.4890   31.9100   37.2200 N   0  0  0  0  0  0  0  0  0  0  0  0
   38.3210   31.8450   37.8690 C   0  0  0  0  0  0  0  0  0  0  0  0
   37.2870   31.3670   37.3440 O   0  0  0  0  0  0  0  0  0  0  0  0
   39.4920   31.5330   36.2320 H   0  0  0  0  0  0  0  0  0  0  0  0
   35.6000   29.0200   40.7440 C   0  0  0  0  0  0  0  0  0  0  0  0
   36.4990   28.5090   41.7000 C   0  0  0  0  0  0  0  0  0  0  0  0
   37.5860   29.3110   42.0160 C   0  0  0  0  0  0  0  0  0  0  0  0
   37.7510   30.5180   41.4220 N   0  0  0  0  0  0  0  0  0  0  0  0
   36.8490   30.9700   40.4970 C   0  0  0  0  0  0  0  0  0  0  0  0
   35.7960   30.2100   40.1810 N   0  0  0  0  0  0  0  0  0  0  0  0
   34.7230   28.4260   40.4560 H   0  0  0  0  0  0  0  0  0  0  0  0
   36.3410   27.5480   42.1540 H   0  0  0  0  0  0  0  0  0  0  0  0
   38.2960   28.9490   42.7460 H   0  0  0  0  0  0  0  0  0  0  0  0
  1 18  1  0  0  0  0
  1  3  1  0  0  0  0
  2  1  1  0  0  0  0
  4  5  1  0  0  0  0
  4  1  1  0  0  0  0
  6  7  1  0  0  0  0
  6  5  2  0  0  0  0
  8  6  1  0  0  0  0
  9  8  2  0  0  0  0
 10  8  1  0  0  0  0
 10 11  1  0  0  0  0
 11  4  1  0  0  0  0
 12 11  2  0  0  0  0
 13 10  1  0  0  0  0
 14 15  1  0  0  0  0
 15 16  2  0  0  0  0
 15 21  1  0  0  0  0
 16 22  1  0  0  0  0
 17 16  1  0  0  0  0
 18 17  2  0  0  0  0
 19 18  1  0  0  0  0
 19 14  2  0  0  0  0
 20 14  1  0  0  0  0
M  END
>  <minimizedAffinity>
-4.26622581

$$$$

 OpenBabel03242523293D

 22 23  0  0  0  0  0  0  0  0999 V2000
   36.8430   27.4160   42.9690 C   0  0  0  0  0  0  0  0  0  0  0  0
   35.8060   27.1030   43.2460 H   0  0  0  0  0  0  0  0  0  0  0  0
   37.3220   27.7570   43.9020 H   0  0  0  0  0  0  0  0  0  0  0  0
   36.7790   28.5600   42.0820 N   0  0  0  0  0  0  0  0  0  0  0  0
   35.8580   28.5550   41.0950 C   0  0  0  0  0  3  0  0  0  0  0  0
   35.7830   29.6500   40.2300 C   0  0  0  0  0  0  0  0  0  0  0  0
   35.0760   29.7290   39.4120 H   0  0  0  0  0  0  0  0  0  0  0  0
   36.6610   30.7250   40.4080 C   0  0  0  0  0  0  0  0  0  0  0  0
   36.6340   31.7190   39.6680 O   0  0  0  0  0  0  0  0  0  0  0  0
   37.5170   30.5950   41.4240 N   0  0  0  0  0  0  0  0  0  0  0  0
   37.6450   29.5810   42.2870 C   0  0  0  0  0  0  0  0  0  0  0  0
   38.5010   29.5860   43.2050 O   0  0  0  0  0  0  0  0  0  0  0  0
   38.1800   31.4070   41.5590 H   0  0  0  0  0  0  0  0  0  0  0  0
   39.4890   25.2240   41.5330 C   0  0  0  0  0  0  0  0  0  0  0  0
   38.7890   24.0210   41.3170 C   0  0  0  0  0  0  0  0  0  0  0  0
   37.4480   24.0150   41.6700 C   0  0  0  0  0  0  0  0  0  0  0  0
   36.8660   25.1210   42.1950 N   0  0  0  0  0  0  0  0  0  0  0  0
   37.5900   26.2670   42.3870 C   0  0  0  0  0  0  0  0  0  0  0  0
   38.8830   26.2900   42.0510 N   0  0  0  0  0  0  0  0  0  0  0  0
   40.5530   25.2830   41.2700 H   0  0  0  0  0  0  0  0  0  0  0  0
   39.2780   23.1600   40.8980 H   0  0  0  0  0  0  0  0  0  0  0  0
   36.8810   23.1080   41.5180 H   0  0  0  0  0  0  0  0  0  0  0  0
  1  2  1  0  0  0  0
  1  3  1  0  0  0  0
  4 11  1  0  0  0  0
  4  1  1  0  0  0  0
  5  4  1  0  0  0  0
  6  8  1  0  0  0  0
  6  5  2  0  0  0  0
  7  6  1  0  0  0  0
  8 10  1  0  0  0  0
  9  8  2  0  0  0  0
 10 13  1  0  0  0  0
 10 11  1  0  0  0  0
 11 12  2  0  0  0  0
 14 19  1  0  0  0  0
 15 14  2  0  0  0  0
 15 16  1  0  0  0  0
 16 17  2  0  0  0  0
 17 18  1  0  0  0  0
 18  1  1  0  0  0  0
 19 18  2  0  0  0  0
 20 14  1  0  0  0  0
 21 15  1  0  0  0  0
 22 16  1  0  0  0  0
M  END
>  <minimizedAffinity>
-4.24585056

$$$$

 OpenBabel03242523293D

 22 23  0  0  0  0  0  0  0  0999 V2000
   36.5580   30.6390   40.2240 C   0  0  0  0  0  0  0  0  0  0  0  0
   35.7920   30.1200   39.5960 H   0  0  0  0  0  0  0  0  0  0  0  0
   36.0770   31.5560   40.6020 H   0  0  0  0  0  0  0  0  0  0  0  0
   37.6650   31.0550   39.3860 N   0  0  0  0  0  0  0  0  0  0  0  0
   38.3270   30.1100   38.6850 C   0  0  0  0  0  3  0  0  0  0  0  0
   39.3970   30.4940   37.8720 C   0  0  0  0  0  0  0  0  0  0  0  0
   39.9830   29.8040   37.2750 H   0  0  0  0  0  0  0  0  0  0  0  0
   39.7570   31.8450   37.8030 C   0  0  0  0  0  0  0  0  0  0  0  0
   40.6970   32.2360   37.0970 O   0  0  0  0  0  0  0  0  0  0  0  0
   39.0140   32.6660   38.5490 N   0  0  0  0  0  0  0  0  0  0  0  0
   37.9810   32.3710   39.3470 C   0  0  0  0  0  0  0  0  0  0  0  0
   37.3650   33.2490   39.9980 O   0  0  0  0  0  0  0  0  0  0  0  0
   39.2850   33.6870   38.4980 H   0  0  0  0  0  0  0  0  0  0  0  0
   38.2980   29.2060   43.1890 C   0  0  0  0  0  0  0  0  0  0  0  0
   37.5980   28.0000   43.3870 C   0  0  0  0  0  0  0  0  0  0  0  0
   36.5660   27.7330   42.4990 C   0  0  0  0  0  0  0  0  0  0  0  0
   36.2670   28.6030   41.5040 N   0  0  0  0  0  0  0  0  0  0  0  0
   36.9780   29.7640   41.3530 C   0  0  0  0  0  0  0  0  0  0  0  0
   37.9760   30.0360   42.2000 N   0  0  0  0  0  0  0  0  0  0  0  0
   39.1240   29.4660   43.8630 H   0  0  0  0  0  0  0  0  0  0  0  0
   37.8580   27.3300   44.1860 H   0  0  0  0  0  0  0  0  0  0  0  0
   36.0070   26.8170   42.6230 H   0  0  0  0  0  0  0  0  0  0  0  0
  1  3  1  0  0  0  0
  1 18  1  0  0  0  0
  2  1  1  0  0  0  0
  4  1  1  0  0  0  0
  5  4  1  0  0  0  0
  6  5  2  0  0  0  0
  7  6  1  0  0  0  0
  8  6  1  0  0  0  0
  8 10  1  0  0  0  0
  9  8  2  0  0  0  0
 10 11  1  0  0  0  0
 11  4  1  0  0  0  0
 11 12  2  0  0  0  0
 13 10  1  0  0  0  0
 14 15  1  0  0  0  0
 14 20  1  0  0  0  0
 15 21  1  0  0  0  0
 16 22  1  0  0  0  0
 16 15  2  0  0  0  0
 17 16  1  0  0  0  0
 18 17  2  0  0  0  0
 18 19  1  0  0  0  0
 19 14  2  0  0  0  0
M  END
>  <minimizedAffinity>
-4.24445248

$$$$

 OpenBabel03242523293D

 22 23  0  0  0  0  0  0  0  0999 V2000
   37.5500   28.7420   40.1190 C   0  0  0  0  0  0  0  0  0  0  0  0
   38.0890   28.3190   39.2360 H   0  0  0  0  0  0  0  0  0  0  0  0
   36.4860   28.4890   39.9820 H   0  0  0  0  0  0  0  0  0  0  0  0
   37.6490   30.1890   40.0950 N   0  0  0  0  0  0  0  0  0  0  0  0
   38.8330   30.7440   39.7600 C   0  0  0  0  0  3  0  0  0  0  0  0
   38.9450   32.1360   39.7310 C   0  0  0  0  0  0  0  0  0  0  0  0
   39.8550   32.6660   39.4740 H   0  0  0  0  0  0  0  0  0  0  0  0
   37.8300   32.9210   40.0480 C   0  0  0  0  0  0  0  0  0  0  0  0
   37.8780   34.1600   40.0370 O   0  0  0  0  0  0  0  0  0  0  0  0
   36.7270   32.2370   40.3590 N   0  0  0  0  0  0  0  0  0  0  0  0
   36.5470   30.9120   40.4070 C   0  0  0  0  0  0  0  0  0  0  0  0
   35.4470   30.3960   40.7180 O   0  0  0  0  0  0  0  0  0  0  0  0
   35.8850   32.8290   40.5990 H   0  0  0  0  0  0  0  0  0  0  0  0
   38.0430   27.7350   43.6710 C   0  0  0  0  0  0  0  0  0  0  0  0
   39.2060   26.9450   43.5940 C   0  0  0  0  0  0  0  0  0  0  0  0
   39.7670   26.7930   42.3340 C   0  0  0  0  0  0  0  0  0  0  0  0
   39.2060   27.3850   41.2510 N   0  0  0  0  0  0  0  0  0  0  0  0
   38.0730   28.1440   41.3780 C   0  0  0  0  0  0  0  0  0  0  0  0
   37.5210   28.3000   42.5850 N   0  0  0  0  0  0  0  0  0  0  0  0
   37.5580   27.8870   44.6440 H   0  0  0  0  0  0  0  0  0  0  0  0
   39.6280   26.4890   44.4710 H   0  0  0  0  0  0  0  0  0  0  0  0
   40.6600   26.1930   42.2390 H   0  0  0  0  0  0  0  0  0  0  0  0
  1 18  1  0  0  0  0
  2  1  1  0  0  0  0
  3  1  1  0  0  0  0
  4  1  1  0  0  0  0
  4 11  1  0  0  0  0
  5  4  1  0  0  0  0
  6  5  2  0  0  0  0
  6  8  1  0  0  0  0
  7  6  1  0  0  0  0
  8 10  1  0  0  0  0
  9  8  2  0  0  0  0
 10 11  1  0  0  0  0
 10 13  1  0  0  0  0
 11 12  2  0  0  0  0
 14 20  1  0  0  0  0
 15 14  1  0  0  0  0
 15 21  1  0  0  0  0
 16 15  2  0  0  0  0
 17 18  2  0  0  0  0
 17 16  1  0  0  0  0
 18 19  1  0  0  0  0
 19 14  2  0  0  0  0
 22 16  1  0  0  0  0
M  END
>  <minimizedAffinity>
-4.23092794

$$$$

 OpenBabel03242523293D

 22 23  0  0  0  0  0  0  0  0999 V2000
   38.3260   29.0040   43.0200 C   0  0  0  0  0  0  0  0  0  0  0  0
   39.3800   29.1700   43.3550 H   0  0  0  0  0  0  0  0  0  0  0  0
   37.7010   29.0600   43.9260 H   0  0  0  0  0  0  0  0  0  0  0  0
   38.1950   27.6580   42.4970 N   0  0  0  0  0  0  0  0  0  0  0  0
   39.1410   27.2070   41.6460 C   0  0  0  0  0  3  0  0  0  0  0  0
   39.0310   25.9120   41.1330 C   0  0  0  0  0  0  0  0  0  0  0  0
   39.7420   25.4700   40.4450 H   0  0  0  0  0  0  0  0  0  0  0  0
   37.9440   25.1150   41.5110 C   0  0  0  0  0  0  0  0  0  0  0  0
   37.8010   23.9600   41.0840 O   0  0  0  0  0  0  0  0  0  0  0  0
   37.0890   25.6900   42.3580 N   0  0  0  0  0  0  0  0  0  0  0  0
   37.1310   26.9180   42.8890 C   0  0  0  0  0  0  0  0  0  0  0  0
   36.2520   27.3370   43.6800 O   0  0  0  0  0  0  0  0  0  0  0  0
   36.2680   25.0890   42.6460 H   0  0  0  0  0  0  0  0  0  0  0  0
   36.4080   31.1460   40.6530 C   0  0  0  0  0  0  0  0  0  0  0  0
   37.3860   32.0690   40.2330 C   0  0  0  0  0  0  0  0  0  0  0  0
   38.6530   31.9160   40.7770 C   0  0  0  0  0  0  0  0  0  0  0  0
   38.9100   30.9240   41.6640 N   0  0  0  0  0  0  0  0  0  0  0  0
   37.9240   30.0520   42.0410 C   0  0  0  0  0  0  0  0  0  0  0  0
   36.6980   30.1850   41.5260 N   0  0  0  0  0  0  0  0  0  0  0  0
   35.3880   31.2220   40.2530 H   0  0  0  0  0  0  0  0  0  0  0  0
   37.1510   32.8460   39.5280 H   0  0  0  0  0  0  0  0  0  0  0  0
   39.4270   32.6080   40.4770 H   0  0  0  0  0  0  0  0  0  0  0  0
  1  2  1  0  0  0  0
  1  3  1  0  0  0  0
  4 11  1  0  0  0  0
  4  1  1  0  0  0  0
  5  4  1  0  0  0  0
  6  8  1  0  0  0  0
  6  5  2  0  0  0  0
  7  6  1  0  0  0  0
  8 10  1  0  0  0  0
  9  8  2  0  0  0  0
 10 13  1  0  0  0  0
 10 11  1  0  0  0  0
 11 12  2  0  0  0  0
 14 19  1  0  0  0  0
 15 14  2  0  0  0  0
 15 16  1  0  0  0  0
 16 17  2  0  0  0  0
 17 18  1  0  0  0  0
 18  1  1  0  0  0  0
 19 18  2  0  0  0  0
 20 14  1  0  0  0  0
 21 15  1  0  0  0  0
 22 16  1  0  0  0  0
M  END
>  <minimizedAffinity>
-4.18102932

$$$$

 OpenBabel03242523293D

 22 23  0  0  0  0  0  0  0  0999 V2000
   37.6540   28.4870   43.5750 C   0  0  0  0  0  0  0  0  0  0  0  0
   36.5390   28.4130   43.5700 H   0  0  0  0  0  0  0  0  0  0  0  0
   37.9370   28.8170   44.5880 H   0  0  0  0  0  0  0  0  0  0  0  0
   38.0710   29.5300   42.6580 N   0  0  0  0  0  0  0  0  0  0  0  0
   39.2590   30.1350   42.8730 C   0  0  0  0  0  3  0  0  0  0  0  0
   39.6760   31.1410   41.9990 C   0  0  0  0  0  0  0  0  0  0  0  0
   40.6120   31.6790   42.0960 H   0  0  0  0  0  0  0  0  0  0  0  0
   38.8550   31.4990   40.9230 C   0  0  0  0  0  0  0  0  0  0  0  0
   39.1800   32.3850   40.1200 O   0  0  0  0  0  0  0  0  0  0  0  0
   37.7120   30.8170   40.8330 N   0  0  0  0  0  0  0  0  0  0  0  0
   37.2490   29.8460   41.6290 C   0  0  0  0  0  0  0  0  0  0  0  0
   36.1460   29.2840   41.4290 O   0  0  0  0  0  0  0  0  0  0  0  0
   37.0910   31.0860   40.0210 H   0  0  0  0  0  0  0  0  0  0  0  0
   39.9490   25.5610   43.3650 C   0  0  0  0  0  0  0  0  0  0  0  0
   39.2040   24.6590   42.5800 C   0  0  0  0  0  0  0  0  0  0  0  0
   37.9550   25.0930   42.1590 C   0  0  0  0  0  0  0  0  0  0  0  0
   37.4990   26.3230   42.5000 N   0  0  0  0  0  0  0  0  0  0  0  0
   38.2610   27.1630   43.2670 C   0  0  0  0  0  0  0  0  0  0  0  0
   39.4670   26.7610   43.6800 N   0  0  0  0  0  0  0  0  0  0  0  0
   40.9440   25.2680   43.7250 H   0  0  0  0  0  0  0  0  0  0  0  0
   39.5930   23.6900   42.3270 H   0  0  0  0  0  0  0  0  0  0  0  0
   37.3570   24.4250   41.5550 H   0  0  0  0  0  0  0  0  0  0  0  0
  1  3  1  0  0  0  0
  2  1  1  0  0  0  0
  4  5  1  0  0  0  0
  4  1  1  0  0  0  0
  6  7  1  0  0  0  0
  6  5  2  0  0  0  0
  8  6  1  0  0  0  0
  9  8  2  0  0  0  0
 10  8  1  0  0  0  0
 10 11  1  0  0  0  0
 11  4  1  0  0  0  0
 12 11  2  0  0  0  0
 13 10  1  0  0  0  0
 14 19  1  0  0  0  0
 14 20  1  0  0  0  0
 15 14  2  0  0  0  0
 16 17  2  0  0  0  0
 16 15  1  0  0  0  0
 17 18  1  0  0  0  0
 18  1  1  0  0  0  0
 18 19  2  0  0  0  0
 21 15  1  0  0  0  0
 22 16  1  0  0  0  0
M  END
>  <minimizedAffinity>
-4.13802862

$$$$

 OpenBabel03242523293D

 22 23  0  0  0  0  0  0  0  0999 V2000
   39.3180   30.2380   41.8180 C   0  0  0  0  0  0  0  0  0  0  0  0
   40.3470   30.0440   41.4280 H   0  0  0  0  0  0  0  0  0  0  0  0
   39.4450   30.7000   42.8100 H   0  0  0  0  0  0  0  0  0  0  0  0
   38.6360   28.9750   42.0220 N   0  0  0  0  0  0  0  0  0  0  0  0
   37.6220   28.9310   42.9120 C   0  0  0  0  0  3  0  0  0  0  0  0
   36.9530   27.7230   43.1210 C   0  0  0  0  0  0  0  0  0  0  0  0
   36.1300   27.5970   43.8150 H   0  0  0  0  0  0  0  0  0  0  0  0
   37.3500   26.5870   42.4050 C   0  0  0  0  0  0  0  0  0  0  0  0
   36.7890   25.4920   42.5540 O   0  0  0  0  0  0  0  0  0  0  0  0
   38.3650   26.7770   41.5600 N   0  0  0  0  0  0  0  0  0  0  0  0
   39.0480   27.9000   41.3090 C   0  0  0  0  0  0  0  0  0  0  0  0
   39.9910   27.9410   40.4820 O   0  0  0  0  0  0  0  0  0  0  0  0
   38.6650   25.9200   41.0180 H   0  0  0  0  0  0  0  0  0  0  0  0
   37.0990   31.6420   39.1760 C   0  0  0  0  0  0  0  0  0  0  0  0
   37.3230   33.0260   39.3080 C   0  0  0  0  0  0  0  0  0  0  0  0
   38.2210   33.4140   40.2920 C   0  0  0  0  0  0  0  0  0  0  0  0
   38.8360   32.4910   41.0710 N   0  0  0  0  0  0  0  0  0  0  0  0
   38.5830   31.1560   40.9040 C   0  0  0  0  0  0  0  0  0  0  0  0
   37.7210   30.7650   39.9600 N   0  0  0  0  0  0  0  0  0  0  0  0
   36.3970   31.2800   38.4130 H   0  0  0  0  0  0  0  0  0  0  0  0
   36.8210   33.7340   38.6750 H   0  0  0  0  0  0  0  0  0  0  0  0
   38.4170   34.4690   40.4210 H   0  0  0  0  0  0  0  0  0  0  0  0
  1  4  1  0  0  0  0
  1  3  1  0  0  0  0
  2  1  1  0  0  0  0
  4  5  1  0  0  0  0
  5  6  2  0  0  0  0
  6  7  1  0  0  0  0
  8  9  2  0  0  0  0
  8  6  1  0  0  0  0
 10  8  1  0  0  0  0
 11 10  1  0  0  0  0
 11  4  1  0  0  0  0
 12 11  2  0  0  0  0
 13 10  1  0  0  0  0
 14 15  2  0  0  0  0
 14 19  1  0  0  0  0
 15 16  1  0  0  0  0
 16 22  1  0  0  0  0
 16 17  2  0  0  0  0
 18 17  1  0  0  0  0
 18  1  1  0  0  0  0
 19 18  2  0  0  0  0
 20 14  1  0  0  0  0
 21 15  1  0  0  0  0
M  END
>  <minimizedAffinity>
-4.04388571

$$$$

 OpenBabel03242523293D

 22 23  0  0  0  0  0  0  0  0999 V2000
   36.2120   30.4390   41.0380 C   0  0  0  0  0  0  0  0  0  0  0  0
   35.1330   30.3530   41.3170 H   0  0  0  0  0  0  0  0  0  0  0  0
   36.5030   31.4810   41.2490 H   0  0  0  0  0  0  0  0  0  0  0  0
   36.3580   30.2390   39.6100 N   0  0  0  0  0  0  0  0  0  0  0  0
   37.4590   30.7300   39.0030 C   0  0  0  0  0  3  0  0  0  0  0  0
   37.6150   30.5460   37.6270 C   0  0  0  0  0  0  0  0  0  0  0  0
   38.4660   30.9060   37.0600 H   0  0  0  0  0  0  0  0  0  0  0  0
   36.6290   29.8580   36.9110 C   0  0  0  0  0  0  0  0  0  0  0  0
   36.7210   29.6680   35.6900 O   0  0  0  0  0  0  0  0  0  0  0  0
   35.5970   29.4280   37.6400 N   0  0  0  0  0  0  0  0  0  0  0  0
   35.3820   29.5670   38.9530 C   0  0  0  0  0  0  0  0  0  0  0  0
   34.3590   29.1100   39.5170 O   0  0  0  0  0  0  0  0  0  0  0  0
   34.8520   28.9080   37.1000 H   0  0  0  0  0  0  0  0  0  0  0  0
   38.9210   28.8670   43.0540 C   0  0  0  0  0  0  0  0  0  0  0  0
   38.3860   27.5920   43.3220 C   0  0  0  0  0  0  0  0  0  0  0  0
   37.1280   27.3290   42.8020 C   0  0  0  0  0  0  0  0  0  0  0  0
   36.4680   28.2670   42.0790 N   0  0  0  0  0  0  0  0  0  0  0  0
   37.0310   29.4930   41.8460 C   0  0  0  0  0  0  0  0  0  0  0  0
   38.2440   29.7620   42.3390 N   0  0  0  0  0  0  0  0  0  0  0  0
   39.9150   29.1280   43.4420 H   0  0  0  0  0  0  0  0  0  0  0  0
   38.9340   26.8700   43.8990 H   0  0  0  0  0  0  0  0  0  0  0  0
   36.6870   26.3600   42.9890 H   0  0  0  0  0  0  0  0  0  0  0  0
  1  3  1  0  0  0  0
  1  2  1  0  0  0  0
  1 18  1  0  0  0  0
  4  1  1  0  0  0  0
  5  4  1  0  0  0  0
  6  5  2  0  0  0  0
  7  6  1  0  0  0  0
  8  6  1  0  0  0  0
  8 10  1  0  0  0  0
  9  8  2  0  0  0  0
 10 11  1  0  0  0  0
 11 12  2  0  0  0  0
 11  4  1  0  0  0  0
 13 10  1  0  0  0  0
 14 15  1  0  0  0  0
 14 20  1  0  0  0  0
 15 21  1  0  0  0  0
 16 22  1  0  0  0  0
 16 15  2  0  0  0  0
 17 16  1  0  0  0  0
 18 17  2  0  0  0  0
 18 19  1  0  0  0  0
 19 14  2  0  0  0  0
M  END
>  <minimizedAffinity>
-4.03044271

$$$$
