
 OpenBabel03252508253D

 42 46  0  0  1  0  0  0  0  0999 V2000
   47.0190   31.3240   45.1850 C   0  0  1  0  0  0  0  0  0  0  0  0
   47.1140   31.7310   46.5930 C   0  0  0  0  0  0  0  0  0  0  0  0
   45.8020   31.1380   45.9460 C   0  0  2  0  0  0  0  0  0  0  0  0
   47.8500   30.5430   45.0440 H   0  0  0  0  0  0  0  0  0  0  0  0
   47.0340   32.7750   46.9100 H   0  0  0  0  0  0  0  0  0  0  0  0
   47.4500   31.0630   47.4080 H   0  0  0  0  0  0  0  0  0  0  0  0
   45.0330   31.9540   46.1240 H   0  0  0  0  0  0  0  0  0  0  0  0
   45.2840   29.8500   46.4160 C   0  0  0  0  0  0  0  0  0  0  0  0
   45.4220   29.3000   47.6530 C   0  0  0  0  0  0  0  0  0  0  0  0
   45.0290   28.0220   48.0220 C   0  0  0  0  0  0  0  0  0  0  0  0
   44.4380   27.2360   47.0220 C   0  0  0  0  0  0  0  0  0  0  0  0
   44.2810   27.7780   45.7470 C   0  0  0  0  0  0  0  0  0  0  0  0
   43.6380   26.9900   44.8140 C   0  0  0  0  0  0  0  0  0  0  0  0
   43.3930   27.5130   43.5450 C   0  0  0  0  0  0  0  0  0  0  0  0
   43.7820   28.7980   43.2200 C   0  0  0  0  0  0  0  0  0  0  0  0
   44.4220   29.5300   44.1940 C   0  0  0  0  0  0  0  0  0  0  0  0
   44.6960   29.0550   45.4660 C   0  0  0  0  0  0  0  0  0  0  0  0
   45.8890   29.9490   48.3970 H   0  0  0  0  0  0  0  0  0  0  0  0
   45.1590   27.6390   49.0050 H   0  0  0  0  0  0  0  0  0  0  0  0
   44.1230   26.2400   47.2740 H   0  0  0  0  0  0  0  0  0  0  0  0
   43.3350   25.9760   45.0910 H   0  0  0  0  0  0  0  0  0  0  0  0
   42.8770   26.7940   42.8880 H   0  0  0  0  0  0  0  0  0  0  0  0
   43.5060   29.0090   42.2180 H   0  0  0  0  0  0  0  0  0  0  0  0
   44.5400   30.4780   43.7500 H   0  0  0  0  0  0  0  0  0  0  0  0
   46.7620   34.5410   43.3910 C   0  0  0  0  0  0  0  0  0  0  0  0
   47.0510   34.1570   42.0340 C   0  0  0  0  0  0  0  0  0  0  0  0
   47.3430   32.7800   41.7800 C   0  0  0  0  0  0  0  0  0  0  0  0
   47.3370   31.9040   42.8080 N   0  0  0  0  0  0  0  0  0  0  0  0
   47.0510   32.3360   44.0870 C   0  0  0  0  0  0  0  0  0  0  0  0
   46.7750   33.6080   44.3640 N   0  0  0  0  0  0  0  0  0  0  0  0
   46.5530   35.5930   43.4960 H   0  0  0  0  0  0  0  0  0  0  0  0
   47.0550   34.8530   41.2160 H   0  0  0  0  0  0  0  0  0  0  0  0
   47.6310   32.3860   40.4450 N   0  0  0  0  0  0  0  0  0  0  0  0
   48.9340   32.4410   40.1030 C   0  0  0  0  0  3  0  0  0  0  0  0
   49.3360   32.0820   38.8320 C   0  0  0  0  0  0  0  0  0  0  0  0
   50.3790   32.1170   38.5310 H   0  0  0  0  0  0  0  0  0  0  0  0
   48.3980   31.6630   37.8990 C   0  0  0  0  0  0  0  0  0  0  0  0
   48.7510   31.3330   36.7370 O   0  0  0  0  0  0  0  0  0  0  0  0
   47.1120   31.6280   38.2980 N   0  0  0  0  0  0  0  0  0  0  0  0
   46.7210   31.9790   39.5410 C   0  0  0  0  0  0  0  0  0  0  0  0
   45.5210   31.9510   39.9240 O   0  0  0  0  0  0  0  0  0  0  0  0
   46.4060   31.3180   37.6140 H   0  0  0  0  0  0  0  0  0  0  0  0
  1  4  1  6  0  0  0
  1  3  1  0  0  0  0
  1  2  1  0  0  0  0
  2  5  1  0  0  0  0
  2  6  1  0  0  0  0
  3  7  1  6  0  0  0
  3  8  1  0  0  0  0
  3  2  1  0  0  0  0
  8  9  1  0  0  0  0
  9 10  2  0  0  0  0
  9 18  1  0  0  0  0
 10 19  1  0  0  0  0
 11 20  1  0  0  0  0
 11 10  1  0  0  0  0
 12 11  2  0  0  0  0
 13 21  1  0  0  0  0
 13 12  1  0  0  0  0
 14 13  2  0  0  0  0
 15 14  1  0  0  0  0
 15 16  2  0  0  0  0
 16 17  1  0  0  0  0
 17 12  1  0  0  0  0
 17  8  2  0  0  0  0
 22 14  1  0  0  0  0
 23 15  1  0  0  0  0
 24 16  1  0  0  0  0
 25 31  1  0  0  0  0
 25 30  1  0  0  0  0
 26 25  2  0  0  0  0
 27 26  1  0  0  0  0
 27 28  2  0  0  0  0
 28 29  1  0  0  0  0
 29 30  2  0  0  0  0
 29  1  1  0  0  0  0
 32 26  1  0  0  0  0
 33 27  1  0  0  0  0
 34 33  1  0  0  0  0
 35 34  2  0  0  0  0
 36 35  1  0  0  0  0
 37 39  1  0  0  0  0
 37 35  1  0  0  0  0
 38 37  2  0  0  0  0
 39 40  1  0  0  0  0
 40 41  2  0  0  0  0
 40 33  1  0  0  0  0
 42 39  1  0  0  0  0
M  END
>  <minimizedAffinity>
-4.35404348

>  <minimizedRMSD>
2.72413397

$$$$
