
 OpenBabel03252509033D

 49 51  0  0  1  0  0  0  0  0999 V2000
   47.0310   34.3640   43.2370 N   0  0  0  0  0  0  0  0  0  0  0  0
   46.6990   34.9240   41.9840 C   0  0  0  0  0  0  0  0  0  0  0  0
   45.2680   34.6560   41.5470 C   0  0  0  0  0  0  0  0  0  0  0  0
   44.2730   34.6290   42.6820 C   0  0  0  0  0  0  0  0  0  0  0  0
   44.9380   34.9870   43.9990 C   0  0  0  0  0  0  0  0  0  0  0  0
   46.0870   33.9030   44.1180 C   0  0  2  0  0  0  0  0  0  0  0  0
   46.8110   36.0330   42.0690 H   0  0  0  0  0  0  0  0  0  0  0  0
   47.3300   34.6260   41.1390 H   0  0  0  0  0  0  0  0  0  0  0  0
   45.2030   33.7370   40.9180 H   0  0  0  0  0  0  0  0  0  0  0  0
   44.9610   35.4810   40.8680 H   0  0  0  0  0  0  0  0  0  0  0  0
   43.9190   33.5800   42.7840 H   0  0  0  0  0  0  0  0  0  0  0  0
   43.3740   35.2390   42.4930 H   0  0  0  0  0  0  0  0  0  0  0  0
   44.2260   34.8440   44.8190 H   0  0  0  0  0  0  0  0  0  0  0  0
   45.3950   35.9750   43.9570 H   0  0  0  0  0  0  0  0  0  0  0  0
   45.6320   32.9220   43.8730 H   0  0  0  0  0  0  0  0  0  0  0  0
   48.3670   33.8350   43.3100 C   0  0  0  0  0  0  0  0  0  0  0  0
   48.7140   34.0020   44.3490 H   0  0  0  0  0  0  0  0  0  0  0  0
   48.9870   34.4320   42.6080 H   0  0  0  0  0  0  0  0  0  0  0  0
   48.3100   32.3920   42.9540 C   0  0  0  0  0  0  0  0  0  0  0  0
   47.3020   32.0930   42.5710 H   0  0  0  0  0  0  0  0  0  0  0  0
   48.5360   31.7490   43.8100 H   0  0  0  0  0  0  0  0  0  0  0  0
   51.5130   31.9140   41.0510 C   0  0  0  0  0  0  0  0  0  0  0  0
   50.6000   32.1680   42.0920 C   0  0  0  0  0  0  0  0  0  0  0  0
   49.2540   32.1210   41.8410 C   0  0  0  0  0  0  0  0  0  0  0  0
   48.8690   31.8290   40.5940 N   0  0  0  0  0  0  0  0  0  0  0  0
   49.7280   31.5860   39.5980 C   0  0  0  0  0  0  0  0  0  0  0  0
   51.0620   31.6240   39.8100 N   0  0  0  0  0  0  0  0  0  0  0  0
   52.5540   31.9710   41.3310 H   0  0  0  0  0  0  0  0  0  0  0  0
   50.9340   32.4050   43.1000 H   0  0  0  0  0  0  0  0  0  0  0  0
   49.4320   31.3490   38.5840 H   0  0  0  0  0  0  0  0  0  0  0  0
   46.4460   34.0540   45.4440 O   0  0  0  0  0  0  0  0  0  0  0  0
   45.7660   31.4770   45.4710 O   0  0  0  0  0  0  0  0  0  0  0  0
   46.2140   32.6580   46.3430 P   0  0  2  0  0  0  0  0  0  0  0  0
   44.8410   32.9740   47.3320 O   0  0  0  0  0  0  0  0  0  0  0  0
   45.1120   33.3860   48.1740 H   0  0  0  0  0  0  0  0  0  0  0  0
   47.4900   32.2790   47.3420 O   0  0  0  0  0  0  0  0  0  0  0  0
   47.7590   30.9230   47.2320 C   0  0  0  0  0  0  0  0  0  0  0  0
   46.8150   30.3200   47.3020 H   0  0  0  0  0  0  0  0  0  0  0  0
   48.2740   30.6860   46.2890 H   0  0  0  0  0  0  0  0  0  0  0  0
   48.5840   30.5490   48.3660 N   0  0  0  0  0  0  0  0  0  0  0  0
   49.0940   31.3740   49.2970 C   0  0  0  0  0  3  0  0  0  0  0  0
   49.8700   30.8740   50.3290 C   0  0  0  0  0  0  0  0  0  0  0  0
   50.2670   31.5580   51.0640 H   0  0  0  0  0  0  0  0  0  0  0  0
   50.1390   29.5150   50.4290 C   0  0  0  0  0  0  0  0  0  0  0  0
   50.8400   29.0520   51.3600 O   0  0  0  0  0  0  0  0  0  0  0  0
   49.6090   28.7310   49.4780 N   0  0  0  0  0  0  0  0  0  0  0  0
   48.8570   29.2230   48.4780 C   0  0  0  0  0  0  0  0  0  0  0  0
   48.4310   28.3730   47.6670 O   0  0  0  0  0  0  0  0  0  0  0  0
   49.8320   27.7120   49.5840 H   0  0  0  0  0  0  0  0  0  0  0  0
  1 16  1  0  0  0  0
  1  6  1  0  0  0  0
  2  7  1  0  0  0  0
  2  1  1  0  0  0  0
  3  2  1  0  0  0  0
  3  4  1  0  0  0  0
  4 11  1  0  0  0  0
  4  5  1  0  0  0  0
  5  6  1  0  0  0  0
  5 13  1  0  0  0  0
  6 15  1  6  0  0  0
  6 31  1  0  0  0  0
  8  2  1  0  0  0  0
  9  3  1  0  0  0  0
 10  3  1  0  0  0  0
 12  4  1  0  0  0  0
 14  5  1  0  0  0  0
 16 17  1  0  0  0  0
 18 16  1  0  0  0  0
 19 16  1  0  0  0  0
 19 21  1  0  0  0  0
 20 19  1  0  0  0  0
 22 28  1  0  0  0  0
 22 23  1  0  0  0  0
 23 29  1  0  0  0  0
 24 23  2  0  0  0  0
 24 19  1  0  0  0  0
 25 24  1  0  0  0  0
 26 27  1  0  0  0  0
 26 25  2  0  0  0  0
 27 22  2  0  0  0  0
 30 26  1  0  0  0  0
 31 33  1  0  0  0  0
 33 32  2  6  0  0  0
 33 34  1  0  0  0  0
 33 36  1  0  0  0  0
 34 35  1  0  0  0  0
 37 38  1  0  0  0  0
 37 36  1  0  0  0  0
 37 40  1  0  0  0  0
 39 37  1  0  0  0  0
 40 47  1  0  0  0  0
 40 41  1  0  0  0  0
 41 42  2  0  0  0  0
 42 44  1  0  0  0  0
 42 43  1  0  0  0  0
 44 45  2  0  0  0  0
 46 49  1  0  0  0  0
 46 44  1  0  0  0  0
 47 46  1  0  0  0  0
 48 47  2  0  0  0  0
M  END
>  <minimizedAffinity>
-5.28720379

>  <minimizedRMSD>
3.10273838

$$$$
