
 OpenBabel03252501293D

 39 41  0  0  0  0  0  0  0  0999 V2000
   47.9480   30.1500   45.3570 C   0  0  0  0  0  0  0  0  0  0  0  0
   48.1130   30.5720   44.0700 C   0  0  0  0  0  0  0  0  0  0  0  0
   47.3360   31.5030   43.4570 C   0  0  0  0  0  0  0  0  0  0  0  0
   46.3260   32.0500   44.1650 C   0  0  0  0  0  0  0  0  0  0  0  0
   46.1140   31.6480   45.4970 C   0  0  0  0  0  0  0  0  0  0  0  0
   46.9270   30.7030   46.0790 C   0  0  0  0  0  0  0  0  0  0  0  0
   48.9540   30.0880   43.5460 H   0  0  0  0  0  0  0  0  0  0  0  0
   47.5780   31.7430   42.4410 H   0  0  0  0  0  0  0  0  0  0  0  0
   45.2620   32.1990   45.8940 H   0  0  0  0  0  0  0  0  0  0  0  0
   45.5280   33.0340   43.4610 N   0  0  0  0  0  0  0  0  0  0  0  0
   46.0380   34.2870   43.5870 C   0  0  0  0  0  0  0  0  0  0  0  0
   45.3870   35.3350   42.9710 C   0  0  0  0  0  0  0  0  0  0  0  0
   45.7500   36.3720   43.0340 H   0  0  0  0  0  0  0  0  0  0  0  0
   44.2300   35.0670   42.2430 C   0  0  0  0  0  0  0  0  0  0  0  0
   43.6130   35.9900   41.6720 O   0  0  0  0  0  0  0  0  0  0  0  0
   43.7820   33.7800   42.1650 N   0  0  0  0  0  0  0  0  0  0  0  0
   44.4200   32.7670   42.7670 C   0  0  0  0  0  0  0  0  0  0  0  0
   44.0390   31.5690   42.7190 O   0  0  0  0  0  0  0  0  0  0  0  0
   42.9270   33.6010   41.6240 H   0  0  0  0  0  0  0  0  0  0  0  0
   47.0950   31.3630   48.4020 C   0  0  0  0  0  0  0  0  0  0  0  0
   48.0570   32.2090   48.4930 O   0  0  0  0  0  0  0  0  0  0  0  0
   46.4380   30.5540   47.4170 N   0  0  0  0  0  0  0  0  0  0  0  0
   46.8810   31.4470   49.4680 H   0  0  0  0  0  0  0  0  0  0  0  0
   45.7050   29.9930   47.8740 H   0  0  0  0  0  0  0  0  0  0  0  0
   48.7000   29.1410   46.1130 C   0  0  0  0  0  0  0  0  0  0  0  0
   48.0210   28.3920   46.5970 H   0  0  0  0  0  0  0  0  0  0  0  0
   49.2170   29.6560   46.9330 H   0  0  0  0  0  0  0  0  0  0  0  0
   49.6400   28.3640   45.1990 C   0  0  0  0  0  0  0  0  0  0  0  0
   49.2640   28.4280   44.1690 H   0  0  0  0  0  0  0  0  0  0  0  0
   49.6450   27.2700   45.4670 H   0  0  0  0  0  0  0  0  0  0  0  0
   52.8800   29.8430   44.3350 C   0  0  0  0  0  0  0  0  0  0  0  0
   53.4760   30.0610   45.5950 C   0  0  0  0  0  0  0  0  0  0  0  0
   52.7140   29.6830   46.7120 C   0  0  0  0  0  0  0  0  0  0  0  0
   51.4930   29.1480   46.5490 N   0  0  0  0  0  0  0  0  0  0  0  0
   50.9820   28.9660   45.3080 C   0  0  0  0  0  0  0  0  0  0  0  0
   51.6430   29.2980   44.2250 N   0  0  0  0  0  0  0  0  0  0  0  0
   53.3570   30.0880   43.3910 H   0  0  0  0  0  0  0  0  0  0  0  0
   54.4630   30.4980   45.6110 H   0  0  0  0  0  0  0  0  0  0  0  0
   53.1730   29.8520   47.6770 H   0  0  0  0  0  0  0  0  0  0  0  0
  1  6  1  0  0  0  0
  1 25  1  0  0  0  0
  2  1  2  0  0  0  0
  3  2  1  0  0  0  0
  3  4  2  0  0  0  0
  4  5  1  0  0  0  0
  5  9  1  0  0  0  0
  5  6  2  0  0  0  0
  6 22  1  0  0  0  0
  7  2  1  0  0  0  0
  8  3  1  0  0  0  0
 10 11  1  0  0  0  0
 10  4  1  0  0  0  0
 12 13  1  0  0  0  0
 12 11  2  0  0  0  0
 14 12  1  0  0  0  0
 15 14  2  0  0  0  0
 16 14  1  0  0  0  0
 16 17  1  0  0  0  0
 17 10  1  0  0  0  0
 18 17  2  0  0  0  0
 19 16  1  0  0  0  0
 20 21  2  0  0  0  0
 20 23  1  0  0  0  0
 22 24  1  0  0  0  0
 22 20  1  0  0  0  0
 25 26  1  0  0  0  0
 25 27  1  0  0  0  0
 28 35  1  0  0  0  0
 28 30  1  0  0  0  0
 28 25  1  0  0  0  0
 29 28  1  0  0  0  0
 31 32  1  0  0  0  0
 32 38  1  0  0  0  0
 32 33  2  0  0  0  0
 33 39  1  0  0  0  0
 34 33  1  0  0  0  0
 35 34  2  0  0  0  0
 36 31  2  0  0  0  0
 36 35  1  0  0  0  0
 37 31  1  0  0  0  0
M  END
>  <minimizedAffinity>
-4.22070789

>  <minimizedRMSD>
7.92412329

$$$$
