
 OpenBabel03252505363D

 34 36  0  0  0  0  0  0  0  0999 V2000
   46.9510   32.7140   47.1370 C   0  0  0  0  0  0  0  0  0  0  0  0
   46.9880   32.3520   45.7690 C   0  0  0  0  0  0  0  0  0  0  0  0
   47.4360   31.0930   45.4380 C   0  0  0  0  0  0  0  0  0  0  0  0
   47.8140   30.2750   46.4360 N   0  0  0  0  0  0  0  0  0  0  0  0
   47.7720   30.6460   47.7430 C   0  0  0  0  0  0  0  0  0  0  0  0
   47.3410   31.8610   48.0900 N   0  0  0  0  0  0  0  0  0  0  0  0
   48.1950   29.7520   48.7690 N   0  0  0  0  0  0  0  0  0  0  0  0
   46.6170   33.6770   47.4950 H   0  0  0  0  0  0  0  0  0  0  0  0
   49.2480   29.8610   48.6750 H   0  0  0  0  0  0  0  0  0  0  0  0
   47.3510   29.3260   49.2270 H   0  0  0  0  0  0  0  0  0  0  0  0
   47.5120   30.6130   44.0960 C   0  0  0  0  0  0  0  0  0  0  0  0
   48.7570   30.6380   43.4670 C   0  0  0  0  0  0  0  0  0  0  0  0
   48.9530   30.1860   42.1630 C   0  0  0  0  0  0  0  0  0  0  0  0
   47.8820   29.6950   41.4620 C   0  0  0  0  0  0  0  0  0  0  0  0
   46.6510   29.6640   42.0650 C   0  0  0  0  0  0  0  0  0  0  0  0
   46.4650   30.1160   43.3650 C   0  0  0  0  0  0  0  0  0  0  0  0
   49.6250   31.0240   44.0040 H   0  0  0  0  0  0  0  0  0  0  0  0
   49.9380   30.2210   41.7090 H   0  0  0  0  0  0  0  0  0  0  0  0
   47.9560   29.3250   40.4430 H   0  0  0  0  0  0  0  0  0  0  0  0
   45.7810   29.2870   41.5510 H   0  0  0  0  0  0  0  0  0  0  0  0
   45.1380   30.0680   44.0150 C   0  0  0  0  0  0  0  0  0  0  0  0
   44.3740   29.1090   43.3530 F   0  0  0  0  0  0  0  0  0  0  0  0
   44.5320   31.3050   43.9260 F   0  0  0  0  0  0  0  0  0  0  0  0
   45.1710   29.7510   45.3530 F   0  0  0  0  0  0  0  0  0  0  0  0
   46.5520   33.3960   44.9160 N   0  0  0  0  0  0  0  0  0  0  0  0
   47.0290   33.7880   43.7240 C   0  0  0  0  0  3  0  0  0  0  0  0
   46.5450   34.8140   42.9790 C   0  0  0  0  0  0  0  0  0  0  0  0
   47.0050   35.0480   42.0290 H   0  0  0  0  0  0  0  0  0  0  0  0
   45.4720   35.5470   43.4440 C   0  0  0  0  0  0  0  0  0  0  0  0
   44.9790   36.5070   42.8030 O   0  0  0  0  0  0  0  0  0  0  0  0
   44.9670   35.1860   44.6310 N   0  0  0  0  0  0  0  0  0  0  0  0
   45.4910   34.1620   45.3180 C   0  0  0  0  0  0  0  0  0  0  0  0
   44.9090   33.9300   46.4320 O   0  0  0  0  0  0  0  0  0  0  0  0
   44.1620   35.7380   44.9780 H   0  0  0  0  0  0  0  0  0  0  0  0
  1  8  1  0  0  0  0
  1  6  1  0  0  0  0
  2  1  2  0  0  0  0
  3  2  1  0  0  0  0
  3  4  2  0  0  0  0
  4  5  1  0  0  0  0
  5  6  2  0  0  0  0
  5  7  1  0  0  0  0
  7 10  1  0  0  0  0
  9  7  1  0  0  0  0
 11  3  1  0  0  0  0
 12 17  1  0  0  0  0
 12 11  1  0  0  0  0
 13 12  2  0  0  0  0
 14 15  2  0  0  0  0
 14 13  1  0  0  0  0
 15 16  1  0  0  0  0
 16 21  1  0  0  0  0
 16 11  2  0  0  0  0
 18 13  1  0  0  0  0
 19 14  1  0  0  0  0
 20 15  1  0  0  0  0
 21 24  1  0  0  0  0
 22 21  1  0  0  0  0
 23 21  1  0  0  0  0
 25 32  1  0  0  0  0
 25  2  1  0  0  0  0
 26 25  1  0  0  0  0
 27 29  1  0  0  0  0
 27 26  2  0  0  0  0
 28 27  1  0  0  0  0
 29 31  1  0  0  0  0
 30 29  2  0  0  0  0
 31 34  1  0  0  0  0
 31 32  1  0  0  0  0
 32 33  2  0  0  0  0
M  END
>  <minimizedAffinity>
-4.79351521

>  <minimizedRMSD>
4.85111713

$$$$
