
 OpenBabel03252507093D

 25 26  0  0  0  0  0  0  0  0999 V2000
   38.5560   27.9820   43.5610 C   0  0  0  0  0  0  0  0  0  0  0  0
   38.6260   29.2770   42.9790 C   0  0  0  0  0  0  0  0  0  0  0  0
   38.1550   29.4230   41.6800 C   0  0  0  0  0  0  0  0  0  0  0  0
   37.6510   28.3270   41.0300 N   0  0  0  0  0  0  0  0  0  0  0  0
   37.6030   27.1100   41.6240 C   0  0  0  0  0  0  0  0  0  0  0  0
   38.0530   26.9400   42.8820 N   0  0  0  0  0  0  0  0  0  0  0  0
   38.9120   27.8340   44.5650 H   0  0  0  0  0  0  0  0  0  0  0  0
   39.0450   30.0860   43.5780 H   0  0  0  0  0  0  0  0  0  0  0  0
   37.0390   26.1460   40.7420 N   0  0  0  0  0  0  0  0  0  0  0  0
   36.8130   24.9150   41.2440 C   0  0  0  0  0  3  0  0  0  0  0  0
   36.2590   23.9570   40.3870 C   0  0  0  0  0  0  0  0  0  0  0  0
   36.0730   22.9710   40.7730 H   0  0  0  0  0  0  0  0  0  0  0  0
   35.9820   24.3320   39.0900 C   0  0  0  0  0  0  0  0  0  0  0  0
   35.4820   23.4720   38.3110 O   0  0  0  0  0  0  0  0  0  0  0  0
   36.2240   25.5740   38.6290 N   0  0  0  0  0  0  0  0  0  0  0  0
   36.7590   26.4870   39.4710 C   0  0  0  0  0  0  0  0  0  0  0  0
   36.9700   27.6340   39.0010 O   0  0  0  0  0  0  0  0  0  0  0  0
   35.9900   25.7990   37.6280 H   0  0  0  0  0  0  0  0  0  0  0  0
   38.2200   30.6840   41.1060 O   0  0  0  0  0  0  0  0  0  0  0  0
   36.7660   30.9310   38.9020 O   0  0  0  0  0  0  0  0  0  0  0  0
   36.8170   31.3500   40.3750 P   0  0  0  0  0  0  0  0  0  0  0  0
   35.4790   30.8250   41.2170 O   0  0  0  0  0  0  0  0  0  0  0  0
   35.2320   29.9370   40.8510 H   0  0  0  0  0  0  0  0  0  0  0  0
   36.9860   33.0380   40.4100 O   0  0  0  0  0  0  0  0  0  0  0  0
   36.7510   33.3190   41.3330 H   0  0  0  0  0  0  0  0  0  0  0  0
  1  7  1  0  0  0  0
  2  1  1  0  0  0  0
  2  8  1  0  0  0  0
  3  2  2  0  0  0  0
  4  5  2  0  0  0  0
  4  3  1  0  0  0  0
  5  6  1  0  0  0  0
  6  1  2  0  0  0  0
  9 10  1  0  0  0  0
  9  5  1  0  0  0  0
 11 12  1  0  0  0  0
 11 10  2  0  0  0  0
 13 11  1  0  0  0  0
 14 13  2  0  0  0  0
 15 13  1  0  0  0  0
 15 16  1  0  0  0  0
 16  9  1  0  0  0  0
 17 16  2  0  0  0  0
 18 15  1  0  0  0  0
 19  3  1  0  0  0  0
 20 21  2  0  0  0  0
 21 24  1  0  0  0  0
 21 19  1  0  0  0  0
 21 22  1  0  0  0  0
 23 22  1  0  0  0  0
 24 25  1  0  0  0  0
M  END
>  <minimizedAffinity>
-5.65530682

$$$$

 OpenBabel03252507093D

 25 26  0  0  0  0  0  0  0  0999 V2000
   38.4440   34.0780   40.4350 C   0  0  0  0  0  0  0  0  0  0  0  0
   39.7520   34.1490   39.8840 C   0  0  0  0  0  0  0  0  0  0  0  0
   40.3890   32.9500   39.5850 C   0  0  0  0  0  0  0  0  0  0  0  0
   39.7340   31.7720   39.8340 N   0  0  0  0  0  0  0  0  0  0  0  0
   38.4860   31.7510   40.3620 C   0  0  0  0  0  0  0  0  0  0  0  0
   37.8460   32.8980   40.6600 N   0  0  0  0  0  0  0  0  0  0  0  0
   37.9220   34.9870   40.6770 H   0  0  0  0  0  0  0  0  0  0  0  0
   40.1870   35.1350   39.7240 H   0  0  0  0  0  0  0  0  0  0  0  0
   38.0340   30.4110   40.5210 N   0  0  0  0  0  0  0  0  0  0  0  0
   36.7570   30.2390   40.9180 C   0  0  0  0  0  3  0  0  0  0  0  0
   36.2990   28.9270   41.0790 C   0  0  0  0  0  0  0  0  0  0  0  0
   35.2830   28.7730   41.3960 H   0  0  0  0  0  0  0  0  0  0  0  0
   37.1800   27.8970   40.8220 C   0  0  0  0  0  0  0  0  0  0  0  0
   36.7730   26.7100   40.9650 O   0  0  0  0  0  0  0  0  0  0  0  0
   38.4480   28.1150   40.4260 N   0  0  0  0  0  0  0  0  0  0  0  0
   38.8740   29.3890   40.2760 C   0  0  0  0  0  0  0  0  0  0  0  0
   40.0650   29.5480   39.9050 O   0  0  0  0  0  0  0  0  0  0  0  0
   39.0720   27.2860   40.2450 H   0  0  0  0  0  0  0  0  0  0  0  0
   41.6650   33.0120   39.0470 O   0  0  0  0  0  0  0  0  0  0  0  0
   42.9060   31.6200   37.1620 O   0  0  0  0  0  0  0  0  0  0  0  0
   41.8840   32.7420   37.3660 P   0  0  0  0  0  0  0  0  0  0  0  0
   40.4070   32.3670   36.6910 O   0  0  0  0  0  0  0  0  0  0  0  0
   40.2660   31.3940   36.8170 H   0  0  0  0  0  0  0  0  0  0  0  0
   42.5560   34.1560   36.7140 O   0  0  0  0  0  0  0  0  0  0  0  0
   41.8030   34.7960   36.6080 H   0  0  0  0  0  0  0  0  0  0  0  0
  1  6  1  0  0  0  0
  1  7  1  0  0  0  0
  2  1  2  0  0  0  0
  3  4  2  0  0  0  0
  3  2  1  0  0  0  0
  4  5  1  0  0  0  0
  5  9  1  0  0  0  0
  5  6  2  0  0  0  0
  8  2  1  0  0  0  0
  9 10  1  0  0  0  0
 10 11  2  0  0  0  0
 11 12  1  0  0  0  0
 13 14  2  0  0  0  0
 13 11  1  0  0  0  0
 15 13  1  0  0  0  0
 16 15  1  0  0  0  0
 16  9  1  0  0  0  0
 17 16  2  0  0  0  0
 18 15  1  0  0  0  0
 19  3  1  0  0  0  0
 20 21  2  0  0  0  0
 21 19  1  0  0  0  0
 22 23  1  0  0  0  0
 22 21  1  0  0  0  0
 24 21  1  0  0  0  0
 25 24  1  0  0  0  0
M  END
>  <minimizedAffinity>
-5.53964615

$$$$

 OpenBabel03252507093D

 25 26  0  0  0  0  0  0  0  0999 V2000
   38.9870   26.9610   43.4890 C   0  0  0  0  0  0  0  0  0  0  0  0
   37.6770   27.0600   42.9450 C   0  0  0  0  0  0  0  0  0  0  0  0
   37.3640   28.2090   42.2300 C   0  0  0  0  0  0  0  0  0  0  0  0
   38.3200   29.1810   42.0840 N   0  0  0  0  0  0  0  0  0  0  0  0
   39.5570   29.0460   42.6190 C   0  0  0  0  0  0  0  0  0  0  0  0
   39.8880   27.9420   43.3170 N   0  0  0  0  0  0  0  0  0  0  0  0
   39.2630   26.0860   44.0480 H   0  0  0  0  0  0  0  0  0  0  0  0
   36.9890   26.2330   43.1170 H   0  0  0  0  0  0  0  0  0  0  0  0
   40.3550   30.1860   42.3260 N   0  0  0  0  0  0  0  0  0  0  0  0
   41.6520   30.1350   42.6890 C   0  0  0  0  0  3  0  0  0  0  0  0
   42.4490   31.2500   42.4060 C   0  0  0  0  0  0  0  0  0  0  0  0
   43.4860   31.2250   42.6900 H   0  0  0  0  0  0  0  0  0  0  0  0
   41.8580   32.3260   41.7780 C   0  0  0  0  0  0  0  0  0  0  0  0
   42.5720   33.3360   41.5200 O   0  0  0  0  0  0  0  0  0  0  0  0
   40.5570   32.3350   41.4330 N   0  0  0  0  0  0  0  0  0  0  0  0
   39.8020   31.2480   41.7130 C   0  0  0  0  0  0  0  0  0  0  0  0
   38.5920   31.2980   41.3740 O   0  0  0  0  0  0  0  0  0  0  0  0
   40.1640   33.1870   40.9540 H   0  0  0  0  0  0  0  0  0  0  0  0
   36.0880   28.3110   41.6970 O   0  0  0  0  0  0  0  0  0  0  0  0
   34.4590   29.2020   39.8030 O   0  0  0  0  0  0  0  0  0  0  0  0
   35.7480   29.5470   40.5550 P   0  0  0  0  0  0  0  0  0  0  0  0
   35.6250   30.9990   41.3650 O   0  0  0  0  0  0  0  0  0  0  0  0
   34.6950   31.0700   41.7000 H   0  0  0  0  0  0  0  0  0  0  0  0
   37.0070   29.5410   39.4190 O   0  0  0  0  0  0  0  0  0  0  0  0
   37.7670   30.0170   39.8470 H   0  0  0  0  0  0  0  0  0  0  0  0
  1  7  1  0  0  0  0
  2  8  1  0  0  0  0
  2  1  2  0  0  0  0
  3  2  1  0  0  0  0
  4  3  2  0  0  0  0
  4  5  1  0  0  0  0
  5  6  2  0  0  0  0
  6  1  1  0  0  0  0
  9  5  1  0  0  0  0
  9 10  1  0  0  0  0
 11 10  2  0  0  0  0
 11 12  1  0  0  0  0
 13 11  1  0  0  0  0
 14 13  2  0  0  0  0
 15 16  1  0  0  0  0
 15 13  1  0  0  0  0
 16  9  1  0  0  0  0
 17 16  2  0  0  0  0
 18 15  1  0  0  0  0
 19  3  1  0  0  0  0
 20 21  2  0  0  0  0
 21 22  1  0  0  0  0
 21 19  1  0  0  0  0
 22 23  1  0  0  0  0
 24 25  1  0  0  0  0
 24 21  1  0  0  0  0
M  END
>  <minimizedAffinity>
-5.42660284

$$$$

 OpenBabel03252507093D

 25 26  0  0  0  0  0  0  0  0999 V2000
   41.6620   29.3390   42.7770 C   0  0  0  0  0  0  0  0  0  0  0  0
   40.8860   28.2030   43.1330 C   0  0  0  0  0  0  0  0  0  0  0  0
   39.5350   28.2210   42.8070 C   0  0  0  0  0  0  0  0  0  0  0  0
   39.0220   29.3180   42.1660 N   0  0  0  0  0  0  0  0  0  0  0  0
   39.7990   30.3810   41.8450 C   0  0  0  0  0  0  0  0  0  0  0  0
   41.1110   30.3900   42.1490 N   0  0  0  0  0  0  0  0  0  0  0  0
   42.7110   29.3590   43.0140 H   0  0  0  0  0  0  0  0  0  0  0  0
   41.3870   27.3800   43.6410 H   0  0  0  0  0  0  0  0  0  0  0  0
   39.0300   31.3820   41.1890 N   0  0  0  0  0  0  0  0  0  0  0  0
   39.6990   32.4450   40.6990 C   0  0  0  0  0  3  0  0  0  0  0  0
   38.9550   33.4370   40.0510 C   0  0  0  0  0  0  0  0  0  0  0  0
   39.4740   34.2910   39.6550 H   0  0  0  0  0  0  0  0  0  0  0  0
   37.5900   33.2660   39.9580 C   0  0  0  0  0  0  0  0  0  0  0  0
   36.9120   34.1580   39.3750 O   0  0  0  0  0  0  0  0  0  0  0  0
   36.9620   32.1870   40.4630 N   0  0  0  0  0  0  0  0  0  0  0  0
   37.6960   31.2380   41.0850 C   0  0  0  0  0  0  0  0  0  0  0  0
   37.0700   30.2470   41.5420 O   0  0  0  0  0  0  0  0  0  0  0  0
   35.9160   32.1140   40.3590 H   0  0  0  0  0  0  0  0  0  0  0  0
   38.7720   27.1150   43.1520 O   0  0  0  0  0  0  0  0  0  0  0  0
   36.8550   25.4040   42.4990 O   0  0  0  0  0  0  0  0  0  0  0  0
   37.2420   26.8830   42.4090 P   0  0  0  0  0  0  0  0  0  0  0  0
   36.1290   27.8640   43.1670 O   0  0  0  0  0  0  0  0  0  0  0  0
   35.8020   27.3750   43.9650 H   0  0  0  0  0  0  0  0  0  0  0  0
   37.4220   27.2540   40.7630 O   0  0  0  0  0  0  0  0  0  0  0  0
   37.4050   28.2460   40.7010 H   0  0  0  0  0  0  0  0  0  0  0  0
  1  7  1  0  0  0  0
  1  2  1  0  0  0  0
  2  8  1  0  0  0  0
  3  2  2  0  0  0  0
  3 19  1  0  0  0  0
  4  3  1  0  0  0  0
  5  6  1  0  0  0  0
  5  4  2  0  0  0  0
  6  1  2  0  0  0  0
  9  5  1  0  0  0  0
 10  9  1  0  0  0  0
 11 10  2  0  0  0  0
 12 11  1  0  0  0  0
 13 11  1  0  0  0  0
 13 15  1  0  0  0  0
 14 13  2  0  0  0  0
 15 16  1  0  0  0  0
 16  9  1  0  0  0  0
 16 17  2  0  0  0  0
 18 15  1  0  0  0  0
 21 20  2  0  0  0  0
 21 19  1  0  0  0  0
 21 22  1  0  0  0  0
 22 23  1  0  0  0  0
 24 21  1  0  0  0  0
 25 24  1  0  0  0  0
M  END
>  <minimizedAffinity>
-5.24357557

$$$$

 OpenBabel03252507093D

 25 26  0  0  0  0  0  0  0  0999 V2000
   36.6930   29.9540   37.4290 C   0  0  0  0  0  0  0  0  0  0  0  0
   36.8700   31.1610   38.1580 C   0  0  0  0  0  0  0  0  0  0  0  0
   37.0810   31.0590   39.5280 C   0  0  0  0  0  0  0  0  0  0  0  0
   37.1080   29.8160   40.1040 N   0  0  0  0  0  0  0  0  0  0  0  0
   36.9340   28.6900   39.3710 C   0  0  0  0  0  0  0  0  0  0  0  0
   36.7280   28.7600   38.0410 N   0  0  0  0  0  0  0  0  0  0  0  0
   36.5270   29.9960   36.3680 H   0  0  0  0  0  0  0  0  0  0  0  0
   36.8310   32.1010   37.6080 H   0  0  0  0  0  0  0  0  0  0  0  0
   37.0060   27.5370   40.2010 N   0  0  0  0  0  0  0  0  0  0  0  0
   36.9760   26.3370   39.5870 C   0  0  0  0  0  3  0  0  0  0  0  0
   37.0460   25.1950   40.3920 C   0  0  0  0  0  0  0  0  0  0  0  0
   37.0240   24.2310   39.9170 H   0  0  0  0  0  0  0  0  0  0  0  0
   37.1400   25.3690   41.7570 C   0  0  0  0  0  0  0  0  0  0  0  0
   37.2040   24.3420   42.4890 O   0  0  0  0  0  0  0  0  0  0  0  0
   37.1670   26.5880   42.3290 N   0  0  0  0  0  0  0  0  0  0  0  0
   37.0990   27.6810   41.5360 C   0  0  0  0  0  0  0  0  0  0  0  0
   37.1260   28.7990   42.1100 O   0  0  0  0  0  0  0  0  0  0  0  0
   37.2400   26.6550   43.3770 H   0  0  0  0  0  0  0  0  0  0  0  0
   37.2550   32.2340   40.2440 O   0  0  0  0  0  0  0  0  0  0  0  0
   39.6880   31.7760   41.1960 O   0  0  0  0  0  0  0  0  0  0  0  0
   38.8410   32.8420   40.4920 P   0  0  0  0  0  0  0  0  0  0  0  0
   39.4840   33.2690   39.0160 O   0  0  0  0  0  0  0  0  0  0  0  0
   39.8740   32.4490   38.6170 H   0  0  0  0  0  0  0  0  0  0  0  0
   38.7130   34.1600   41.5520 O   0  0  0  0  0  0  0  0  0  0  0  0
   38.4050   34.9270   41.0010 H   0  0  0  0  0  0  0  0  0  0  0  0
  1  6  2  0  0  0  0
  1  2  1  0  0  0  0
  2  3  2  0  0  0  0
  3  4  1  0  0  0  0
  3 19  1  0  0  0  0
  5  4  2  0  0  0  0
  5  9  1  0  0  0  0
  6  5  1  0  0  0  0
  7  1  1  0  0  0  0
  8  2  1  0  0  0  0
  9 16  1  0  0  0  0
 10  9  1  0  0  0  0
 10 11  2  0  0  0  0
 11 13  1  0  0  0  0
 12 11  1  0  0  0  0
 13 15  1  0  0  0  0
 13 14  2  0  0  0  0
 15 18  1  0  0  0  0
 16 17  2  0  0  0  0
 16 15  1  0  0  0  0
 19 21  1  0  0  0  0
 21 20  2  0  0  0  0
 21 24  1  0  0  0  0
 22 21  1  0  0  0  0
 23 22  1  0  0  0  0
 25 24  1  0  0  0  0
M  END
>  <minimizedAffinity>
-5.15933371

$$$$

 OpenBabel03252507093D

 25 26  0  0  0  0  0  0  0  0999 V2000
   35.7500   28.5070   36.7340 C   0  0  0  0  0  0  0  0  0  0  0  0
   36.2290   29.8040   37.0680 C   0  0  0  0  0  0  0  0  0  0  0  0
   36.8470   29.9620   38.3020 C   0  0  0  0  0  0  0  0  0  0  0  0
   36.9650   28.8750   39.1290 N   0  0  0  0  0  0  0  0  0  0  0  0
   36.4940   27.6570   38.7710 C   0  0  0  0  0  0  0  0  0  0  0  0
   35.8900   27.4750   37.5800 N   0  0  0  0  0  0  0  0  0  0  0  0
   35.2660   28.3490   35.7870 H   0  0  0  0  0  0  0  0  0  0  0  0
   36.0870   30.6040   36.3420 H   0  0  0  0  0  0  0  0  0  0  0  0
   36.7390   26.7040   39.7990 N   0  0  0  0  0  0  0  0  0  0  0  0
   36.4370   25.4190   39.5280 C   0  0  0  0  0  3  0  0  0  0  0  0
   36.6740   24.4710   40.5310 C   0  0  0  0  0  0  0  0  0  0  0  0
   36.4370   23.4420   40.3300 H   0  0  0  0  0  0  0  0  0  0  0  0
   37.1990   24.9120   41.7270 C   0  0  0  0  0  0  0  0  0  0  0  0
   37.4150   24.0630   42.6360 O   0  0  0  0  0  0  0  0  0  0  0  0
   37.4860   26.2080   41.9550 N   0  0  0  0  0  0  0  0  0  0  0  0
   37.2520   27.1090   40.9750 C   0  0  0  0  0  0  0  0  0  0  0  0
   37.5350   28.3080   41.2300 O   0  0  0  0  0  0  0  0  0  0  0  0
   37.8860   26.4820   42.8900 H   0  0  0  0  0  0  0  0  0  0  0  0
   37.3170   31.2240   38.6330 O   0  0  0  0  0  0  0  0  0  0  0  0
   38.3870   31.4060   41.0520 O   0  0  0  0  0  0  0  0  0  0  0  0
   37.1440   31.7910   40.2440 P   0  0  0  0  0  0  0  0  0  0  0  0
   36.9150   33.4410   40.2050 O   0  0  0  0  0  0  0  0  0  0  0  0
   37.8130   33.8610   40.1670 H   0  0  0  0  0  0  0  0  0  0  0  0
   35.8280   30.9680   40.9270 O   0  0  0  0  0  0  0  0  0  0  0  0
   35.0120   31.4180   40.5830 H   0  0  0  0  0  0  0  0  0  0  0  0
  1  2  2  0  0  0  0
  1  6  1  0  0  0  0
  2  3  1  0  0  0  0
  3 19  1  0  0  0  0
  3  4  2  0  0  0  0
  5  4  1  0  0  0  0
  5  9  1  0  0  0  0
  6  5  2  0  0  0  0
  7  1  1  0  0  0  0
  8  2  1  0  0  0  0
  9 16  1  0  0  0  0
 10  9  1  0  0  0  0
 10 11  2  0  0  0  0
 11 13  1  0  0  0  0
 12 11  1  0  0  0  0
 13 15  1  0  0  0  0
 13 14  2  0  0  0  0
 15 18  1  0  0  0  0
 16 17  2  0  0  0  0
 16 15  1  0  0  0  0
 19 21  1  0  0  0  0
 21 24  1  0  0  0  0
 21 20  2  0  0  0  0
 22 21  1  0  0  0  0
 23 22  1  0  0  0  0
 25 24  1  0  0  0  0
M  END
>  <minimizedAffinity>
-5.11398697

$$$$

 OpenBabel03252507093D

 25 26  0  0  0  0  0  0  0  0999 V2000
   37.5010   33.5340   39.7540 C   0  0  0  0  0  0  0  0  0  0  0  0
   38.7820   34.1360   39.8940 C   0  0  0  0  0  0  0  0  0  0  0  0
   39.7440   33.4380   40.6150 C   0  0  0  0  0  0  0  0  0  0  0  0
   39.4170   32.2190   41.1500 N   0  0  0  0  0  0  0  0  0  0  0  0
   38.1830   31.6820   40.9920 C   0  0  0  0  0  0  0  0  0  0  0  0
   37.2320   32.3360   40.2970 N   0  0  0  0  0  0  0  0  0  0  0  0
   36.7340   34.0460   39.2020 H   0  0  0  0  0  0  0  0  0  0  0  0
   38.9420   35.1090   39.4310 H   0  0  0  0  0  0  0  0  0  0  0  0
   38.1020   30.4180   41.6390 N   0  0  0  0  0  0  0  0  0  0  0  0
   36.9700   29.7090   41.4580 C   0  0  0  0  0  3  0  0  0  0  0  0
   36.8770   28.4630   42.0900 C   0  0  0  0  0  0  0  0  0  0  0  0
   35.9800   27.8860   41.9550 H   0  0  0  0  0  0  0  0  0  0  0  0
   37.9450   28.0430   42.8540 C   0  0  0  0  0  0  0  0  0  0  0  0
   37.8680   26.9200   43.4270 O   0  0  0  0  0  0  0  0  0  0  0  0
   39.0590   28.7850   43.0080 N   0  0  0  0  0  0  0  0  0  0  0  0
   39.1320   29.9860   42.3900 C   0  0  0  0  0  0  0  0  0  0  0  0
   40.1880   30.6460   42.5600 O   0  0  0  0  0  0  0  0  0  0  0  0
   39.8410   28.4080   43.6040 H   0  0  0  0  0  0  0  0  0  0  0  0
   40.9940   34.0200   40.7550 O   0  0  0  0  0  0  0  0  0  0  0  0
   43.6360   33.8000   40.6770 O   0  0  0  0  0  0  0  0  0  0  0  0
   42.3630   33.0200   41.0210 P   0  0  0  0  0  0  0  0  0  0  0  0
   42.3540   32.5180   42.6100 O   0  0  0  0  0  0  0  0  0  0  0  0
   42.7860   33.2310   43.1460 H   0  0  0  0  0  0  0  0  0  0  0  0
   42.2590   31.7250   39.9300 O   0  0  0  0  0  0  0  0  0  0  0  0
   41.6030   31.0890   40.3190 H   0  0  0  0  0  0  0  0  0  0  0  0
  1  2  2  0  0  0  0
  1  6  1  0  0  0  0
  2  3  1  0  0  0  0
  3 19  1  0  0  0  0
  3  4  2  0  0  0  0
  5  4  1  0  0  0  0
  5  9  1  0  0  0  0
  6  5  2  0  0  0  0
  7  1  1  0  0  0  0
  8  2  1  0  0  0  0
  9 16  1  0  0  0  0
 10  9  1  0  0  0  0
 10 11  2  0  0  0  0
 11 13  1  0  0  0  0
 12 11  1  0  0  0  0
 13 15  1  0  0  0  0
 13 14  2  0  0  0  0
 15 18  1  0  0  0  0
 16 17  2  0  0  0  0
 16 15  1  0  0  0  0
 19 21  1  0  0  0  0
 20 21  2  0  0  0  0
 21 22  1  0  0  0  0
 22 23  1  0  0  0  0
 24 25  1  0  0  0  0
 24 21  1  0  0  0  0
M  END
>  <minimizedAffinity>
-5.09050608

$$$$

 OpenBabel03252507093D

 25 26  0  0  0  0  0  0  0  0999 V2000
   36.2550   30.0350   38.0820 C   0  0  0  0  0  0  0  0  0  0  0  0
   35.7910   29.1790   39.1180 C   0  0  0  0  0  0  0  0  0  0  0  0
   36.4380   29.2460   40.3450 C   0  0  0  0  0  0  0  0  0  0  0  0
   37.4800   30.1220   40.4980 N   0  0  0  0  0  0  0  0  0  0  0  0
   37.8910   30.9210   39.4840 C   0  0  0  0  0  0  0  0  0  0  0  0
   37.2810   30.8770   38.2830 N   0  0  0  0  0  0  0  0  0  0  0  0
   35.7770   30.0090   37.1200 H   0  0  0  0  0  0  0  0  0  0  0  0
   34.9540   28.5160   38.8960 H   0  0  0  0  0  0  0  0  0  0  0  0
   38.9840   31.7330   39.8980 N   0  0  0  0  0  0  0  0  0  0  0  0
   39.4150   32.6680   39.0290 C   0  0  0  0  0  3  0  0  0  0  0  0
   40.4890   33.4740   39.4230 C   0  0  0  0  0  0  0  0  0  0  0  0
   40.8450   34.2250   38.7410 H   0  0  0  0  0  0  0  0  0  0  0  0
   41.0350   33.2590   40.6710 C   0  0  0  0  0  0  0  0  0  0  0  0
   42.0060   33.9830   41.0340 O   0  0  0  0  0  0  0  0  0  0  0  0
   40.5730   32.3120   41.5080 N   0  0  0  0  0  0  0  0  0  0  0  0
   39.5340   31.5430   41.1110 C   0  0  0  0  0  0  0  0  0  0  0  0
   39.1330   30.6700   41.9230 O   0  0  0  0  0  0  0  0  0  0  0  0
   41.0330   32.1970   42.4490 H   0  0  0  0  0  0  0  0  0  0  0  0
   35.9890   28.4130   41.3590 O   0  0  0  0  0  0  0  0  0  0  0  0
   36.4420   26.8570   43.4580 O   0  0  0  0  0  0  0  0  0  0  0  0
   37.0520   28.0020   42.6430 P   0  0  0  0  0  0  0  0  0  0  0  0
   38.5300   27.5850   41.9970 O   0  0  0  0  0  0  0  0  0  0  0  0
   38.4810   26.6270   41.7470 H   0  0  0  0  0  0  0  0  0  0  0  0
   37.1470   29.3500   43.6670 O   0  0  0  0  0  0  0  0  0  0  0  0
   37.7730   29.9850   43.2290 H   0  0  0  0  0  0  0  0  0  0  0  0
  1  6  2  0  0  0  0
  1  2  1  0  0  0  0
  2  3  2  0  0  0  0
  3  4  1  0  0  0  0
  3 19  1  0  0  0  0
  5  9  1  0  0  0  0
  5  4  2  0  0  0  0
  6  5  1  0  0  0  0
  7  1  1  0  0  0  0
  8  2  1  0  0  0  0
  9 16  1  0  0  0  0
 10 11  2  0  0  0  0
 10  9  1  0  0  0  0
 11 13  1  0  0  0  0
 12 11  1  0  0  0  0
 13 14  2  0  0  0  0
 13 15  1  0  0  0  0
 15 18  1  0  0  0  0
 16 15  1  0  0  0  0
 16 17  2  0  0  0  0
 19 21  1  0  0  0  0
 21 20  2  0  0  0  0
 21 24  1  0  0  0  0
 22 21  1  0  0  0  0
 23 22  1  0  0  0  0
 25 24  1  0  0  0  0
M  END
>  <minimizedAffinity>
-5.07743025

$$$$

 OpenBabel03252507093D

 25 26  0  0  0  0  0  0  0  0999 V2000
   37.4280   23.9730   40.7320 C   0  0  0  0  0  0  0  0  0  0  0  0
   38.5760   23.7070   41.5280 C   0  0  0  0  0  0  0  0  0  0  0  0
   39.1940   24.7870   42.1450 C   0  0  0  0  0  0  0  0  0  0  0  0
   38.6760   26.0420   41.9600 N   0  0  0  0  0  0  0  0  0  0  0  0
   37.5790   26.2510   41.1920 C   0  0  0  0  0  0  0  0  0  0  0  0
   36.9590   25.2220   40.5830 N   0  0  0  0  0  0  0  0  0  0  0  0
   36.9250   23.1600   40.2400 H   0  0  0  0  0  0  0  0  0  0  0  0
   38.9100   22.6730   41.6120 H   0  0  0  0  0  0  0  0  0  0  0  0
   37.2460   27.6340   41.1620 N   0  0  0  0  0  0  0  0  0  0  0  0
   36.1010   27.9750   40.5380 C   0  0  0  0  0  3  0  0  0  0  0  0
   35.7620   29.3330   40.5020 C   0  0  0  0  0  0  0  0  0  0  0  0
   34.8510   29.6200   40.0080 H   0  0  0  0  0  0  0  0  0  0  0  0
   36.6180   30.2300   41.1030 C   0  0  0  0  0  0  0  0  0  0  0  0
   36.3180   31.4570   41.0740 O   0  0  0  0  0  0  0  0  0  0  0  0
   37.7540   29.8460   41.7160 N   0  0  0  0  0  0  0  0  0  0  0  0
   38.0650   28.5300   41.7430 C   0  0  0  0  0  0  0  0  0  0  0  0
   39.1340   28.2140   42.3250 O   0  0  0  0  0  0  0  0  0  0  0  0
   38.3660   30.5800   42.1570 H   0  0  0  0  0  0  0  0  0  0  0  0
   40.3140   24.5330   42.9220 O   0  0  0  0  0  0  0  0  0  0  0  0
   42.1490   25.1930   41.1240 O   0  0  0  0  0  0  0  0  0  0  0  0
   41.7730   25.3780   42.5980 P   0  0  0  0  0  0  0  0  0  0  0  0
   41.5540   26.9840   42.9860 O   0  0  0  0  0  0  0  0  0  0  0  0
   41.1400   27.4230   42.1990 H   0  0  0  0  0  0  0  0  0  0  0  0
   42.9920   24.6470   43.5220 O   0  0  0  0  0  0  0  0  0  0  0  0
   42.8860   24.9970   44.4460 H   0  0  0  0  0  0  0  0  0  0  0  0
  1  2  1  0  0  0  0
  2  8  1  0  0  0  0
  2  3  2  0  0  0  0
  3 19  1  0  0  0  0
  4  3  1  0  0  0  0
  5  4  2  0  0  0  0
  6  1  2  0  0  0  0
  6  5  1  0  0  0  0
  7  1  1  0  0  0  0
  9  5  1  0  0  0  0
  9 16  1  0  0  0  0
 10  9  1  0  0  0  0
 11 10  2  0  0  0  0
 11 13  1  0  0  0  0
 12 11  1  0  0  0  0
 13 15  1  0  0  0  0
 14 13  2  0  0  0  0
 15 16  1  0  0  0  0
 15 18  1  0  0  0  0
 16 17  2  0  0  0  0
 20 21  2  0  0  0  0
 21 19  1  0  0  0  0
 21 22  1  0  0  0  0
 21 24  1  0  0  0  0
 23 22  1  0  0  0  0
 24 25  1  0  0  0  0
M  END
>  <minimizedAffinity>
-5.05742884

$$$$
