
 OpenBabel03252505363D

 34 36  0  0  0  0  0  0  0  0999 V2000
   46.9510   32.7130   47.1360 C   0  0  0  0  0  0  0  0  0  0  0  0
   46.9880   32.3510   45.7690 C   0  0  0  0  0  0  0  0  0  0  0  0
   47.4360   31.0920   45.4380 C   0  0  0  0  0  0  0  0  0  0  0  0
   47.8150   30.2740   46.4360 N   0  0  0  0  0  0  0  0  0  0  0  0
   47.7720   30.6450   47.7430 C   0  0  0  0  0  0  0  0  0  0  0  0
   47.3400   31.8600   48.0890 N   0  0  0  0  0  0  0  0  0  0  0  0
   48.1950   29.7520   48.7690 N   0  0  0  0  0  0  0  0  0  0  0  0
   46.6170   33.6760   47.4950 H   0  0  0  0  0  0  0  0  0  0  0  0
   49.2480   29.8600   48.6750 H   0  0  0  0  0  0  0  0  0  0  0  0
   47.3510   29.3260   49.2270 H   0  0  0  0  0  0  0  0  0  0  0  0
   47.5120   30.6130   44.0950 C   0  0  0  0  0  0  0  0  0  0  0  0
   48.7580   30.6380   43.4660 C   0  0  0  0  0  0  0  0  0  0  0  0
   48.9530   30.1860   42.1630 C   0  0  0  0  0  0  0  0  0  0  0  0
   47.8820   29.6940   41.4610 C   0  0  0  0  0  0  0  0  0  0  0  0
   46.6520   29.6630   42.0640 C   0  0  0  0  0  0  0  0  0  0  0  0
   46.4650   30.1150   43.3650 C   0  0  0  0  0  0  0  0  0  0  0  0
   49.6250   31.0240   44.0040 H   0  0  0  0  0  0  0  0  0  0  0  0
   49.9380   30.2210   41.7090 H   0  0  0  0  0  0  0  0  0  0  0  0
   47.9570   29.3250   40.4420 H   0  0  0  0  0  0  0  0  0  0  0  0
   45.7820   29.2850   41.5500 H   0  0  0  0  0  0  0  0  0  0  0  0
   45.1390   30.0670   44.0140 C   0  0  0  0  0  0  0  0  0  0  0  0
   44.3740   29.1080   43.3510 F   0  0  0  0  0  0  0  0  0  0  0  0
   44.5330   31.3030   43.9270 F   0  0  0  0  0  0  0  0  0  0  0  0
   45.1720   29.7470   45.3520 F   0  0  0  0  0  0  0  0  0  0  0  0
   46.5520   33.3950   44.9150 N   0  0  0  0  0  0  0  0  0  0  0  0
   47.0290   33.7870   43.7240 C   0  0  0  0  0  3  0  0  0  0  0  0
   46.5460   34.8130   42.9790 C   0  0  0  0  0  0  0  0  0  0  0  0
   47.0060   35.0480   42.0290 H   0  0  0  0  0  0  0  0  0  0  0  0
   45.4740   35.5450   43.4440 C   0  0  0  0  0  0  0  0  0  0  0  0
   44.9800   36.5070   42.8030 O   0  0  0  0  0  0  0  0  0  0  0  0
   44.9680   35.1850   44.6310 N   0  0  0  0  0  0  0  0  0  0  0  0
   45.4910   34.1610   45.3180 C   0  0  0  0  0  0  0  0  0  0  0  0
   44.9090   33.9290   46.4320 O   0  0  0  0  0  0  0  0  0  0  0  0
   44.1620   35.7370   44.9780 H   0  0  0  0  0  0  0  0  0  0  0  0
  1  8  1  0  0  0  0
  1  6  1  0  0  0  0
  2  1  2  0  0  0  0
  3  2  1  0  0  0  0
  3  4  2  0  0  0  0
  4  5  1  0  0  0  0
  5  6  2  0  0  0  0
  5  7  1  0  0  0  0
  7 10  1  0  0  0  0
  9  7  1  0  0  0  0
 11  3  1  0  0  0  0
 12 17  1  0  0  0  0
 12 11  1  0  0  0  0
 13 12  2  0  0  0  0
 14 15  2  0  0  0  0
 14 13  1  0  0  0  0
 15 16  1  0  0  0  0
 16 21  1  0  0  0  0
 16 11  2  0  0  0  0
 18 13  1  0  0  0  0
 19 14  1  0  0  0  0
 20 15  1  0  0  0  0
 21 24  1  0  0  0  0
 22 21  1  0  0  0  0
 23 21  1  0  0  0  0
 25 32  1  0  0  0  0
 25  2  1  0  0  0  0
 26 25  1  0  0  0  0
 27 29  1  0  0  0  0
 27 26  2  0  0  0  0
 28 27  1  0  0  0  0
 29 31  1  0  0  0  0
 30 29  2  0  0  0  0
 31 34  1  0  0  0  0
 31 32  1  0  0  0  0
 32 33  2  0  0  0  0
M  END
>  <minimizedAffinity>
-4.79325342

>  <minimizedRMSD>
4.92344427

$$$$
