
 OpenBabel03242521193D

 39 41  0  0  0  0  0  0  0  0999 V2000
   35.9100   29.9260   40.8110 C   0  0  0  0  0  0  0  0  0  0  0  0
   35.2950   30.4730   41.5850 H   0  0  0  0  0  0  0  0  0  0  0  0
   35.2000   29.2080   40.3460 H   0  0  0  0  0  0  0  0  0  0  0  0
   38.6950   28.8940   43.0920 C   0  0  0  0  0  0  0  0  0  0  0  0
   38.8520   27.5460   42.7010 C   0  0  0  0  0  0  0  0  0  0  0  0
   38.0070   27.0920   41.7000 C   0  0  0  0  0  0  0  0  0  0  0  0
   37.0760   27.9560   41.1470 N   0  0  0  0  0  0  0  0  0  0  0  0
   36.9780   29.2220   41.5630 C   0  0  0  0  0  0  0  0  0  0  0  0
   37.7780   29.7120   42.5340 N   0  0  0  0  0  0  0  0  0  0  0  0
   39.3300   29.2900   43.8670 H   0  0  0  0  0  0  0  0  0  0  0  0
   39.6020   26.9690   43.1960 H   0  0  0  0  0  0  0  0  0  0  0  0
   38.1440   25.7310   41.2760 N   0  0  0  0  0  0  0  0  0  0  0  0
   39.0570   25.4680   40.3030 C   0  0  0  0  0  0  0  0  0  0  0  0
   39.1910   24.1400   39.8910 C   0  0  0  0  0  0  0  0  0  0  0  0
   38.4150   23.1870   40.4720 C   0  0  0  0  0  0  0  0  0  0  0  0
   38.5630   21.9910   40.0740 O   0  0  0  0  0  0  0  0  0  0  0  0
   37.5210   23.4530   41.4270 N   0  0  0  0  0  0  0  0  0  0  0  0
   37.4050   24.7520   41.8150 C   0  0  0  0  0  0  0  0  0  0  0  0
   36.6020   25.0990   42.6960 O   0  0  0  0  0  0  0  0  0  0  0  0
   39.6580   26.2500   39.8640 H   0  0  0  0  0  0  0  0  0  0  0  0
   39.9000   23.8600   39.1210 H   0  0  0  0  0  0  0  0  0  0  0  0
   36.9230   22.7280   41.8790 H   0  0  0  0  0  0  0  0  0  0  0  0
   36.5080   30.9080   39.8220 C   0  0  0  0  0  0  0  0  0  0  0  0
   37.3680   30.4440   39.3480 H   0  0  0  0  0  0  0  0  0  0  0  0
   35.7440   31.0590   39.0070 H   0  0  0  0  0  0  0  0  0  0  0  0
   37.9380   32.8460   40.2360 C   0  0  0  0  0  0  0  0  0  0  0  0
   38.6680   32.3510   39.3150 O   0  0  0  0  0  0  0  0  0  0  0  0
   36.8110   32.1320   40.4980 N   0  0  0  0  0  0  0  0  0  0  0  0
   36.2900   32.6340   41.2180 H   0  0  0  0  0  0  0  0  0  0  0  0
   42.0670   32.4080   41.4300 H   0  0  0  0  0  0  0  0  0  0  0  0
   41.2130   32.9800   41.1260 N   0  0  0  0  0  0  0  0  0  0  0  0
   39.8610   32.8310   40.7700 C   0  0  0  0  0  3  0  0  0  0  0  0
   38.8360   33.8460   40.3690 C   0  0  0  0  0  0  0  0  0  0  0  0
   39.6900   34.7980   40.4940 C   0  0  0  0  0  0  0  0  0  0  0  0
   38.7500   35.6610   40.1340 O   0  0  0  0  0  0  0  0  0  0  0  0
   40.8820   35.2440   40.7720 N   0  0  0  0  0  0  0  0  0  0  0  0
   41.7350   34.2400   41.1240 C   0  0  0  0  0  0  0  0  0  0  0  0
   42.8690   34.6990   41.3840 O   0  0  0  0  0  0  0  0  0  0  0  0
   41.0180   36.2690   40.6900 H   0  0  0  0  0  0  0  0  0  0  0  0
  1  8  1  0  0  0  0
  1  2  1  0  0  0  0
  3  1  1  0  0  0  0
  4 10  1  0  0  0  0
  5  4  1  0  0  0  0
  5 11  1  0  0  0  0
  6  5  2  0  0  0  0
  7  8  2  0  0  0  0
  7  6  1  0  0  0  0
  8  9  1  0  0  0  0
  9  4  2  0  0  0  0
 12  6  1  0  0  0  0
 12 18  1  0  0  0  0
 13 12  1  0  0  0  0
 14 13  2  0  0  0  0
 14 15  1  0  0  0  0
 15 17  1  0  0  0  0
 16 15  2  0  0  0  0
 17 18  1  0  0  0  0
 17 22  1  0  0  0  0
 18 19  2  0  0  0  0
 20 13  1  0  0  0  0
 21 14  1  0  0  0  0
 23 28  1  0  0  0  0
 23  1  1  0  0  0  0
 24 23  1  0  0  0  0
 25 23  1  0  0  0  0
 26 33  1  0  0  0  0
 26 28  1  0  0  0  0
 27 26  2  0  0  0  0
 28 29  1  0  0  0  0
 31 30  1  0  0  0  0
 32 31  1  0  0  0  0
 33 34  1  0  0  0  0
 33 32  2  0  0  0  0
 34 36  1  0  0  0  0
 35 34  2  0  0  0  0
 36 37  1  0  0  0  0
 37 31  1  0  0  0  0
 37 38  2  0  0  0  0
 39 36  1  0  0  0  0
M  END
>  <minimizedAffinity>
-6.6692667

$$$$

 OpenBabel03242521193D

 39 42  0  0  1  0  0  0  0  0999 V2000
   37.0710   27.1550   39.3210 C   0  0  0  0  0  0  0  0  0  0  0  0
   36.5030   26.6850   38.4660 H   0  0  0  0  0  0  0  0  0  0  0  0
   38.0040   27.5440   38.8570 H   0  0  0  0  0  0  0  0  0  0  0  0
   37.1100   24.0300   41.3830 C   0  0  0  0  0  0  0  0  0  0  0  0
   38.2550   24.2670   42.1750 C   0  0  0  0  0  0  0  0  0  0  0  0
   38.9230   25.4610   41.9520 C   0  0  0  0  0  0  0  0  0  0  0  0
   38.4500   26.3390   40.9910 N   0  0  0  0  0  0  0  0  0  0  0  0
   37.3600   26.0550   40.2730 C   0  0  0  0  0  0  0  0  0  0  0  0
   36.6730   24.9050   40.4530 N   0  0  0  0  0  0  0  0  0  0  0  0
   36.5590   23.1140   41.5220 H   0  0  0  0  0  0  0  0  0  0  0  0
   38.5300   23.5200   42.8870 H   0  0  0  0  0  0  0  0  0  0  0  0
   40.0840   25.7340   42.7430 N   0  0  0  0  0  0  0  0  0  0  0  0
   41.2480   25.1350   42.3730 C   0  0  0  0  0  0  0  0  0  0  0  0
   42.3810   25.4020   43.1450 C   0  0  0  0  0  0  0  0  0  0  0  0
   42.2700   26.2350   44.2140 C   0  0  0  0  0  0  0  0  0  0  0  0
   43.3190   26.4550   44.8940 O   0  0  0  0  0  0  0  0  0  0  0  0
   41.1240   26.8190   44.5720 N   0  0  0  0  0  0  0  0  0  0  0  0
   40.0320   26.5460   43.8070 C   0  0  0  0  0  0  0  0  0  0  0  0
   38.9210   27.0410   44.0580 O   0  0  0  0  0  0  0  0  0  0  0  0
   41.3000   24.4800   41.5160 H   0  0  0  0  0  0  0  0  0  0  0  0
   43.3400   24.9600   42.9060 H   0  0  0  0  0  0  0  0  0  0  0  0
   41.0300   27.4590   45.3890 H   0  0  0  0  0  0  0  0  0  0  0  0
   36.2340   28.2330   39.9830 C   0  0  0  0  0  0  0  0  0  0  0  0
   35.8300   28.8820   39.2110 H   0  0  0  0  0  0  0  0  0  0  0  0
   35.3490   27.7180   40.4550 H   0  0  0  0  0  0  0  0  0  0  0  0
   37.6610   30.0900   40.6820 C   0  0  1  0  0  3  0  0  0  0  0  0
   37.4450   30.5380   39.5070 O   0  0  0  0  0  0  0  0  0  0  0  0
   37.0300   28.9170   40.9550 N   0  0  0  0  0  0  0  0  0  0  0  0
   37.2410   28.6740   41.9240 H   0  0  0  0  0  0  0  0  0  0  0  0
   36.7270   34.1830   39.6640 H   0  0  0  0  0  0  0  0  0  0  0  0
   37.3540   33.4170   40.0750 N   0  0  0  0  0  0  0  0  0  0  0  0
   37.3960   32.0280   40.2860 C   0  0  2  0  0  3  0  0  0  0  0  0
   38.4450   31.1630   40.9140 C   0  0  1  0  0  3  0  0  0  0  0  0
   39.1930   32.1860   41.1360 C   0  0  0  0  0  0  0  0  0  0  0  0
   40.0940   31.3810   41.6840 O   0  0  0  0  0  0  0  0  0  0  0  0
   39.4390   33.4640   41.0800 N   0  0  0  0  0  0  0  0  0  0  0  0
   38.4230   34.1560   40.4920 C   0  0  0  0  0  0  0  0  0  0  0  0
   38.6880   35.3770   40.4520 O   0  0  0  0  0  0  0  0  0  0  0  0
   40.3460   33.7730   41.4770 H   0  0  0  0  0  0  0  0  0  0  0  0
  1 23  1  0  0  0  0
  1  8  1  0  0  0  0
  2  1  1  0  0  0  0
  3  1  1  0  0  0  0
  4 10  1  0  0  0  0
  4  5  1  0  0  0  0
  5 11  1  0  0  0  0
  6  5  2  0  0  0  0
  6 12  1  0  0  0  0
  7  6  1  0  0  0  0
  8  9  1  0  0  0  0
  8  7  2  0  0  0  0
  9  4  2  0  0  0  0
 12 18  1  0  0  0  0
 13 12  1  0  0  0  0
 13 14  2  0  0  0  0
 14 15  1  0  0  0  0
 15 17  1  0  0  0  0
 15 16  2  0  0  0  0
 17 22  1  0  0  0  0
 18 19  2  0  0  0  0
 18 17  1  0  0  0  0
 20 13  1  0  0  0  0
 21 14  1  0  0  0  0
 23 25  1  0  0  0  0
 23 28  1  0  0  0  0
 24 23  1  0  0  0  0
 26 33  1  0  0  0  0
 26 28  1  6  0  0  0
 27 26  1  0  0  0  0
 28 29  1  0  0  0  0
 30 31  1  0  0  0  0
 31 32  1  0  0  0  0
 31 37  1  0  0  0  0
 32 27  1  6  0  0  0
 32 33  1  0  0  0  0
 33 34  1  1  0  0  0
 34 35  2  0  0  0  0
 36 34  1  0  0  0  0
 36 39  1  0  0  0  0
 37 36  1  0  0  0  0
 38 37  2  0  0  0  0
M  END
>  <minimizedAffinity>
-6.48634195

$$$$

 OpenBabel03242521193D

 39 42  0  0  1  0  0  0  0  0999 V2000
   36.6630   26.9880   40.0820 C   0  0  0  0  0  0  0  0  0  0  0  0
   35.5960   26.6310   40.1850 H   0  0  0  0  0  0  0  0  0  0  0  0
   37.1890   26.1520   39.5720 H   0  0  0  0  0  0  0  0  0  0  0  0
   37.1510   27.7690   43.7120 C   0  0  0  0  0  0  0  0  0  0  0  0
   38.4940   27.3630   43.8760 C   0  0  0  0  0  0  0  0  0  0  0  0
   39.1280   26.8580   42.7510 C   0  0  0  0  0  0  0  0  0  0  0  0
   38.4350   26.7790   41.5550 N   0  0  0  0  0  0  0  0  0  0  0  0
   37.1640   27.1790   41.4650 C   0  0  0  0  0  0  0  0  0  0  0  0
   36.5020   27.6780   42.5320 N   0  0  0  0  0  0  0  0  0  0  0  0
   36.6190   28.1670   44.5590 H   0  0  0  0  0  0  0  0  0  0  0  0
   38.9300   27.4690   44.8450 H   0  0  0  0  0  0  0  0  0  0  0  0
   40.4920   26.4430   42.8840 N   0  0  0  0  0  0  0  0  0  0  0  0
   41.4440   27.4140   42.8810 C   0  0  0  0  0  0  0  0  0  0  0  0
   42.7750   27.0080   43.0110 C   0  0  0  0  0  0  0  0  0  0  0  0
   43.0520   25.6820   43.1320 C   0  0  0  0  0  0  0  0  0  0  0  0
   44.2710   25.3490   43.2470 O   0  0  0  0  0  0  0  0  0  0  0  0
   42.1110   24.7350   43.1330 N   0  0  0  0  0  0  0  0  0  0  0  0
   40.8220   25.1500   43.0050 C   0  0  0  0  0  0  0  0  0  0  0  0
   39.8760   24.3450   42.9960 O   0  0  0  0  0  0  0  0  0  0  0  0
   41.1880   28.4590   42.7850 H   0  0  0  0  0  0  0  0  0  0  0  0
   43.5830   27.7290   43.0180 H   0  0  0  0  0  0  0  0  0  0  0  0
   42.3150   23.7160   43.2260 H   0  0  0  0  0  0  0  0  0  0  0  0
   36.7110   28.2910   39.3080 C   0  0  0  0  0  0  0  0  0  0  0  0
   36.5760   28.0740   38.2520 H   0  0  0  0  0  0  0  0  0  0  0  0
   35.8110   28.8930   39.6210 H   0  0  0  0  0  0  0  0  0  0  0  0
   38.1150   30.2910   39.3360 C   0  0  1  0  0  3  0  0  0  0  0  0
   37.0920   30.8680   38.8370 O   0  0  0  0  0  0  0  0  0  0  0  0
   37.9330   28.9710   39.6060 N   0  0  0  0  0  0  0  0  0  0  0  0
   38.7940   28.6240   40.0320 H   0  0  0  0  0  0  0  0  0  0  0  0
   36.6120   34.1250   40.6410 H   0  0  0  0  0  0  0  0  0  0  0  0
   37.3570   33.4820   40.2170 N   0  0  0  0  0  0  0  0  0  0  0  0
   37.5850   32.1360   39.8840 C   0  0  2  0  0  3  0  0  0  0  0  0
   38.7750   31.4670   39.2660 C   0  0  1  0  0  3  0  0  0  0  0  0
   39.4030   32.5870   39.2010 C   0  0  0  0  0  0  0  0  0  0  0  0
   40.4330   31.9520   38.6560 O   0  0  0  0  0  0  0  0  0  0  0  0
   39.4850   33.8730   39.3930 N   0  0  0  0  0  0  0  0  0  0  0  0
   38.3520   34.3790   39.9580 C   0  0  0  0  0  0  0  0  0  0  0  0
   38.4600   35.6120   40.1300 O   0  0  0  0  0  0  0  0  0  0  0  0
   40.3720   34.3240   39.1010 H   0  0  0  0  0  0  0  0  0  0  0  0
  1  2  1  0  0  0  0
  1  8  1  0  0  0  0
  3  1  1  0  0  0  0
  4  5  1  0  0  0  0
  4 10  1  0  0  0  0
  5 11  1  0  0  0  0
  6 12  1  0  0  0  0
  6  5  2  0  0  0  0
  7  6  1  0  0  0  0
  8  7  2  0  0  0  0
  8  9  1  0  0  0  0
  9  4  2  0  0  0  0
 12 18  1  0  0  0  0
 13 12  1  0  0  0  0
 13 14  2  0  0  0  0
 14 21  1  0  0  0  0
 14 15  1  0  0  0  0
 15 17  1  0  0  0  0
 15 16  2  0  0  0  0
 17 22  1  0  0  0  0
 18 17  1  0  0  0  0
 19 18  2  0  0  0  0
 20 13  1  0  0  0  0
 23 28  1  0  0  0  0
 23 25  1  0  0  0  0
 23  1  1  0  0  0  0
 24 23  1  0  0  0  0
 26 28  1  6  0  0  0
 27 26  1  0  0  0  0
 28 29  1  0  0  0  0
 31 30  1  0  0  0  0
 32 27  1  6  0  0  0
 32 31  1  0  0  0  0
 33 34  1  1  0  0  0
 33 26  1  0  0  0  0
 33 32  1  0  0  0  0
 34 36  1  0  0  0  0
 35 34  2  0  0  0  0
 36 37  1  0  0  0  0
 37 38  2  0  0  0  0
 37 31  1  0  0  0  0
 39 36  1  0  0  0  0
M  END
>  <minimizedAffinity>
-6.48620176

$$$$

 OpenBabel03242521193D

 39 41  0  0  0  0  0  0  0  0999 V2000
   35.8720   30.1500   39.8050 C   0  0  0  0  0  0  0  0  0  0  0  0
   34.7520   30.0850   39.9290 H   0  0  0  0  0  0  0  0  0  0  0  0
   36.0160   30.6180   38.8070 H   0  0  0  0  0  0  0  0  0  0  0  0
   36.5560   26.5130   39.2290 C   0  0  0  0  0  0  0  0  0  0  0  0
   37.5600   26.2910   40.1970 C   0  0  0  0  0  0  0  0  0  0  0  0
   37.9270   27.3850   40.9660 C   0  0  0  0  0  0  0  0  0  0  0  0
   37.3100   28.6070   40.7560 N   0  0  0  0  0  0  0  0  0  0  0  0
   36.3660   28.7510   39.8220 C   0  0  0  0  0  0  0  0  0  0  0  0
   35.9720   27.7170   39.0470 N   0  0  0  0  0  0  0  0  0  0  0  0
   36.2390   25.6930   38.6070 H   0  0  0  0  0  0  0  0  0  0  0  0
   37.9680   25.3080   40.2720 H   0  0  0  0  0  0  0  0  0  0  0  0
   38.9390   27.1910   41.9610 N   0  0  0  0  0  0  0  0  0  0  0  0
   40.2340   27.1900   41.5430 C   0  0  0  0  0  0  0  0  0  0  0  0
   41.2210   27.0010   42.5140 C   0  0  0  0  0  0  0  0  0  0  0  0
   40.8480   26.8300   43.8100 C   0  0  0  0  0  0  0  0  0  0  0  0
   41.7700   26.6610   44.6650 O   0  0  0  0  0  0  0  0  0  0  0  0
   39.5740   26.8330   44.2120 N   0  0  0  0  0  0  0  0  0  0  0  0
   38.6280   27.0170   43.2520 C   0  0  0  0  0  0  0  0  0  0  0  0
   37.4180   27.0360   43.5260 O   0  0  0  0  0  0  0  0  0  0  0  0
   40.4940   27.3300   40.5040 H   0  0  0  0  0  0  0  0  0  0  0  0
   42.2710   26.9900   42.2510 H   0  0  0  0  0  0  0  0  0  0  0  0
   39.2800   26.7030   45.2040 H   0  0  0  0  0  0  0  0  0  0  0  0
   36.4840   30.9500   40.9390 C   0  0  0  0  0  0  0  0  0  0  0  0
   35.8250   30.8910   41.8010 H   0  0  0  0  0  0  0  0  0  0  0  0
   37.4360   30.4250   41.2350 H   0  0  0  0  0  0  0  0  0  0  0  0
   37.9840   32.8130   40.4380 C   0  0  0  0  0  0  0  0  0  0  0  0
   38.9080   32.0010   40.7780 O   0  0  0  0  0  0  0  0  0  0  0  0
   36.7320   32.2860   40.4920 N   0  0  0  0  0  0  0  0  0  0  0  0
   36.0830   33.0040   40.1680 H   0  0  0  0  0  0  0  0  0  0  0  0
   41.3850   32.4410   37.7990 H   0  0  0  0  0  0  0  0  0  0  0  0
   40.7710   32.9670   38.5030 N   0  0  0  0  0  0  0  0  0  0  0  0
   39.6030   32.8160   39.2710 C   0  0  0  0  0  3  0  0  0  0  0  0
   38.9300   33.7530   40.2260 C   0  0  0  0  0  0  0  0  0  0  0  0
   39.8300   34.6490   40.0230 C   0  0  0  0  0  0  0  0  0  0  0  0
   39.1990   35.4440   40.8770 O   0  0  0  0  0  0  0  0  0  0  0  0
   40.9190   35.0750   39.4500 N   0  0  0  0  0  0  0  0  0  0  0  0
   41.4490   34.1470   38.6030 C   0  0  0  0  0  0  0  0  0  0  0  0
   42.4920   34.5850   38.0700 O   0  0  0  0  0  0  0  0  0  0  0  0
   41.2270   36.0320   39.7060 H   0  0  0  0  0  0  0  0  0  0  0  0
  1  8  1  0  0  0  0
  1  2  1  0  0  0  0
  1 23  1  0  0  0  0
  3  1  1  0  0  0  0
  4  5  1  0  0  0  0
  5 11  1  0  0  0  0
  5  6  2  0  0  0  0
  6 12  1  0  0  0  0
  7  6  1  0  0  0  0
  8  7  2  0  0  0  0
  9  4  2  0  0  0  0
  9  8  1  0  0  0  0
 10  4  1  0  0  0  0
 12 18  1  0  0  0  0
 13 12  1  0  0  0  0
 13 14  2  0  0  0  0
 14 15  1  0  0  0  0
 15 17  1  0  0  0  0
 15 16  2  0  0  0  0
 17 22  1  0  0  0  0
 18 19  2  0  0  0  0
 18 17  1  0  0  0  0
 20 13  1  0  0  0  0
 21 14  1  0  0  0  0
 23 25  1  0  0  0  0
 23 24  1  0  0  0  0
 26 28  1  0  0  0  0
 26 27  2  0  0  0  0
 28 23  1  0  0  0  0
 29 28  1  0  0  0  0
 30 31  1  0  0  0  0
 31 37  1  0  0  0  0
 31 32  1  0  0  0  0
 32 33  2  0  0  0  0
 33 26  1  0  0  0  0
 34 33  1  0  0  0  0
 34 35  2  0  0  0  0
 36 39  1  0  0  0  0
 36 34  1  0  0  0  0
 37 36  1  0  0  0  0
 38 37  2  0  0  0  0
M  END
>  <minimizedAffinity>
-6.42217112

$$$$

 OpenBabel03242521193D

 39 42  0  0  1  0  0  0  0  0999 V2000
   41.4350   32.5640   40.2190 C   0  0  0  0  0  0  0  0  0  0  0  0
   42.0960   33.4700   40.0860 H   0  0  0  0  0  0  0  0  0  0  0  0
   41.7350   31.8750   39.3990 H   0  0  0  0  0  0  0  0  0  0  0  0
   38.2590   34.5290   39.9470 C   0  0  0  0  0  0  0  0  0  0  0  0
   37.3540   33.4970   39.6160 C   0  0  0  0  0  0  0  0  0  0  0  0
   37.8850   32.2210   39.5100 C   0  0  0  0  0  0  0  0  0  0  0  0
   39.2390   32.0250   39.7280 N   0  0  0  0  0  0  0  0  0  0  0  0
   40.0430   33.0450   40.0380 C   0  0  0  0  0  0  0  0  0  0  0  0
   39.5740   34.3060   40.1540 N   0  0  0  0  0  0  0  0  0  0  0  0
   37.8900   35.5370   40.0390 H   0  0  0  0  0  0  0  0  0  0  0  0
   36.3300   33.7630   39.4680 H   0  0  0  0  0  0  0  0  0  0  0  0
   36.9920   31.1510   39.1800 N   0  0  0  0  0  0  0  0  0  0  0  0
   37.0140   30.6900   37.9000 C   0  0  0  0  0  0  0  0  0  0  0  0
   36.1430   29.6460   37.5800 C   0  0  0  0  0  0  0  0  0  0  0  0
   35.3260   29.1470   38.5460 C   0  0  0  0  0  0  0  0  0  0  0  0
   34.5480   28.2000   38.2200 O   0  0  0  0  0  0  0  0  0  0  0  0
   35.3110   29.6050   39.8000 N   0  0  0  0  0  0  0  0  0  0  0  0
   36.1660   30.6230   40.0930 C   0  0  0  0  0  0  0  0  0  0  0  0
   36.2260   31.1160   41.2300 O   0  0  0  0  0  0  0  0  0  0  0  0
   37.6770   31.1090   37.1590 H   0  0  0  0  0  0  0  0  0  0  0  0
   36.1090   29.2310   36.5810 H   0  0  0  0  0  0  0  0  0  0  0  0
   34.6890   29.2280   40.5470 H   0  0  0  0  0  0  0  0  0  0  0  0
   41.6230   31.9710   41.6020 C   0  0  0  0  0  0  0  0  0  0  0  0
   42.5810   32.3000   41.9940 H   0  0  0  0  0  0  0  0  0  0  0  0
   40.8370   32.4300   42.2670 H   0  0  0  0  0  0  0  0  0  0  0  0
   40.5760   29.8650   42.2680 C   0  0  1  0  0  3  0  0  0  0  0  0
   39.8340   30.6050   42.9950 O   0  0  0  0  0  0  0  0  0  0  0  0
   41.4890   30.5490   41.5270 N   0  0  0  0  0  0  0  0  0  0  0  0
   41.9970   29.8670   40.9620 H   0  0  0  0  0  0  0  0  0  0  0  0
   36.4050   29.7260   43.3850 H   0  0  0  0  0  0  0  0  0  0  0  0
   37.3780   29.2940   43.2560 N   0  0  0  0  0  0  0  0  0  0  0  0
   38.6760   29.6200   42.8280 C   0  0  2  0  0  3  0  0  0  0  0  0
   39.9190   28.7870   42.7470 C   0  0  1  0  0  3  0  0  0  0  0  0
   39.2930   27.7600   43.2020 C   0  0  0  0  0  0  0  0  0  0  0  0
   40.4180   27.0630   43.1130 O   0  0  0  0  0  0  0  0  0  0  0  0
   38.2200   27.1730   43.6480 N   0  0  0  0  0  0  0  0  0  0  0  0
   37.1500   28.0170   43.6810 C   0  0  0  0  0  0  0  0  0  0  0  0
   36.1360   27.4260   44.1120 O   0  0  0  0  0  0  0  0  0  0  0  0
   38.3190   26.1740   43.9090 H   0  0  0  0  0  0  0  0  0  0  0  0
  1 23  1  0  0  0  0
  2  1  1  0  0  0  0
  3  1  1  0  0  0  0
  4 10  1  0  0  0  0
  4  9  1  0  0  0  0
  5  4  2  0  0  0  0
  6  5  1  0  0  0  0
  6  7  2  0  0  0  0
  7  8  1  0  0  0  0
  8  9  2  0  0  0  0
  8  1  1  0  0  0  0
 11  5  1  0  0  0  0
 12  6  1  0  0  0  0
 12 18  1  0  0  0  0
 13 12  1  0  0  0  0
 14 13  2  0  0  0  0
 14 15  1  0  0  0  0
 15 17  1  0  0  0  0
 16 15  2  0  0  0  0
 17 18  1  0  0  0  0
 17 22  1  0  0  0  0
 18 19  2  0  0  0  0
 20 13  1  0  0  0  0
 21 14  1  0  0  0  0
 23 24  1  0  0  0  0
 23 25  1  0  0  0  0
 26 28  1  1  0  0  0
 26 33  1  0  0  0  0
 26 27  1  0  0  0  0
 28 23  1  0  0  0  0
 29 28  1  0  0  0  0
 31 30  1  0  0  0  0
 31 37  1  0  0  0  0
 32 27  1  1  0  0  0
 32 31  1  0  0  0  0
 33 32  1  0  0  0  0
 33 34  1  6  0  0  0
 34 36  1  0  0  0  0
 35 34  2  0  0  0  0
 36 37  1  0  0  0  0
 36 39  1  0  0  0  0
 37 38  2  0  0  0  0
M  END
>  <minimizedAffinity>
-6.38940477

$$$$

 OpenBabel03242521193D

 39 41  0  0  0  0  0  0  0  0999 V2000
   37.4840   28.7230   43.0980 C   0  0  0  0  0  0  0  0  0  0  0  0
   38.2050   29.5620   43.3240 H   0  0  0  0  0  0  0  0  0  0  0  0
   36.7660   28.7350   43.9470 H   0  0  0  0  0  0  0  0  0  0  0  0
   39.8750   25.9210   43.7700 C   0  0  0  0  0  0  0  0  0  0  0  0
   39.5600   25.0600   42.6950 C   0  0  0  0  0  0  0  0  0  0  0  0
   38.5670   25.4930   41.8290 C   0  0  0  0  0  0  0  0  0  0  0  0
   37.9490   26.7120   42.0530 N   0  0  0  0  0  0  0  0  0  0  0  0
   38.2930   27.4800   43.0900 C   0  0  0  0  0  0  0  0  0  0  0  0
   39.2550   27.1040   43.9620 N   0  0  0  0  0  0  0  0  0  0  0  0
   40.6400   25.6250   44.4680 H   0  0  0  0  0  0  0  0  0  0  0  0
   40.1000   24.1420   42.6200 H   0  0  0  0  0  0  0  0  0  0  0  0
   38.2280   24.6450   40.7260 N   0  0  0  0  0  0  0  0  0  0  0  0
   37.3780   23.6120   40.9690 C   0  0  0  0  0  0  0  0  0  0  0  0
   37.0470   22.7860   39.8920 C   0  0  0  0  0  0  0  0  0  0  0  0
   37.5830   23.0490   38.6700 C   0  0  0  0  0  0  0  0  0  0  0  0
   37.2620   22.2780   37.7150 O   0  0  0  0  0  0  0  0  0  0  0  0
   38.4180   24.0650   38.4390 N   0  0  0  0  0  0  0  0  0  0  0  0
   38.7280   24.8570   39.5010 C   0  0  0  0  0  0  0  0  0  0  0  0
   39.4940   25.8270   39.3870 O   0  0  0  0  0  0  0  0  0  0  0  0
   36.9700   23.4340   41.9530 H   0  0  0  0  0  0  0  0  0  0  0  0
   36.3750   21.9460   40.0150 H   0  0  0  0  0  0  0  0  0  0  0  0
   38.8320   24.2730   37.5060 H   0  0  0  0  0  0  0  0  0  0  0  0
   36.8240   28.9430   41.7500 C   0  0  0  0  0  0  0  0  0  0  0  0
   37.4820   28.5620   40.9740 H   0  0  0  0  0  0  0  0  0  0  0  0
   35.9020   28.2960   41.7250 H   0  0  0  0  0  0  0  0  0  0  0  0
   37.2860   31.1860   40.8960 C   0  0  0  0  0  0  0  0  0  0  0  0
   38.2970   30.6360   40.3460 O   0  0  0  0  0  0  0  0  0  0  0  0
   36.5020   30.3300   41.6040 N   0  0  0  0  0  0  0  0  0  0  0  0
   35.7120   30.8650   41.9650 H   0  0  0  0  0  0  0  0  0  0  0  0
   41.0860   33.1200   41.5900 H   0  0  0  0  0  0  0  0  0  0  0  0
   40.1110   33.0530   41.1490 N   0  0  0  0  0  0  0  0  0  0  0  0
   38.9820   32.2170   41.1030 C   0  0  0  0  0  3  0  0  0  0  0  0
   37.6820   32.3670   40.3740 C   0  0  0  0  0  0  0  0  0  0  0  0
   38.0590   33.4910   39.8760 C   0  0  0  0  0  0  0  0  0  0  0  0
   36.8940   33.5800   39.2500 O   0  0  0  0  0  0  0  0  0  0  0  0
   38.9320   34.4460   39.7250 N   0  0  0  0  0  0  0  0  0  0  0  0
   40.0760   34.2110   40.4290 C   0  0  0  0  0  0  0  0  0  0  0  0
   40.8920   35.1440   40.2640 O   0  0  0  0  0  0  0  0  0  0  0  0
   38.6490   35.2320   39.1090 H   0  0  0  0  0  0  0  0  0  0  0  0
  1  2  1  0  0  0  0
  1  3  1  0  0  0  0
  4  9  1  0  0  0  0
  4 10  1  0  0  0  0
  5  4  2  0  0  0  0
  6  7  2  0  0  0  0
  6  5  1  0  0  0  0
  7  8  1  0  0  0  0
  8  1  1  0  0  0  0
  8  9  2  0  0  0  0
 11  5  1  0  0  0  0
 12 13  1  0  0  0  0
 12  6  1  0  0  0  0
 13 20  1  0  0  0  0
 14 21  1  0  0  0  0
 14 13  2  0  0  0  0
 15 14  1  0  0  0  0
 16 15  2  0  0  0  0
 17 15  1  0  0  0  0
 17 18  1  0  0  0  0
 18 12  1  0  0  0  0
 19 18  2  0  0  0  0
 22 17  1  0  0  0  0
 23  1  1  0  0  0  0
 24 23  1  0  0  0  0
 25 23  1  0  0  0  0
 26 28  1  0  0  0  0
 27 26  2  0  0  0  0
 28 23  1  0  0  0  0
 28 29  1  0  0  0  0
 31 30  1  0  0  0  0
 32 31  1  0  0  0  0
 33 26  1  0  0  0  0
 33 32  2  0  0  0  0
 34 33  1  0  0  0  0
 35 34  2  0  0  0  0
 36 34  1  0  0  0  0
 36 37  1  0  0  0  0
 37 31  1  0  0  0  0
 38 37  2  0  0  0  0
 39 36  1  0  0  0  0
M  END
>  <minimizedAffinity>
-6.19638348

$$$$

 OpenBabel03242521193D

 39 41  0  0  0  0  0  0  0  0999 V2000
   37.8590   31.7770   39.5810 C   0  0  0  0  0  0  0  0  0  0  0  0
   38.6770   30.9990   39.5990 H   0  0  0  0  0  0  0  0  0  0  0  0
   37.3930   31.6710   38.5770 H   0  0  0  0  0  0  0  0  0  0  0  0
   38.8020   35.3570   40.1440 C   0  0  0  0  0  0  0  0  0  0  0  0
   40.1860   35.2970   39.8730 C   0  0  0  0  0  0  0  0  0  0  0  0
   40.6920   34.0540   39.5220 C   0  0  0  0  0  0  0  0  0  0  0  0
   39.8410   32.9640   39.4560 N   0  0  0  0  0  0  0  0  0  0  0  0
   38.5390   33.0880   39.7260 C   0  0  0  0  0  0  0  0  0  0  0  0
   37.9970   34.2760   40.0720 N   0  0  0  0  0  0  0  0  0  0  0  0
   38.3650   36.3020   40.4220 H   0  0  0  0  0  0  0  0  0  0  0  0
   40.7490   36.2010   39.9550 H   0  0  0  0  0  0  0  0  0  0  0  0
   42.0920   33.9610   39.2350 N   0  0  0  0  0  0  0  0  0  0  0  0
   42.4790   34.1390   37.9430 C   0  0  0  0  0  0  0  0  0  0  0  0
   43.8450   34.0480   37.6640 C   0  0  0  0  0  0  0  0  0  0  0  0
   44.7100   33.7890   38.6800 C   0  0  0  0  0  0  0  0  0  0  0  0
   45.9430   33.7130   38.3910 O   0  0  0  0  0  0  0  0  0  0  0  0
   44.3230   33.6160   39.9460 N   0  0  0  0  0  0  0  0  0  0  0  0
   42.9890   33.7080   40.1970 C   0  0  0  0  0  0  0  0  0  0  0  0
   42.5300   33.5630   41.3420 O   0  0  0  0  0  0  0  0  0  0  0  0
   41.7630   34.3440   37.1610 H   0  0  0  0  0  0  0  0  0  0  0  0
   44.2210   34.1800   36.6580 H   0  0  0  0  0  0  0  0  0  0  0  0
   44.9800   33.4180   40.7310 H   0  0  0  0  0  0  0  0  0  0  0  0
   36.8870   31.5470   40.7230 C   0  0  0  0  0  0  0  0  0  0  0  0
   37.3910   31.7710   41.6590 H   0  0  0  0  0  0  0  0  0  0  0  0
   36.0680   32.3140   40.6170 H   0  0  0  0  0  0  0  0  0  0  0  0
   36.7410   29.2450   41.5300 C   0  0  0  0  0  0  0  0  0  0  0  0
   37.5340   29.6450   42.4460 O   0  0  0  0  0  0  0  0  0  0  0  0
   36.3780   30.2130   40.6460 N   0  0  0  0  0  0  0  0  0  0  0  0
   35.7210   29.7940   39.9870 H   0  0  0  0  0  0  0  0  0  0  0  0
   38.4780   25.7220   39.7310 H   0  0  0  0  0  0  0  0  0  0  0  0
   37.9700   26.2460   40.5170 N   0  0  0  0  0  0  0  0  0  0  0  0
   37.4920   27.5240   40.8540 C   0  0  0  0  0  3  0  0  0  0  0  0
   36.7780   28.0110   42.0780 C   0  0  0  0  0  0  0  0  0  0  0  0
   36.8140   26.8370   42.5990 C   0  0  0  0  0  0  0  0  0  0  0  0
   36.1810   27.3130   43.6630 O   0  0  0  0  0  0  0  0  0  0  0  0
   37.1380   25.5760   42.5710 N   0  0  0  0  0  0  0  0  0  0  0  0
   37.7810   25.2380   41.4170 C   0  0  0  0  0  0  0  0  0  0  0  0
   38.0790   24.0240   41.4190 O   0  0  0  0  0  0  0  0  0  0  0  0
   36.8730   25.0150   43.4020 H   0  0  0  0  0  0  0  0  0  0  0  0
  1  2  1  0  0  0  0
  1  8  1  0  0  0  0
  1 23  1  0  0  0  0
  3  1  1  0  0  0  0
  4 10  1  0  0  0  0
  5 11  1  0  0  0  0
  5  4  2  0  0  0  0
  6  5  1  0  0  0  0
  7  6  2  0  0  0  0
  7  8  1  0  0  0  0
  8  9  2  0  0  0  0
  9  4  1  0  0  0  0
 12  6  1  0  0  0  0
 12 18  1  0  0  0  0
 13 12  1  0  0  0  0
 14 13  2  0  0  0  0
 14 15  1  0  0  0  0
 15 17  1  0  0  0  0
 16 15  2  0  0  0  0
 17 18  1  0  0  0  0
 17 22  1  0  0  0  0
 18 19  2  0  0  0  0
 20 13  1  0  0  0  0
 21 14  1  0  0  0  0
 23 24  1  0  0  0  0
 25 23  1  0  0  0  0
 26 33  1  0  0  0  0
 26 27  2  0  0  0  0
 28 23  1  0  0  0  0
 28 26  1  0  0  0  0
 29 28  1  0  0  0  0
 30 31  1  0  0  0  0
 31 32  1  0  0  0  0
 31 37  1  0  0  0  0
 32 33  2  0  0  0  0
 33 34  1  0  0  0  0
 34 35  2  0  0  0  0
 36 34  1  0  0  0  0
 36 39  1  0  0  0  0
 37 38  2  0  0  0  0
 37 36  1  0  0  0  0
M  END
>  <minimizedAffinity>
-6.10785484

$$$$

 OpenBabel03242521193D

 39 42  0  0  1  0  0  0  0  0999 V2000
   38.0570   31.4690   38.9740 C   0  0  0  0  0  0  0  0  0  0  0  0
   38.9050   30.7460   39.1590 H   0  0  0  0  0  0  0  0  0  0  0  0
   37.9110   31.4520   37.8720 H   0  0  0  0  0  0  0  0  0  0  0  0
   38.4590   34.9920   40.1790 C   0  0  0  0  0  0  0  0  0  0  0  0
   39.8680   35.0780   40.2350 C   0  0  0  0  0  0  0  0  0  0  0  0
   40.5700   33.9420   39.8630 C   0  0  0  0  0  0  0  0  0  0  0  0
   39.8770   32.8100   39.4650 N   0  0  0  0  0  0  0  0  0  0  0  0
   38.5430   32.7940   39.4340 C   0  0  0  0  0  0  0  0  0  0  0  0
   37.8120   33.8740   39.7860 N   0  0  0  0  0  0  0  0  0  0  0  0
   37.8720   35.8510   40.4600 H   0  0  0  0  0  0  0  0  0  0  0  0
   40.2960   36.0010   40.5580 H   0  0  0  0  0  0  0  0  0  0  0  0
   42.0000   33.9980   39.9050 N   0  0  0  0  0  0  0  0  0  0  0  0
   42.6020   33.7300   41.0950 C   0  0  0  0  0  0  0  0  0  0  0  0
   43.9980   33.7850   41.1340 C   0  0  0  0  0  0  0  0  0  0  0  0
   44.6790   34.0990   39.9990 C   0  0  0  0  0  0  0  0  0  0  0  0
   45.9450   34.1400   40.0710 O   0  0  0  0  0  0  0  0  0  0  0  0
   44.0800   34.3610   38.8350 N   0  0  0  0  0  0  0  0  0  0  0  0
   42.7210   34.3030   38.8170 C   0  0  0  0  0  0  0  0  0  0  0  0
   42.0730   34.5290   37.7820 O   0  0  0  0  0  0  0  0  0  0  0  0
   42.0300   33.4830   41.9760 H   0  0  0  0  0  0  0  0  0  0  0  0
   44.5420   33.5820   42.0480 H   0  0  0  0  0  0  0  0  0  0  0  0
   44.5940   34.6010   37.9600 H   0  0  0  0  0  0  0  0  0  0  0  0
   36.8250   31.0480   39.7520 C   0  0  0  0  0  0  0  0  0  0  0  0
   36.0400   31.7810   39.5830 H   0  0  0  0  0  0  0  0  0  0  0  0
   36.4590   30.0860   39.2930 H   0  0  0  0  0  0  0  0  0  0  0  0
   37.4540   29.6630   41.6640 C   0  0  1  0  0  3  0  0  0  0  0  0
   37.4190   28.7030   40.8240 O   0  0  0  0  0  0  0  0  0  0  0  0
   37.1720   30.8810   41.1290 N   0  0  0  0  0  0  0  0  0  0  0  0
   37.2640   31.5710   41.8750 H   0  0  0  0  0  0  0  0  0  0  0  0
   40.7710   26.8980   41.5560 H   0  0  0  0  0  0  0  0  0  0  0  0
   39.9090   27.3430   42.0120 N   0  0  0  0  0  0  0  0  0  0  0  0
   38.9300   28.3250   41.7830 C   0  0  2  0  0  3  0  0  0  0  0  0
   37.7740   28.7710   42.6250 C   0  0  1  0  0  3  0  0  0  0  0  0
   38.0790   27.9210   43.5410 C   0  0  0  0  0  0  0  0  0  0  0  0
   37.0440   28.3480   44.2510 O   0  0  0  0  0  0  0  0  0  0  0  0
   38.8270   26.9710   44.0240 N   0  0  0  0  0  0  0  0  0  0  0  0
   39.8480   26.6430   43.1810 C   0  0  0  0  0  0  0  0  0  0  0  0
   40.5470   25.7300   43.6720 O   0  0  0  0  0  0  0  0  0  0  0  0
   38.5560   26.6030   44.9560 H   0  0  0  0  0  0  0  0  0  0  0  0
  1  2  1  0  0  0  0
  1  8  1  0  0  0  0
  1 23  1  0  0  0  0
  3  1  1  0  0  0  0
  4  5  1  0  0  0  0
  4 10  1  0  0  0  0
  5 11  1  0  0  0  0
  6 12  1  0  0  0  0
  6  5  2  0  0  0  0
  7  6  1  0  0  0  0
  8  7  2  0  0  0  0
  8  9  1  0  0  0  0
  9  4  2  0  0  0  0
 12 13  1  0  0  0  0
 13 14  2  0  0  0  0
 13 20  1  0  0  0  0
 14 21  1  0  0  0  0
 15 16  2  0  0  0  0
 15 14  1  0  0  0  0
 17 15  1  0  0  0  0
 18 17  1  0  0  0  0
 18 12  1  0  0  0  0
 19 18  2  0  0  0  0
 22 17  1  0  0  0  0
 23 28  1  0  0  0  0
 24 23  1  0  0  0  0
 25 23  1  0  0  0  0
 26 28  1  1  0  0  0
 26 33  1  0  0  0  0
 27 26  1  0  0  0  0
 28 29  1  0  0  0  0
 30 31  1  0  0  0  0
 31 37  1  0  0  0  0
 32 27  1  6  0  0  0
 32 31  1  0  0  0  0
 32 33  1  0  0  0  0
 33 34  1  1  0  0  0
 34 36  1  0  0  0  0
 34 35  2  0  0  0  0
 36 39  1  0  0  0  0
 37 38  2  0  0  0  0
 37 36  1  0  0  0  0
M  END
>  <minimizedAffinity>
-6.09205294

$$$$

 OpenBabel03242521193D

 39 41  0  0  0  0  0  0  0  0999 V2000
   40.6180   27.4530   43.2810 C   0  0  0  0  0  0  0  0  0  0  0  0
   40.9850   26.5860   42.6580 H   0  0  0  0  0  0  0  0  0  0  0  0
   41.0070   27.2480   44.3030 H   0  0  0  0  0  0  0  0  0  0  0  0
   36.9330   27.7780   43.8660 C   0  0  0  0  0  0  0  0  0  0  0  0
   36.4410   26.9880   42.8030 C   0  0  0  0  0  0  0  0  0  0  0  0
   37.3900   26.4090   41.9750 C   0  0  0  0  0  0  0  0  0  0  0  0
   38.7360   26.6260   42.2210 N   0  0  0  0  0  0  0  0  0  0  0  0
   39.1360   27.3850   43.2430 C   0  0  0  0  0  0  0  0  0  0  0  0
   38.2520   27.9710   44.0800 N   0  0  0  0  0  0  0  0  0  0  0  0
   36.2320   28.2490   44.5350 H   0  0  0  0  0  0  0  0  0  0  0  0
   35.3820   26.8900   42.7070 H   0  0  0  0  0  0  0  0  0  0  0  0
   36.9230   25.5970   40.8910 N   0  0  0  0  0  0  0  0  0  0  0  0
   36.7160   24.2770   41.1430 C   0  0  0  0  0  0  0  0  0  0  0  0
   36.2600   23.4860   40.0860 C   0  0  0  0  0  0  0  0  0  0  0  0
   36.0490   24.0630   38.8730 C   0  0  0  0  0  0  0  0  0  0  0  0
   35.6350   23.3150   37.9350 O   0  0  0  0  0  0  0  0  0  0  0  0
   36.2550   25.3600   38.6330 N   0  0  0  0  0  0  0  0  0  0  0  0
   36.6990   26.1140   39.6750 C   0  0  0  0  0  0  0  0  0  0  0  0
   36.9190   27.3290   39.5520 O   0  0  0  0  0  0  0  0  0  0  0  0
   36.8930   23.8520   42.1200 H   0  0  0  0  0  0  0  0  0  0  0  0
   36.0730   22.4270   40.2170 H   0  0  0  0  0  0  0  0  0  0  0  0
   36.0940   25.8110   37.7070 H   0  0  0  0  0  0  0  0  0  0  0  0
   41.1110   28.7660   42.7020 C   0  0  0  0  0  0  0  0  0  0  0  0
   41.1880   29.4930   43.5060 H   0  0  0  0  0  0  0  0  0  0  0  0
   42.1620   28.5890   42.3360 H   0  0  0  0  0  0  0  0  0  0  0  0
   39.6090   30.3730   41.6370 C   0  0  0  0  0  0  0  0  0  0  0  0
   39.8950   31.1160   42.6340 O   0  0  0  0  0  0  0  0  0  0  0  0
   40.2400   29.1680   41.6410 N   0  0  0  0  0  0  0  0  0  0  0  0
   39.9690   28.6770   40.7890 H   0  0  0  0  0  0  0  0  0  0  0  0
   40.7400   34.4650   40.8390 H   0  0  0  0  0  0  0  0  0  0  0  0
   40.0390   33.6550   40.8800 N   0  0  0  0  0  0  0  0  0  0  0  0
   39.9530   32.2930   41.2160 C   0  0  0  0  0  3  0  0  0  0  0  0
   38.7920   31.3470   41.1830 C   0  0  0  0  0  0  0  0  0  0  0  0
   38.0140   32.2750   40.7500 C   0  0  0  0  0  0  0  0  0  0  0  0
   37.0160   31.4020   40.7370 O   0  0  0  0  0  0  0  0  0  0  0  0
   37.7850   33.5000   40.3730 N   0  0  0  0  0  0  0  0  0  0  0  0
   38.9050   34.2750   40.4410 C   0  0  0  0  0  0  0  0  0  0  0  0
   38.6540   35.4430   40.0740 O   0  0  0  0  0  0  0  0  0  0  0  0
   36.8130   33.7160   40.0800 H   0  0  0  0  0  0  0  0  0  0  0  0
  1  3  1  0  0  0  0
  2  1  1  0  0  0  0
  4  9  1  0  0  0  0
  4 10  1  0  0  0  0
  5  4  2  0  0  0  0
  6  7  2  0  0  0  0
  6  5  1  0  0  0  0
  7  8  1  0  0  0  0
  8  1  1  0  0  0  0
  8  9  2  0  0  0  0
 11  5  1  0  0  0  0
 12 13  1  0  0  0  0
 12  6  1  0  0  0  0
 13 20  1  0  0  0  0
 14 21  1  0  0  0  0
 14 13  2  0  0  0  0
 15 14  1  0  0  0  0
 16 15  2  0  0  0  0
 17 15  1  0  0  0  0
 17 18  1  0  0  0  0
 18 12  1  0  0  0  0
 19 18  2  0  0  0  0
 22 17  1  0  0  0  0
 23  1  1  0  0  0  0
 23 24  1  0  0  0  0
 25 23  1  0  0  0  0
 26 28  1  0  0  0  0
 26 27  2  0  0  0  0
 28 23  1  0  0  0  0
 29 28  1  0  0  0  0
 30 31  1  0  0  0  0
 31 32  1  0  0  0  0
 33 32  2  0  0  0  0
 33 26  1  0  0  0  0
 34 33  1  0  0  0  0
 35 34  2  0  0  0  0
 36 37  1  0  0  0  0
 36 34  1  0  0  0  0
 37 31  1  0  0  0  0
 38 37  2  0  0  0  0
 39 36  1  0  0  0  0
M  END
>  <minimizedAffinity>
-6.01612139

$$$$
