
 OpenBabel03252506253D

 46 50  0  0  0  0  0  0  0  0999 V2000
   45.4200   27.7910   47.9880 C   0  0  0  0  0  0  0  0  0  0  0  0
   44.9560   29.0860   47.8300 C   0  0  0  0  0  0  0  0  0  0  0  0
   44.2160   29.3330   46.6760 C   0  0  0  0  0  0  0  0  0  0  0  0
   43.9530   28.3580   45.7400 C   0  0  0  0  0  0  0  0  0  0  0  0
   43.2930   28.3020   44.5740 N   0  0  0  0  0  0  0  0  0  0  0  0
   43.3420   27.0700   44.0480 C   0  0  0  0  0  0  0  0  0  0  0  0
   44.0650   26.2500   44.8900 C   0  0  0  0  0  0  0  0  0  0  0  0
   44.4250   27.0760   45.9200 C   0  0  0  0  0  0  0  0  0  0  0  0
   45.1620   26.8190   47.0620 C   0  0  0  0  0  0  0  0  0  0  0  0
   45.9920   27.6580   48.9090 H   0  0  0  0  0  0  0  0  0  0  0  0
   43.7910   30.2940   46.4180 H   0  0  0  0  0  0  0  0  0  0  0  0
   42.7930   29.1170   44.1170 H   0  0  0  0  0  0  0  0  0  0  0  0
   42.8810   26.7790   43.1110 H   0  0  0  0  0  0  0  0  0  0  0  0
   44.3080   25.2010   44.7910 H   0  0  0  0  0  0  0  0  0  0  0  0
   45.6750   25.5100   47.3000 N   0  0  0  0  0  0  0  0  0  0  0  0
   45.0500   24.4960   47.9260 C   0  0  0  0  0  3  0  0  0  0  0  0
   45.7210   23.2850   48.0620 C   0  0  0  0  0  0  0  0  0  0  0  0
   45.1910   22.4870   48.5700 H   0  0  0  0  0  0  0  0  0  0  0  0
   46.9980   23.1260   47.5650 C   0  0  0  0  0  0  0  0  0  0  0  0
   47.6080   22.0340   47.6850 O   0  0  0  0  0  0  0  0  0  0  0  0
   47.5880   24.1830   46.9390 N   0  0  0  0  0  0  0  0  0  0  0  0
   46.9230   25.3480   46.8180 C   0  0  0  0  0  0  0  0  0  0  0  0
   47.5860   26.2530   46.2130 O   0  0  0  0  0  0  0  0  0  0  0  0
   48.5690   24.0260   46.5710 H   0  0  0  0  0  0  0  0  0  0  0  0
   45.1170   30.2510   48.6840 C   0  0  0  0  0  0  0  0  0  0  0  0
   44.2690   30.9660   48.5710 H   0  0  0  0  0  0  0  0  0  0  0  0
   45.0120   29.8940   49.7490 H   0  0  0  0  0  0  0  0  0  0  0  0
   46.4120   30.9700   48.6090 C   0  0  0  0  0  0  0  0  0  0  0  0
   46.4050   31.7510   49.4220 H   0  0  0  0  0  0  0  0  0  0  0  0
   47.2330   30.2890   48.8120 H   0  0  0  0  0  0  0  0  0  0  0  0
   46.2760   33.0210   45.6890 C   0  0  0  0  0  0  0  0  0  0  0  0
   47.2230   32.0590   45.3200 C   0  0  0  0  0  0  0  0  0  0  0  0
   47.3870   31.1890   46.3490 C   0  0  0  0  0  0  0  0  0  0  0  0
   46.5710   31.6010   47.3170 N   0  0  0  0  0  0  0  0  0  0  0  0
   45.8930   32.7030   46.9370 N   0  0  0  0  0  0  0  0  0  0  0  0
   47.7650   31.9790   44.3760 H   0  0  0  0  0  0  0  0  0  0  0  0
   48.0480   30.3210   46.3960 H   0  0  0  0  0  0  0  0  0  0  0  0
   44.4730   35.9720   44.5140 C   0  0  0  0  0  0  0  0  0  0  0  0
   45.0200   36.1890   43.2440 C   0  0  0  0  0  0  0  0  0  0  0  0
   46.0050   35.3140   42.8040 C   0  0  0  0  0  0  0  0  0  0  0  0
   46.3600   34.3200   43.6380 N   0  0  0  0  0  0  0  0  0  0  0  0
   45.8340   34.1220   44.8490 C   0  0  0  0  0  0  0  0  0  0  0  0
   44.8880   34.9560   45.2780 N   0  0  0  0  0  0  0  0  0  0  0  0
   43.7060   36.6730   44.8270 H   0  0  0  0  0  0  0  0  0  0  0  0
   44.7550   36.9680   42.5630 H   0  0  0  0  0  0  0  0  0  0  0  0
   46.5030   35.3750   41.8440 H   0  0  0  0  0  0  0  0  0  0  0  0
  1 10  1  0  0  0  0
  2  1  1  0  0  0  0
  2 25  1  0  0  0  0
  3  2  2  0  0  0  0
  4  8  2  0  0  0  0
  4  3  1  0  0  0  0
  5  4  1  0  0  0  0
  6  5  1  0  0  0  0
  6  7  2  0  0  0  0
  7  8  1  0  0  0  0
  8  9  1  0  0  0  0
  9 15  1  0  0  0  0
  9  1  2  0  0  0  0
 11  3  1  0  0  0  0
 12  5  1  0  0  0  0
 13  6  1  0  0  0  0
 14  7  1  0  0  0  0
 15 16  1  0  0  0  0
 16 17  2  0  0  0  0
 17 18  1  0  0  0  0
 19 20  2  0  0  0  0
 19 17  1  0  0  0  0
 21 19  1  0  0  0  0
 22 21  1  0  0  0  0
 22 15  1  0  0  0  0
 23 22  2  0  0  0  0
 24 21  1  0  0  0  0
 25 27  1  0  0  0  0
 26 25  1  0  0  0  0
 28 25  1  0  0  0  0
 28 30  1  0  0  0  0
 28 29  1  0  0  0  0
 31 35  2  0  0  0  0
 32 31  1  0  0  0  0
 32 33  2  0  0  0  0
 33 37  1  0  0  0  0
 33 34  1  0  0  0  0
 34 28  1  0  0  0  0
 35 34  1  0  0  0  0
 36 32  1  0  0  0  0
 38 44  1  0  0  0  0
 38 43  1  0  0  0  0
 39 38  2  0  0  0  0
 40 39  1  0  0  0  0
 40 41  2  0  0  0  0
 41 42  1  0  0  0  0
 42 43  2  0  0  0  0
 42 31  1  0  0  0  0
 45 39  1  0  0  0  0
 46 40  1  0  0  0  0
M  END
>  <minimizedAffinity>
-5.42143583

>  <minimizedRMSD>
1.67236447

$$$$
