
 OpenBabel03252505533D

 34 36  0  0  0  0  0  0  0  0999 V2000
   47.2300   30.5660   47.8080 C   0  0  0  0  0  0  0  0  0  0  0  0
   47.7550   29.4470   47.1980 C   0  0  0  0  0  0  0  0  0  0  0  0
   49.0280   29.0460   47.5080 C   0  0  0  0  0  0  0  0  0  0  0  0
   49.7890   29.7120   48.3920 N   0  0  0  0  0  0  0  0  0  0  0  0
   49.2650   30.8030   48.9800 C   0  0  0  0  0  0  0  0  0  0  0  0
   48.0060   31.2420   48.7070 N   0  0  0  0  0  0  0  0  0  0  0  0
   47.0680   28.9870   46.5100 H   0  0  0  0  0  0  0  0  0  0  0  0
   49.3400   28.1580   46.9740 H   0  0  0  0  0  0  0  0  0  0  0  0
   50.1080   31.4950   49.9240 N   0  0  0  0  0  0  0  0  0  0  0  0
   50.6230   32.7120   49.8690 C   0  0  0  0  0  0  0  0  0  0  0  0
   51.4080   33.1550   50.9090 C   0  0  0  0  0  0  0  0  0  0  0  0
   51.8080   34.1540   50.8250 H   0  0  0  0  0  0  0  0  0  0  0  0
   51.6510   32.3370   51.9860 C   0  0  0  0  0  0  0  0  0  0  0  0
   52.3720   32.7570   52.9320 O   0  0  0  0  0  0  0  0  0  0  0  0
   51.1160   31.1000   52.0200 N   0  0  0  0  0  0  0  0  0  0  0  0
   50.3490   30.6820   50.9940 C   0  0  0  0  0  0  0  0  0  0  0  0
   49.9220   29.5050   51.1710 O   0  0  0  0  0  0  0  0  0  0  0  0
   51.3430   30.5360   52.8700 H   0  0  0  0  0  0  0  0  0  0  0  0
   45.9240   31.1960   47.6580 C   0  0  0  0  0  0  0  0  0  0  0  0
   45.1980   30.9180   48.4620 H   0  0  0  0  0  0  0  0  0  0  0  0
   45.4450   30.8590   46.7070 H   0  0  0  0  0  0  0  0  0  0  0  0
   46.1220   32.5850   47.5530 O   0  0  0  0  0  0  0  0  0  0  0  0
   44.9860   34.8670   45.0720 C   0  0  0  0  0  0  0  0  0  0  0  0
   45.8050   34.6080   43.9780 C   0  0  0  0  0  0  0  0  0  0  0  0
   46.7860   33.6030   44.1160 C   0  0  0  0  0  0  0  0  0  0  0  0
   46.8650   32.9570   45.3020 N   0  0  0  0  0  0  0  0  0  0  0  0
   46.0460   33.2460   46.3320 C   0  0  0  0  0  0  0  0  0  0  0  0
   45.1180   34.1870   46.2230 N   0  0  0  0  0  0  0  0  0  0  0  0
   44.2140   35.6320   45.0170 H   0  0  0  0  0  0  0  0  0  0  0  0
   47.4080   33.4130   43.2670 H   0  0  0  0  0  0  0  0  0  0  0  0
   45.6000   35.4060   42.7270 C   0  0  0  0  0  0  0  0  0  0  0  0
   45.3140   36.6770   43.1570 F   0  0  0  0  0  0  0  0  0  0  0  0
   44.4930   34.8520   42.0950 F   0  0  0  0  0  0  0  0  0  0  0  0
   46.7350   35.3350   41.9620 F   0  0  0  0  0  0  0  0  0  0  0  0
  1  6  1  0  0  0  0
  2  3  1  0  0  0  0
  2  1  2  0  0  0  0
  3  4  2  0  0  0  0
  4  5  1  0  0  0  0
  5  9  1  0  0  0  0
  6  5  2  0  0  0  0
  7  2  1  0  0  0  0
  8  3  1  0  0  0  0
  9 16  1  0  0  0  0
 10  9  1  0  0  0  0
 10 11  2  0  0  0  0
 11 13  1  0  0  0  0
 12 11  1  0  0  0  0
 13 15  1  0  0  0  0
 13 14  2  0  0  0  0
 15 18  1  0  0  0  0
 16 17  2  0  0  0  0
 16 15  1  0  0  0  0
 19  1  1  0  0  0  0
 19 20  1  0  0  0  0
 21 19  1  0  0  0  0
 22 19  1  0  0  0  0
 23 28  1  0  0  0  0
 24 25  1  0  0  0  0
 24 23  2  0  0  0  0
 25 26  2  0  0  0  0
 26 27  1  0  0  0  0
 27 22  1  0  0  0  0
 28 27  2  0  0  0  0
 29 23  1  0  0  0  0
 30 25  1  0  0  0  0
 31 32  1  0  0  0  0
 31 24  1  0  0  0  0
 33 31  1  0  0  0  0
 34 31  1  0  0  0  0
M  END
>  <minimizedAffinity>
-6.51212931

>  <minimizedRMSD>
0.775688052

$$$$
