
 OpenBabel03242522343D

 22 23  0  0  0  0  0  0  0  0999 V2000
   37.5550   28.7520   40.1740 C   0  0  0  0  0  0  0  0  0  0  0  0
   37.9810   28.3350   39.2280 H   0  0  0  0  0  0  0  0  0  0  0  0
   36.4750   28.5290   40.1510 H   0  0  0  0  0  0  0  0  0  0  0  0
   37.6900   30.1950   40.1670 N   0  0  0  0  0  0  0  0  0  0  0  0
   38.8900   30.7240   39.8480 C   0  0  0  0  0  3  0  0  0  0  0  0
   39.0380   32.1140   39.8360 C   0  0  0  0  0  0  0  0  0  0  0  0
   39.9630   32.6230   39.5930 H   0  0  0  0  0  0  0  0  0  0  0  0
   37.9400   32.9230   40.1540 C   0  0  0  0  0  0  0  0  0  0  0  0
   38.0200   34.1590   40.1570 O   0  0  0  0  0  0  0  0  0  0  0  0
   36.8180   32.2630   40.4480 N   0  0  0  0  0  0  0  0  0  0  0  0
   36.6040   30.9430   40.4790 C   0  0  0  0  0  0  0  0  0  0  0  0
   35.4890   30.4510   40.7750 O   0  0  0  0  0  0  0  0  0  0  0  0
   35.9890   32.8730   40.6880 H   0  0  0  0  0  0  0  0  0  0  0  0
   39.8690   26.8940   42.4250 C   0  0  0  0  0  0  0  0  0  0  0  0
   39.2160   26.9970   43.6680 C   0  0  0  0  0  0  0  0  0  0  0  0
   38.0170   27.6940   43.6790 C   0  0  0  0  0  0  0  0  0  0  0  0
   37.5230   28.2390   42.5410 N   0  0  0  0  0  0  0  0  0  0  0  0
   38.1970   28.1120   41.3560 C   0  0  0  0  0  0  0  0  0  0  0  0
   39.3530   27.4420   41.3280 N   0  0  0  0  0  0  0  0  0  0  0  0
   40.8220   26.3520   42.3590 H   0  0  0  0  0  0  0  0  0  0  0  0
   39.6330   26.5540   44.5540 H   0  0  0  0  0  0  0  0  0  0  0  0
   37.4890   27.7920   44.6170 H   0  0  0  0  0  0  0  0  0  0  0  0
  1 18  1  0  0  0  0
  2  1  1  0  0  0  0
  3  1  1  0  0  0  0
  4  1  1  0  0  0  0
  4 11  1  0  0  0  0
  5  4  1  0  0  0  0
  6  5  2  0  0  0  0
  6  8  1  0  0  0  0
  7  6  1  0  0  0  0
  8  9  2  0  0  0  0
  8 10  1  0  0  0  0
 10 11  1  0  0  0  0
 10 13  1  0  0  0  0
 11 12  2  0  0  0  0
 14 15  1  0  0  0  0
 15 16  2  0  0  0  0
 15 21  1  0  0  0  0
 16 22  1  0  0  0  0
 17 16  1  0  0  0  0
 18 17  2  0  0  0  0
 19 18  1  0  0  0  0
 19 14  2  0  0  0  0
 20 14  1  0  0  0  0
M  END
>  <minimizedAffinity>
-4.26329803

$$$$

 OpenBabel03242522343D

 22 23  0  0  0  0  0  0  0  0999 V2000
   36.8170   27.4400   43.0330 C   0  0  0  0  0  0  0  0  0  0  0  0
   35.7830   27.1180   43.3080 H   0  0  0  0  0  0  0  0  0  0  0  0
   37.2820   27.8080   43.9630 H   0  0  0  0  0  0  0  0  0  0  0  0
   36.7440   28.5650   42.1210 N   0  0  0  0  0  0  0  0  0  0  0  0
   35.8280   28.5280   41.1310 C   0  0  0  0  0  3  0  0  0  0  0  0
   35.7440   29.6040   40.2440 C   0  0  0  0  0  0  0  0  0  0  0  0
   35.0400   29.6580   39.4220 H   0  0  0  0  0  0  0  0  0  0  0  0
   36.6100   30.6930   40.4020 C   0  0  0  0  0  0  0  0  0  0  0  0
   36.5750   31.6710   39.6420 O   0  0  0  0  0  0  0  0  0  0  0  0
   37.4620   30.5930   41.4230 N   0  0  0  0  0  0  0  0  0  0  0  0
   37.5990   29.5990   42.3090 C   0  0  0  0  0  0  0  0  0  0  0  0
   38.4500   29.6330   43.2290 O   0  0  0  0  0  0  0  0  0  0  0  0
   38.1170   31.4150   41.5440 H   0  0  0  0  0  0  0  0  0  0  0  0
   39.5310   25.2230   41.7720 C   0  0  0  0  0  0  0  0  0  0  0  0
   38.8240   24.0490   41.4450 C   0  0  0  0  0  0  0  0  0  0  0  0
   37.4560   24.0700   41.6710 C   0  0  0  0  0  0  0  0  0  0  0  0
   36.8550   25.1740   42.1800 N   0  0  0  0  0  0  0  0  0  0  0  0
   37.5870   26.2910   42.4810 C   0  0  0  0  0  0  0  0  0  0  0  0
   38.9070   26.2870   42.2700 N   0  0  0  0  0  0  0  0  0  0  0  0
   40.6170   25.2600   41.6130 H   0  0  0  0  0  0  0  0  0  0  0  0
   39.3290   23.1900   41.0430 H   0  0  0  0  0  0  0  0  0  0  0  0
   36.8820   23.1860   41.4320 H   0  0  0  0  0  0  0  0  0  0  0  0
  1  2  1  0  0  0  0
  1  3  1  0  0  0  0
  4 11  1  0  0  0  0
  4  1  1  0  0  0  0
  5  4  1  0  0  0  0
  6  8  1  0  0  0  0
  6  5  2  0  0  0  0
  7  6  1  0  0  0  0
  8 10  1  0  0  0  0
  9  8  2  0  0  0  0
 10 13  1  0  0  0  0
 10 11  1  0  0  0  0
 11 12  2  0  0  0  0
 14 19  1  0  0  0  0
 15 16  1  0  0  0  0
 15 14  2  0  0  0  0
 16 17  2  0  0  0  0
 17 18  1  0  0  0  0
 18  1  1  0  0  0  0
 19 18  2  0  0  0  0
 20 14  1  0  0  0  0
 21 15  1  0  0  0  0
 22 16  1  0  0  0  0
M  END
>  <minimizedAffinity>
-4.25814056

$$$$

 OpenBabel03242522343D

 22 23  0  0  0  0  0  0  0  0999 V2000
   39.1400   30.1280   42.4710 C   0  0  0  0  0  0  0  0  0  0  0  0
   40.2300   30.0120   42.2510 H   0  0  0  0  0  0  0  0  0  0  0  0
   39.0730   30.5120   43.5020 H   0  0  0  0  0  0  0  0  0  0  0  0
   38.5080   28.8230   42.4630 N   0  0  0  0  0  0  0  0  0  0  0  0
   37.4600   28.6150   43.2870 C   0  0  0  0  0  3  0  0  0  0  0  0
   36.8380   27.3640   43.2920 C   0  0  0  0  0  0  0  0  0  0  0  0
   35.9920   27.1090   43.9200 H   0  0  0  0  0  0  0  0  0  0  0  0
   37.3150   26.3580   42.4430 C   0  0  0  0  0  0  0  0  0  0  0  0
   36.7980   25.2320   42.4090 O   0  0  0  0  0  0  0  0  0  0  0  0
   38.3550   26.7050   41.6830 N   0  0  0  0  0  0  0  0  0  0  0  0
   38.9980   27.8780   41.6260 C   0  0  0  0  0  0  0  0  0  0  0  0
   39.9720   28.0720   40.8590 O   0  0  0  0  0  0  0  0  0  0  0  0
   38.7160   25.9470   41.0410 H   0  0  0  0  0  0  0  0  0  0  0  0
   36.9010   31.7510   39.9770 C   0  0  0  0  0  0  0  0  0  0  0  0
   37.5290   32.9970   39.7840 C   0  0  0  0  0  0  0  0  0  0  0  0
   38.6870   33.2230   40.5130 C   0  0  0  0  0  0  0  0  0  0  0  0
   39.1670   32.2800   41.3610 N   0  0  0  0  0  0  0  0  0  0  0  0
   38.5180   31.0840   41.5140 C   0  0  0  0  0  0  0  0  0  0  0  0
   37.4020   30.8500   40.8180 N   0  0  0  0  0  0  0  0  0  0  0  0
   35.9810   31.5200   39.4240 H   0  0  0  0  0  0  0  0  0  0  0  0
   37.1240   33.7240   39.1050 H   0  0  0  0  0  0  0  0  0  0  0  0
   39.1950   34.1690   40.3900 H   0  0  0  0  0  0  0  0  0  0  0  0
  1  3  1  0  0  0  0
  2  1  1  0  0  0  0
  4  1  1  0  0  0  0
  4  5  1  0  0  0  0
  5  6  2  0  0  0  0
  6  7  1  0  0  0  0
  8  6  1  0  0  0  0
  9  8  2  0  0  0  0
 10  8  1  0  0  0  0
 11 10  1  0  0  0  0
 11  4  1  0  0  0  0
 12 11  2  0  0  0  0
 13 10  1  0  0  0  0
 14 19  1  0  0  0  0
 15 14  2  0  0  0  0
 15 16  1  0  0  0  0
 16 17  2  0  0  0  0
 17 18  1  0  0  0  0
 18  1  1  0  0  0  0
 19 18  2  0  0  0  0
 20 14  1  0  0  0  0
 21 15  1  0  0  0  0
 22 16  1  0  0  0  0
M  END
>  <minimizedAffinity>
-4.25612545

$$$$

 OpenBabel03242522343D

 22 23  0  0  0  0  0  0  0  0999 V2000
   36.5550   30.6160   40.2090 C   0  0  0  0  0  0  0  0  0  0  0  0
   35.7990   30.0860   39.5790 H   0  0  0  0  0  0  0  0  0  0  0  0
   36.0630   31.5310   40.5790 H   0  0  0  0  0  0  0  0  0  0  0  0
   37.6640   31.0390   39.3760 N   0  0  0  0  0  0  0  0  0  0  0  0
   38.3350   30.0990   38.6770 C   0  0  0  0  0  3  0  0  0  0  0  0
   39.4050   30.4890   37.8680 C   0  0  0  0  0  0  0  0  0  0  0  0
   39.9980   29.8030   37.2750 H   0  0  0  0  0  0  0  0  0  0  0  0
   39.7570   31.8420   37.8020 C   0  0  0  0  0  0  0  0  0  0  0  0
   40.6980   32.2390   37.1000 O   0  0  0  0  0  0  0  0  0  0  0  0
   39.0060   32.6580   38.5440 N   0  0  0  0  0  0  0  0  0  0  0  0
   37.9710   32.3580   39.3370 C   0  0  0  0  0  0  0  0  0  0  0  0
   37.3480   33.2310   39.9860 O   0  0  0  0  0  0  0  0  0  0  0  0
   39.2710   33.6810   38.4940 H   0  0  0  0  0  0  0  0  0  0  0  0
   38.2990   29.2140   43.1870 C   0  0  0  0  0  0  0  0  0  0  0  0
   37.6000   28.0080   43.3960 C   0  0  0  0  0  0  0  0  0  0  0  0
   36.5690   27.7310   42.5100 C   0  0  0  0  0  0  0  0  0  0  0  0
   36.2690   28.5920   41.5070 N   0  0  0  0  0  0  0  0  0  0  0  0
   36.9770   29.7520   41.3460 C   0  0  0  0  0  0  0  0  0  0  0  0
   37.9740   30.0340   42.1900 N   0  0  0  0  0  0  0  0  0  0  0  0
   39.1240   29.4820   43.8590 H   0  0  0  0  0  0  0  0  0  0  0  0
   37.8630   27.3460   44.2000 H   0  0  0  0  0  0  0  0  0  0  0  0
   36.0120   26.8150   42.6420 H   0  0  0  0  0  0  0  0  0  0  0  0
  1  3  1  0  0  0  0
  1 18  1  0  0  0  0
  2  1  1  0  0  0  0
  4  1  1  0  0  0  0
  5  4  1  0  0  0  0
  6  5  2  0  0  0  0
  7  6  1  0  0  0  0
  8  6  1  0  0  0  0
  8 10  1  0  0  0  0
  9  8  2  0  0  0  0
 10 11  1  0  0  0  0
 11  4  1  0  0  0  0
 11 12  2  0  0  0  0
 13 10  1  0  0  0  0
 14 15  1  0  0  0  0
 14 20  1  0  0  0  0
 15 21  1  0  0  0  0
 16 22  1  0  0  0  0
 16 15  2  0  0  0  0
 17 16  1  0  0  0  0
 18 17  2  0  0  0  0
 18 19  1  0  0  0  0
 19 14  2  0  0  0  0
M  END
>  <minimizedAffinity>
-4.24340343

$$$$

 OpenBabel03242522343D

 22 23  0  0  0  0  0  0  0  0999 V2000
   35.6890   29.1280   40.9680 C   0  0  0  0  0  0  0  0  0  0  0  0
   34.9840   29.5360   41.7340 H   0  0  0  0  0  0  0  0  0  0  0  0
   35.0840   28.4930   40.3000 H   0  0  0  0  0  0  0  0  0  0  0  0
   36.6540   28.2620   41.6160 N   0  0  0  0  0  0  0  0  0  0  0  0
   37.2160   28.6800   42.7700 C   0  0  0  0  0  3  0  0  0  0  0  0
   38.1480   27.8580   43.4080 C   0  0  0  0  0  0  0  0  0  0  0  0
   38.6470   28.1130   44.3350 H   0  0  0  0  0  0  0  0  0  0  0  0
   38.4770   26.6220   42.8380 C   0  0  0  0  0  0  0  0  0  0  0  0
   39.2970   25.8570   43.3650 O   0  0  0  0  0  0  0  0  0  0  0  0
   37.8440   26.3400   41.6980 N   0  0  0  0  0  0  0  0  0  0  0  0
   36.9440   27.0740   41.0330 C   0  0  0  0  0  0  0  0  0  0  0  0
   36.4210   26.6860   39.9610 O   0  0  0  0  0  0  0  0  0  0  0  0
   38.0910   25.4070   41.2660 H   0  0  0  0  0  0  0  0  0  0  0  0
   37.2180   32.3750   39.9750 C   0  0  0  0  0  0  0  0  0  0  0  0
   37.4900   32.1660   38.6090 C   0  0  0  0  0  0  0  0  0  0  0  0
   37.1380   30.9280   38.0910 C   0  0  0  0  0  0  0  0  0  0  0  0
   36.5650   29.9870   38.8800 N   0  0  0  0  0  0  0  0  0  0  0  0
   36.3220   30.2380   40.2040 C   0  0  0  0  0  0  0  0  0  0  0  0
   36.6540   31.4260   40.7180 N   0  0  0  0  0  0  0  0  0  0  0  0
   37.4770   33.3380   40.4350 H   0  0  0  0  0  0  0  0  0  0  0  0
   37.9450   32.9330   38.0090 H   0  0  0  0  0  0  0  0  0  0  0  0
   37.3330   30.7340   37.0470 H   0  0  0  0  0  0  0  0  0  0  0  0
  1  4  1  0  0  0  0
  1  2  1  0  0  0  0
  3  1  1  0  0  0  0
  4  5  1  0  0  0  0
  5  6  2  0  0  0  0
  6  7  1  0  0  0  0
  8  9  2  0  0  0  0
  8  6  1  0  0  0  0
 10  8  1  0  0  0  0
 11  4  1  0  0  0  0
 11 10  1  0  0  0  0
 12 11  2  0  0  0  0
 13 10  1  0  0  0  0
 14 20  1  0  0  0  0
 14 19  1  0  0  0  0
 15 14  2  0  0  0  0
 16 15  1  0  0  0  0
 16 17  2  0  0  0  0
 17 18  1  0  0  0  0
 18 19  2  0  0  0  0
 18  1  1  0  0  0  0
 21 15  1  0  0  0  0
 22 16  1  0  0  0  0
M  END
>  <minimizedAffinity>
-4.22962046

$$$$

 OpenBabel03242522343D

 22 23  0  0  0  0  0  0  0  0999 V2000
   38.2740   28.9220   43.0400 C   0  0  0  0  0  0  0  0  0  0  0  0
   39.3320   29.0920   43.3600 H   0  0  0  0  0  0  0  0  0  0  0  0
   37.6620   28.9850   43.9540 H   0  0  0  0  0  0  0  0  0  0  0  0
   38.1380   27.5720   42.5300 N   0  0  0  0  0  0  0  0  0  0  0  0
   39.0940   27.1000   41.7020 C   0  0  0  0  0  3  0  0  0  0  0  0
   38.9780   25.8000   41.2020 C   0  0  0  0  0  0  0  0  0  0  0  0
   39.6970   25.3420   40.5340 H   0  0  0  0  0  0  0  0  0  0  0  0
   37.8750   25.0200   41.5700 C   0  0  0  0  0  0  0  0  0  0  0  0
   37.7270   23.8620   41.1540 O   0  0  0  0  0  0  0  0  0  0  0  0
   37.0110   25.6150   42.3940 N   0  0  0  0  0  0  0  0  0  0  0  0
   37.0570   26.8490   42.9110 C   0  0  0  0  0  0  0  0  0  0  0  0
   36.1690   27.2870   43.6800 O   0  0  0  0  0  0  0  0  0  0  0  0
   36.1780   25.0270   42.6720 H   0  0  0  0  0  0  0  0  0  0  0  0
   36.3250   31.0410   40.6770 C   0  0  0  0  0  0  0  0  0  0  0  0
   37.2950   31.9640   40.2410 C   0  0  0  0  0  0  0  0  0  0  0  0
   38.5680   31.8190   40.7730 C   0  0  0  0  0  0  0  0  0  0  0  0
   38.8370   30.8340   41.6640 N   0  0  0  0  0  0  0  0  0  0  0  0
   37.8590   29.9610   42.0580 C   0  0  0  0  0  0  0  0  0  0  0  0
   36.6270   30.0860   41.5540 N   0  0  0  0  0  0  0  0  0  0  0  0
   35.3010   31.1100   40.2870 H   0  0  0  0  0  0  0  0  0  0  0  0
   37.0510   32.7340   39.5330 H   0  0  0  0  0  0  0  0  0  0  0  0
   39.3370   32.5110   40.4600 H   0  0  0  0  0  0  0  0  0  0  0  0
  1  2  1  0  0  0  0
  1  3  1  0  0  0  0
  4 11  1  0  0  0  0
  4  1  1  0  0  0  0
  5  4  1  0  0  0  0
  6  8  1  0  0  0  0
  6  5  2  0  0  0  0
  7  6  1  0  0  0  0
  8 10  1  0  0  0  0
  9  8  2  0  0  0  0
 10 13  1  0  0  0  0
 10 11  1  0  0  0  0
 11 12  2  0  0  0  0
 14 19  1  0  0  0  0
 15 14  2  0  0  0  0
 15 16  1  0  0  0  0
 16 17  2  0  0  0  0
 17 18  1  0  0  0  0
 18  1  1  0  0  0  0
 19 18  2  0  0  0  0
 20 14  1  0  0  0  0
 21 15  1  0  0  0  0
 22 16  1  0  0  0  0
M  END
>  <minimizedAffinity>
-4.22339249

$$$$

 OpenBabel03242522343D

 22 23  0  0  0  0  0  0  0  0999 V2000
   37.5700   28.3060   43.5700 C   0  0  0  0  0  0  0  0  0  0  0  0
   36.4570   28.2120   43.5260 H   0  0  0  0  0  0  0  0  0  0  0  0
   37.8120   28.6270   44.5960 H   0  0  0  0  0  0  0  0  0  0  0  0
   37.9980   29.3680   42.6810 N   0  0  0  0  0  0  0  0  0  0  0  0
   39.1770   29.9750   42.9300 C   0  0  0  0  0  3  0  0  0  0  0  0
   39.6050   31.0000   42.0830 C   0  0  0  0  0  0  0  0  0  0  0  0
   40.5360   31.5410   42.2080 H   0  0  0  0  0  0  0  0  0  0  0  0
   38.8030   31.3740   40.9980 C   0  0  0  0  0  0  0  0  0  0  0  0
   39.1380   32.2770   40.2180 O   0  0  0  0  0  0  0  0  0  0  0  0
   37.6650   30.6880   40.8740 N   0  0  0  0  0  0  0  0  0  0  0  0
   37.1930   29.6990   41.6420 C   0  0  0  0  0  0  0  0  0  0  0  0
   36.0970   29.1340   41.4110 O   0  0  0  0  0  0  0  0  0  0  0  0
   37.0580   30.9680   40.0550 H   0  0  0  0  0  0  0  0  0  0  0  0
   39.9390   25.4390   43.3680 C   0  0  0  0  0  0  0  0  0  0  0  0
   39.2180   24.5160   42.5860 C   0  0  0  0  0  0  0  0  0  0  0  0
   37.9590   24.9160   42.1630 C   0  0  0  0  0  0  0  0  0  0  0  0
   37.4710   26.1350   42.5010 N   0  0  0  0  0  0  0  0  0  0  0  0
   38.2110   26.9970   43.2650 C   0  0  0  0  0  0  0  0  0  0  0  0
   39.4260   26.6270   43.6790 N   0  0  0  0  0  0  0  0  0  0  0  0
   40.9410   25.1730   43.7290 H   0  0  0  0  0  0  0  0  0  0  0  0
   39.6330   23.5570   42.3350 H   0  0  0  0  0  0  0  0  0  0  0  0
   37.3780   24.2320   41.5610 H   0  0  0  0  0  0  0  0  0  0  0  0
  1  3  1  0  0  0  0
  2  1  1  0  0  0  0
  4  5  1  0  0  0  0
  4  1  1  0  0  0  0
  6  7  1  0  0  0  0
  6  5  2  0  0  0  0
  8  6  1  0  0  0  0
  9  8  2  0  0  0  0
 10  8  1  0  0  0  0
 10 11  1  0  0  0  0
 11  4  1  0  0  0  0
 12 11  2  0  0  0  0
 13 10  1  0  0  0  0
 14 19  1  0  0  0  0
 14 20  1  0  0  0  0
 15 14  2  0  0  0  0
 16 17  2  0  0  0  0
 16 15  1  0  0  0  0
 17 18  1  0  0  0  0
 18  1  1  0  0  0  0
 18 19  2  0  0  0  0
 21 15  1  0  0  0  0
 22 16  1  0  0  0  0
M  END
>  <minimizedAffinity>
-4.15767097

$$$$

 OpenBabel03242522343D

 22 23  0  0  0  0  0  0  0  0999 V2000
   37.7770   28.8150   43.3720 C   0  0  0  0  0  0  0  0  0  0  0  0
   38.5300   29.1270   44.1370 H   0  0  0  0  0  0  0  0  0  0  0  0
   36.8040   28.7860   43.8910 H   0  0  0  0  0  0  0  0  0  0  0  0
   38.0660   27.4630   42.9360 N   0  0  0  0  0  0  0  0  0  0  0  0
   37.0510   26.7130   42.4590 C   0  0  0  0  0  3  0  0  0  0  0  0
   37.3120   25.4080   42.0340 C   0  0  0  0  0  0  0  0  0  0  0  0
   36.5590   24.7370   41.6380 H   0  0  0  0  0  0  0  0  0  0  0  0
   38.6180   24.9090   42.1130 C   0  0  0  0  0  0  0  0  0  0  0  0
   38.9010   23.7590   41.7490 O   0  0  0  0  0  0  0  0  0  0  0  0
   39.5200   25.7620   42.6040 N   0  0  0  0  0  0  0  0  0  0  0  0
   39.3430   27.0180   43.0280 C   0  0  0  0  0  0  0  0  0  0  0  0
   40.2860   27.7160   43.4720 O   0  0  0  0  0  0  0  0  0  0  0  0
   40.5060   25.3860   42.6640 H   0  0  0  0  0  0  0  0  0  0  0  0
   38.7120   31.2770   40.7380 C   0  0  0  0  0  0  0  0  0  0  0  0
   37.4620   31.5830   40.1650 C   0  0  0  0  0  0  0  0  0  0  0  0
   36.3600   30.9360   40.7050 C   0  0  0  0  0  0  0  0  0  0  0  0
   36.5060   30.0590   41.7280 N   0  0  0  0  0  0  0  0  0  0  0  0
   37.7440   29.7940   42.2510 C   0  0  0  0  0  0  0  0  0  0  0  0
   38.8150   30.4100   41.7430 N   0  0  0  0  0  0  0  0  0  0  0  0
   39.6170   31.7610   40.3490 H   0  0  0  0  0  0  0  0  0  0  0  0
   37.3790   32.2830   39.3540 H   0  0  0  0  0  0  0  0  0  0  0  0
   35.3860   31.1480   40.2890 H   0  0  0  0  0  0  0  0  0  0  0  0
  1  3  1  0  0  0  0
  1  2  1  0  0  0  0
  4 11  1  0  0  0  0
  4  1  1  0  0  0  0
  5  4  1  0  0  0  0
  6  8  1  0  0  0  0
  6  5  2  0  0  0  0
  7  6  1  0  0  0  0
  8 10  1  0  0  0  0
  9  8  2  0  0  0  0
 10 13  1  0  0  0  0
 10 11  1  0  0  0  0
 11 12  2  0  0  0  0
 14 19  1  0  0  0  0
 15 16  1  0  0  0  0
 15 14  2  0  0  0  0
 16 17  2  0  0  0  0
 17 18  1  0  0  0  0
 18  1  1  0  0  0  0
 19 18  2  0  0  0  0
 20 14  1  0  0  0  0
 21 15  1  0  0  0  0
 22 16  1  0  0  0  0
M  END
>  <minimizedAffinity>
-4.14770365

$$$$

 OpenBabel03242522343D

 22 23  0  0  0  0  0  0  0  0999 V2000
   36.5760   27.7760   42.5840 C   0  0  0  0  0  0  0  0  0  0  0  0
   36.3370   28.3320   43.5240 H   0  0  0  0  0  0  0  0  0  0  0  0
   35.7820   27.0210   42.4610 H   0  0  0  0  0  0  0  0  0  0  0  0
   37.8230   27.0570   42.7540 N   0  0  0  0  0  0  0  0  0  0  0  0
   38.8600   27.7010   43.3310 C   0  0  0  0  0  3  0  0  0  0  0  0
   40.0690   27.0220   43.5040 C   0  0  0  0  0  0  0  0  0  0  0  0
   40.9510   27.4600   43.9560 H   0  0  0  0  0  0  0  0  0  0  0  0
   40.1770   25.6940   43.0750 C   0  0  0  0  0  0  0  0  0  0  0  0
   41.2270   25.0490   43.2060 O   0  0  0  0  0  0  0  0  0  0  0  0
   39.0730   25.1860   42.5240 N   0  0  0  0  0  0  0  0  0  0  0  0
   37.8870   25.7730   42.3280 C   0  0  0  0  0  0  0  0  0  0  0  0
   36.9230   25.1750   41.7920 O   0  0  0  0  0  0  0  0  0  0  0  0
   39.1540   24.1830   42.2000 H   0  0  0  0  0  0  0  0  0  0  0  0
   36.6270   29.2220   39.1510 C   0  0  0  0  0  0  0  0  0  0  0  0
   36.6290   30.6050   39.4150 C   0  0  0  0  0  0  0  0  0  0  0  0
   36.6140   30.9790   40.7510 C   0  0  0  0  0  0  0  0  0  0  0  0
   36.5970   30.0430   41.7310 N   0  0  0  0  0  0  0  0  0  0  0  0
   36.5950   28.7090   41.4230 C   0  0  0  0  0  0  0  0  0  0  0  0
   36.6100   28.3320   40.1410 N   0  0  0  0  0  0  0  0  0  0  0  0
   36.6390   28.8710   38.1110 H   0  0  0  0  0  0  0  0  0  0  0  0
   36.6430   31.3230   38.6160 H   0  0  0  0  0  0  0  0  0  0  0  0
   36.6140   32.0330   40.9890 H   0  0  0  0  0  0  0  0  0  0  0  0
  1  4  1  0  0  0  0
  1  2  1  0  0  0  0
  3  1  1  0  0  0  0
  4  5  1  0  0  0  0
  5  6  2  0  0  0  0
  6  7  1  0  0  0  0
  8  9  2  0  0  0  0
  8  6  1  0  0  0  0
 10  8  1  0  0  0  0
 11 10  1  0  0  0  0
 11  4  1  0  0  0  0
 12 11  2  0  0  0  0
 13 10  1  0  0  0  0
 14 15  2  0  0  0  0
 14 19  1  0  0  0  0
 15 16  1  0  0  0  0
 16 22  1  0  0  0  0
 16 17  2  0  0  0  0
 18 17  1  0  0  0  0
 18  1  1  0  0  0  0
 19 18  2  0  0  0  0
 20 14  1  0  0  0  0
 21 15  1  0  0  0  0
M  END
>  <minimizedAffinity>
-4.07059717

$$$$
