
 OpenBabel03252507463D

 38 40  0  0  0  0  0  0  0  0999 V2000
   47.6210   34.8000   41.0910 C   0  0  0  0  0  0  0  0  0  0  0  0
   47.9700   35.7650   40.7010 H   0  0  0  0  0  0  0  0  0  0  0  0
   46.9750   34.3380   40.3280 H   0  0  0  0  0  0  0  0  0  0  0  0
   48.7940   33.9640   41.4080 C   0  0  0  0  0  0  0  0  0  0  0  0
   48.7840   32.6700   40.9170 C   0  0  0  0  0  0  0  0  0  0  0  0
   49.8330   31.7960   41.1530 C   0  0  0  0  0  0  0  0  0  0  0  0
   50.8810   32.2870   41.9000 N   0  0  0  0  0  0  0  0  0  0  0  0
   50.8520   33.5520   42.3600 C   0  0  0  0  0  0  0  0  0  0  0  0
   49.8330   34.3700   42.1200 N   0  0  0  0  0  0  0  0  0  0  0  0
   49.8470   30.7920   40.7840 H   0  0  0  0  0  0  0  0  0  0  0  0
   51.6610   33.9720   42.9540 H   0  0  0  0  0  0  0  0  0  0  0  0
   47.3810   32.0680   39.9360 S   0  0  0  0  0  0  0  0  0  0  0  0
   47.7510   34.7140   35.8490 H   0  0  0  0  0  0  0  0  0  0  0  0
   47.9460   33.7920   36.3030 N   0  0  0  0  0  0  0  0  0  0  0  0
   47.5640   33.6790   37.5740 C   0  0  0  0  0  3  0  0  0  0  0  0
   47.7870   32.5000   38.2340 C   0  0  0  0  0  0  0  0  0  0  0  0
   48.4040   31.4410   37.5750 C   0  0  0  0  0  0  0  0  0  0  0  0
   48.6690   30.2960   38.0700 O   0  0  0  0  0  0  0  0  0  0  0  0
   48.7830   31.5860   36.2780 N   0  0  0  0  0  0  0  0  0  0  0  0
   48.5490   32.7640   35.6540 C   0  0  0  0  0  0  0  0  0  0  0  0
   48.8750   32.9590   34.4600 O   0  0  0  0  0  0  0  0  0  0  0  0
   49.2510   30.8100   35.7490 H   0  0  0  0  0  0  0  0  0  0  0  0
   46.7420   35.0580   42.2880 C   0  0  0  0  0  0  0  0  0  0  0  0
   47.0600   34.4120   43.1300 H   0  0  0  0  0  0  0  0  0  0  0  0
   46.9270   36.1110   42.6250 H   0  0  0  0  0  0  0  0  0  0  0  0
   45.2900   34.9890   41.9930 C   0  0  0  0  0  0  0  0  0  0  0  0
   44.3620   35.6380   42.8700 C   0  0  0  0  0  0  0  0  0  0  0  0
   42.7410   35.2740   42.0970 S   0  0  0  0  0  0  0  0  0  0  0  0
   43.5920   34.2980   40.7060 C   0  0  0  0  0  0  0  0  0  0  0  0
   44.6920   34.3960   41.0000 N   0  0  0  0  0  0  0  0  0  0  0  0
   44.5880   36.2000   43.7630 H   0  0  0  0  0  0  0  0  0  0  0  0
   42.8930   33.6870   39.6760 O   0  0  0  0  0  0  0  0  0  0  0  0
   40.9600   33.8500   37.8710 O   0  0  0  0  0  0  0  0  0  0  0  0
   41.9590   34.6920   38.6620 P   0  0  0  0  0  0  0  0  0  0  0  0
   41.1070   35.7670   39.6480 O   0  0  0  0  0  0  0  0  0  0  0  0
   40.5880   36.3860   39.0740 H   0  0  0  0  0  0  0  0  0  0  0  0
   42.9690   35.5590   37.6200 O   0  0  0  0  0  0  0  0  0  0  0  0
   43.1140   35.0780   36.7840 H   0  0  0  0  0  0  0  0  0  0  0  0
  1  4  1  0  0  0  0
  1 23  1  0  0  0  0
  2  1  1  0  0  0  0
  3  1  1  0  0  0  0
  4  9  1  0  0  0  0
  5  6  1  0  0  0  0
  5  4  2  0  0  0  0
  6  7  2  0  0  0  0
  7  8  1  0  0  0  0
  8 11  1  0  0  0  0
  9  8  2  0  0  0  0
 10  6  1  0  0  0  0
 12  5  1  0  0  0  0
 13 14  1  0  0  0  0
 14 15  1  0  0  0  0
 15 16  2  0  0  0  0
 16 12  1  0  0  0  0
 17 18  2  0  0  0  0
 17 16  1  0  0  0  0
 19 17  1  0  0  0  0
 20 19  1  0  0  0  0
 20 14  1  0  0  0  0
 21 20  2  0  0  0  0
 22 19  1  0  0  0  0
 23 25  1  0  0  0  0
 23 24  1  0  0  0  0
 26 23  1  0  0  0  0
 26 27  2  0  0  0  0
 27 31  1  0  0  0  0
 28 27  1  0  0  0  0
 29 30  2  0  0  0  0
 29 28  1  0  0  0  0
 30 26  1  0  0  0  0
 32 29  1  0  0  0  0
 33 34  2  0  0  0  0
 34 35  1  0  0  0  0
 34 32  1  0  0  0  0
 36 35  1  0  0  0  0
 37 34  1  0  0  0  0
 38 37  1  0  0  0  0
M  END
>  <minimizedAffinity>
-5.38186312

>  <minimizedRMSD>
0.632099986

$$$$
