
 OpenBabel03242519473D

 39 41  0  0  1  0  0  0  0  0999 V2000
   46.6150   32.6680   46.6220 C   0  0  2  0  0  0  0  0  0  0  0  0
   47.1240   32.6940   45.2360 C   0  0  1  0  0  0  0  0  0  0  0  0
   46.8040   31.3550   44.7200 O   0  0  0  0  0  0  0  0  0  0  0  0
   47.4600   30.6550   45.7690 C   0  0  0  0  0  0  0  0  0  0  0  0
   46.6430   31.1890   46.9780 C   0  0  2  0  0  0  0  0  0  0  0  0
   47.2030   33.2780   47.3090 H   0  0  0  0  0  0  0  0  0  0  0  0
   48.2530   32.7370   45.2490 H   0  0  0  0  0  0  0  0  0  0  0  0
   47.4870   29.5990   45.6810 H   0  0  0  0  0  0  0  0  0  0  0  0
   48.4980   31.0930   45.8890 H   0  0  0  0  0  0  0  0  0  0  0  0
   47.2040   30.9380   47.8910 H   0  0  0  0  0  0  0  0  0  0  0  0
   44.7670   35.2100   44.0760 C   0  0  0  0  0  0  0  0  0  0  0  0
   45.3410   35.6790   42.8840 C   0  0  0  0  0  0  0  0  0  0  0  0
   46.5570   35.1240   42.4530 C   0  0  0  0  0  0  0  0  0  0  0  0
   47.1280   34.1480   43.2190 N   0  0  0  0  0  0  0  0  0  0  0  0
   46.5530   33.7170   44.3620 C   0  0  0  0  0  0  0  0  0  0  0  0
   45.3760   34.2380   44.7970 N   0  0  0  0  0  0  0  0  0  0  0  0
   44.8570   36.4470   42.3160 H   0  0  0  0  0  0  0  0  0  0  0  0
   47.0370   35.4530   41.5430 H   0  0  0  0  0  0  0  0  0  0  0  0
   43.5640   35.7380   44.5370 O   0  0  0  0  0  0  0  0  0  0  0  0
   43.6240   36.6940   44.8950 H   0  0  0  0  0  0  0  0  0  0  0  0
   45.2390   33.0890   46.6320 O   0  0  0  0  0  0  0  0  0  0  0  0
   44.6920   32.3420   46.2810 H   0  0  0  0  0  0  0  0  0  0  0  0
   45.3880   30.6120   46.8860 O   0  0  0  0  0  0  0  0  0  0  0  0
   45.1470   29.6280   47.8180 C   0  0  0  0  0  0  0  0  0  0  0  0
   45.2920   29.9470   48.8460 H   0  0  0  0  0  0  0  0  0  0  0  0
   43.9490   29.5960   47.7840 H   0  0  0  0  0  0  0  0  0  0  0  0
   45.4970   28.2520   47.4080 C   0  0  0  0  0  0  0  0  0  0  0  0
   46.0060   28.1870   46.4190 H   0  0  0  0  0  0  0  0  0  0  0  0
   46.2360   27.8580   48.1400 H   0  0  0  0  0  0  0  0  0  0  0  0
   44.3600   27.3620   47.3020 N   0  0  0  0  0  0  0  0  0  0  0  0
   43.6190   27.6590   46.1860 C   0  0  0  0  0  3  0  0  0  0  0  0
   42.4760   26.9940   45.7840 C   0  0  0  0  0  0  0  0  0  0  0  0
   41.9020   27.2380   44.9030 H   0  0  0  0  0  0  0  0  0  0  0  0
   42.0170   25.9420   46.5440 C   0  0  0  0  0  0  0  0  0  0  0  0
   41.0100   25.2360   46.3310 O   0  0  0  0  0  0  0  0  0  0  0  0
   42.7460   25.6640   47.6270 N   0  0  0  0  0  0  0  0  0  0  0  0
   43.8390   26.3380   47.9660 C   0  0  0  0  0  0  0  0  0  0  0  0
   44.4980   26.0490   48.9900 O   0  0  0  0  0  0  0  0  0  0  0  0
   42.4890   24.8870   48.2730 H   0  0  0  0  0  0  0  0  0  0  0  0
  1 21  1  0  0  0  0
  1  5  1  0  0  0  0
  1  6  1  1  0  0  0
  2  7  1  1  0  0  0
  2  1  1  0  0  0  0
  3  2  1  0  0  0  0
  3  4  1  0  0  0  0
  4  9  1  0  0  0  0
  4  5  1  0  0  0  0
  5 10  1  1  0  0  0
  8  4  1  0  0  0  0
 11 19  1  0  0  0  0
 11 16  1  0  0  0  0
 12 11  2  0  0  0  0
 13 12  1  0  0  0  0
 13 14  2  0  0  0  0
 14 15  1  0  0  0  0
 15 16  2  0  0  0  0
 15  2  1  0  0  0  0
 17 12  1  0  0  0  0
 18 13  1  0  0  0  0
 19 20  1  0  0  0  0
 22 21  1  0  0  0  0
 23  5  1  0  0  0  0
 23 24  1  0  0  0  0
 24 25  1  0  0  0  0
 26 24  1  0  0  0  0
 27 24  1  0  0  0  0
 27 29  1  0  0  0  0
 28 27  1  0  0  0  0
 30 27  1  0  0  0  0
 30 37  1  0  0  0  0
 31 30  1  0  0  0  0
 32 31  2  0  0  0  0
 32 34  1  0  0  0  0
 33 32  1  0  0  0  0
 34 36  1  0  0  0  0
 35 34  2  0  0  0  0
 36 37  1  0  0  0  0
 36 39  1  0  0  0  0
 37 38  2  0  0  0  0
M  END
>  <minimizedAffinity>
-5.7179141

>  <minimizedRMSD>
1.31176138

$$$$
