
 OpenBabel03242523483D

 20 21  0  0  0  0  0  0  0  0999 V2000
   39.7830   32.2830   38.2850 C   0  0  0  0  0  0  0  0  0  0  0  0
   39.1120   31.2170   38.9390 C   0  0  0  0  0  0  0  0  0  0  0  0
   39.0990   31.2450   40.3370 C   0  0  0  0  0  0  0  0  0  0  0  0
   39.7080   32.2580   40.9840 N   0  0  0  0  0  0  0  0  0  0  0  0
   40.3350   33.2530   40.3160 C   0  0  0  0  0  0  0  0  0  0  0  0
   40.3690   33.2610   38.9810 N   0  0  0  0  0  0  0  0  0  0  0  0
   38.6460   30.4390   38.3950 H   0  0  0  0  0  0  0  0  0  0  0  0
   40.8000   34.0290   40.8920 H   0  0  0  0  0  0  0  0  0  0  0  0
   38.4520   30.2220   41.0870 N   0  0  0  0  0  0  0  0  0  0  0  0
   39.0910   29.1340   41.5440 C   0  0  0  0  0  3  0  0  0  0  0  0
   38.4100   28.1760   42.2660 C   0  0  0  0  0  0  0  0  0  0  0  0
   38.8920   27.2690   42.6620 H   0  0  0  0  0  0  0  0  0  0  0  0
   37.0450   28.2830   42.5550 C   0  0  0  0  0  0  0  0  0  0  0  0
   36.4040   27.4230   43.2100 O   0  0  0  0  0  0  0  0  0  0  0  0
   36.4770   29.4040   42.0600 N   0  0  0  0  0  0  0  0  0  0  0  0
   37.1370   30.3430   41.3540 C   0  0  0  0  0  0  0  0  0  0  0  0
   36.5290   31.3760   40.9190 O   0  0  0  0  0  0  0  0  0  0  0  0
   35.4430   29.5320   42.2520 H   0  0  0  0  0  0  0  0  0  0  0  0
   39.7950   32.2520   36.9160 O   0  0  0  0  0  0  0  0  0  0  0  0
   38.8780   32.2500   36.4490 H   0  0  0  0  0  0  0  0  0  0  0  0
  1  2  2  0  0  0  0
  1  6  1  0  0  0  0
  2  3  1  0  0  0  0
  3  4  2  0  0  0  0
  3  9  1  0  0  0  0
  5  8  1  0  0  0  0
  5  4  1  0  0  0  0
  6  5  2  0  0  0  0
  7  2  1  0  0  0  0
  9 16  1  0  0  0  0
  9 10  1  0  0  0  0
 10 11  2  0  0  0  0
 11 13  1  0  0  0  0
 11 12  1  0  0  0  0
 13 14  2  0  0  0  0
 15 18  1  0  0  0  0
 15 13  1  0  0  0  0
 16 15  1  0  0  0  0
 17 16  2  0  0  0  0
 19  1  1  0  0  0  0
 20 19  1  0  0  0  0
M  END
>  <minimizedAffinity>
-4.84396219

$$$$

 OpenBabel03242523483D

 20 21  0  0  0  0  0  0  0  0999 V2000
   38.6760   24.4310   42.2970 C   0  0  0  0  0  0  0  0  0  0  0  0
   38.1180   25.6350   41.7950 C   0  0  0  0  0  0  0  0  0  0  0  0
   38.6360   26.8300   42.3050 C   0  0  0  0  0  0  0  0  0  0  0  0
   39.6170   26.7850   43.2270 N   0  0  0  0  0  0  0  0  0  0  0  0
   40.1180   25.6120   43.6760 C   0  0  0  0  0  0  0  0  0  0  0  0
   39.6490   24.4500   43.2130 N   0  0  0  0  0  0  0  0  0  0  0  0
   37.3490   25.6290   41.0700 H   0  0  0  0  0  0  0  0  0  0  0  0
   40.8980   25.6470   44.4110 H   0  0  0  0  0  0  0  0  0  0  0  0
   38.1440   28.0910   41.8640 N   0  0  0  0  0  0  0  0  0  0  0  0
   38.5620   28.6860   40.7350 C   0  0  0  0  0  3  0  0  0  0  0  0
   38.0480   29.9090   40.3600 C   0  0  0  0  0  0  0  0  0  0  0  0
   38.3590   30.4350   39.4440 H   0  0  0  0  0  0  0  0  0  0  0  0
   37.0840   30.5840   41.1180 C   0  0  0  0  0  0  0  0  0  0  0  0
   36.6020   31.6990   40.7960 O   0  0  0  0  0  0  0  0  0  0  0  0
   36.7180   29.9190   42.2360 N   0  0  0  0  0  0  0  0  0  0  0  0
   37.2160   28.7250   42.6080 C   0  0  0  0  0  0  0  0  0  0  0  0
   36.8200   28.1600   43.6800 O   0  0  0  0  0  0  0  0  0  0  0  0
   35.9900   30.3890   42.8440 H   0  0  0  0  0  0  0  0  0  0  0  0
   38.1670   23.2620   41.7970 O   0  0  0  0  0  0  0  0  0  0  0  0
   38.2390   23.1290   40.7790 H   0  0  0  0  0  0  0  0  0  0  0  0
  1  6  1  0  0  0  0
  2  1  2  0  0  0  0
  2  3  1  0  0  0  0
  3  4  2  0  0  0  0
  4  5  1  0  0  0  0
  5  8  1  0  0  0  0
  6  5  2  0  0  0  0
  7  2  1  0  0  0  0
  9  3  1  0  0  0  0
  9 16  1  0  0  0  0
 10  9  1  0  0  0  0
 11 10  2  0  0  0  0
 11 13  1  0  0  0  0
 12 11  1  0  0  0  0
 13 15  1  0  0  0  0
 14 13  2  0  0  0  0
 15 16  1  0  0  0  0
 15 18  1  0  0  0  0
 16 17  2  0  0  0  0
 19  1  1  0  0  0  0
 20 19  1  0  0  0  0
M  END
>  <minimizedAffinity>
-4.79019022

$$$$

 OpenBabel03242523483D

 20 21  0  0  0  0  0  0  0  0999 V2000
   42.2780   33.6970   37.8760 C   0  0  0  0  0  0  0  0  0  0  0  0
   40.9950   33.1280   38.0850 C   0  0  0  0  0  0  0  0  0  0  0  0
   40.6880   32.7290   39.3900 C   0  0  0  0  0  0  0  0  0  0  0  0
   41.6030   32.9010   40.3660 N   0  0  0  0  0  0  0  0  0  0  0  0
   42.8130   33.4490   40.1170 C   0  0  0  0  0  0  0  0  0  0  0  0
   43.1430   33.8410   38.8840 N   0  0  0  0  0  0  0  0  0  0  0  0
   40.3050   33.0100   37.2930 H   0  0  0  0  0  0  0  0  0  0  0  0
   43.4940   33.5560   40.9390 H   0  0  0  0  0  0  0  0  0  0  0  0
   39.4270   32.1480   39.7040 N   0  0  0  0  0  0  0  0  0  0  0  0
   39.1490   30.8500   39.5010 C   0  0  0  0  0  3  0  0  0  0  0  0
   37.9080   30.3440   39.8250 C   0  0  0  0  0  0  0  0  0  0  0  0
   37.6330   29.2880   39.6770 H   0  0  0  0  0  0  0  0  0  0  0  0
   36.8920   31.1370   40.3730 C   0  0  0  0  0  0  0  0  0  0  0  0
   35.7550   30.6980   40.6760 O   0  0  0  0  0  0  0  0  0  0  0  0
   37.2530   32.4270   40.5450 N   0  0  0  0  0  0  0  0  0  0  0  0
   38.4630   32.9280   40.2300 C   0  0  0  0  0  0  0  0  0  0  0  0
   38.7280   34.1600   40.4230 O   0  0  0  0  0  0  0  0  0  0  0  0
   36.5190   33.0700   40.9580 H   0  0  0  0  0  0  0  0  0  0  0  0
   42.5760   34.0860   36.5970 O   0  0  0  0  0  0  0  0  0  0  0  0
   41.9530   34.7860   36.1730 H   0  0  0  0  0  0  0  0  0  0  0  0
  1  2  2  0  0  0  0
  1  6  1  0  0  0  0
  2  3  1  0  0  0  0
  3  9  1  0  0  0  0
  3  4  2  0  0  0  0
  5  4  1  0  0  0  0
  5  8  1  0  0  0  0
  6  5  2  0  0  0  0
  7  2  1  0  0  0  0
  9 16  1  0  0  0  0
 10  9  1  0  0  0  0
 10 11  2  0  0  0  0
 11 13  1  0  0  0  0
 12 11  1  0  0  0  0
 13 15  1  0  0  0  0
 13 14  2  0  0  0  0
 15 18  1  0  0  0  0
 16 17  2  0  0  0  0
 16 15  1  0  0  0  0
 19  1  1  0  0  0  0
 20 19  1  0  0  0  0
M  END
>  <minimizedAffinity>
-4.78511667

$$$$

 OpenBabel03242523483D

 20 21  0  0  0  0  0  0  0  0999 V2000
   37.5010   26.5820   41.3120 C   0  0  0  0  0  0  0  0  0  0  0  0
   37.7390   27.8880   40.8100 C   0  0  0  0  0  0  0  0  0  0  0  0
   37.5140   28.9510   41.6900 C   0  0  0  0  0  0  0  0  0  0  0  0
   37.0900   28.6940   42.9440 N   0  0  0  0  0  0  0  0  0  0  0  0
   36.8770   27.4310   43.3760 C   0  0  0  0  0  0  0  0  0  0  0  0
   37.0810   26.3900   42.5660 N   0  0  0  0  0  0  0  0  0  0  0  0
   38.0710   28.0480   39.8200 H   0  0  0  0  0  0  0  0  0  0  0  0
   36.5400   27.2970   44.3860 H   0  0  0  0  0  0  0  0  0  0  0  0
   37.7250   30.2990   41.2830 N   0  0  0  0  0  0  0  0  0  0  0  0
   38.9230   30.9020   41.3430 C   0  0  0  0  0  3  0  0  0  0  0  0
   39.0660   32.2110   40.9340 C   0  0  0  0  0  0  0  0  0  0  0  0
   40.0270   32.7470   40.9640 H   0  0  0  0  0  0  0  0  0  0  0  0
   37.9940   32.9670   40.4450 C   0  0  0  0  0  0  0  0  0  0  0  0
   38.1010   34.1610   40.0670 O   0  0  0  0  0  0  0  0  0  0  0  0
   36.8270   32.2880   40.4170 N   0  0  0  0  0  0  0  0  0  0  0  0
   36.6810   31.0100   40.8150 C   0  0  0  0  0  0  0  0  0  0  0  0
   35.5430   30.4370   40.7590 O   0  0  0  0  0  0  0  0  0  0  0  0
   35.9840   32.8170   40.0550 H   0  0  0  0  0  0  0  0  0  0  0  0
   37.7220   25.5420   40.4480 O   0  0  0  0  0  0  0  0  0  0  0  0
   38.6720   25.4590   40.0640 H   0  0  0  0  0  0  0  0  0  0  0  0
  1  6  1  0  0  0  0
  2  1  2  0  0  0  0
  2  3  1  0  0  0  0
  3  4  2  0  0  0  0
  4  5  1  0  0  0  0
  5  8  1  0  0  0  0
  6  5  2  0  0  0  0
  7  2  1  0  0  0  0
  9 10  1  0  0  0  0
  9  3  1  0  0  0  0
 11 12  1  0  0  0  0
 11 10  2  0  0  0  0
 13 11  1  0  0  0  0
 14 13  2  0  0  0  0
 15 13  1  0  0  0  0
 15 16  1  0  0  0  0
 16  9  1  0  0  0  0
 17 16  2  0  0  0  0
 18 15  1  0  0  0  0
 19  1  1  0  0  0  0
 20 19  1  0  0  0  0
M  END
>  <minimizedAffinity>
-4.72379065

$$$$

 OpenBabel03242523483D

 20 21  0  0  0  0  0  0  0  0999 V2000
   37.7080   32.9550   40.2280 C   0  0  0  0  0  0  0  0  0  0  0  0
   37.2660   31.6510   40.5710 C   0  0  0  0  0  0  0  0  0  0  0  0
   38.2150   30.7910   41.1320 C   0  0  0  0  0  0  0  0  0  0  0  0
   39.4770   31.2300   41.3180 N   0  0  0  0  0  0  0  0  0  0  0  0
   39.8500   32.4830   40.9760 C   0  0  0  0  0  0  0  0  0  0  0  0
   38.9730   33.3330   40.4370 N   0  0  0  0  0  0  0  0  0  0  0  0
   36.2680   31.3440   40.4090 H   0  0  0  0  0  0  0  0  0  0  0  0
   40.8700   32.7690   41.1500 H   0  0  0  0  0  0  0  0  0  0  0  0
   37.8720   29.4630   41.5110 N   0  0  0  0  0  0  0  0  0  0  0  0
   37.4120   29.1460   42.7320 C   0  0  0  0  0  3  0  0  0  0  0  0
   37.0950   27.8400   43.0410 C   0  0  0  0  0  0  0  0  0  0  0  0
   36.7150   27.5320   44.0270 H   0  0  0  0  0  0  0  0  0  0  0  0
   37.2330   26.7950   42.1190 C   0  0  0  0  0  0  0  0  0  0  0  0
   36.9510   25.5990   42.3780 O   0  0  0  0  0  0  0  0  0  0  0  0
   37.7000   27.1980   40.9170 N   0  0  0  0  0  0  0  0  0  0  0  0
   38.0110   28.4710   40.6100 C   0  0  0  0  0  0  0  0  0  0  0  0
   38.4480   28.7730   39.4500 O   0  0  0  0  0  0  0  0  0  0  0  0
   37.8220   26.4430   40.1840 H   0  0  0  0  0  0  0  0  0  0  0  0
   36.7760   33.7940   39.6780 O   0  0  0  0  0  0  0  0  0  0  0  0
   35.9410   33.9880   40.2460 H   0  0  0  0  0  0  0  0  0  0  0  0
  1  6  2  0  0  0  0
  1  2  1  0  0  0  0
  2  3  2  0  0  0  0
  3  4  1  0  0  0  0
  3  9  1  0  0  0  0
  5  8  1  0  0  0  0
  5  4  2  0  0  0  0
  6  5  1  0  0  0  0
  7  2  1  0  0  0  0
  9 10  1  0  0  0  0
 10 11  2  0  0  0  0
 11 12  1  0  0  0  0
 13 14  2  0  0  0  0
 13 11  1  0  0  0  0
 15 13  1  0  0  0  0
 16 15  1  0  0  0  0
 16  9  1  0  0  0  0
 17 16  2  0  0  0  0
 18 15  1  0  0  0  0
 19  1  1  0  0  0  0
 19 20  1  0  0  0  0
M  END
>  <minimizedAffinity>
-4.68117523

$$$$

 OpenBabel03242523483D

 20 21  0  0  0  0  0  0  0  0999 V2000
   36.8340   30.7230   41.1280 C   0  0  0  0  0  0  0  0  0  0  0  0
   37.1340   29.4460   41.6720 C   0  0  0  0  0  0  0  0  0  0  0  0
   38.4370   28.9740   41.4890 C   0  0  0  0  0  0  0  0  0  0  0  0
   39.3280   29.7340   40.8210 N   0  0  0  0  0  0  0  0  0  0  0  0
   38.9950   30.9450   40.3210 C   0  0  0  0  0  0  0  0  0  0  0  0
   37.7610   31.4300   40.4740 N   0  0  0  0  0  0  0  0  0  0  0  0
   36.4070   28.8810   42.1900 H   0  0  0  0  0  0  0  0  0  0  0  0
   39.7520   31.4980   39.7990 H   0  0  0  0  0  0  0  0  0  0  0  0
   38.8380   27.7070   41.9980 N   0  0  0  0  0  0  0  0  0  0  0  0
   39.3120   27.5340   43.2420 C   0  0  0  0  0  3  0  0  0  0  0  0
   39.6850   26.2800   43.6790 C   0  0  0  0  0  0  0  0  0  0  0  0
   40.0780   26.0900   44.6890 H   0  0  0  0  0  0  0  0  0  0  0  0
   39.5920   25.1430   42.8680 C   0  0  0  0  0  0  0  0  0  0  0  0
   39.9250   23.9920   43.2440 O   0  0  0  0  0  0  0  0  0  0  0  0
   39.1060   25.4030   41.6340 N   0  0  0  0  0  0  0  0  0  0  0  0
   38.7410   26.6240   41.2020 C   0  0  0  0  0  0  0  0  0  0  0  0
   38.2910   26.7890   40.0200 O   0  0  0  0  0  0  0  0  0  0  0  0
   39.0160   24.5740   40.9810 H   0  0  0  0  0  0  0  0  0  0  0  0
   35.5560   31.1820   41.3070 O   0  0  0  0  0  0  0  0  0  0  0  0
   35.2360   31.2780   42.2800 H   0  0  0  0  0  0  0  0  0  0  0  0
  1 19  1  0  0  0  0
  1  2  1  0  0  0  0
  2  7  1  0  0  0  0
  3  2  2  0  0  0  0
  3  9  1  0  0  0  0
  4  3  1  0  0  0  0
  5  6  1  0  0  0  0
  5  4  2  0  0  0  0
  6  1  2  0  0  0  0
  8  5  1  0  0  0  0
  9 10  1  0  0  0  0
 10 11  2  0  0  0  0
 11 12  1  0  0  0  0
 13 14  2  0  0  0  0
 13 11  1  0  0  0  0
 15 13  1  0  0  0  0
 16 15  1  0  0  0  0
 16  9  1  0  0  0  0
 17 16  2  0  0  0  0
 18 15  1  0  0  0  0
 19 20  1  0  0  0  0
M  END
>  <minimizedAffinity>
-4.58096838

$$$$

 OpenBabel03242523483D

 20 21  0  0  0  0  0  0  0  0999 V2000
   36.2480   30.3440   40.5290 C   0  0  0  0  0  0  0  0  0  0  0  0
   37.3820   31.0650   40.0700 C   0  0  0  0  0  0  0  0  0  0  0  0
   38.1750   30.4420   39.1020 C   0  0  0  0  0  0  0  0  0  0  0  0
   37.8350   29.2150   38.6580 N   0  0  0  0  0  0  0  0  0  0  0  0
   36.7450   28.5670   39.1250 C   0  0  0  0  0  0  0  0  0  0  0  0
   35.9630   29.1290   40.0510 N   0  0  0  0  0  0  0  0  0  0  0  0
   37.6150   32.0260   40.4430 H   0  0  0  0  0  0  0  0  0  0  0  0
   36.5310   27.5930   38.7300 H   0  0  0  0  0  0  0  0  0  0  0  0
   39.3330   31.0820   38.5770 N   0  0  0  0  0  0  0  0  0  0  0  0
   40.5510   30.9580   39.1270 C   0  0  0  0  0  3  0  0  0  0  0  0
   41.6360   31.6030   38.5720 C   0  0  0  0  0  0  0  0  0  0  0  0
   42.6530   31.5300   38.9870 H   0  0  0  0  0  0  0  0  0  0  0  0
   41.5310   32.4050   37.4300 C   0  0  0  0  0  0  0  0  0  0  0  0
   42.5050   33.0010   36.9080 O   0  0  0  0  0  0  0  0  0  0  0  0
   40.2740   32.4770   36.9400 N   0  0  0  0  0  0  0  0  0  0  0  0
   39.2110   31.8500   37.4770 C   0  0  0  0  0  0  0  0  0  0  0  0
   38.0530   31.9680   36.9540 O   0  0  0  0  0  0  0  0  0  0  0  0
   40.1420   33.0730   36.0740 H   0  0  0  0  0  0  0  0  0  0  0  0
   35.4740   30.9560   41.4780 O   0  0  0  0  0  0  0  0  0  0  0  0
   35.0670   31.8650   41.2210 H   0  0  0  0  0  0  0  0  0  0  0  0
  1 19  1  0  0  0  0
  2  7  1  0  0  0  0
  2  1  1  0  0  0  0
  3  2  2  0  0  0  0
  4  3  1  0  0  0  0
  4  5  2  0  0  0  0
  5  6  1  0  0  0  0
  6  1  2  0  0  0  0
  8  5  1  0  0  0  0
  9  3  1  0  0  0  0
  9 10  1  0  0  0  0
 11 12  1  0  0  0  0
 11 10  2  0  0  0  0
 13 11  1  0  0  0  0
 14 13  2  0  0  0  0
 15 13  1  0  0  0  0
 15 16  1  0  0  0  0
 16  9  1  0  0  0  0
 17 16  2  0  0  0  0
 18 15  1  0  0  0  0
 20 19  1  0  0  0  0
M  END
>  <minimizedAffinity>
-4.56224394

$$$$

 OpenBabel03242523483D

 20 21  0  0  0  0  0  0  0  0999 V2000
   38.8140   24.2800   42.3200 C   0  0  0  0  0  0  0  0  0  0  0  0
   38.6850   25.6900   42.2220 C   0  0  0  0  0  0  0  0  0  0  0  0
   37.6710   26.1730   41.3890 C   0  0  0  0  0  0  0  0  0  0  0  0
   36.8810   25.3000   40.7330 N   0  0  0  0  0  0  0  0  0  0  0  0
   37.0420   23.9640   40.8580 C   0  0  0  0  0  0  0  0  0  0  0  0
   37.9990   23.4630   41.6440 N   0  0  0  0  0  0  0  0  0  0  0  0
   39.3250   26.3420   42.7530 H   0  0  0  0  0  0  0  0  0  0  0  0
   36.3790   23.3240   40.3080 H   0  0  0  0  0  0  0  0  0  0  0  0
   37.4600   27.5720   41.2250 N   0  0  0  0  0  0  0  0  0  0  0  0
   37.9700   28.2730   40.2000 C   0  0  0  0  0  3  0  0  0  0  0  0
   37.7300   29.6270   40.0940 C   0  0  0  0  0  0  0  0  0  0  0  0
   38.1260   30.2440   39.2720 H   0  0  0  0  0  0  0  0  0  0  0  0
   36.9590   30.3290   41.0270 C   0  0  0  0  0  0  0  0  0  0  0  0
   36.7270   31.5620   40.9500 O   0  0  0  0  0  0  0  0  0  0  0  0
   36.4830   29.5520   42.0240 N   0  0  0  0  0  0  0  0  0  0  0  0
   36.7140   28.2300   42.1340 C   0  0  0  0  0  0  0  0  0  0  0  0
   36.2300   27.5630   43.1070 O   0  0  0  0  0  0  0  0  0  0  0  0
   35.8930   30.0370   42.7580 H   0  0  0  0  0  0  0  0  0  0  0  0
   39.8080   23.8090   43.1350 O   0  0  0  0  0  0  0  0  0  0  0  0
   39.7650   24.0940   44.1220 H   0  0  0  0  0  0  0  0  0  0  0  0
  1 19  1  0  0  0  0
  2  1  1  0  0  0  0
  2  7  1  0  0  0  0
  3  2  2  0  0  0  0
  4  5  2  0  0  0  0
  4  3  1  0  0  0  0
  5  6  1  0  0  0  0
  6  1  2  0  0  0  0
  8  5  1  0  0  0  0
  9  3  1  0  0  0  0
  9 16  1  0  0  0  0
 10  9  1  0  0  0  0
 11 10  2  0  0  0  0
 11 13  1  0  0  0  0
 12 11  1  0  0  0  0
 13 15  1  0  0  0  0
 14 13  2  0  0  0  0
 15 16  1  0  0  0  0
 15 18  1  0  0  0  0
 16 17  2  0  0  0  0
 19 20  1  0  0  0  0
M  END
>  <minimizedAffinity>
-4.55035782

$$$$

 OpenBabel03242523483D

 20 21  0  0  0  0  0  0  0  0999 V2000
   34.3750   27.9370   37.7040 C   0  0  0  0  0  0  0  0  0  0  0  0
   34.8200   29.2350   38.0640 C   0  0  0  0  0  0  0  0  0  0  0  0
   36.1220   29.3390   38.5630 C   0  0  0  0  0  0  0  0  0  0  0  0
   36.8770   28.2280   38.6750 N   0  0  0  0  0  0  0  0  0  0  0  0
   36.4090   27.0110   38.3180 C   0  0  0  0  0  0  0  0  0  0  0  0
   35.1700   26.8720   37.8390 N   0  0  0  0  0  0  0  0  0  0  0  0
   34.1970   30.0830   37.9610 H   0  0  0  0  0  0  0  0  0  0  0  0
   37.0620   26.1680   38.4340 H   0  0  0  0  0  0  0  0  0  0  0  0
   36.6630   30.5970   38.9510 N   0  0  0  0  0  0  0  0  0  0  0  0
   37.3500   31.3890   38.1130 C   0  0  0  0  0  3  0  0  0  0  0  0
   37.8500   32.5980   38.5470 C   0  0  0  0  0  0  0  0  0  0  0  0
   38.4180   33.2810   37.8970 H   0  0  0  0  0  0  0  0  0  0  0  0
   37.6730   33.0570   39.8580 C   0  0  0  0  0  0  0  0  0  0  0  0
   38.1190   34.1550   40.2750 O   0  0  0  0  0  0  0  0  0  0  0  0
   36.9730   32.2040   40.6350 N   0  0  0  0  0  0  0  0  0  0  0  0
   36.4820   31.0220   40.2170 C   0  0  0  0  0  0  0  0  0  0  0  0
   35.8300   30.2690   41.0130 O   0  0  0  0  0  0  0  0  0  0  0  0
   36.8110   32.5060   41.6380 H   0  0  0  0  0  0  0  0  0  0  0  0
   33.0990   27.8390   37.2160 O   0  0  0  0  0  0  0  0  0  0  0  0
   32.8870   28.3860   36.3710 H   0  0  0  0  0  0  0  0  0  0  0  0
  1  6  2  0  0  0  0
  1  2  1  0  0  0  0
  2  3  2  0  0  0  0
  3  4  1  0  0  0  0
  3  9  1  0  0  0  0
  5  8  1  0  0  0  0
  5  4  2  0  0  0  0
  6  5  1  0  0  0  0
  7  2  1  0  0  0  0
  9 16  1  0  0  0  0
 10 11  2  0  0  0  0
 10  9  1  0  0  0  0
 11 13  1  0  0  0  0
 12 11  1  0  0  0  0
 13 14  2  0  0  0  0
 13 15  1  0  0  0  0
 15 18  1  0  0  0  0
 16 15  1  0  0  0  0
 16 17  2  0  0  0  0
 19  1  1  0  0  0  0
 20 19  1  0  0  0  0
M  END
>  <minimizedAffinity>
-4.26283169

$$$$
