
 OpenBabel03242518383D

 40 43  0  0  1  0  0  0  0  0999 V2000
   43.9060   33.6880   40.8270 O   0  0  0  0  0  0  0  0  0  0  0  0
   43.9700   32.6290   39.8860 C   0  0  0  0  0  0  0  0  0  0  0  0
   43.9070   31.2410   40.0480 C   0  0  0  0  0  0  0  0  0  0  0  0
   44.0200   30.6440   38.8050 C   0  0  0  0  0  0  0  0  0  0  0  0
   44.1460   31.6910   37.9490 C   0  0  0  0  0  0  0  0  0  0  0  0
   44.1170   32.8490   38.5810 O   0  0  0  0  0  0  0  0  0  0  0  0
   43.7870   30.8160   41.0310 H   0  0  0  0  0  0  0  0  0  0  0  0
   44.0020   29.5760   38.6360 H   0  0  0  0  0  0  0  0  0  0  0  0
   44.3010   31.5660   36.4830 C   0  0  2  0  0  0  0  0  0  0  0  0
   44.9750   30.4060   35.8990 C   0  0  0  0  0  0  0  0  0  0  0  0
   45.7770   31.6510   36.0130 C   0  0  1  0  0  0  0  0  0  0  0  0
   43.5840   32.1840   35.9220 H   0  0  0  0  0  0  0  0  0  0  0  0
   45.2350   29.5100   36.5070 H   0  0  0  0  0  0  0  0  0  0  0  0
   44.6080   30.1210   34.8710 H   0  0  0  0  0  0  0  0  0  0  0  0
   46.5340   31.7840   36.7820 H   0  0  0  0  0  0  0  0  0  0  0  0
   47.0010   32.1350   33.9070 C   0  0  0  0  0  0  0  0  0  0  0  0
   47.8910   31.2710   34.1550 O   0  0  0  0  0  0  0  0  0  0  0  0
   45.9280   32.4280   34.7860 N   0  0  0  0  0  0  0  0  0  0  0  0
   47.1400   32.6290   32.9550 H   0  0  0  0  0  0  0  0  0  0  0  0
   45.2510   33.1860   34.5670 H   0  0  0  0  0  0  0  0  0  0  0  0
   45.1270   34.1860   41.3690 C   0  0  0  0  0  0  0  0  0  0  0  0
   46.1120   34.2160   40.6030 O   0  0  0  0  0  0  0  0  0  0  0  0
   45.0720   34.5930   42.7360 C   0  0  0  0  0  0  0  0  0  0  0  0
   44.6770   35.8890   42.9510 C   0  0  0  0  0  0  0  0  0  0  0  0
   44.5980   36.3600   44.2500 C   0  0  0  0  0  0  0  0  0  0  0  0
   44.9150   35.5140   45.2610 N   0  0  0  0  0  0  0  0  0  0  0  0
   45.2980   34.2540   45.0230 C   0  0  0  0  0  0  0  0  0  0  0  0
   45.3670   33.8230   43.7500 N   0  0  0  0  0  0  0  0  0  0  0  0
   44.4080   36.6220   42.2050 H   0  0  0  0  0  0  0  0  0  0  0  0
   44.2910   37.3750   44.4810 H   0  0  0  0  0  0  0  0  0  0  0  0
   45.6210   33.4100   46.1260 N   0  0  0  0  0  0  0  0  0  0  0  0
   44.8950   33.2430   47.2500 C   0  0  0  0  0  3  0  0  0  0  0  0
   45.3260   32.3910   48.2460 C   0  0  0  0  0  0  0  0  0  0  0  0
   44.7150   32.2910   49.1220 H   0  0  0  0  0  0  0  0  0  0  0  0
   46.5210   31.7320   48.0230 C   0  0  0  0  0  0  0  0  0  0  0  0
   46.9300   30.9420   48.9330 O   0  0  0  0  0  0  0  0  0  0  0  0
   47.2360   31.8960   46.9170 N   0  0  0  0  0  0  0  0  0  0  0  0
   46.7840   32.7470   45.9490 C   0  0  0  0  0  0  0  0  0  0  0  0
   47.5360   32.8310   44.9400 O   0  0  0  0  0  0  0  0  0  0  0  0
   48.1360   31.3560   46.8280 H   0  0  0  0  0  0  0  0  0  0  0  0
  1 21  1  0  0  0  0
  2  3  2  0  0  0  0
  2  1  1  0  0  0  0
  3  7  1  0  0  0  0
  4  3  1  0  0  0  0
  5  6  1  0  0  0  0
  5  4  2  0  0  0  0
  6  2  1  0  0  0  0
  8  4  1  0  0  0  0
  9 12  1  6  0  0  0
  9  5  1  0  0  0  0
 10 11  1  0  0  0  0
 10  9  1  0  0  0  0
 10 13  1  0  0  0  0
 11  9  1  0  0  0  0
 11 15  1  1  0  0  0
 14 10  1  0  0  0  0
 16 17  2  0  0  0  0
 16 18  1  0  0  0  0
 18 11  1  0  0  0  0
 19 16  1  0  0  0  0
 20 18  1  0  0  0  0
 21 23  1  0  0  0  0
 22 21  2  0  0  0  0
 23 24  2  0  0  0  0
 23 28  1  0  0  0  0
 24 25  1  0  0  0  0
 25 30  1  0  0  0  0
 25 26  2  0  0  0  0
 27 26  1  0  0  0  0
 27 31  1  0  0  0  0
 28 27  2  0  0  0  0
 29 24  1  0  0  0  0
 31 32  1  0  0  0  0
 32 33  2  0  0  0  0
 33 34  1  0  0  0  0
 35 33  1  0  0  0  0
 35 36  2  0  0  0  0
 37 35  1  0  0  0  0
 38 31  1  0  0  0  0
 38 37  1  0  0  0  0
 39 38  2  0  0  0  0
 40 37  1  0  0  0  0
M  END
>  <minimizedAffinity>
-5.18024731

>  <minimizedRMSD>
2.28054595

$$$$
