
 OpenBabel03242518383D

 40 43  0  0  1  0  0  0  0  0999 V2000
   48.6270   32.9530   40.8890 O   0  0  0  0  0  0  0  0  0  0  0  0
   48.3870   33.3230   39.5410 C   0  0  0  0  0  0  0  0  0  0  0  0
   48.3720   34.5720   38.9110 C   0  0  0  0  0  0  0  0  0  0  0  0
   48.0800   34.3890   37.5710 C   0  0  0  0  0  0  0  0  0  0  0  0
   47.9330   33.0440   37.4480 C   0  0  0  0  0  0  0  0  0  0  0  0
   48.1110   32.4230   38.5990 O   0  0  0  0  0  0  0  0  0  0  0  0
   48.5700   35.4660   39.4790 H   0  0  0  0  0  0  0  0  0  0  0  0
   48.0050   35.1890   36.8480 H   0  0  0  0  0  0  0  0  0  0  0  0
   47.6070   32.3440   36.1860 C   0  0  2  0  0  0  0  0  0  0  0  0
   48.5140   31.3370   35.6350 C   0  0  0  0  0  0  0  0  0  0  0  0
   48.5770   32.6910   35.0260 C   0  0  1  0  0  0  0  0  0  0  0  0
   46.5350   32.3790   35.9420 H   0  0  0  0  0  0  0  0  0  0  0  0
   49.3770   30.9410   36.2170 H   0  0  0  0  0  0  0  0  0  0  0  0
   48.0050   30.5260   35.0390 H   0  0  0  0  0  0  0  0  0  0  0  0
   49.3810   33.3880   35.2440 H   0  0  0  0  0  0  0  0  0  0  0  0
   48.6380   33.1220   32.5800 C   0  0  0  0  0  0  0  0  0  0  0  0
   49.8900   33.3070   32.5840 O   0  0  0  0  0  0  0  0  0  0  0  0
   47.8830   32.8490   33.7500 N   0  0  0  0  0  0  0  0  0  0  0  0
   48.1990   33.1940   31.5950 H   0  0  0  0  0  0  0  0  0  0  0  0
   46.8490   32.7600   33.7080 H   0  0  0  0  0  0  0  0  0  0  0  0
   48.7870   33.9880   41.8570 C   0  0  0  0  0  0  0  0  0  0  0  0
   49.8840   34.5840   41.8670 O   0  0  0  0  0  0  0  0  0  0  0  0
   47.6600   34.2180   42.7020 C   0  0  0  0  0  0  0  0  0  0  0  0
   46.7400   35.1180   42.2290 C   0  0  0  0  0  0  0  0  0  0  0  0
   45.6180   35.3950   42.9910 C   0  0  0  0  0  0  0  0  0  0  0  0
   45.4760   34.7600   44.1800 N   0  0  0  0  0  0  0  0  0  0  0  0
   46.3900   33.8860   44.6190 C   0  0  0  0  0  0  0  0  0  0  0  0
   47.4710   33.6360   43.8580 N   0  0  0  0  0  0  0  0  0  0  0  0
   46.7790   35.6630   41.2970 H   0  0  0  0  0  0  0  0  0  0  0  0
   44.8560   36.0970   42.6680 H   0  0  0  0  0  0  0  0  0  0  0  0
   46.1880   33.2490   45.8780 N   0  0  0  0  0  0  0  0  0  0  0  0
   46.8650   32.1890   46.3610 C   0  0  0  0  0  0  0  0  0  0  0  0
   46.5660   31.6680   47.6040 C   0  0  0  0  0  0  0  0  0  0  0  0
   47.1330   30.8240   47.9450 H   0  0  0  0  0  0  0  0  0  0  0  0
   45.5500   32.2890   48.3060 C   0  0  0  0  0  0  0  0  0  0  0  0
   45.2640   31.8190   49.4540 O   0  0  0  0  0  0  0  0  0  0  0  0
   44.8830   33.3320   47.8310 N   0  0  0  0  0  0  0  0  0  0  0  0
   45.2020   33.8250   46.5990 C   0  0  0  0  0  0  0  0  0  0  0  0
   44.5090   34.8170   46.2410 O   0  0  0  0  0  0  0  0  0  0  0  0
   44.1220   33.7460   48.4320 H   0  0  0  0  0  0  0  0  0  0  0  0
  1 21  1  0  0  0  0
  2  1  1  0  0  0  0
  3  7  1  0  0  0  0
  3  2  2  0  0  0  0
  4  3  1  0  0  0  0
  5  4  2  0  0  0  0
  5  6  1  0  0  0  0
  6  2  1  0  0  0  0
  8  4  1  0  0  0  0
  9 12  1  6  0  0  0
  9  5  1  0  0  0  0
 10  9  1  0  0  0  0
 10 13  1  0  0  0  0
 11 15  1  1  0  0  0
 11 10  1  0  0  0  0
 11  9  1  0  0  0  0
 14 10  1  0  0  0  0
 16 17  2  0  0  0  0
 16 18  1  0  0  0  0
 18 11  1  0  0  0  0
 19 16  1  0  0  0  0
 20 18  1  0  0  0  0
 21 22  2  0  0  0  0
 21 23  1  0  0  0  0
 23 28  1  0  0  0  0
 24 23  2  0  0  0  0
 24 25  1  0  0  0  0
 25 26  2  0  0  0  0
 26 27  1  0  0  0  0
 27 31  1  0  0  0  0
 28 27  2  0  0  0  0
 29 24  1  0  0  0  0
 30 25  1  0  0  0  0
 31 32  1  0  0  0  0
 31 38  1  0  0  0  0
 32 33  2  0  0  0  0
 33 34  1  0  0  0  0
 33 35  1  0  0  0  0
 35 36  2  0  0  0  0
 37 35  1  0  0  0  0
 37 40  1  0  0  0  0
 38 37  1  0  0  0  0
 39 38  2  0  0  0  0
M  END
>  <minimizedAffinity>
-7.28949738

>  <minimizedRMSD>
1.26912582

$$$$
