
 OpenBabel03242512233D

 42 45  0  0  0  0  0  0  0  0999 V2000
   36.4240   31.0580   40.0560 C   0  0  0  0  0  0  0  0  0  0  0  0
   37.1420   31.9680   39.3290 C   0  0  0  0  0  0  0  0  0  0  0  0
   37.6510   31.5990   38.1160 C   0  0  0  0  0  0  0  0  0  0  0  0
   37.4300   30.3070   37.6400 C   0  0  0  0  0  0  0  0  0  0  0  0
   36.6990   29.4190   38.4060 C   0  0  0  0  0  0  0  0  0  0  0  0
   36.1750   29.7900   39.6480 C   0  0  0  0  0  0  0  0  0  0  0  0
   38.2210   32.3310   37.5450 H   0  0  0  0  0  0  0  0  0  0  0  0
   37.8410   30.0460   36.6860 H   0  0  0  0  0  0  0  0  0  0  0  0
   36.5440   28.4280   38.0140 H   0  0  0  0  0  0  0  0  0  0  0  0
   37.3240   33.3020   39.9060 C   0  0  0  0  0  0  0  0  0  0  0  0
   36.6900   33.4990   40.7580 H   0  0  0  0  0  0  0  0  0  0  0  0
   37.0000   34.0310   39.1090 H   0  0  0  0  0  0  0  0  0  0  0  0
   38.7900   33.5720   40.1800 C   0  0  0  0  0  0  0  0  0  0  0  0
   39.2560   34.8630   39.9390 C   0  0  0  0  0  0  0  0  0  0  0  0
   40.5980   35.0990   40.1950 C   0  0  0  0  0  0  0  0  0  0  0  0
   41.3590   34.0920   40.6510 N   0  0  0  0  0  0  0  0  0  0  0  0
   40.8680   32.8400   40.8740 C   0  0  0  0  0  0  0  0  0  0  0  0
   39.5880   32.5970   40.6360 N   0  0  0  0  0  0  0  0  0  0  0  0
   38.5730   35.6300   39.5680 H   0  0  0  0  0  0  0  0  0  0  0  0
   40.9990   36.0890   40.0210 H   0  0  0  0  0  0  0  0  0  0  0  0
   41.5880   32.1120   41.2430 H   0  0  0  0  0  0  0  0  0  0  0  0
   35.8600   31.3400   41.3110 O   0  0  0  0  0  0  0  0  0  0  0  0
   36.1590   30.7910   42.1070 H   0  0  0  0  0  0  0  0  0  0  0  0
   35.4580   28.8040   40.3200 O   0  0  0  0  0  0  0  0  0  0  0  0
   36.2480   27.8880   41.0190 C   0  0  0  0  0  0  0  0  0  0  0  0
   36.5740   28.1640   42.3240 C   0  0  0  0  0  0  0  0  0  0  0  0
   37.3590   27.3050   43.1000 C   0  0  0  0  0  0  0  0  0  0  0  0
   37.8070   26.1700   42.5380 N   0  0  0  0  0  0  0  0  0  0  0  0
   37.4880   25.9020   41.2670 C   0  0  0  0  0  0  0  0  0  0  0  0
   36.7320   26.7360   40.5270 N   0  0  0  0  0  0  0  0  0  0  0  0
   36.2100   29.0810   42.7730 H   0  0  0  0  0  0  0  0  0  0  0  0
   37.5770   27.5820   44.1170 H   0  0  0  0  0  0  0  0  0  0  0  0
   37.9020   24.7360   40.5640 N   0  0  0  0  0  0  0  0  0  0  0  0
   37.6710   23.4760   41.0310 C   0  0  0  0  0  3  0  0  0  0  0  0
   38.0960   22.3830   40.3050 C   0  0  0  0  0  0  0  0  0  0  0  0
   37.8800   21.4090   40.7310 H   0  0  0  0  0  0  0  0  0  0  0  0
   38.7560   22.5640   39.1070 C   0  0  0  0  0  0  0  0  0  0  0  0
   39.1350   21.5510   38.4610 O   0  0  0  0  0  0  0  0  0  0  0  0
   38.9960   23.8090   38.6260 N   0  0  0  0  0  0  0  0  0  0  0  0
   38.5530   24.8060   39.3880 C   0  0  0  0  0  0  0  0  0  0  0  0
   38.7640   25.9850   38.9620 O   0  0  0  0  0  0  0  0  0  0  0  0
   39.4860   23.9830   37.7350 H   0  0  0  0  0  0  0  0  0  0  0  0
  1 22  1  0  0  0  0
  2 10  1  0  0  0  0
  2  1  2  0  0  0  0
  3  2  1  0  0  0  0
  4  3  2  0  0  0  0
  4  5  1  0  0  0  0
  5  6  2  0  0  0  0
  6  1  1  0  0  0  0
  6 24  1  0  0  0  0
  7  3  1  0  0  0  0
  8  4  1  0  0  0  0
  9  5  1  0  0  0  0
 10 13  1  0  0  0  0
 10 11  1  0  0  0  0
 12 10  1  0  0  0  0
 13 18  1  0  0  0  0
 14 13  2  0  0  0  0
 14 15  1  0  0  0  0
 15 16  2  0  0  0  0
 16 17  1  0  0  0  0
 17 21  1  0  0  0  0
 18 17  2  0  0  0  0
 19 14  1  0  0  0  0
 20 15  1  0  0  0  0
 22 23  1  0  0  0  0
 24 25  1  0  0  0  0
 25 26  1  0  0  0  0
 26 31  1  0  0  0  0
 26 27  2  0  0  0  0
 27 32  1  0  0  0  0
 28 27  1  0  0  0  0
 29 28  2  0  0  0  0
 30 25  2  0  0  0  0
 30 29  1  0  0  0  0
 33 34  1  0  0  0  0
 33 29  1  0  0  0  0
 35 36  1  0  0  0  0
 35 34  2  0  0  0  0
 37 35  1  0  0  0  0
 38 37  2  0  0  0  0
 39 37  1  0  0  0  0
 39 40  1  0  0  0  0
 40 33  1  0  0  0  0
 41 40  2  0  0  0  0
 42 39  1  0  0  0  0
M  END
>  <minimizedAffinity>
-6.98710299

$$$$

 OpenBabel03242512233D

 42 45  0  0  0  0  0  0  0  0999 V2000
   36.3490   30.8120   39.9540 C   0  0  0  0  0  0  0  0  0  0  0  0
   36.2130   29.4750   39.6990 C   0  0  0  0  0  0  0  0  0  0  0  0
   36.6360   28.9790   38.4980 C   0  0  0  0  0  0  0  0  0  0  0  0
   37.1980   29.8400   37.5560 C   0  0  0  0  0  0  0  0  0  0  0  0
   37.3180   31.1840   37.8540 C   0  0  0  0  0  0  0  0  0  0  0  0
   36.8870   31.6980   39.0810 C   0  0  0  0  0  0  0  0  0  0  0  0
   36.5230   27.9120   38.3040 H   0  0  0  0  0  0  0  0  0  0  0  0
   37.5200   29.4230   36.6240 H   0  0  0  0  0  0  0  0  0  0  0  0
   37.7550   31.8250   37.1080 H   0  0  0  0  0  0  0  0  0  0  0  0
   35.6110   28.6450   40.7450 C   0  0  0  0  0  0  0  0  0  0  0  0
   34.9530   27.8770   40.3670 H   0  0  0  0  0  0  0  0  0  0  0  0
   34.9570   29.3360   41.3510 H   0  0  0  0  0  0  0  0  0  0  0  0
   36.6750   28.1100   41.6830 C   0  0  0  0  0  0  0  0  0  0  0  0
   37.0720   26.7850   41.5080 C   0  0  0  0  0  0  0  0  0  0  0  0
   38.0460   26.3080   42.3700 C   0  0  0  0  0  0  0  0  0  0  0  0
   38.5450   27.1300   43.3060 N   0  0  0  0  0  0  0  0  0  0  0  0
   38.1320   28.4210   43.4490 C   0  0  0  0  0  0  0  0  0  0  0  0
   37.2010   28.8940   42.6330 N   0  0  0  0  0  0  0  0  0  0  0  0
   36.6190   26.1790   40.7200 H   0  0  0  0  0  0  0  0  0  0  0  0
   38.3830   25.2850   42.2660 H   0  0  0  0  0  0  0  0  0  0  0  0
   38.6120   28.9830   44.2470 H   0  0  0  0  0  0  0  0  0  0  0  0
   35.9460   31.4170   41.1550 O   0  0  0  0  0  0  0  0  0  0  0  0
   35.2410   32.1420   41.1170 H   0  0  0  0  0  0  0  0  0  0  0  0
   37.0630   33.0680   39.2570 O   0  0  0  0  0  0  0  0  0  0  0  0
   38.3670   33.4470   39.5850 C   0  0  0  0  0  0  0  0  0  0  0  0
   38.5590   34.6380   40.2420 C   0  0  0  0  0  0  0  0  0  0  0  0
   39.8270   35.0970   40.6100 C   0  0  0  0  0  0  0  0  0  0  0  0
   40.8920   34.3370   40.3050 N   0  0  0  0  0  0  0  0  0  0  0  0
   40.7040   33.1770   39.6640 C   0  0  0  0  0  0  0  0  0  0  0  0
   39.4780   32.7440   39.3130 N   0  0  0  0  0  0  0  0  0  0  0  0
   37.6960   35.2460   40.4860 H   0  0  0  0  0  0  0  0  0  0  0  0
   39.9070   36.0390   41.1240 H   0  0  0  0  0  0  0  0  0  0  0  0
   41.7510   32.2890   39.2880 N   0  0  0  0  0  0  0  0  0  0  0  0
   42.6610   31.8060   40.1800 C   0  0  0  0  0  3  0  0  0  0  0  0
   43.6540   30.9480   39.7550 C   0  0  0  0  0  0  0  0  0  0  0  0
   44.3460   30.6000   40.5150 H   0  0  0  0  0  0  0  0  0  0  0  0
   43.7270   30.5780   38.4280 C   0  0  0  0  0  0  0  0  0  0  0  0
   44.6410   29.7930   38.0630 O   0  0  0  0  0  0  0  0  0  0  0  0
   42.8300   31.0480   37.5250 N   0  0  0  0  0  0  0  0  0  0  0  0
   41.9070   31.8700   38.0180 C   0  0  0  0  0  0  0  0  0  0  0  0
   41.0530   32.3270   37.1940 O   0  0  0  0  0  0  0  0  0  0  0  0
   42.8530   30.7940   36.5260 H   0  0  0  0  0  0  0  0  0  0  0  0
  1 22  1  0  0  0  0
  2  1  1  0  0  0  0
  2 10  1  0  0  0  0
  3  2  2  0  0  0  0
  4  5  2  0  0  0  0
  4  3  1  0  0  0  0
  5  6  1  0  0  0  0
  6 24  1  0  0  0  0
  6  1  2  0  0  0  0
  7  3  1  0  0  0  0
  8  4  1  0  0  0  0
  9  5  1  0  0  0  0
 10 12  1  0  0  0  0
 10 13  1  0  0  0  0
 11 10  1  0  0  0  0
 13 18  1  0  0  0  0
 14 13  2  0  0  0  0
 14 15  1  0  0  0  0
 15 16  2  0  0  0  0
 16 17  1  0  0  0  0
 17 21  1  0  0  0  0
 18 17  2  0  0  0  0
 19 14  1  0  0  0  0
 20 15  1  0  0  0  0
 23 22  1  0  0  0  0
 24 25  1  0  0  0  0
 25 26  1  0  0  0  0
 26 31  1  0  0  0  0
 26 27  2  0  0  0  0
 27 32  1  0  0  0  0
 28 27  1  0  0  0  0
 29 28  2  0  0  0  0
 30 25  2  0  0  0  0
 30 29  1  0  0  0  0
 33 29  1  0  0  0  0
 33 34  1  0  0  0  0
 35 34  2  0  0  0  0
 35 36  1  0  0  0  0
 37 35  1  0  0  0  0
 38 37  2  0  0  0  0
 39 40  1  0  0  0  0
 39 37  1  0  0  0  0
 40 33  1  0  0  0  0
 41 40  2  0  0  0  0
 42 39  1  0  0  0  0
M  END
>  <minimizedAffinity>
-6.96190071

$$$$

 OpenBabel03242512233D

 42 45  0  0  0  0  0  0  0  0999 V2000
   37.7480   28.5070   42.6860 C   0  0  0  0  0  0  0  0  0  0  0  0
   38.2510   27.2580   42.9300 C   0  0  0  0  0  0  0  0  0  0  0  0
   37.8740   26.2190   42.1270 C   0  0  0  0  0  0  0  0  0  0  0  0
   36.9860   26.4470   41.0770 C   0  0  0  0  0  0  0  0  0  0  0  0
   36.5010   27.7230   40.8650 C   0  0  0  0  0  0  0  0  0  0  0  0
   36.8830   28.7920   41.6820 C   0  0  0  0  0  0  0  0  0  0  0  0
   38.2800   25.2280   42.3300 H   0  0  0  0  0  0  0  0  0  0  0  0
   36.7070   25.6140   40.4640 H   0  0  0  0  0  0  0  0  0  0  0  0
   35.8170   27.8700   40.0470 H   0  0  0  0  0  0  0  0  0  0  0  0
   39.1780   27.1110   44.0550 C   0  0  0  0  0  0  0  0  0  0  0  0
   38.8430   26.4120   44.8060 H   0  0  0  0  0  0  0  0  0  0  0  0
   39.2080   28.1160   44.5650 H   0  0  0  0  0  0  0  0  0  0  0  0
   40.5820   26.8260   43.5590 C   0  0  0  0  0  0  0  0  0  0  0  0
   41.3010   27.8970   43.0310 C   0  0  0  0  0  0  0  0  0  0  0  0
   42.5840   27.6250   42.5820 C   0  0  0  0  0  0  0  0  0  0  0  0
   43.0540   26.3730   42.6800 N   0  0  0  0  0  0  0  0  0  0  0  0
   42.3220   25.3490   43.2020 C   0  0  0  0  0  0  0  0  0  0  0  0
   41.0930   25.5910   43.6360 N   0  0  0  0  0  0  0  0  0  0  0  0
   40.8480   28.8900   42.9870 H   0  0  0  0  0  0  0  0  0  0  0  0
   43.1750   28.4300   42.1660 H   0  0  0  0  0  0  0  0  0  0  0  0
   42.8160   24.3800   43.2240 H   0  0  0  0  0  0  0  0  0  0  0  0
   38.0750   29.6370   43.4520 O   0  0  0  0  0  0  0  0  0  0  0  0
   37.3300   30.1230   43.9350 H   0  0  0  0  0  0  0  0  0  0  0  0
   36.3240   30.0260   41.3630 O   0  0  0  0  0  0  0  0  0  0  0  0
   37.0420   30.7600   40.4170 C   0  0  0  0  0  0  0  0  0  0  0  0
   36.6650   30.6800   39.0990 C   0  0  0  0  0  0  0  0  0  0  0  0
   37.3250   31.3800   38.0840 C   0  0  0  0  0  0  0  0  0  0  0  0
   38.3670   32.1570   38.4210 N   0  0  0  0  0  0  0  0  0  0  0  0
   38.7350   32.2350   39.7050 C   0  0  0  0  0  0  0  0  0  0  0  0
   38.0930   31.5570   40.6760 N   0  0  0  0  0  0  0  0  0  0  0  0
   35.8230   30.0510   38.8330 H   0  0  0  0  0  0  0  0  0  0  0  0
   36.9760   31.2720   37.0710 H   0  0  0  0  0  0  0  0  0  0  0  0
   39.8190   33.0220   40.1840 N   0  0  0  0  0  0  0  0  0  0  0  0
   39.9260   34.3570   39.9300 C   0  0  0  0  0  3  0  0  0  0  0  0
   41.0010   35.0680   40.4210 C   0  0  0  0  0  0  0  0  0  0  0  0
   41.0260   36.1270   40.1830 H   0  0  0  0  0  0  0  0  0  0  0  0
   41.9690   34.4290   41.1670 C   0  0  0  0  0  0  0  0  0  0  0  0
   42.9420   35.0980   41.6060 O   0  0  0  0  0  0  0  0  0  0  0  0
   41.8810   33.1010   41.4300 N   0  0  0  0  0  0  0  0  0  0  0  0
   40.8130   32.4930   40.9200 C   0  0  0  0  0  0  0  0  0  0  0  0
   40.7050   31.2470   41.1500 O   0  0  0  0  0  0  0  0  0  0  0  0
   42.5850   32.5900   41.9840 H   0  0  0  0  0  0  0  0  0  0  0  0
  1  2  1  0  0  0  0
  1 22  1  0  0  0  0
  2 10  1  0  0  0  0
  3  7  1  0  0  0  0
  3  2  2  0  0  0  0
  4  3  1  0  0  0  0
  5  4  2  0  0  0  0
  5  6  1  0  0  0  0
  6  1  2  0  0  0  0
  8  4  1  0  0  0  0
  9  5  1  0  0  0  0
 10 12  1  0  0  0  0
 10 11  1  0  0  0  0
 13 18  1  0  0  0  0
 13 10  1  0  0  0  0
 14 13  2  0  0  0  0
 15 16  2  0  0  0  0
 15 14  1  0  0  0  0
 16 17  1  0  0  0  0
 17 21  1  0  0  0  0
 17 18  2  0  0  0  0
 19 14  1  0  0  0  0
 20 15  1  0  0  0  0
 22 23  1  0  0  0  0
 24  6  1  0  0  0  0
 25 30  1  0  0  0  0
 25 24  1  0  0  0  0
 26 25  2  0  0  0  0
 27 28  2  0  0  0  0
 27 26  1  0  0  0  0
 28 29  1  0  0  0  0
 29 33  1  0  0  0  0
 29 30  2  0  0  0  0
 31 26  1  0  0  0  0
 32 27  1  0  0  0  0
 33 40  1  0  0  0  0
 34 33  1  0  0  0  0
 34 35  2  0  0  0  0
 35 37  1  0  0  0  0
 36 35  1  0  0  0  0
 37 39  1  0  0  0  0
 37 38  2  0  0  0  0
 39 42  1  0  0  0  0
 40 41  2  0  0  0  0
 40 39  1  0  0  0  0
M  END
>  <minimizedAffinity>
-6.94858932

$$$$

 OpenBabel03242512233D

 42 45  0  0  0  0  0  0  0  0999 V2000
   36.6780   28.0410   41.6400 C   0  0  0  0  0  0  0  0  0  0  0  0
   36.0860   28.1850   40.4150 C   0  0  0  0  0  0  0  0  0  0  0  0
   36.2230   27.1910   39.4870 C   0  0  0  0  0  0  0  0  0  0  0  0
   36.9610   26.0510   39.8030 C   0  0  0  0  0  0  0  0  0  0  0  0
   37.5430   25.9450   41.0510 C   0  0  0  0  0  0  0  0  0  0  0  0
   37.4060   26.9580   42.0060 C   0  0  0  0  0  0  0  0  0  0  0  0
   35.7470   27.3150   38.5150 H   0  0  0  0  0  0  0  0  0  0  0  0
   37.0520   25.2880   39.0560 H   0  0  0  0  0  0  0  0  0  0  0  0
   38.1070   25.0540   41.2680 H   0  0  0  0  0  0  0  0  0  0  0  0
   35.3290   29.4150   40.1700 C   0  0  0  0  0  0  0  0  0  0  0  0
   34.6530   29.6770   40.9700 H   0  0  0  0  0  0  0  0  0  0  0  0
   34.6760   29.2040   39.2750 H   0  0  0  0  0  0  0  0  0  0  0  0
   36.2580   30.5470   39.7790 C   0  0  0  0  0  0  0  0  0  0  0  0
   36.6500   30.6180   38.4430 C   0  0  0  0  0  0  0  0  0  0  0  0
   37.4990   31.6570   38.0970 C   0  0  0  0  0  0  0  0  0  0  0  0
   37.8880   32.5210   39.0470 N   0  0  0  0  0  0  0  0  0  0  0  0
   37.4850   32.4210   40.3450 C   0  0  0  0  0  0  0  0  0  0  0  0
   36.6730   31.4330   40.6930 N   0  0  0  0  0  0  0  0  0  0  0  0
   36.2890   29.8750   37.7280 H   0  0  0  0  0  0  0  0  0  0  0  0
   37.8260   31.7480   37.0700 H   0  0  0  0  0  0  0  0  0  0  0  0
   37.8720   33.1830   41.0180 H   0  0  0  0  0  0  0  0  0  0  0  0
   36.5950   29.0030   42.6580 O   0  0  0  0  0  0  0  0  0  0  0  0
   37.4530   29.4210   42.9970 H   0  0  0  0  0  0  0  0  0  0  0  0
   38.0410   26.7300   43.2240 O   0  0  0  0  0  0  0  0  0  0  0  0
   39.3440   27.2260   43.3000 C   0  0  0  0  0  0  0  0  0  0  0  0
   40.2640   26.5410   44.0560 C   0  0  0  0  0  0  0  0  0  0  0  0
   41.5910   26.9620   44.1890 C   0  0  0  0  0  0  0  0  0  0  0  0
   41.9710   28.0800   43.5480 N   0  0  0  0  0  0  0  0  0  0  0  0
   41.0740   28.7470   42.8110 C   0  0  0  0  0  0  0  0  0  0  0  0
   39.7980   28.3330   42.6900 N   0  0  0  0  0  0  0  0  0  0  0  0
   39.9520   25.6390   44.5700 H   0  0  0  0  0  0  0  0  0  0  0  0
   42.2600   26.3780   44.7960 H   0  0  0  0  0  0  0  0  0  0  0  0
   41.3560   29.9400   42.0890 N   0  0  0  0  0  0  0  0  0  0  0  0
   42.3700   30.0280   41.1820 C   0  0  0  0  0  3  0  0  0  0  0  0
   42.5950   31.2120   40.5120 C   0  0  0  0  0  0  0  0  0  0  0  0
   43.4170   31.2150   39.8040 H   0  0  0  0  0  0  0  0  0  0  0  0
   41.7960   32.3080   40.7600 C   0  0  0  0  0  0  0  0  0  0  0  0
   42.0190   33.3800   40.1360 O   0  0  0  0  0  0  0  0  0  0  0  0
   40.7820   32.2410   41.6590 N   0  0  0  0  0  0  0  0  0  0  0  0
   40.6350   31.0630   42.2590 C   0  0  0  0  0  0  0  0  0  0  0  0
   39.6920   30.9710   43.1080 O   0  0  0  0  0  0  0  0  0  0  0  0
   40.1640   33.0400   41.8710 H   0  0  0  0  0  0  0  0  0  0  0  0
  1  6  1  0  0  0  0
  1 22  1  0  0  0  0
  2  1  2  0  0  0  0
  3  4  2  0  0  0  0
  3  2  1  0  0  0  0
  4  5  1  0  0  0  0
  5  9  1  0  0  0  0
  5  6  2  0  0  0  0
  6 24  1  0  0  0  0
  7  3  1  0  0  0  0
  8  4  1  0  0  0  0
 10  2  1  0  0  0  0
 10 11  1  0  0  0  0
 12 10  1  0  0  0  0
 13 10  1  0  0  0  0
 13 18  1  0  0  0  0
 14 13  2  0  0  0  0
 15 14  1  0  0  0  0
 15 16  2  0  0  0  0
 16 17  1  0  0  0  0
 17 18  2  0  0  0  0
 17 21  1  0  0  0  0
 19 14  1  0  0  0  0
 20 15  1  0  0  0  0
 22 23  1  0  0  0  0
 24 25  1  0  0  0  0
 25 26  1  0  0  0  0
 26 27  2  0  0  0  0
 26 31  1  0  0  0  0
 27 32  1  0  0  0  0
 28 27  1  0  0  0  0
 29 28  2  0  0  0  0
 30 29  1  0  0  0  0
 30 25  2  0  0  0  0
 33 40  1  0  0  0  0
 33 29  1  0  0  0  0
 34 33  1  0  0  0  0
 35 37  1  0  0  0  0
 35 34  2  0  0  0  0
 36 35  1  0  0  0  0
 37 39  1  0  0  0  0
 38 37  2  0  0  0  0
 39 42  1  0  0  0  0
 39 40  1  0  0  0  0
 40 41  2  0  0  0  0
M  END
>  <minimizedAffinity>
-6.86386061

$$$$

 OpenBabel03242512233D

 42 45  0  0  0  0  0  0  0  0999 V2000
   38.5130   29.1230   42.8380 C   0  0  0  0  0  0  0  0  0  0  0  0
   38.6560   27.7690   42.9690 C   0  0  0  0  0  0  0  0  0  0  0  0
   39.9020   27.2170   42.8730 C   0  0  0  0  0  0  0  0  0  0  0  0
   41.0040   28.0400   42.6450 C   0  0  0  0  0  0  0  0  0  0  0  0
   40.8170   29.4030   42.5190 C   0  0  0  0  0  0  0  0  0  0  0  0
   39.5450   29.9740   42.6160 C   0  0  0  0  0  0  0  0  0  0  0  0
   40.0040   26.1370   42.9790 H   0  0  0  0  0  0  0  0  0  0  0  0
   41.9690   27.5800   42.5740 H   0  0  0  0  0  0  0  0  0  0  0  0
   41.6860   30.0140   42.3430 H   0  0  0  0  0  0  0  0  0  0  0  0
   37.4430   26.9820   43.2070 C   0  0  0  0  0  0  0  0  0  0  0  0
   36.6060   27.5670   43.5570 H   0  0  0  0  0  0  0  0  0  0  0  0
   37.6940   26.2740   44.0490 H   0  0  0  0  0  0  0  0  0  0  0  0
   37.1120   26.1290   41.9990 C   0  0  0  0  0  0  0  0  0  0  0  0
   37.0490   24.7500   42.1900 C   0  0  0  0  0  0  0  0  0  0  0  0
   36.7440   23.9800   41.0790 C   0  0  0  0  0  0  0  0  0  0  0  0
   36.5280   24.5920   39.9040 N   0  0  0  0  0  0  0  0  0  0  0  0
   36.5980   25.9450   39.7540 C   0  0  0  0  0  0  0  0  0  0  0  0
   36.8890   26.6960   40.8060 N   0  0  0  0  0  0  0  0  0  0  0  0
   37.2360   24.3260   43.1790 H   0  0  0  0  0  0  0  0  0  0  0  0
   36.6850   22.9050   41.1850 H   0  0  0  0  0  0  0  0  0  0  0  0
   36.4040   26.3180   38.7500 H   0  0  0  0  0  0  0  0  0  0  0  0
   37.2780   29.7850   42.9200 O   0  0  0  0  0  0  0  0  0  0  0  0
   36.9580   30.3110   42.1170 H   0  0  0  0  0  0  0  0  0  0  0  0
   39.4910   31.3580   42.4700 O   0  0  0  0  0  0  0  0  0  0  0  0
   38.8040   31.7950   41.3350 C   0  0  0  0  0  0  0  0  0  0  0  0
   38.8760   33.1230   40.9940 C   0  0  0  0  0  0  0  0  0  0  0  0
   38.2220   33.6490   39.8760 C   0  0  0  0  0  0  0  0  0  0  0  0
   37.4970   32.8150   39.1120 N   0  0  0  0  0  0  0  0  0  0  0  0
   37.4260   31.5200   39.4450 C   0  0  0  0  0  0  0  0  0  0  0  0
   38.0600   31.0240   40.5250 N   0  0  0  0  0  0  0  0  0  0  0  0
   39.4640   33.7920   41.6140 H   0  0  0  0  0  0  0  0  0  0  0  0
   38.3220   34.6990   39.6650 H   0  0  0  0  0  0  0  0  0  0  0  0
   36.6910   30.5430   38.7180 N   0  0  0  0  0  0  0  0  0  0  0  0
   36.8730   30.3310   37.3830 C   0  0  0  0  0  3  0  0  0  0  0  0
   36.1300   29.3680   36.7310 C   0  0  0  0  0  0  0  0  0  0  0  0
   36.3230   29.2490   35.6710 H   0  0  0  0  0  0  0  0  0  0  0  0
   35.2040   28.6210   37.4280 C   0  0  0  0  0  0  0  0  0  0  0  0
   34.5380   27.7460   36.8130 O   0  0  0  0  0  0  0  0  0  0  0  0
   35.0090   28.8170   38.7570 N   0  0  0  0  0  0  0  0  0  0  0  0
   35.7660   29.7640   39.3060 C   0  0  0  0  0  0  0  0  0  0  0  0
   35.6040   29.9700   40.5500 O   0  0  0  0  0  0  0  0  0  0  0  0
   34.3260   28.2780   39.3100 H   0  0  0  0  0  0  0  0  0  0  0  0
  1 22  1  0  0  0  0
  1  2  1  0  0  0  0
  2 10  1  0  0  0  0
  3  2  2  0  0  0  0
  3  7  1  0  0  0  0
  4  3  1  0  0  0  0
  5  6  1  0  0  0  0
  5  4  2  0  0  0  0
  6  1  2  0  0  0  0
  8  4  1  0  0  0  0
  9  5  1  0  0  0  0
 10 11  1  0  0  0  0
 10 12  1  0  0  0  0
 13 14  1  0  0  0  0
 13 10  1  0  0  0  0
 14 19  1  0  0  0  0
 15 20  1  0  0  0  0
 15 14  2  0  0  0  0
 16 15  1  0  0  0  0
 17 16  2  0  0  0  0
 17 18  1  0  0  0  0
 18 13  2  0  0  0  0
 21 17  1  0  0  0  0
 23 22  1  0  0  0  0
 24  6  1  0  0  0  0
 25 24  1  0  0  0  0
 26 25  1  0  0  0  0
 26 31  1  0  0  0  0
 27 26  2  0  0  0  0
 28 29  2  0  0  0  0
 28 27  1  0  0  0  0
 29 30  1  0  0  0  0
 30 25  2  0  0  0  0
 32 27  1  0  0  0  0
 33 40  1  0  0  0  0
 33 29  1  0  0  0  0
 34 33  1  0  0  0  0
 35 34  2  0  0  0  0
 35 37  1  0  0  0  0
 36 35  1  0  0  0  0
 37 39  1  0  0  0  0
 38 37  2  0  0  0  0
 39 40  1  0  0  0  0
 39 42  1  0  0  0  0
 40 41  2  0  0  0  0
M  END
>  <minimizedAffinity>
-6.86034298

$$$$

 OpenBabel03242512233D

 42 45  0  0  0  0  0  0  0  0999 V2000
   36.3260   30.9460   40.0770 C   0  0  0  0  0  0  0  0  0  0  0  0
   36.0730   29.7750   39.4180 C   0  0  0  0  0  0  0  0  0  0  0  0
   36.5150   29.6230   38.1340 C   0  0  0  0  0  0  0  0  0  0  0  0
   37.2130   30.6610   37.5190 C   0  0  0  0  0  0  0  0  0  0  0  0
   37.4480   31.8280   38.2190 C   0  0  0  0  0  0  0  0  0  0  0  0
   37.0000   31.9900   39.5340 C   0  0  0  0  0  0  0  0  0  0  0  0
   36.3080   28.6860   37.6180 H   0  0  0  0  0  0  0  0  0  0  0  0
   37.5470   30.5140   36.5110 H   0  0  0  0  0  0  0  0  0  0  0  0
   37.9900   32.6130   37.7190 H   0  0  0  0  0  0  0  0  0  0  0  0
   35.3320   28.7380   40.1420 C   0  0  0  0  0  0  0  0  0  0  0  0
   34.6560   28.1720   39.5200 H   0  0  0  0  0  0  0  0  0  0  0  0
   34.6800   29.2850   40.8830 H   0  0  0  0  0  0  0  0  0  0  0  0
   36.2760   27.8670   40.9460 C   0  0  0  0  0  0  0  0  0  0  0  0
   36.7990   26.7400   40.3120 C   0  0  0  0  0  0  0  0  0  0  0  0
   37.6620   25.9520   41.0560 C   0  0  0  0  0  0  0  0  0  0  0  0
   37.9420   26.3090   42.3190 N   0  0  0  0  0  0  0  0  0  0  0  0
   37.4110   27.4180   42.9070 C   0  0  0  0  0  0  0  0  0  0  0  0
   36.5850   28.1830   42.2100 N   0  0  0  0  0  0  0  0  0  0  0  0
   36.5220   26.5170   39.2800 H   0  0  0  0  0  0  0  0  0  0  0  0
   38.0890   25.0680   40.6010 H   0  0  0  0  0  0  0  0  0  0  0  0
   37.7170   27.5960   43.9360 H   0  0  0  0  0  0  0  0  0  0  0  0
   35.9160   31.1990   41.3960 O   0  0  0  0  0  0  0  0  0  0  0  0
   35.2890   31.9750   41.5650 H   0  0  0  0  0  0  0  0  0  0  0  0
   37.3000   33.2130   40.1290 O   0  0  0  0  0  0  0  0  0  0  0  0
   38.6610   33.4270   40.3550 C   0  0  0  0  0  0  0  0  0  0  0  0
   39.1670   34.6900   40.1640 C   0  0  0  0  0  0  0  0  0  0  0  0
   40.5170   34.9980   40.3670 C   0  0  0  0  0  0  0  0  0  0  0  0
   41.3410   34.0130   40.7630 N   0  0  0  0  0  0  0  0  0  0  0  0
   40.8470   32.7830   40.9480 C   0  0  0  0  0  0  0  0  0  0  0  0
   39.5460   32.4970   40.7500 N   0  0  0  0  0  0  0  0  0  0  0  0
   38.4970   35.4800   39.8450 H   0  0  0  0  0  0  0  0  0  0  0  0
   40.8470   36.0080   40.2010 H   0  0  0  0  0  0  0  0  0  0  0  0
   41.6190   31.6620   41.3650 N   0  0  0  0  0  0  0  0  0  0  0  0
   42.3820   31.6750   42.4940 C   0  0  0  0  0  3  0  0  0  0  0  0
   43.1090   30.5570   42.8470 C   0  0  0  0  0  0  0  0  0  0  0  0
   43.6950   30.6320   43.7570 H   0  0  0  0  0  0  0  0  0  0  0  0
   43.0660   29.4270   42.0570 C   0  0  0  0  0  0  0  0  0  0  0  0
   43.7370   28.4180   42.3990 O   0  0  0  0  0  0  0  0  0  0  0  0
   42.3120   29.3960   40.9290 N   0  0  0  0  0  0  0  0  0  0  0  0
   41.6440   30.5150   40.6630 C   0  0  0  0  0  0  0  0  0  0  0  0
   40.9300   30.5140   39.6110 O   0  0  0  0  0  0  0  0  0  0  0  0
   42.2560   28.5700   40.3140 H   0  0  0  0  0  0  0  0  0  0  0  0
  1 22  1  0  0  0  0
  2  1  2  0  0  0  0
  2 10  1  0  0  0  0
  3  2  1  0  0  0  0
  4  3  2  0  0  0  0
  4  5  1  0  0  0  0
  5  6  2  0  0  0  0
  6  1  1  0  0  0  0
  6 24  1  0  0  0  0
  7  3  1  0  0  0  0
  8  4  1  0  0  0  0
  9  5  1  0  0  0  0
 10 12  1  0  0  0  0
 10 13  1  0  0  0  0
 11 10  1  0  0  0  0
 13 18  1  0  0  0  0
 14 13  2  0  0  0  0
 14 15  1  0  0  0  0
 15 16  2  0  0  0  0
 16 17  1  0  0  0  0
 17 21  1  0  0  0  0
 18 17  2  0  0  0  0
 19 14  1  0  0  0  0
 20 15  1  0  0  0  0
 22 23  1  0  0  0  0
 24 25  1  0  0  0  0
 25 30  1  0  0  0  0
 26 25  2  0  0  0  0
 26 27  1  0  0  0  0
 27 28  2  0  0  0  0
 28 29  1  0  0  0  0
 29 33  1  0  0  0  0
 30 29  2  0  0  0  0
 31 26  1  0  0  0  0
 32 27  1  0  0  0  0
 33 34  1  0  0  0  0
 34 35  2  0  0  0  0
 35 36  1  0  0  0  0
 37 38  2  0  0  0  0
 37 35  1  0  0  0  0
 39 37  1  0  0  0  0
 40 39  1  0  0  0  0
 40 33  1  0  0  0  0
 41 40  2  0  0  0  0
 42 39  1  0  0  0  0
M  END
>  <minimizedAffinity>
-6.741745

$$$$

 OpenBabel03242512233D

 42 45  0  0  0  0  0  0  0  0999 V2000
   36.4050   30.7730   39.6280 C   0  0  0  0  0  0  0  0  0  0  0  0
   37.0890   31.8490   39.1320 C   0  0  0  0  0  0  0  0  0  0  0  0
   37.5120   31.8290   37.8330 C   0  0  0  0  0  0  0  0  0  0  0  0
   37.2390   30.7160   37.0370 C   0  0  0  0  0  0  0  0  0  0  0  0
   36.5450   29.6510   37.5770 C   0  0  0  0  0  0  0  0  0  0  0  0
   36.1090   29.6650   38.9060 C   0  0  0  0  0  0  0  0  0  0  0  0
   38.0560   32.6900   37.4480 H   0  0  0  0  0  0  0  0  0  0  0  0
   37.5830   30.7280   36.0230 H   0  0  0  0  0  0  0  0  0  0  0  0
   36.3490   28.8060   36.9400 H   0  0  0  0  0  0  0  0  0  0  0  0
   37.3300   32.9730   40.0400 C   0  0  0  0  0  0  0  0  0  0  0  0
   36.7440   32.9350   40.9460 H   0  0  0  0  0  0  0  0  0  0  0  0
   36.9830   33.8950   39.4900 H   0  0  0  0  0  0  0  0  0  0  0  0
   38.8130   33.1460   40.2960 C   0  0  0  0  0  0  0  0  0  0  0  0
   39.3440   34.4250   40.1340 C   0  0  0  0  0  0  0  0  0  0  0  0
   40.7010   34.5720   40.3730 C   0  0  0  0  0  0  0  0  0  0  0  0
   41.4150   33.4970   40.7410 N   0  0  0  0  0  0  0  0  0  0  0  0
   40.8630   32.2600   40.8900 C   0  0  0  0  0  0  0  0  0  0  0  0
   39.5670   32.1020   40.6650 N   0  0  0  0  0  0  0  0  0  0  0  0
   38.6950   35.2510   39.8330 H   0  0  0  0  0  0  0  0  0  0  0  0
   41.1510   35.5490   40.2580 H   0  0  0  0  0  0  0  0  0  0  0  0
   41.5490   31.4710   41.1910 H   0  0  0  0  0  0  0  0  0  0  0  0
   35.9290   30.6980   40.9470 O   0  0  0  0  0  0  0  0  0  0  0  0
   36.2700   29.9520   41.5410 H   0  0  0  0  0  0  0  0  0  0  0  0
   35.4220   28.5300   39.3280 O   0  0  0  0  0  0  0  0  0  0  0  0
   36.2210   27.3970   39.4950 C   0  0  0  0  0  0  0  0  0  0  0  0
   35.9890   26.3070   38.6920 C   0  0  0  0  0  0  0  0  0  0  0  0
   36.7400   25.1300   38.7870 C   0  0  0  0  0  0  0  0  0  0  0  0
   37.7220   25.0750   39.7030 N   0  0  0  0  0  0  0  0  0  0  0  0
   37.9470   26.1370   40.4840 C   0  0  0  0  0  0  0  0  0  0  0  0
   37.2180   27.2660   40.3850 N   0  0  0  0  0  0  0  0  0  0  0  0
   35.1960   26.3580   37.9550 H   0  0  0  0  0  0  0  0  0  0  0  0
   36.5060   24.3140   38.1270 H   0  0  0  0  0  0  0  0  0  0  0  0
   38.9550   26.1980   41.4870 N   0  0  0  0  0  0  0  0  0  0  0  0
   40.2670   25.9410   41.2260 C   0  0  0  0  0  3  0  0  0  0  0  0
   41.2000   26.0150   42.2400 C   0  0  0  0  0  0  0  0  0  0  0  0
   42.2270   25.8000   41.9650 H   0  0  0  0  0  0  0  0  0  0  0  0
   40.8040   26.3480   43.5180 C   0  0  0  0  0  0  0  0  0  0  0  0
   41.6730   26.4110   44.4290 O   0  0  0  0  0  0  0  0  0  0  0  0
   39.5020   26.6070   43.7980 N   0  0  0  0  0  0  0  0  0  0  0  0
   38.6710   26.5130   42.7640 C   0  0  0  0  0  0  0  0  0  0  0  0
   37.4430   26.7500   42.9980 O   0  0  0  0  0  0  0  0  0  0  0  0
   39.1690   26.8590   44.7420 H   0  0  0  0  0  0  0  0  0  0  0  0
  1 22  1  0  0  0  0
  2  1  1  0  0  0  0
  2 10  1  0  0  0  0
  3  2  2  0  0  0  0
  4  5  2  0  0  0  0
  4  3  1  0  0  0  0
  5  6  1  0  0  0  0
  6 24  1  0  0  0  0
  6  1  2  0  0  0  0
  7  3  1  0  0  0  0
  8  4  1  0  0  0  0
  9  5  1  0  0  0  0
 10 13  1  0  0  0  0
 10 11  1  0  0  0  0
 12 10  1  0  0  0  0
 13 18  1  0  0  0  0
 14 13  2  0  0  0  0
 14 15  1  0  0  0  0
 15 16  2  0  0  0  0
 16 17  1  0  0  0  0
 17 21  1  0  0  0  0
 18 17  2  0  0  0  0
 19 14  1  0  0  0  0
 20 15  1  0  0  0  0
 22 23  1  0  0  0  0
 24 25  1  0  0  0  0
 25 30  1  0  0  0  0
 26 27  1  0  0  0  0
 26 25  2  0  0  0  0
 27 28  2  0  0  0  0
 28 29  1  0  0  0  0
 29 33  1  0  0  0  0
 30 29  2  0  0  0  0
 31 26  1  0  0  0  0
 32 27  1  0  0  0  0
 33 40  1  0  0  0  0
 34 33  1  0  0  0  0
 34 35  2  0  0  0  0
 35 37  1  0  0  0  0
 36 35  1  0  0  0  0
 37 39  1  0  0  0  0
 37 38  2  0  0  0  0
 39 42  1  0  0  0  0
 40 41  2  0  0  0  0
 40 39  1  0  0  0  0
M  END
>  <minimizedAffinity>
-6.58183241

$$$$

 OpenBabel03242512233D

 42 45  0  0  0  0  0  0  0  0999 V2000
   33.9150   28.5860   36.8290 C   0  0  0  0  0  0  0  0  0  0  0  0
   33.5940   28.8540   35.5270 C   0  0  0  0  0  0  0  0  0  0  0  0
   34.5940   29.1150   34.6330 C   0  0  0  0  0  0  0  0  0  0  0  0
   35.9210   29.1030   35.0620 C   0  0  0  0  0  0  0  0  0  0  0  0
   36.2020   28.8280   36.3860 C   0  0  0  0  0  0  0  0  0  0  0  0
   35.1840   28.5600   37.3060 C   0  0  0  0  0  0  0  0  0  0  0  0
   34.3270   29.3270   33.5980 H   0  0  0  0  0  0  0  0  0  0  0  0
   36.6840   29.3110   34.3390 H   0  0  0  0  0  0  0  0  0  0  0  0
   37.2350   28.8260   36.6890 H   0  0  0  0  0  0  0  0  0  0  0  0
   32.1740   28.8450   35.1650 C   0  0  0  0  0  0  0  0  0  0  0  0
   31.6140   28.0420   35.6200 H   0  0  0  0  0  0  0  0  0  0  0  0
   32.1380   28.6510   34.0550 H   0  0  0  0  0  0  0  0  0  0  0  0
   31.5540   30.2090   35.3940 C   0  0  0  0  0  0  0  0  0  0  0  0
   31.5700   31.1040   34.3240 C   0  0  0  0  0  0  0  0  0  0  0  0
   30.9990   32.3470   34.5450 C   0  0  0  0  0  0  0  0  0  0  0  0
   30.4720   32.6160   35.7490 N   0  0  0  0  0  0  0  0  0  0  0  0
   30.4740   31.7160   36.7720 C   0  0  0  0  0  0  0  0  0  0  0  0
   31.0160   30.5220   36.5800 N   0  0  0  0  0  0  0  0  0  0  0  0
   32.0180   30.8100   33.3730 H   0  0  0  0  0  0  0  0  0  0  0  0
   30.9910   33.0710   33.7400 H   0  0  0  0  0  0  0  0  0  0  0  0
   30.0170   32.0560   37.6990 H   0  0  0  0  0  0  0  0  0  0  0  0
   32.9620   28.3070   37.8210 O   0  0  0  0  0  0  0  0  0  0  0  0
   32.9070   28.9210   38.6240 H   0  0  0  0  0  0  0  0  0  0  0  0
   35.5990   28.2980   38.6080 O   0  0  0  0  0  0  0  0  0  0  0  0
   36.2290   29.3710   39.2420 C   0  0  0  0  0  0  0  0  0  0  0  0
   35.6750   29.8710   40.3950 C   0  0  0  0  0  0  0  0  0  0  0  0
   36.2370   30.9420   41.0970 C   0  0  0  0  0  0  0  0  0  0  0  0
   37.3620   31.4970   40.6160 N   0  0  0  0  0  0  0  0  0  0  0  0
   37.9010   31.0110   39.4920 C   0  0  0  0  0  0  0  0  0  0  0  0
   37.3520   29.9790   38.8230 N   0  0  0  0  0  0  0  0  0  0  0  0
   34.7680   29.4180   40.7790 H   0  0  0  0  0  0  0  0  0  0  0  0
   35.7520   31.2830   41.9950 H   0  0  0  0  0  0  0  0  0  0  0  0
   39.0870   31.5140   38.8860 N   0  0  0  0  0  0  0  0  0  0  0  0
   40.2640   31.6320   39.5630 C   0  0  0  0  0  3  0  0  0  0  0  0
   41.3810   32.1270   38.9220 C   0  0  0  0  0  0  0  0  0  0  0  0
   42.2850   32.1950   39.5170 H   0  0  0  0  0  0  0  0  0  0  0  0
   41.3060   32.5050   37.5980 C   0  0  0  0  0  0  0  0  0  0  0  0
   42.3380   32.9540   37.0320 O   0  0  0  0  0  0  0  0  0  0  0  0
   40.1430   32.3960   36.9070 N   0  0  0  0  0  0  0  0  0  0  0  0
   39.1170   31.9090   37.6000 C   0  0  0  0  0  0  0  0  0  0  0  0
   38.0130   31.7960   36.9790 O   0  0  0  0  0  0  0  0  0  0  0  0
   40.0500   32.6680   35.9170 H   0  0  0  0  0  0  0  0  0  0  0  0
  1  6  1  0  0  0  0
  1 22  1  0  0  0  0
  2  1  2  0  0  0  0
  3  4  2  0  0  0  0
  3  2  1  0  0  0  0
  4  5  1  0  0  0  0
  5  9  1  0  0  0  0
  5  6  2  0  0  0  0
  6 24  1  0  0  0  0
  7  3  1  0  0  0  0
  8  4  1  0  0  0  0
 10 13  1  0  0  0  0
 10  2  1  0  0  0  0
 10 11  1  0  0  0  0
 12 10  1  0  0  0  0
 13 18  1  0  0  0  0
 14 15  1  0  0  0  0
 14 13  2  0  0  0  0
 15 16  2  0  0  0  0
 16 17  1  0  0  0  0
 17 21  1  0  0  0  0
 18 17  2  0  0  0  0
 19 14  1  0  0  0  0
 20 15  1  0  0  0  0
 22 23  1  0  0  0  0
 24 25  1  0  0  0  0
 25 26  1  0  0  0  0
 26 31  1  0  0  0  0
 26 27  2  0  0  0  0
 27 32  1  0  0  0  0
 28 27  1  0  0  0  0
 29 28  2  0  0  0  0
 30 25  2  0  0  0  0
 30 29  1  0  0  0  0
 33 29  1  0  0  0  0
 33 34  1  0  0  0  0
 35 36  1  0  0  0  0
 35 34  2  0  0  0  0
 37 35  1  0  0  0  0
 38 37  2  0  0  0  0
 39 37  1  0  0  0  0
 39 40  1  0  0  0  0
 40 33  1  0  0  0  0
 41 40  2  0  0  0  0
 42 39  1  0  0  0  0
M  END
>  <minimizedAffinity>
-6.54652452

$$$$

 OpenBabel03242512233D

 42 45  0  0  0  0  0  0  0  0999 V2000
   33.0260   29.0630   38.0630 C   0  0  0  0  0  0  0  0  0  0  0  0
   32.9990   28.7820   36.7240 C   0  0  0  0  0  0  0  0  0  0  0  0
   34.1690   28.4940   36.0790 C   0  0  0  0  0  0  0  0  0  0  0  0
   35.3660   28.4910   36.7940 C   0  0  0  0  0  0  0  0  0  0  0  0
   35.3500   28.7800   38.1450 C   0  0  0  0  0  0  0  0  0  0  0  0
   34.1560   29.0750   38.8110 C   0  0  0  0  0  0  0  0  0  0  0  0
   34.1360   28.2720   35.0130 H   0  0  0  0  0  0  0  0  0  0  0  0
   36.2680   28.2620   36.2630 H   0  0  0  0  0  0  0  0  0  0  0  0
   36.2890   28.7700   38.6710 H   0  0  0  0  0  0  0  0  0  0  0  0
   31.6960   28.8090   36.0540 C   0  0  0  0  0  0  0  0  0  0  0  0
   30.9280   28.2570   36.5740 H   0  0  0  0  0  0  0  0  0  0  0  0
   31.8430   28.2740   35.0710 H   0  0  0  0  0  0  0  0  0  0  0  0
   31.2910   30.2310   35.7260 C   0  0  0  0  0  0  0  0  0  0  0  0
   31.7190   30.7500   34.5040 C   0  0  0  0  0  0  0  0  0  0  0  0
   31.3410   32.0520   34.2140 C   0  0  0  0  0  0  0  0  0  0  0  0
   30.5990   32.7260   35.1050 N   0  0  0  0  0  0  0  0  0  0  0  0
   30.1990   32.1860   36.2910 C   0  0  0  0  0  0  0  0  0  0  0  0
   30.5510   30.9430   36.5850 N   0  0  0  0  0  0  0  0  0  0  0  0
   32.3210   30.1360   33.8310 H   0  0  0  0  0  0  0  0  0  0  0  0
   31.6530   32.4920   33.2760 H   0  0  0  0  0  0  0  0  0  0  0  0
   29.6020   32.8370   36.9270 H   0  0  0  0  0  0  0  0  0  0  0  0
   31.8800   29.3690   38.8140 O   0  0  0  0  0  0  0  0  0  0  0  0
   31.8300   30.2710   39.2700 H   0  0  0  0  0  0  0  0  0  0  0  0
   34.2740   29.3480   40.1710 O   0  0  0  0  0  0  0  0  0  0  0  0
   35.5880   29.5150   40.6160 C   0  0  0  0  0  0  0  0  0  0  0  0
   36.1510   30.7660   40.5440 C   0  0  0  0  0  0  0  0  0  0  0  0
   37.4590   31.0260   40.9660 C   0  0  0  0  0  0  0  0  0  0  0  0
   38.1830   30.0070   41.4590 N   0  0  0  0  0  0  0  0  0  0  0  0
   37.6330   28.7890   41.5290 C   0  0  0  0  0  0  0  0  0  0  0  0
   36.3730   28.5490   41.1190 N   0  0  0  0  0  0  0  0  0  0  0  0
   35.5620   31.5840   40.1460 H   0  0  0  0  0  0  0  0  0  0  0  0
   37.8390   32.0290   40.8830 H   0  0  0  0  0  0  0  0  0  0  0  0
   38.2980   27.6350   42.0300 N   0  0  0  0  0  0  0  0  0  0  0  0
   38.8720   27.5970   43.2660 C   0  0  0  0  0  3  0  0  0  0  0  0
   39.5040   26.4490   43.6970 C   0  0  0  0  0  0  0  0  0  0  0  0
   39.9390   26.4840   44.6900 H   0  0  0  0  0  0  0  0  0  0  0  0
   39.5560   25.3400   42.8780 C   0  0  0  0  0  0  0  0  0  0  0  0
   40.1370   24.3020   43.2930 O   0  0  0  0  0  0  0  0  0  0  0  0
   38.9910   25.3590   41.6450 N   0  0  0  0  0  0  0  0  0  0  0  0
   38.4030   26.5040   41.3080 C   0  0  0  0  0  0  0  0  0  0  0  0
   37.8660   26.5510   40.1570 O   0  0  0  0  0  0  0  0  0  0  0  0
   39.0100   24.5500   41.0050 H   0  0  0  0  0  0  0  0  0  0  0  0
  1  6  1  0  0  0  0
  1 22  1  0  0  0  0
  2  1  2  0  0  0  0
  3  2  1  0  0  0  0
  3  4  2  0  0  0  0
  4  5  1  0  0  0  0
  5  9  1  0  0  0  0
  5  6  2  0  0  0  0
  6 24  1  0  0  0  0
  7  3  1  0  0  0  0
  8  4  1  0  0  0  0
 10 11  1  0  0  0  0
 10  2  1  0  0  0  0
 12 10  1  0  0  0  0
 13 10  1  0  0  0  0
 13 18  1  0  0  0  0
 14 13  2  0  0  0  0
 15 14  1  0  0  0  0
 15 16  2  0  0  0  0
 16 17  1  0  0  0  0
 17 18  2  0  0  0  0
 17 21  1  0  0  0  0
 19 14  1  0  0  0  0
 20 15  1  0  0  0  0
 22 23  1  0  0  0  0
 24 25  1  0  0  0  0
 25 30  1  0  0  0  0
 26 25  2  0  0  0  0
 26 27  1  0  0  0  0
 27 28  2  0  0  0  0
 28 29  1  0  0  0  0
 29 33  1  0  0  0  0
 30 29  2  0  0  0  0
 31 26  1  0  0  0  0
 32 27  1  0  0  0  0
 33 34  1  0  0  0  0
 34 35  2  0  0  0  0
 35 36  1  0  0  0  0
 37 38  2  0  0  0  0
 37 35  1  0  0  0  0
 39 37  1  0  0  0  0
 40 39  1  0  0  0  0
 40 33  1  0  0  0  0
 41 40  2  0  0  0  0
 42 39  1  0  0  0  0
M  END
>  <minimizedAffinity>
-6.44960117

$$$$
