
 OpenBabel03242516513D

 44 47  0  0  1  0  0  0  0  0999 V2000
   36.5740   30.6080   39.0590 C   0  0  1  0  0  0  0  0  0  0  0  0
   36.7400   29.7040   37.9040 C   0  0  0  0  0  0  0  0  0  0  0  0
   35.3220   29.4390   37.3870 C   0  0  0  0  0  0  0  0  0  0  0  0
   34.6510   28.5650   38.4300 C   0  0  0  0  0  0  0  0  0  0  0  0
   34.6520   29.1680   39.8040 C   0  0  0  0  0  0  0  0  0  0  0  0
   35.8240   29.9560   40.2030 C   0  0  1  0  0  0  0  0  0  0  0  0
   35.8900   31.4570   38.7540 H   0  0  0  0  0  0  0  0  0  0  0  0
   37.2020   28.7390   38.1620 H   0  0  0  0  0  0  0  0  0  0  0  0
   37.2880   30.2450   37.1050 H   0  0  0  0  0  0  0  0  0  0  0  0
   34.7860   30.3980   37.2490 H   0  0  0  0  0  0  0  0  0  0  0  0
   35.3940   28.8420   36.4630 H   0  0  0  0  0  0  0  0  0  0  0  0
   35.1790   27.5770   38.4020 H   0  0  0  0  0  0  0  0  0  0  0  0
   33.6250   28.3910   38.0890 H   0  0  0  0  0  0  0  0  0  0  0  0
   34.5080   28.3210   40.5300 H   0  0  0  0  0  0  0  0  0  0  0  0
   33.7070   29.7680   39.8860 H   0  0  0  0  0  0  0  0  0  0  0  0
   35.4690   30.8230   40.8410 H   0  0  0  0  0  0  0  0  0  0  0  0
   36.7400   29.2190   41.0910 C   0  0  0  0  0  0  0  0  0  0  0  0
   37.3920   29.7110   42.2290 C   0  0  0  0  0  0  0  0  0  0  0  0
   38.1910   28.8110   42.9160 C   0  0  0  0  0  0  0  0  0  0  0  0
   38.2850   27.5180   42.4380 C   0  0  0  0  0  0  0  0  0  0  0  0
   37.6430   27.0430   41.3220 C   0  0  0  0  0  0  0  0  0  0  0  0
   36.8600   27.9310   40.6510 N   0  0  0  0  0  0  0  0  0  0  0  0
   37.2090   30.7210   42.4500 H   0  0  0  0  0  0  0  0  0  0  0  0
   38.6960   29.1870   43.7940 H   0  0  0  0  0  0  0  0  0  0  0  0
   38.9350   26.8850   43.0430 H   0  0  0  0  0  0  0  0  0  0  0  0
   37.8120   25.6850   40.9160 N   0  0  0  0  0  0  0  0  0  0  0  0
   37.5770   25.1580   39.6950 C   0  0  0  0  0  3  0  0  0  0  0  0
   37.8000   23.8090   39.4930 C   0  0  0  0  0  0  0  0  0  0  0  0
   37.5930   23.4510   38.4940 H   0  0  0  0  0  0  0  0  0  0  0  0
   38.2590   23.0180   40.5360 C   0  0  0  0  0  0  0  0  0  0  0  0
   38.4490   21.7860   40.3050 O   0  0  0  0  0  0  0  0  0  0  0  0
   38.4770   23.5850   41.7260 N   0  0  0  0  0  0  0  0  0  0  0  0
   38.2600   24.8920   41.9210 C   0  0  0  0  0  0  0  0  0  0  0  0
   38.5140   25.2640   43.0980 O   0  0  0  0  0  0  0  0  0  0  0  0
   38.8240   22.9210   42.4680 H   0  0  0  0  0  0  0  0  0  0  0  0
   38.8840   33.1200   40.6800 C   0  0  0  0  0  0  0  0  0  0  0  0
   37.7510   32.4660   40.1990 C   0  0  0  0  0  0  0  0  0  0  0  0
   37.7930   31.2400   39.5500 C   0  0  0  0  0  0  0  0  0  0  0  0
   39.0150   30.7010   39.4050 N   0  0  0  0  0  0  0  0  0  0  0  0
   40.1260   31.3250   39.8680 C   0  0  0  0  0  0  0  0  0  0  0  0
   40.0790   32.4970   40.4880 N   0  0  0  0  0  0  0  0  0  0  0  0
   38.7750   34.0750   41.1770 H   0  0  0  0  0  0  0  0  0  0  0  0
   36.7880   32.9590   40.3480 H   0  0  0  0  0  0  0  0  0  0  0  0
   41.0400   30.7730   39.6800 H   0  0  0  0  0  0  0  0  0  0  0  0
  1  7  1  6  0  0  0
  1 38  1  0  0  0  0
  1  6  1  0  0  0  0
  2  8  1  0  0  0  0
  2  1  1  0  0  0  0
  3  2  1  0  0  0  0
  3  4  1  0  0  0  0
  4  5  1  0  0  0  0
  5 15  1  0  0  0  0
  5  6  1  0  0  0  0
  5 14  1  0  0  0  0
  6 16  1  1  0  0  0
  6 17  1  0  0  0  0
  9  2  1  0  0  0  0
 10  3  1  0  0  0  0
 11  3  1  0  0  0  0
 12  4  1  0  0  0  0
 13  4  1  0  0  0  0
 17 18  1  0  0  0  0
 18 23  1  0  0  0  0
 18 19  2  0  0  0  0
 19 24  1  0  0  0  0
 20 19  1  0  0  0  0
 20 25  1  0  0  0  0
 21 20  2  0  0  0  0
 22 17  2  0  0  0  0
 22 21  1  0  0  0  0
 26 21  1  0  0  0  0
 26 33  1  0  0  0  0
 27 26  1  0  0  0  0
 28 27  2  0  0  0  0
 28 30  1  0  0  0  0
 29 28  1  0  0  0  0
 30 32  1  0  0  0  0
 31 30  2  0  0  0  0
 32 33  1  0  0  0  0
 32 35  1  0  0  0  0
 33 34  2  0  0  0  0
 36 42  1  0  0  0  0
 37 43  1  0  0  0  0
 37 36  2  0  0  0  0
 38 37  1  0  0  0  0
 39 38  2  0  0  0  0
 39 40  1  0  0  0  0
 40 41  2  0  0  0  0
 41 36  1  0  0  0  0
 44 40  1  0  0  0  0
M  END
>  <minimizedAffinity>
-6.74769068

$$$$

 OpenBabel03242516513D

 44 47  0  0  1  0  0  0  0  0999 V2000
   37.8610   26.7360   41.5590 C   0  0  1  0  0  0  0  0  0  0  0  0
   39.2600   27.1620   41.7600 C   0  0  0  0  0  0  0  0  0  0  0  0
   39.3170   27.7180   43.1860 C   0  0  0  0  0  0  0  0  0  0  0  0
   38.5470   29.0250   43.1600 C   0  0  0  0  0  0  0  0  0  0  0  0
   37.1390   28.8780   42.6620 C   0  0  0  0  0  0  0  0  0  0  0  0
   36.8900   27.8990   41.5970 C   0  0  1  0  0  0  0  0  0  0  0  0
   37.5470   26.1100   42.4480 H   0  0  0  0  0  0  0  0  0  0  0  0
   39.5840   27.9530   41.0660 H   0  0  0  0  0  0  0  0  0  0  0  0
   39.9130   26.2660   41.7270 H   0  0  0  0  0  0  0  0  0  0  0  0
   38.8680   26.9920   43.8910 H   0  0  0  0  0  0  0  0  0  0  0  0
   40.3650   27.9650   43.4220 H   0  0  0  0  0  0  0  0  0  0  0  0
   39.1460   29.7320   42.5290 H   0  0  0  0  0  0  0  0  0  0  0  0
   38.5530   29.4210   44.1800 H   0  0  0  0  0  0  0  0  0  0  0  0
   36.8090   29.8960   42.3170 H   0  0  0  0  0  0  0  0  0  0  0  0
   36.5060   28.6720   43.5650 H   0  0  0  0  0  0  0  0  0  0  0  0
   35.8800   27.4190   41.7850 H   0  0  0  0  0  0  0  0  0  0  0  0
   36.7440   28.5170   40.2680 C   0  0  0  0  0  0  0  0  0  0  0  0
   35.6380   28.4290   39.4130 C   0  0  0  0  0  0  0  0  0  0  0  0
   35.7310   29.1210   38.2160 C   0  0  0  0  0  0  0  0  0  0  0  0
   36.8870   29.8340   37.9580 C   0  0  0  0  0  0  0  0  0  0  0  0
   37.9660   29.9140   38.8010 C   0  0  0  0  0  0  0  0  0  0  0  0
   37.8690   29.2340   39.9740 N   0  0  0  0  0  0  0  0  0  0  0  0
   34.8410   27.8430   39.7670 H   0  0  0  0  0  0  0  0  0  0  0  0
   34.8800   29.0560   37.5530 H   0  0  0  0  0  0  0  0  0  0  0  0
   36.8670   30.3430   36.9940 H   0  0  0  0  0  0  0  0  0  0  0  0
   39.1130   30.6820   38.4330 N   0  0  0  0  0  0  0  0  0  0  0  0
   40.3630   30.5810   38.9330 C   0  0  0  0  0  3  0  0  0  0  0  0
   41.3490   31.4180   38.4470 C   0  0  0  0  0  0  0  0  0  0  0  0
   42.3270   31.2860   38.8900 H   0  0  0  0  0  0  0  0  0  0  0  0
   41.0480   32.3440   37.4590 C   0  0  0  0  0  0  0  0  0  0  0  0
   41.9840   33.0910   37.0440 O   0  0  0  0  0  0  0  0  0  0  0  0
   39.7970   32.4060   36.9960 N   0  0  0  0  0  0  0  0  0  0  0  0
   38.8410   31.5950   37.4670 C   0  0  0  0  0  0  0  0  0  0  0  0
   37.7200   31.7840   36.9240 O   0  0  0  0  0  0  0  0  0  0  0  0
   39.6450   33.1340   36.2470 H   0  0  0  0  0  0  0  0  0  0  0  0
   36.2700   24.1950   39.2620 C   0  0  0  0  0  0  0  0  0  0  0  0
   36.5490   25.0160   40.3520 C   0  0  0  0  0  0  0  0  0  0  0  0
   37.6120   25.9090   40.3850 C   0  0  0  0  0  0  0  0  0  0  0  0
   38.3780   25.9410   39.2820 N   0  0  0  0  0  0  0  0  0  0  0  0
   38.1180   25.1490   38.2140 C   0  0  0  0  0  0  0  0  0  0  0  0
   37.1010   24.2970   38.1880 N   0  0  0  0  0  0  0  0  0  0  0  0
   35.4220   23.5220   39.3060 H   0  0  0  0  0  0  0  0  0  0  0  0
   35.8880   24.9410   41.2180 H   0  0  0  0  0  0  0  0  0  0  0  0
   38.8190   25.2820   37.3970 H   0  0  0  0  0  0  0  0  0  0  0  0
  1  6  1  0  0  0  0
  1  2  1  0  0  0  0
  1  7  1  1  0  0  0
  2  3  1  0  0  0  0
  3 11  1  0  0  0  0
  3 10  1  0  0  0  0
  4  3  1  0  0  0  0
  4 13  1  0  0  0  0
  5  4  1  0  0  0  0
  5 15  1  0  0  0  0
  6 16  1  1  0  0  0
  6  5  1  0  0  0  0
  8  2  1  0  0  0  0
  9  2  1  0  0  0  0
 12  4  1  0  0  0  0
 14  5  1  0  0  0  0
 17  6  1  0  0  0  0
 18 23  1  0  0  0  0
 18 17  2  0  0  0  0
 19 18  1  0  0  0  0
 20 19  2  0  0  0  0
 20 21  1  0  0  0  0
 21 22  2  0  0  0  0
 22 17  1  0  0  0  0
 24 19  1  0  0  0  0
 25 20  1  0  0  0  0
 26 21  1  0  0  0  0
 26 27  1  0  0  0  0
 28 29  1  0  0  0  0
 28 27  2  0  0  0  0
 30 28  1  0  0  0  0
 31 30  2  0  0  0  0
 32 30  1  0  0  0  0
 32 33  1  0  0  0  0
 33 26  1  0  0  0  0
 34 33  2  0  0  0  0
 35 32  1  0  0  0  0
 36 42  1  0  0  0  0
 36 37  1  0  0  0  0
 37 38  2  0  0  0  0
 37 43  1  0  0  0  0
 38  1  1  0  0  0  0
 39 38  1  0  0  0  0
 40 39  2  0  0  0  0
 41 40  1  0  0  0  0
 41 36  2  0  0  0  0
 44 40  1  0  0  0  0
M  END
>  <minimizedAffinity>
-6.54278994

$$$$

 OpenBabel03242516513D

 44 47  0  0  1  0  0  0  0  0999 V2000
   37.7110   31.1120   39.5190 C   0  0  1  0  0  0  0  0  0  0  0  0
   37.3550   32.3170   40.2930 C   0  0  0  0  0  0  0  0  0  0  0  0
   38.5680   33.2470   40.1830 C   0  0  0  0  0  0  0  0  0  0  0  0
   39.6670   32.6040   41.0080 C   0  0  0  0  0  0  0  0  0  0  0  0
   39.9870   31.2000   40.5870 C   0  0  0  0  0  0  0  0  0  0  0  0
   38.8770   30.3570   40.1250 C   0  0  1  0  0  0  0  0  0  0  0  0
   38.1120   31.4390   38.5130 H   0  0  0  0  0  0  0  0  0  0  0  0
   37.1670   32.1160   41.3590 H   0  0  0  0  0  0  0  0  0  0  0  0
   36.5030   32.8220   39.7940 H   0  0  0  0  0  0  0  0  0  0  0  0
   38.8630   33.3550   39.1210 H   0  0  0  0  0  0  0  0  0  0  0  0
   38.3180   34.2050   40.6680 H   0  0  0  0  0  0  0  0  0  0  0  0
   39.3330   32.6590   42.0760 H   0  0  0  0  0  0  0  0  0  0  0  0
   40.5510   33.2430   40.9150 H   0  0  0  0  0  0  0  0  0  0  0  0
   40.4900   30.7050   41.4620 H   0  0  0  0  0  0  0  0  0  0  0  0
   40.7930   31.2790   39.8100 H   0  0  0  0  0  0  0  0  0  0  0  0
   39.2570   29.6990   39.2830 H   0  0  0  0  0  0  0  0  0  0  0  0
   38.4200   29.3950   41.1420 C   0  0  0  0  0  0  0  0  0  0  0  0
   37.8630   29.6890   42.3930 C   0  0  0  0  0  0  0  0  0  0  0  0
   37.4880   28.6030   43.1690 C   0  0  0  0  0  0  0  0  0  0  0  0
   37.6870   27.3330   42.6610 C   0  0  0  0  0  0  0  0  0  0  0  0
   38.2340   27.0540   41.4350 C   0  0  0  0  0  0  0  0  0  0  0  0
   38.6000   28.1230   40.6770 N   0  0  0  0  0  0  0  0  0  0  0  0
   37.7840   30.7110   42.6210 H   0  0  0  0  0  0  0  0  0  0  0  0
   37.0590   28.8260   44.1350 H   0  0  0  0  0  0  0  0  0  0  0  0
   37.3630   26.5460   43.3420 H   0  0  0  0  0  0  0  0  0  0  0  0
   38.3950   25.7000   41.0080 N   0  0  0  0  0  0  0  0  0  0  0  0
   39.2170   25.2360   40.0440 C   0  0  0  0  0  3  0  0  0  0  0  0
   39.2330   23.8810   39.7720 C   0  0  0  0  0  0  0  0  0  0  0  0
   39.9140   23.5750   38.9890 H   0  0  0  0  0  0  0  0  0  0  0  0
   38.4110   23.0210   40.4850 C   0  0  0  0  0  0  0  0  0  0  0  0
   38.4590   21.7860   40.2000 O   0  0  0  0  0  0  0  0  0  0  0  0
   37.6150   23.5270   41.4290 N   0  0  0  0  0  0  0  0  0  0  0  0
   37.5990   24.8400   41.6930 C   0  0  0  0  0  0  0  0  0  0  0  0
   36.7930   25.1510   42.6100 O   0  0  0  0  0  0  0  0  0  0  0  0
   37.0200   22.8120   41.9270 H   0  0  0  0  0  0  0  0  0  0  0  0
   35.5620   28.5800   37.7190 C   0  0  0  0  0  0  0  0  0  0  0  0
   36.5890   29.4610   38.0520 C   0  0  0  0  0  0  0  0  0  0  0  0
   36.6140   30.1970   39.2290 C   0  0  0  0  0  0  0  0  0  0  0  0
   35.5680   30.0130   40.0520 N   0  0  0  0  0  0  0  0  0  0  0  0
   34.5620   29.1590   39.7410 C   0  0  0  0  0  0  0  0  0  0  0  0
   34.5450   28.4570   38.6150 N   0  0  0  0  0  0  0  0  0  0  0  0
   35.6100   28.0370   36.7830 H   0  0  0  0  0  0  0  0  0  0  0  0
   37.4090   29.5650   37.3400 H   0  0  0  0  0  0  0  0  0  0  0  0
   33.7870   29.1120   40.4980 H   0  0  0  0  0  0  0  0  0  0  0  0
  1  7  1  6  0  0  0
  1  6  1  0  0  0  0
  1  2  1  0  0  0  0
  2  8  1  0  0  0  0
  3  2  1  0  0  0  0
  3 11  1  0  0  0  0
  3  4  1  0  0  0  0
  4 12  1  0  0  0  0
  5  4  1  0  0  0  0
  5 14  1  0  0  0  0
  6 16  1  6  0  0  0
  6  5  1  0  0  0  0
  6 17  1  0  0  0  0
  9  2  1  0  0  0  0
 10  3  1  0  0  0  0
 13  4  1  0  0  0  0
 15  5  1  0  0  0  0
 17 18  1  0  0  0  0
 18 23  1  0  0  0  0
 18 19  2  0  0  0  0
 19 24  1  0  0  0  0
 20 19  1  0  0  0  0
 20 25  1  0  0  0  0
 21 20  2  0  0  0  0
 22 17  2  0  0  0  0
 22 21  1  0  0  0  0
 26 21  1  0  0  0  0
 26 33  1  0  0  0  0
 27 26  1  0  0  0  0
 28 27  2  0  0  0  0
 28 30  1  0  0  0  0
 29 28  1  0  0  0  0
 30 32  1  0  0  0  0
 31 30  2  0  0  0  0
 32 33  1  0  0  0  0
 32 35  1  0  0  0  0
 33 34  2  0  0  0  0
 36 37  2  0  0  0  0
 36 41  1  0  0  0  0
 37 38  1  0  0  0  0
 38  1  1  0  0  0  0
 38 39  2  0  0  0  0
 40 39  1  0  0  0  0
 40 44  1  0  0  0  0
 41 40  2  0  0  0  0
 42 36  1  0  0  0  0
 43 37  1  0  0  0  0
M  END
>  <minimizedAffinity>
-6.32151651

$$$$

 OpenBabel03242516513D

 44 47  0  0  1  0  0  0  0  0999 V2000
   37.0430   28.2690   41.2830 C   0  0  1  0  0  0  0  0  0  0  0  0
   38.2070   27.3930   41.0430 C   0  0  0  0  0  0  0  0  0  0  0  0
   38.8190   27.1400   42.4240 C   0  0  0  0  0  0  0  0  0  0  0  0
   39.4440   28.4540   42.8550 C   0  0  0  0  0  0  0  0  0  0  0  0
   38.4760   29.6020   42.8620 C   0  0  0  0  0  0  0  0  0  0  0  0
   37.4410   29.6280   41.8220 C   0  0  1  0  0  0  0  0  0  0  0  0
   36.4310   27.8270   42.1260 H   0  0  0  0  0  0  0  0  0  0  0  0
   38.9760   27.8480   40.4000 H   0  0  0  0  0  0  0  0  0  0  0  0
   37.8450   26.4180   40.6570 H   0  0  0  0  0  0  0  0  0  0  0  0
   38.0320   26.8100   43.1300 H   0  0  0  0  0  0  0  0  0  0  0  0
   39.6400   26.4130   42.3140 H   0  0  0  0  0  0  0  0  0  0  0  0
   40.3070   28.6350   42.1630 H   0  0  0  0  0  0  0  0  0  0  0  0
   39.8600   28.2980   43.8540 H   0  0  0  0  0  0  0  0  0  0  0  0
   39.0880   30.5430   42.8020 H   0  0  0  0  0  0  0  0  0  0  0  0
   38.0260   29.6270   43.8900 H   0  0  0  0  0  0  0  0  0  0  0  0
   36.4890   30.0420   42.2780 H   0  0  0  0  0  0  0  0  0  0  0  0
   37.7440   30.5680   40.7290 C   0  0  0  0  0  0  0  0  0  0  0  0
   37.1180   31.7940   40.4710 C   0  0  0  0  0  0  0  0  0  0  0  0
   37.6000   32.5140   39.3890 C   0  0  0  0  0  0  0  0  0  0  0  0
   38.6430   31.9800   38.6570 C   0  0  0  0  0  0  0  0  0  0  0  0
   39.2510   30.7780   38.9160 C   0  0  0  0  0  0  0  0  0  0  0  0
   38.7750   30.0760   39.9800 N   0  0  0  0  0  0  0  0  0  0  0  0
   36.3390   32.0480   41.1290 H   0  0  0  0  0  0  0  0  0  0  0  0
   37.1180   33.4600   39.1870 H   0  0  0  0  0  0  0  0  0  0  0  0
   38.9520   32.6160   37.8280 H   0  0  0  0  0  0  0  0  0  0  0  0
   40.3250   30.3210   38.0930 N   0  0  0  0  0  0  0  0  0  0  0  0
   40.7780   29.0560   37.9640 C   0  0  0  0  0  3  0  0  0  0  0  0
   41.8360   28.8070   37.1110 C   0  0  0  0  0  0  0  0  0  0  0  0
   42.1500   27.7730   37.0530 H   0  0  0  0  0  0  0  0  0  0  0  0
   42.4170   29.8490   36.4040 C   0  0  0  0  0  0  0  0  0  0  0  0
   43.3860   29.5740   35.6340 O   0  0  0  0  0  0  0  0  0  0  0  0
   41.9340   31.0840   36.5650 N   0  0  0  0  0  0  0  0  0  0  0  0
   40.9080   31.3250   37.3920 C   0  0  0  0  0  0  0  0  0  0  0  0
   40.5770   32.5400   37.4280 O   0  0  0  0  0  0  0  0  0  0  0  0
   42.4260   31.8220   35.9950 H   0  0  0  0  0  0  0  0  0  0  0  0
   33.9590   29.1850   39.3020 C   0  0  0  0  0  0  0  0  0  0  0  0
   34.8820   29.0220   40.3330 C   0  0  0  0  0  0  0  0  0  0  0  0
   36.1220   28.4200   40.1630 C   0  0  0  0  0  0  0  0  0  0  0  0
   36.3930   27.9900   38.9190 N   0  0  0  0  0  0  0  0  0  0  0  0
   35.5050   28.1420   37.9060 C   0  0  0  0  0  0  0  0  0  0  0  0
   34.3220   28.7190   38.0750 N   0  0  0  0  0  0  0  0  0  0  0  0
   33.0110   29.6650   39.5080 H   0  0  0  0  0  0  0  0  0  0  0  0
   34.6000   29.3930   41.3200 H   0  0  0  0  0  0  0  0  0  0  0  0
   35.8590   27.7480   36.9600 H   0  0  0  0  0  0  0  0  0  0  0  0
  1  6  1  0  0  0  0
  1  7  1  1  0  0  0
  2  1  1  0  0  0  0
  2  3  1  0  0  0  0
  3  4  1  0  0  0  0
  3 10  1  0  0  0  0
  4  5  1  0  0  0  0
  4 13  1  0  0  0  0
  5 15  1  0  0  0  0
  6 16  1  1  0  0  0
  6  5  1  0  0  0  0
  8  2  1  0  0  0  0
  9  2  1  0  0  0  0
 11  3  1  0  0  0  0
 12  4  1  0  0  0  0
 14  5  1  0  0  0  0
 17  6  1  0  0  0  0
 18 17  1  0  0  0  0
 18 23  1  0  0  0  0
 19 18  2  0  0  0  0
 20 21  2  0  0  0  0
 20 19  1  0  0  0  0
 21 22  1  0  0  0  0
 22 17  2  0  0  0  0
 24 19  1  0  0  0  0
 25 20  1  0  0  0  0
 26 21  1  0  0  0  0
 27 26  1  0  0  0  0
 28 27  2  0  0  0  0
 29 28  1  0  0  0  0
 30 32  1  0  0  0  0
 30 28  1  0  0  0  0
 31 30  2  0  0  0  0
 32 33  1  0  0  0  0
 33 34  2  0  0  0  0
 33 26  1  0  0  0  0
 35 32  1  0  0  0  0
 36 42  1  0  0  0  0
 36 37  1  0  0  0  0
 37 43  1  0  0  0  0
 38 37  2  0  0  0  0
 38  1  1  0  0  0  0
 39 38  1  0  0  0  0
 40 41  1  0  0  0  0
 40 39  2  0  0  0  0
 41 36  2  0  0  0  0
 44 40  1  0  0  0  0
M  END
>  <minimizedAffinity>
-6.25872707

$$$$

 OpenBabel03242516513D

 44 47  0  0  1  0  0  0  0  0999 V2000
   37.7970   26.2720   41.1980 C   0  0  1  0  0  0  0  0  0  0  0  0
   39.2380   26.5150   41.4080 C   0  0  0  0  0  0  0  0  0  0  0  0
   39.4960   26.1910   42.8830 C   0  0  0  0  0  0  0  0  0  0  0  0
   38.8280   27.2970   43.6800 C   0  0  0  0  0  0  0  0  0  0  0  0
   37.3650   27.4500   43.3770 C   0  0  0  0  0  0  0  0  0  0  0  0
   36.9270   27.2210   41.9960 C   0  0  1  0  0  0  0  0  0  0  0  0
   37.5390   25.2590   41.6330 H   0  0  0  0  0  0  0  0  0  0  0  0
   39.5410   27.5570   41.2230 H   0  0  0  0  0  0  0  0  0  0  0  0
   39.8140   25.7850   40.8030 H   0  0  0  0  0  0  0  0  0  0  0  0
   39.0750   25.1970   43.1300 H   0  0  0  0  0  0  0  0  0  0  0  0
   40.5790   26.2670   43.0730 H   0  0  0  0  0  0  0  0  0  0  0  0
   39.4030   28.2340   43.4640 H   0  0  0  0  0  0  0  0  0  0  0  0
   38.9780   27.0640   44.7380 H   0  0  0  0  0  0  0  0  0  0  0  0
   37.0760   28.4900   43.6920 H   0  0  0  0  0  0  0  0  0  0  0  0
   36.8230   26.7810   44.0960 H   0  0  0  0  0  0  0  0  0  0  0  0
   35.9110   26.7190   42.0240 H   0  0  0  0  0  0  0  0  0  0  0  0
   36.6790   28.4700   41.2540 C   0  0  0  0  0  0  0  0  0  0  0  0
   35.4940   28.8510   40.6130 C   0  0  0  0  0  0  0  0  0  0  0  0
   35.5010   30.0930   39.9970 C   0  0  0  0  0  0  0  0  0  0  0  0
   36.6550   30.8500   40.0590 C   0  0  0  0  0  0  0  0  0  0  0  0
   37.8120   30.4690   40.6890 C   0  0  0  0  0  0  0  0  0  0  0  0
   37.8000   29.2500   41.2920 N   0  0  0  0  0  0  0  0  0  0  0  0
   34.7110   28.1520   40.6630 H   0  0  0  0  0  0  0  0  0  0  0  0
   34.5880   30.3900   39.5010 H   0  0  0  0  0  0  0  0  0  0  0  0
   36.5650   31.8080   39.5470 H   0  0  0  0  0  0  0  0  0  0  0  0
   38.9500   31.3330   40.6920 N   0  0  0  0  0  0  0  0  0  0  0  0
   40.2370   30.9950   40.9210 C   0  0  0  0  0  3  0  0  0  0  0  0
   41.2050   31.9790   40.8810 C   0  0  0  0  0  0  0  0  0  0  0  0
   42.2150   31.6420   41.0730 H   0  0  0  0  0  0  0  0  0  0  0  0
   40.8500   33.2920   40.6090 C   0  0  0  0  0  0  0  0  0  0  0  0
   41.7730   34.1610   40.5830 O   0  0  0  0  0  0  0  0  0  0  0  0
   39.5640   33.5770   40.3890 N   0  0  0  0  0  0  0  0  0  0  0  0
   38.6250   32.6230   40.4280 C   0  0  0  0  0  0  0  0  0  0  0  0
   37.4660   33.0610   40.1980 O   0  0  0  0  0  0  0  0  0  0  0  0
   39.3720   34.5950   40.1890 H   0  0  0  0  0  0  0  0  0  0  0  0
   37.7230   26.8370   37.4640 C   0  0  0  0  0  0  0  0  0  0  0  0
   38.1000   26.8380   38.8060 C   0  0  0  0  0  0  0  0  0  0  0  0
   37.3570   26.2290   39.8090 C   0  0  0  0  0  0  0  0  0  0  0  0
   36.2260   25.6240   39.4090 N   0  0  0  0  0  0  0  0  0  0  0  0
   35.8480   25.6150   38.1080 C   0  0  0  0  0  0  0  0  0  0  0  0
   36.5620   26.1980   37.1540 N   0  0  0  0  0  0  0  0  0  0  0  0
   38.3520   27.3320   36.7350 H   0  0  0  0  0  0  0  0  0  0  0  0
   39.0290   27.3480   39.0640 H   0  0  0  0  0  0  0  0  0  0  0  0
   34.9150   25.0900   37.9340 H   0  0  0  0  0  0  0  0  0  0  0  0
  1  2  1  0  0  0  0
  1  7  1  1  0  0  0
  1  6  1  0  0  0  0
  2  3  1  0  0  0  0
  3 11  1  0  0  0  0
  3 10  1  0  0  0  0
  3  4  1  0  0  0  0
  4 13  1  0  0  0  0
  5  4  1  0  0  0  0
  5 14  1  0  0  0  0
  5 15  1  0  0  0  0
  6 16  1  1  0  0  0
  6  5  1  0  0  0  0
  8  2  1  0  0  0  0
  9  2  1  0  0  0  0
 12  4  1  0  0  0  0
 17 22  1  0  0  0  0
 17  6  1  0  0  0  0
 18 23  1  0  0  0  0
 18 17  2  0  0  0  0
 19 20  2  0  0  0  0
 19 18  1  0  0  0  0
 20 21  1  0  0  0  0
 21 26  1  0  0  0  0
 21 22  2  0  0  0  0
 24 19  1  0  0  0  0
 25 20  1  0  0  0  0
 26 27  1  0  0  0  0
 28 27  2  0  0  0  0
 28 29  1  0  0  0  0
 30 28  1  0  0  0  0
 31 30  2  0  0  0  0
 32 33  1  0  0  0  0
 32 30  1  0  0  0  0
 33 26  1  0  0  0  0
 34 33  2  0  0  0  0
 35 32  1  0  0  0  0
 36 37  1  0  0  0  0
 37 43  1  0  0  0  0
 37 38  2  0  0  0  0
 38  1  1  0  0  0  0
 39 38  1  0  0  0  0
 40 39  2  0  0  0  0
 41 36  2  0  0  0  0
 41 40  1  0  0  0  0
 42 36  1  0  0  0  0
 44 40  1  0  0  0  0
M  END
>  <minimizedAffinity>
-6.24345875

$$$$

 OpenBabel03242516513D

 44 47  0  0  1  0  0  0  0  0999 V2000
   36.8400   28.5830   39.4820 C   0  0  1  0  0  0  0  0  0  0  0  0
   35.3920   28.7340   39.7260 C   0  0  0  0  0  0  0  0  0  0  0  0
   34.7080   28.2380   38.4480 C   0  0  0  0  0  0  0  0  0  0  0  0
   35.0020   29.2790   37.3820 C   0  0  0  0  0  0  0  0  0  0  0  0
   36.4680   29.5320   37.1830 C   0  0  0  0  0  0  0  0  0  0  0  0
   37.3360   29.4780   38.3640 C   0  0  1  0  0  0  0  0  0  0  0  0
   37.0280   27.5420   39.0800 H   0  0  0  0  0  0  0  0  0  0  0  0
   35.0810   29.7750   39.9040 H   0  0  0  0  0  0  0  0  0  0  0  0
   35.0960   28.0500   40.5480 H   0  0  0  0  0  0  0  0  0  0  0  0
   35.1080   27.2430   38.1700 H   0  0  0  0  0  0  0  0  0  0  0  0
   33.6180   28.2420   38.6110 H   0  0  0  0  0  0  0  0  0  0  0  0
   34.4510   30.2060   37.6870 H   0  0  0  0  0  0  0  0  0  0  0  0
   34.5440   28.9230   36.4540 H   0  0  0  0  0  0  0  0  0  0  0  0
   36.5590   30.5430   36.6990 H   0  0  0  0  0  0  0  0  0  0  0  0
   36.8060   28.8130   36.3910 H   0  0  0  0  0  0  0  0  0  0  0  0
   38.3280   29.0230   38.0560 H   0  0  0  0  0  0  0  0  0  0  0  0
   37.7050   30.8110   38.8710 C   0  0  0  0  0  0  0  0  0  0  0  0
   36.9090   31.6750   39.6340 C   0  0  0  0  0  0  0  0  0  0  0  0
   37.4920   32.8740   40.0120 C   0  0  0  0  0  0  0  0  0  0  0  0
   38.7920   33.1260   39.6160 C   0  0  0  0  0  0  0  0  0  0  0  0
   39.5650   32.2740   38.8680 C   0  0  0  0  0  0  0  0  0  0  0  0
   38.9880   31.0990   38.5010 N   0  0  0  0  0  0  0  0  0  0  0  0
   35.9410   31.3250   39.8450 H   0  0  0  0  0  0  0  0  0  0  0  0
   36.8810   33.5430   40.6000 H   0  0  0  0  0  0  0  0  0  0  0  0
   39.1630   34.0920   39.9590 H   0  0  0  0  0  0  0  0  0  0  0  0
   40.9010   32.6360   38.5150 N   0  0  0  0  0  0  0  0  0  0  0  0
   41.6520   32.1250   37.5160 C   0  0  0  0  0  3  0  0  0  0  0  0
   42.9330   32.6060   37.3280 C   0  0  0  0  0  0  0  0  0  0  0  0
   43.4810   32.1550   36.5120 H   0  0  0  0  0  0  0  0  0  0  0  0
   43.4300   33.6000   38.1580 C   0  0  0  0  0  0  0  0  0  0  0  0
   44.6110   34.0110   37.9480 O   0  0  0  0  0  0  0  0  0  0  0  0
   42.6490   34.0740   39.1320 N   0  0  0  0  0  0  0  0  0  0  0  0
   41.4070   33.6070   39.3150 C   0  0  0  0  0  0  0  0  0  0  0  0
   40.8070   34.1610   40.2750 O   0  0  0  0  0  0  0  0  0  0  0  0
   43.0950   34.8270   39.7210 H   0  0  0  0  0  0  0  0  0  0  0  0
   39.8910   28.4190   41.7040 C   0  0  0  0  0  0  0  0  0  0  0  0
   39.0290   28.3240   40.6130 C   0  0  0  0  0  0  0  0  0  0  0  0
   37.6970   28.7160   40.6540 C   0  0  0  0  0  0  0  0  0  0  0  0
   37.2710   29.2030   41.8310 N   0  0  0  0  0  0  0  0  0  0  0  0
   38.0990   29.3020   42.8990 C   0  0  0  0  0  0  0  0  0  0  0  0
   39.3700   28.9270   42.8540 N   0  0  0  0  0  0  0  0  0  0  0  0
   40.9190   28.0950   41.5980 H   0  0  0  0  0  0  0  0  0  0  0  0
   39.4380   27.9180   39.6860 H   0  0  0  0  0  0  0  0  0  0  0  0
   37.6170   29.7140   43.7810 H   0  0  0  0  0  0  0  0  0  0  0  0
  1  7  1  6  0  0  0
  1  2  1  0  0  0  0
  1 38  1  0  0  0  0
  2  8  1  0  0  0  0
  2  9  1  0  0  0  0
  3 11  1  0  0  0  0
  3  2  1  0  0  0  0
  4 12  1  0  0  0  0
  4  3  1  0  0  0  0
  5  4  1  0  0  0  0
  5  6  1  0  0  0  0
  6 16  1  6  0  0  0
  6 17  1  0  0  0  0
  6  1  1  0  0  0  0
 10  3  1  0  0  0  0
 13  4  1  0  0  0  0
 14  5  1  0  0  0  0
 15  5  1  0  0  0  0
 17 18  1  0  0  0  0
 18 23  1  0  0  0  0
 18 19  2  0  0  0  0
 19 24  1  0  0  0  0
 20 25  1  0  0  0  0
 20 19  1  0  0  0  0
 21 20  2  0  0  0  0
 22 21  1  0  0  0  0
 22 17  2  0  0  0  0
 26 21  1  0  0  0  0
 26 33  1  0  0  0  0
 27 26  1  0  0  0  0
 28 27  2  0  0  0  0
 28 30  1  0  0  0  0
 29 28  1  0  0  0  0
 30 32  1  0  0  0  0
 31 30  2  0  0  0  0
 32 33  1  0  0  0  0
 32 35  1  0  0  0  0
 33 34  2  0  0  0  0
 36 41  1  0  0  0  0
 37 38  1  0  0  0  0
 37 36  2  0  0  0  0
 38 39  2  0  0  0  0
 39 40  1  0  0  0  0
 40 44  1  0  0  0  0
 41 40  2  0  0  0  0
 42 36  1  0  0  0  0
 43 37  1  0  0  0  0
M  END
>  <minimizedAffinity>
-6.17330408

$$$$

 OpenBabel03242516513D

 44 47  0  0  1  0  0  0  0  0999 V2000
   39.0780   24.7470   40.6600 C   0  0  1  0  0  0  0  0  0  0  0  0
   38.4260   23.7530   41.5360 C   0  0  0  0  0  0  0  0  0  0  0  0
   37.3320   23.1080   40.6800 C   0  0  0  0  0  0  0  0  0  0  0  0
   36.2650   24.1710   40.4910 C   0  0  0  0  0  0  0  0  0  0  0  0
   36.7880   25.4410   39.8850 C   0  0  0  0  0  0  0  0  0  0  0  0
   38.1410   25.8690   40.2600 C   0  0  1  0  0  0  0  0  0  0  0  0
   39.3190   24.2490   39.6730 H   0  0  0  0  0  0  0  0  0  0  0  0
   37.9550   24.1930   42.4280 H   0  0  0  0  0  0  0  0  0  0  0  0
   39.1630   22.9610   41.7850 H   0  0  0  0  0  0  0  0  0  0  0  0
   37.7580   22.7780   39.7120 H   0  0  0  0  0  0  0  0  0  0  0  0
   36.8740   22.2900   41.2580 H   0  0  0  0  0  0  0  0  0  0  0  0
   35.8070   24.3410   41.4990 H   0  0  0  0  0  0  0  0  0  0  0  0
   35.4890   23.7340   39.8550 H   0  0  0  0  0  0  0  0  0  0  0  0
   36.0550   26.2520   40.1490 H   0  0  0  0  0  0  0  0  0  0  0  0
   36.6870   25.3250   38.7740 H   0  0  0  0  0  0  0  0  0  0  0  0
   38.6300   26.3360   39.3500 H   0  0  0  0  0  0  0  0  0  0  0  0
   38.1480   26.9530   41.2570 C   0  0  0  0  0  0  0  0  0  0  0  0
   37.8190   26.8540   42.6150 C   0  0  0  0  0  0  0  0  0  0  0  0
   37.9260   28.0190   43.3590 C   0  0  0  0  0  0  0  0  0  0  0  0
   38.3410   29.1710   42.7190 C   0  0  0  0  0  0  0  0  0  0  0  0
   38.6610   29.2590   41.3880 C   0  0  0  0  0  0  0  0  0  0  0  0
   38.5560   28.1140   40.6630 N   0  0  0  0  0  0  0  0  0  0  0  0
   37.5220   25.8990   42.9370 H   0  0  0  0  0  0  0  0  0  0  0  0
   37.6720   27.9460   44.4070 H   0  0  0  0  0  0  0  0  0  0  0  0
   38.3930   30.0330   43.3840 H   0  0  0  0  0  0  0  0  0  0  0  0
   39.0800   30.5050   40.8290 N   0  0  0  0  0  0  0  0  0  0  0  0
   39.0750   30.8630   39.5270 C   0  0  0  0  0  3  0  0  0  0  0  0
   39.5230   32.1220   39.1760 C   0  0  0  0  0  0  0  0  0  0  0  0
   39.4920   32.3460   38.1180 H   0  0  0  0  0  0  0  0  0  0  0  0
   39.9690   32.9970   40.1560 C   0  0  0  0  0  0  0  0  0  0  0  0
   40.3700   34.1420   39.7870 O   0  0  0  0  0  0  0  0  0  0  0  0
   39.9550   32.5980   41.4300 N   0  0  0  0  0  0  0  0  0  0  0  0
   39.5210   31.3770   41.7700 C   0  0  0  0  0  0  0  0  0  0  0  0
   39.5740   31.1610   43.0100 O   0  0  0  0  0  0  0  0  0  0  0  0
   40.3080   33.3170   42.1160 H   0  0  0  0  0  0  0  0  0  0  0  0
   41.9550   25.5590   42.9700 C   0  0  0  0  0  0  0  0  0  0  0  0
   40.7640   25.0560   42.4480 C   0  0  0  0  0  0  0  0  0  0  0  0
   40.3390   25.2920   41.1480 C   0  0  0  0  0  0  0  0  0  0  0  0
   41.1550   26.0510   40.3980 N   0  0  0  0  0  0  0  0  0  0  0  0
   42.3160   26.5460   40.8920 C   0  0  0  0  0  0  0  0  0  0  0  0
   42.7170   26.3180   42.1350 N   0  0  0  0  0  0  0  0  0  0  0  0
   42.2230   25.3340   43.9940 H   0  0  0  0  0  0  0  0  0  0  0  0
   40.1460   24.4470   43.1100 H   0  0  0  0  0  0  0  0  0  0  0  0
   42.8720   27.1400   40.1730 H   0  0  0  0  0  0  0  0  0  0  0  0
  1  7  1  6  0  0  0
  1 38  1  0  0  0  0
  1  2  1  0  0  0  0
  2  9  1  0  0  0  0
  2  8  1  0  0  0  0
  3 11  1  0  0  0  0
  3  2  1  0  0  0  0
  4  3  1  0  0  0  0
  4 12  1  0  0  0  0
  5 14  1  0  0  0  0
  5  6  1  0  0  0  0
  5  4  1  0  0  0  0
  6 16  1  6  0  0  0
  6  1  1  0  0  0  0
  6 17  1  0  0  0  0
 10  3  1  0  0  0  0
 13  4  1  0  0  0  0
 15  5  1  0  0  0  0
 17 18  1  0  0  0  0
 18 23  1  0  0  0  0
 18 19  2  0  0  0  0
 19 24  1  0  0  0  0
 20 19  1  0  0  0  0
 20 25  1  0  0  0  0
 21 20  2  0  0  0  0
 22 17  2  0  0  0  0
 22 21  1  0  0  0  0
 26 21  1  0  0  0  0
 26 33  1  0  0  0  0
 27 26  1  0  0  0  0
 28 27  2  0  0  0  0
 28 30  1  0  0  0  0
 29 28  1  0  0  0  0
 30 32  1  0  0  0  0
 31 30  2  0  0  0  0
 32 33  1  0  0  0  0
 32 35  1  0  0  0  0
 33 34  2  0  0  0  0
 36 42  1  0  0  0  0
 37 36  1  0  0  0  0
 37 43  1  0  0  0  0
 38 37  2  0  0  0  0
 39 40  2  0  0  0  0
 39 38  1  0  0  0  0
 40 41  1  0  0  0  0
 41 36  2  0  0  0  0
 44 40  1  0  0  0  0
M  END
>  <minimizedAffinity>
-6.10508871

$$$$

 OpenBabel03242516513D

 44 47  0  0  1  0  0  0  0  0999 V2000
   38.2570   25.8250   41.6420 C   0  0  1  0  0  0  0  0  0  0  0  0
   39.4050   26.5600   42.2090 C   0  0  0  0  0  0  0  0  0  0  0  0
   39.0440   26.8110   43.6760 C   0  0  0  0  0  0  0  0  0  0  0  0
   37.9310   27.8420   43.6650 C   0  0  0  0  0  0  0  0  0  0  0  0
   36.7410   27.4270   42.8500 C   0  0  0  0  0  0  0  0  0  0  0  0
   36.9880   26.6540   41.6270 C   0  0  1  0  0  0  0  0  0  0  0  0
   37.9990   24.9720   42.3390 H   0  0  0  0  0  0  0  0  0  0  0  0
   39.5890   27.5320   41.7250 H   0  0  0  0  0  0  0  0  0  0  0  0
   40.2940   25.8970   42.1950 H   0  0  0  0  0  0  0  0  0  0  0  0
   38.7210   25.8650   44.1520 H   0  0  0  0  0  0  0  0  0  0  0  0
   39.9110   27.2770   44.1740 H   0  0  0  0  0  0  0  0  0  0  0  0
   38.3860   28.7950   43.2920 H   0  0  0  0  0  0  0  0  0  0  0  0
   37.6410   28.0110   44.7070 H   0  0  0  0  0  0  0  0  0  0  0  0
   36.1830   28.3680   42.5880 H   0  0  0  0  0  0  0  0  0  0  0  0
   36.0540   26.8820   43.5490 H   0  0  0  0  0  0  0  0  0  0  0  0
   36.1540   25.8930   41.5130 H   0  0  0  0  0  0  0  0  0  0  0  0
   36.8930   27.4640   40.4010 C   0  0  0  0  0  0  0  0  0  0  0  0
   36.1000   27.2060   39.2760 C   0  0  0  0  0  0  0  0  0  0  0  0
   36.1670   28.1350   38.2510 C   0  0  0  0  0  0  0  0  0  0  0  0
   36.9960   29.2290   38.4090 C   0  0  0  0  0  0  0  0  0  0  0  0
   37.7710   29.4750   39.5140 C   0  0  0  0  0  0  0  0  0  0  0  0
   37.7010   28.5600   40.5180 N   0  0  0  0  0  0  0  0  0  0  0  0
   35.5280   26.3250   39.3230 H   0  0  0  0  0  0  0  0  0  0  0  0
   35.5570   27.9390   37.3810 H   0  0  0  0  0  0  0  0  0  0  0  0
   36.9830   29.9030   37.5520 H   0  0  0  0  0  0  0  0  0  0  0  0
   38.5940   30.6410   39.5730 N   0  0  0  0  0  0  0  0  0  0  0  0
   39.6600   30.8530   40.3740 C   0  0  0  0  0  3  0  0  0  0  0  0
   40.3360   32.0550   40.2850 C   0  0  0  0  0  0  0  0  0  0  0  0
   41.1800   32.1610   40.9530 H   0  0  0  0  0  0  0  0  0  0  0  0
   39.9150   33.0230   39.3840 C   0  0  0  0  0  0  0  0  0  0  0  0
   40.5650   34.1100   39.3390 O   0  0  0  0  0  0  0  0  0  0  0  0
   38.8550   32.7670   38.6140 N   0  0  0  0  0  0  0  0  0  0  0  0
   38.2000   31.6010   38.6990 C   0  0  0  0  0  0  0  0  0  0  0  0
   37.2260   31.5230   37.9040 O   0  0  0  0  0  0  0  0  0  0  0  0
   38.5960   33.5490   37.9550 H   0  0  0  0  0  0  0  0  0  0  0  0
   39.7500   25.1160   38.2450 C   0  0  0  0  0  0  0  0  0  0  0  0
   39.4990   25.6550   39.5060 C   0  0  0  0  0  0  0  0  0  0  0  0
   38.4770   25.2160   40.3350 C   0  0  0  0  0  0  0  0  0  0  0  0
   37.7200   24.2190   39.8480 N   0  0  0  0  0  0  0  0  0  0  0  0
   37.9520   23.6850   38.6240 C   0  0  0  0  0  0  0  0  0  0  0  0
   38.9310   24.1090   37.8350 N   0  0  0  0  0  0  0  0  0  0  0  0
   40.5660   25.5090   37.6520 H   0  0  0  0  0  0  0  0  0  0  0  0
   40.1510   26.4630   39.8420 H   0  0  0  0  0  0  0  0  0  0  0  0
   37.2630   22.8890   38.3630 H   0  0  0  0  0  0  0  0  0  0  0  0
  1  2  1  0  0  0  0
  1  7  1  1  0  0  0
  2  3  1  0  0  0  0
  3 10  1  0  0  0  0
  3 11  1  0  0  0  0
  4  3  1  0  0  0  0
  4 13  1  0  0  0  0
  5 15  1  0  0  0  0
  5  4  1  0  0  0  0
  6 16  1  6  0  0  0
  6  1  1  0  0  0  0
  6  5  1  0  0  0  0
  8  2  1  0  0  0  0
  9  2  1  0  0  0  0
 12  4  1  0  0  0  0
 14  5  1  0  0  0  0
 17 22  1  0  0  0  0
 17  6  1  0  0  0  0
 18 23  1  0  0  0  0
 18 17  2  0  0  0  0
 19 20  2  0  0  0  0
 19 18  1  0  0  0  0
 20 21  1  0  0  0  0
 21 26  1  0  0  0  0
 21 22  2  0  0  0  0
 24 19  1  0  0  0  0
 25 20  1  0  0  0  0
 26 27  1  0  0  0  0
 28 27  2  0  0  0  0
 28 29  1  0  0  0  0
 30 28  1  0  0  0  0
 31 30  2  0  0  0  0
 32 33  1  0  0  0  0
 32 30  1  0  0  0  0
 33 26  1  0  0  0  0
 34 33  2  0  0  0  0
 35 32  1  0  0  0  0
 36 37  1  0  0  0  0
 37 43  1  0  0  0  0
 37 38  2  0  0  0  0
 38  1  1  0  0  0  0
 39 38  1  0  0  0  0
 40 39  2  0  0  0  0
 41 36  2  0  0  0  0
 41 40  1  0  0  0  0
 42 36  1  0  0  0  0
 44 40  1  0  0  0  0
M  END
>  <minimizedAffinity>
-6.02751541

$$$$

 OpenBabel03242516513D

 44 47  0  0  1  0  0  0  0  0999 V2000
   37.8590   25.5960   41.0640 C   0  0  1  0  0  0  0  0  0  0  0  0
   36.5740   24.9270   41.3510 C   0  0  0  0  0  0  0  0  0  0  0  0
   36.6700   23.5530   40.6800 C   0  0  0  0  0  0  0  0  0  0  0  0
   36.6120   23.8110   39.1850 C   0  0  0  0  0  0  0  0  0  0  0  0
   37.6720   24.7560   38.7010 C   0  0  0  0  0  0  0  0  0  0  0  0
   38.0560   25.8630   39.5850 C   0  0  1  0  0  0  0  0  0  0  0  0
   38.6980   24.8770   41.3090 H   0  0  0  0  0  0  0  0  0  0  0  0
   35.7010   25.4550   40.9390 H   0  0  0  0  0  0  0  0  0  0  0  0
   36.4980   24.7570   42.4450 H   0  0  0  0  0  0  0  0  0  0  0  0
   37.6150   23.0560   40.9730 H   0  0  0  0  0  0  0  0  0  0  0  0
   35.7700   22.9740   40.9420 H   0  0  0  0  0  0  0  0  0  0  0  0
   35.5800   24.1890   38.9690 H   0  0  0  0  0  0  0  0  0  0  0  0
   36.7090   22.8400   38.6890 H   0  0  0  0  0  0  0  0  0  0  0  0
   37.3120   25.1720   37.7190 H   0  0  0  0  0  0  0  0  0  0  0  0
   38.5570   24.1230   38.4270 H   0  0  0  0  0  0  0  0  0  0  0  0
   39.1710   26.0360   39.4740 H   0  0  0  0  0  0  0  0  0  0  0  0
   37.4600   27.1510   39.1910 C   0  0  0  0  0  0  0  0  0  0  0  0
   36.0970   27.4670   39.1280 C   0  0  0  0  0  0  0  0  0  0  0  0
   35.7840   28.7630   38.7480 C   0  0  0  0  0  0  0  0  0  0  0  0
   36.8200   29.6320   38.4640 C   0  0  0  0  0  0  0  0  0  0  0  0
   38.1530   29.3140   38.5270 C   0  0  0  0  0  0  0  0  0  0  0  0
   38.4540   28.0410   38.9020 N   0  0  0  0  0  0  0  0  0  0  0  0
   35.4420   26.6840   39.3770 H   0  0  0  0  0  0  0  0  0  0  0  0
   34.7340   29.0100   38.6970 H   0  0  0  0  0  0  0  0  0  0  0  0
   36.4760   30.6250   38.1740 H   0  0  0  0  0  0  0  0  0  0  0  0
   39.1440   30.2930   38.2120 N   0  0  0  0  0  0  0  0  0  0  0  0
   40.4310   30.0760   37.8670 C   0  0  0  0  0  3  0  0  0  0  0  0
   41.2440   31.1600   37.5960 C   0  0  0  0  0  0  0  0  0  0  0  0
   42.2630   30.9180   37.3260 H   0  0  0  0  0  0  0  0  0  0  0  0
   40.7340   32.4480   37.6800 C   0  0  0  0  0  0  0  0  0  0  0  0
   41.5170   33.4110   37.4220 O   0  0  0  0  0  0  0  0  0  0  0  0
   39.4550   32.6110   38.0240 N   0  0  0  0  0  0  0  0  0  0  0  0
   38.6670   31.5600   38.2880 C   0  0  0  0  0  0  0  0  0  0  0  0
   37.4910   31.8900   38.5970 O   0  0  0  0  0  0  0  0  0  0  0  0
   39.1400   33.6170   38.0670 H   0  0  0  0  0  0  0  0  0  0  0  0
   37.3240   28.6040   43.2860 C   0  0  0  0  0  0  0  0  0  0  0  0
   37.1230   27.4440   42.5400 C   0  0  0  0  0  0  0  0  0  0  0  0
   38.1320   26.8020   41.8360 C   0  0  0  0  0  0  0  0  0  0  0  0
   39.3470   27.3720   41.9120 N   0  0  0  0  0  0  0  0  0  0  0  0
   39.5570   28.4990   42.6340 C   0  0  0  0  0  0  0  0  0  0  0  0
   38.5890   29.1080   43.3050 N   0  0  0  0  0  0  0  0  0  0  0  0
   36.4890   29.0500   43.8110 H   0  0  0  0  0  0  0  0  0  0  0  0
   36.1120   27.0320   42.5190 H   0  0  0  0  0  0  0  0  0  0  0  0
   40.5860   28.8440   42.6030 H   0  0  0  0  0  0  0  0  0  0  0  0
  1  7  1  1  0  0  0
  1  2  1  0  0  0  0
  1 38  1  0  0  0  0
  2  9  1  0  0  0  0
  3 11  1  0  0  0  0
  3 10  1  0  0  0  0
  3  2  1  0  0  0  0
  4  3  1  0  0  0  0
  5  4  1  0  0  0  0
  5  6  1  0  0  0  0
  6 16  1  6  0  0  0
  6  1  1  0  0  0  0
  8  2  1  0  0  0  0
 12  4  1  0  0  0  0
 13  4  1  0  0  0  0
 14  5  1  0  0  0  0
 15  5  1  0  0  0  0
 17  6  1  0  0  0  0
 18 17  1  0  0  0  0
 18 23  1  0  0  0  0
 19 18  2  0  0  0  0
 20 21  2  0  0  0  0
 20 19  1  0  0  0  0
 21 22  1  0  0  0  0
 22 17  2  0  0  0  0
 24 19  1  0  0  0  0
 25 20  1  0  0  0  0
 26 33  1  0  0  0  0
 26 21  1  0  0  0  0
 27 26  1  0  0  0  0
 28 30  1  0  0  0  0
 28 27  2  0  0  0  0
 29 28  1  0  0  0  0
 30 32  1  0  0  0  0
 31 30  2  0  0  0  0
 32 35  1  0  0  0  0
 32 33  1  0  0  0  0
 33 34  2  0  0  0  0
 36 41  1  0  0  0  0
 36 42  1  0  0  0  0
 37 36  2  0  0  0  0
 38 39  2  0  0  0  0
 38 37  1  0  0  0  0
 39 40  1  0  0  0  0
 40 41  2  0  0  0  0
 43 37  1  0  0  0  0
 44 40  1  0  0  0  0
M  END
>  <minimizedAffinity>
-6.01366568

$$$$
