
 OpenBabel03252501303D

 39 41  0  0  0  0  0  0  0  0999 V2000
   37.9780   29.6430   42.5180 C   0  0  0  0  0  0  0  0  0  0  0  0
   39.3100   29.9290   42.5990 C   0  0  0  0  0  0  0  0  0  0  0  0
   39.9460   30.8630   41.8460 C   0  0  0  0  0  0  0  0  0  0  0  0
   39.2160   31.5600   40.9500 C   0  0  0  0  0  0  0  0  0  0  0  0
   37.8370   31.3030   40.8290 C   0  0  0  0  0  0  0  0  0  0  0  0
   37.2330   30.3470   41.6140 C   0  0  0  0  0  0  0  0  0  0  0  0
   39.8510   29.3260   43.3480 H   0  0  0  0  0  0  0  0  0  0  0  0
   40.9980   30.9870   42.0130 H   0  0  0  0  0  0  0  0  0  0  0  0
   37.4280   31.9610   40.0630 H   0  0  0  0  0  0  0  0  0  0  0  0
   39.9460   32.5400   40.1730 N   0  0  0  0  0  0  0  0  0  0  0  0
   40.9420   31.9710   39.4440 C   0  0  0  0  0  3  0  0  0  0  0  0
   41.7290   32.7790   38.6490 C   0  0  0  0  0  0  0  0  0  0  0  0
   42.5500   32.3790   38.0350 H   0  0  0  0  0  0  0  0  0  0  0  0
   41.4720   34.1470   38.6270 C   0  0  0  0  0  0  0  0  0  0  0  0
   42.1640   34.9100   37.9200 O   0  0  0  0  0  0  0  0  0  0  0  0
   40.4530   34.6410   39.3890 N   0  0  0  0  0  0  0  0  0  0  0  0
   39.6920   33.8500   40.1580 C   0  0  0  0  0  0  0  0  0  0  0  0
   38.7460   34.2670   40.8740 O   0  0  0  0  0  0  0  0  0  0  0  0
   40.2780   35.6530   39.3600 H   0  0  0  0  0  0  0  0  0  0  0  0
   35.4560   29.3490   40.3080 C   0  0  0  0  0  0  0  0  0  0  0  0
   35.9700   28.3830   39.6340 O   0  0  0  0  0  0  0  0  0  0  0  0
   35.8510   30.3660   41.2380 N   0  0  0  0  0  0  0  0  0  0  0  0
   34.4650   29.1420   39.9030 H   0  0  0  0  0  0  0  0  0  0  0  0
   35.0330   30.9460   41.4730 H   0  0  0  0  0  0  0  0  0  0  0  0
   37.1900   28.6460   43.2540 C   0  0  0  0  0  0  0  0  0  0  0  0
   36.4700   28.1090   42.5830 H   0  0  0  0  0  0  0  0  0  0  0  0
   36.5780   29.1820   43.9900 H   0  0  0  0  0  0  0  0  0  0  0  0
   38.0940   27.5880   43.8750 C   0  0  0  0  0  0  0  0  0  0  0  0
   37.7170   27.3470   44.8780 H   0  0  0  0  0  0  0  0  0  0  0  0
   39.1390   27.9850   44.0150 H   0  0  0  0  0  0  0  0  0  0  0  0
   36.9660   25.0050   41.5320 C   0  0  0  0  0  0  0  0  0  0  0  0
   38.0920   24.1630   41.4220 C   0  0  0  0  0  0  0  0  0  0  0  0
   39.2180   24.5350   42.1740 C   0  0  0  0  0  0  0  0  0  0  0  0
   39.1840   25.6350   42.9430 N   0  0  0  0  0  0  0  0  0  0  0  0
   38.0670   26.3980   43.0030 C   0  0  0  0  0  0  0  0  0  0  0  0
   36.9830   26.1050   42.3240 N   0  0  0  0  0  0  0  0  0  0  0  0
   36.0310   24.8350   41.0070 H   0  0  0  0  0  0  0  0  0  0  0  0
   38.0110   23.3030   40.7740 H   0  0  0  0  0  0  0  0  0  0  0  0
   40.0810   23.8880   42.0870 H   0  0  0  0  0  0  0  0  0  0  0  0
  1  2  1  0  0  0  0
  1 25  1  0  0  0  0
  2  7  1  0  0  0  0
  3  8  1  0  0  0  0
  3  2  2  0  0  0  0
  4  3  1  0  0  0  0
  5  4  2  0  0  0  0
  5  6  1  0  0  0  0
  6  1  2  0  0  0  0
  9  5  1  0  0  0  0
 10  4  1  0  0  0  0
 11 10  1  0  0  0  0
 12 11  2  0  0  0  0
 13 12  1  0  0  0  0
 14 12  1  0  0  0  0
 14 16  1  0  0  0  0
 15 14  2  0  0  0  0
 16 17  1  0  0  0  0
 17 10  1  0  0  0  0
 17 18  2  0  0  0  0
 19 16  1  0  0  0  0
 20 22  1  0  0  0  0
 21 20  2  0  0  0  0
 22 24  1  0  0  0  0
 22  6  1  0  0  0  0
 23 20  1  0  0  0  0
 25 28  1  0  0  0  0
 25 27  1  0  0  0  0
 26 25  1  0  0  0  0
 28 30  1  0  0  0  0
 28 29  1  0  0  0  0
 31 36  1  0  0  0  0
 32 31  2  0  0  0  0
 32 33  1  0  0  0  0
 33 34  2  0  0  0  0
 34 35  1  0  0  0  0
 35 28  1  0  0  0  0
 36 35  2  0  0  0  0
 37 31  1  0  0  0  0
 38 32  1  0  0  0  0
 39 33  1  0  0  0  0
M  END
>  <minimizedAffinity>
-6.2914114

$$$$

 OpenBabel03252501303D

 39 41  0  0  0  0  0  0  0  0999 V2000
   38.1940   26.9300   42.1690 C   0  0  0  0  0  0  0  0  0  0  0  0
   37.8060   27.9610   42.9750 C   0  0  0  0  0  0  0  0  0  0  0  0
   37.7800   29.2670   42.6000 C   0  0  0  0  0  0  0  0  0  0  0  0
   38.1650   29.5730   41.3440 C   0  0  0  0  0  0  0  0  0  0  0  0
   38.5730   28.5460   40.4730 C   0  0  0  0  0  0  0  0  0  0  0  0
   38.5830   27.2360   40.8940 C   0  0  0  0  0  0  0  0  0  0  0  0
   37.5040   27.6460   43.9880 H   0  0  0  0  0  0  0  0  0  0  0  0
   37.4530   29.9750   43.3350 H   0  0  0  0  0  0  0  0  0  0  0  0
   38.8410   28.9900   39.5150 H   0  0  0  0  0  0  0  0  0  0  0  0
   38.1200   30.9800   41.0010 N   0  0  0  0  0  0  0  0  0  0  0  0
   39.3280   31.5810   41.1610 C   0  0  0  0  0  3  0  0  0  0  0  0
   39.4460   32.9250   40.8730 C   0  0  0  0  0  0  0  0  0  0  0  0
   40.3960   33.4690   40.9810 H   0  0  0  0  0  0  0  0  0  0  0  0
   38.3190   33.6140   40.4300 C   0  0  0  0  0  0  0  0  0  0  0  0
   38.3860   34.8310   40.1610 O   0  0  0  0  0  0  0  0  0  0  0  0
   37.1410   32.9370   40.2960 N   0  0  0  0  0  0  0  0  0  0  0  0
   37.0350   31.6320   40.5780 C   0  0  0  0  0  0  0  0  0  0  0  0
   35.9690   30.9740   40.4670 O   0  0  0  0  0  0  0  0  0  0  0  0
   36.3210   33.4610   39.9680 H   0  0  0  0  0  0  0  0  0  0  0  0
   38.0430   26.2510   38.7490 C   0  0  0  0  0  0  0  0  0  0  0  0
   36.8030   26.4910   38.5170 O   0  0  0  0  0  0  0  0  0  0  0  0
   39.0300   26.4780   39.7640 N   0  0  0  0  0  0  0  0  0  0  0  0
   38.1520   25.7360   37.7940 H   0  0  0  0  0  0  0  0  0  0  0  0
   39.9160   26.0350   39.4790 H   0  0  0  0  0  0  0  0  0  0  0  0
   38.2890   25.4960   42.4660 C   0  0  0  0  0  0  0  0  0  0  0  0
   38.6140   25.3110   43.5230 H   0  0  0  0  0  0  0  0  0  0  0  0
   39.0750   25.0740   41.8280 H   0  0  0  0  0  0  0  0  0  0  0  0
   36.9380   24.8130   42.2900 C   0  0  0  0  0  0  0  0  0  0  0  0
   36.1710   25.5830   42.1260 H   0  0  0  0  0  0  0  0  0  0  0  0
   36.6410   24.2650   43.2300 H   0  0  0  0  0  0  0  0  0  0  0  0
   36.0710   22.8480   39.3210 C   0  0  0  0  0  0  0  0  0  0  0  0
   37.2840   22.2000   39.0040 C   0  0  0  0  0  0  0  0  0  0  0  0
   38.3730   22.4800   39.8450 C   0  0  0  0  0  0  0  0  0  0  0  0
   38.2270   23.3210   40.8820 N   0  0  0  0  0  0  0  0  0  0  0  0
   37.0320   23.9080   41.1300 C   0  0  0  0  0  0  0  0  0  0  0  0
   35.9770   23.6880   40.3810 N   0  0  0  0  0  0  0  0  0  0  0  0
   35.1530   22.7210   38.7560 H   0  0  0  0  0  0  0  0  0  0  0  0
   37.2900   21.5440   38.1470 H   0  0  0  0  0  0  0  0  0  0  0  0
   39.3020   21.9830   39.6000 H   0  0  0  0  0  0  0  0  0  0  0  0
  1 25  1  0  0  0  0
  1  2  1  0  0  0  0
  2  7  1  0  0  0  0
  3  2  2  0  0  0  0
  3  8  1  0  0  0  0
  4  3  1  0  0  0  0
  5  6  1  0  0  0  0
  5  4  2  0  0  0  0
  6  1  2  0  0  0  0
  9  5  1  0  0  0  0
 10 11  1  0  0  0  0
 10  4  1  0  0  0  0
 12 13  1  0  0  0  0
 12 11  2  0  0  0  0
 14 12  1  0  0  0  0
 15 14  2  0  0  0  0
 16 14  1  0  0  0  0
 16 17  1  0  0  0  0
 17 10  1  0  0  0  0
 18 17  2  0  0  0  0
 19 16  1  0  0  0  0
 20 22  1  0  0  0  0
 21 20  2  0  0  0  0
 22  6  1  0  0  0  0
 23 20  1  0  0  0  0
 24 22  1  0  0  0  0
 25 26  1  0  0  0  0
 27 25  1  0  0  0  0
 28 25  1  0  0  0  0
 28 30  1  0  0  0  0
 29 28  1  0  0  0  0
 31 36  1  0  0  0  0
 32 31  2  0  0  0  0
 32 33  1  0  0  0  0
 33 34  2  0  0  0  0
 34 35  1  0  0  0  0
 35 28  1  0  0  0  0
 36 35  2  0  0  0  0
 37 31  1  0  0  0  0
 38 32  1  0  0  0  0
 39 33  1  0  0  0  0
M  END
>  <minimizedAffinity>
-5.81217098

$$$$

 OpenBabel03252501303D

 39 41  0  0  0  0  0  0  0  0999 V2000
   38.3320   26.5140   41.2920 C   0  0  0  0  0  0  0  0  0  0  0  0
   38.0250   27.1080   40.1020 C   0  0  0  0  0  0  0  0  0  0  0  0
   37.9390   28.4500   39.9090 C   0  0  0  0  0  0  0  0  0  0  0  0
   38.1690   29.2580   40.9650 C   0  0  0  0  0  0  0  0  0  0  0  0
   38.4890   28.6940   42.2140 C   0  0  0  0  0  0  0  0  0  0  0  0
   38.5680   27.3290   42.3640 C   0  0  0  0  0  0  0  0  0  0  0  0
   37.8480   26.3950   39.2790 H   0  0  0  0  0  0  0  0  0  0  0  0
   37.6900   28.7820   38.9210 H   0  0  0  0  0  0  0  0  0  0  0  0
   38.6390   29.5010   42.9300 H   0  0  0  0  0  0  0  0  0  0  0  0
   38.0600   30.6790   40.7020 N   0  0  0  0  0  0  0  0  0  0  0  0
   39.2660   31.2380   40.4240 C   0  0  0  0  0  3  0  0  0  0  0  0
   39.3260   32.5890   40.1520 C   0  0  0  0  0  0  0  0  0  0  0  0
   40.2720   33.1020   39.9190 H   0  0  0  0  0  0  0  0  0  0  0  0
   38.1460   33.3280   40.1740 C   0  0  0  0  0  0  0  0  0  0  0  0
   38.1600   34.5530   39.9330 O   0  0  0  0  0  0  0  0  0  0  0  0
   36.9730   32.6910   40.4620 N   0  0  0  0  0  0  0  0  0  0  0  0
   36.9230   31.3780   40.7260 C   0  0  0  0  0  0  0  0  0  0  0  0
   35.8640   30.7550   40.9960 O   0  0  0  0  0  0  0  0  0  0  0  0
   36.1120   33.2510   40.4740 H   0  0  0  0  0  0  0  0  0  0  0  0
   40.3030   26.8100   43.9700 C   0  0  0  0  0  0  0  0  0  0  0  0
   41.3910   26.6190   43.3140 O   0  0  0  0  0  0  0  0  0  0  0  0
   38.9220   27.1180   43.7350 N   0  0  0  0  0  0  0  0  0  0  0  0
   40.8130   26.6430   44.9200 H   0  0  0  0  0  0  0  0  0  0  0  0
   38.4210   27.1320   44.6350 H   0  0  0  0  0  0  0  0  0  0  0  0
   38.4280   25.0880   41.6270 C   0  0  0  0  0  0  0  0  0  0  0  0
   38.9850   24.9230   42.5850 H   0  0  0  0  0  0  0  0  0  0  0  0
   39.0210   24.6010   40.8430 H   0  0  0  0  0  0  0  0  0  0  0  0
   37.0440   24.4760   41.8060 C   0  0  0  0  0  0  0  0  0  0  0  0
   36.3050   25.2860   41.8660 H   0  0  0  0  0  0  0  0  0  0  0  0
   36.9780   23.9130   42.7800 H   0  0  0  0  0  0  0  0  0  0  0  0
   35.5040   23.0310   38.8110 C   0  0  0  0  0  0  0  0  0  0  0  0
   36.3400   21.9320   38.5240 C   0  0  0  0  0  0  0  0  0  0  0  0
   37.4240   21.7350   39.3930 C   0  0  0  0  0  0  0  0  0  0  0  0
   37.6200   22.5680   40.4280 N   0  0  0  0  0  0  0  0  0  0  0  0
   36.7770   23.6050   40.6460 C   0  0  0  0  0  0  0  0  0  0  0  0
   35.7460   23.8420   39.8700 N   0  0  0  0  0  0  0  0  0  0  0  0
   34.6320   23.2980   38.2220 H   0  0  0  0  0  0  0  0  0  0  0  0
   36.0890   21.3260   37.6650 H   0  0  0  0  0  0  0  0  0  0  0  0
   38.0640   20.8920   39.1700 H   0  0  0  0  0  0  0  0  0  0  0  0
  1 25  1  0  0  0  0
  1  6  1  0  0  0  0
  2  1  2  0  0  0  0
  3  2  1  0  0  0  0
  3  4  2  0  0  0  0
  4  5  1  0  0  0  0
  5  6  2  0  0  0  0
  5  9  1  0  0  0  0
  6 22  1  0  0  0  0
  7  2  1  0  0  0  0
  8  3  1  0  0  0  0
 10 17  1  0  0  0  0
 10  4  1  0  0  0  0
 11 10  1  0  0  0  0
 12 14  1  0  0  0  0
 12 11  2  0  0  0  0
 13 12  1  0  0  0  0
 14 16  1  0  0  0  0
 15 14  2  0  0  0  0
 16 19  1  0  0  0  0
 16 17  1  0  0  0  0
 17 18  2  0  0  0  0
 20 23  1  0  0  0  0
 21 20  2  0  0  0  0
 22 20  1  0  0  0  0
 22 24  1  0  0  0  0
 25 28  1  0  0  0  0
 25 26  1  0  0  0  0
 27 25  1  0  0  0  0
 28 29  1  0  0  0  0
 28 30  1  0  0  0  0
 31 36  1  0  0  0  0
 32 31  2  0  0  0  0
 32 33  1  0  0  0  0
 33 34  2  0  0  0  0
 34 35  1  0  0  0  0
 35 28  1  0  0  0  0
 36 35  2  0  0  0  0
 37 31  1  0  0  0  0
 38 32  1  0  0  0  0
 39 33  1  0  0  0  0
M  END
>  <minimizedAffinity>
-5.66855955

$$$$

 OpenBabel03252501303D

 39 41  0  0  0  0  0  0  0  0999 V2000
   36.3030   30.3630   39.8420 C   0  0  0  0  0  0  0  0  0  0  0  0
   36.9020   31.1170   38.8740 C   0  0  0  0  0  0  0  0  0  0  0  0
   38.0130   31.8760   39.0640 C   0  0  0  0  0  0  0  0  0  0  0  0
   38.5670   31.8920   40.2940 C   0  0  0  0  0  0  0  0  0  0  0  0
   37.9880   31.1310   41.3260 C   0  0  0  0  0  0  0  0  0  0  0  0
   36.8630   30.3750   41.0900 C   0  0  0  0  0  0  0  0  0  0  0  0
   36.4030   31.0620   37.8930 H   0  0  0  0  0  0  0  0  0  0  0  0
   38.3800   32.4180   38.2150 H   0  0  0  0  0  0  0  0  0  0  0  0
   38.5750   31.2730   42.2330 H   0  0  0  0  0  0  0  0  0  0  0  0
   39.7470   32.7200   40.4390 N   0  0  0  0  0  0  0  0  0  0  0  0
   40.8920   31.9940   40.3500 C   0  0  0  0  0  3  0  0  0  0  0  0
   42.1030   32.6440   40.4690 C   0  0  0  0  0  0  0  0  0  0  0  0
   43.0650   32.1130   40.4050 H   0  0  0  0  0  0  0  0  0  0  0  0
   42.1040   34.0210   40.6770 C   0  0  0  0  0  0  0  0  0  0  0  0
   43.1800   34.6440   40.7910 O   0  0  0  0  0  0  0  0  0  0  0  0
   40.9100   34.6780   40.7560 N   0  0  0  0  0  0  0  0  0  0  0  0
   39.7380   34.0400   40.6390 C   0  0  0  0  0  0  0  0  0  0  0  0
   38.6180   34.6090   40.7060 O   0  0  0  0  0  0  0  0  0  0  0  0
   40.9290   35.6930   40.9100 H   0  0  0  0  0  0  0  0  0  0  0  0
   37.2180   28.4760   42.5490 C   0  0  0  0  0  0  0  0  0  0  0  0
   38.0060   27.6650   41.9390 O   0  0  0  0  0  0  0  0  0  0  0  0
   36.5660   29.7360   42.3360 N   0  0  0  0  0  0  0  0  0  0  0  0
   37.1760   27.8250   43.4220 H   0  0  0  0  0  0  0  0  0  0  0  0
   35.9820   29.9560   43.1560 H   0  0  0  0  0  0  0  0  0  0  0  0
   35.0970   29.5310   39.7650 C   0  0  0  0  0  0  0  0  0  0  0  0
   34.2010   30.1260   39.4500 H   0  0  0  0  0  0  0  0  0  0  0  0
   34.8780   29.1660   40.7760 H   0  0  0  0  0  0  0  0  0  0  0  0
   35.2700   28.4140   38.7440 C   0  0  0  0  0  0  0  0  0  0  0  0
   34.9450   27.4680   39.1970 H   0  0  0  0  0  0  0  0  0  0  0  0
   36.3570   28.2800   38.4760 H   0  0  0  0  0  0  0  0  0  0  0  0
   32.4130   29.2640   36.6120 C   0  0  0  0  0  0  0  0  0  0  0  0
   32.9870   29.3300   35.3250 C   0  0  0  0  0  0  0  0  0  0  0  0
   34.3650   29.0760   35.2480 C   0  0  0  0  0  0  0  0  0  0  0  0
   35.0630   28.7900   36.3590 N   0  0  0  0  0  0  0  0  0  0  0  0
   34.4480   28.7430   37.5650 C   0  0  0  0  0  0  0  0  0  0  0  0
   33.1630   28.9710   37.7030 N   0  0  0  0  0  0  0  0  0  0  0  0
   31.3610   29.4380   36.8140 H   0  0  0  0  0  0  0  0  0  0  0  0
   32.3320   29.5680   34.4990 H   0  0  0  0  0  0  0  0  0  0  0  0
   34.8020   29.1270   34.2600 H   0  0  0  0  0  0  0  0  0  0  0  0
  1  6  1  0  0  0  0
  2  3  1  0  0  0  0
  2  1  2  0  0  0  0
  3  4  2  0  0  0  0
  4 10  1  0  0  0  0
  4  5  1  0  0  0  0
  5  9  1  0  0  0  0
  6  5  2  0  0  0  0
  6 22  1  0  0  0  0
  7  2  1  0  0  0  0
  8  3  1  0  0  0  0
 10 17  1  0  0  0  0
 11 10  1  0  0  0  0
 11 12  2  0  0  0  0
 12 14  1  0  0  0  0
 13 12  1  0  0  0  0
 14 16  1  0  0  0  0
 14 15  2  0  0  0  0
 16 19  1  0  0  0  0
 17 18  2  0  0  0  0
 17 16  1  0  0  0  0
 20 23  1  0  0  0  0
 21 20  2  0  0  0  0
 22 20  1  0  0  0  0
 22 24  1  0  0  0  0
 25  1  1  0  0  0  0
 25 27  1  0  0  0  0
 26 25  1  0  0  0  0
 28 29  1  0  0  0  0
 28 25  1  0  0  0  0
 30 28  1  0  0  0  0
 31 37  1  0  0  0  0
 31 36  1  0  0  0  0
 32 31  2  0  0  0  0
 33 32  1  0  0  0  0
 33 34  2  0  0  0  0
 34 35  1  0  0  0  0
 35 36  2  0  0  0  0
 35 28  1  0  0  0  0
 38 32  1  0  0  0  0
 39 33  1  0  0  0  0
M  END
>  <minimizedAffinity>
-5.6114378

$$$$

 OpenBabel03252501303D

 39 41  0  0  0  0  0  0  0  0999 V2000
   37.3720   26.2790   41.9760 C   0  0  0  0  0  0  0  0  0  0  0  0
   37.8710   27.2430   42.8030 C   0  0  0  0  0  0  0  0  0  0  0  0
   37.9790   28.5580   42.4800 C   0  0  0  0  0  0  0  0  0  0  0  0
   37.5670   28.9440   41.2550 C   0  0  0  0  0  0  0  0  0  0  0  0
   37.0430   27.9880   40.3650 C   0  0  0  0  0  0  0  0  0  0  0  0
   36.9510   26.6660   40.7340 C   0  0  0  0  0  0  0  0  0  0  0  0
   38.1910   26.8640   43.7890 H   0  0  0  0  0  0  0  0  0  0  0  0
   38.3890   29.2080   43.2260 H   0  0  0  0  0  0  0  0  0  0  0  0
   36.7680   28.4910   39.4380 H   0  0  0  0  0  0  0  0  0  0  0  0
   37.7080   30.3560   40.9630 N   0  0  0  0  0  0  0  0  0  0  0  0
   39.0120   30.7360   40.9040 C   0  0  0  0  0  3  0  0  0  0  0  0
   39.3090   32.0550   40.6350 C   0  0  0  0  0  0  0  0  0  0  0  0
   40.3440   32.4250   40.5740 H   0  0  0  0  0  0  0  0  0  0  0  0
   38.2600   32.9480   40.4340 C   0  0  0  0  0  0  0  0  0  0  0  0
   38.4890   34.1510   40.1880 O   0  0  0  0  0  0  0  0  0  0  0  0
   36.9760   32.4880   40.5100 N   0  0  0  0  0  0  0  0  0  0  0  0
   36.6960   31.2050   40.7720 C   0  0  0  0  0  0  0  0  0  0  0  0
   35.5280   30.7430   40.8500 O   0  0  0  0  0  0  0  0  0  0  0  0
   36.2150   33.1610   40.3590 H   0  0  0  0  0  0  0  0  0  0  0  0
   37.2480   25.8060   38.4910 C   0  0  0  0  0  0  0  0  0  0  0  0
   38.4490   26.0800   38.1300 O   0  0  0  0  0  0  0  0  0  0  0  0
   36.3700   25.9970   39.6090 N   0  0  0  0  0  0  0  0  0  0  0  0
   37.0470   25.3010   37.5460 H   0  0  0  0  0  0  0  0  0  0  0  0
   35.4460   25.6000   39.3860 H   0  0  0  0  0  0  0  0  0  0  0  0
   37.2310   24.8350   42.2020 C   0  0  0  0  0  0  0  0  0  0  0  0
   36.2200   24.4630   41.8920 H   0  0  0  0  0  0  0  0  0  0  0  0
   37.3020   24.6580   43.2820 H   0  0  0  0  0  0  0  0  0  0  0  0
   38.2600   24.0550   41.3930 C   0  0  0  0  0  0  0  0  0  0  0  0
   38.0510   24.1970   40.3240 H   0  0  0  0  0  0  0  0  0  0  0  0
   38.1680   22.9480   41.5890 H   0  0  0  0  0  0  0  0  0  0  0  0
   41.2590   24.9710   43.2880 C   0  0  0  0  0  0  0  0  0  0  0  0
   42.0850   25.5610   42.3090 C   0  0  0  0  0  0  0  0  0  0  0  0
   41.5610   25.6140   41.0080 C   0  0  0  0  0  0  0  0  0  0  0  0
   40.3380   25.1210   40.7510 N   0  0  0  0  0  0  0  0  0  0  0  0
   39.5980   24.5680   41.7400 C   0  0  0  0  0  0  0  0  0  0  0  0
   40.0310   24.4890   42.9760 N   0  0  0  0  0  0  0  0  0  0  0  0
   41.5400   24.8660   44.3320 H   0  0  0  0  0  0  0  0  0  0  0  0
   43.0520   25.9260   42.6250 H   0  0  0  0  0  0  0  0  0  0  0  0
   42.1960   26.0670   40.2580 H   0  0  0  0  0  0  0  0  0  0  0  0
  1 25  1  0  0  0  0
  1  2  1  0  0  0  0
  2  7  1  0  0  0  0
  3  2  2  0  0  0  0
  3  8  1  0  0  0  0
  4  3  1  0  0  0  0
  5  6  1  0  0  0  0
  5  4  2  0  0  0  0
  6  1  2  0  0  0  0
  9  5  1  0  0  0  0
 10  4  1  0  0  0  0
 11 10  1  0  0  0  0
 12 11  2  0  0  0  0
 13 12  1  0  0  0  0
 14 16  1  0  0  0  0
 14 12  1  0  0  0  0
 15 14  2  0  0  0  0
 16 17  1  0  0  0  0
 17 18  2  0  0  0  0
 17 10  1  0  0  0  0
 19 16  1  0  0  0  0
 20 22  1  0  0  0  0
 21 20  2  0  0  0  0
 22  6  1  0  0  0  0
 23 20  1  0  0  0  0
 24 22  1  0  0  0  0
 25 27  1  0  0  0  0
 26 25  1  0  0  0  0
 28 30  1  0  0  0  0
 28 35  1  0  0  0  0
 28 25  1  0  0  0  0
 29 28  1  0  0  0  0
 31 37  1  0  0  0  0
 32 38  1  0  0  0  0
 32 31  2  0  0  0  0
 33 32  1  0  0  0  0
 34 33  2  0  0  0  0
 34 35  1  0  0  0  0
 35 36  2  0  0  0  0
 36 31  1  0  0  0  0
 39 33  1  0  0  0  0
M  END
>  <minimizedAffinity>
-5.601336

$$$$

 OpenBabel03252501303D

 39 41  0  0  0  0  0  0  0  0999 V2000
   38.2880   28.8620   42.4370 C   0  0  0  0  0  0  0  0  0  0  0  0
   39.0470   29.8570   42.9800 C   0  0  0  0  0  0  0  0  0  0  0  0
   39.5880   30.8870   42.2770 C   0  0  0  0  0  0  0  0  0  0  0  0
   39.3640   30.9320   40.9470 C   0  0  0  0  0  0  0  0  0  0  0  0
   38.5870   29.9290   40.3390 C   0  0  0  0  0  0  0  0  0  0  0  0
   38.0560   28.9050   41.0900 C   0  0  0  0  0  0  0  0  0  0  0  0
   39.1930   29.7630   44.0690 H   0  0  0  0  0  0  0  0  0  0  0  0
   40.1630   31.6010   42.8300 H   0  0  0  0  0  0  0  0  0  0  0  0
   38.5210   30.1410   39.2720 H   0  0  0  0  0  0  0  0  0  0  0  0
   39.9670   32.0490   40.2480 N   0  0  0  0  0  0  0  0  0  0  0  0
   41.2590   31.8000   39.9110 C   0  0  0  0  0  3  0  0  0  0  0  0
   41.9710   32.7720   39.2380 C   0  0  0  0  0  0  0  0  0  0  0  0
   43.0200   32.6310   38.9370 H   0  0  0  0  0  0  0  0  0  0  0  0
   41.3350   33.9730   38.9330 C   0  0  0  0  0  0  0  0  0  0  0  0
   41.9470   34.8770   38.3260 O   0  0  0  0  0  0  0  0  0  0  0  0
   40.0340   34.1460   39.3080 N   0  0  0  0  0  0  0  0  0  0  0  0
   39.3500   33.1970   39.9610 C   0  0  0  0  0  0  0  0  0  0  0  0
   38.1510   33.3190   40.3230 O   0  0  0  0  0  0  0  0  0  0  0  0
   39.5810   35.0380   39.0740 H   0  0  0  0  0  0  0  0  0  0  0  0
   35.9310   28.4030   40.0450 C   0  0  0  0  0  0  0  0  0  0  0  0
   35.0570   29.1980   40.5500 O   0  0  0  0  0  0  0  0  0  0  0  0
   37.3270   28.0940   40.1620 N   0  0  0  0  0  0  0  0  0  0  0  0
   35.1850   27.9520   39.3900 H   0  0  0  0  0  0  0  0  0  0  0  0
   37.5540   27.3120   39.5300 H   0  0  0  0  0  0  0  0  0  0  0  0
   37.6770   27.6940   43.0830 C   0  0  0  0  0  0  0  0  0  0  0  0
   36.8350   27.2740   42.4730 H   0  0  0  0  0  0  0  0  0  0  0  0
   37.2300   28.0300   44.0260 H   0  0  0  0  0  0  0  0  0  0  0  0
   38.6970   26.5760   43.2630 C   0  0  0  0  0  0  0  0  0  0  0  0
   38.6850   26.2530   44.3120 H   0  0  0  0  0  0  0  0  0  0  0  0
   39.7410   26.9480   43.0570 H   0  0  0  0  0  0  0  0  0  0  0  0
   38.8770   23.6090   41.1190 C   0  0  0  0  0  0  0  0  0  0  0  0
   37.5420   23.4470   40.6900 C   0  0  0  0  0  0  0  0  0  0  0  0
   36.6190   24.3870   41.1730 C   0  0  0  0  0  0  0  0  0  0  0  0
   37.0210   25.3700   41.9940 N   0  0  0  0  0  0  0  0  0  0  0  0
   38.3200   25.4670   42.3670 C   0  0  0  0  0  0  0  0  0  0  0  0
   39.2310   24.6200   41.9500 N   0  0  0  0  0  0  0  0  0  0  0  0
   39.6910   22.9550   40.8220 H   0  0  0  0  0  0  0  0  0  0  0  0
   37.3290   22.6200   40.0280 H   0  0  0  0  0  0  0  0  0  0  0  0
   35.5960   24.2600   40.8420 H   0  0  0  0  0  0  0  0  0  0  0  0
  1  2  1  0  0  0  0
  1 25  1  0  0  0  0
  2  7  1  0  0  0  0
  3  8  1  0  0  0  0
  3  2  2  0  0  0  0
  4  3  1  0  0  0  0
  5  4  2  0  0  0  0
  5  6  1  0  0  0  0
  6  1  2  0  0  0  0
  9  5  1  0  0  0  0
 10  4  1  0  0  0  0
 11 10  1  0  0  0  0
 12 11  2  0  0  0  0
 13 12  1  0  0  0  0
 14 12  1  0  0  0  0
 14 16  1  0  0  0  0
 15 14  2  0  0  0  0
 16 17  1  0  0  0  0
 17 10  1  0  0  0  0
 17 18  2  0  0  0  0
 19 16  1  0  0  0  0
 20 22  1  0  0  0  0
 20 21  2  0  0  0  0
 22  6  1  0  0  0  0
 23 20  1  0  0  0  0
 24 22  1  0  0  0  0
 25 28  1  0  0  0  0
 25 27  1  0  0  0  0
 26 25  1  0  0  0  0
 28 29  1  0  0  0  0
 30 28  1  0  0  0  0
 31 36  1  0  0  0  0
 32 31  2  0  0  0  0
 32 33  1  0  0  0  0
 33 34  2  0  0  0  0
 34 35  1  0  0  0  0
 35 28  1  0  0  0  0
 36 35  2  0  0  0  0
 37 31  1  0  0  0  0
 38 32  1  0  0  0  0
 39 33  1  0  0  0  0
M  END
>  <minimizedAffinity>
-5.58098316

$$$$

 OpenBabel03252501303D

 39 41  0  0  0  0  0  0  0  0999 V2000
   36.5200   29.0330   40.3220 C   0  0  0  0  0  0  0  0  0  0  0  0
   35.9150   28.0670   39.5710 C   0  0  0  0  0  0  0  0  0  0  0  0
   36.2830   26.7600   39.5530 C   0  0  0  0  0  0  0  0  0  0  0  0
   37.3210   26.3820   40.3280 C   0  0  0  0  0  0  0  0  0  0  0  0
   37.9780   27.3410   41.1210 C   0  0  0  0  0  0  0  0  0  0  0  0
   37.5720   28.6550   41.1100 C   0  0  0  0  0  0  0  0  0  0  0  0
   35.0750   28.4380   38.9600 H   0  0  0  0  0  0  0  0  0  0  0  0
   35.7190   26.1070   38.9170 H   0  0  0  0  0  0  0  0  0  0  0  0
   38.7790   26.8450   41.6690 H   0  0  0  0  0  0  0  0  0  0  0  0
   37.6710   24.9780   40.2660 N   0  0  0  0  0  0  0  0  0  0  0  0
   38.3280   24.6680   39.1180 C   0  0  0  0  0  3  0  0  0  0  0  0
   38.7280   23.3640   38.9120 C   0  0  0  0  0  0  0  0  0  0  0  0
   39.2650   23.0490   38.0030 H   0  0  0  0  0  0  0  0  0  0  0  0
   38.4420   22.4150   39.8900 C   0  0  0  0  0  0  0  0  0  0  0  0
   38.7880   21.2250   39.7400 O   0  0  0  0  0  0  0  0  0  0  0  0
   37.7770   22.8080   41.0170 N   0  0  0  0  0  0  0  0  0  0  0  0
   37.3920   24.0760   41.2090 C   0  0  0  0  0  0  0  0  0  0  0  0
   36.7780   24.4760   42.2310 O   0  0  0  0  0  0  0  0  0  0  0  0
   37.5750   22.0950   41.7280 H   0  0  0  0  0  0  0  0  0  0  0  0
   38.1270   29.1420   43.4160 C   0  0  0  0  0  0  0  0  0  0  0  0
   37.2530   28.5580   44.1540 O   0  0  0  0  0  0  0  0  0  0  0  0
   38.4400   29.3280   42.0280 N   0  0  0  0  0  0  0  0  0  0  0  0
   38.6550   29.5220   44.2910 H   0  0  0  0  0  0  0  0  0  0  0  0
   39.2670   29.9380   41.9470 H   0  0  0  0  0  0  0  0  0  0  0  0
   36.2320   30.4690   40.4050 C   0  0  0  0  0  0  0  0  0  0  0  0
   36.7010   30.9360   41.3110 H   0  0  0  0  0  0  0  0  0  0  0  0
   35.1490   30.5860   40.5290 H   0  0  0  0  0  0  0  0  0  0  0  0
   36.7840   31.2060   39.1900 C   0  0  0  0  0  0  0  0  0  0  0  0
   35.9470   31.6630   38.6440 H   0  0  0  0  0  0  0  0  0  0  0  0
   37.2760   30.4880   38.4750 H   0  0  0  0  0  0  0  0  0  0  0  0
   38.2540   34.4440   40.0760 C   0  0  0  0  0  0  0  0  0  0  0  0
   39.5300   34.0910   40.5630 C   0  0  0  0  0  0  0  0  0  0  0  0
   39.8320   32.7200   40.5680 C   0  0  0  0  0  0  0  0  0  0  0  0
   38.9310   31.8270   40.1260 N   0  0  0  0  0  0  0  0  0  0  0  0
   37.7230   32.2370   39.6710 C   0  0  0  0  0  0  0  0  0  0  0  0
   37.3810   33.5030   39.6400 N   0  0  0  0  0  0  0  0  0  0  0  0
   37.8920   35.4660   40.0160 H   0  0  0  0  0  0  0  0  0  0  0  0
   40.1770   34.8900   40.8940 H   0  0  0  0  0  0  0  0  0  0  0  0
   40.8110   32.4510   40.9420 H   0  0  0  0  0  0  0  0  0  0  0  0
  1 25  1  0  0  0  0
  1  6  1  0  0  0  0
  2  1  2  0  0  0  0
  3  2  1  0  0  0  0
  3  4  2  0  0  0  0
  4  5  1  0  0  0  0
  5  9  1  0  0  0  0
  6  5  2  0  0  0  0
  6 22  1  0  0  0  0
  7  2  1  0  0  0  0
  8  3  1  0  0  0  0
 10  4  1  0  0  0  0
 10 17  1  0  0  0  0
 11 10  1  0  0  0  0
 12 11  2  0  0  0  0
 12 14  1  0  0  0  0
 13 12  1  0  0  0  0
 14 16  1  0  0  0  0
 15 14  2  0  0  0  0
 16 17  1  0  0  0  0
 16 19  1  0  0  0  0
 17 18  2  0  0  0  0
 20 21  2  0  0  0  0
 20 23  1  0  0  0  0
 22 20  1  0  0  0  0
 24 22  1  0  0  0  0
 25 27  1  0  0  0  0
 25 26  1  0  0  0  0
 28 35  1  0  0  0  0
 28 25  1  0  0  0  0
 29 28  1  0  0  0  0
 30 28  1  0  0  0  0
 31 32  1  0  0  0  0
 32 33  2  0  0  0  0
 32 38  1  0  0  0  0
 33 39  1  0  0  0  0
 34 33  1  0  0  0  0
 35 34  2  0  0  0  0
 36 35  1  0  0  0  0
 36 31  2  0  0  0  0
 37 31  1  0  0  0  0
M  END
>  <minimizedAffinity>
-5.55503845

$$$$

 OpenBabel03252501303D

 39 41  0  0  0  0  0  0  0  0999 V2000
   36.3590   30.4040   39.7980 C   0  0  0  0  0  0  0  0  0  0  0  0
   36.9790   31.1570   38.8430 C   0  0  0  0  0  0  0  0  0  0  0  0
   38.0730   31.9320   39.0620 C   0  0  0  0  0  0  0  0  0  0  0  0
   38.5870   31.9670   40.3090 C   0  0  0  0  0  0  0  0  0  0  0  0
   37.9830   31.2070   41.3290 C   0  0  0  0  0  0  0  0  0  0  0  0
   36.8770   30.4340   41.0630 C   0  0  0  0  0  0  0  0  0  0  0  0
   36.5130   31.0870   37.8460 H   0  0  0  0  0  0  0  0  0  0  0  0
   38.4610   32.4720   38.2210 H   0  0  0  0  0  0  0  0  0  0  0  0
   38.5380   31.3650   42.2530 H   0  0  0  0  0  0  0  0  0  0  0  0
   39.7500   32.8120   40.4850 N   0  0  0  0  0  0  0  0  0  0  0  0
   40.9050   32.0960   40.4680 C   0  0  0  0  0  3  0  0  0  0  0  0
   42.1030   32.7630   40.6250 C   0  0  0  0  0  0  0  0  0  0  0  0
   43.0720   32.2410   40.6190 H   0  0  0  0  0  0  0  0  0  0  0  0
   42.0800   34.1450   40.7950 C   0  0  0  0  0  0  0  0  0  0  0  0
   43.1440   34.7830   40.9410 O   0  0  0  0  0  0  0  0  0  0  0  0
   40.8770   34.7900   40.8010 N   0  0  0  0  0  0  0  0  0  0  0  0
   39.7180   34.1360   40.6490 C   0  0  0  0  0  0  0  0  0  0  0  0
   38.5910   34.6940   40.6490 O   0  0  0  0  0  0  0  0  0  0  0  0
   40.8800   35.8100   40.9290 H   0  0  0  0  0  0  0  0  0  0  0  0
   37.2320   28.5680   42.5640 C   0  0  0  0  0  0  0  0  0  0  0  0
   38.0730   27.7770   42.0020 O   0  0  0  0  0  0  0  0  0  0  0  0
   36.5480   29.8020   42.3050 N   0  0  0  0  0  0  0  0  0  0  0  0
   37.1740   27.9280   43.4450 H   0  0  0  0  0  0  0  0  0  0  0  0
   35.9210   30.0130   43.0950 H   0  0  0  0  0  0  0  0  0  0  0  0
   35.1670   29.5550   39.6890 C   0  0  0  0  0  0  0  0  0  0  0  0
   34.2300   30.1190   39.9400 H   0  0  0  0  0  0  0  0  0  0  0  0
   35.2530   28.7610   40.4410 H   0  0  0  0  0  0  0  0  0  0  0  0
   35.0010   29.0280   38.2690 C   0  0  0  0  0  0  0  0  0  0  0  0
   35.7060   29.5540   37.6120 H   0  0  0  0  0  0  0  0  0  0  0  0
   33.9700   29.2560   37.8750 H   0  0  0  0  0  0  0  0  0  0  0  0
   34.9250   25.4530   37.4660 C   0  0  0  0  0  0  0  0  0  0  0  0
   35.8330   24.9000   38.3930 C   0  0  0  0  0  0  0  0  0  0  0  0
   36.4490   25.8060   39.2710 C   0  0  0  0  0  0  0  0  0  0  0  0
   36.1620   27.1160   39.2010 N   0  0  0  0  0  0  0  0  0  0  0  0
   35.2780   27.5790   38.2860 C   0  0  0  0  0  0  0  0  0  0  0  0
   34.6700   26.7840   37.4380 N   0  0  0  0  0  0  0  0  0  0  0  0
   34.3800   24.8680   36.7320 H   0  0  0  0  0  0  0  0  0  0  0  0
   35.9890   23.8320   38.3620 H   0  0  0  0  0  0  0  0  0  0  0  0
   37.1450   25.3800   39.9810 H   0  0  0  0  0  0  0  0  0  0  0  0
  1  6  1  0  0  0  0
  2  3  1  0  0  0  0
  2  1  2  0  0  0  0
  3  4  2  0  0  0  0
  4 10  1  0  0  0  0
  4  5  1  0  0  0  0
  5  9  1  0  0  0  0
  6  5  2  0  0  0  0
  6 22  1  0  0  0  0
  7  2  1  0  0  0  0
  8  3  1  0  0  0  0
 10 17  1  0  0  0  0
 11 10  1  0  0  0  0
 11 12  2  0  0  0  0
 12 14  1  0  0  0  0
 13 12  1  0  0  0  0
 14 16  1  0  0  0  0
 14 15  2  0  0  0  0
 16 19  1  0  0  0  0
 17 16  1  0  0  0  0
 18 17  2  0  0  0  0
 20 23  1  0  0  0  0
 21 20  2  0  0  0  0
 22 20  1  0  0  0  0
 22 24  1  0  0  0  0
 25  1  1  0  0  0  0
 25 26  1  0  0  0  0
 25 27  1  0  0  0  0
 28 35  1  0  0  0  0
 28 25  1  0  0  0  0
 29 28  1  0  0  0  0
 30 28  1  0  0  0  0
 31 32  1  0  0  0  0
 32 33  2  0  0  0  0
 33 39  1  0  0  0  0
 34 33  1  0  0  0  0
 35 34  2  0  0  0  0
 36 31  2  0  0  0  0
 36 35  1  0  0  0  0
 37 31  1  0  0  0  0
 38 32  1  0  0  0  0
M  END
>  <minimizedAffinity>
-5.53881359

$$$$

 OpenBabel03252501303D

 39 41  0  0  0  0  0  0  0  0999 V2000
   37.2530   28.9770   40.3940 C   0  0  0  0  0  0  0  0  0  0  0  0
   37.9710   29.5030   39.3590 C   0  0  0  0  0  0  0  0  0  0  0  0
   38.8710   30.5130   39.4790 C   0  0  0  0  0  0  0  0  0  0  0  0
   39.0740   31.0390   40.7050 C   0  0  0  0  0  0  0  0  0  0  0  0
   38.3590   30.5310   41.8050 C   0  0  0  0  0  0  0  0  0  0  0  0
   37.4570   29.5050   41.6390 C   0  0  0  0  0  0  0  0  0  0  0  0
   37.7600   29.0320   38.3850 H   0  0  0  0  0  0  0  0  0  0  0  0
   39.3660   30.8300   38.5830 H   0  0  0  0  0  0  0  0  0  0  0  0
   38.6600   31.0790   42.6970 H   0  0  0  0  0  0  0  0  0  0  0  0
   40.0420   32.1150   40.7730 N   0  0  0  0  0  0  0  0  0  0  0  0
   41.3110   31.6480   40.9140 C   0  0  0  0  0  3  0  0  0  0  0  0
   42.3480   32.5550   40.9940 C   0  0  0  0  0  0  0  0  0  0  0  0
   43.3970   32.2410   41.1080 H   0  0  0  0  0  0  0  0  0  0  0  0
   42.0530   33.9140   40.9290 C   0  0  0  0  0  0  0  0  0  0  0  0
   42.9640   34.7650   40.9980 O   0  0  0  0  0  0  0  0  0  0  0  0
   40.7510   34.3020   40.7870 N   0  0  0  0  0  0  0  0  0  0  0  0
   39.7500   33.4150   40.7100 C   0  0  0  0  0  0  0  0  0  0  0  0
   38.5390   33.7320   40.5790 O   0  0  0  0  0  0  0  0  0  0  0  0
   40.5520   35.3080   40.7400 H   0  0  0  0  0  0  0  0  0  0  0  0
   37.6460   28.2420   43.6950 C   0  0  0  0  0  0  0  0  0  0  0  0
   38.6350   27.4340   43.5610 O   0  0  0  0  0  0  0  0  0  0  0  0
   36.9380   29.2400   42.9470 N   0  0  0  0  0  0  0  0  0  0  0  0
   37.4620   27.8950   44.7130 H   0  0  0  0  0  0  0  0  0  0  0  0
   36.1550   29.5970   43.5140 H   0  0  0  0  0  0  0  0  0  0  0  0
   36.2420   27.9130   40.3840 C   0  0  0  0  0  0  0  0  0  0  0  0
   35.2750   28.2630   39.9390 H   0  0  0  0  0  0  0  0  0  0  0  0
   36.0200   27.6540   41.4270 H   0  0  0  0  0  0  0  0  0  0  0  0
   36.7100   26.7250   39.5530 C   0  0  0  0  0  0  0  0  0  0  0  0
   37.3180   27.0960   38.7170 H   0  0  0  0  0  0  0  0  0  0  0  0
   35.8320   26.1880   39.0920 H   0  0  0  0  0  0  0  0  0  0  0  0
   37.6440   24.3330   42.1680 C   0  0  0  0  0  0  0  0  0  0  0  0
   39.0440   24.2360   42.0230 C   0  0  0  0  0  0  0  0  0  0  0  0
   39.6160   25.0140   41.0040 C   0  0  0  0  0  0  0  0  0  0  0  0
   38.8410   25.7940   40.2330 N   0  0  0  0  0  0  0  0  0  0  0  0
   37.5020   25.8400   40.4280 C   0  0  0  0  0  0  0  0  0  0  0  0
   36.9070   25.1370   41.3630 N   0  0  0  0  0  0  0  0  0  0  0  0
   37.0740   23.7880   42.9140 H   0  0  0  0  0  0  0  0  0  0  0  0
   39.5700   23.5770   42.6980 H   0  0  0  0  0  0  0  0  0  0  0  0
   40.6890   24.9370   40.8950 H   0  0  0  0  0  0  0  0  0  0  0  0
  1  6  1  0  0  0  0
  2  3  1  0  0  0  0
  2  1  2  0  0  0  0
  3  4  2  0  0  0  0
  4 10  1  0  0  0  0
  4  5  1  0  0  0  0
  5  9  1  0  0  0  0
  6  5  2  0  0  0  0
  6 22  1  0  0  0  0
  7  2  1  0  0  0  0
  8  3  1  0  0  0  0
 10 11  1  0  0  0  0
 11 12  2  0  0  0  0
 12 13  1  0  0  0  0
 14 12  1  0  0  0  0
 14 15  2  0  0  0  0
 16 14  1  0  0  0  0
 17 10  1  0  0  0  0
 17 16  1  0  0  0  0
 18 17  2  0  0  0  0
 19 16  1  0  0  0  0
 20 23  1  0  0  0  0
 21 20  2  0  0  0  0
 22 24  1  0  0  0  0
 22 20  1  0  0  0  0
 25  1  1  0  0  0  0
 25 27  1  0  0  0  0
 26 25  1  0  0  0  0
 28 25  1  0  0  0  0
 28 35  1  0  0  0  0
 29 28  1  0  0  0  0
 30 28  1  0  0  0  0
 31 37  1  0  0  0  0
 32 31  1  0  0  0  0
 32 38  1  0  0  0  0
 33 32  2  0  0  0  0
 34 35  2  0  0  0  0
 34 33  1  0  0  0  0
 35 36  1  0  0  0  0
 36 31  2  0  0  0  0
 39 33  1  0  0  0  0
M  END
>  <minimizedAffinity>
-5.52561045

$$$$
