
 OpenBabel03252500423D

 29 31  0  0  1  0  0  0  0  0999 V2000
   37.1960   28.2320   41.3500 C   0  0  1  0  0  0  0  0  0  0  0  0
   35.9660   28.9840   40.9180 C   0  0  0  0  0  0  0  0  0  0  0  0
   36.9130   29.5810   41.9190 C   0  0  2  0  0  0  0  0  0  0  0  0
   38.1470   28.2880   40.7550 H   0  0  0  0  0  0  0  0  0  0  0  0
   34.9930   28.5890   41.2070 H   0  0  0  0  0  0  0  0  0  0  0  0
   35.9850   29.3650   39.8730 H   0  0  0  0  0  0  0  0  0  0  0  0
   36.5440   29.6940   42.9600 H   0  0  0  0  0  0  0  0  0  0  0  0
   37.5920   30.7680   41.4490 N   0  0  0  0  0  0  0  0  0  0  0  0
   36.9700   31.5360   40.5410 C   0  0  0  0  0  3  0  0  0  0  0  0
   37.5460   32.7030   40.0280 C   0  0  0  0  0  0  0  0  0  0  0  0
   37.0430   33.3110   39.3030 H   0  0  0  0  0  0  0  0  0  0  0  0
   38.8090   33.0790   40.4740 C   0  0  0  0  0  0  0  0  0  0  0  0
   39.4060   34.1040   40.0750 O   0  0  0  0  0  0  0  0  0  0  0  0
   39.3940   32.2640   41.3950 N   0  0  0  0  0  0  0  0  0  0  0  0
   38.7970   31.1410   41.8660 C   0  0  0  0  0  0  0  0  0  0  0  0
   39.4110   30.4590   42.7060 O   0  0  0  0  0  0  0  0  0  0  0  0
   40.3420   32.5460   41.7300 H   0  0  0  0  0  0  0  0  0  0  0  0
   36.9430   27.0620   42.2330 C   0  0  0  0  0  0  0  0  0  0  0  0
   36.1840   26.3970   41.7950 H   0  0  0  0  0  0  0  0  0  0  0  0
   36.5850   27.4940   43.2170 H   0  0  0  0  0  0  0  0  0  0  0  0
   38.1600   26.3050   42.5560 C   0  0  0  0  0  0  0  0  0  0  0  0
   39.1010   26.9910   43.2950 C   0  0  0  0  0  0  0  0  0  0  0  0
   40.2870   26.2960   43.6570 C   0  0  0  0  0  0  0  0  0  0  0  0
   40.4140   25.0050   43.2520 N   0  0  0  0  0  0  0  0  0  0  0  0
   39.4480   24.3860   42.5220 C   0  0  0  0  0  0  0  0  0  0  0  0
   38.3320   25.0370   42.1800 N   0  0  0  0  0  0  0  0  0  0  0  0
   39.2010   27.9780   43.7040 H   0  0  0  0  0  0  0  0  0  0  0  0
   41.1290   26.6540   44.2260 H   0  0  0  0  0  0  0  0  0  0  0  0
   39.5510   23.3580   42.2000 H   0  0  0  0  0  0  0  0  0  0  0  0
  1  4  1  6  0  0  0
  1  3  1  0  0  0  0
  1 18  1  0  0  0  0
  2  5  1  0  0  0  0
  2  1  1  0  0  0  0
  2  3  1  0  0  0  0
  3  7  1  1  0  0  0
  6  2  1  0  0  0  0
  8 15  1  0  0  0  0
  8  3  1  0  0  0  0
  9  8  1  0  0  0  0
 10 12  1  0  0  0  0
 10  9  2  0  0  0  0
 11 10  1  0  0  0  0
 12 14  1  0  0  0  0
 13 12  2  0  0  0  0
 14 17  1  0  0  0  0
 14 15  1  0  0  0  0
 15 16  2  0  0  0  0
 18 21  1  0  0  0  0
 18 20  1  0  0  0  0
 19 18  1  0  0  0  0
 21 22  1  0  0  0  0
 22 23  2  0  0  0  0
 22 27  1  0  0  0  0
 23 28  1  0  0  0  0
 24 23  1  0  0  0  0
 25 24  2  0  0  0  0
 26 25  1  0  0  0  0
 26 21  2  0  0  0  0
 29 25  1  0  0  0  0
M  END
>  <minimizedAffinity>
-5.00456142

$$$$

 OpenBabel03252500423D

 29 31  0  0  1  0  0  0  0  0999 V2000
   38.1450   27.7600   42.5270 C   0  0  1  0  0  0  0  0  0  0  0  0
   37.5940   28.6000   43.6470 C   0  0  0  0  0  0  0  0  0  0  0  0
   38.8470   29.0120   42.9300 C   0  0  2  0  0  0  0  0  0  0  0  0
   37.7730   27.8830   41.4750 H   0  0  0  0  0  0  0  0  0  0  0  0
   37.6120   28.1910   44.6560 H   0  0  0  0  0  0  0  0  0  0  0  0
   36.6460   29.1370   43.4160 H   0  0  0  0  0  0  0  0  0  0  0  0
   39.7960   28.9730   43.5070 H   0  0  0  0  0  0  0  0  0  0  0  0
   38.7170   30.2390   42.1780 N   0  0  0  0  0  0  0  0  0  0  0  0
   37.6240   30.4010   41.4130 C   0  0  0  0  0  3  0  0  0  0  0  0
   37.4100   31.5540   40.6510 C   0  0  0  0  0  0  0  0  0  0  0  0
   36.5360   31.6760   40.0440 H   0  0  0  0  0  0  0  0  0  0  0  0
   38.3630   32.5670   40.6840 C   0  0  0  0  0  0  0  0  0  0  0  0
   38.2610   33.6330   40.0370 O   0  0  0  0  0  0  0  0  0  0  0  0
   39.4510   32.3500   41.4750 N   0  0  0  0  0  0  0  0  0  0  0  0
   39.6170   31.2160   42.1990 C   0  0  0  0  0  0  0  0  0  0  0  0
   40.6450   31.1090   42.8920 O   0  0  0  0  0  0  0  0  0  0  0  0
   40.1660   33.1110   41.4990 H   0  0  0  0  0  0  0  0  0  0  0  0
   38.7650   26.4750   42.9480 C   0  0  0  0  0  0  0  0  0  0  0  0
   38.5640   26.2730   44.0110 H   0  0  0  0  0  0  0  0  0  0  0  0
   39.8750   26.5950   42.7600 H   0  0  0  0  0  0  0  0  0  0  0  0
   38.3480   25.3330   42.1240 C   0  0  0  0  0  0  0  0  0  0  0  0
   36.9860   25.1930   41.9570 C   0  0  0  0  0  0  0  0  0  0  0  0
   36.5300   24.1190   41.1450 C   0  0  0  0  0  0  0  0  0  0  0  0
   37.4640   23.3030   40.5900 N   0  0  0  0  0  0  0  0  0  0  0  0
   38.7950   23.4940   40.7950 C   0  0  0  0  0  0  0  0  0  0  0  0
   39.2260   24.5040   41.5580 N   0  0  0  0  0  0  0  0  0  0  0  0
   36.1040   25.7040   42.2940 H   0  0  0  0  0  0  0  0  0  0  0  0
   35.5170   23.8470   40.8970 H   0  0  0  0  0  0  0  0  0  0  0  0
   39.5370   22.8430   40.3530 H   0  0  0  0  0  0  0  0  0  0  0  0
  1  4  1  6  0  0  0
  1  3  1  0  0  0  0
  1 18  1  0  0  0  0
  1  2  1  0  0  0  0
  2  5  1  0  0  0  0
  3  7  1  1  0  0  0
  3  2  1  0  0  0  0
  6  2  1  0  0  0  0
  8 15  1  0  0  0  0
  8  3  1  0  0  0  0
  9  8  1  0  0  0  0
 10 12  1  0  0  0  0
 10  9  2  0  0  0  0
 11 10  1  0  0  0  0
 12 14  1  0  0  0  0
 13 12  2  0  0  0  0
 14 17  1  0  0  0  0
 14 15  1  0  0  0  0
 15 16  2  0  0  0  0
 18 19  1  0  0  0  0
 20 18  1  0  0  0  0
 21 18  1  0  0  0  0
 22 21  1  0  0  0  0
 22 27  1  0  0  0  0
 23 22  2  0  0  0  0
 24 25  2  0  0  0  0
 24 23  1  0  0  0  0
 25 26  1  0  0  0  0
 26 21  2  0  0  0  0
 28 23  1  0  0  0  0
 29 25  1  0  0  0  0
M  END
>  <minimizedAffinity>
-4.96443701

$$$$

 OpenBabel03252500423D

 29 31  0  0  1  0  0  0  0  0999 V2000
   37.5550   30.6620   39.9430 C   0  0  1  0  0  0  0  0  0  0  0  0
   36.9490   31.3230   38.7340 C   0  0  0  0  0  0  0  0  0  0  0  0
   37.8280   32.1020   39.6690 C   0  0  2  0  0  0  0  0  0  0  0  0
   38.5210   30.0950   39.8690 H   0  0  0  0  0  0  0  0  0  0  0  0
   35.8690   31.4590   38.7080 H   0  0  0  0  0  0  0  0  0  0  0  0
   37.3670   30.9970   37.7550 H   0  0  0  0  0  0  0  0  0  0  0  0
   37.3440   32.8990   40.2720 H   0  0  0  0  0  0  0  0  0  0  0  0
   39.0690   32.5460   39.0740 N   0  0  0  0  0  0  0  0  0  0  0  0
   39.5070   31.9120   37.9740 C   0  0  0  0  0  3  0  0  0  0  0  0
   40.6950   32.2700   37.3290 C   0  0  0  0  0  0  0  0  0  0  0  0
   41.0380   31.7600   36.4520 H   0  0  0  0  0  0  0  0  0  0  0  0
   41.4500   33.3180   37.8450 C   0  0  0  0  0  0  0  0  0  0  0  0
   42.5250   33.7110   37.3400 O   0  0  0  0  0  0  0  0  0  0  0  0
   40.9590   33.9250   38.9620 N   0  0  0  0  0  0  0  0  0  0  0  0
   39.8010   33.5450   39.5550 C   0  0  0  0  0  0  0  0  0  0  0  0
   39.4340   34.1600   40.5730 O   0  0  0  0  0  0  0  0  0  0  0  0
   41.5260   34.7120   39.3500 H   0  0  0  0  0  0  0  0  0  0  0  0
   36.5980   30.3560   41.0400 C   0  0  0  0  0  0  0  0  0  0  0  0
   35.5780   30.2320   40.6470 H   0  0  0  0  0  0  0  0  0  0  0  0
   36.6560   31.2360   41.7500 H   0  0  0  0  0  0  0  0  0  0  0  0
   36.9850   29.1820   41.8350 C   0  0  0  0  0  0  0  0  0  0  0  0
   36.5780   27.9670   41.3270 C   0  0  0  0  0  0  0  0  0  0  0  0
   36.9490   26.7980   42.0450 C   0  0  0  0  0  0  0  0  0  0  0  0
   37.6790   26.9550   43.1810 N   0  0  0  0  0  0  0  0  0  0  0  0
   38.0470   28.1840   43.6300 C   0  0  0  0  0  0  0  0  0  0  0  0
   37.6990   29.2860   42.9570 N   0  0  0  0  0  0  0  0  0  0  0  0
   36.0150   27.6270   40.4800 H   0  0  0  0  0  0  0  0  0  0  0  0
   36.7310   25.7680   41.8120 H   0  0  0  0  0  0  0  0  0  0  0  0
   38.6270   28.3080   44.5340 H   0  0  0  0  0  0  0  0  0  0  0  0
  1  4  1  6  0  0  0
  1 18  1  0  0  0  0
  2  3  1  0  0  0  0
  2  1  1  0  0  0  0
  3  1  1  0  0  0  0
  3  7  1  1  0  0  0
  5  2  1  0  0  0  0
  6  2  1  0  0  0  0
  8 15  1  0  0  0  0
  8  3  1  0  0  0  0
  9  8  1  0  0  0  0
 10 12  1  0  0  0  0
 10  9  2  0  0  0  0
 11 10  1  0  0  0  0
 12 14  1  0  0  0  0
 13 12  2  0  0  0  0
 14 17  1  0  0  0  0
 14 15  1  0  0  0  0
 15 16  2  0  0  0  0
 18 20  1  0  0  0  0
 18 21  1  0  0  0  0
 19 18  1  0  0  0  0
 21 26  1  0  0  0  0
 22 21  2  0  0  0  0
 22 23  1  0  0  0  0
 23 24  2  0  0  0  0
 24 25  1  0  0  0  0
 25 29  1  0  0  0  0
 26 25  2  0  0  0  0
 27 22  1  0  0  0  0
 28 23  1  0  0  0  0
M  END
>  <minimizedAffinity>
-4.80436802

$$$$

 OpenBabel03252500423D

 29 31  0  0  1  0  0  0  0  0999 V2000
   37.1530   30.2700   39.9240 C   0  0  1  0  0  0  0  0  0  0  0  0
   36.7900   31.5470   39.2150 C   0  0  0  0  0  0  0  0  0  0  0  0
   37.4010   31.5830   40.5870 C   0  0  2  0  0  0  0  0  0  0  0  0
   38.1420   29.7700   39.7440 H   0  0  0  0  0  0  0  0  0  0  0  0
   35.7360   31.7610   39.0460 H   0  0  0  0  0  0  0  0  0  0  0  0
   37.4290   31.8030   38.3410 H   0  0  0  0  0  0  0  0  0  0  0  0
   36.7540   31.9320   41.4190 H   0  0  0  0  0  0  0  0  0  0  0  0
   38.7150   32.1840   40.6290 N   0  0  0  0  0  0  0  0  0  0  0  0
   39.0120   33.1230   39.7150 C   0  0  0  0  0  3  0  0  0  0  0  0
   40.2570   33.7610   39.6770 C   0  0  0  0  0  0  0  0  0  0  0  0
   40.4860   34.5090   38.9460 H   0  0  0  0  0  0  0  0  0  0  0  0
   41.2200   33.4080   40.6160 C   0  0  0  0  0  0  0  0  0  0  0  0
   42.3610   33.9210   40.6620 O   0  0  0  0  0  0  0  0  0  0  0  0
   40.8660   32.4510   41.5180 N   0  0  0  0  0  0  0  0  0  0  0  0
   39.6460   31.8590   41.5190 C   0  0  0  0  0  0  0  0  0  0  0  0
   39.4150   30.9930   42.3820 O   0  0  0  0  0  0  0  0  0  0  0  0
   41.5900   32.1860   42.2230 H   0  0  0  0  0  0  0  0  0  0  0  0
   35.9990   29.4740   40.4200 C   0  0  0  0  0  0  0  0  0  0  0  0
   35.2780   29.2850   39.6110 H   0  0  0  0  0  0  0  0  0  0  0  0
   35.5320   30.0930   41.2440 H   0  0  0  0  0  0  0  0  0  0  0  0
   36.3970   28.2100   41.0550 C   0  0  0  0  0  0  0  0  0  0  0  0
   36.6210   27.1610   40.1880 C   0  0  0  0  0  0  0  0  0  0  0  0
   37.0340   25.9220   40.7500 C   0  0  0  0  0  0  0  0  0  0  0  0
   37.1810   25.8540   42.0990 N   0  0  0  0  0  0  0  0  0  0  0  0
   36.9430   26.9270   42.8990 C   0  0  0  0  0  0  0  0  0  0  0  0
   36.5540   28.0940   42.3740 N   0  0  0  0  0  0  0  0  0  0  0  0
   36.5640   27.0010   39.1290 H   0  0  0  0  0  0  0  0  0  0  0  0
   37.2560   24.9960   40.2450 H   0  0  0  0  0  0  0  0  0  0  0  0
   37.0590   26.8720   43.9730 H   0  0  0  0  0  0  0  0  0  0  0  0
  1  4  1  6  0  0  0
  1 18  1  0  0  0  0
  1  3  1  0  0  0  0
  2  1  1  0  0  0  0
  2  3  1  0  0  0  0
  3  8  1  0  0  0  0
  3  7  1  1  0  0  0
  5  2  1  0  0  0  0
  6  2  1  0  0  0  0
  8 15  1  0  0  0  0
  9  8  1  0  0  0  0
 10  9  2  0  0  0  0
 10 12  1  0  0  0  0
 11 10  1  0  0  0  0
 12 13  2  0  0  0  0
 12 14  1  0  0  0  0
 14 15  1  0  0  0  0
 14 17  1  0  0  0  0
 15 16  2  0  0  0  0
 18 21  1  0  0  0  0
 18 20  1  0  0  0  0
 19 18  1  0  0  0  0
 21 26  1  0  0  0  0
 22 23  1  0  0  0  0
 22 21  2  0  0  0  0
 23 24  2  0  0  0  0
 24 25  1  0  0  0  0
 25 29  1  0  0  0  0
 26 25  2  0  0  0  0
 27 22  1  0  0  0  0
 28 23  1  0  0  0  0
M  END
>  <minimizedAffinity>
-4.68046427

$$$$

 OpenBabel03252500423D

 29 31  0  0  1  0  0  0  0  0999 V2000
   37.0880   27.8770   38.6100 C   0  0  1  0  0  0  0  0  0  0  0  0
   36.0930   28.4870   37.6600 C   0  0  0  0  0  0  0  0  0  0  0  0
   36.1320   28.9110   39.1000 C   0  0  2  0  0  0  0  0  0  0  0  0
   38.1300   28.2860   38.6960 H   0  0  0  0  0  0  0  0  0  0  0  0
   35.3010   27.8520   37.2650 H   0  0  0  0  0  0  0  0  0  0  0  0
   36.5240   29.1670   36.8920 H   0  0  0  0  0  0  0  0  0  0  0  0
   35.2640   28.6300   39.7330 H   0  0  0  0  0  0  0  0  0  0  0  0
   36.5270   30.2880   39.2950 N   0  0  0  0  0  0  0  0  0  0  0  0
   37.0300   30.9580   38.2460 C   0  0  0  0  0  3  0  0  0  0  0  0
   37.4390   32.2920   38.3380 C   0  0  0  0  0  0  0  0  0  0  0  0
   37.8400   32.8200   37.4960 H   0  0  0  0  0  0  0  0  0  0  0  0
   37.3210   32.9470   39.5590 C   0  0  0  0  0  0  0  0  0  0  0  0
   37.6590   34.1390   39.7400 O   0  0  0  0  0  0  0  0  0  0  0  0
   36.8040   32.2210   40.5890 N   0  0  0  0  0  0  0  0  0  0  0  0
   36.4200   30.9270   40.4550 C   0  0  0  0  0  0  0  0  0  0  0  0
   35.9590   30.3460   41.4530 O   0  0  0  0  0  0  0  0  0  0  0  0
   36.7160   32.7130   41.5060 H   0  0  0  0  0  0  0  0  0  0  0  0
   36.8100   26.4680   38.9950 C   0  0  0  0  0  0  0  0  0  0  0  0
   37.0710   25.7790   38.1780 H   0  0  0  0  0  0  0  0  0  0  0  0
   35.7020   26.4260   39.2240 H   0  0  0  0  0  0  0  0  0  0  0  0
   37.4830   26.0630   40.2380 C   0  0  0  0  0  0  0  0  0  0  0  0
   36.9050   25.0020   40.9010 C   0  0  0  0  0  0  0  0  0  0  0  0
   37.5320   24.5540   42.0960 C   0  0  0  0  0  0  0  0  0  0  0  0
   38.6570   25.2000   42.5030 N   0  0  0  0  0  0  0  0  0  0  0  0
   39.1760   26.2430   41.8020 C   0  0  0  0  0  0  0  0  0  0  0  0
   38.5880   26.6670   40.6780 N   0  0  0  0  0  0  0  0  0  0  0  0
   36.0480   24.3710   40.7630 H   0  0  0  0  0  0  0  0  0  0  0  0
   37.2370   23.7490   42.7490 H   0  0  0  0  0  0  0  0  0  0  0  0
   40.0710   26.7560   42.1270 H   0  0  0  0  0  0  0  0  0  0  0  0
  1  4  1  6  0  0  0
  1 18  1  0  0  0  0
  1  3  1  0  0  0  0
  2  1  1  0  0  0  0
  2  3  1  0  0  0  0
  3  8  1  0  0  0  0
  3  7  1  1  0  0  0
  5  2  1  0  0  0  0
  6  2  1  0  0  0  0
  8 15  1  0  0  0  0
  9 10  2  0  0  0  0
  9  8  1  0  0  0  0
 10 12  1  0  0  0  0
 11 10  1  0  0  0  0
 12 13  2  0  0  0  0
 12 14  1  0  0  0  0
 14 17  1  0  0  0  0
 15 14  1  0  0  0  0
 15 16  2  0  0  0  0
 18 20  1  0  0  0  0
 18 21  1  0  0  0  0
 19 18  1  0  0  0  0
 21 26  2  0  0  0  0
 21 22  1  0  0  0  0
 22 23  2  0  0  0  0
 23 24  1  0  0  0  0
 23 28  1  0  0  0  0
 25 29  1  0  0  0  0
 25 24  2  0  0  0  0
 26 25  1  0  0  0  0
 27 22  1  0  0  0  0
M  END
>  <minimizedAffinity>
-4.6153574

$$$$

 OpenBabel03252500423D

 29 31  0  0  1  0  0  0  0  0999 V2000
   38.9600   27.8520   42.4510 C   0  0  1  0  0  0  0  0  0  0  0  0
   39.0590   26.7590   43.4800 C   0  0  0  0  0  0  0  0  0  0  0  0
   37.8200   26.9110   42.6460 C   0  0  2  0  0  0  0  0  0  0  0  0
   39.3670   27.7090   41.4140 H   0  0  0  0  0  0  0  0  0  0  0  0
   39.0860   27.0410   44.5310 H   0  0  0  0  0  0  0  0  0  0  0  0
   39.7700   25.9380   43.2340 H   0  0  0  0  0  0  0  0  0  0  0  0
   36.8950   27.2370   43.1680 H   0  0  0  0  0  0  0  0  0  0  0  0
   37.5780   25.8050   41.7470 N   0  0  0  0  0  0  0  0  0  0  0  0
   38.0670   24.5990   42.0790 C   0  0  0  0  0  3  0  0  0  0  0  0
   37.8840   23.4710   41.2740 C   0  0  0  0  0  0  0  0  0  0  0  0
   38.2780   22.5120   41.5460 H   0  0  0  0  0  0  0  0  0  0  0  0
   37.1710   23.6020   40.0870 C   0  0  0  0  0  0  0  0  0  0  0  0
   36.9550   22.6520   39.3010 O   0  0  0  0  0  0  0  0  0  0  0  0
   36.6970   24.8460   39.7990 N   0  0  0  0  0  0  0  0  0  0  0  0
   36.8990   25.9140   40.6100 C   0  0  0  0  0  0  0  0  0  0  0  0
   36.4270   27.0120   40.2620 O   0  0  0  0  0  0  0  0  0  0  0  0
   36.1620   24.9450   38.9070 H   0  0  0  0  0  0  0  0  0  0  0  0
   38.8010   29.2250   43.0020 C   0  0  0  0  0  0  0  0  0  0  0  0
   39.7680   29.6250   43.3420 H   0  0  0  0  0  0  0  0  0  0  0  0
   38.0760   29.1250   43.8650 H   0  0  0  0  0  0  0  0  0  0  0  0
   38.1650   30.1570   42.0600 C   0  0  0  0  0  0  0  0  0  0  0  0
   39.0080   31.0930   41.5000 C   0  0  0  0  0  0  0  0  0  0  0  0
   38.4490   32.0020   40.5610 C   0  0  0  0  0  0  0  0  0  0  0  0
   37.1240   31.8900   40.2810 N   0  0  0  0  0  0  0  0  0  0  0  0
   36.3460   30.9440   40.8710 C   0  0  0  0  0  0  0  0  0  0  0  0
   36.8690   30.0870   41.7540 N   0  0  0  0  0  0  0  0  0  0  0  0
   40.0470   31.3510   41.5780 H   0  0  0  0  0  0  0  0  0  0  0  0
   38.9380   32.7960   40.0200 H   0  0  0  0  0  0  0  0  0  0  0  0
   35.2910   30.8560   40.6480 H   0  0  0  0  0  0  0  0  0  0  0  0
  1  4  1  6  0  0  0
  1  3  1  0  0  0  0
  1 18  1  0  0  0  0
  1  2  1  0  0  0  0
  2  5  1  0  0  0  0
  3  7  1  1  0  0  0
  3  2  1  0  0  0  0
  6  2  1  0  0  0  0
  8  9  1  0  0  0  0
  8  3  1  0  0  0  0
 10 11  1  0  0  0  0
 10  9  2  0  0  0  0
 12 10  1  0  0  0  0
 13 12  2  0  0  0  0
 14 12  1  0  0  0  0
 14 15  1  0  0  0  0
 15  8  1  0  0  0  0
 16 15  2  0  0  0  0
 17 14  1  0  0  0  0
 18 19  1  0  0  0  0
 18 20  1  0  0  0  0
 21 18  1  0  0  0  0
 22 27  1  0  0  0  0
 22 21  2  0  0  0  0
 23 22  1  0  0  0  0
 24 23  2  0  0  0  0
 24 25  1  0  0  0  0
 25 26  2  0  0  0  0
 26 21  1  0  0  0  0
 28 23  1  0  0  0  0
 29 25  1  0  0  0  0
M  END
>  <minimizedAffinity>
-4.59169674

$$$$

 OpenBabel03252500423D

 29 31  0  0  1  0  0  0  0  0999 V2000
   36.9550   26.6300   41.8090 C   0  0  1  0  0  0  0  0  0  0  0  0
   36.6950   27.5550   42.9670 C   0  0  0  0  0  0  0  0  0  0  0  0
   37.8090   27.8370   42.0010 C   0  0  2  0  0  0  0  0  0  0  0  0
   36.3930   26.7400   40.8430 H   0  0  0  0  0  0  0  0  0  0  0  0
   36.8820   27.1860   43.9740 H   0  0  0  0  0  0  0  0  0  0  0  0
   35.7610   28.1560   42.8940 H   0  0  0  0  0  0  0  0  0  0  0  0
   38.8470   27.7460   42.3850 H   0  0  0  0  0  0  0  0  0  0  0  0
   37.6200   29.0400   41.2220 N   0  0  0  0  0  0  0  0  0  0  0  0
   36.5150   29.7720   41.4430 C   0  0  0  0  0  3  0  0  0  0  0  0
   36.2460   30.9500   40.7400 C   0  0  0  0  0  0  0  0  0  0  0  0
   35.3620   31.5280   40.9220 H   0  0  0  0  0  0  0  0  0  0  0  0
   37.1540   31.3790   39.7770 C   0  0  0  0  0  0  0  0  0  0  0  0
   37.0000   32.4180   39.0970 O   0  0  0  0  0  0  0  0  0  0  0  0
   38.2560   30.6000   39.5930 N   0  0  0  0  0  0  0  0  0  0  0  0
   38.4770   29.4630   40.2990 C   0  0  0  0  0  0  0  0  0  0  0  0
   39.5130   28.8170   40.0610 O   0  0  0  0  0  0  0  0  0  0  0  0
   38.9370   30.9220   38.8700 H   0  0  0  0  0  0  0  0  0  0  0  0
   37.5540   25.3180   42.1720 C   0  0  0  0  0  0  0  0  0  0  0  0
   37.2200   24.9980   43.1700 H   0  0  0  0  0  0  0  0  0  0  0  0
   38.6740   25.4770   42.1490 H   0  0  0  0  0  0  0  0  0  0  0  0
   37.2850   24.2650   41.1820 C   0  0  0  0  0  0  0  0  0  0  0  0
   38.2900   23.3340   41.0270 C   0  0  0  0  0  0  0  0  0  0  0  0
   38.0700   22.2780   40.1000 C   0  0  0  0  0  0  0  0  0  0  0  0
   36.8870   22.2580   39.4310 N   0  0  0  0  0  0  0  0  0  0  0  0
   35.9360   23.2090   39.6300 C   0  0  0  0  0  0  0  0  0  0  0  0
   36.1400   24.2030   40.5010 N   0  0  0  0  0  0  0  0  0  0  0  0
   39.2680   23.1690   41.4360 H   0  0  0  0  0  0  0  0  0  0  0  0
   38.7260   21.4630   39.8410 H   0  0  0  0  0  0  0  0  0  0  0  0
   34.9960   23.1910   39.0970 H   0  0  0  0  0  0  0  0  0  0  0  0
  1  4  1  6  0  0  0
  1  3  1  0  0  0  0
  1 18  1  0  0  0  0
  1  2  1  0  0  0  0
  2  5  1  0  0  0  0
  3  7  1  1  0  0  0
  3  2  1  0  0  0  0
  6  2  1  0  0  0  0
  8  9  1  0  0  0  0
  8  3  1  0  0  0  0
 10 11  1  0  0  0  0
 10  9  2  0  0  0  0
 12 10  1  0  0  0  0
 13 12  2  0  0  0  0
 14 12  1  0  0  0  0
 14 15  1  0  0  0  0
 15  8  1  0  0  0  0
 16 15  2  0  0  0  0
 17 14  1  0  0  0  0
 18 19  1  0  0  0  0
 20 18  1  0  0  0  0
 21 18  1  0  0  0  0
 22 21  1  0  0  0  0
 22 27  1  0  0  0  0
 23 22  2  0  0  0  0
 24 25  2  0  0  0  0
 24 23  1  0  0  0  0
 25 26  1  0  0  0  0
 26 21  2  0  0  0  0
 28 23  1  0  0  0  0
 29 25  1  0  0  0  0
M  END
>  <minimizedAffinity>
-4.48836946

$$$$

 OpenBabel03252500423D

 29 31  0  0  1  0  0  0  0  0999 V2000
   36.3190   29.9350   40.1320 C   0  0  1  0  0  0  0  0  0  0  0  0
   35.0010   29.2240   39.9880 C   0  0  0  0  0  0  0  0  0  0  0  0
   36.2720   28.5760   39.5200 C   0  0  2  0  0  0  0  0  0  0  0  0
   36.9070   29.8770   41.0860 H   0  0  0  0  0  0  0  0  0  0  0  0
   34.2690   29.6300   39.2920 H   0  0  0  0  0  0  0  0  0  0  0  0
   34.5430   28.8750   40.9410 H   0  0  0  0  0  0  0  0  0  0  0  0
   36.3970   28.4390   38.4250 H   0  0  0  0  0  0  0  0  0  0  0  0
   36.6340   27.3900   40.2630 N   0  0  0  0  0  0  0  0  0  0  0  0
   36.8490   27.5100   41.5840 C   0  0  0  0  0  3  0  0  0  0  0  0
   37.2020   26.4190   42.3850 C   0  0  0  0  0  0  0  0  0  0  0  0
   37.3720   26.5230   43.4380 H   0  0  0  0  0  0  0  0  0  0  0  0
   37.3370   25.1680   41.7930 C   0  0  0  0  0  0  0  0  0  0  0  0
   37.6500   24.1340   42.4260 O   0  0  0  0  0  0  0  0  0  0  0  0
   37.1080   25.1030   40.4520 N   0  0  0  0  0  0  0  0  0  0  0  0
   36.7660   26.1880   39.7130 C   0  0  0  0  0  0  0  0  0  0  0  0
   36.5770   26.0300   38.4940 O   0  0  0  0  0  0  0  0  0  0  0  0
   37.2090   24.1630   40.0080 H   0  0  0  0  0  0  0  0  0  0  0  0
   36.5210   31.0820   39.2060 C   0  0  0  0  0  0  0  0  0  0  0  0
   35.5970   31.6710   39.1050 H   0  0  0  0  0  0  0  0  0  0  0  0
   36.8230   30.6260   38.2160 H   0  0  0  0  0  0  0  0  0  0  0  0
   37.6400   31.9520   39.5970 C   0  0  0  0  0  0  0  0  0  0  0  0
   38.8750   31.3420   39.6280 C   0  0  0  0  0  0  0  0  0  0  0  0
   39.9960   32.1450   39.9740 C   0  0  0  0  0  0  0  0  0  0  0  0
   39.7750   33.4570   40.2500 N   0  0  0  0  0  0  0  0  0  0  0  0
   38.5280   33.9980   40.2030 C   0  0  0  0  0  0  0  0  0  0  0  0
   37.4730   33.2450   39.8780 N   0  0  0  0  0  0  0  0  0  0  0  0
   39.2620   30.3550   39.4540 H   0  0  0  0  0  0  0  0  0  0  0  0
   41.0320   31.8570   40.0510 H   0  0  0  0  0  0  0  0  0  0  0  0
   38.3540   35.0420   40.4240 H   0  0  0  0  0  0  0  0  0  0  0  0
  1  4  1  1  0  0  0
  2  1  1  0  0  0  0
  2  6  1  0  0  0  0
  3  7  1  6  0  0  0
  3  2  1  0  0  0  0
  3  1  1  0  0  0  0
  3  8  1  0  0  0  0
  5  2  1  0  0  0  0
  8  9  1  0  0  0  0
  9 10  2  0  0  0  0
 10 11  1  0  0  0  0
 12 10  1  0  0  0  0
 12 13  2  0  0  0  0
 14 12  1  0  0  0  0
 15  8  1  0  0  0  0
 15 14  1  0  0  0  0
 16 15  2  0  0  0  0
 17 14  1  0  0  0  0
 18 21  1  0  0  0  0
 18  1  1  0  0  0  0
 19 18  1  0  0  0  0
 20 18  1  0  0  0  0
 21 22  2  0  0  0  0
 21 26  1  0  0  0  0
 22 23  1  0  0  0  0
 23 28  1  0  0  0  0
 23 24  2  0  0  0  0
 25 24  1  0  0  0  0
 25 29  1  0  0  0  0
 26 25  2  0  0  0  0
 27 22  1  0  0  0  0
M  END
>  <minimizedAffinity>
-4.47870827

$$$$

 OpenBabel03252500423D

 29 31  0  0  1  0  0  0  0  0999 V2000
   38.0500   27.4700   41.7770 C   0  0  1  0  0  0  0  0  0  0  0  0
   36.6310   27.4360   41.2760 C   0  0  0  0  0  0  0  0  0  0  0  0
   37.1160   28.5800   42.1200 C   0  0  2  0  0  0  0  0  0  0  0  0
   38.8780   27.8830   41.1410 H   0  0  0  0  0  0  0  0  0  0  0  0
   35.9640   26.6700   41.6690 H   0  0  0  0  0  0  0  0  0  0  0  0
   36.5100   27.5950   40.1820 H   0  0  0  0  0  0  0  0  0  0  0  0
   36.6900   28.6710   43.1420 H   0  0  0  0  0  0  0  0  0  0  0  0
   37.1470   29.8480   41.4270 N   0  0  0  0  0  0  0  0  0  0  0  0
   38.2760   30.5750   41.4850 C   0  0  0  0  0  3  0  0  0  0  0  0
   38.4010   31.8130   40.8470 C   0  0  0  0  0  0  0  0  0  0  0  0
   39.3040   32.3860   40.8980 H   0  0  0  0  0  0  0  0  0  0  0  0
   37.3180   32.3090   40.1280 C   0  0  0  0  0  0  0  0  0  0  0  0
   37.3340   33.4060   39.5250 O   0  0  0  0  0  0  0  0  0  0  0  0
   36.2000   31.5320   40.1020 N   0  0  0  0  0  0  0  0  0  0  0  0
   36.1230   30.3360   40.7360 C   0  0  0  0  0  0  0  0  0  0  0  0
   35.0580   29.6980   40.6560 O   0  0  0  0  0  0  0  0  0  0  0  0
   35.3870   31.9050   39.5630 H   0  0  0  0  0  0  0  0  0  0  0  0
   38.3610   26.4940   42.8560 C   0  0  0  0  0  0  0  0  0  0  0  0
   37.8770   25.5260   42.6610 H   0  0  0  0  0  0  0  0  0  0  0  0
   37.9700   26.9600   43.8110 H   0  0  0  0  0  0  0  0  0  0  0  0
   39.8030   26.3100   43.0720 C   0  0  0  0  0  0  0  0  0  0  0  0
   40.2900   25.0590   42.7560 C   0  0  0  0  0  0  0  0  0  0  0  0
   41.6840   24.8360   42.9220 C   0  0  0  0  0  0  0  0  0  0  0  0
   42.4420   25.8680   43.3790 N   0  0  0  0  0  0  0  0  0  0  0  0
   41.8990   27.0780   43.6740 C   0  0  0  0  0  0  0  0  0  0  0  0
   40.5880   27.2910   43.5190 N   0  0  0  0  0  0  0  0  0  0  0  0
   39.8840   24.1340   42.3960 H   0  0  0  0  0  0  0  0  0  0  0  0
   42.2490   23.9380   42.7310 H   0  0  0  0  0  0  0  0  0  0  0  0
   42.5030   27.8980   44.0390 H   0  0  0  0  0  0  0  0  0  0  0  0
  1  4  1  6  0  0  0
  1  3  1  0  0  0  0
  1 18  1  0  0  0  0
  2  5  1  0  0  0  0
  2  1  1  0  0  0  0
  2  3  1  0  0  0  0
  3  7  1  1  0  0  0
  6  2  1  0  0  0  0
  8  9  1  0  0  0  0
  8  3  1  0  0  0  0
 10 11  1  0  0  0  0
 10  9  2  0  0  0  0
 12 10  1  0  0  0  0
 13 12  2  0  0  0  0
 14 12  1  0  0  0  0
 14 15  1  0  0  0  0
 15  8  1  0  0  0  0
 16 15  2  0  0  0  0
 17 14  1  0  0  0  0
 18 21  1  0  0  0  0
 18 20  1  0  0  0  0
 19 18  1  0  0  0  0
 21 26  1  0  0  0  0
 22 23  1  0  0  0  0
 22 21  2  0  0  0  0
 23 24  2  0  0  0  0
 24 25  1  0  0  0  0
 25 29  1  0  0  0  0
 26 25  2  0  0  0  0
 27 22  1  0  0  0  0
 28 23  1  0  0  0  0
M  END
>  <minimizedAffinity>
-4.456985

$$$$
