
 OpenBabel03252507463D

 38 40  0  0  0  0  0  0  0  0999 V2000
   47.2110   34.4970   40.8800 C   0  0  0  0  0  0  0  0  0  0  0  0
   47.3840   35.3460   40.2060 H   0  0  0  0  0  0  0  0  0  0  0  0
   46.6060   33.7520   40.3410 H   0  0  0  0  0  0  0  0  0  0  0  0
   48.5160   33.9530   41.3020 C   0  0  0  0  0  0  0  0  0  0  0  0
   48.8350   32.6850   40.8500 C   0  0  0  0  0  0  0  0  0  0  0  0
   50.0340   32.0750   41.1840 C   0  0  0  0  0  0  0  0  0  0  0  0
   50.8850   32.8020   41.9870 N   0  0  0  0  0  0  0  0  0  0  0  0
   50.5370   34.0330   42.4050 C   0  0  0  0  0  0  0  0  0  0  0  0
   49.3810   34.5950   42.0710 N   0  0  0  0  0  0  0  0  0  0  0  0
   50.3010   31.0960   40.8460 H   0  0  0  0  0  0  0  0  0  0  0  0
   51.1850   34.6340   43.0410 H   0  0  0  0  0  0  0  0  0  0  0  0
   47.6800   31.7660   39.7930 S   0  0  0  0  0  0  0  0  0  0  0  0
   50.0900   33.8920   36.1160 H   0  0  0  0  0  0  0  0  0  0  0  0
   49.3000   33.2600   36.3810 N   0  0  0  0  0  0  0  0  0  0  0  0
   49.1410   33.0470   37.6860 C   0  0  0  0  0  3  0  0  0  0  0  0
   48.1260   32.2290   38.1090 C   0  0  0  0  0  0  0  0  0  0  0  0
   47.2790   31.6370   37.1780 C   0  0  0  0  0  0  0  0  0  0  0  0
   46.3000   30.8590   37.4360 O   0  0  0  0  0  0  0  0  0  0  0  0
   47.4650   31.8730   35.8530 N   0  0  0  0  0  0  0  0  0  0  0  0
   48.4780   32.6850   35.4670 C   0  0  0  0  0  0  0  0  0  0  0  0
   48.7010   32.9420   34.2620 O   0  0  0  0  0  0  0  0  0  0  0  0
   46.8470   31.4430   35.1240 H   0  0  0  0  0  0  0  0  0  0  0  0
   46.3690   34.9690   42.0370 C   0  0  0  0  0  0  0  0  0  0  0  0
   46.6700   34.4350   42.9590 H   0  0  0  0  0  0  0  0  0  0  0  0
   46.6120   36.0490   42.2160 H   0  0  0  0  0  0  0  0  0  0  0  0
   44.9100   34.9340   41.7720 C   0  0  0  0  0  0  0  0  0  0  0  0
   44.0050   35.4740   42.7410 C   0  0  0  0  0  0  0  0  0  0  0  0
   42.3640   35.2010   41.9710 S   0  0  0  0  0  0  0  0  0  0  0  0
   43.1800   34.3960   40.4540 C   0  0  0  0  0  0  0  0  0  0  0  0
   44.2860   34.4600   40.7300 N   0  0  0  0  0  0  0  0  0  0  0  0
   44.2540   35.9270   43.6890 H   0  0  0  0  0  0  0  0  0  0  0  0
   42.4550   33.9100   39.3770 O   0  0  0  0  0  0  0  0  0  0  0  0
   40.4980   34.3170   37.6370 O   0  0  0  0  0  0  0  0  0  0  0  0
   41.5620   35.0390   38.4620 P   0  0  0  0  0  0  0  0  0  0  0  0
   40.7950   36.0860   39.5440 O   0  0  0  0  0  0  0  0  0  0  0  0
   40.3030   36.7740   39.0290 H   0  0  0  0  0  0  0  0  0  0  0  0
   42.6000   35.9210   37.4610 O   0  0  0  0  0  0  0  0  0  0  0  0
   42.7000   35.4960   36.5890 H   0  0  0  0  0  0  0  0  0  0  0  0
  1  4  1  0  0  0  0
  1 23  1  0  0  0  0
  2  1  1  0  0  0  0
  3  1  1  0  0  0  0
  4  9  1  0  0  0  0
  5  6  1  0  0  0  0
  5  4  2  0  0  0  0
  6  7  2  0  0  0  0
  7  8  1  0  0  0  0
  8 11  1  0  0  0  0
  9  8  2  0  0  0  0
 10  6  1  0  0  0  0
 12  5  1  0  0  0  0
 13 14  1  0  0  0  0
 14 15  1  0  0  0  0
 15 16  2  0  0  0  0
 16 12  1  0  0  0  0
 17 18  2  0  0  0  0
 17 16  1  0  0  0  0
 19 17  1  0  0  0  0
 20 19  1  0  0  0  0
 20 14  1  0  0  0  0
 21 20  2  0  0  0  0
 22 19  1  0  0  0  0
 23 25  1  0  0  0  0
 23 24  1  0  0  0  0
 26 23  1  0  0  0  0
 26 27  2  0  0  0  0
 27 31  1  0  0  0  0
 28 27  1  0  0  0  0
 29 30  2  0  0  0  0
 29 28  1  0  0  0  0
 30 26  1  0  0  0  0
 32 29  1  0  0  0  0
 33 34  2  0  0  0  0
 34 32  1  0  0  0  0
 34 35  1  0  0  0  0
 36 35  1  0  0  0  0
 37 34  1  0  0  0  0
 38 37  1  0  0  0  0
M  END
>  <minimizedAffinity>
-5.44062996

>  <minimizedRMSD>
0.357967973

$$$$
