
 OpenBabel03252506283D

 48 52  0  0  0  0  0  0  0  0999 V2000
   46.6870   30.9720   47.3820 C   0  0  0  0  0  0  0  0  0  0  0  0
   45.7530   31.4970   48.2830 C   0  0  0  0  0  0  0  0  0  0  0  0
   45.2530   32.6490   47.7850 C   0  0  0  0  0  0  0  0  0  0  0  0
   45.8580   32.8300   46.6100 N   0  0  0  0  0  0  0  0  0  0  0  0
   46.7180   31.8390   46.3530 N   0  0  0  0  0  0  0  0  0  0  0  0
   45.4850   31.0290   49.2410 H   0  0  0  0  0  0  0  0  0  0  0  0
   44.5120   33.2550   48.2860 H   0  0  0  0  0  0  0  0  0  0  0  0
   49.4370   28.6810   48.0970 C   0  0  0  0  0  0  0  0  0  0  0  0
   48.8540   27.4260   47.9640 C   0  0  0  0  0  0  0  0  0  0  0  0
   47.5040   27.3820   47.6260 C   0  0  0  0  0  0  0  0  0  0  0  0
   46.8520   28.5620   47.4490 N   0  0  0  0  0  0  0  0  0  0  0  0
   47.4310   29.7420   47.5820 C   0  0  0  0  0  0  0  0  0  0  0  0
   48.7400   29.7980   47.9110 N   0  0  0  0  0  0  0  0  0  0  0  0
   50.4960   28.6680   48.3630 H   0  0  0  0  0  0  0  0  0  0  0  0
   49.3220   26.4660   48.0920 H   0  0  0  0  0  0  0  0  0  0  0  0
   46.7440   26.1730   47.4470 N   0  0  0  0  0  0  0  0  0  0  0  0
   46.1220   25.5290   48.4510 C   0  0  0  0  0  3  0  0  0  0  0  0
   45.4040   24.3670   48.2130 C   0  0  0  0  0  0  0  0  0  0  0  0
   44.9060   23.8530   49.0230 H   0  0  0  0  0  0  0  0  0  0  0  0
   45.3420   23.8880   46.9220 C   0  0  0  0  0  0  0  0  0  0  0  0
   44.7080   22.8400   46.6310 O   0  0  0  0  0  0  0  0  0  0  0  0
   45.9900   24.5840   45.9580 N   0  0  0  0  0  0  0  0  0  0  0  0
   46.6970   25.7280   46.1880 C   0  0  0  0  0  0  0  0  0  0  0  0
   47.2300   26.2330   45.1670 O   0  0  0  0  0  0  0  0  0  0  0  0
   45.9150   24.1790   44.9810 H   0  0  0  0  0  0  0  0  0  0  0  0
   45.6380   33.9500   45.6990 C   0  0  0  0  0  0  0  0  0  0  0  0
   46.1990   34.8500   46.0380 H   0  0  0  0  0  0  0  0  0  0  0  0
   44.5840   34.2260   45.6790 H   0  0  0  0  0  0  0  0  0  0  0  0
   46.0970   33.6160   44.3340 C   0  0  0  0  0  0  0  0  0  0  0  0
   46.8960   32.8320   44.4200 H   0  0  0  0  0  0  0  0  0  0  0  0
   46.6410   34.5040   43.9310 H   0  0  0  0  0  0  0  0  0  0  0  0
   44.3590   34.0440   42.5100 C   0  0  0  0  0  0  0  0  0  0  0  0
   45.0900   33.2500   43.3580 C   0  0  0  0  0  0  0  0  0  0  0  0
   44.8430   31.8750   43.2880 C   0  0  0  0  0  0  0  0  0  0  0  0
   43.9120   31.3450   42.4120 C   0  0  0  0  0  0  0  0  0  0  0  0
   43.4750   30.1080   42.1300 N   0  0  0  0  0  0  0  0  0  0  0  0
   42.5430   30.1200   41.1810 C   0  0  0  0  0  0  0  0  0  0  0  0
   42.3330   31.4410   40.7940 C   0  0  0  0  0  0  0  0  0  0  0  0
   43.1970   32.1580   41.5770 C   0  0  0  0  0  0  0  0  0  0  0  0
   43.4360   33.5150   41.6420 C   0  0  0  0  0  0  0  0  0  0  0  0
   44.5780   35.1000   42.5940 H   0  0  0  0  0  0  0  0  0  0  0  0
   45.3440   31.1270   43.8950 H   0  0  0  0  0  0  0  0  0  0  0  0
   43.8130   29.2230   42.5900 H   0  0  0  0  0  0  0  0  0  0  0  0
   41.9890   29.3000   40.7260 H   0  0  0  0  0  0  0  0  0  0  0  0
   41.6380   31.7910   40.0410 H   0  0  0  0  0  0  0  0  0  0  0  0
   42.6840   34.4100   40.7590 C   0  0  0  0  0  0  0  0  0  0  0  0
   43.1990   35.4980   40.3630 O   0  0  0  0  0  0  0  0  0  0  0  0
   41.6840   34.1600   40.4330 H   0  0  0  0  0  0  0  0  0  0  0  0
  1 12  1  0  0  0  0
  1  2  1  0  0  0  0
  2  6  1  0  0  0  0
  3  2  2  0  0  0  0
  3  7  1  0  0  0  0
  4  3  1  0  0  0  0
  5  4  1  0  0  0  0
  5  1  2  0  0  0  0
  8 14  1  0  0  0  0
  9 15  1  0  0  0  0
  9  8  1  0  0  0  0
 10  9  2  0  0  0  0
 11 12  2  0  0  0  0
 11 10  1  0  0  0  0
 12 13  1  0  0  0  0
 13  8  2  0  0  0  0
 16 10  1  0  0  0  0
 16 17  1  0  0  0  0
 18 17  2  0  0  0  0
 18 19  1  0  0  0  0
 20 18  1  0  0  0  0
 21 20  2  0  0  0  0
 22 23  1  0  0  0  0
 22 20  1  0  0  0  0
 23 16  1  0  0  0  0
 24 23  2  0  0  0  0
 25 22  1  0  0  0  0
 26 27  1  0  0  0  0
 26  4  1  0  0  0  0
 28 26  1  0  0  0  0
 29 30  1  0  0  0  0
 29 26  1  0  0  0  0
 31 29  1  0  0  0  0
 32 41  1  0  0  0  0
 32 33  1  0  0  0  0
 33 29  1  0  0  0  0
 34 33  2  0  0  0  0
 34 42  1  0  0  0  0
 35 34  1  0  0  0  0
 36 35  1  0  0  0  0
 36 43  1  0  0  0  0
 37 36  1  0  0  0  0
 38 37  2  0  0  0  0
 38 39  1  0  0  0  0
 39 40  1  0  0  0  0
 39 35  2  0  0  0  0
 40 32  2  0  0  0  0
 44 37  1  0  0  0  0
 45 38  1  0  0  0  0
 46 40  1  0  0  0  0
 47 46  2  0  0  0  0
 48 46  1  0  0  0  0
M  END
>  <minimizedAffinity>
-4.63586473

>  <minimizedRMSD>
8.93365097

$$$$
