
 OpenBabel03242515273D

 32 34  0  0  0  0  0  0  0  0999 V2000
   38.7800   31.0280   39.4300 C   0  0  0  0  0  0  0  0  0  0  0  0
   38.1970   31.8400   40.4150 C   0  0  0  0  0  0  0  0  0  0  0  0
   38.9430   32.8960   40.8830 C   0  0  0  0  0  0  0  0  0  0  0  0
   40.1700   33.1020   40.3920 N   0  0  0  0  0  0  0  0  0  0  0  0
   40.7180   32.2980   39.4360 C   0  0  0  0  0  0  0  0  0  0  0  0
   40.0280   31.2400   38.9330 N   0  0  0  0  0  0  0  0  0  0  0  0
   38.2530   30.1800   39.0130 H   0  0  0  0  0  0  0  0  0  0  0  0
   38.4780   33.5110   41.6410 H   0  0  0  0  0  0  0  0  0  0  0  0
   42.0330   32.6390   39.0090 N   0  0  0  0  0  0  0  0  0  0  0  0
   43.1070   32.9500   39.7590 C   0  0  0  0  0  3  0  0  0  0  0  0
   44.3050   33.2540   39.1470 C   0  0  0  0  0  0  0  0  0  0  0  0
   45.1090   33.4910   39.8190 H   0  0  0  0  0  0  0  0  0  0  0  0
   44.3750   33.2310   37.7690 C   0  0  0  0  0  0  0  0  0  0  0  0
   45.4980   33.5180   37.2400 O   0  0  0  0  0  0  0  0  0  0  0  0
   43.2950   32.9190   37.0300 N   0  0  0  0  0  0  0  0  0  0  0  0
   42.1230   32.6230   37.6550 C   0  0  0  0  0  0  0  0  0  0  0  0
   41.2050   32.3510   36.8380 O   0  0  0  0  0  0  0  0  0  0  0  0
   43.4280   32.9240   35.9940 H   0  0  0  0  0  0  0  0  0  0  0  0
   36.8420   31.4650   40.8330 C   0  0  0  0  0  0  0  0  0  0  0  0
   36.4030   32.2030   41.4980 H   0  0  0  0  0  0  0  0  0  0  0  0
   36.2100   31.4870   39.8980 H   0  0  0  0  0  0  0  0  0  0  0  0
   36.8690   30.1220   41.3800 N   0  0  0  0  0  0  0  0  0  0  0  0
   37.7470   29.8290   42.3510 C   0  0  0  0  0  0  0  0  0  0  0  0
   37.7420   28.5310   42.8490 C   0  0  0  0  0  0  0  0  0  0  0  0
   36.8720   27.5870   42.3640 C   0  0  0  0  0  0  0  0  0  0  0  0
   36.8950   26.4240   42.8380 O   0  0  0  0  0  0  0  0  0  0  0  0
   36.0130   27.9350   41.3910 N   0  0  0  0  0  0  0  0  0  0  0  0
   36.0020   29.1960   40.8920 C   0  0  0  0  0  0  0  0  0  0  0  0
   35.1700   29.4550   39.9780 O   0  0  0  0  0  0  0  0  0  0  0  0
   38.4500   30.5550   42.7560 H   0  0  0  0  0  0  0  0  0  0  0  0
   38.4540   28.3090   43.6310 H   0  0  0  0  0  0  0  0  0  0  0  0
   35.3770   27.1740   41.0650 H   0  0  0  0  0  0  0  0  0  0  0  0
  1  2  1  0  0  0  0
  2 19  1  0  0  0  0
  2  3  2  0  0  0  0
  3  8  1  0  0  0  0
  4  3  1  0  0  0  0
  5  4  2  0  0  0  0
  6  1  2  0  0  0  0
  6  5  1  0  0  0  0
  7  1  1  0  0  0  0
  9  5  1  0  0  0  0
  9 10  1  0  0  0  0
 11 10  2  0  0  0  0
 11 12  1  0  0  0  0
 13 11  1  0  0  0  0
 14 13  2  0  0  0  0
 15 16  1  0  0  0  0
 15 13  1  0  0  0  0
 16  9  1  0  0  0  0
 17 16  2  0  0  0  0
 18 15  1  0  0  0  0
 19 22  1  0  0  0  0
 19 20  1  0  0  0  0
 21 19  1  0  0  0  0
 22 23  1  0  0  0  0
 23 30  1  0  0  0  0
 23 24  2  0  0  0  0
 24 31  1  0  0  0  0
 25 26  2  0  0  0  0
 25 24  1  0  0  0  0
 27 25  1  0  0  0  0
 28 22  1  0  0  0  0
 28 27  1  0  0  0  0
 29 28  2  0  0  0  0
 32 27  1  0  0  0  0
M  END
>  <minimizedAffinity>
-5.63268566

$$$$

 OpenBabel03242515273D

 32 34  0  0  0  0  0  0  0  0999 V2000
   40.6450   32.7680   39.3290 C   0  0  0  0  0  0  0  0  0  0  0  0
   40.1760   31.7020   40.1130 C   0  0  0  0  0  0  0  0  0  0  0  0
   40.6640   30.4490   39.8280 C   0  0  0  0  0  0  0  0  0  0  0  0
   41.5480   30.2980   38.8350 N   0  0  0  0  0  0  0  0  0  0  0  0
   41.9890   31.3490   38.0860 C   0  0  0  0  0  0  0  0  0  0  0  0
   41.5440   32.6110   38.3210 N   0  0  0  0  0  0  0  0  0  0  0  0
   40.3070   33.7820   39.4960 H   0  0  0  0  0  0  0  0  0  0  0  0
   40.2920   29.6400   40.4420 H   0  0  0  0  0  0  0  0  0  0  0  0
   42.9300   31.0370   37.0630 N   0  0  0  0  0  0  0  0  0  0  0  0
   42.8870   30.0440   36.1540 C   0  0  0  0  0  3  0  0  0  0  0  0
   43.9090   29.9110   35.2380 C   0  0  0  0  0  0  0  0  0  0  0  0
   43.7950   29.0930   34.5490 H   0  0  0  0  0  0  0  0  0  0  0  0
   44.9600   30.8040   35.2750 C   0  0  0  0  0  0  0  0  0  0  0  0
   45.8860   30.6480   34.4130 O   0  0  0  0  0  0  0  0  0  0  0  0
   44.9920   31.7910   36.1880 N   0  0  0  0  0  0  0  0  0  0  0  0
   43.9730   31.9040   37.0830 C   0  0  0  0  0  0  0  0  0  0  0  0
   44.1410   32.8710   37.8720 O   0  0  0  0  0  0  0  0  0  0  0  0
   45.8210   32.4260   36.1520 H   0  0  0  0  0  0  0  0  0  0  0  0
   39.2090   32.0540   41.1580 C   0  0  0  0  0  0  0  0  0  0  0  0
   39.6510   32.0190   42.1500 H   0  0  0  0  0  0  0  0  0  0  0  0
   38.9430   33.1380   40.9830 H   0  0  0  0  0  0  0  0  0  0  0  0
   38.0280   31.2260   41.0100 N   0  0  0  0  0  0  0  0  0  0  0  0
   37.1660   31.4870   40.0150 C   0  0  0  0  0  0  0  0  0  0  0  0
   36.0460   30.6710   39.9070 C   0  0  0  0  0  0  0  0  0  0  0  0
   35.8320   29.6380   40.7840 C   0  0  0  0  0  0  0  0  0  0  0  0
   34.8090   28.9200   40.6560 O   0  0  0  0  0  0  0  0  0  0  0  0
   36.7270   29.4200   41.7630 N   0  0  0  0  0  0  0  0  0  0  0  0
   37.8260   30.2060   41.8850 C   0  0  0  0  0  0  0  0  0  0  0  0
   38.6270   29.9460   42.8270 O   0  0  0  0  0  0  0  0  0  0  0  0
   37.3080   32.2990   39.3040 H   0  0  0  0  0  0  0  0  0  0  0  0
   35.3610   30.8930   39.1010 H   0  0  0  0  0  0  0  0  0  0  0  0
   36.5090   28.6210   42.3970 H   0  0  0  0  0  0  0  0  0  0  0  0
  1  7  1  0  0  0  0
  1  2  1  0  0  0  0
  2 19  1  0  0  0  0
  3  2  2  0  0  0  0
  3  8  1  0  0  0  0
  4  3  1  0  0  0  0
  5  6  1  0  0  0  0
  5  4  2  0  0  0  0
  6  1  2  0  0  0  0
  9 16  1  0  0  0  0
  9  5  1  0  0  0  0
 10  9  1  0  0  0  0
 11 13  1  0  0  0  0
 11 10  2  0  0  0  0
 12 11  1  0  0  0  0
 13 15  1  0  0  0  0
 14 13  2  0  0  0  0
 15 16  1  0  0  0  0
 16 17  2  0  0  0  0
 18 15  1  0  0  0  0
 19 20  1  0  0  0  0
 21 19  1  0  0  0  0
 22 19  1  0  0  0  0
 22 28  1  0  0  0  0
 23 22  1  0  0  0  0
 24 23  2  0  0  0  0
 24 25  1  0  0  0  0
 25 27  1  0  0  0  0
 26 25  2  0  0  0  0
 27 28  1  0  0  0  0
 27 32  1  0  0  0  0
 28 29  2  0  0  0  0
 30 23  1  0  0  0  0
 31 24  1  0  0  0  0
M  END
>  <minimizedAffinity>
-5.51811314

$$$$

 OpenBabel03242515273D

 32 34  0  0  0  0  0  0  0  0999 V2000
   36.7230   26.8740   40.7860 C   0  0  0  0  0  0  0  0  0  0  0  0
   37.3260   26.2300   41.8770 C   0  0  0  0  0  0  0  0  0  0  0  0
   38.1790   26.9760   42.6560 C   0  0  0  0  0  0  0  0  0  0  0  0
   38.3960   28.2590   42.3480 N   0  0  0  0  0  0  0  0  0  0  0  0
   37.7990   28.8650   41.2810 C   0  0  0  0  0  0  0  0  0  0  0  0
   36.9450   28.1790   40.4760 N   0  0  0  0  0  0  0  0  0  0  0  0
   36.0400   26.3510   40.1300 H   0  0  0  0  0  0  0  0  0  0  0  0
   38.6350   26.4640   43.4920 H   0  0  0  0  0  0  0  0  0  0  0  0
   38.1240   30.2360   41.0760 N   0  0  0  0  0  0  0  0  0  0  0  0
   39.3350   30.8240   41.0890 C   0  0  0  0  0  3  0  0  0  0  0  0
   39.4390   32.1820   40.8660 C   0  0  0  0  0  0  0  0  0  0  0  0
   40.4410   32.5690   40.8930 H   0  0  0  0  0  0  0  0  0  0  0  0
   38.2910   32.9100   40.6330 C   0  0  0  0  0  0  0  0  0  0  0  0
   38.4270   34.1610   40.4320 O   0  0  0  0  0  0  0  0  0  0  0  0
   37.0860   32.3110   40.6240 N   0  0  0  0  0  0  0  0  0  0  0  0
   37.0070   30.9710   40.8460 C   0  0  0  0  0  0  0  0  0  0  0  0
   35.8200   30.5530   40.8070 O   0  0  0  0  0  0  0  0  0  0  0  0
   36.2650   32.9290   40.4410 H   0  0  0  0  0  0  0  0  0  0  0  0
   36.9720   24.8190   42.0630 C   0  0  0  0  0  0  0  0  0  0  0  0
   37.3030   24.4390   43.0250 H   0  0  0  0  0  0  0  0  0  0  0  0
   35.8430   24.7830   42.0970 H   0  0  0  0  0  0  0  0  0  0  0  0
   37.4560   24.0540   40.9300 N   0  0  0  0  0  0  0  0  0  0  0  0
   38.7780   23.9790   40.7100 C   0  0  0  0  0  0  0  0  0  0  0  0
   39.2020   23.2370   39.6130 C   0  0  0  0  0  0  0  0  0  0  0  0
   38.3030   22.6060   38.7900 C   0  0  0  0  0  0  0  0  0  0  0  0
   38.7230   21.9430   37.8090 O   0  0  0  0  0  0  0  0  0  0  0  0
   36.9910   22.7140   39.0580 N   0  0  0  0  0  0  0  0  0  0  0  0
   36.5560   23.4340   40.1230 C   0  0  0  0  0  0  0  0  0  0  0  0
   35.3100   23.4940   40.3170 O   0  0  0  0  0  0  0  0  0  0  0  0
   39.5150   24.4680   41.3430 H   0  0  0  0  0  0  0  0  0  0  0  0
   40.2690   23.1840   39.4470 H   0  0  0  0  0  0  0  0  0  0  0  0
   36.3590   22.2120   38.3970 H   0  0  0  0  0  0  0  0  0  0  0  0
  1  2  1  0  0  0  0
  2 19  1  0  0  0  0
  2  3  2  0  0  0  0
  3  8  1  0  0  0  0
  4  3  1  0  0  0  0
  5  4  2  0  0  0  0
  6  1  2  0  0  0  0
  6  5  1  0  0  0  0
  7  1  1  0  0  0  0
  9 10  1  0  0  0  0
  9  5  1  0  0  0  0
 11 12  1  0  0  0  0
 11 10  2  0  0  0  0
 13 11  1  0  0  0  0
 14 13  2  0  0  0  0
 15 13  1  0  0  0  0
 15 16  1  0  0  0  0
 16  9  1  0  0  0  0
 17 16  2  0  0  0  0
 18 15  1  0  0  0  0
 19 21  1  0  0  0  0
 19 20  1  0  0  0  0
 22 19  1  0  0  0  0
 23 22  1  0  0  0  0
 23 30  1  0  0  0  0
 24 23  2  0  0  0  0
 25 27  1  0  0  0  0
 25 24  1  0  0  0  0
 26 25  2  0  0  0  0
 27 28  1  0  0  0  0
 28 29  2  0  0  0  0
 28 22  1  0  0  0  0
 31 24  1  0  0  0  0
 32 27  1  0  0  0  0
M  END
>  <minimizedAffinity>
-5.51743174

$$$$

 OpenBabel03242515273D

 32 34  0  0  0  0  0  0  0  0999 V2000
   36.3030   29.4470   40.6110 C   0  0  0  0  0  0  0  0  0  0  0  0
   36.4350   28.0970   40.9740 C   0  0  0  0  0  0  0  0  0  0  0  0
   36.4710   27.1720   39.9570 C   0  0  0  0  0  0  0  0  0  0  0  0
   36.3810   27.5870   38.6890 N   0  0  0  0  0  0  0  0  0  0  0  0
   36.2530   28.9050   38.3590 C   0  0  0  0  0  0  0  0  0  0  0  0
   36.2120   29.8650   39.3210 N   0  0  0  0  0  0  0  0  0  0  0  0
   36.2680   30.2300   41.3570 H   0  0  0  0  0  0  0  0  0  0  0  0
   36.5730   26.1380   40.2540 H   0  0  0  0  0  0  0  0  0  0  0  0
   36.1680   29.1980   36.9680 N   0  0  0  0  0  0  0  0  0  0  0  0
   35.4130   28.6010   36.0270 C   0  0  0  0  0  3  0  0  0  0  0  0
   35.4760   29.0370   34.7200 C   0  0  0  0  0  0  0  0  0  0  0  0
   34.8400   28.5060   34.0350 H   0  0  0  0  0  0  0  0  0  0  0  0
   36.3170   30.0840   34.4060 C   0  0  0  0  0  0  0  0  0  0  0  0
   36.3480   30.4590   33.1890 O   0  0  0  0  0  0  0  0  0  0  0  0
   37.0680   30.6730   35.3550 N   0  0  0  0  0  0  0  0  0  0  0  0
   36.9900   30.2260   36.6380 C   0  0  0  0  0  0  0  0  0  0  0  0
   37.7460   30.8700   37.4110 O   0  0  0  0  0  0  0  0  0  0  0  0
   37.6800   31.4580   35.0380 H   0  0  0  0  0  0  0  0  0  0  0  0
   36.5200   27.8270   42.4130 C   0  0  0  0  0  0  0  0  0  0  0  0
   36.2420   28.6930   43.0070 H   0  0  0  0  0  0  0  0  0  0  0  0
   35.7330   27.0460   42.6300 H   0  0  0  0  0  0  0  0  0  0  0  0
   37.8350   27.3000   42.7200 N   0  0  0  0  0  0  0  0  0  0  0  0
   38.0570   25.9830   42.5950 C   0  0  0  0  0  0  0  0  0  0  0  0
   39.3320   25.5160   42.8990 C   0  0  0  0  0  0  0  0  0  0  0  0
   40.3220   26.3720   43.3100 C   0  0  0  0  0  0  0  0  0  0  0  0
   41.4620   25.9160   43.5750 O   0  0  0  0  0  0  0  0  0  0  0  0
   40.0460   27.6830   43.4170 N   0  0  0  0  0  0  0  0  0  0  0  0
   38.8090   28.1570   43.1260 C   0  0  0  0  0  0  0  0  0  0  0  0
   38.6160   29.4000   43.2480 O   0  0  0  0  0  0  0  0  0  0  0  0
   37.2930   25.2790   42.2730 H   0  0  0  0  0  0  0  0  0  0  0  0
   39.4970   24.4530   42.7940 H   0  0  0  0  0  0  0  0  0  0  0  0
   40.8400   28.2810   43.7340 H   0  0  0  0  0  0  0  0  0  0  0  0
  1  2  1  0  0  0  0
  1  7  1  0  0  0  0
  2 19  1  0  0  0  0
  3  8  1  0  0  0  0
  3  2  2  0  0  0  0
  4  3  1  0  0  0  0
  5  4  2  0  0  0  0
  5  6  1  0  0  0  0
  6  1  2  0  0  0  0
  9  5  1  0  0  0  0
 10  9  1  0  0  0  0
 11 10  2  0  0  0  0
 12 11  1  0  0  0  0
 13 11  1  0  0  0  0
 13 15  1  0  0  0  0
 14 13  2  0  0  0  0
 15 16  1  0  0  0  0
 16  9  1  0  0  0  0
 16 17  2  0  0  0  0
 18 15  1  0  0  0  0
 19 21  1  0  0  0  0
 19 22  1  0  0  0  0
 19 20  1  0  0  0  0
 22 28  1  0  0  0  0
 23 22  1  0  0  0  0
 23 24  2  0  0  0  0
 24 25  1  0  0  0  0
 25 27  1  0  0  0  0
 25 26  2  0  0  0  0
 27 32  1  0  0  0  0
 28 29  2  0  0  0  0
 28 27  1  0  0  0  0
 30 23  1  0  0  0  0
 31 24  1  0  0  0  0
M  END
>  <minimizedAffinity>
-5.43036699

$$$$

 OpenBabel03242515273D

 32 34  0  0  0  0  0  0  0  0999 V2000
   40.0240   31.6190   41.4430 C   0  0  0  0  0  0  0  0  0  0  0  0
   39.4800   32.3430   40.3720 C   0  0  0  0  0  0  0  0  0  0  0  0
   38.5160   31.7190   39.6140 C   0  0  0  0  0  0  0  0  0  0  0  0
   38.1450   30.4720   39.9220 N   0  0  0  0  0  0  0  0  0  0  0  0
   38.6890   29.7860   40.9690 C   0  0  0  0  0  0  0  0  0  0  0  0
   39.6440   30.3510   41.7540 N   0  0  0  0  0  0  0  0  0  0  0  0
   40.7850   32.0450   42.0830 H   0  0  0  0  0  0  0  0  0  0  0  0
   38.1080   32.2920   38.7930 H   0  0  0  0  0  0  0  0  0  0  0  0
   38.1960   28.4660   41.1770 N   0  0  0  0  0  0  0  0  0  0  0  0
   38.0030   27.4870   40.2720 C   0  0  0  0  0  3  0  0  0  0  0  0
   37.5100   26.2650   40.6810 C   0  0  0  0  0  0  0  0  0  0  0  0
   37.3880   25.5420   39.8950 H   0  0  0  0  0  0  0  0  0  0  0  0
   37.2260   26.0730   42.0170 C   0  0  0  0  0  0  0  0  0  0  0  0
   36.7720   24.9320   42.3560 O   0  0  0  0  0  0  0  0  0  0  0  0
   37.4220   27.0590   42.9110 N   0  0  0  0  0  0  0  0  0  0  0  0
   37.9090   28.2570   42.4870 C   0  0  0  0  0  0  0  0  0  0  0  0
   38.0400   29.0780   43.4320 O   0  0  0  0  0  0  0  0  0  0  0  0
   37.1820   26.8360   43.9030 H   0  0  0  0  0  0  0  0  0  0  0  0
   40.0070   33.6990   40.1830 C   0  0  0  0  0  0  0  0  0  0  0  0
   39.2640   34.3690   39.7600 H   0  0  0  0  0  0  0  0  0  0  0  0
   40.2190   34.0980   41.2180 H   0  0  0  0  0  0  0  0  0  0  0  0
   41.2370   33.6280   39.4200 N   0  0  0  0  0  0  0  0  0  0  0  0
   41.1800   33.3230   38.1140 C   0  0  0  0  0  0  0  0  0  0  0  0
   42.3820   33.2640   37.4170 C   0  0  0  0  0  0  0  0  0  0  0  0
   43.5790   33.5090   38.0410 C   0  0  0  0  0  0  0  0  0  0  0  0
   44.6440   33.4480   37.3800 O   0  0  0  0  0  0  0  0  0  0  0  0
   43.5780   33.8110   39.3510 N   0  0  0  0  0  0  0  0  0  0  0  0
   42.4170   33.8730   40.0490 C   0  0  0  0  0  0  0  0  0  0  0  0
   42.4880   34.1610   41.2770 O   0  0  0  0  0  0  0  0  0  0  0  0
   40.2470   33.1230   37.5900 H   0  0  0  0  0  0  0  0  0  0  0  0
   42.3210   33.0180   36.3660 H   0  0  0  0  0  0  0  0  0  0  0  0
   44.5190   33.9870   39.7680 H   0  0  0  0  0  0  0  0  0  0  0  0
  1  6  1  0  0  0  0
  1  7  1  0  0  0  0
  2  1  2  0  0  0  0
  3  4  2  0  0  0  0
  3  2  1  0  0  0  0
  4  5  1  0  0  0  0
  5  9  1  0  0  0  0
  5  6  2  0  0  0  0
  8  3  1  0  0  0  0
  9 16  1  0  0  0  0
 10 11  2  0  0  0  0
 10  9  1  0  0  0  0
 11 13  1  0  0  0  0
 12 11  1  0  0  0  0
 13 14  2  0  0  0  0
 13 15  1  0  0  0  0
 15 18  1  0  0  0  0
 16 15  1  0  0  0  0
 16 17  2  0  0  0  0
 19  2  1  0  0  0  0
 19 21  1  0  0  0  0
 20 19  1  0  0  0  0
 22 28  1  0  0  0  0
 22 19  1  0  0  0  0
 23 22  1  0  0  0  0
 24 25  1  0  0  0  0
 24 23  2  0  0  0  0
 25 27  1  0  0  0  0
 26 25  2  0  0  0  0
 27 32  1  0  0  0  0
 27 28  1  0  0  0  0
 28 29  2  0  0  0  0
 30 23  1  0  0  0  0
 31 24  1  0  0  0  0
M  END
>  <minimizedAffinity>
-5.33652449

$$$$

 OpenBabel03242515273D

 32 34  0  0  0  0  0  0  0  0999 V2000
   37.7260   29.1900   39.0830 C   0  0  0  0  0  0  0  0  0  0  0  0
   37.1570   29.4090   40.3480 C   0  0  0  0  0  0  0  0  0  0  0  0
   37.6950   30.4170   41.1130 C   0  0  0  0  0  0  0  0  0  0  0  0
   38.7170   31.1330   40.6320 N   0  0  0  0  0  0  0  0  0  0  0  0
   39.2540   30.9010   39.4000 C   0  0  0  0  0  0  0  0  0  0  0  0
   38.7650   29.9190   38.5980 N   0  0  0  0  0  0  0  0  0  0  0  0
   37.3550   28.4140   38.4250 H   0  0  0  0  0  0  0  0  0  0  0  0
   37.2450   30.5730   42.0840 H   0  0  0  0  0  0  0  0  0  0  0  0
   40.3400   31.7430   39.0210 N   0  0  0  0  0  0  0  0  0  0  0  0
   41.4250   32.0890   39.7370 C   0  0  0  0  0  3  0  0  0  0  0  0
   42.3720   32.9250   39.1830 C   0  0  0  0  0  0  0  0  0  0  0  0
   43.2060   33.1510   39.8230 H   0  0  0  0  0  0  0  0  0  0  0  0
   42.1830   33.3890   37.8980 C   0  0  0  0  0  0  0  0  0  0  0  0
   43.0790   34.1590   37.4200 O   0  0  0  0  0  0  0  0  0  0  0  0
   41.0940   33.0360   37.1920 N   0  0  0  0  0  0  0  0  0  0  0  0
   40.1720   32.2100   37.7580 C   0  0  0  0  0  0  0  0  0  0  0  0
   39.2110   31.9680   36.9810 O   0  0  0  0  0  0  0  0  0  0  0  0
   41.0220   33.4280   36.2270 H   0  0  0  0  0  0  0  0  0  0  0  0
   36.0420   28.5280   40.7100 C   0  0  0  0  0  0  0  0  0  0  0  0
   35.4600   28.9270   41.5350 H   0  0  0  0  0  0  0  0  0  0  0  0
   35.3450   28.5270   39.8210 H   0  0  0  0  0  0  0  0  0  0  0  0
   36.5500   27.1900   40.9410 N   0  0  0  0  0  0  0  0  0  0  0  0
   36.5960   26.3220   39.9180 C   0  0  0  0  0  0  0  0  0  0  0  0
   37.0890   25.0490   40.1790 C   0  0  0  0  0  0  0  0  0  0  0  0
   37.5130   24.6950   41.4350 C   0  0  0  0  0  0  0  0  0  0  0  0
   37.9540   23.5360   41.6350 O   0  0  0  0  0  0  0  0  0  0  0  0
   37.4460   25.6040   42.4240 N   0  0  0  0  0  0  0  0  0  0  0  0
   36.9680   26.8510   42.1890 C   0  0  0  0  0  0  0  0  0  0  0  0
   36.9320   27.6550   43.1620 O   0  0  0  0  0  0  0  0  0  0  0  0
   36.2660   26.5730   38.9110 H   0  0  0  0  0  0  0  0  0  0  0  0
   37.1200   24.3610   39.3470 H   0  0  0  0  0  0  0  0  0  0  0  0
   37.7830   25.2740   43.3550 H   0  0  0  0  0  0  0  0  0  0  0  0
  1  2  1  0  0  0  0
  2 19  1  0  0  0  0
  2  3  2  0  0  0  0
  3  8  1  0  0  0  0
  4  3  1  0  0  0  0
  5  4  2  0  0  0  0
  6  1  2  0  0  0  0
  6  5  1  0  0  0  0
  7  1  1  0  0  0  0
  9  5  1  0  0  0  0
  9 10  1  0  0  0  0
 11 10  2  0  0  0  0
 11 12  1  0  0  0  0
 13 11  1  0  0  0  0
 14 13  2  0  0  0  0
 15 16  1  0  0  0  0
 15 13  1  0  0  0  0
 16  9  1  0  0  0  0
 17 16  2  0  0  0  0
 18 15  1  0  0  0  0
 19 22  1  0  0  0  0
 19 20  1  0  0  0  0
 21 19  1  0  0  0  0
 22 28  1  0  0  0  0
 23 24  2  0  0  0  0
 23 22  1  0  0  0  0
 24 25  1  0  0  0  0
 25 26  2  0  0  0  0
 25 27  1  0  0  0  0
 27 32  1  0  0  0  0
 28 27  1  0  0  0  0
 28 29  2  0  0  0  0
 30 23  1  0  0  0  0
 31 24  1  0  0  0  0
M  END
>  <minimizedAffinity>
-5.3350811

$$$$

 OpenBabel03242515273D

 32 34  0  0  0  0  0  0  0  0999 V2000
   38.4260   31.5650   39.3800 C   0  0  0  0  0  0  0  0  0  0  0  0
   39.1740   32.3780   40.2470 C   0  0  0  0  0  0  0  0  0  0  0  0
   39.4340   31.8850   41.5040 C   0  0  0  0  0  0  0  0  0  0  0  0
   38.9730   30.6770   41.8440 N   0  0  0  0  0  0  0  0  0  0  0  0
   38.2470   29.9040   40.9860 C   0  0  0  0  0  0  0  0  0  0  0  0
   37.9590   30.3370   39.7300 N   0  0  0  0  0  0  0  0  0  0  0  0
   38.1830   31.8860   38.3760 H   0  0  0  0  0  0  0  0  0  0  0  0
   40.0120   32.5240   42.1580 H   0  0  0  0  0  0  0  0  0  0  0  0
   37.8220   28.6400   41.4870 N   0  0  0  0  0  0  0  0  0  0  0  0
   37.2510   28.3540   42.6710 C   0  0  0  0  0  3  0  0  0  0  0  0
   36.9110   27.0500   42.9690 C   0  0  0  0  0  0  0  0  0  0  0  0
   36.4590   26.9110   43.9350 H   0  0  0  0  0  0  0  0  0  0  0  0
   37.1660   26.0640   42.0390 C   0  0  0  0  0  0  0  0  0  0  0  0
   36.8380   24.8730   42.3500 O   0  0  0  0  0  0  0  0  0  0  0  0
   37.7380   26.3630   40.8590 N   0  0  0  0  0  0  0  0  0  0  0  0
   38.0660   27.6550   40.5850 C   0  0  0  0  0  0  0  0  0  0  0  0
   38.5920   27.7810   39.4480 O   0  0  0  0  0  0  0  0  0  0  0  0
   37.9000   25.5620   40.2080 H   0  0  0  0  0  0  0  0  0  0  0  0
   39.5970   33.6730   39.7030 C   0  0  0  0  0  0  0  0  0  0  0  0
   39.0970   33.9030   38.7670 H   0  0  0  0  0  0  0  0  0  0  0  0
   39.2370   34.4510   40.4380 H   0  0  0  0  0  0  0  0  0  0  0  0
   41.0440   33.7030   39.6210 N   0  0  0  0  0  0  0  0  0  0  0  0
   41.7490   34.1470   40.6740 C   0  0  0  0  0  0  0  0  0  0  0  0
   43.1340   34.1610   40.5570 C   0  0  0  0  0  0  0  0  0  0  0  0
   43.7550   33.7370   39.4090 C   0  0  0  0  0  0  0  0  0  0  0  0
   45.0090   33.7630   39.3390 O   0  0  0  0  0  0  0  0  0  0  0  0
   43.0010   33.3020   38.3850 N   0  0  0  0  0  0  0  0  0  0  0  0
   41.6480   33.2810   38.4790 C   0  0  0  0  0  0  0  0  0  0  0  0
   40.9990   32.8610   37.4800 O   0  0  0  0  0  0  0  0  0  0  0  0
   41.2860   34.4900   41.5970 H   0  0  0  0  0  0  0  0  0  0  0  0
   43.6900   34.5200   41.4120 H   0  0  0  0  0  0  0  0  0  0  0  0
   43.5310   32.9940   37.5410 H   0  0  0  0  0  0  0  0  0  0  0  0
  1  6  2  0  0  0  0
  1  2  1  0  0  0  0
  2  3  2  0  0  0  0
  3  4  1  0  0  0  0
  3  8  1  0  0  0  0
  5  9  1  0  0  0  0
  5  4  2  0  0  0  0
  6  5  1  0  0  0  0
  7  1  1  0  0  0  0
  9 10  1  0  0  0  0
 10 11  2  0  0  0  0
 11 12  1  0  0  0  0
 13 14  2  0  0  0  0
 13 11  1  0  0  0  0
 15 13  1  0  0  0  0
 16 15  1  0  0  0  0
 16  9  1  0  0  0  0
 17 16  2  0  0  0  0
 18 15  1  0  0  0  0
 19  2  1  0  0  0  0
 19 21  1  0  0  0  0
 20 19  1  0  0  0  0
 22 19  1  0  0  0  0
 22 23  1  0  0  0  0
 23 30  1  0  0  0  0
 24 23  2  0  0  0  0
 24 31  1  0  0  0  0
 25 24  1  0  0  0  0
 26 25  2  0  0  0  0
 27 28  1  0  0  0  0
 27 25  1  0  0  0  0
 28 22  1  0  0  0  0
 29 28  2  0  0  0  0
 32 27  1  0  0  0  0
M  END
>  <minimizedAffinity>
-5.28841352

$$$$

 OpenBabel03242515273D

 32 34  0  0  0  0  0  0  0  0999 V2000
   40.5620   28.2680   42.2010 C   0  0  0  0  0  0  0  0  0  0  0  0
   39.3020   28.3290   42.8160 C   0  0  0  0  0  0  0  0  0  0  0  0
   38.5280   29.4360   42.5590 C   0  0  0  0  0  0  0  0  0  0  0  0
   38.9980   30.3910   41.7490 N   0  0  0  0  0  0  0  0  0  0  0  0
   40.2270   30.3110   41.1620 C   0  0  0  0  0  0  0  0  0  0  0  0
   41.0360   29.2410   41.3780 N   0  0  0  0  0  0  0  0  0  0  0  0
   41.2250   27.4270   42.3560 H   0  0  0  0  0  0  0  0  0  0  0  0
   37.5610   29.4660   43.0410 H   0  0  0  0  0  0  0  0  0  0  0  0
   40.5930   31.4040   40.3250 N   0  0  0  0  0  0  0  0  0  0  0  0
   40.4860   32.7230   40.5680 C   0  0  0  0  0  3  0  0  0  0  0  0
   40.9020   33.6310   39.6160 C   0  0  0  0  0  0  0  0  0  0  0  0
   40.7810   34.6630   39.8920 H   0  0  0  0  0  0  0  0  0  0  0  0
   41.4230   33.1610   38.4290 C   0  0  0  0  0  0  0  0  0  0  0  0
   41.7960   34.0290   37.5740 O   0  0  0  0  0  0  0  0  0  0  0  0
   41.5250   31.8390   38.1960 N   0  0  0  0  0  0  0  0  0  0  0  0
   41.1080   30.9620   39.1490 C   0  0  0  0  0  0  0  0  0  0  0  0
   41.2640   29.7650   38.7930 O   0  0  0  0  0  0  0  0  0  0  0  0
   41.9290   31.5630   37.2740 H   0  0  0  0  0  0  0  0  0  0  0  0
   38.9520   27.1900   43.6720 C   0  0  0  0  0  0  0  0  0  0  0  0
   39.7490   26.9460   44.3690 H   0  0  0  0  0  0  0  0  0  0  0  0
   38.0870   27.5340   44.3110 H   0  0  0  0  0  0  0  0  0  0  0  0
   38.5390   26.0780   42.8380 N   0  0  0  0  0  0  0  0  0  0  0  0
   37.4210   26.1930   42.1040 C   0  0  0  0  0  0  0  0  0  0  0  0
   37.0580   25.1050   41.3180 C   0  0  0  0  0  0  0  0  0  0  0  0
   37.8140   23.9610   41.2930 C   0  0  0  0  0  0  0  0  0  0  0  0
   37.4560   22.9980   40.5700 O   0  0  0  0  0  0  0  0  0  0  0  0
   38.9250   23.9000   42.0480 N   0  0  0  0  0  0  0  0  0  0  0  0
   39.2960   24.9500   42.8220 C   0  0  0  0  0  0  0  0  0  0  0  0
   40.3510   24.8270   43.5060 O   0  0  0  0  0  0  0  0  0  0  0  0
   36.8000   27.0860   42.1020 H   0  0  0  0  0  0  0  0  0  0  0  0
   36.1560   25.2100   40.7310 H   0  0  0  0  0  0  0  0  0  0  0  0
   39.4570   23.0050   41.9860 H   0  0  0  0  0  0  0  0  0  0  0  0
  1  7  1  0  0  0  0
  1  2  1  0  0  0  0
  2 19  1  0  0  0  0
  3  2  2  0  0  0  0
  3  8  1  0  0  0  0
  4  3  1  0  0  0  0
  5  6  1  0  0  0  0
  5  4  2  0  0  0  0
  6  1  2  0  0  0  0
  9 10  1  0  0  0  0
  9  5  1  0  0  0  0
 11 12  1  0  0  0  0
 11 10  2  0  0  0  0
 13 11  1  0  0  0  0
 14 13  2  0  0  0  0
 15 13  1  0  0  0  0
 15 16  1  0  0  0  0
 16  9  1  0  0  0  0
 17 16  2  0  0  0  0
 18 15  1  0  0  0  0
 19 21  1  0  0  0  0
 19 20  1  0  0  0  0
 22 19  1  0  0  0  0
 23 22  1  0  0  0  0
 24 23  2  0  0  0  0
 25 24  1  0  0  0  0
 25 27  1  0  0  0  0
 26 25  2  0  0  0  0
 27 28  1  0  0  0  0
 28 22  1  0  0  0  0
 28 29  2  0  0  0  0
 30 23  1  0  0  0  0
 31 24  1  0  0  0  0
 32 27  1  0  0  0  0
M  END
>  <minimizedAffinity>
-5.26651955

$$$$

 OpenBabel03242515273D

 32 34  0  0  0  0  0  0  0  0999 V2000
   38.1470   30.2080   41.3240 C   0  0  0  0  0  0  0  0  0  0  0  0
   39.4030   30.2400   41.9500 C   0  0  0  0  0  0  0  0  0  0  0  0
   39.9700   29.0340   42.2870 C   0  0  0  0  0  0  0  0  0  0  0  0
   39.3150   27.9010   42.0120 N   0  0  0  0  0  0  0  0  0  0  0  0
   38.0940   27.8930   41.4040 C   0  0  0  0  0  0  0  0  0  0  0  0
   37.4840   29.0540   41.0460 N   0  0  0  0  0  0  0  0  0  0  0  0
   37.6400   31.1170   41.0290 H   0  0  0  0  0  0  0  0  0  0  0  0
   40.9380   29.0780   42.7680 H   0  0  0  0  0  0  0  0  0  0  0  0
   37.5170   26.6110   41.1740 N   0  0  0  0  0  0  0  0  0  0  0  0
   37.4120   25.5710   42.0230 C   0  0  0  0  0  3  0  0  0  0  0  0
   36.8120   24.4030   41.6030 C   0  0  0  0  0  0  0  0  0  0  0  0
   36.7690   23.6250   42.3430 H   0  0  0  0  0  0  0  0  0  0  0  0
   36.3290   24.3270   40.3130 C   0  0  0  0  0  0  0  0  0  0  0  0
   35.7810   23.2310   39.9610 O   0  0  0  0  0  0  0  0  0  0  0  0
   36.4400   25.3730   39.4730 N   0  0  0  0  0  0  0  0  0  0  0  0
   37.0360   26.5160   39.9090 C   0  0  0  0  0  0  0  0  0  0  0  0
   37.0670   27.4040   39.0170 O   0  0  0  0  0  0  0  0  0  0  0  0
   36.0510   25.2370   38.5140 H   0  0  0  0  0  0  0  0  0  0  0  0
   39.9730   31.5740   42.1720 C   0  0  0  0  0  0  0  0  0  0  0  0
   39.2830   32.2270   42.6990 H   0  0  0  0  0  0  0  0  0  0  0  0
   40.8450   31.4260   42.8740 H   0  0  0  0  0  0  0  0  0  0  0  0
   40.4400   32.1070   40.9080 N   0  0  0  0  0  0  0  0  0  0  0  0
   41.4820   31.5220   40.2970 C   0  0  0  0  0  0  0  0  0  0  0  0
   41.9010   32.0630   39.0860 C   0  0  0  0  0  0  0  0  0  0  0  0
   41.2720   33.1530   38.5390 C   0  0  0  0  0  0  0  0  0  0  0  0
   41.6770   33.6150   37.4440 O   0  0  0  0  0  0  0  0  0  0  0  0
   40.2330   33.7000   39.1940 N   0  0  0  0  0  0  0  0  0  0  0  0
   39.8100   33.1870   40.3760 C   0  0  0  0  0  0  0  0  0  0  0  0
   38.8280   33.7500   40.9380 O   0  0  0  0  0  0  0  0  0  0  0  0
   42.0020   30.6570   40.7050 H   0  0  0  0  0  0  0  0  0  0  0  0
   42.7400   31.5820   38.6050 H   0  0  0  0  0  0  0  0  0  0  0  0
   39.7980   34.5250   38.7270 H   0  0  0  0  0  0  0  0  0  0  0  0
  1  2  1  0  0  0  0
  2 19  1  0  0  0  0
  2  3  2  0  0  0  0
  3  8  1  0  0  0  0
  4  3  1  0  0  0  0
  5  4  2  0  0  0  0
  6  1  2  0  0  0  0
  6  5  1  0  0  0  0
  7  1  1  0  0  0  0
  9  5  1  0  0  0  0
  9 10  1  0  0  0  0
 11 10  2  0  0  0  0
 11 12  1  0  0  0  0
 13 11  1  0  0  0  0
 14 13  2  0  0  0  0
 15 16  1  0  0  0  0
 15 13  1  0  0  0  0
 16  9  1  0  0  0  0
 17 16  2  0  0  0  0
 18 15  1  0  0  0  0
 19 20  1  0  0  0  0
 19 21  1  0  0  0  0
 22 19  1  0  0  0  0
 23 30  1  0  0  0  0
 23 22  1  0  0  0  0
 24 23  2  0  0  0  0
 25 24  1  0  0  0  0
 25 27  1  0  0  0  0
 26 25  2  0  0  0  0
 27 28  1  0  0  0  0
 28 22  1  0  0  0  0
 28 29  2  0  0  0  0
 31 24  1  0  0  0  0
 32 27  1  0  0  0  0
M  END
>  <minimizedAffinity>
-5.181952

$$$$
