
 OpenBabel03242519473D

 39 41  0  0  1  0  0  0  0  0999 V2000
   46.5550   32.5610   46.5940 C   0  0  2  0  0  0  0  0  0  0  0  0
   47.1390   32.6420   45.2400 C   0  0  1  0  0  0  0  0  0  0  0  0
   46.8710   31.3170   44.6620 O   0  0  0  0  0  0  0  0  0  0  0  0
   47.4810   30.5920   45.7230 C   0  0  0  0  0  0  0  0  0  0  0  0
   46.5900   31.0720   46.9020 C   0  0  2  0  0  0  0  0  0  0  0  0
   47.0930   33.1570   47.3320 H   0  0  0  0  0  0  0  0  0  0  0  0
   48.2640   32.7020   45.3160 H   0  0  0  0  0  0  0  0  0  0  0  0
   47.5310   29.5400   45.6010 H   0  0  0  0  0  0  0  0  0  0  0  0
   48.5020   31.0420   45.9150 H   0  0  0  0  0  0  0  0  0  0  0  0
   47.1040   30.7990   47.8350 H   0  0  0  0  0  0  0  0  0  0  0  0
   44.8480   35.2200   44.0800 C   0  0  0  0  0  0  0  0  0  0  0  0
   45.4440   35.6860   42.8970 C   0  0  0  0  0  0  0  0  0  0  0  0
   46.6510   35.1080   42.4730 C   0  0  0  0  0  0  0  0  0  0  0  0
   47.1930   34.1130   43.2350 N   0  0  0  0  0  0  0  0  0  0  0  0
   46.5980   33.6850   44.3690 C   0  0  0  0  0  0  0  0  0  0  0  0
   45.4290   34.2280   44.7980 N   0  0  0  0  0  0  0  0  0  0  0  0
   44.9810   36.4690   42.3320 H   0  0  0  0  0  0  0  0  0  0  0  0
   47.1460   35.4340   41.5690 H   0  0  0  0  0  0  0  0  0  0  0  0
   43.6530   35.7700   44.5350 O   0  0  0  0  0  0  0  0  0  0  0  0
   43.7310   36.7210   44.9020 H   0  0  0  0  0  0  0  0  0  0  0  0
   45.1730   32.9600   46.5410 O   0  0  0  0  0  0  0  0  0  0  0  0
   44.6590   32.2160   46.1360 H   0  0  0  0  0  0  0  0  0  0  0  0
   45.3520   30.4780   46.7210 O   0  0  0  0  0  0  0  0  0  0  0  0
   45.1880   29.2910   47.4000 C   0  0  0  0  0  0  0  0  0  0  0  0
   45.6450   29.2780   48.3850 H   0  0  0  0  0  0  0  0  0  0  0  0
   44.0350   29.3870   47.7130 H   0  0  0  0  0  0  0  0  0  0  0  0
   45.1740   28.0700   46.5680 C   0  0  0  0  0  0  0  0  0  0  0  0
   45.5760   28.2140   45.5390 H   0  0  0  0  0  0  0  0  0  0  0  0
   45.8540   27.3290   47.0430 H   0  0  0  0  0  0  0  0  0  0  0  0
   43.8550   27.5030   46.3780 N   0  0  0  0  0  0  0  0  0  0  0  0
   43.6710   26.4240   47.2050 C   0  0  0  0  0  3  0  0  0  0  0  0
   42.5210   25.6610   47.2840 C   0  0  0  0  0  0  0  0  0  0  0  0
   42.3910   24.8150   47.9400 H   0  0  0  0  0  0  0  0  0  0  0  0
   41.4540   25.9860   46.4780 C   0  0  0  0  0  0  0  0  0  0  0  0
   40.3480   25.4110   46.4190 O   0  0  0  0  0  0  0  0  0  0  0  0
   41.6440   27.0360   45.6780 N   0  0  0  0  0  0  0  0  0  0  0  0
   42.7750   27.7350   45.6430 C   0  0  0  0  0  0  0  0  0  0  0  0
   42.9180   28.7150   44.8790 O   0  0  0  0  0  0  0  0  0  0  0  0
   40.9020   27.3680   45.0270 H   0  0  0  0  0  0  0  0  0  0  0  0
  1  5  1  0  0  0  0
  1  6  1  1  0  0  0
  2  7  1  1  0  0  0
  2  1  1  0  0  0  0
  3  2  1  0  0  0  0
  3  4  1  0  0  0  0
  4  9  1  0  0  0  0
  4  5  1  0  0  0  0
  5 10  1  1  0  0  0
  8  4  1  0  0  0  0
 11 19  1  0  0  0  0
 11 16  1  0  0  0  0
 12 11  2  0  0  0  0
 13 12  1  0  0  0  0
 13 14  2  0  0  0  0
 14 15  1  0  0  0  0
 15 16  2  0  0  0  0
 15  2  1  0  0  0  0
 17 12  1  0  0  0  0
 18 13  1  0  0  0  0
 19 20  1  0  0  0  0
 21  1  1  0  0  0  0
 22 21  1  0  0  0  0
 23  5  1  0  0  0  0
 23 24  1  0  0  0  0
 24 26  1  0  0  0  0
 24 25  1  0  0  0  0
 27 29  1  0  0  0  0
 27 24  1  0  0  0  0
 28 27  1  0  0  0  0
 30 27  1  0  0  0  0
 30 31  1  0  0  0  0
 31 32  2  0  0  0  0
 32 33  1  0  0  0  0
 34 32  1  0  0  0  0
 35 34  2  0  0  0  0
 36 34  1  0  0  0  0
 37 36  1  0  0  0  0
 37 30  1  0  0  0  0
 38 37  2  0  0  0  0
 39 36  1  0  0  0  0
M  END
>  <minimizedAffinity>
-5.66546965

>  <minimizedRMSD>
0.927711725

$$$$
