
 OpenBabel03252504043D

 20 21  0  0  0  0  0  0  0  0999 V2000
   44.4650   35.8450   44.9700 C   0  0  0  0  0  0  0  0  0  0  0  0
   45.0270   35.7490   43.6700 C   0  0  0  0  0  0  0  0  0  0  0  0
   45.8860   34.6680   43.4390 C   0  0  0  0  0  0  0  0  0  0  0  0
   46.1430   33.7850   44.4230 N   0  0  0  0  0  0  0  0  0  0  0  0
   45.5810   33.9150   45.6630 C   0  0  0  0  0  0  0  0  0  0  0  0
   44.7500   34.9460   45.9090 N   0  0  0  0  0  0  0  0  0  0  0  0
   43.8050   36.6900   45.1180 H   0  0  0  0  0  0  0  0  0  0  0  0
   45.8210   33.1750   46.4220 H   0  0  0  0  0  0  0  0  0  0  0  0
   46.4500   34.5700   42.1350 N   0  0  0  0  0  0  0  0  0  0  0  0
   47.7460   34.9990   42.0890 C   0  0  0  0  0  0  0  0  0  0  0  0
   48.4400   34.9730   40.9090 C   0  0  0  0  0  0  0  0  0  0  0  0
   49.4800   35.3050   40.8160 H   0  0  0  0  0  0  0  0  0  0  0  0
   47.8510   34.5150   39.7510 C   0  0  0  0  0  0  0  0  0  0  0  0
   48.4490   34.4680   38.6240 O   0  0  0  0  0  0  0  0  0  0  0  0
   46.5580   34.0990   39.8540 N   0  0  0  0  0  0  0  0  0  0  0  0
   45.8740   34.1250   41.0170 C   0  0  0  0  0  0  0  0  0  0  0  0
   44.6970   33.7560   41.1530 O   0  0  0  0  0  0  0  0  0  0  0  0
   46.0790   33.7500   39.0130 H   0  0  0  0  0  0  0  0  0  0  0  0
   44.7630   36.6520   42.6660 O   0  0  0  0  0  0  0  0  0  0  0  0
   44.4490   37.5790   42.8730 H   0  0  0  0  0  0  0  0  0  0  0  0
  1  7  1  0  0  0  0
  1  6  1  0  0  0  0
  2  1  2  0  0  0  0
  3  2  1  0  0  0  0
  3  4  2  0  0  0  0
  4  5  1  0  0  0  0
  5  6  2  0  0  0  0
  5  8  1  0  0  0  0
  9  3  1  0  0  0  0
 10  9  1  0  0  0  0
 11 10  2  0  0  0  0
 12 11  1  0  0  0  0
 13 15  1  0  0  0  0
 13 11  1  0  0  0  0
 14 13  2  0  0  0  0
 15 16  1  0  0  0  0
 16 17  2  0  0  0  0
 16  9  1  0  0  0  0
 18 15  1  0  0  0  0
 19 20  1  0  0  0  0
 19  2  1  0  0  0  0
M  END
>  <minimizedAffinity>
-5.26955938

>  <minimizedRMSD>
0.874192417

$$$$
