
 OpenBabel03252506183D

 24 25  0  0  0  0  0  0  0  0999 V2000
   44.8870   35.6760   44.0920 C   0  0  0  0  0  0  0  0  0  0  0  0
   44.4270   35.1730   42.8620 C   0  0  0  0  0  0  0  0  0  0  0  0
   44.5440   33.8130   42.6130 C   0  0  0  0  0  0  0  0  0  0  0  0
   45.0980   33.0370   43.5720 N   0  0  0  0  0  0  0  0  0  0  0  0
   45.5330   33.5430   44.7480 C   0  0  0  0  0  0  0  0  0  0  0  0
   45.4270   34.8450   45.0010 N   0  0  0  0  0  0  0  0  0  0  0  0
   44.0050   35.8850   42.1780 H   0  0  0  0  0  0  0  0  0  0  0  0
   44.1910   33.4240   41.6650 H   0  0  0  0  0  0  0  0  0  0  0  0
   46.0890   32.5900   45.6450 N   0  0  0  0  0  0  0  0  0  0  0  0
   46.9720   31.6330   45.2430 C   0  0  0  0  0  0  0  0  0  0  0  0
   47.4960   30.7190   46.1370 C   0  0  0  0  0  0  0  0  0  0  0  0
   48.2000   29.9720   45.7620 H   0  0  0  0  0  0  0  0  0  0  0  0
   47.1220   30.7730   47.4640 C   0  0  0  0  0  0  0  0  0  0  0  0
   47.6120   29.9340   48.2500 O   0  0  0  0  0  0  0  0  0  0  0  0
   46.2390   31.7440   47.8200 N   0  0  0  0  0  0  0  0  0  0  0  0
   45.7370   32.6270   46.9380 C   0  0  0  0  0  0  0  0  0  0  0  0
   44.9230   33.4740   47.4270 O   0  0  0  0  0  0  0  0  0  0  0  0
   46.0150   31.7030   48.8570 H   0  0  0  0  0  0  0  0  0  0  0  0
   44.7700   37.1180   44.3730 C   0  0  0  0  0  0  0  0  0  0  0  0
   45.4470   37.9390   43.5800 C   0  0  0  0  0  0  0  0  0  0  0  0
   45.3720   39.4110   43.8120 C   0  0  0  0  0  0  0  0  0  0  0  0
   45.6300   39.8980   42.8300 H   0  0  0  0  0  0  0  0  0  0  0  0
   44.3960   39.7350   44.2000 H   0  0  0  0  0  0  0  0  0  0  0  0
   46.1460   39.6900   44.5520 H   0  0  0  0  0  0  0  0  0  0  0  0
  1 19  1  0  0  0  0
  1  6  1  0  0  0  0
  2  1  2  0  0  0  0
  3  2  1  0  0  0  0
  3  4  2  0  0  0  0
  4  5  1  0  0  0  0
  5  6  2  0  0  0  0
  5  9  1  0  0  0  0
  7  2  1  0  0  0  0
  8  3  1  0  0  0  0
  9 16  1  0  0  0  0
 10  9  1  0  0  0  0
 10 11  2  0  0  0  0
 11 13  1  0  0  0  0
 12 11  1  0  0  0  0
 13 15  1  0  0  0  0
 13 14  2  0  0  0  0
 15 18  1  0  0  0  0
 16 17  2  0  0  0  0
 16 15  1  0  0  0  0
 20 21  1  0  0  0  0
 20 19  2  0  0  0  0
 21 23  1  0  0  0  0
 21 24  1  0  0  0  0
 22 21  1  0  0  0  0
M  END
>  <minimizedAffinity>
-4.1426754

>  <minimizedRMSD>
1.65284264

$$$$
