
 OpenBabel03242521443D

 39 41  0  0  1  0  0  0  0  0999 V2000
   45.5840   35.5270   43.7430 C   0  0  0  0  0  0  0  0  0  0  0  0
   46.6120   34.7320   43.2410 C   0  0  0  0  0  0  0  0  0  0  0  0
   47.0250   33.6010   43.9360 C   0  0  0  0  0  0  0  0  0  0  0  0
   46.3920   33.3350   45.0790 N   0  0  0  0  0  0  0  0  0  0  0  0
   45.3940   34.1050   45.5670 C   0  0  0  0  0  0  0  0  0  0  0  0
   44.9800   35.2020   44.9100 N   0  0  0  0  0  0  0  0  0  0  0  0
   47.0390   35.0450   42.3220 H   0  0  0  0  0  0  0  0  0  0  0  0
   44.8860   33.8800   46.4960 H   0  0  0  0  0  0  0  0  0  0  0  0
   49.0770   33.6010   42.5410 C   0  0  2  0  0  0  0  0  0  0  0  0
   48.1000   32.8220   43.3500 C   0  0  2  0  0  0  0  0  0  0  0  0
   47.6700   31.8520   42.3980 O   0  0  0  0  0  0  0  0  0  0  0  0
   48.8790   31.3550   41.9430 C   0  0  0  0  0  0  0  0  0  0  0  0
   49.9220   32.4240   42.0200 C   0  0  1  0  0  0  0  0  0  0  0  0
   48.6150   34.0200   41.6070 H   0  0  0  0  0  0  0  0  0  0  0  0
   48.6460   32.2880   44.1630 H   0  0  0  0  0  0  0  0  0  0  0  0
   49.1590   30.4410   42.5250 H   0  0  0  0  0  0  0  0  0  0  0  0
   48.7460   31.0820   40.8730 H   0  0  0  0  0  0  0  0  0  0  0  0
   50.7430   32.1880   42.7060 H   0  0  0  0  0  0  0  0  0  0  0  0
   49.7900   34.5280   43.2390 O   0  0  0  0  0  0  0  0  0  0  0  0
   50.5910   34.7620   42.6870 H   0  0  0  0  0  0  0  0  0  0  0  0
   50.4800   32.7800   40.7960 O   0  0  0  0  0  0  0  0  0  0  0  0
   49.8630   32.7810   40.0460 H   0  0  0  0  0  0  0  0  0  0  0  0
   45.1590   36.7470   42.9910 C   0  0  0  0  0  0  0  0  0  0  0  0
   46.0180   37.0880   42.3620 H   0  0  0  0  0  0  0  0  0  0  0  0
   44.2460   36.5530   42.3820 H   0  0  0  0  0  0  0  0  0  0  0  0
   45.3080   39.1460   43.9250 C   0  0  0  0  0  0  0  0  0  0  0  0
   45.9560   39.4740   42.8650 O   0  0  0  0  0  0  0  0  0  0  0  0
   44.9050   37.7950   43.9390 N   0  0  0  0  0  0  0  0  0  0  0  0
   44.3300   37.4710   44.7400 H   0  0  0  0  0  0  0  0  0  0  0  0
   44.8930   40.2180   48.2750 H   0  0  0  0  0  0  0  0  0  0  0  0
   44.8780   40.5680   47.3020 N   0  0  0  0  0  0  0  0  0  0  0  0
   45.0810   39.7330   46.2760 C   0  0  0  0  0  3  0  0  0  0  0  0
   45.0730   40.1530   44.9420 C   0  0  0  0  0  0  0  0  0  0  0  0
   44.8340   41.5010   44.8160 C   0  0  0  0  0  0  0  0  0  0  0  0
   44.8130   41.9400   43.6430 O   0  0  0  0  0  0  0  0  0  0  0  0
   44.6270   42.3580   45.8270 N   0  0  0  0  0  0  0  0  0  0  0  0
   44.6520   41.8730   47.0780 C   0  0  0  0  0  0  0  0  0  0  0  0
   44.4580   42.6850   48.0000 O   0  0  0  0  0  0  0  0  0  0  0  0
   44.4570   43.3610   45.5960 H   0  0  0  0  0  0  0  0  0  0  0  0
  1  6  1  0  0  0  0
  2  1  2  0  0  0  0
  2  3  1  0  0  0  0
  3  4  2  0  0  0  0
  4  5  1  0  0  0  0
  5  8  1  0  0  0  0
  6  5  2  0  0  0  0
  7  2  1  0  0  0  0
  9 14  1  6  0  0  0
  9 19  1  0  0  0  0
  9 10  1  0  0  0  0
 10  3  1  0  0  0  0
 10 15  1  1  0  0  0
 11 10  1  0  0  0  0
 12 13  1  0  0  0  0
 12 11  1  0  0  0  0
 12 16  1  0  0  0  0
 13  9  1  0  0  0  0
 13 18  1  1  0  0  0
 17 12  1  0  0  0  0
 20 19  1  0  0  0  0
 21 13  1  0  0  0  0
 22 21  1  0  0  0  0
 23  1  1  0  0  0  0
 23 28  1  0  0  0  0
 24 23  1  0  0  0  0
 25 23  1  0  0  0  0
 26 28  1  0  0  0  0
 26 33  1  0  0  0  0
 27 26  2  0  0  0  0
 28 29  1  0  0  0  0
 31 30  1  0  0  0  0
 32 31  1  0  0  0  0
 33 32  2  0  0  0  0
 34 33  1  0  0  0  0
 34 36  1  0  0  0  0
 35 34  2  0  0  0  0
 36 37  1  0  0  0  0
 37 31  1  0  0  0  0
 37 38  2  0  0  0  0
 39 36  1  0  0  0  0
M  END
>  <minimizedAffinity>
-3.28276753

>  <minimizedRMSD>
0.766818464

$$$$
