
 OpenBabel03252502593D

 23 24  0  0  0  0  0  0  0  0999 V2000
   43.3230   34.9220   40.3550 C   0  0  0  0  0  0  0  0  0  0  0  0
   43.6140   35.8000   39.7290 H   0  0  0  0  0  0  0  0  0  0  0  0
   43.9070   34.0300   40.0330 H   0  0  0  0  0  0  0  0  0  0  0  0
   41.8760   34.6810   40.2530 N   0  0  0  0  0  0  0  0  0  0  0  0
   41.0500   35.7260   40.3720 C   0  0  0  0  0  3  0  0  0  0  0  0
   39.7000   35.4010   40.2620 C   0  0  0  0  0  0  0  0  0  0  0  0
   38.9390   36.1930   40.3470 H   0  0  0  0  0  0  0  0  0  0  0  0
   39.2860   34.0820   40.0460 C   0  0  0  0  0  0  0  0  0  0  0  0
   38.0770   33.7640   39.9430 O   0  0  0  0  0  0  0  0  0  0  0  0
   40.2090   33.1030   39.9410 N   0  0  0  0  0  0  0  0  0  0  0  0
   41.5160   33.3910   40.0430 C   0  0  0  0  0  0  0  0  0  0  0  0
   42.3910   32.4810   39.9460 O   0  0  0  0  0  0  0  0  0  0  0  0
   39.9260   32.1040   39.7770 H   0  0  0  0  0  0  0  0  0  0  0  0
   43.6190   35.3210   42.0940 S   0  0  0  0  0  0  0  0  0  0  0  0
   45.4630   34.3030   43.9110 C   0  0  0  0  0  0  0  0  0  0  0  0
   45.2330   34.7190   42.5860 C   0  0  0  0  0  0  0  0  0  0  0  0
   46.2610   34.6600   41.6600 C   0  0  0  0  0  0  0  0  0  0  0  0
   47.4720   34.1940   42.0860 N   0  0  0  0  0  0  0  0  0  0  0  0
   47.6550   33.8060   43.3570 C   0  0  0  0  0  0  0  0  0  0  0  0
   46.6920   33.8480   44.2700 N   0  0  0  0  0  0  0  0  0  0  0  0
   44.6250   34.3720   44.5830 H   0  0  0  0  0  0  0  0  0  0  0  0
   46.1320   34.9730   40.6150 H   0  0  0  0  0  0  0  0  0  0  0  0
   48.5920   33.4270   43.7540 H   0  0  0  0  0  0  0  0  0  0  0  0
  1 14  1  0  0  0  0
  2  1  1  0  0  0  0
  3  1  1  0  0  0  0
  4  1  1  0  0  0  0
  4  5  1  0  0  0  0
  6  7  1  0  0  0  0
  6  5  2  0  0  0  0
  8  6  1  0  0  0  0
  9  8  2  0  0  0  0
 10 11  1  0  0  0  0
 10  8  1  0  0  0  0
 11  4  1  0  0  0  0
 12 11  2  0  0  0  0
 13 10  1  0  0  0  0
 14 16  1  0  0  0  0
 15 20  1  0  0  0  0
 15 21  1  0  0  0  0
 16 15  2  0  0  0  0
 17 18  2  0  0  0  0
 17 16  1  0  0  0  0
 18 19  1  0  0  0  0
 19 23  1  0  0  0  0
 19 20  2  0  0  0  0
 22 17  1  0  0  0  0
M  END
>  <minimizedAffinity>
-4.11350203

>  <minimizedRMSD>
3.04613805

$$$$
