
 OpenBabel03252500413D

 29 31  0  0  1  0  0  0  0  0999 V2000
   47.6550   34.0180   41.6210 C   0  0  1  0  0  0  0  0  0  0  0  0
   48.9700   34.7110   41.3850 C   0  0  0  0  0  0  0  0  0  0  0  0
   48.7310   33.3260   40.8560 C   0  0  2  0  0  0  0  0  0  0  0  0
   46.7820   34.1860   40.9360 H   0  0  0  0  0  0  0  0  0  0  0  0
   49.6150   34.9000   42.2420 H   0  0  0  0  0  0  0  0  0  0  0  0
   48.9340   35.5670   40.6740 H   0  0  0  0  0  0  0  0  0  0  0  0
   49.3170   32.5020   41.3150 H   0  0  0  0  0  0  0  0  0  0  0  0
   48.7130   33.2440   39.4130 N   0  0  0  0  0  0  0  0  0  0  0  0
   48.1230   34.2380   38.7290 C   0  0  0  0  0  0  0  0  0  0  0  0
   48.0570   34.2470   37.3320 C   0  0  0  0  0  0  0  0  0  0  0  0
   47.5840   35.0440   36.7930 H   0  0  0  0  0  0  0  0  0  0  0  0
   48.6190   33.1880   36.6270 C   0  0  0  0  0  0  0  0  0  0  0  0
   48.6090   33.1070   35.3780 O   0  0  0  0  0  0  0  0  0  0  0  0
   49.2030   32.2080   37.3700 N   0  0  0  0  0  0  0  0  0  0  0  0
   49.2450   32.2400   38.7250 C   0  0  0  0  0  0  0  0  0  0  0  0
   49.8010   31.2980   39.3170 O   0  0  0  0  0  0  0  0  0  0  0  0
   49.6250   31.4120   36.8400 H   0  0  0  0  0  0  0  0  0  0  0  0
   47.4240   33.5640   43.0190 C   0  0  0  0  0  0  0  0  0  0  0  0
   48.3600   33.5810   43.5960 H   0  0  0  0  0  0  0  0  0  0  0  0
   47.0180   32.5100   42.9340 H   0  0  0  0  0  0  0  0  0  0  0  0
   46.3820   34.3320   43.7130 C   0  0  0  0  0  0  0  0  0  0  0  0
   45.8630   35.3940   43.0040 C   0  0  0  0  0  0  0  0  0  0  0  0
   44.8320   36.1540   43.6200 C   0  0  0  0  0  0  0  0  0  0  0  0
   44.4280   35.7850   44.8640 N   0  0  0  0  0  0  0  0  0  0  0  0
   44.9820   34.7250   45.5110 C   0  0  0  0  0  0  0  0  0  0  0  0
   45.9520   34.0080   44.9340 N   0  0  0  0  0  0  0  0  0  0  0  0
   46.0310   35.8470   42.0450 H   0  0  0  0  0  0  0  0  0  0  0  0
   44.3040   37.0110   43.2320 H   0  0  0  0  0  0  0  0  0  0  0  0
   44.6600   34.4330   46.5010 H   0  0  0  0  0  0  0  0  0  0  0  0
  1  4  1  6  0  0  0
  1 18  1  0  0  0  0
  2  1  1  0  0  0  0
  2  5  1  0  0  0  0
  3  7  1  1  0  0  0
  3  2  1  0  0  0  0
  3  1  1  0  0  0  0
  6  2  1  0  0  0  0
  8  3  1  0  0  0  0
  9  8  1  0  0  0  0
 10  9  2  0  0  0  0
 11 10  1  0  0  0  0
 12 10  1  0  0  0  0
 12 14  1  0  0  0  0
 13 12  2  0  0  0  0
 14 15  1  0  0  0  0
 15 16  2  0  0  0  0
 15  8  1  0  0  0  0
 17 14  1  0  0  0  0
 18 19  1  0  0  0  0
 18 21  1  0  0  0  0
 20 18  1  0  0  0  0
 21 26  1  0  0  0  0
 22 23  1  0  0  0  0
 22 21  2  0  0  0  0
 23 24  2  0  0  0  0
 24 25  1  0  0  0  0
 25 29  1  0  0  0  0
 26 25  2  0  0  0  0
 27 22  1  0  0  0  0
 28 23  1  0  0  0  0
M  END
>  <minimizedAffinity>
-4.92904997

>  <minimizedRMSD>
2.61412311

$$$$
