
 OpenBabel03242520203D

 36 38  0  0  0  0  0  0  0  0999 V2000
   41.8490   35.4130   38.6590 C   0  0  0  0  0  0  0  0  0  0  0  0
   42.1540   36.4470   38.3850 H   0  0  0  0  0  0  0  0  0  0  0  0
   41.6550   34.8530   37.7100 H   0  0  0  0  0  0  0  0  0  0  0  0
   44.3060   34.3410   41.3210 C   0  0  0  0  0  0  0  0  0  0  0  0
   43.3000   35.0690   40.6550 C   0  0  0  0  0  0  0  0  0  0  0  0
   42.9120   34.6770   39.3840 C   0  0  0  0  0  0  0  0  0  0  0  0
   43.5390   33.5870   38.8420 N   0  0  0  0  0  0  0  0  0  0  0  0
   44.5120   32.9120   39.5290 C   0  0  0  0  0  0  0  0  0  0  0  0
   44.8790   33.2890   40.7410 N   0  0  0  0  0  0  0  0  0  0  0  0
   42.8620   35.9150   41.1610 H   0  0  0  0  0  0  0  0  0  0  0  0
   44.9630   32.0590   39.0320 H   0  0  0  0  0  0  0  0  0  0  0  0
   44.7210   34.7800   42.6800 C   0  0  0  0  0  0  0  0  0  0  0  0
   46.2010   35.2990   42.6960 C   0  0  0  0  0  0  0  0  0  0  0  0
   45.0320   36.1220   43.0220 C   0  0  0  0  0  0  0  0  0  0  0  0
   44.5250   33.9980   43.4660 H   0  0  0  0  0  0  0  0  0  0  0  0
   46.7220   35.3630   41.7300 H   0  0  0  0  0  0  0  0  0  0  0  0
   46.7930   34.9440   43.5630 H   0  0  0  0  0  0  0  0  0  0  0  0
   44.7930   36.9080   42.2450 H   0  0  0  0  0  0  0  0  0  0  0  0
   44.8600   36.5410   44.0350 H   0  0  0  0  0  0  0  0  0  0  0  0
   40.5830   35.4790   39.4600 C   0  0  0  0  0  0  0  0  0  0  0  0
   40.7850   36.0120   40.4110 H   0  0  0  0  0  0  0  0  0  0  0  0
   39.7930   36.0990   38.9580 H   0  0  0  0  0  0  0  0  0  0  0  0
   39.8140   33.7010   41.0150 C   0  0  0  0  0  0  0  0  0  0  0  0
   40.0230   34.4340   42.0300 O   0  0  0  0  0  0  0  0  0  0  0  0
   39.9790   34.1790   39.6970 N   0  0  0  0  0  0  0  0  0  0  0  0
   39.7000   33.6790   38.8650 H   0  0  0  0  0  0  0  0  0  0  0  0
   36.6610   30.4350   40.8770 H   0  0  0  0  0  0  0  0  0  0  0  0
   37.6290   30.6850   41.1670 N   0  0  0  0  0  0  0  0  0  0  0  0
   38.1060   31.9210   40.9460 C   0  0  0  0  0  3  0  0  0  0  0  0
   39.3940   32.3340   41.3040 C   0  0  0  0  0  0  0  0  0  0  0  0
   40.0790   31.3270   41.8940 C   0  0  0  0  0  0  0  0  0  0  0  0
   41.2480   31.5480   42.2680 O   0  0  0  0  0  0  0  0  0  0  0  0
   39.6420   30.0940   42.1280 N   0  0  0  0  0  0  0  0  0  0  0  0
   38.3950   29.7560   41.7610 C   0  0  0  0  0  0  0  0  0  0  0  0
   37.9120   28.6290   41.9450 O   0  0  0  0  0  0  0  0  0  0  0  0
   40.2150   29.3680   42.5830 H   0  0  0  0  0  0  0  0  0  0  0  0
  1  6  1  0  0  0  0
  1 20  1  0  0  0  0
  2  1  1  0  0  0  0
  3  1  1  0  0  0  0
  4 12  1  0  0  0  0
  5 10  1  0  0  0  0
  5  4  2  0  0  0  0
  6  5  1  0  0  0  0
  7  6  2  0  0  0  0
  7  8  1  0  0  0  0
  8  9  2  0  0  0  0
  9  4  1  0  0  0  0
 11  8  1  0  0  0  0
 12 13  1  0  0  0  0
 12 14  1  0  0  0  0
 12 15  1  0  0  0  0
 13 14  1  0  0  0  0
 13 17  1  0  0  0  0
 14 19  1  0  0  0  0
 16 13  1  0  0  0  0
 18 14  1  0  0  0  0
 20 25  1  0  0  0  0
 20 21  1  0  0  0  0
 22 20  1  0  0  0  0
 23 30  1  0  0  0  0
 23 24  2  0  0  0  0
 25 23  1  0  0  0  0
 26 25  1  0  0  0  0
 27 28  1  0  0  0  0
 28 34  1  0  0  0  0
 29 28  1  0  0  0  0
 29 30  2  0  0  0  0
 30 31  1  0  0  0  0
 31 33  1  0  0  0  0
 31 32  2  0  0  0  0
 33 36  1  0  0  0  0
 34 35  2  0  0  0  0
 34 33  1  0  0  0  0
M  END
>  <minimizedAffinity>
-5.19282436

>  <minimizedRMSD>
1.63558328

$$$$
