
 OpenBabel03252507133D

 43 45  0  0  1  0  0  0  0  0999 V2000
   42.3450   30.4200   42.4500 C   0  0  2  0  0  0  0  0  0  0  0  0
   41.5090   29.5240   43.2740 C   0  0  0  0  0  0  0  0  0  0  0  0
   40.0590   29.8140   43.0670 C   0  0  0  0  0  0  0  0  0  0  0  0
   39.6210   29.4820   41.7880 O   0  0  0  0  0  0  0  0  0  0  0  0
   40.6510   29.5560   40.8730 C   0  0  0  0  0  0  0  0  0  0  0  0
   41.5690   30.7180   41.1810 C   0  0  1  0  0  0  0  0  0  0  0  0
   42.4870   31.3790   43.0080 H   0  0  0  0  0  0  0  0  0  0  0  0
   41.7630   29.5380   44.3540 H   0  0  0  0  0  0  0  0  0  0  0  0
   41.6510   28.4430   42.9790 H   0  0  0  0  0  0  0  0  0  0  0  0
   39.5290   29.0480   43.7180 H   0  0  0  0  0  0  0  0  0  0  0  0
   39.6890   30.7650   43.4540 H   0  0  0  0  0  0  0  0  0  0  0  0
   41.2940   28.6410   40.9330 H   0  0  0  0  0  0  0  0  0  0  0  0
   40.2210   29.5750   39.8760 H   0  0  0  0  0  0  0  0  0  0  0  0
   42.3370   30.6260   40.3690 H   0  0  0  0  0  0  0  0  0  0  0  0
   41.0080   31.9920   41.0090 N   0  0  0  0  0  0  0  0  0  0  0  0
   40.4250   32.8220   41.8880 C   0  0  0  0  0  3  0  0  0  0  0  0
   39.8960   34.0600   41.6490 C   0  0  0  0  0  0  0  0  0  0  0  0
   39.4500   34.6330   42.4520 H   0  0  0  0  0  0  0  0  0  0  0  0
   39.9580   34.5360   40.3620 C   0  0  0  0  0  0  0  0  0  0  0  0
   39.4990   35.6530   40.0650 O   0  0  0  0  0  0  0  0  0  0  0  0
   40.5390   33.7110   39.4790 N   0  0  0  0  0  0  0  0  0  0  0  0
   41.0540   32.4940   39.7330 C   0  0  0  0  0  0  0  0  0  0  0  0
   41.5810   31.8220   38.7790 O   0  0  0  0  0  0  0  0  0  0  0  0
   40.6050   34.0400   38.4850 H   0  0  0  0  0  0  0  0  0  0  0  0
   43.6020   30.0170   42.1970 O   0  0  0  0  0  0  0  0  0  0  0  0
   46.1840   30.3460   42.5300 O   0  0  0  0  0  0  0  0  0  0  0  0
   44.8420   30.7370   43.0170 P   0  0  2  0  0  0  0  0  0  0  0  0
   44.7510   30.2680   44.6530 O   0  0  0  0  0  0  0  0  0  0  0  0
   44.8820   29.2740   44.6520 H   0  0  0  0  0  0  0  0  0  0  0  0
   44.6690   32.4520   42.9850 O   0  0  0  0  0  0  0  0  0  0  0  0
   45.7280   34.0550   41.6160 C   0  0  0  0  0  0  0  0  0  0  0  0
   45.7490   33.2810   42.7530 C   0  0  0  0  0  0  0  0  0  0  0  0
   46.8670   33.3740   43.6210 C   0  0  0  0  0  0  0  0  0  0  0  0
   47.8510   34.2280   43.2690 N   0  0  0  0  0  0  0  0  0  0  0  0
   47.7960   34.9560   42.1680 C   0  0  0  0  0  0  0  0  0  0  0  0
   46.7230   34.8610   41.3430 N   0  0  0  0  0  0  0  0  0  0  0  0
   43.6270   35.0190   40.6880 C   0  0  0  0  0  0  0  0  0  0  0  0
   43.1940   35.4010   41.8390 O   0  0  0  0  0  0  0  0  0  0  0  0
   44.9030   34.3200   40.4910 N   0  0  0  0  0  0  0  0  0  0  0  0
   46.7900   32.7350   44.4760 H   0  0  0  0  0  0  0  0  0  0  0  0
   48.6120   35.6170   41.9440 H   0  0  0  0  0  0  0  0  0  0  0  0
   42.9480   35.2690   39.8830 H   0  0  0  0  0  0  0  0  0  0  0  0
   45.0670   34.0840   39.5070 H   0  0  0  0  0  0  0  0  0  0  0  0
  1  7  1  1  0  0  0
  1  2  1  0  0  0  0
  2  8  1  0  0  0  0
  3  2  1  0  0  0  0
  3 11  1  0  0  0  0
  3 10  1  0  0  0  0
  4  3  1  0  0  0  0
  5 12  1  0  0  0  0
  5  6  1  0  0  0  0
  5  4  1  0  0  0  0
  6 14  1  6  0  0  0
  6  1  1  0  0  0  0
  9  2  1  0  0  0  0
 13  5  1  0  0  0  0
 15  6  1  0  0  0  0
 15 16  1  0  0  0  0
 17 16  2  0  0  0  0
 17 18  1  0  0  0  0
 19 17  1  0  0  0  0
 20 19  2  0  0  0  0
 21 22  1  0  0  0  0
 21 19  1  0  0  0  0
 22 15  1  0  0  0  0
 23 22  2  0  0  0  0
 24 21  1  0  0  0  0
 25  1  1  0  0  0  0
 25 27  1  0  0  0  0
 27 26  2  6  0  0  0
 27 28  1  0  0  0  0
 29 28  1  0  0  0  0
 30 27  1  0  0  0  0
 31 32  1  0  0  0  0
 32 30  1  0  0  0  0
 32 33  2  0  0  0  0
 33 40  1  0  0  0  0
 34 33  1  0  0  0  0
 35 34  2  0  0  0  0
 36 31  2  0  0  0  0
 36 35  1  0  0  0  0
 37 38  2  0  0  0  0
 39 37  1  0  0  0  0
 39 31  1  0  0  0  0
 41 35  1  0  0  0  0
 42 37  1  0  0  0  0
 43 39  1  0  0  0  0
M  END
>  <minimizedAffinity>
-5.03380299

>  <minimizedRMSD>
6.13705587

$$$$
