
 OpenBabel03252506253D

 46 50  0  0  0  0  0  0  0  0999 V2000
   45.5390   27.8500   47.8030 C   0  0  0  0  0  0  0  0  0  0  0  0
   45.0070   29.1280   47.7890 C   0  0  0  0  0  0  0  0  0  0  0  0
   44.1860   29.4360   46.7070 C   0  0  0  0  0  0  0  0  0  0  0  0
   43.9110   28.5340   45.7030 C   0  0  0  0  0  0  0  0  0  0  0  0
   43.1830   28.5460   44.5760 N   0  0  0  0  0  0  0  0  0  0  0  0
   43.2560   27.3700   43.9400 C   0  0  0  0  0  0  0  0  0  0  0  0
   44.0680   26.5170   44.6610 C   0  0  0  0  0  0  0  0  0  0  0  0
   44.4520   27.2680   45.7400 C   0  0  0  0  0  0  0  0  0  0  0  0
   45.2690   26.9500   46.8090 C   0  0  0  0  0  0  0  0  0  0  0  0
   46.1730   27.6660   48.6740 H   0  0  0  0  0  0  0  0  0  0  0  0
   43.7020   30.3930   46.5610 H   0  0  0  0  0  0  0  0  0  0  0  0
   42.6190   29.3720   44.2240 H   0  0  0  0  0  0  0  0  0  0  0  0
   42.7520   27.1380   43.0090 H   0  0  0  0  0  0  0  0  0  0  0  0
   44.3510   25.4950   44.4540 H   0  0  0  0  0  0  0  0  0  0  0  0
   45.8550   25.6530   46.8980 N   0  0  0  0  0  0  0  0  0  0  0  0
   47.0150   25.2490   46.3490 C   0  0  0  0  0  3  0  0  0  0  0  0
   47.4240   23.9340   46.5490 C   0  0  0  0  0  0  0  0  0  0  0  0
   48.3620   23.6400   46.0960 H   0  0  0  0  0  0  0  0  0  0  0  0
   46.6560   23.0640   47.2940 C   0  0  0  0  0  0  0  0  0  0  0  0
   47.0200   21.8750   47.4780 O   0  0  0  0  0  0  0  0  0  0  0  0
   45.4870   23.5210   47.8300 N   0  0  0  0  0  0  0  0  0  0  0  0
   45.1100   24.7970   47.6240 C   0  0  0  0  0  0  0  0  0  0  0  0
   44.0020   25.0950   48.1770 O   0  0  0  0  0  0  0  0  0  0  0  0
   44.9240   22.8250   48.3950 H   0  0  0  0  0  0  0  0  0  0  0  0
   45.1670   30.2200   48.7340 C   0  0  0  0  0  0  0  0  0  0  0  0
   44.2920   30.9110   48.7180 H   0  0  0  0  0  0  0  0  0  0  0  0
   45.1190   29.7710   49.7670 H   0  0  0  0  0  0  0  0  0  0  0  0
   46.4330   30.9900   48.6700 C   0  0  0  0  0  0  0  0  0  0  0  0
   46.3810   31.7800   49.4720 H   0  0  0  0  0  0  0  0  0  0  0  0
   47.2770   30.3440   48.8940 H   0  0  0  0  0  0  0  0  0  0  0  0
   46.2840   33.0170   45.7330 C   0  0  0  0  0  0  0  0  0  0  0  0
   47.2340   32.0550   45.3710 C   0  0  0  0  0  0  0  0  0  0  0  0
   47.4030   31.1940   46.4060 C   0  0  0  0  0  0  0  0  0  0  0  0
   46.5860   31.6110   47.3720 N   0  0  0  0  0  0  0  0  0  0  0  0
   45.9040   32.7070   46.9850 N   0  0  0  0  0  0  0  0  0  0  0  0
   47.7750   31.9700   44.4270 H   0  0  0  0  0  0  0  0  0  0  0  0
   48.0670   30.3290   46.4590 H   0  0  0  0  0  0  0  0  0  0  0  0
   44.4670   35.9500   44.5370 C   0  0  0  0  0  0  0  0  0  0  0  0
   45.0100   36.1590   43.2640 C   0  0  0  0  0  0  0  0  0  0  0  0
   45.9990   35.2850   42.8300 C   0  0  0  0  0  0  0  0  0  0  0  0
   46.3590   34.3000   43.6720 N   0  0  0  0  0  0  0  0  0  0  0  0
   45.8350   34.1090   44.8850 C   0  0  0  0  0  0  0  0  0  0  0  0
   44.8870   34.9420   45.3090 N   0  0  0  0  0  0  0  0  0  0  0  0
   43.6970   36.6500   44.8450 H   0  0  0  0  0  0  0  0  0  0  0  0
   44.7420   36.9320   42.5780 H   0  0  0  0  0  0  0  0  0  0  0  0
   46.4950   35.3400   41.8690 H   0  0  0  0  0  0  0  0  0  0  0  0
  1 10  1  0  0  0  0
  2  1  1  0  0  0  0
  2 25  1  0  0  0  0
  3  2  2  0  0  0  0
  4  8  2  0  0  0  0
  4  3  1  0  0  0  0
  5  4  1  0  0  0  0
  6  5  1  0  0  0  0
  6  7  2  0  0  0  0
  7  8  1  0  0  0  0
  8  9  1  0  0  0  0
  9 15  1  0  0  0  0
  9  1  2  0  0  0  0
 11  3  1  0  0  0  0
 12  5  1  0  0  0  0
 13  6  1  0  0  0  0
 14  7  1  0  0  0  0
 15 22  1  0  0  0  0
 16 17  2  0  0  0  0
 16 15  1  0  0  0  0
 17 19  1  0  0  0  0
 18 17  1  0  0  0  0
 19 20  2  0  0  0  0
 19 21  1  0  0  0  0
 21 24  1  0  0  0  0
 22 21  1  0  0  0  0
 22 23  2  0  0  0  0
 25 27  1  0  0  0  0
 26 25  1  0  0  0  0
 28 25  1  0  0  0  0
 28 30  1  0  0  0  0
 28 29  1  0  0  0  0
 31 35  2  0  0  0  0
 32 31  1  0  0  0  0
 32 33  2  0  0  0  0
 33 37  1  0  0  0  0
 33 34  1  0  0  0  0
 34 28  1  0  0  0  0
 35 34  1  0  0  0  0
 36 32  1  0  0  0  0
 38 44  1  0  0  0  0
 38 43  1  0  0  0  0
 39 38  2  0  0  0  0
 40 39  1  0  0  0  0
 40 41  2  0  0  0  0
 41 42  1  0  0  0  0
 42 43  2  0  0  0  0
 42 31  1  0  0  0  0
 45 39  1  0  0  0  0
 46 40  1  0  0  0  0
M  END
>  <minimizedAffinity>
-5.47407389

>  <minimizedRMSD>
1.51944375

$$$$
