
 OpenBabel03242512203D

 42 45  0  0  0  0  0  0  0  0999 V2000
   48.4390   33.0980   41.5030 C   0  0  0  0  0  0  0  0  0  0  0  0
   47.9840   34.3120   41.9370 C   0  0  0  0  0  0  0  0  0  0  0  0
   48.8610   35.1820   42.5230 C   0  0  0  0  0  0  0  0  0  0  0  0
   50.1990   34.8190   42.6670 C   0  0  0  0  0  0  0  0  0  0  0  0
   50.6180   33.5830   42.2140 C   0  0  0  0  0  0  0  0  0  0  0  0
   49.7270   32.6880   41.6140 C   0  0  0  0  0  0  0  0  0  0  0  0
   48.4880   36.1470   42.8650 H   0  0  0  0  0  0  0  0  0  0  0  0
   50.8630   35.5200   43.1290 H   0  0  0  0  0  0  0  0  0  0  0  0
   51.6570   33.3290   42.3380 H   0  0  0  0  0  0  0  0  0  0  0  0
   46.5620   34.6100   41.7460 C   0  0  0  0  0  0  0  0  0  0  0  0
   46.0450   33.8860   41.1330 H   0  0  0  0  0  0  0  0  0  0  0  0
   46.5240   35.5790   41.1700 H   0  0  0  0  0  0  0  0  0  0  0  0
   45.8830   34.8590   43.0760 C   0  0  0  0  0  0  0  0  0  0  0  0
   45.9850   33.8590   44.0420 C   0  0  0  0  0  0  0  0  0  0  0  0
   45.3610   34.0990   45.2560 C   0  0  0  0  0  0  0  0  0  0  0  0
   44.7070   35.2580   45.4320 N   0  0  0  0  0  0  0  0  0  0  0  0
   44.6280   36.2140   44.4650 C   0  0  0  0  0  0  0  0  0  0  0  0
   45.2190   36.0010   43.2980 N   0  0  0  0  0  0  0  0  0  0  0  0
   46.5360   32.9420   43.8220 H   0  0  0  0  0  0  0  0  0  0  0  0
   45.4170   33.3470   46.0320 H   0  0  0  0  0  0  0  0  0  0  0  0
   44.0680   37.1080   44.7310 H   0  0  0  0  0  0  0  0  0  0  0  0
   47.6200   32.1370   40.8900 O   0  0  0  0  0  0  0  0  0  0  0  0
   47.5240   31.2320   41.3330 H   0  0  0  0  0  0  0  0  0  0  0  0
   50.2730   31.4750   41.2010 O   0  0  0  0  0  0  0  0  0  0  0  0
   50.8100   31.4910   39.9120 C   0  0  0  0  0  0  0  0  0  0  0  0
   52.1700   31.3610   39.7660 C   0  0  0  0  0  0  0  0  0  0  0  0
   52.7950   31.3650   38.5140 C   0  0  0  0  0  0  0  0  0  0  0  0
   52.0270   31.5020   37.4200 N   0  0  0  0  0  0  0  0  0  0  0  0
   50.7030   31.6290   37.5640 C   0  0  0  0  0  0  0  0  0  0  0  0
   50.1100   31.6250   38.7740 N   0  0  0  0  0  0  0  0  0  0  0  0
   52.7840   31.2490   40.6520 H   0  0  0  0  0  0  0  0  0  0  0  0
   53.8640   31.2570   38.4710 H   0  0  0  0  0  0  0  0  0  0  0  0
   49.7890   31.7820   36.4840 N   0  0  0  0  0  0  0  0  0  0  0  0
   49.7300   30.9040   35.4430 C   0  0  0  0  0  0  0  0  0  0  0  0
   48.8220   31.1040   34.4230 C   0  0  0  0  0  0  0  0  0  0  0  0
   48.8260   30.3700   33.6250 H   0  0  0  0  0  0  0  0  0  0  0  0
   47.9750   32.1930   34.4560 C   0  0  0  0  0  0  0  0  0  0  0  0
   47.1540   32.3550   33.5150 O   0  0  0  0  0  0  0  0  0  0  0  0
   48.0190   33.0770   35.4840 N   0  0  0  0  0  0  0  0  0  0  0  0
   48.9220   32.8100   36.4240 C   0  0  0  0  0  0  0  0  0  0  0  0
   48.9870   33.6230   37.3990 O   0  0  0  0  0  0  0  0  0  0  0  0
   47.4020   33.9020   35.5430 H   0  0  0  0  0  0  0  0  0  0  0  0
  1  6  2  0  0  0  0
  1  2  1  0  0  0  0
  2  3  2  0  0  0  0
  3  4  1  0  0  0  0
  3  7  1  0  0  0  0
  4  8  1  0  0  0  0
  5  9  1  0  0  0  0
  5  4  2  0  0  0  0
  6  5  1  0  0  0  0
 10  2  1  0  0  0  0
 10 13  1  0  0  0  0
 11 10  1  0  0  0  0
 12 10  1  0  0  0  0
 13 18  2  0  0  0  0
 13 14  1  0  0  0  0
 14 15  2  0  0  0  0
 15 16  1  0  0  0  0
 15 20  1  0  0  0  0
 17 21  1  0  0  0  0
 17 16  2  0  0  0  0
 18 17  1  0  0  0  0
 19 14  1  0  0  0  0
 22 23  1  0  0  0  0
 22  1  1  0  0  0  0
 24  6  1  0  0  0  0
 25 24  1  0  0  0  0
 26 25  1  0  0  0  0
 26 31  1  0  0  0  0
 27 26  2  0  0  0  0
 28 29  2  0  0  0  0
 28 27  1  0  0  0  0
 29 30  1  0  0  0  0
 30 25  2  0  0  0  0
 32 27  1  0  0  0  0
 33 29  1  0  0  0  0
 34 33  1  0  0  0  0
 35 37  1  0  0  0  0
 35 34  2  0  0  0  0
 36 35  1  0  0  0  0
 37 39  1  0  0  0  0
 38 37  2  0  0  0  0
 39 42  1  0  0  0  0
 39 40  1  0  0  0  0
 40 33  1  0  0  0  0
 40 41  2  0  0  0  0
M  END
>  <minimizedAffinity>
-6.91748238

>  <minimizedRMSD>
0.772485673

$$$$
