
 OpenBabel03252508453D

 46 48  0  0  0  0  0  0  0  0999 V2000
   42.5570   31.6420   42.5460 N   0  0  0  0  0  0  0  0  0  0  0  0
   43.0540   30.7270   42.6370 H   0  0  0  0  0  0  0  0  0  0  0  0
   43.0990   32.5480   41.5880 C   0  0  0  0  0  0  0  0  0  0  0  0
   43.7430   32.0000   40.8400 H   0  0  0  0  0  0  0  0  0  0  0  0
   42.2640   32.9860   41.0150 H   0  0  0  0  0  0  0  0  0  0  0  0
   43.6770   34.9700   41.8820 C   0  0  0  0  0  0  0  0  0  0  0  0
   43.9450   33.6320   42.1620 C   0  0  0  0  0  0  0  0  0  0  0  0
   45.0120   33.3340   42.9840 C   0  0  0  0  0  0  0  0  0  0  0  0
   45.7760   34.3470   43.5000 C   0  0  0  0  0  0  0  0  0  0  0  0
   45.5350   35.6670   43.2420 C   0  0  0  0  0  0  0  0  0  0  0  0
   44.4580   35.9150   42.4150 C   0  0  0  0  0  0  0  0  0  0  0  0
   45.2560   32.3090   43.2260 H   0  0  0  0  0  0  0  0  0  0  0  0
   46.6190   34.0960   44.1500 H   0  0  0  0  0  0  0  0  0  0  0  0
   46.1070   36.4990   43.6230 H   0  0  0  0  0  0  0  0  0  0  0  0
   44.1860   36.9400   42.1510 H   0  0  0  0  0  0  0  0  0  0  0  0
   40.2670   35.8280   40.5110 C   0  0  0  0  0  0  0  0  0  0  0  0
   41.2880   35.6100   41.4430 C   0  0  0  0  0  0  0  0  0  0  0  0
   42.5380   35.2250   41.0090 C   0  0  0  0  0  0  0  0  0  0  0  0
   42.6970   35.0800   39.6610 N   0  0  0  0  0  0  0  0  0  0  0  0
   41.7070   35.2940   38.7670 C   0  0  0  0  0  0  0  0  0  0  0  0
   40.4940   35.6680   39.2080 N   0  0  0  0  0  0  0  0  0  0  0  0
   39.2850   36.1310   40.8570 H   0  0  0  0  0  0  0  0  0  0  0  0
   41.1450   35.7280   42.4890 H   0  0  0  0  0  0  0  0  0  0  0  0
   42.0320   35.1250   37.7350 H   0  0  0  0  0  0  0  0  0  0  0  0
   40.8810   31.3570   42.3080 S   0  0  0  0  0  0  0  0  0  0  0  0
   40.0860   32.6290   42.4940 O   0  0  0  0  0  0  0  0  0  0  0  0
   39.3050   32.7500   43.0860 H   0  0  0  0  0  0  0  0  0  0  0  0
   40.3850   30.2960   43.2260 O   0  0  0  0  0  0  0  0  0  0  0  0
   40.9030   29.4510   43.4130 H   0  0  0  0  0  0  0  0  0  0  0  0
   40.6750   30.8350   40.7230 O   0  0  0  0  0  0  0  0  0  0  0  0
   40.0860   29.5750   40.7630 C   0  0  0  0  0  0  0  0  0  0  0  0
   39.0170   29.7120   40.4450 H   0  0  0  0  0  0  0  0  0  0  0  0
   40.1080   29.0800   41.7290 H   0  0  0  0  0  0  0  0  0  0  0  0
   40.7230   28.6980   39.6680 C   0  0  0  0  0  0  0  0  0  0  0  0
   41.8170   28.8700   39.6790 H   0  0  0  0  0  0  0  0  0  0  0  0
   40.5510   27.6400   39.8980 H   0  0  0  0  0  0  0  0  0  0  0  0
   40.1180   29.0370   38.3970 N   0  0  0  0  0  0  0  0  0  0  0  0
   38.7810   28.9090   38.2370 C   0  0  0  0  0  3  0  0  0  0  0  0
   38.2550   29.2480   36.9960 C   0  0  0  0  0  0  0  0  0  0  0  0
   37.1750   29.1640   36.8100 H   0  0  0  0  0  0  0  0  0  0  0  0
   39.1050   29.6910   36.0040 C   0  0  0  0  0  0  0  0  0  0  0  0
   38.6690   30.0130   34.8500 O   0  0  0  0  0  0  0  0  0  0  0  0
   40.4390   29.7990   36.2190 N   0  0  0  0  0  0  0  0  0  0  0  0
   40.9390   29.4700   37.4200 C   0  0  0  0  0  0  0  0  0  0  0  0
   42.1960   29.5710   37.6260 O   0  0  0  0  0  0  0  0  0  0  0  0
   41.1120   30.1300   35.4940 H   0  0  0  0  0  0  0  0  0  0  0  0
  1  2  1  0  0  0  0
  3  7  1  0  0  0  0
  3  1  1  0  0  0  0
  4  3  1  0  0  0  0
  5  3  1  0  0  0  0
  6  7  2  0  0  0  0
  6 11  1  0  0  0  0
  7  8  1  0  0  0  0
  8 12  1  0  0  0  0
  8  9  2  0  0  0  0
  9 13  1  0  0  0  0
 10  9  1  0  0  0  0
 10 14  1  0  0  0  0
 11 10  2  0  0  0  0
 15 11  1  0  0  0  0
 16 22  1  0  0  0  0
 16 17  1  0  0  0  0
 17 23  1  0  0  0  0
 18 17  2  0  0  0  0
 18  6  1  0  0  0  0
 19 18  1  0  0  0  0
 20 21  1  0  0  0  0
 20 19  2  0  0  0  0
 21 16  2  0  0  0  0
 24 20  1  0  0  0  0
 25 26  1  0  0  0  0
 25  1  1  0  0  0  0
 25 28  1  0  0  0  0
 26 27  1  0  0  0  0
 28 29  1  0  0  0  0
 30 31  1  0  0  0  0
 30 25  1  0  0  0  0
 31 33  1  0  0  0  0
 32 31  1  0  0  0  0
 34 35  1  0  0  0  0
 34 36  1  0  0  0  0
 34 31  1  0  0  0  0
 37 34  1  0  0  0  0
 38 37  1  0  0  0  0
 39 38  2  0  0  0  0
 40 39  1  0  0  0  0
 41 43  1  0  0  0  0
 41 39  1  0  0  0  0
 42 41  2  0  0  0  0
 43 44  1  0  0  0  0
 44 45  2  0  0  0  0
 44 37  1  0  0  0  0
 46 43  1  0  0  0  0
M  END
>  <minimizedAffinity>
-5.04590416

>  <minimizedRMSD>
1.59309864

$$$$
