
 OpenBabel03252507073D

 25 26  0  0  0  0  0  0  0  0999 V2000
   44.6060   35.6750   44.6960 C   0  0  0  0  0  0  0  0  0  0  0  0
   45.2420   35.8280   43.4330 C   0  0  0  0  0  0  0  0  0  0  0  0
   46.1930   34.8800   43.0740 C   0  0  0  0  0  0  0  0  0  0  0  0
   46.4690   33.8560   43.9420 N   0  0  0  0  0  0  0  0  0  0  0  0
   45.8380   33.7480   45.1360 C   0  0  0  0  0  0  0  0  0  0  0  0
   44.9120   34.6520   45.5100 N   0  0  0  0  0  0  0  0  0  0  0  0
   43.8660   36.3900   45.0050 H   0  0  0  0  0  0  0  0  0  0  0  0
   44.9540   36.6780   42.8150 H   0  0  0  0  0  0  0  0  0  0  0  0
   46.3020   32.6040   45.8440 N   0  0  0  0  0  0  0  0  0  0  0  0
   47.0330   32.8270   46.9540 C   0  0  0  0  0  3  0  0  0  0  0  0
   47.4950   31.7090   47.6610 C   0  0  0  0  0  0  0  0  0  0  0  0
   48.0810   31.8710   48.5480 H   0  0  0  0  0  0  0  0  0  0  0  0
   47.1730   30.4590   47.1760 C   0  0  0  0  0  0  0  0  0  0  0  0
   47.5870   29.4470   47.8100 O   0  0  0  0  0  0  0  0  0  0  0  0
   46.4380   30.2830   46.0620 N   0  0  0  0  0  0  0  0  0  0  0  0
   46.0010   31.3730   45.3920 C   0  0  0  0  0  0  0  0  0  0  0  0
   45.3180   31.1640   44.3570 O   0  0  0  0  0  0  0  0  0  0  0  0
   46.2260   29.3020   45.7440 H   0  0  0  0  0  0  0  0  0  0  0  0
   46.8160   35.0250   41.8440 O   0  0  0  0  0  0  0  0  0  0  0  0
   48.7320   33.3640   41.0660 O   0  0  0  0  0  0  0  0  0  0  0  0
   48.5030   34.7320   41.7160 P   0  0  0  0  0  0  0  0  0  0  0  0
   49.1900   35.9640   40.8290 O   0  0  0  0  0  0  0  0  0  0  0  0
   49.0890   35.7280   39.8710 H   0  0  0  0  0  0  0  0  0  0  0  0
   49.1190   34.6470   43.2940 O   0  0  0  0  0  0  0  0  0  0  0  0
   49.2110   35.5850   43.6060 H   0  0  0  0  0  0  0  0  0  0  0  0
  1  7  1  0  0  0  0
  1  6  1  0  0  0  0
  2  1  2  0  0  0  0
  3  2  1  0  0  0  0
  3  4  2  0  0  0  0
  4  5  1  0  0  0  0
  5  6  2  0  0  0  0
  5  9  1  0  0  0  0
  8  2  1  0  0  0  0
  9 10  1  0  0  0  0
 10 11  2  0  0  0  0
 11 12  1  0  0  0  0
 13 11  1  0  0  0  0
 13 14  2  0  0  0  0
 15 13  1  0  0  0  0
 16  9  1  0  0  0  0
 16 15  1  0  0  0  0
 17 16  2  0  0  0  0
 18 15  1  0  0  0  0
 19  3  1  0  0  0  0
 20 21  2  0  0  0  0
 21 19  1  0  0  0  0
 21 24  1  0  0  0  0
 22 21  1  0  0  0  0
 23 22  1  0  0  0  0
 24 25  1  0  0  0  0
M  END
>  <minimizedAffinity>
-5.82946825

>  <minimizedRMSD>
0.367874503

$$$$
