
 OpenBabel03242519423D

 30 31  0  0  0  0  0  0  0  0999 V2000
   48.0170   32.8440   41.7950 O   0  0  0  0  0  0  0  0  0  0  0  0
   47.1770   34.0400   41.3380 P   0  0  2  0  0  0  0  0  0  0  0  0
   45.5880   33.8840   41.9700 O   0  0  0  0  0  0  0  0  0  0  0  0
   44.3710   35.9410   44.6660 C   0  0  0  0  0  0  0  0  0  0  0  0
   44.6660   35.5010   43.3570 C   0  0  0  0  0  0  0  0  0  0  0  0
   45.3090   34.2720   43.2370 C   0  0  0  0  0  0  0  0  0  0  0  0
   45.6120   33.5680   44.3470 N   0  0  0  0  0  0  0  0  0  0  0  0
   45.3150   34.0180   45.5800 C   0  0  0  0  0  0  0  0  0  0  0  0
   44.6970   35.2010   45.7440 N   0  0  0  0  0  0  0  0  0  0  0  0
   43.8730   36.8910   44.8040 H   0  0  0  0  0  0  0  0  0  0  0  0
   44.3650   36.1630   42.5610 H   0  0  0  0  0  0  0  0  0  0  0  0
   45.6050   33.3730   46.3940 H   0  0  0  0  0  0  0  0  0  0  0  0
   46.9500   34.0950   39.6900 O   0  0  0  0  0  0  0  0  0  0  0  0
   46.2510   33.2820   38.8880 C   0  0  0  0  0  0  0  0  0  0  0  0
   46.7280   33.2990   37.6180 O   0  0  0  0  0  0  0  0  0  0  0  0
   44.5280   29.1660   37.9670 H   0  0  0  0  0  0  0  0  0  0  0  0
   44.3010   30.1950   38.0840 N   0  0  0  0  0  0  0  0  0  0  0  0
   45.3280   30.9930   38.3700 C   0  0  0  0  0  3  0  0  0  0  0  0
   45.2210   32.3240   38.5530 C   0  0  0  0  0  0  0  0  0  0  0  0
   43.8550   32.6700   38.3820 C   0  0  0  0  0  0  0  0  0  0  0  0
   43.5460   33.9220   38.5230 O   0  0  0  0  0  0  0  0  0  0  0  0
   42.7510   31.9880   38.1000 N   0  0  0  0  0  0  0  0  0  0  0  0
   43.0880   30.7170   37.9640 C   0  0  0  0  0  0  0  0  0  0  0  0
   42.2000   29.8550   37.6910 O   0  0  0  0  0  0  0  0  0  0  0  0
   41.7960   32.3740   38.0020 H   0  0  0  0  0  0  0  0  0  0  0  0
   47.8010   35.4230   41.9950 O   0  0  0  0  0  0  0  0  0  0  0  0
   49.0290   35.7240   41.4320 C   0  0  0  0  0  0  0  0  0  0  0  0
   49.4460   37.0090   41.7560 F   0  0  0  0  0  0  0  0  0  0  0  0
   49.9510   34.7830   41.7710 F   0  0  0  0  0  0  0  0  0  0  0  0
   48.8480   35.7030   40.0600 F   0  0  0  0  0  0  0  0  0  0  0  0
  2  1  2  1  0  0  0
  2  3  1  0  0  0  0
  2 26  1  0  0  0  0
  3  6  1  0  0  0  0
  4 10  1  0  0  0  0
  4  9  1  0  0  0  0
  5  4  2  0  0  0  0
  6  5  1  0  0  0  0
  6  7  2  0  0  0  0
  7  8  1  0  0  0  0
  8  9  2  0  0  0  0
  8 12  1  0  0  0  0
 11  5  1  0  0  0  0
 13  2  1  0  0  0  0
 14 13  1  0  0  0  0
 15 14  2  0  0  0  0
 16 17  1  0  0  0  0
 17 18  1  0  0  0  0
 18 19  2  0  0  0  0
 19 14  1  0  0  0  0
 20 21  2  0  0  0  0
 20 19  1  0  0  0  0
 22 20  1  0  0  0  0
 23 17  1  0  0  0  0
 23 22  1  0  0  0  0
 24 23  2  0  0  0  0
 25 22  1  0  0  0  0
 27 28  1  0  0  0  0
 27 29  1  0  0  0  0
 27 26  1  0  0  0  0
 30 27  1  0  0  0  0
M  END
>  <minimizedAffinity>
-5.15278292

>  <minimizedRMSD>
0.86599648

$$$$
