
 OpenBabel03252506583D

 39 43  0  0  0  0  0  0  0  0999 V2000
   36.8390   25.5420   40.6420 C   0  0  0  0  0  0  0  0  0  0  0  0
   37.2280   24.2200   40.8400 C   0  0  0  0  0  0  0  0  0  0  0  0
   38.1990   23.8620   41.7530 C   0  0  0  0  0  0  0  0  0  0  0  0
   38.8320   24.8360   42.5230 C   0  0  0  0  0  0  0  0  0  0  0  0
   39.7970   24.8430   43.4820 N   0  0  0  0  0  0  0  0  0  0  0  0
   39.9980   26.1360   43.8650 C   0  0  0  0  0  0  0  0  0  0  0  0
   39.1550   26.8990   43.1370 N   0  0  0  0  0  0  0  0  0  0  0  0
   38.4330   26.1340   42.3100 C   0  0  0  0  0  0  0  0  0  0  0  0
   37.4800   26.5260   41.4190 C   0  0  0  0  0  0  0  0  0  0  0  0
   36.0760   25.8280   39.9240 H   0  0  0  0  0  0  0  0  0  0  0  0
   38.4960   22.8200   41.9020 H   0  0  0  0  0  0  0  0  0  0  0  0
   40.2770   23.9960   43.8390 H   0  0  0  0  0  0  0  0  0  0  0  0
   40.7080   26.4470   44.6160 H   0  0  0  0  0  0  0  0  0  0  0  0
   36.7130   21.1130   38.9380 C   0  0  0  0  0  0  0  0  0  0  0  0
   35.3680   21.2110   38.5760 C   0  0  0  0  0  0  0  0  0  0  0  0
   34.6410   22.3370   38.9810 C   0  0  0  0  0  0  0  0  0  0  0  0
   35.2900   23.2990   39.7220 N   0  0  0  0  0  0  0  0  0  0  0  0
   36.5860   23.1730   40.0530 C   0  0  0  0  0  0  0  0  0  0  0  0
   37.3090   22.0920   39.6710 N   0  0  0  0  0  0  0  0  0  0  0  0
   37.2720   20.2430   38.6230 H   0  0  0  0  0  0  0  0  0  0  0  0
   34.8420   20.4660   37.9940 H   0  0  0  0  0  0  0  0  0  0  0  0
   33.6090   22.5230   38.7660 H   0  0  0  0  0  0  0  0  0  0  0  0
   37.1190   27.9420   41.2620 C   0  0  0  0  0  0  0  0  0  0  0  0
   35.8280   28.4250   41.2530 C   0  0  0  0  0  0  0  0  0  0  0  0
   35.9840   29.7960   41.0810 C   0  0  0  0  0  0  0  0  0  0  0  0
   37.3300   30.0720   40.9960 C   0  0  0  0  0  0  0  0  0  0  0  0
   37.9610   28.9210   41.1100 O   0  0  0  0  0  0  0  0  0  0  0  0
   34.8950   27.8730   41.3560 H   0  0  0  0  0  0  0  0  0  0  0  0
   35.1770   30.5160   41.0240 H   0  0  0  0  0  0  0  0  0  0  0  0
   37.9790   31.3260   40.8190 N   0  0  0  0  0  0  0  0  0  0  0  0
   37.4580   32.2530   39.9960 C   0  0  0  0  0  3  0  0  0  0  0  0
   38.0420   33.4960   39.7800 C   0  0  0  0  0  0  0  0  0  0  0  0
   37.5510   34.1650   39.1050 H   0  0  0  0  0  0  0  0  0  0  0  0
   39.2180   33.7910   40.4480 C   0  0  0  0  0  0  0  0  0  0  0  0
   39.7670   34.9110   40.2700 O   0  0  0  0  0  0  0  0  0  0  0  0
   39.7450   32.8480   41.2840 N   0  0  0  0  0  0  0  0  0  0  0  0
   39.1160   31.6690   41.4370 C   0  0  0  0  0  0  0  0  0  0  0  0
   39.6610   30.8680   42.2140 O   0  0  0  0  0  0  0  0  0  0  0  0
   40.6380   33.0850   41.7850 H   0  0  0  0  0  0  0  0  0  0  0  0
  1  2  2  0  0  0  0
  1  9  1  0  0  0  0
  2  3  1  0  0  0  0
  3 11  1  0  0  0  0
  3  4  2  0  0  0  0
  4  5  1  0  0  0  0
  5 12  1  0  0  0  0
  5  6  1  0  0  0  0
  6 13  1  0  0  0  0
  7  6  2  0  0  0  0
  8  4  1  0  0  0  0
  8  7  1  0  0  0  0
  9  8  2  0  0  0  0
 10  1  1  0  0  0  0
 14 19  1  0  0  0  0
 15 14  2  0  0  0  0
 15 16  1  0  0  0  0
 16 17  2  0  0  0  0
 17 18  1  0  0  0  0
 18  2  1  0  0  0  0
 19 18  2  0  0  0  0
 20 14  1  0  0  0  0
 21 15  1  0  0  0  0
 22 16  1  0  0  0  0
 23  9  1  0  0  0  0
 24 23  2  0  0  0  0
 24 28  1  0  0  0  0
 25 24  1  0  0  0  0
 26 25  2  0  0  0  0
 26 27  1  0  0  0  0
 27 23  1  0  0  0  0
 29 25  1  0  0  0  0
 30 26  1  0  0  0  0
 30 37  1  0  0  0  0
 31 30  1  0  0  0  0
 32 31  2  0  0  0  0
 32 34  1  0  0  0  0
 33 32  1  0  0  0  0
 34 36  1  0  0  0  0
 35 34  2  0  0  0  0
 36 37  1  0  0  0  0
 36 39  1  0  0  0  0
 37 38  2  0  0  0  0
M  END
>  <minimizedAffinity>
-6.86496305

$$$$

 OpenBabel03252506583D

 39 43  0  0  0  0  0  0  0  0999 V2000
   36.4820   30.5740   38.6580 C   0  0  0  0  0  0  0  0  0  0  0  0
   35.6300   29.4750   38.7050 C   0  0  0  0  0  0  0  0  0  0  0  0
   35.5330   28.6590   39.8130 C   0  0  0  0  0  0  0  0  0  0  0  0
   36.3040   28.9180   40.9450 C   0  0  0  0  0  0  0  0  0  0  0  0
   36.4590   28.3440   42.1690 N   0  0  0  0  0  0  0  0  0  0  0  0
   37.3840   29.0710   42.8590 C   0  0  0  0  0  0  0  0  0  0  0  0
   37.7790   30.0760   42.0480 N   0  0  0  0  0  0  0  0  0  0  0  0
   37.1390   30.0070   40.8760 C   0  0  0  0  0  0  0  0  0  0  0  0
   37.2620   30.8350   39.8010 C   0  0  0  0  0  0  0  0  0  0  0  0
   36.5610   31.2180   37.7870 H   0  0  0  0  0  0  0  0  0  0  0  0
   34.8590   27.7980   39.8400 H   0  0  0  0  0  0  0  0  0  0  0  0
   35.9480   27.5020   42.4920 H   0  0  0  0  0  0  0  0  0  0  0  0
   37.7090   28.8500   43.8640 H   0  0  0  0  0  0  0  0  0  0  0  0
   32.7220   28.6030   36.6250 C   0  0  0  0  0  0  0  0  0  0  0  0
   33.2690   28.6080   35.3410 C   0  0  0  0  0  0  0  0  0  0  0  0
   34.6280   28.9080   35.1870 C   0  0  0  0  0  0  0  0  0  0  0  0
   35.3640   29.1860   36.3170 N   0  0  0  0  0  0  0  0  0  0  0  0
   34.8060   29.1730   37.5390 C   0  0  0  0  0  0  0  0  0  0  0  0
   33.4930   28.8850   37.7100 N   0  0  0  0  0  0  0  0  0  0  0  0
   31.6720   28.3700   36.7410 H   0  0  0  0  0  0  0  0  0  0  0  0
   32.7060   28.3910   34.4430 H   0  0  0  0  0  0  0  0  0  0  0  0
   35.1580   28.9430   34.2570 H   0  0  0  0  0  0  0  0  0  0  0  0
   38.1840   31.9790   39.8200 C   0  0  0  0  0  0  0  0  0  0  0  0
   37.8410   33.2560   40.2110 C   0  0  0  0  0  0  0  0  0  0  0  0
   39.0190   33.9800   40.0640 C   0  0  0  0  0  0  0  0  0  0  0  0
   39.9960   33.1280   39.6000 C   0  0  0  0  0  0  0  0  0  0  0  0
   39.4360   31.9420   39.4720 O   0  0  0  0  0  0  0  0  0  0  0  0
   36.8770   33.6240   40.5580 H   0  0  0  0  0  0  0  0  0  0  0  0
   39.1370   35.0340   40.2780 H   0  0  0  0  0  0  0  0  0  0  0  0
   41.3580   33.4060   39.2970 N   0  0  0  0  0  0  0  0  0  0  0  0
   41.7080   33.8510   38.0780 C   0  0  0  0  0  3  0  0  0  0  0  0
   43.0200   34.1410   37.7180 C   0  0  0  0  0  0  0  0  0  0  0  0
   43.1970   34.4900   36.7220 H   0  0  0  0  0  0  0  0  0  0  0  0
   44.0120   33.9630   38.6670 C   0  0  0  0  0  0  0  0  0  0  0  0
   45.2090   34.2200   38.3670 O   0  0  0  0  0  0  0  0  0  0  0  0
   43.6550   33.5110   39.9050 N   0  0  0  0  0  0  0  0  0  0  0  0
   42.3610   33.2540   40.1710 C   0  0  0  0  0  0  0  0  0  0  0  0
   42.1210   32.8460   41.3200 O   0  0  0  0  0  0  0  0  0  0  0  0
   44.4170   33.3800   40.6160 H   0  0  0  0  0  0  0  0  0  0  0  0
  1  2  2  0  0  0  0
  1  9  1  0  0  0  0
  2  3  1  0  0  0  0
  3 11  1  0  0  0  0
  3  4  2  0  0  0  0
  4  5  1  0  0  0  0
  5 12  1  0  0  0  0
  5  6  1  0  0  0  0
  6 13  1  0  0  0  0
  7  6  2  0  0  0  0
  8  4  1  0  0  0  0
  8  7  1  0  0  0  0
  9 23  1  0  0  0  0
  9  8  2  0  0  0  0
 10  1  1  0  0  0  0
 14 20  1  0  0  0  0
 14 19  1  0  0  0  0
 15 14  2  0  0  0  0
 16 15  1  0  0  0  0
 16 17  2  0  0  0  0
 17 18  1  0  0  0  0
 18 19  2  0  0  0  0
 18  2  1  0  0  0  0
 21 15  1  0  0  0  0
 22 16  1  0  0  0  0
 23 24  2  0  0  0  0
 24 28  1  0  0  0  0
 25 24  1  0  0  0  0
 25 29  1  0  0  0  0
 26 25  2  0  0  0  0
 27 26  1  0  0  0  0
 27 23  1  0  0  0  0
 30 26  1  0  0  0  0
 30 37  1  0  0  0  0
 31 30  1  0  0  0  0
 32 31  2  0  0  0  0
 32 34  1  0  0  0  0
 33 32  1  0  0  0  0
 34 36  1  0  0  0  0
 35 34  2  0  0  0  0
 36 37  1  0  0  0  0
 36 39  1  0  0  0  0
 37 38  2  0  0  0  0
M  END
>  <minimizedAffinity>
-6.54627085

$$$$

 OpenBabel03252506583D

 39 43  0  0  0  0  0  0  0  0999 V2000
   37.1650   26.7310   39.9370 C   0  0  0  0  0  0  0  0  0  0  0  0
   36.9880   25.6240   40.7610 C   0  0  0  0  0  0  0  0  0  0  0  0
   36.9610   25.7210   42.1380 C   0  0  0  0  0  0  0  0  0  0  0  0
   37.1120   26.9600   42.7570 C   0  0  0  0  0  0  0  0  0  0  0  0
   37.1360   27.4100   44.0410 N   0  0  0  0  0  0  0  0  0  0  0  0
   37.3240   28.7600   44.0090 C   0  0  0  0  0  0  0  0  0  0  0  0
   37.4110   29.1150   42.7090 N   0  0  0  0  0  0  0  0  0  0  0  0
   37.2860   28.0390   41.9240 C   0  0  0  0  0  0  0  0  0  0  0  0
   37.3200   27.9830   40.5630 C   0  0  0  0  0  0  0  0  0  0  0  0
   37.1880   26.6580   38.8540 H   0  0  0  0  0  0  0  0  0  0  0  0
   36.8200   24.8440   42.7760 H   0  0  0  0  0  0  0  0  0  0  0  0
   37.0280   26.8070   44.8770 H   0  0  0  0  0  0  0  0  0  0  0  0
   37.3840   29.3890   44.8840 H   0  0  0  0  0  0  0  0  0  0  0  0
   37.5360   22.0870   39.9050 C   0  0  0  0  0  0  0  0  0  0  0  0
   36.5070   21.8450   38.9920 C   0  0  0  0  0  0  0  0  0  0  0  0
   35.6300   22.8880   38.6710 C   0  0  0  0  0  0  0  0  0  0  0  0
   35.8250   24.1100   39.2750 N   0  0  0  0  0  0  0  0  0  0  0  0
   36.8250   24.3090   40.1490 C   0  0  0  0  0  0  0  0  0  0  0  0
   37.6860   23.3140   40.4740 N   0  0  0  0  0  0  0  0  0  0  0  0
   38.2120   21.2800   40.1500 H   0  0  0  0  0  0  0  0  0  0  0  0
   36.3400   20.8920   38.5080 H   0  0  0  0  0  0  0  0  0  0  0  0
   34.8070   22.8230   37.9890 H   0  0  0  0  0  0  0  0  0  0  0  0
   37.5110   29.1940   39.7540 C   0  0  0  0  0  0  0  0  0  0  0  0
   36.5640   29.7280   38.9050 C   0  0  0  0  0  0  0  0  0  0  0  0
   37.1880   30.8500   38.3690 C   0  0  0  0  0  0  0  0  0  0  0  0
   38.4530   30.9390   38.9050 C   0  0  0  0  0  0  0  0  0  0  0  0
   38.5900   29.9190   39.7280 O   0  0  0  0  0  0  0  0  0  0  0  0
   35.5590   29.3660   38.6960 H   0  0  0  0  0  0  0  0  0  0  0  0
   36.7450   31.5290   37.6520 H   0  0  0  0  0  0  0  0  0  0  0  0
   39.4620   31.9120   38.6620 N   0  0  0  0  0  0  0  0  0  0  0  0
   40.3600   31.7320   37.6780 C   0  0  0  0  0  3  0  0  0  0  0  0
   41.3700   32.6430   37.3900 C   0  0  0  0  0  0  0  0  0  0  0  0
   42.0370   32.4080   36.5870 H   0  0  0  0  0  0  0  0  0  0  0  0
   41.4500   33.7940   38.1550 C   0  0  0  0  0  0  0  0  0  0  0  0
   42.3560   34.6360   37.9130 O   0  0  0  0  0  0  0  0  0  0  0  0
   40.5360   33.9760   39.1530 N   0  0  0  0  0  0  0  0  0  0  0  0
   39.5910   33.0440   39.3670 C   0  0  0  0  0  0  0  0  0  0  0  0
   38.7990   33.2850   40.2940 O   0  0  0  0  0  0  0  0  0  0  0  0
   40.6080   34.8540   39.7270 H   0  0  0  0  0  0  0  0  0  0  0  0
  1  9  2  0  0  0  0
  1  2  1  0  0  0  0
  2  3  2  0  0  0  0
  3  4  1  0  0  0  0
  3 11  1  0  0  0  0
  4  5  1  0  0  0  0
  5 12  1  0  0  0  0
  6  5  1  0  0  0  0
  6 13  1  0  0  0  0
  7  6  2  0  0  0  0
  8  7  1  0  0  0  0
  8  4  2  0  0  0  0
  9  8  1  0  0  0  0
 10  1  1  0  0  0  0
 14 20  1  0  0  0  0
 14 19  1  0  0  0  0
 15 14  2  0  0  0  0
 16 15  1  0  0  0  0
 16 17  2  0  0  0  0
 17 18  1  0  0  0  0
 18 19  2  0  0  0  0
 18  2  1  0  0  0  0
 21 15  1  0  0  0  0
 22 16  1  0  0  0  0
 23  9  1  0  0  0  0
 24 23  2  0  0  0  0
 25 24  1  0  0  0  0
 25 26  2  0  0  0  0
 26 27  1  0  0  0  0
 27 23  1  0  0  0  0
 28 24  1  0  0  0  0
 29 25  1  0  0  0  0
 30 26  1  0  0  0  0
 30 37  1  0  0  0  0
 31 30  1  0  0  0  0
 32 31  2  0  0  0  0
 32 34  1  0  0  0  0
 33 32  1  0  0  0  0
 34 36  1  0  0  0  0
 35 34  2  0  0  0  0
 36 37  1  0  0  0  0
 36 39  1  0  0  0  0
 37 38  2  0  0  0  0
M  END
>  <minimizedAffinity>
-6.3846221

$$$$

 OpenBabel03252506583D

 39 43  0  0  0  0  0  0  0  0999 V2000
   36.7310   25.5220   40.2710 C   0  0  0  0  0  0  0  0  0  0  0  0
   36.9150   24.1450   40.3480 C   0  0  0  0  0  0  0  0  0  0  0  0
   37.7930   23.5630   41.2400 C   0  0  0  0  0  0  0  0  0  0  0  0
   38.5380   24.3560   42.1100 C   0  0  0  0  0  0  0  0  0  0  0  0
   39.4630   24.1300   43.0820 N   0  0  0  0  0  0  0  0  0  0  0  0
   39.8400   25.3380   43.5910 C   0  0  0  0  0  0  0  0  0  0  0  0
   39.1410   26.2820   42.9240 N   0  0  0  0  0  0  0  0  0  0  0  0
   38.3410   25.7130   42.0160 C   0  0  0  0  0  0  0  0  0  0  0  0
   37.4850   26.3240   41.1500 C   0  0  0  0  0  0  0  0  0  0  0  0
   36.0410   25.9840   39.5710 H   0  0  0  0  0  0  0  0  0  0  0  0
   37.9290   22.4790   41.2920 H   0  0  0  0  0  0  0  0  0  0  0  0
   39.8010   23.1920   43.3640 H   0  0  0  0  0  0  0  0  0  0  0  0
   40.5640   25.4680   44.3810 H   0  0  0  0  0  0  0  0  0  0  0  0
   35.8080   21.1780   38.4730 C   0  0  0  0  0  0  0  0  0  0  0  0
   34.7070   21.6720   37.7700 C   0  0  0  0  0  0  0  0  0  0  0  0
   34.3450   23.0140   37.9360 C   0  0  0  0  0  0  0  0  0  0  0  0
   35.0970   23.7880   38.7910 N   0  0  0  0  0  0  0  0  0  0  0  0
   36.1510   23.2820   39.4530 C   0  0  0  0  0  0  0  0  0  0  0  0
   36.5180   21.9860   39.3070 N   0  0  0  0  0  0  0  0  0  0  0  0
   36.0840   20.1420   38.3420 H   0  0  0  0  0  0  0  0  0  0  0  0
   34.1060   21.0780   37.0940 H   0  0  0  0  0  0  0  0  0  0  0  0
   33.5250   23.5030   37.4530 H   0  0  0  0  0  0  0  0  0  0  0  0
   37.3410   27.7860   41.1230 C   0  0  0  0  0  0  0  0  0  0  0  0
   36.2490   28.4760   41.6080 C   0  0  0  0  0  0  0  0  0  0  0  0
   36.5610   29.8090   41.3680 C   0  0  0  0  0  0  0  0  0  0  0  0
   37.7970   29.8630   40.7630 C   0  0  0  0  0  0  0  0  0  0  0  0
   38.2150   28.6190   40.6420 O   0  0  0  0  0  0  0  0  0  0  0  0
   35.3480   28.0800   42.0720 H   0  0  0  0  0  0  0  0  0  0  0  0
   35.9320   30.6540   41.6160 H   0  0  0  0  0  0  0  0  0  0  0  0
   38.5340   31.0000   40.3290 N   0  0  0  0  0  0  0  0  0  0  0  0
   39.5630   31.4650   41.0590 C   0  0  0  0  0  3  0  0  0  0  0  0
   40.3220   32.5700   40.6910 C   0  0  0  0  0  0  0  0  0  0  0  0
   41.1200   32.8630   41.3400 H   0  0  0  0  0  0  0  0  0  0  0  0
   40.0000   33.2210   39.5120 C   0  0  0  0  0  0  0  0  0  0  0  0
   40.6730   34.2250   39.1560 O   0  0  0  0  0  0  0  0  0  0  0  0
   38.9550   32.7470   38.7720 N   0  0  0  0  0  0  0  0  0  0  0  0
   38.2710   31.6710   39.2000 C   0  0  0  0  0  0  0  0  0  0  0  0
   37.3360   31.3040   38.4690 O   0  0  0  0  0  0  0  0  0  0  0  0
   38.7210   33.2500   37.8790 H   0  0  0  0  0  0  0  0  0  0  0  0
  1  2  2  0  0  0  0
  1  9  1  0  0  0  0
  2  3  1  0  0  0  0
  3 11  1  0  0  0  0
  3  4  2  0  0  0  0
  4  5  1  0  0  0  0
  5 12  1  0  0  0  0
  5  6  1  0  0  0  0
  6 13  1  0  0  0  0
  7  6  2  0  0  0  0
  8  4  1  0  0  0  0
  8  7  1  0  0  0  0
  9  8  2  0  0  0  0
 10  1  1  0  0  0  0
 14 19  1  0  0  0  0
 15 16  1  0  0  0  0
 15 14  2  0  0  0  0
 16 17  2  0  0  0  0
 17 18  1  0  0  0  0
 18  2  1  0  0  0  0
 19 18  2  0  0  0  0
 20 14  1  0  0  0  0
 21 15  1  0  0  0  0
 22 16  1  0  0  0  0
 23  9  1  0  0  0  0
 23 24  2  0  0  0  0
 24 28  1  0  0  0  0
 25 24  1  0  0  0  0
 25 29  1  0  0  0  0
 26 25  2  0  0  0  0
 27 26  1  0  0  0  0
 27 23  1  0  0  0  0
 30 26  1  0  0  0  0
 30 31  1  0  0  0  0
 32 31  2  0  0  0  0
 32 33  1  0  0  0  0
 34 32  1  0  0  0  0
 35 34  2  0  0  0  0
 36 37  1  0  0  0  0
 36 34  1  0  0  0  0
 37 30  1  0  0  0  0
 38 37  2  0  0  0  0
 39 36  1  0  0  0  0
M  END
>  <minimizedAffinity>
-6.3202529

$$$$

 OpenBabel03252506583D

 39 43  0  0  0  0  0  0  0  0999 V2000
   39.7210   31.0040   40.6390 C   0  0  0  0  0  0  0  0  0  0  0  0
   40.2750   32.1060   39.9940 C   0  0  0  0  0  0  0  0  0  0  0  0
   39.8680   32.5130   38.7400 C   0  0  0  0  0  0  0  0  0  0  0  0
   38.8670   31.8160   38.0670 C   0  0  0  0  0  0  0  0  0  0  0  0
   38.2420   31.9310   36.8640 N   0  0  0  0  0  0  0  0  0  0  0  0
   37.3260   30.9250   36.7690 C   0  0  0  0  0  0  0  0  0  0  0  0
   37.4040   30.2120   37.9130 N   0  0  0  0  0  0  0  0  0  0  0  0
   38.3350   30.7310   38.7220 C   0  0  0  0  0  0  0  0  0  0  0  0
   38.7100   30.2990   39.9580 C   0  0  0  0  0  0  0  0  0  0  0  0
   40.0390   30.6800   41.6260 H   0  0  0  0  0  0  0  0  0  0  0  0
   40.3100   33.3810   38.2430 H   0  0  0  0  0  0  0  0  0  0  0  0
   38.4480   32.6670   36.1630 H   0  0  0  0  0  0  0  0  0  0  0  0
   36.6780   30.7670   35.9200 H   0  0  0  0  0  0  0  0  0  0  0  0
   42.3690   34.9110   41.1290 C   0  0  0  0  0  0  0  0  0  0  0  0
   43.3040   34.2670   41.9420 C   0  0  0  0  0  0  0  0  0  0  0  0
   43.2190   32.8790   42.1010 C   0  0  0  0  0  0  0  0  0  0  0  0
   42.2100   32.2100   41.4440 N   0  0  0  0  0  0  0  0  0  0  0  0
   41.3260   32.8610   40.6690 C   0  0  0  0  0  0  0  0  0  0  0  0
   41.3910   34.2040   40.5010 N   0  0  0  0  0  0  0  0  0  0  0  0
   42.4390   35.9830   41.0080 H   0  0  0  0  0  0  0  0  0  0  0  0
   44.1030   34.7770   42.4650 H   0  0  0  0  0  0  0  0  0  0  0  0
   43.8750   32.2780   42.6960 H   0  0  0  0  0  0  0  0  0  0  0  0
   38.0810   29.1260   40.5800 C   0  0  0  0  0  0  0  0  0  0  0  0
   37.1490   29.1800   41.5950 C   0  0  0  0  0  0  0  0  0  0  0  0
   36.8510   27.8460   41.8490 C   0  0  0  0  0  0  0  0  0  0  0  0
   37.5990   27.0650   40.9970 C   0  0  0  0  0  0  0  0  0  0  0  0
   38.3170   27.8880   40.2590 O   0  0  0  0  0  0  0  0  0  0  0  0
   36.7350   30.0570   42.0890 H   0  0  0  0  0  0  0  0  0  0  0  0
   36.1500   27.4930   42.5930 H   0  0  0  0  0  0  0  0  0  0  0  0
   37.6370   25.6470   40.8820 N   0  0  0  0  0  0  0  0  0  0  0  0
   36.9500   25.0230   39.9090 C   0  0  0  0  0  3  0  0  0  0  0  0
   36.9460   23.6430   39.7430 C   0  0  0  0  0  0  0  0  0  0  0  0
   36.3660   23.2410   38.9380 H   0  0  0  0  0  0  0  0  0  0  0  0
   37.6890   22.8760   40.6240 C   0  0  0  0  0  0  0  0  0  0  0  0
   37.7020   21.6220   40.4940 O   0  0  0  0  0  0  0  0  0  0  0  0
   38.3870   23.5120   41.6100 N   0  0  0  0  0  0  0  0  0  0  0  0
   38.3370   24.8530   41.7020 C   0  0  0  0  0  0  0  0  0  0  0  0
   38.9990   25.3520   42.6270 O   0  0  0  0  0  0  0  0  0  0  0  0
   38.9470   22.9180   42.2730 H   0  0  0  0  0  0  0  0  0  0  0  0
  1 10  1  0  0  0  0
  2  1  1  0  0  0  0
  2 18  1  0  0  0  0
  3  2  2  0  0  0  0
  4  8  2  0  0  0  0
  4  3  1  0  0  0  0
  5  4  1  0  0  0  0
  6  5  1  0  0  0  0
  6  7  2  0  0  0  0
  7  8  1  0  0  0  0
  8  9  1  0  0  0  0
  9 23  1  0  0  0  0
  9  1  2  0  0  0  0
 11  3  1  0  0  0  0
 12  5  1  0  0  0  0
 13  6  1  0  0  0  0
 14 15  1  0  0  0  0
 15 16  2  0  0  0  0
 15 21  1  0  0  0  0
 16 22  1  0  0  0  0
 17 16  1  0  0  0  0
 18 17  2  0  0  0  0
 19 18  1  0  0  0  0
 19 14  2  0  0  0  0
 20 14  1  0  0  0  0
 23 24  2  0  0  0  0
 24 25  1  0  0  0  0
 24 28  1  0  0  0  0
 25 29  1  0  0  0  0
 26 25  2  0  0  0  0
 27 23  1  0  0  0  0
 27 26  1  0  0  0  0
 30 26  1  0  0  0  0
 30 37  1  0  0  0  0
 31 30  1  0  0  0  0
 32 31  2  0  0  0  0
 32 34  1  0  0  0  0
 33 32  1  0  0  0  0
 34 36  1  0  0  0  0
 35 34  2  0  0  0  0
 36 37  1  0  0  0  0
 36 39  1  0  0  0  0
 37 38  2  0  0  0  0
M  END
>  <minimizedAffinity>
-6.22198153

$$$$

 OpenBabel03252506583D

 39 43  0  0  0  0  0  0  0  0999 V2000
   40.8830   31.3900   41.6160 C   0  0  0  0  0  0  0  0  0  0  0  0
   41.3290   32.5820   41.0520 C   0  0  0  0  0  0  0  0  0  0  0  0
   40.5330   33.3590   40.2360 C   0  0  0  0  0  0  0  0  0  0  0  0
   39.2290   32.9640   39.9450 C   0  0  0  0  0  0  0  0  0  0  0  0
   38.2020   33.4650   39.2050 N   0  0  0  0  0  0  0  0  0  0  0  0
   37.1510   32.6030   39.3090 C   0  0  0  0  0  0  0  0  0  0  0  0
   37.5490   31.5910   40.1100 N   0  0  0  0  0  0  0  0  0  0  0  0
   38.8100   31.7840   40.5110 C   0  0  0  0  0  0  0  0  0  0  0  0
   39.5650   30.9910   41.3210 C   0  0  0  0  0  0  0  0  0  0  0  0
   41.5060   30.7760   42.2590 H   0  0  0  0  0  0  0  0  0  0  0  0
   40.8930   34.2950   39.7990 H   0  0  0  0  0  0  0  0  0  0  0  0
   38.2430   34.3500   38.6670 H   0  0  0  0  0  0  0  0  0  0  0  0
   36.1960   32.7440   38.8270 H   0  0  0  0  0  0  0  0  0  0  0  0
   44.2060   34.7750   41.7270 C   0  0  0  0  0  0  0  0  0  0  0  0
   45.2470   33.8550   41.8680 C   0  0  0  0  0  0  0  0  0  0  0  0
   44.9660   32.4910   41.7320 C   0  0  0  0  0  0  0  0  0  0  0  0
   43.6670   32.1180   41.4650 N   0  0  0  0  0  0  0  0  0  0  0  0
   42.6890   33.0290   41.3360 C   0  0  0  0  0  0  0  0  0  0  0  0
   42.9390   34.3550   41.4630 N   0  0  0  0  0  0  0  0  0  0  0  0
   44.4270   35.8280   41.8320 H   0  0  0  0  0  0  0  0  0  0  0  0
   46.2720   34.1300   42.0770 H   0  0  0  0  0  0  0  0  0  0  0  0
   45.6770   31.6950   41.8180 H   0  0  0  0  0  0  0  0  0  0  0  0
   39.0300   29.7420   41.8810 C   0  0  0  0  0  0  0  0  0  0  0  0
   38.5290   29.6080   43.1590 C   0  0  0  0  0  0  0  0  0  0  0  0
   38.1480   28.2720   43.2320 C   0  0  0  0  0  0  0  0  0  0  0  0
   38.4290   27.6750   42.0230 C   0  0  0  0  0  0  0  0  0  0  0  0
   38.9560   28.6060   41.2530 O   0  0  0  0  0  0  0  0  0  0  0  0
   38.4460   30.3630   43.9390 H   0  0  0  0  0  0  0  0  0  0  0  0
   37.7070   27.7940   44.0960 H   0  0  0  0  0  0  0  0  0  0  0  0
   38.2180   26.3280   41.6190 N   0  0  0  0  0  0  0  0  0  0  0  0
   39.0000   25.3430   42.0930 C   0  0  0  0  0  3  0  0  0  0  0  0
   38.8470   24.0080   41.7380 C   0  0  0  0  0  0  0  0  0  0  0  0
   39.5210   23.2980   42.1700 H   0  0  0  0  0  0  0  0  0  0  0  0
   37.8350   23.6790   40.8520 C   0  0  0  0  0  0  0  0  0  0  0  0
   37.6740   22.4750   40.5150 O   0  0  0  0  0  0  0  0  0  0  0  0
   37.0410   24.6810   40.3720 N   0  0  0  0  0  0  0  0  0  0  0  0
   37.2570   25.9480   40.7660 C   0  0  0  0  0  0  0  0  0  0  0  0
   36.4910   26.7990   40.2830 O   0  0  0  0  0  0  0  0  0  0  0  0
   36.2760   24.4180   39.7000 H   0  0  0  0  0  0  0  0  0  0  0  0
  1 10  1  0  0  0  0
  2 18  1  0  0  0  0
  2  1  2  0  0  0  0
  3  2  1  0  0  0  0
  4  3  2  0  0  0  0
  4  8  1  0  0  0  0
  5  6  1  0  0  0  0
  5  4  1  0  0  0  0
  6  7  2  0  0  0  0
  7  8  1  0  0  0  0
  8  9  2  0  0  0  0
  9  1  1  0  0  0  0
  9 23  1  0  0  0  0
 11  3  1  0  0  0  0
 12  5  1  0  0  0  0
 13  6  1  0  0  0  0
 14 20  1  0  0  0  0
 14 15  1  0  0  0  0
 15 21  1  0  0  0  0
 16 22  1  0  0  0  0
 16 15  2  0  0  0  0
 17 16  1  0  0  0  0
 18 19  1  0  0  0  0
 18 17  2  0  0  0  0
 19 14  2  0  0  0  0
 23 24  2  0  0  0  0
 24 25  1  0  0  0  0
 24 28  1  0  0  0  0
 25 29  1  0  0  0  0
 26 25  2  0  0  0  0
 27 23  1  0  0  0  0
 27 26  1  0  0  0  0
 30 26  1  0  0  0  0
 30 31  1  0  0  0  0
 32 31  2  0  0  0  0
 32 33  1  0  0  0  0
 34 32  1  0  0  0  0
 35 34  2  0  0  0  0
 36 37  1  0  0  0  0
 36 34  1  0  0  0  0
 37 30  1  0  0  0  0
 38 37  2  0  0  0  0
 39 36  1  0  0  0  0
M  END
>  <minimizedAffinity>
-6.05288363

$$$$

 OpenBabel03252506583D

 39 43  0  0  0  0  0  0  0  0999 V2000
   41.2900   31.2450   37.8630 C   0  0  0  0  0  0  0  0  0  0  0  0
   42.2550   32.2440   37.7810 C   0  0  0  0  0  0  0  0  0  0  0  0
   42.0680   33.5010   38.3180 C   0  0  0  0  0  0  0  0  0  0  0  0
   40.8790   33.8140   38.9750 C   0  0  0  0  0  0  0  0  0  0  0  0
   40.3720   34.9110   39.6000 N   0  0  0  0  0  0  0  0  0  0  0  0
   39.1260   34.5960   40.0550 C   0  0  0  0  0  0  0  0  0  0  0  0
   38.8910   33.3130   39.7030 N   0  0  0  0  0  0  0  0  0  0  0  0
   39.9410   32.8120   39.0430 C   0  0  0  0  0  0  0  0  0  0  0  0
   40.0890   31.5610   38.5250 C   0  0  0  0  0  0  0  0  0  0  0  0
   41.4340   30.2540   37.4410 H   0  0  0  0  0  0  0  0  0  0  0  0
   42.8340   34.2800   38.2490 H   0  0  0  0  0  0  0  0  0  0  0  0
   40.8710   35.8150   39.6970 H   0  0  0  0  0  0  0  0  0  0  0  0
   38.4830   35.2750   40.5940 H   0  0  0  0  0  0  0  0  0  0  0  0
   44.7480   30.6380   35.6020 C   0  0  0  0  0  0  0  0  0  0  0  0
   45.8820   31.4190   35.8320 C   0  0  0  0  0  0  0  0  0  0  0  0
   45.7950   32.4900   36.7290 C   0  0  0  0  0  0  0  0  0  0  0  0
   44.5860   32.7240   37.3450 N   0  0  0  0  0  0  0  0  0  0  0  0
   43.5130   31.9540   37.1010 C   0  0  0  0  0  0  0  0  0  0  0  0
   43.5760   30.9120   36.2370 N   0  0  0  0  0  0  0  0  0  0  0  0
   44.8190   29.8110   34.9090 H   0  0  0  0  0  0  0  0  0  0  0  0
   46.8400   31.2490   35.3570 H   0  0  0  0  0  0  0  0  0  0  0  0
   46.5930   33.1560   36.9850 H   0  0  0  0  0  0  0  0  0  0  0  0
   39.0260   30.5530   38.6480 C   0  0  0  0  0  0  0  0  0  0  0  0
   37.8880   30.5140   37.8700 C   0  0  0  0  0  0  0  0  0  0  0  0
   37.1950   29.4060   38.3440 C   0  0  0  0  0  0  0  0  0  0  0  0
   37.9290   28.8390   39.3630 C   0  0  0  0  0  0  0  0  0  0  0  0
   39.0170   29.5710   39.5000 O   0  0  0  0  0  0  0  0  0  0  0  0
   37.5910   31.1880   37.0690 H   0  0  0  0  0  0  0  0  0  0  0  0
   36.2420   29.0570   37.9700 H   0  0  0  0  0  0  0  0  0  0  0  0
   37.6310   27.6930   40.1510 N   0  0  0  0  0  0  0  0  0  0  0  0
   37.6400   26.4660   39.6010 C   0  0  0  0  0  3  0  0  0  0  0  0
   37.3580   25.3080   40.3160 C   0  0  0  0  0  0  0  0  0  0  0  0
   37.3890   24.3780   39.7880 H   0  0  0  0  0  0  0  0  0  0  0  0
   37.0550   25.4270   41.6620 C   0  0  0  0  0  0  0  0  0  0  0  0
   36.7970   24.3910   42.3320 O   0  0  0  0  0  0  0  0  0  0  0  0
   37.0480   26.6740   42.2190 N   0  0  0  0  0  0  0  0  0  0  0  0
   37.3320   27.7440   41.4560 C   0  0  0  0  0  0  0  0  0  0  0  0
   37.3030   28.8410   42.0380 O   0  0  0  0  0  0  0  0  0  0  0  0
   36.8160   26.7510   43.2410 H   0  0  0  0  0  0  0  0  0  0  0  0
  1  9  1  0  0  0  0
  2  1  2  0  0  0  0
  2  3  1  0  0  0  0
  3  4  2  0  0  0  0
  4  8  1  0  0  0  0
  4  5  1  0  0  0  0
  5 12  1  0  0  0  0
  5  6  1  0  0  0  0
  6 13  1  0  0  0  0
  7  6  2  0  0  0  0
  8  7  1  0  0  0  0
  9 23  1  0  0  0  0
  9  8  2  0  0  0  0
 10  1  1  0  0  0  0
 11  3  1  0  0  0  0
 14 15  2  0  0  0  0
 14 19  1  0  0  0  0
 15 16  1  0  0  0  0
 16 22  1  0  0  0  0
 16 17  2  0  0  0  0
 18 17  1  0  0  0  0
 18  2  1  0  0  0  0
 19 18  2  0  0  0  0
 20 14  1  0  0  0  0
 21 15  1  0  0  0  0
 23 27  1  0  0  0  0
 24 25  1  0  0  0  0
 24 23  2  0  0  0  0
 25 26  2  0  0  0  0
 26 27  1  0  0  0  0
 26 30  1  0  0  0  0
 28 24  1  0  0  0  0
 29 25  1  0  0  0  0
 30 37  1  0  0  0  0
 31 30  1  0  0  0  0
 31 32  2  0  0  0  0
 32 34  1  0  0  0  0
 33 32  1  0  0  0  0
 34 36  1  0  0  0  0
 34 35  2  0  0  0  0
 36 39  1  0  0  0  0
 37 38  2  0  0  0  0
 37 36  1  0  0  0  0
M  END
>  <minimizedAffinity>
-6.03285074

$$$$

 OpenBabel03252506583D

 39 43  0  0  0  0  0  0  0  0999 V2000
   36.5560   26.7020   39.4720 C   0  0  0  0  0  0  0  0  0  0  0  0
   36.1910   25.5600   38.7670 C   0  0  0  0  0  0  0  0  0  0  0  0
   35.3150   25.5950   37.7010 C   0  0  0  0  0  0  0  0  0  0  0  0
   34.7590   26.8040   37.2900 C   0  0  0  0  0  0  0  0  0  0  0  0
   33.8920   27.1960   36.3160 N   0  0  0  0  0  0  0  0  0  0  0  0
   33.7270   28.5460   36.4190 C   0  0  0  0  0  0  0  0  0  0  0  0
   34.4940   28.9580   37.4520 N   0  0  0  0  0  0  0  0  0  0  0  0
   35.1330   27.9190   38.0010 C   0  0  0  0  0  0  0  0  0  0  0  0
   35.9930   27.9240   39.0570 C   0  0  0  0  0  0  0  0  0  0  0  0
   37.2450   26.6780   40.3120 H   0  0  0  0  0  0  0  0  0  0  0  0
   35.0350   24.6900   37.1530 H   0  0  0  0  0  0  0  0  0  0  0  0
   33.4510   26.5560   35.6300 H   0  0  0  0  0  0  0  0  0  0  0  0
   33.0940   29.1350   35.7740 H   0  0  0  0  0  0  0  0  0  0  0  0
   37.9730   22.9900   40.7070 C   0  0  0  0  0  0  0  0  0  0  0  0
   37.8060   21.8560   39.9110 C   0  0  0  0  0  0  0  0  0  0  0  0
   37.0880   21.9690   38.7140 C   0  0  0  0  0  0  0  0  0  0  0  0
   36.5760   23.2030   38.3790 N   0  0  0  0  0  0  0  0  0  0  0  0
   36.7540   24.2750   39.1680 C   0  0  0  0  0  0  0  0  0  0  0  0
   37.4460   24.1870   40.3300 N   0  0  0  0  0  0  0  0  0  0  0  0
   38.5280   22.8990   41.6300 H   0  0  0  0  0  0  0  0  0  0  0  0
   38.2020   20.8790   40.1580 H   0  0  0  0  0  0  0  0  0  0  0  0
   36.8950   21.1740   38.0240 H   0  0  0  0  0  0  0  0  0  0  0  0
   36.3350   29.1700   39.7570 C   0  0  0  0  0  0  0  0  0  0  0  0
   35.6310   29.6890   40.8230 C   0  0  0  0  0  0  0  0  0  0  0  0
   36.3180   30.8550   41.1440 C   0  0  0  0  0  0  0  0  0  0  0  0
   37.3800   30.9840   40.2780 C   0  0  0  0  0  0  0  0  0  0  0  0
   37.3390   29.9440   39.4690 O   0  0  0  0  0  0  0  0  0  0  0  0
   34.7430   29.2890   41.3100 H   0  0  0  0  0  0  0  0  0  0  0  0
   36.0530   31.5380   41.9400 H   0  0  0  0  0  0  0  0  0  0  0  0
   38.3640   32.0100   40.2120 N   0  0  0  0  0  0  0  0  0  0  0  0
   39.6020   31.7980   40.6910 C   0  0  0  0  0  3  0  0  0  0  0  0
   40.6080   32.7580   40.6570 C   0  0  0  0  0  0  0  0  0  0  0  0
   41.5610   32.4930   41.0650 H   0  0  0  0  0  0  0  0  0  0  0  0
   40.3160   33.9910   40.1010 C   0  0  0  0  0  0  0  0  0  0  0  0
   41.2100   34.8780   40.0580 O   0  0  0  0  0  0  0  0  0  0  0  0
   39.0580   34.2040   39.6150 N   0  0  0  0  0  0  0  0  0  0  0  0
   38.1420   33.2210   39.6870 C   0  0  0  0  0  0  0  0  0  0  0  0
   37.0230   33.4960   39.2220 O   0  0  0  0  0  0  0  0  0  0  0  0
   38.8490   35.1450   39.1950 H   0  0  0  0  0  0  0  0  0  0  0  0
  1 10  1  0  0  0  0
  2 18  1  0  0  0  0
  2  1  2  0  0  0  0
  3  2  1  0  0  0  0
  4  3  2  0  0  0  0
  4  8  1  0  0  0  0
  5  6  1  0  0  0  0
  5  4  1  0  0  0  0
  6  7  2  0  0  0  0
  7  8  1  0  0  0  0
  8  9  2  0  0  0  0
  9  1  1  0  0  0  0
  9 23  1  0  0  0  0
 11  3  1  0  0  0  0
 12  5  1  0  0  0  0
 13  6  1  0  0  0  0
 14 20  1  0  0  0  0
 15 21  1  0  0  0  0
 15 14  2  0  0  0  0
 16 15  1  0  0  0  0
 17 16  2  0  0  0  0
 17 18  1  0  0  0  0
 18 19  2  0  0  0  0
 19 14  1  0  0  0  0
 22 16  1  0  0  0  0
 23 24  2  0  0  0  0
 24 25  1  0  0  0  0
 24 28  1  0  0  0  0
 25 29  1  0  0  0  0
 26 25  2  0  0  0  0
 27 23  1  0  0  0  0
 27 26  1  0  0  0  0
 30 26  1  0  0  0  0
 30 31  1  0  0  0  0
 32 31  2  0  0  0  0
 32 33  1  0  0  0  0
 34 32  1  0  0  0  0
 35 34  2  0  0  0  0
 36 37  1  0  0  0  0
 36 34  1  0  0  0  0
 37 30  1  0  0  0  0
 38 37  2  0  0  0  0
 39 36  1  0  0  0  0
M  END
>  <minimizedAffinity>
-5.997684

$$$$

 OpenBabel03252506583D

 39 43  0  0  0  0  0  0  0  0999 V2000
   37.7080   30.7860   39.8900 C   0  0  0  0  0  0  0  0  0  0  0  0
   38.5160   31.3450   40.8760 C   0  0  0  0  0  0  0  0  0  0  0  0
   38.6220   30.8050   42.1410 C   0  0  0  0  0  0  0  0  0  0  0  0
   37.9080   29.6570   42.4770 C   0  0  0  0  0  0  0  0  0  0  0  0
   37.7780   28.8820   43.5870 N   0  0  0  0  0  0  0  0  0  0  0  0
   36.9110   27.8700   43.2940 C   0  0  0  0  0  0  0  0  0  0  0  0
   36.5260   28.0420   42.0110 N   0  0  0  0  0  0  0  0  0  0  0  0
   37.1170   29.1220   41.4880 C   0  0  0  0  0  0  0  0  0  0  0  0
   36.9860   29.6260   40.2300 C   0  0  0  0  0  0  0  0  0  0  0  0
   37.6220   31.2080   38.8930 H   0  0  0  0  0  0  0  0  0  0  0  0
   39.2610   31.2530   42.9090 H   0  0  0  0  0  0  0  0  0  0  0  0
   38.2660   29.0550   44.4860 H   0  0  0  0  0  0  0  0  0  0  0  0
   36.6180   27.0970   43.9870 H   0  0  0  0  0  0  0  0  0  0  0  0
   41.3070   33.5550   39.9460 C   0  0  0  0  0  0  0  0  0  0  0  0
   40.7040   34.8140   39.9720 C   0  0  0  0  0  0  0  0  0  0  0  0
   39.3480   34.9060   40.3060 C   0  0  0  0  0  0  0  0  0  0  0  0
   38.6690   33.7440   40.5960 N   0  0  0  0  0  0  0  0  0  0  0  0
   39.2800   32.5480   40.5610 C   0  0  0  0  0  0  0  0  0  0  0  0
   40.5920   32.4360   40.2400 N   0  0  0  0  0  0  0  0  0  0  0  0
   42.3550   33.4880   39.6870 H   0  0  0  0  0  0  0  0  0  0  0  0
   41.2220   35.7370   39.7480 H   0  0  0  0  0  0  0  0  0  0  0  0
   38.7780   35.8120   40.3590 H   0  0  0  0  0  0  0  0  0  0  0  0
   36.1130   28.9830   39.2370 C   0  0  0  0  0  0  0  0  0  0  0  0
   36.1780   27.6530   38.8810 C   0  0  0  0  0  0  0  0  0  0  0  0
   35.1750   27.5110   37.9280 C   0  0  0  0  0  0  0  0  0  0  0  0
   34.5660   28.7340   37.7550 C   0  0  0  0  0  0  0  0  0  0  0  0
   35.1710   29.5780   38.5670 O   0  0  0  0  0  0  0  0  0  0  0  0
   36.8510   26.8820   39.2530 H   0  0  0  0  0  0  0  0  0  0  0  0
   34.9260   26.5920   37.4140 H   0  0  0  0  0  0  0  0  0  0  0  0
   33.4920   29.0860   36.8910 N   0  0  0  0  0  0  0  0  0  0  0  0
   32.2640   29.3160   37.3870 C   0  0  0  0  0  3  0  0  0  0  0  0
   31.1740   29.6630   36.5970 C   0  0  0  0  0  0  0  0  0  0  0  0
   30.2370   29.8250   37.0870 H   0  0  0  0  0  0  0  0  0  0  0  0
   31.3670   29.7790   35.2310 C   0  0  0  0  0  0  0  0  0  0  0  0
   30.3950   30.0940   34.4930 O   0  0  0  0  0  0  0  0  0  0  0  0
   32.6150   29.5470   34.7290 N   0  0  0  0  0  0  0  0  0  0  0  0
   33.6170   29.2140   35.5630 C   0  0  0  0  0  0  0  0  0  0  0  0
   34.7200   29.0190   35.0260 O   0  0  0  0  0  0  0  0  0  0  0  0
   32.7490   29.6380   33.6900 H   0  0  0  0  0  0  0  0  0  0  0  0
  1  9  2  0  0  0  0
  1  2  1  0  0  0  0
  2  3  2  0  0  0  0
  3  4  1  0  0  0  0
  3 11  1  0  0  0  0
  4  5  1  0  0  0  0
  5 12  1  0  0  0  0
  6  5  1  0  0  0  0
  6 13  1  0  0  0  0
  7  6  2  0  0  0  0
  8  7  1  0  0  0  0
  8  4  2  0  0  0  0
  9  8  1  0  0  0  0
 10  1  1  0  0  0  0
 14 15  2  0  0  0  0
 14 19  1  0  0  0  0
 15 16  1  0  0  0  0
 16 22  1  0  0  0  0
 16 17  2  0  0  0  0
 18 17  1  0  0  0  0
 18  2  1  0  0  0  0
 19 18  2  0  0  0  0
 20 14  1  0  0  0  0
 21 15  1  0  0  0  0
 23  9  1  0  0  0  0
 24 23  2  0  0  0  0
 24 28  1  0  0  0  0
 25 24  1  0  0  0  0
 26 25  2  0  0  0  0
 26 27  1  0  0  0  0
 27 23  1  0  0  0  0
 29 25  1  0  0  0  0
 30 31  1  0  0  0  0
 30 26  1  0  0  0  0
 32 33  1  0  0  0  0
 32 31  2  0  0  0  0
 34 32  1  0  0  0  0
 35 34  2  0  0  0  0
 36 34  1  0  0  0  0
 36 37  1  0  0  0  0
 37 30  1  0  0  0  0
 38 37  2  0  0  0  0
 39 36  1  0  0  0  0
M  END
>  <minimizedAffinity>
-5.99003553

$$$$
