
 OpenBabel03242510193D

 37 40  0  0  1  0  0  0  0  0999 V2000
   48.1170   33.4910   43.5050 N   0  0  0  0  0  0  0  0  0  0  0  0
   49.2150   33.4770   42.6610 C   0  0  0  0  0  0  0  0  0  0  0  0
   50.4000   33.0970   42.8730 O   0  0  0  0  0  0  0  0  0  0  0  0
   47.5420   34.3820   43.4890 H   0  0  0  0  0  0  0  0  0  0  0  0
   46.3470   32.3770   44.8370 C   0  0  1  0  0  0  0  0  0  0  0  0
   46.6500   31.4920   43.7780 C   0  0  0  0  0  0  0  0  0  0  0  0
   47.7600   32.3930   44.3500 C   0  0  1  0  0  0  0  0  0  0  0  0
   46.1590   31.9880   45.8770 H   0  0  0  0  0  0  0  0  0  0  0  0
   46.7640   30.3770   43.9320 H   0  0  0  0  0  0  0  0  0  0  0  0
   46.3750   31.7070   42.7300 H   0  0  0  0  0  0  0  0  0  0  0  0
   48.5710   31.7530   44.7030 H   0  0  0  0  0  0  0  0  0  0  0  0
   44.9960   33.8880   43.2400 C   0  0  0  0  0  0  0  0  0  0  0  0
   45.5060   33.6170   44.5310 C   0  0  0  0  0  0  0  0  0  0  0  0
   45.2410   34.5240   45.5230 C   0  0  0  0  0  0  0  0  0  0  0  0
   44.5120   35.6280   45.2400 N   0  0  0  0  0  0  0  0  0  0  0  0
   44.0270   35.8790   43.9970 C   0  0  0  0  0  0  0  0  0  0  0  0
   44.2800   34.9740   42.9630 N   0  0  0  0  0  0  0  0  0  0  0  0
   45.1700   33.2200   42.4410 H   0  0  0  0  0  0  0  0  0  0  0  0
   45.6110   34.3520   46.5110 H   0  0  0  0  0  0  0  0  0  0  0  0
   43.4480   36.7420   43.7370 H   0  0  0  0  0  0  0  0  0  0  0  0
   49.0740   33.9670   41.2310 C   0  0  2  0  0  0  0  0  0  0  0  0
   48.7530   35.4750   41.0240 C   0  0  0  0  0  0  0  0  0  0  0  0
   47.7820   34.3900   40.6920 C   0  0  1  0  0  0  0  0  0  0  0  0
   49.9350   33.7280   40.5540 H   0  0  0  0  0  0  0  0  0  0  0  0
   49.1780   35.9940   40.1580 H   0  0  0  0  0  0  0  0  0  0  0  0
   48.6420   36.0950   41.9040 H   0  0  0  0  0  0  0  0  0  0  0  0
   46.8520   34.5450   41.2030 H   0  0  0  0  0  0  0  0  0  0  0  0
   47.5640   33.9810   39.3140 N   0  0  0  0  0  0  0  0  0  0  0  0
   48.3460   34.4420   38.3510 C   0  0  0  0  0  0  0  0  0  0  0  0
   48.0720   34.0070   37.0790 C   0  0  0  0  0  0  0  0  0  0  0  0
   48.6240   34.3000   36.2090 H   0  0  0  0  0  0  0  0  0  0  0  0
   47.0290   33.1310   36.8430 C   0  0  0  0  0  0  0  0  0  0  0  0
   46.7440   32.7060   35.6840 O   0  0  0  0  0  0  0  0  0  0  0  0
   46.2720   32.6960   37.8450 N   0  0  0  0  0  0  0  0  0  0  0  0
   46.5270   33.1180   39.1180 C   0  0  0  0  0  0  0  0  0  0  0  0
   45.8090   32.7070   40.0770 O   0  0  0  0  0  0  0  0  0  0  0  0
   45.4730   32.0250   37.6580 H   0  0  0  0  0  0  0  0  0  0  0  0
  1  7  1  0  0  0  0
  2  3  2  0  0  0  0
  2  1  1  0  0  0  0
  4  1  1  0  0  0  0
  5  8  1  1  0  0  0
  6  9  1  0  0  0  0
  6  7  1  0  0  0  0
  6  5  1  0  0  0  0
  7 11  1  1  0  0  0
  7  5  1  0  0  0  0
 10  6  1  0  0  0  0
 12 13  1  0  0  0  0
 13  5  1  0  0  0  0
 13 14  2  0  0  0  0
 14 19  1  0  0  0  0
 15 14  1  0  0  0  0
 16 15  2  0  0  0  0
 17 12  2  0  0  0  0
 17 16  1  0  0  0  0
 18 12  1  0  0  0  0
 20 16  1  0  0  0  0
 21 24  1  6  0  0  0
 21  2  1  0  0  0  0
 22 21  1  0  0  0  0
 22 26  1  0  0  0  0
 23 22  1  0  0  0  0
 23 27  1  1  0  0  0
 23 21  1  0  0  0  0
 25 22  1  0  0  0  0
 28 23  1  0  0  0  0
 29 28  1  0  0  0  0
 30 29  2  0  0  0  0
 31 30  1  0  0  0  0
 32 30  1  0  0  0  0
 32 34  1  0  0  0  0
 33 32  2  0  0  0  0
 34 35  1  0  0  0  0
 35 28  1  0  0  0  0
 35 36  2  0  0  0  0
 37 34  1  0  0  0  0
M  END
>  <minimizedAffinity>
-5.16776514

>  <minimizedRMSD>
1.13334167

$$$$
