
 OpenBabel03252503463D

 45 48  0  0  1  0  0  0  0  0999 V2000
   46.1980   35.4010   42.5870 C   0  0  0  0  0  0  0  0  0  0  0  0
   45.8830   36.4340   42.8690 H   0  0  0  0  0  0  0  0  0  0  0  0
   47.2390   35.5230   42.2280 H   0  0  0  0  0  0  0  0  0  0  0  0
   45.2680   34.9300   41.5530 C   0  0  0  0  0  0  0  0  0  0  0  0
   43.9610   35.3400   41.4200 C   0  0  0  0  0  0  0  0  0  0  0  0
   43.1250   34.8600   40.4380 C   0  0  0  0  0  0  0  0  0  0  0  0
   43.6280   33.9250   39.5510 C   0  0  0  0  0  0  0  0  0  0  0  0
   44.9540   33.5010   39.6750 C   0  0  0  0  0  0  0  0  0  0  0  0
   45.7870   34.0030   40.6810 C   0  0  0  0  0  0  0  0  0  0  0  0
   43.6910   36.0810   42.1850 H   0  0  0  0  0  0  0  0  0  0  0  0
   42.1160   35.2570   40.4310 H   0  0  0  0  0  0  0  0  0  0  0  0
   42.8940   33.6130   38.8220 H   0  0  0  0  0  0  0  0  0  0  0  0
   45.1330   32.7710   38.8820 H   0  0  0  0  0  0  0  0  0  0  0  0
   47.0320   33.3600   40.4810 N   0  0  0  0  0  0  0  0  0  0  0  0
   47.0390   32.0090   40.7040 C   0  0  0  0  0  0  0  0  0  0  0  0
   48.1650   31.1950   40.5490 C   0  0  0  0  0  0  0  0  0  0  0  0
   48.0860   30.1350   40.7460 H   0  0  0  0  0  0  0  0  0  0  0  0
   49.3020   31.8260   40.1490 C   0  0  0  0  0  0  0  0  0  0  0  0
   50.3560   31.1430   39.9910 O   0  0  0  0  0  0  0  0  0  0  0  0
   49.3190   33.1490   39.9240 N   0  0  0  0  0  0  0  0  0  0  0  0
   48.2170   33.8580   40.0910 C   0  0  0  0  0  0  0  0  0  0  0  0
   48.2370   35.0960   39.8760 O   0  0  0  0  0  0  0  0  0  0  0  0
   50.1880   33.6290   39.6200 H   0  0  0  0  0  0  0  0  0  0  0  0
   45.1490   34.7520   44.7380 C   0  0  0  0  0  0  0  0  0  0  0  0
   46.1240   34.5520   43.7660 C   0  0  0  0  0  0  0  0  0  0  0  0
   47.0200   33.5030   43.9740 C   0  0  0  0  0  0  0  0  0  0  0  0
   46.9410   32.7170   45.0680 N   0  0  0  0  0  0  0  0  0  0  0  0
   45.9750   32.9450   45.9940 C   0  0  0  0  0  0  0  0  0  0  0  0
   45.0840   33.9550   45.8310 N   0  0  0  0  0  0  0  0  0  0  0  0
   44.4580   35.5470   44.5960 H   0  0  0  0  0  0  0  0  0  0  0  0
   47.8140   33.2690   43.3150 H   0  0  0  0  0  0  0  0  0  0  0  0
   47.3480   31.7550   47.6920 C   0  0  2  0  0  0  0  0  0  0  0  0
   45.9200   32.0670   47.1620 C   0  0  1  0  0  0  0  0  0  0  0  0
   45.3900   32.6140   48.2820 O   0  0  0  0  0  0  0  0  0  0  0  0
   45.7170   31.8170   49.3380 C   0  0  0  0  0  0  0  0  0  0  0  0
   46.9150   30.9700   48.9370 C   0  0  2  0  0  0  0  0  0  0  0  0
   47.8850   31.1310   46.9710 H   0  0  0  0  0  0  0  0  0  0  0  0
   45.4360   31.1000   46.8970 H   0  0  0  0  0  0  0  0  0  0  0  0
   46.0450   32.4570   50.1860 H   0  0  0  0  0  0  0  0  0  0  0  0
   44.8850   31.1970   49.7200 H   0  0  0  0  0  0  0  0  0  0  0  0
   46.5130   29.9720   48.6600 H   0  0  0  0  0  0  0  0  0  0  0  0
   47.9490   32.8830   48.1120 O   0  0  0  0  0  0  0  0  0  0  0  0
   48.9420   32.7630   48.0840 H   0  0  0  0  0  0  0  0  0  0  0  0
   47.8980   30.9060   49.8940 O   0  0  0  0  0  0  0  0  0  0  0  0
   47.7290   31.5370   50.6150 H   0  0  0  0  0  0  0  0  0  0  0  0
  1  2  1  0  0  0  0
  1 25  1  0  0  0  0
  3  1  1  0  0  0  0
  4  1  1  0  0  0  0
  5  4  1  0  0  0  0
  5 10  1  0  0  0  0
  6  5  2  0  0  0  0
  7  8  2  0  0  0  0
  7  6  1  0  0  0  0
  8  9  1  0  0  0  0
  9  4  2  0  0  0  0
 11  6  1  0  0  0  0
 12  7  1  0  0  0  0
 13  8  1  0  0  0  0
 14  9  1  0  0  0  0
 14 15  1  0  0  0  0
 16 15  2  0  0  0  0
 16 17  1  0  0  0  0
 18 16  1  0  0  0  0
 19 18  2  0  0  0  0
 20 21  1  0  0  0  0
 20 18  1  0  0  0  0
 21 14  1  0  0  0  0
 22 21  2  0  0  0  0
 23 20  1  0  0  0  0
 24 29  1  0  0  0  0
 25 26  1  0  0  0  0
 25 24  2  0  0  0  0
 26 27  2  0  0  0  0
 27 28  1  0  0  0  0
 28 33  1  0  0  0  0
 29 28  2  0  0  0  0
 30 24  1  0  0  0  0
 31 26  1  0  0  0  0
 32 37  1  6  0  0  0
 32 42  1  0  0  0  0
 32 36  1  0  0  0  0
 33 38  1  6  0  0  0
 33 32  1  0  0  0  0
 33 34  1  0  0  0  0
 34 35  1  0  0  0  0
 35 40  1  0  0  0  0
 35 39  1  0  0  0  0
 36 41  1  6  0  0  0
 36 35  1  0  0  0  0
 36 44  1  0  0  0  0
 43 42  1  0  0  0  0
 44 45  1  0  0  0  0
M  END
>  <minimizedAffinity>
-7.27920866

>  <minimizedRMSD>
0.59279424

$$$$
