
 OpenBabel03252504103D

 26 27  0  0  0  0  0  0  0  0999 V2000
   47.1010   34.1830   43.0320 C   0  0  0  0  0  0  0  0  0  0  0  0
   45.7040   34.2430   43.1130 C   0  0  0  0  0  0  0  0  0  0  0  0
   45.0320   33.1740   43.7280 C   0  0  0  0  0  0  0  0  0  0  0  0
   45.7660   32.1420   44.2090 N   0  0  0  0  0  0  0  0  0  0  0  0
   47.1240   32.1210   44.1090 C   0  0  0  0  0  0  0  0  0  0  0  0
   47.7780   33.1330   43.5260 N   0  0  0  0  0  0  0  0  0  0  0  0
   43.9650   33.2070   43.7980 H   0  0  0  0  0  0  0  0  0  0  0  0
   47.8420   31.0090   44.6340 N   0  0  0  0  0  0  0  0  0  0  0  0
   47.5590   30.5340   45.8590 C   0  0  0  0  0  3  0  0  0  0  0  0
   48.2290   29.4510   46.4220 C   0  0  0  0  0  0  0  0  0  0  0  0
   47.9870   29.0820   47.4130 H   0  0  0  0  0  0  0  0  0  0  0  0
   49.2070   28.9050   45.6160 C   0  0  0  0  0  0  0  0  0  0  0  0
   49.8470   27.9100   46.0890 O   0  0  0  0  0  0  0  0  0  0  0  0
   49.5050   29.3640   44.3890 N   0  0  0  0  0  0  0  0  0  0  0  0
   48.8010   30.4310   43.9100 C   0  0  0  0  0  0  0  0  0  0  0  0
   49.0640   30.8770   42.7620 O   0  0  0  0  0  0  0  0  0  0  0  0
   50.2560   28.9030   43.8360 H   0  0  0  0  0  0  0  0  0  0  0  0
   44.9970   35.4250   42.5520 C   0  0  0  0  0  0  0  0  0  0  0  0
   45.5990   36.5890   42.9790 F   0  0  0  0  0  0  0  0  0  0  0  0
   45.1140   35.3830   41.1690 F   0  0  0  0  0  0  0  0  0  0  0  0
   43.6730   35.4980   42.8840 F   0  0  0  0  0  0  0  0  0  0  0  0
   47.7310   35.2170   42.4400 O   0  0  0  0  0  0  0  0  0  0  0  0
   48.9710   35.1890   41.7850 C   0  0  0  0  0  0  0  0  0  0  0  0
   49.9590   35.2160   42.7640 F   0  0  0  0  0  0  0  0  0  0  0  0
   49.0420   34.0870   40.9660 F   0  0  0  0  0  0  0  0  0  0  0  0
   49.1530   36.3730   41.0800 F   0  0  0  0  0  0  0  0  0  0  0  0
  1  2  2  0  0  0  0
  1  6  1  0  0  0  0
  2  3  1  0  0  0  0
  3  7  1  0  0  0  0
  3  4  2  0  0  0  0
  5  4  1  0  0  0  0
  5  8  1  0  0  0  0
  6  5  2  0  0  0  0
  8  9  1  0  0  0  0
  9 10  2  0  0  0  0
 10 11  1  0  0  0  0
 12 13  2  0  0  0  0
 12 10  1  0  0  0  0
 14 12  1  0  0  0  0
 15 14  1  0  0  0  0
 15  8  1  0  0  0  0
 16 15  2  0  0  0  0
 17 14  1  0  0  0  0
 18 21  1  0  0  0  0
 18 19  1  0  0  0  0
 18  2  1  0  0  0  0
 20 18  1  0  0  0  0
 22  1  1  0  0  0  0
 23 22  1  0  0  0  0
 23 24  1  0  0  0  0
 25 23  1  0  0  0  0
 26 23  1  0  0  0  0
M  END
>  <minimizedAffinity>
-5.27066755

>  <minimizedRMSD>
0.72160393

$$$$
