
 OpenBabel03242517493D

 44 47  0  0  0  0  0  0  0  0999 V2000
   36.0030   29.7830   40.8680 C   0  0  0  0  0  0  0  0  0  0  0  0
   36.9630   29.1790   41.6940 C   0  0  0  0  0  0  0  0  0  0  0  0
   38.1710   29.8220   41.8620 C   0  0  0  0  0  0  0  0  0  0  0  0
   38.3800   30.9980   41.2310 N   0  0  0  0  0  0  0  0  0  0  0  0
   37.4350   31.5470   40.4450 C   0  0  0  0  0  0  0  0  0  0  0  0
   36.2390   30.9760   40.2380 N   0  0  0  0  0  0  0  0  0  0  0  0
   35.0600   29.2840   40.7350 H   0  0  0  0  0  0  0  0  0  0  0  0
   38.9070   29.3460   42.5030 H   0  0  0  0  0  0  0  0  0  0  0  0
   37.7330   32.8480   39.7770 C   0  0  0  0  0  0  0  0  0  0  0  0
   37.6540   32.7800   38.6830 H   0  0  0  0  0  0  0  0  0  0  0  0
   36.9110   33.5270   40.0940 H   0  0  0  0  0  0  0  0  0  0  0  0
   38.9930   33.4790   40.2880 C   0  0  0  0  0  0  0  0  0  0  0  0
   39.2290   32.9790   41.2540 H   0  0  0  0  0  0  0  0  0  0  0  0
   38.7620   34.5330   40.5120 H   0  0  0  0  0  0  0  0  0  0  0  0
   40.1190   33.4090   39.4050 N   0  0  0  0  0  0  0  0  0  0  0  0
   40.2400   32.6620   38.2840 C   0  0  0  0  0  3  0  0  0  0  0  0
   41.3860   32.7100   37.5510 C   0  0  0  0  0  0  0  0  0  0  0  0
   41.4870   32.1050   36.6430 H   0  0  0  0  0  0  0  0  0  0  0  0
   42.4750   33.4930   37.8760 C   0  0  0  0  0  0  0  0  0  0  0  0
   43.5530   33.5730   37.2330 O   0  0  0  0  0  0  0  0  0  0  0  0
   42.3360   34.2360   39.0020 N   0  0  0  0  0  0  0  0  0  0  0  0
   41.1970   34.1850   39.7270 C   0  0  0  0  0  0  0  0  0  0  0  0
   41.1670   34.9100   40.7530 O   0  0  0  0  0  0  0  0  0  0  0  0
   43.1250   34.8450   39.2940 H   0  0  0  0  0  0  0  0  0  0  0  0
   36.6170   27.6320   42.4930 S   0  0  0  0  0  0  0  0  0  0  0  0
   38.1100   26.7590   42.8250 C   0  0  0  0  0  0  0  0  0  0  0  0
   38.9790   27.0940   43.8570 C   0  0  0  0  0  0  0  0  0  0  0  0
   40.1400   26.3570   44.0560 C   0  0  0  0  0  0  0  0  0  0  0  0
   40.4560   25.2980   43.2550 C   0  0  0  0  0  0  0  0  0  0  0  0
   39.5880   24.9700   42.2320 C   0  0  0  0  0  0  0  0  0  0  0  0
   38.4100   25.6850   41.9970 C   0  0  0  0  0  0  0  0  0  0  0  0
   38.7310   27.9330   44.4930 H   0  0  0  0  0  0  0  0  0  0  0  0
   40.8300   26.6010   44.8530 H   0  0  0  0  0  0  0  0  0  0  0  0
   41.3250   24.6680   43.3260 H   0  0  0  0  0  0  0  0  0  0  0  0
   39.7870   24.1350   41.5600 H   0  0  0  0  0  0  0  0  0  0  0  0
   37.5160   25.3240   40.9200 C   0  0  0  0  0  0  0  0  0  0  0  0
   36.6770   24.2630   40.9420 C   0  0  0  0  0  0  0  0  0  0  0  0
   35.8220   23.9380   39.8850 C   0  0  0  0  0  0  0  0  0  0  0  0
   35.8300   24.7170   38.7860 N   0  0  0  0  0  0  0  0  0  0  0  0
   36.6690   25.7800   38.7620 C   0  0  0  0  0  0  0  0  0  0  0  0
   37.4800   26.0690   39.7950 N   0  0  0  0  0  0  0  0  0  0  0  0
   36.6420   23.6130   41.8080 H   0  0  0  0  0  0  0  0  0  0  0  0
   35.1490   23.0970   39.8880 H   0  0  0  0  0  0  0  0  0  0  0  0
   36.6940   26.4180   37.8950 H   0  0  0  0  0  0  0  0  0  0  0  0
  1  2  1  0  0  0  0
  2  3  2  0  0  0  0
  2 25  1  0  0  0  0
  3  8  1  0  0  0  0
  4  3  1  0  0  0  0
  5  4  2  0  0  0  0
  6  5  1  0  0  0  0
  6  1  2  0  0  0  0
  7  1  1  0  0  0  0
  9 11  1  0  0  0  0
  9 12  1  0  0  0  0
  9  5  1  0  0  0  0
 10  9  1  0  0  0  0
 12 14  1  0  0  0  0
 12 13  1  0  0  0  0
 15 22  1  0  0  0  0
 15 12  1  0  0  0  0
 16 15  1  0  0  0  0
 17 19  1  0  0  0  0
 17 16  2  0  0  0  0
 18 17  1  0  0  0  0
 19 21  1  0  0  0  0
 20 19  2  0  0  0  0
 21 24  1  0  0  0  0
 21 22  1  0  0  0  0
 22 23  2  0  0  0  0
 25 26  1  0  0  0  0
 26 27  1  0  0  0  0
 27 28  2  0  0  0  0
 27 32  1  0  0  0  0
 28 33  1  0  0  0  0
 29 34  1  0  0  0  0
 29 28  1  0  0  0  0
 30 29  2  0  0  0  0
 31 30  1  0  0  0  0
 31 26  2  0  0  0  0
 35 30  1  0  0  0  0
 36 37  1  0  0  0  0
 36 31  1  0  0  0  0
 37 42  1  0  0  0  0
 38 43  1  0  0  0  0
 38 37  2  0  0  0  0
 39 38  1  0  0  0  0
 40 39  2  0  0  0  0
 40 41  1  0  0  0  0
 41 36  2  0  0  0  0
 44 40  1  0  0  0  0
M  END
>  <minimizedAffinity>
-6.29437351

$$$$

 OpenBabel03242517493D

 44 47  0  0  0  0  0  0  0  0999 V2000
   38.8550   29.4590   41.8980 C   0  0  0  0  0  0  0  0  0  0  0  0
   37.4520   29.4490   41.9480 C   0  0  0  0  0  0  0  0  0  0  0  0
   36.8370   28.4580   42.6850 C   0  0  0  0  0  0  0  0  0  0  0  0
   37.6030   27.5460   43.3220 N   0  0  0  0  0  0  0  0  0  0  0  0
   38.9460   27.5870   43.2500 C   0  0  0  0  0  0  0  0  0  0  0  0
   39.6090   28.5230   42.5530 N   0  0  0  0  0  0  0  0  0  0  0  0
   39.3370   30.2310   41.3250 H   0  0  0  0  0  0  0  0  0  0  0  0
   35.7510   28.4590   42.7170 H   0  0  0  0  0  0  0  0  0  0  0  0
   39.7300   26.5470   43.9790 C   0  0  0  0  0  0  0  0  0  0  0  0
   40.2860   26.9680   44.8290 H   0  0  0  0  0  0  0  0  0  0  0  0
   38.9650   25.8730   44.4250 H   0  0  0  0  0  0  0  0  0  0  0  0
   40.5350   25.6840   43.0550 C   0  0  0  0  0  0  0  0  0  0  0  0
   41.0730   24.9490   43.6960 H   0  0  0  0  0  0  0  0  0  0  0  0
   41.2960   26.3280   42.5860 H   0  0  0  0  0  0  0  0  0  0  0  0
   39.7870   25.0030   42.0400 N   0  0  0  0  0  0  0  0  0  0  0  0
   38.7150   24.1970   42.2100 C   0  0  0  0  0  3  0  0  0  0  0  0
   38.1140   23.6230   41.1320 C   0  0  0  0  0  0  0  0  0  0  0  0
   37.2450   22.9680   41.2660 H   0  0  0  0  0  0  0  0  0  0  0  0
   38.5310   23.8080   39.8290 C   0  0  0  0  0  0  0  0  0  0  0  0
   38.0110   23.3020   38.8020 O   0  0  0  0  0  0  0  0  0  0  0  0
   39.6060   24.6190   39.6780 N   0  0  0  0  0  0  0  0  0  0  0  0
   40.2000   25.1870   40.7500 C   0  0  0  0  0  0  0  0  0  0  0  0
   41.1900   25.9220   40.5050 O   0  0  0  0  0  0  0  0  0  0  0  0
   39.9640   24.7940   38.7180 H   0  0  0  0  0  0  0  0  0  0  0  0
   36.5110   30.6830   41.0850 S   0  0  0  0  0  0  0  0  0  0  0  0
   36.5780   30.4080   39.3470 C   0  0  0  0  0  0  0  0  0  0  0  0
   35.8570   29.4090   38.7020 C   0  0  0  0  0  0  0  0  0  0  0  0
   35.9620   29.2540   37.3250 C   0  0  0  0  0  0  0  0  0  0  0  0
   36.7640   30.0650   36.5780 C   0  0  0  0  0  0  0  0  0  0  0  0
   37.4780   31.0560   37.2240 C   0  0  0  0  0  0  0  0  0  0  0  0
   37.4010   31.2470   38.6070 C   0  0  0  0  0  0  0  0  0  0  0  0
   35.2200   28.7640   39.2930 H   0  0  0  0  0  0  0  0  0  0  0  0
   35.4100   28.4830   36.8040 H   0  0  0  0  0  0  0  0  0  0  0  0
   36.9130   30.0270   35.5130 H   0  0  0  0  0  0  0  0  0  0  0  0
   38.1350   31.7340   36.6800 H   0  0  0  0  0  0  0  0  0  0  0  0
   38.1560   32.2900   39.2630 C   0  0  0  0  0  0  0  0  0  0  0  0
   37.6630   33.5070   39.5850 C   0  0  0  0  0  0  0  0  0  0  0  0
   38.4180   34.4970   40.2210 C   0  0  0  0  0  0  0  0  0  0  0  0
   39.7010   34.2320   40.5300 N   0  0  0  0  0  0  0  0  0  0  0  0
   40.1970   33.0130   40.2080 C   0  0  0  0  0  0  0  0  0  0  0  0
   39.4470   32.0790   39.5970 N   0  0  0  0  0  0  0  0  0  0  0  0
   36.6360   33.7580   39.3530 H   0  0  0  0  0  0  0  0  0  0  0  0
   38.0380   35.4710   40.4840 H   0  0  0  0  0  0  0  0  0  0  0  0
   41.2210   32.7760   40.4440 H   0  0  0  0  0  0  0  0  0  0  0  0
  1  2  2  0  0  0  0
  1  6  1  0  0  0  0
  2  3  1  0  0  0  0
  3  8  1  0  0  0  0
  3  4  2  0  0  0  0
  5  4  1  0  0  0  0
  5  9  1  0  0  0  0
  6  5  2  0  0  0  0
  7  1  1  0  0  0  0
  9 11  1  0  0  0  0
  9 10  1  0  0  0  0
 12 13  1  0  0  0  0
 12  9  1  0  0  0  0
 14 12  1  0  0  0  0
 15 16  1  0  0  0  0
 15 12  1  0  0  0  0
 17 18  1  0  0  0  0
 17 16  2  0  0  0  0
 19 17  1  0  0  0  0
 20 19  2  0  0  0  0
 21 19  1  0  0  0  0
 21 22  1  0  0  0  0
 22 15  1  0  0  0  0
 23 22  2  0  0  0  0
 24 21  1  0  0  0  0
 25  2  1  0  0  0  0
 26 25  1  0  0  0  0
 27 32  1  0  0  0  0
 27 26  1  0  0  0  0
 28 27  2  0  0  0  0
 29 30  2  0  0  0  0
 29 28  1  0  0  0  0
 30 31  1  0  0  0  0
 31 36  1  0  0  0  0
 31 26  2  0  0  0  0
 33 28  1  0  0  0  0
 34 29  1  0  0  0  0
 35 30  1  0  0  0  0
 36 37  2  0  0  0  0
 36 41  1  0  0  0  0
 37 38  1  0  0  0  0
 38 43  1  0  0  0  0
 38 39  2  0  0  0  0
 40 44  1  0  0  0  0
 40 39  1  0  0  0  0
 41 40  2  0  0  0  0
 42 37  1  0  0  0  0
M  END
>  <minimizedAffinity>
-6.25356054

$$$$

 OpenBabel03242517493D

 44 47  0  0  0  0  0  0  0  0999 V2000
   36.8500   28.1250   42.2990 C   0  0  0  0  0  0  0  0  0  0  0  0
   37.3670   29.3830   41.9540 C   0  0  0  0  0  0  0  0  0  0  0  0
   38.6700   29.6680   42.3070 C   0  0  0  0  0  0  0  0  0  0  0  0
   39.3880   28.7330   42.9650 N   0  0  0  0  0  0  0  0  0  0  0  0
   38.8580   27.5360   43.2790 C   0  0  0  0  0  0  0  0  0  0  0  0
   37.6000   27.1930   42.9660 N   0  0  0  0  0  0  0  0  0  0  0  0
   35.8350   27.9000   42.0240 H   0  0  0  0  0  0  0  0  0  0  0  0
   39.0600   30.6450   42.0360 H   0  0  0  0  0  0  0  0  0  0  0  0
   39.7090   26.5490   44.0070 C   0  0  0  0  0  0  0  0  0  0  0  0
   40.7010   26.9570   44.2490 H   0  0  0  0  0  0  0  0  0  0  0  0
   39.2000   26.3980   44.9840 H   0  0  0  0  0  0  0  0  0  0  0  0
   39.7170   25.2030   43.3470 C   0  0  0  0  0  0  0  0  0  0  0  0
   38.6520   24.9120   43.2080 H   0  0  0  0  0  0  0  0  0  0  0  0
   40.1600   24.4920   44.0630 H   0  0  0  0  0  0  0  0  0  0  0  0
   40.4190   25.1320   42.1010 N   0  0  0  0  0  0  0  0  0  0  0  0
   41.7110   25.4530   41.8650 C   0  0  0  0  0  3  0  0  0  0  0  0
   42.2290   25.3270   40.6120 C   0  0  0  0  0  0  0  0  0  0  0  0
   43.2760   25.5870   40.4180 H   0  0  0  0  0  0  0  0  0  0  0  0
   41.5100   24.8790   39.5240 C   0  0  0  0  0  0  0  0  0  0  0  0
   41.9410   24.7450   38.3500 O   0  0  0  0  0  0  0  0  0  0  0  0
   40.2170   24.5610   39.7780 N   0  0  0  0  0  0  0  0  0  0  0  0
   39.7060   24.6880   41.0230 C   0  0  0  0  0  0  0  0  0  0  0  0
   38.4980   24.3680   41.1550 O   0  0  0  0  0  0  0  0  0  0  0  0
   39.6270   24.2180   38.9940 H   0  0  0  0  0  0  0  0  0  0  0  0
   36.3630   30.5630   41.0880 S   0  0  0  0  0  0  0  0  0  0  0  0
   36.4080   30.2600   39.3540 C   0  0  0  0  0  0  0  0  0  0  0  0
   35.6660   29.2620   38.7320 C   0  0  0  0  0  0  0  0  0  0  0  0
   35.7560   29.0830   37.3570 C   0  0  0  0  0  0  0  0  0  0  0  0
   36.5620   29.8700   36.5880 C   0  0  0  0  0  0  0  0  0  0  0  0
   37.2960   30.8610   37.2120 C   0  0  0  0  0  0  0  0  0  0  0  0
   37.2360   31.0750   38.5920 C   0  0  0  0  0  0  0  0  0  0  0  0
   35.0260   28.6350   39.3390 H   0  0  0  0  0  0  0  0  0  0  0  0
   35.1880   28.3120   36.8530 H   0  0  0  0  0  0  0  0  0  0  0  0
   36.7000   29.8130   35.5230 H   0  0  0  0  0  0  0  0  0  0  0  0
   37.9580   31.5210   36.6510 H   0  0  0  0  0  0  0  0  0  0  0  0
   38.0130   32.1170   39.2240 C   0  0  0  0  0  0  0  0  0  0  0  0
   37.5350   33.3400   39.5470 C   0  0  0  0  0  0  0  0  0  0  0  0
   38.3110   34.3300   40.1590 C   0  0  0  0  0  0  0  0  0  0  0  0
   39.5980   34.0570   40.4440 N   0  0  0  0  0  0  0  0  0  0  0  0
   40.0780   32.8320   40.1210 C   0  0  0  0  0  0  0  0  0  0  0  0
   39.3080   31.8990   39.5330 N   0  0  0  0  0  0  0  0  0  0  0  0
   36.5050   33.5980   39.3340 H   0  0  0  0  0  0  0  0  0  0  0  0
   37.9440   35.3090   40.4220 H   0  0  0  0  0  0  0  0  0  0  0  0
   41.1040   32.5890   40.3380 H   0  0  0  0  0  0  0  0  0  0  0  0
  1  6  1  0  0  0  0
  2  1  2  0  0  0  0
  2  3  1  0  0  0  0
  3  4  2  0  0  0  0
  4  5  1  0  0  0  0
  5  9  1  0  0  0  0
  6  5  2  0  0  0  0
  7  1  1  0  0  0  0
  8  3  1  0  0  0  0
  9 10  1  0  0  0  0
  9 11  1  0  0  0  0
 12  9  1  0  0  0  0
 12 14  1  0  0  0  0
 13 12  1  0  0  0  0
 15 12  1  0  0  0  0
 16 15  1  0  0  0  0
 17 16  2  0  0  0  0
 18 17  1  0  0  0  0
 19 21  1  0  0  0  0
 19 17  1  0  0  0  0
 20 19  2  0  0  0  0
 21 22  1  0  0  0  0
 22 23  2  0  0  0  0
 22 15  1  0  0  0  0
 24 21  1  0  0  0  0
 25  2  1  0  0  0  0
 26 25  1  0  0  0  0
 27 32  1  0  0  0  0
 27 26  1  0  0  0  0
 28 27  2  0  0  0  0
 29 30  2  0  0  0  0
 29 28  1  0  0  0  0
 30 31  1  0  0  0  0
 31 36  1  0  0  0  0
 31 26  2  0  0  0  0
 33 28  1  0  0  0  0
 34 29  1  0  0  0  0
 35 30  1  0  0  0  0
 36 41  2  0  0  0  0
 36 37  1  0  0  0  0
 37 38  2  0  0  0  0
 38 43  1  0  0  0  0
 38 39  1  0  0  0  0
 40 44  1  0  0  0  0
 40 39  2  0  0  0  0
 41 40  1  0  0  0  0
 42 37  1  0  0  0  0
M  END
>  <minimizedAffinity>
-6.24461842

$$$$

 OpenBabel03242517493D

 44 47  0  0  0  0  0  0  0  0999 V2000
   38.9250   31.0480   41.8590 C   0  0  0  0  0  0  0  0  0  0  0  0
   37.7890   31.3090   41.0780 C   0  0  0  0  0  0  0  0  0  0  0  0
   36.7170   30.4470   41.1830 C   0  0  0  0  0  0  0  0  0  0  0  0
   36.8050   29.3950   42.0260 N   0  0  0  0  0  0  0  0  0  0  0  0
   37.9120   29.1760   42.7590 C   0  0  0  0  0  0  0  0  0  0  0  0
   38.9890   29.9740   42.7060 N   0  0  0  0  0  0  0  0  0  0  0  0
   39.7620   31.7190   41.7790 H   0  0  0  0  0  0  0  0  0  0  0  0
   35.8430   30.6580   40.5750 H   0  0  0  0  0  0  0  0  0  0  0  0
   37.9400   27.9940   43.6700 C   0  0  0  0  0  0  0  0  0  0  0  0
   37.9710   28.2880   44.7290 H   0  0  0  0  0  0  0  0  0  0  0  0
   36.9550   27.4980   43.5260 H   0  0  0  0  0  0  0  0  0  0  0  0
   38.9630   26.9780   43.2600 C   0  0  0  0  0  0  0  0  0  0  0  0
   39.4620   26.6360   44.1950 H   0  0  0  0  0  0  0  0  0  0  0  0
   39.7210   27.5040   42.6580 H   0  0  0  0  0  0  0  0  0  0  0  0
   38.4580   25.8560   42.5270 N   0  0  0  0  0  0  0  0  0  0  0  0
   37.2980   25.7800   41.8370 C   0  0  0  0  0  3  0  0  0  0  0  0
   36.9620   24.6310   41.1890 C   0  0  0  0  0  0  0  0  0  0  0  0
   36.0220   24.5660   40.6300 H   0  0  0  0  0  0  0  0  0  0  0  0
   37.7450   23.4940   41.1820 C   0  0  0  0  0  0  0  0  0  0  0  0
   37.4800   22.4110   40.6010 O   0  0  0  0  0  0  0  0  0  0  0  0
   38.9040   23.5890   41.8790 N   0  0  0  0  0  0  0  0  0  0  0  0
   39.2340   24.7310   42.5200 C   0  0  0  0  0  0  0  0  0  0  0  0
   40.3290   24.7180   43.1380 O   0  0  0  0  0  0  0  0  0  0  0  0
   39.5340   22.7620   41.9080 H   0  0  0  0  0  0  0  0  0  0  0  0
   37.7460   32.7130   39.9920 S   0  0  0  0  0  0  0  0  0  0  0  0
   39.3260   32.9760   39.2590 C   0  0  0  0  0  0  0  0  0  0  0  0
   40.1970   33.9830   39.6600 C   0  0  0  0  0  0  0  0  0  0  0  0
   41.4280   34.1280   39.0320 C   0  0  0  0  0  0  0  0  0  0  0  0
   41.8110   33.2990   38.0190 C   0  0  0  0  0  0  0  0  0  0  0  0
   40.9410   32.3000   37.6250 C   0  0  0  0  0  0  0  0  0  0  0  0
   39.6940   32.1190   38.2300 C   0  0  0  0  0  0  0  0  0  0  0  0
   39.8950   34.6420   40.4630 H   0  0  0  0  0  0  0  0  0  0  0  0
   42.1210   34.9050   39.3270 H   0  0  0  0  0  0  0  0  0  0  0  0
   42.7380   33.3280   37.4720 H   0  0  0  0  0  0  0  0  0  0  0  0
   41.1920   31.6070   36.8220 H   0  0  0  0  0  0  0  0  0  0  0  0
   38.7990   31.0680   37.8030 C   0  0  0  0  0  0  0  0  0  0  0  0
   37.7060   31.2580   37.0290 C   0  0  0  0  0  0  0  0  0  0  0  0
   36.8580   30.2200   36.6310 C   0  0  0  0  0  0  0  0  0  0  0  0
   37.1380   28.9660   37.0350 N   0  0  0  0  0  0  0  0  0  0  0  0
   38.2320   28.7740   37.8100 C   0  0  0  0  0  0  0  0  0  0  0  0
   39.0310   29.7920   38.1780 N   0  0  0  0  0  0  0  0  0  0  0  0
   37.4480   32.2510   36.6850 H   0  0  0  0  0  0  0  0  0  0  0  0
   35.9840   30.3560   36.0150 H   0  0  0  0  0  0  0  0  0  0  0  0
   38.4780   27.7810   38.1470 H   0  0  0  0  0  0  0  0  0  0  0  0
  1  6  1  0  0  0  0
  2  3  1  0  0  0  0
  2  1  2  0  0  0  0
  3  4  2  0  0  0  0
  4  5  1  0  0  0  0
  5  9  1  0  0  0  0
  6  5  2  0  0  0  0
  7  1  1  0  0  0  0
  8  3  1  0  0  0  0
  9 10  1  0  0  0  0
 11  9  1  0  0  0  0
 12  9  1  0  0  0  0
 12 13  1  0  0  0  0
 14 12  1  0  0  0  0
 15 12  1  0  0  0  0
 16 15  1  0  0  0  0
 17 16  2  0  0  0  0
 18 17  1  0  0  0  0
 19 17  1  0  0  0  0
 19 21  1  0  0  0  0
 20 19  2  0  0  0  0
 21 24  1  0  0  0  0
 21 22  1  0  0  0  0
 22 15  1  0  0  0  0
 22 23  2  0  0  0  0
 25  2  1  0  0  0  0
 26 27  1  0  0  0  0
 26 25  1  0  0  0  0
 27 32  1  0  0  0  0
 28 33  1  0  0  0  0
 28 27  2  0  0  0  0
 29 28  1  0  0  0  0
 30 29  2  0  0  0  0
 30 31  1  0  0  0  0
 31 26  2  0  0  0  0
 34 29  1  0  0  0  0
 35 30  1  0  0  0  0
 36 41  1  0  0  0  0
 36 31  1  0  0  0  0
 37 36  2  0  0  0  0
 38 37  1  0  0  0  0
 38 39  2  0  0  0  0
 39 40  1  0  0  0  0
 40 44  1  0  0  0  0
 40 41  2  0  0  0  0
 42 37  1  0  0  0  0
 43 38  1  0  0  0  0
M  END
>  <minimizedAffinity>
-6.22417641

$$$$

 OpenBabel03242517493D

 44 47  0  0  0  0  0  0  0  0999 V2000
   39.3490   31.5930   41.0060 C   0  0  0  0  0  0  0  0  0  0  0  0
   38.0770   32.0420   40.6200 C   0  0  0  0  0  0  0  0  0  0  0  0
   37.9700   33.3080   40.0830 C   0  0  0  0  0  0  0  0  0  0  0  0
   39.0850   34.0580   39.9530 N   0  0  0  0  0  0  0  0  0  0  0  0
   40.2900   33.5950   40.3350 C   0  0  0  0  0  0  0  0  0  0  0  0
   40.4650   32.3740   40.8620 N   0  0  0  0  0  0  0  0  0  0  0  0
   39.4350   30.6060   41.4240 H   0  0  0  0  0  0  0  0  0  0  0  0
   36.9810   33.6450   39.7880 H   0  0  0  0  0  0  0  0  0  0  0  0
   41.4800   34.4780   40.1610 C   0  0  0  0  0  0  0  0  0  0  0  0
   41.4180   35.3830   40.7830 H   0  0  0  0  0  0  0  0  0  0  0  0
   42.3330   33.8920   40.5690 H   0  0  0  0  0  0  0  0  0  0  0  0
   41.8110   34.7170   38.7190 C   0  0  0  0  0  0  0  0  0  0  0  0
   42.0560   35.8000   38.6260 H   0  0  0  0  0  0  0  0  0  0  0  0
   40.8920   34.5380   38.1390 H   0  0  0  0  0  0  0  0  0  0  0  0
   42.8770   33.9200   38.1910 N   0  0  0  0  0  0  0  0  0  0  0  0
   44.2020   34.0610   38.4230 C   0  0  0  0  0  3  0  0  0  0  0  0
   45.0920   33.2120   37.8390 C   0  0  0  0  0  0  0  0  0  0  0  0
   46.1670   33.3250   38.0250 H   0  0  0  0  0  0  0  0  0  0  0  0
   44.7330   32.1800   36.9980 C   0  0  0  0  0  0  0  0  0  0  0  0
   45.5150   31.3710   36.4350 O   0  0  0  0  0  0  0  0  0  0  0  0
   43.4010   32.0530   36.7770 N   0  0  0  0  0  0  0  0  0  0  0  0
   42.5210   32.8970   37.3580 C   0  0  0  0  0  0  0  0  0  0  0  0
   41.3090   32.6970   37.0890 O   0  0  0  0  0  0  0  0  0  0  0  0
   43.0730   31.2920   36.1500 H   0  0  0  0  0  0  0  0  0  0  0  0
   36.6550   30.9970   40.8210 S   0  0  0  0  0  0  0  0  0  0  0  0
   36.5890   29.7890   39.5410 C   0  0  0  0  0  0  0  0  0  0  0  0
   36.2270   30.0810   38.2310 C   0  0  0  0  0  0  0  0  0  0  0  0
   36.1980   29.0730   37.2760 C   0  0  0  0  0  0  0  0  0  0  0  0
   36.5190   27.7850   37.5920 C   0  0  0  0  0  0  0  0  0  0  0  0
   36.8790   27.5010   38.8950 C   0  0  0  0  0  0  0  0  0  0  0  0
   36.9210   28.4850   39.8870 C   0  0  0  0  0  0  0  0  0  0  0  0
   35.9710   31.1020   37.9780 H   0  0  0  0  0  0  0  0  0  0  0  0
   35.9180   29.2780   36.2510 H   0  0  0  0  0  0  0  0  0  0  0  0
   36.5270   26.9370   36.9290 H   0  0  0  0  0  0  0  0  0  0  0  0
   37.1460   26.4910   39.2070 H   0  0  0  0  0  0  0  0  0  0  0  0
   37.3000   28.1660   41.2440 C   0  0  0  0  0  0  0  0  0  0  0  0
   36.4290   27.8690   42.2350 C   0  0  0  0  0  0  0  0  0  0  0  0
   36.8250   27.5640   43.5400 C   0  0  0  0  0  0  0  0  0  0  0  0
   38.1400   27.5640   43.8320 N   0  0  0  0  0  0  0  0  0  0  0  0
   39.0140   27.8610   42.8410 C   0  0  0  0  0  0  0  0  0  0  0  0
   38.6040   28.1500   41.5940 N   0  0  0  0  0  0  0  0  0  0  0  0
   35.3640   27.8590   42.0390 H   0  0  0  0  0  0  0  0  0  0  0  0
   36.1420   27.3260   44.3400 H   0  0  0  0  0  0  0  0  0  0  0  0
   40.0710   27.8680   43.0490 H   0  0  0  0  0  0  0  0  0  0  0  0
  1  7  1  0  0  0  0
  2 25  1  0  0  0  0
  2  1  2  0  0  0  0
  3  2  1  0  0  0  0
  4  3  2  0  0  0  0
  4  5  1  0  0  0  0
  5  6  2  0  0  0  0
  6  1  1  0  0  0  0
  8  3  1  0  0  0  0
  9  5  1  0  0  0  0
  9 11  1  0  0  0  0
  9 10  1  0  0  0  0
 12  9  1  0  0  0  0
 13 12  1  0  0  0  0
 14 12  1  0  0  0  0
 15 16  1  0  0  0  0
 15 12  1  0  0  0  0
 17 18  1  0  0  0  0
 17 16  2  0  0  0  0
 19 17  1  0  0  0  0
 20 19  2  0  0  0  0
 21 19  1  0  0  0  0
 21 22  1  0  0  0  0
 22 15  1  0  0  0  0
 23 22  2  0  0  0  0
 24 21  1  0  0  0  0
 26 31  1  0  0  0  0
 26 25  1  0  0  0  0
 27 26  2  0  0  0  0
 28 29  2  0  0  0  0
 28 27  1  0  0  0  0
 29 30  1  0  0  0  0
 30 35  1  0  0  0  0
 30 31  2  0  0  0  0
 31 36  1  0  0  0  0
 32 27  1  0  0  0  0
 33 28  1  0  0  0  0
 34 29  1  0  0  0  0
 36 41  2  0  0  0  0
 36 37  1  0  0  0  0
 37 38  2  0  0  0  0
 38 39  1  0  0  0  0
 38 43  1  0  0  0  0
 40 44  1  0  0  0  0
 40 39  2  0  0  0  0
 41 40  1  0  0  0  0
 42 37  1  0  0  0  0
M  END
>  <minimizedAffinity>
-6.1711216

$$$$

 OpenBabel03242517493D

 44 47  0  0  0  0  0  0  0  0999 V2000
   39.0740   31.3200   41.2360 C   0  0  0  0  0  0  0  0  0  0  0  0
   37.8470   31.7710   40.7240 C   0  0  0  0  0  0  0  0  0  0  0  0
   37.8340   32.9590   40.0240 C   0  0  0  0  0  0  0  0  0  0  0  0
   38.9920   33.6350   39.8610 N   0  0  0  0  0  0  0  0  0  0  0  0
   40.1500   33.1710   40.3670 C   0  0  0  0  0  0  0  0  0  0  0  0
   40.2350   32.0240   41.0570 N   0  0  0  0  0  0  0  0  0  0  0  0
   39.0870   30.3940   41.7820 H   0  0  0  0  0  0  0  0  0  0  0  0
   36.8800   33.2990   39.6320 H   0  0  0  0  0  0  0  0  0  0  0  0
   41.3920   33.9700   40.1490 C   0  0  0  0  0  0  0  0  0  0  0  0
   41.4470   34.8410   40.8180 H   0  0  0  0  0  0  0  0  0  0  0  0
   42.2220   33.2990   40.4620 H   0  0  0  0  0  0  0  0  0  0  0  0
   41.6380   34.2620   38.7000 C   0  0  0  0  0  0  0  0  0  0  0  0
   41.7620   35.3660   38.6160 H   0  0  0  0  0  0  0  0  0  0  0  0
   40.7200   33.9940   38.1520 H   0  0  0  0  0  0  0  0  0  0  0  0
   42.7610   33.5910   38.1180 N   0  0  0  0  0  0  0  0  0  0  0  0
   44.0720   33.8520   38.3230 C   0  0  0  0  0  3  0  0  0  0  0  0
   45.0240   33.1150   37.6880 C   0  0  0  0  0  0  0  0  0  0  0  0
   46.0870   33.3240   37.8520 H   0  0  0  0  0  0  0  0  0  0  0  0
   44.7430   32.0820   36.8170 C   0  0  0  0  0  0  0  0  0  0  0  0
   45.5830   31.3730   36.2070 O   0  0  0  0  0  0  0  0  0  0  0  0
   43.4240   31.8340   36.6230 N   0  0  0  0  0  0  0  0  0  0  0  0
   42.4830   32.5680   37.2560 C   0  0  0  0  0  0  0  0  0  0  0  0
   41.2890   32.2610   37.0090 O   0  0  0  0  0  0  0  0  0  0  0  0
   43.1540   31.0660   35.9770 H   0  0  0  0  0  0  0  0  0  0  0  0
   36.3650   30.8270   40.9780 S   0  0  0  0  0  0  0  0  0  0  0  0
   36.7560   29.1740   41.4420 C   0  0  0  0  0  0  0  0  0  0  0  0
   37.1260   28.8090   42.7320 C   0  0  0  0  0  0  0  0  0  0  0  0
   37.4200   27.4820   43.0210 C   0  0  0  0  0  0  0  0  0  0  0  0
   37.3550   26.5140   42.0630 C   0  0  0  0  0  0  0  0  0  0  0  0
   36.9850   26.8830   40.7840 C   0  0  0  0  0  0  0  0  0  0  0  0
   36.6810   28.2050   40.4490 C   0  0  0  0  0  0  0  0  0  0  0  0
   37.1800   29.5750   43.4940 H   0  0  0  0  0  0  0  0  0  0  0  0
   37.7120   27.1760   44.0180 H   0  0  0  0  0  0  0  0  0  0  0  0
   37.5610   25.4650   42.1850 H   0  0  0  0  0  0  0  0  0  0  0  0
   36.9150   26.1530   39.9770 H   0  0  0  0  0  0  0  0  0  0  0  0
   36.2960   28.5690   39.1050 C   0  0  0  0  0  0  0  0  0  0  0  0
   35.0250   28.5650   38.6430 C   0  0  0  0  0  0  0  0  0  0  0  0
   34.6830   28.9230   37.3360 C   0  0  0  0  0  0  0  0  0  0  0  0
   35.6630   29.2910   36.4890 N   0  0  0  0  0  0  0  0  0  0  0  0
   36.9370   29.2960   36.9500 C   0  0  0  0  0  0  0  0  0  0  0  0
   37.2370   28.9470   38.2130 N   0  0  0  0  0  0  0  0  0  0  0  0
   34.2100   28.2750   39.2930 H   0  0  0  0  0  0  0  0  0  0  0  0
   33.6740   28.9250   36.9530 H   0  0  0  0  0  0  0  0  0  0  0  0
   37.7390   29.5870   36.2930 H   0  0  0  0  0  0  0  0  0  0  0  0
  1  7  1  0  0  0  0
  2 25  1  0  0  0  0
  2  1  2  0  0  0  0
  3  2  1  0  0  0  0
  4  3  2  0  0  0  0
  4  5  1  0  0  0  0
  5  6  2  0  0  0  0
  6  1  1  0  0  0  0
  8  3  1  0  0  0  0
  9  5  1  0  0  0  0
  9 11  1  0  0  0  0
  9 10  1  0  0  0  0
 12  9  1  0  0  0  0
 13 12  1  0  0  0  0
 14 12  1  0  0  0  0
 15 16  1  0  0  0  0
 15 12  1  0  0  0  0
 17 18  1  0  0  0  0
 17 16  2  0  0  0  0
 19 17  1  0  0  0  0
 20 19  2  0  0  0  0
 21 19  1  0  0  0  0
 21 22  1  0  0  0  0
 22 15  1  0  0  0  0
 23 22  2  0  0  0  0
 24 21  1  0  0  0  0
 25 26  1  0  0  0  0
 26 27  1  0  0  0  0
 27 28  2  0  0  0  0
 27 32  1  0  0  0  0
 28 33  1  0  0  0  0
 29 34  1  0  0  0  0
 29 28  1  0  0  0  0
 30 29  2  0  0  0  0
 31 30  1  0  0  0  0
 31 26  2  0  0  0  0
 35 30  1  0  0  0  0
 36 31  1  0  0  0  0
 37 36  1  0  0  0  0
 37 42  1  0  0  0  0
 38 37  2  0  0  0  0
 39 40  2  0  0  0  0
 39 38  1  0  0  0  0
 40 41  1  0  0  0  0
 41 36  2  0  0  0  0
 43 38  1  0  0  0  0
 44 40  1  0  0  0  0
M  END
>  <minimizedAffinity>
-6.16168022

$$$$

 OpenBabel03242517493D

 44 47  0  0  0  0  0  0  0  0999 V2000
   37.6830   29.6410   42.2290 C   0  0  0  0  0  0  0  0  0  0  0  0
   36.8090   28.6030   41.8720 C   0  0  0  0  0  0  0  0  0  0  0  0
   35.9970   28.7870   40.7720 C   0  0  0  0  0  0  0  0  0  0  0  0
   36.0770   29.9500   40.0890 N   0  0  0  0  0  0  0  0  0  0  0  0
   36.9280   30.9240   40.4610 C   0  0  0  0  0  0  0  0  0  0  0  0
   37.7450   30.8100   41.5190 N   0  0  0  0  0  0  0  0  0  0  0  0
   38.3170   29.4990   43.0860 H   0  0  0  0  0  0  0  0  0  0  0  0
   35.3240   27.9780   40.5040 H   0  0  0  0  0  0  0  0  0  0  0  0
   36.9630   32.1820   39.6600 C   0  0  0  0  0  0  0  0  0  0  0  0
   36.0280   32.3460   39.1050 H   0  0  0  0  0  0  0  0  0  0  0  0
   37.0110   32.9990   40.4140 H   0  0  0  0  0  0  0  0  0  0  0  0
   38.2170   32.3120   38.8500 C   0  0  0  0  0  0  0  0  0  0  0  0
   37.9190   32.7530   37.8720 H   0  0  0  0  0  0  0  0  0  0  0  0
   38.5830   31.2920   38.6510 H   0  0  0  0  0  0  0  0  0  0  0  0
   39.2600   33.0900   39.4480 N   0  0  0  0  0  0  0  0  0  0  0  0
   39.1450   34.2980   40.0460 C   0  0  0  0  0  3  0  0  0  0  0  0
   40.2430   34.9090   40.5690 C   0  0  0  0  0  0  0  0  0  0  0  0
   40.1530   35.8870   41.0550 H   0  0  0  0  0  0  0  0  0  0  0  0
   41.5130   34.3700   40.5350 C   0  0  0  0  0  0  0  0  0  0  0  0
   42.5570   34.8930   41.0030 O   0  0  0  0  0  0  0  0  0  0  0  0
   41.6100   33.1600   39.9320 N   0  0  0  0  0  0  0  0  0  0  0  0
   40.5180   32.5560   39.4140 C   0  0  0  0  0  0  0  0  0  0  0  0
   40.7120   31.4370   38.8750 O   0  0  0  0  0  0  0  0  0  0  0  0
   42.5430   32.7060   39.8770 H   0  0  0  0  0  0  0  0  0  0  0  0
   36.7610   27.1010   42.8180 S   0  0  0  0  0  0  0  0  0  0  0  0
   38.3590   26.3650   42.8920 C   0  0  0  0  0  0  0  0  0  0  0  0
   39.3130   26.7030   43.8450 C   0  0  0  0  0  0  0  0  0  0  0  0
   40.5540   26.0770   43.8390 C   0  0  0  0  0  0  0  0  0  0  0  0
   40.8670   25.1280   42.9110 C   0  0  0  0  0  0  0  0  0  0  0  0
   39.9140   24.7960   41.9670 C   0  0  0  0  0  0  0  0  0  0  0  0
   38.6540   25.4000   41.9370 C   0  0  0  0  0  0  0  0  0  0  0  0
   39.0680   27.4560   44.5820 H   0  0  0  0  0  0  0  0  0  0  0  0
   41.3110   26.3260   44.5710 H   0  0  0  0  0  0  0  0  0  0  0  0
   41.7940   24.5880   42.8220 H   0  0  0  0  0  0  0  0  0  0  0  0
   40.1070   24.0450   41.2010 H   0  0  0  0  0  0  0  0  0  0  0  0
   37.6720   25.0380   40.9410 C   0  0  0  0  0  0  0  0  0  0  0  0
   36.7610   24.0490   41.0860 C   0  0  0  0  0  0  0  0  0  0  0  0
   35.8220   23.7210   40.1030 C   0  0  0  0  0  0  0  0  0  0  0  0
   35.8190   24.4210   38.9530 N   0  0  0  0  0  0  0  0  0  0  0  0
   36.7310   25.4120   38.8060 C   0  0  0  0  0  0  0  0  0  0  0  0
   37.6230   25.7060   39.7690 N   0  0  0  0  0  0  0  0  0  0  0  0
   36.7320   23.4640   41.9960 H   0  0  0  0  0  0  0  0  0  0  0  0
   35.0900   22.9360   40.2040 H   0  0  0  0  0  0  0  0  0  0  0  0
   36.7490   25.9870   37.8960 H   0  0  0  0  0  0  0  0  0  0  0  0
  1  7  1  0  0  0  0
  2  1  1  0  0  0  0
  2 25  1  0  0  0  0
  3  2  2  0  0  0  0
  4  5  2  0  0  0  0
  4  3  1  0  0  0  0
  5  6  1  0  0  0  0
  6  1  2  0  0  0  0
  8  3  1  0  0  0  0
  9 11  1  0  0  0  0
  9  5  1  0  0  0  0
 10  9  1  0  0  0  0
 12 15  1  0  0  0  0
 12  9  1  0  0  0  0
 13 12  1  0  0  0  0
 14 12  1  0  0  0  0
 15 16  1  0  0  0  0
 16 17  2  0  0  0  0
 17 18  1  0  0  0  0
 19 17  1  0  0  0  0
 19 20  2  0  0  0  0
 21 19  1  0  0  0  0
 22 15  1  0  0  0  0
 22 21  1  0  0  0  0
 23 22  2  0  0  0  0
 24 21  1  0  0  0  0
 25 26  1  0  0  0  0
 26 27  1  0  0  0  0
 27 32  1  0  0  0  0
 28 27  2  0  0  0  0
 28 33  1  0  0  0  0
 29 28  1  0  0  0  0
 30 29  2  0  0  0  0
 31 30  1  0  0  0  0
 31 26  2  0  0  0  0
 34 29  1  0  0  0  0
 35 30  1  0  0  0  0
 36 37  1  0  0  0  0
 36 31  1  0  0  0  0
 37 42  1  0  0  0  0
 38 43  1  0  0  0  0
 38 37  2  0  0  0  0
 39 38  1  0  0  0  0
 40 39  2  0  0  0  0
 40 41  1  0  0  0  0
 41 36  2  0  0  0  0
 44 40  1  0  0  0  0
M  END
>  <minimizedAffinity>
-6.16050434

$$$$

 OpenBabel03242517493D

 44 47  0  0  0  0  0  0  0  0999 V2000
   35.9390   29.0460   41.0890 C   0  0  0  0  0  0  0  0  0  0  0  0
   36.9360   28.7230   42.0220 C   0  0  0  0  0  0  0  0  0  0  0  0
   37.9570   29.6280   42.2200 C   0  0  0  0  0  0  0  0  0  0  0  0
   37.9570   30.7790   41.5140 N   0  0  0  0  0  0  0  0  0  0  0  0
   36.9840   31.0540   40.6260 C   0  0  0  0  0  0  0  0  0  0  0  0
   35.9620   30.2200   40.3840 N   0  0  0  0  0  0  0  0  0  0  0  0
   35.1410   28.3420   40.9330 H   0  0  0  0  0  0  0  0  0  0  0  0
   38.7240   29.3680   42.9450 H   0  0  0  0  0  0  0  0  0  0  0  0
   37.0470   32.3450   39.8790 C   0  0  0  0  0  0  0  0  0  0  0  0
   36.1710   32.9800   40.0760 H   0  0  0  0  0  0  0  0  0  0  0  0
   37.9140   32.8870   40.3170 H   0  0  0  0  0  0  0  0  0  0  0  0
   37.3840   32.1540   38.4310 C   0  0  0  0  0  0  0  0  0  0  0  0
   37.2970   33.1550   37.9510 H   0  0  0  0  0  0  0  0  0  0  0  0
   36.6010   31.5140   37.9960 H   0  0  0  0  0  0  0  0  0  0  0  0
   38.6730   31.5870   38.1680 N   0  0  0  0  0  0  0  0  0  0  0  0
   39.8810   32.1190   38.4640 C   0  0  0  0  0  3  0  0  0  0  0  0
   41.0200   31.4460   38.1440 C   0  0  0  0  0  0  0  0  0  0  0  0
   42.0000   31.8750   38.3820 H   0  0  0  0  0  0  0  0  0  0  0  0
   41.0380   30.2160   37.5180 C   0  0  0  0  0  0  0  0  0  0  0  0
   42.0600   29.5560   37.2030 O   0  0  0  0  0  0  0  0  0  0  0  0
   39.8180   29.6990   37.2300 N   0  0  0  0  0  0  0  0  0  0  0  0
   38.6900   30.3700   37.5490 C   0  0  0  0  0  0  0  0  0  0  0  0
   37.6100   29.8060   37.2390 O   0  0  0  0  0  0  0  0  0  0  0  0
   39.7720   28.7740   36.7580 H   0  0  0  0  0  0  0  0  0  0  0  0
   36.8690   27.1900   42.9160 S   0  0  0  0  0  0  0  0  0  0  0  0
   38.4560   26.4270   42.9560 C   0  0  0  0  0  0  0  0  0  0  0  0
   39.4340   26.7450   43.8920 C   0  0  0  0  0  0  0  0  0  0  0  0
   40.6640   26.1000   43.8590 C   0  0  0  0  0  0  0  0  0  0  0  0
   40.9440   25.1490   42.9220 C   0  0  0  0  0  0  0  0  0  0  0  0
   39.9670   24.8380   41.9950 C   0  0  0  0  0  0  0  0  0  0  0  0
   38.7180   25.4620   41.9920 C   0  0  0  0  0  0  0  0  0  0  0  0
   39.2160   27.4990   44.6370 H   0  0  0  0  0  0  0  0  0  0  0  0
   41.4390   26.3320   44.5770 H   0  0  0  0  0  0  0  0  0  0  0  0
   41.8600   24.5950   42.8120 H   0  0  0  0  0  0  0  0  0  0  0  0
   40.1330   24.0870   41.2220 H   0  0  0  0  0  0  0  0  0  0  0  0
   37.7110   25.1210   41.0130 C   0  0  0  0  0  0  0  0  0  0  0  0
   36.8530   24.0810   41.1260 C   0  0  0  0  0  0  0  0  0  0  0  0
   35.8880   23.7750   40.1610 C   0  0  0  0  0  0  0  0  0  0  0  0
   35.8030   24.5490   39.0640 N   0  0  0  0  0  0  0  0  0  0  0  0
   36.6620   25.5910   38.9490 C   0  0  0  0  0  0  0  0  0  0  0  0
   37.5800   25.8630   39.8930 N   0  0  0  0  0  0  0  0  0  0  0  0
   36.8900   23.4350   41.9940 H   0  0  0  0  0  0  0  0  0  0  0  0
   35.1970   22.9500   40.2370 H   0  0  0  0  0  0  0  0  0  0  0  0
   36.6140   26.2260   38.0800 H   0  0  0  0  0  0  0  0  0  0  0  0
  1  2  1  0  0  0  0
  2  3  2  0  0  0  0
  2 25  1  0  0  0  0
  3  8  1  0  0  0  0
  4  3  1  0  0  0  0
  5  4  2  0  0  0  0
  6  5  1  0  0  0  0
  6  1  2  0  0  0  0
  7  1  1  0  0  0  0
  9 10  1  0  0  0  0
  9 11  1  0  0  0  0
  9  5  1  0  0  0  0
 12  9  1  0  0  0  0
 13 12  1  0  0  0  0
 14 12  1  0  0  0  0
 15 12  1  0  0  0  0
 15 16  1  0  0  0  0
 17 18  1  0  0  0  0
 17 16  2  0  0  0  0
 19 17  1  0  0  0  0
 20 19  2  0  0  0  0
 21 19  1  0  0  0  0
 21 22  1  0  0  0  0
 22 15  1  0  0  0  0
 23 22  2  0  0  0  0
 24 21  1  0  0  0  0
 25 26  1  0  0  0  0
 26 27  1  0  0  0  0
 27 32  1  0  0  0  0
 28 27  2  0  0  0  0
 28 33  1  0  0  0  0
 29 28  1  0  0  0  0
 30 29  2  0  0  0  0
 31 30  1  0  0  0  0
 31 26  2  0  0  0  0
 34 29  1  0  0  0  0
 35 30  1  0  0  0  0
 36 37  1  0  0  0  0
 36 31  1  0  0  0  0
 37 42  1  0  0  0  0
 38 43  1  0  0  0  0
 38 37  2  0  0  0  0
 39 38  1  0  0  0  0
 40 39  2  0  0  0  0
 40 41  1  0  0  0  0
 41 36  2  0  0  0  0
 44 40  1  0  0  0  0
M  END
>  <minimizedAffinity>
-6.0659976

$$$$

 OpenBabel03242517493D

 44 47  0  0  0  0  0  0  0  0999 V2000
   39.0110   30.7660   41.9030 C   0  0  0  0  0  0  0  0  0  0  0  0
   37.8220   30.9220   41.1740 C   0  0  0  0  0  0  0  0  0  0  0  0
   36.8240   29.9880   41.3520 C   0  0  0  0  0  0  0  0  0  0  0  0
   37.0290   28.9680   42.2140 N   0  0  0  0  0  0  0  0  0  0  0  0
   38.1830   28.8500   42.8960 C   0  0  0  0  0  0  0  0  0  0  0  0
   39.1940   29.7230   42.7720 N   0  0  0  0  0  0  0  0  0  0  0  0
   39.7910   31.4930   41.7660 H   0  0  0  0  0  0  0  0  0  0  0  0
   35.9080   30.1180   40.7830 H   0  0  0  0  0  0  0  0  0  0  0  0
   38.3420   27.6990   43.8320 C   0  0  0  0  0  0  0  0  0  0  0  0
   38.8420   27.9900   44.7670 H   0  0  0  0  0  0  0  0  0  0  0  0
   37.3040   27.4210   44.1220 H   0  0  0  0  0  0  0  0  0  0  0  0
   38.9070   26.4860   43.1580 C   0  0  0  0  0  0  0  0  0  0  0  0
   38.6910   26.5970   42.0710 H   0  0  0  0  0  0  0  0  0  0  0  0
   38.3350   25.6160   43.5180 H   0  0  0  0  0  0  0  0  0  0  0  0
   40.3070   26.2620   43.3650 N   0  0  0  0  0  0  0  0  0  0  0  0
   41.1600   27.0120   44.0990 C   0  0  0  0  0  3  0  0  0  0  0  0
   42.4710   26.6600   44.1950 C   0  0  0  0  0  0  0  0  0  0  0  0
   43.1650   27.2660   44.7890 H   0  0  0  0  0  0  0  0  0  0  0  0
   43.0180   25.5530   43.5770 C   0  0  0  0  0  0  0  0  0  0  0  0
   44.2190   25.1860   43.6340 O   0  0  0  0  0  0  0  0  0  0  0  0
   42.1490   24.8130   42.8450 N   0  0  0  0  0  0  0  0  0  0  0  0
   40.8480   25.1660   42.7530 C   0  0  0  0  0  0  0  0  0  0  0  0
   40.1240   24.4160   42.0510 O   0  0  0  0  0  0  0  0  0  0  0  0
   42.5060   23.9680   42.3580 H   0  0  0  0  0  0  0  0  0  0  0  0
   37.6240   32.2900   40.0590 S   0  0  0  0  0  0  0  0  0  0  0  0
   39.1420   32.6430   39.2370 C   0  0  0  0  0  0  0  0  0  0  0  0
   40.0030   33.6620   39.6260 C   0  0  0  0  0  0  0  0  0  0  0  0
   41.1840   33.8800   38.9270 C   0  0  0  0  0  0  0  0  0  0  0  0
   41.5270   33.1110   37.8540 C   0  0  0  0  0  0  0  0  0  0  0  0
   40.6660   32.0990   37.4720 C   0  0  0  0  0  0  0  0  0  0  0  0
   39.4690   31.8460   38.1480 C   0  0  0  0  0  0  0  0  0  0  0  0
   39.7340   34.2740   40.4770 H   0  0  0  0  0  0  0  0  0  0  0  0
   41.8680   34.6680   39.2120 H   0  0  0  0  0  0  0  0  0  0  0  0
   42.4130   33.1980   37.2500 H   0  0  0  0  0  0  0  0  0  0  0  0
   40.8870   31.4520   36.6230 H   0  0  0  0  0  0  0  0  0  0  0  0
   38.5840   30.7820   37.7320 C   0  0  0  0  0  0  0  0  0  0  0  0
   37.5000   30.9510   36.9410 C   0  0  0  0  0  0  0  0  0  0  0  0
   36.6610   29.9010   36.5540 C   0  0  0  0  0  0  0  0  0  0  0  0
   36.9410   28.6580   36.9880 N   0  0  0  0  0  0  0  0  0  0  0  0
   38.0260   28.4860   37.7800 C   0  0  0  0  0  0  0  0  0  0  0  0
   38.8160   29.5150   38.1360 N   0  0  0  0  0  0  0  0  0  0  0  0
   37.2420   31.9360   36.5730 H   0  0  0  0  0  0  0  0  0  0  0  0
   35.7940   30.0210   35.9250 H   0  0  0  0  0  0  0  0  0  0  0  0
   38.2720   27.5020   38.1400 H   0  0  0  0  0  0  0  0  0  0  0  0
  1  6  1  0  0  0  0
  2  3  1  0  0  0  0
  2  1  2  0  0  0  0
  3  4  2  0  0  0  0
  4  5  1  0  0  0  0
  5  9  1  0  0  0  0
  6  5  2  0  0  0  0
  7  1  1  0  0  0  0
  8  3  1  0  0  0  0
  9 11  1  0  0  0  0
  9 10  1  0  0  0  0
 12 15  1  0  0  0  0
 12 14  1  0  0  0  0
 12  9  1  0  0  0  0
 13 12  1  0  0  0  0
 15 16  1  0  0  0  0
 16 17  2  0  0  0  0
 17 18  1  0  0  0  0
 19 20  2  0  0  0  0
 19 17  1  0  0  0  0
 21 19  1  0  0  0  0
 22 21  1  0  0  0  0
 22 15  1  0  0  0  0
 23 22  2  0  0  0  0
 24 21  1  0  0  0  0
 25  2  1  0  0  0  0
 26 27  1  0  0  0  0
 26 25  1  0  0  0  0
 27 32  1  0  0  0  0
 28 33  1  0  0  0  0
 28 27  2  0  0  0  0
 29 28  1  0  0  0  0
 30 29  2  0  0  0  0
 30 31  1  0  0  0  0
 31 26  2  0  0  0  0
 34 29  1  0  0  0  0
 35 30  1  0  0  0  0
 36 41  1  0  0  0  0
 36 31  1  0  0  0  0
 37 36  2  0  0  0  0
 38 37  1  0  0  0  0
 38 39  2  0  0  0  0
 39 40  1  0  0  0  0
 40 41  2  0  0  0  0
 40 44  1  0  0  0  0
 42 37  1  0  0  0  0
 43 38  1  0  0  0  0
M  END
>  <minimizedAffinity>
-6.04368973

$$$$
