
 OpenBabel03252507463D

 38 40  0  0  0  0  0  0  0  0999 V2000
   47.2620   34.5510   40.9000 C   0  0  0  0  0  0  0  0  0  0  0  0
   47.4450   35.4260   40.2620 H   0  0  0  0  0  0  0  0  0  0  0  0
   46.6640   33.8280   40.3230 H   0  0  0  0  0  0  0  0  0  0  0  0
   48.5610   33.9900   41.3190 C   0  0  0  0  0  0  0  0  0  0  0  0
   48.8550   32.7120   40.8790 C   0  0  0  0  0  0  0  0  0  0  0  0
   50.0450   32.0850   41.2110 C   0  0  0  0  0  0  0  0  0  0  0  0
   50.9150   32.8060   42.0000 N   0  0  0  0  0  0  0  0  0  0  0  0
   50.5910   34.0470   42.4070 C   0  0  0  0  0  0  0  0  0  0  0  0
   49.4420   34.6250   42.0750 N   0  0  0  0  0  0  0  0  0  0  0  0
   50.2940   31.0980   40.8830 H   0  0  0  0  0  0  0  0  0  0  0  0
   51.2530   34.6440   43.0320 H   0  0  0  0  0  0  0  0  0  0  0  0
   47.6770   31.8010   39.8400 S   0  0  0  0  0  0  0  0  0  0  0  0
   50.5010   32.0480   35.8650 H   0  0  0  0  0  0  0  0  0  0  0  0
   49.5590   32.2560   36.2710 N   0  0  0  0  0  0  0  0  0  0  0  0
   49.3910   31.9140   37.5470 C   0  0  0  0  0  3  0  0  0  0  0  0
   48.1840   32.1550   38.1470 C   0  0  0  0  0  0  0  0  0  0  0  0
   47.1550   32.7500   37.4230 C   0  0  0  0  0  0  0  0  0  0  0  0
   45.9890   33.0280   37.8580 O   0  0  0  0  0  0  0  0  0  0  0  0
   47.3570   33.0890   36.1230 N   0  0  0  0  0  0  0  0  0  0  0  0
   48.5620   32.8360   35.5590 C   0  0  0  0  0  0  0  0  0  0  0  0
   48.8090   33.1240   34.3650 O   0  0  0  0  0  0  0  0  0  0  0  0
   46.6050   33.5370   35.5460 H   0  0  0  0  0  0  0  0  0  0  0  0
   46.4040   34.9780   42.0630 C   0  0  0  0  0  0  0  0  0  0  0  0
   46.7020   34.4190   42.9710 H   0  0  0  0  0  0  0  0  0  0  0  0
   46.6330   36.0540   42.2770 H   0  0  0  0  0  0  0  0  0  0  0  0
   44.9480   34.9350   41.7810 C   0  0  0  0  0  0  0  0  0  0  0  0
   44.0290   35.4670   42.7430 C   0  0  0  0  0  0  0  0  0  0  0  0
   42.3980   35.1870   41.9550 S   0  0  0  0  0  0  0  0  0  0  0  0
   43.2350   34.3930   40.4440 C   0  0  0  0  0  0  0  0  0  0  0  0
   44.3380   34.4620   40.7320 N   0  0  0  0  0  0  0  0  0  0  0  0
   44.2650   35.9170   43.6950 H   0  0  0  0  0  0  0  0  0  0  0  0
   42.5240   33.9060   39.3570 O   0  0  0  0  0  0  0  0  0  0  0  0
   40.5350   34.2970   37.6500 O   0  0  0  0  0  0  0  0  0  0  0  0
   41.6060   35.0280   38.4570 P   0  0  0  0  0  0  0  0  0  0  0  0
   40.8490   36.0680   39.5530 O   0  0  0  0  0  0  0  0  0  0  0  0
   40.3420   36.7520   39.0470 H   0  0  0  0  0  0  0  0  0  0  0  0
   42.6200   35.9200   37.4400 O   0  0  0  0  0  0  0  0  0  0  0  0
   42.7080   35.4960   36.5660 H   0  0  0  0  0  0  0  0  0  0  0  0
  1  4  1  0  0  0  0
  1 23  1  0  0  0  0
  2  1  1  0  0  0  0
  3  1  1  0  0  0  0
  4  9  1  0  0  0  0
  5  6  1  0  0  0  0
  5  4  2  0  0  0  0
  6  7  2  0  0  0  0
  7  8  1  0  0  0  0
  8 11  1  0  0  0  0
  9  8  2  0  0  0  0
 10  6  1  0  0  0  0
 12  5  1  0  0  0  0
 13 14  1  0  0  0  0
 14 15  1  0  0  0  0
 15 16  2  0  0  0  0
 16 12  1  0  0  0  0
 17 18  2  0  0  0  0
 17 16  1  0  0  0  0
 19 17  1  0  0  0  0
 20 19  1  0  0  0  0
 20 14  1  0  0  0  0
 21 20  2  0  0  0  0
 22 19  1  0  0  0  0
 23 25  1  0  0  0  0
 23 24  1  0  0  0  0
 26 23  1  0  0  0  0
 26 27  2  0  0  0  0
 27 31  1  0  0  0  0
 28 27  1  0  0  0  0
 29 30  2  0  0  0  0
 29 28  1  0  0  0  0
 30 26  1  0  0  0  0
 32 29  1  0  0  0  0
 33 34  2  0  0  0  0
 34 32  1  0  0  0  0
 34 35  1  0  0  0  0
 36 35  1  0  0  0  0
 37 34  1  0  0  0  0
 38 37  1  0  0  0  0
M  END
>  <minimizedAffinity>
-5.64081383

>  <minimizedRMSD>
0.307308197

$$$$
