
 OpenBabel03252508463D

 46 48  0  0  0  0  0  0  0  0999 V2000
   42.7320   31.5900   42.5720 N   0  0  0  0  0  0  0  0  0  0  0  0
   43.2600   30.6890   42.5390 H   0  0  0  0  0  0  0  0  0  0  0  0
   43.1340   32.5750   41.6220 C   0  0  0  0  0  0  0  0  0  0  0  0
   43.7360   32.1070   40.7910 H   0  0  0  0  0  0  0  0  0  0  0  0
   42.2260   32.9900   41.1510 H   0  0  0  0  0  0  0  0  0  0  0  0
   43.6790   35.0090   41.8840 C   0  0  0  0  0  0  0  0  0  0  0  0
   43.9660   33.6780   42.1800 C   0  0  0  0  0  0  0  0  0  0  0  0
   45.0390   33.4060   43.0020 C   0  0  0  0  0  0  0  0  0  0  0  0
   45.7910   34.4360   43.5030 C   0  0  0  0  0  0  0  0  0  0  0  0
   45.5310   35.7490   43.2290 C   0  0  0  0  0  0  0  0  0  0  0  0
   44.4480   35.9710   42.4030 C   0  0  0  0  0  0  0  0  0  0  0  0
   45.2980   32.3870   43.2570 H   0  0  0  0  0  0  0  0  0  0  0  0
   46.6390   34.2040   44.1540 H   0  0  0  0  0  0  0  0  0  0  0  0
   46.0920   36.5930   43.5990 H   0  0  0  0  0  0  0  0  0  0  0  0
   44.1610   36.9890   42.1270 H   0  0  0  0  0  0  0  0  0  0  0  0
   40.2490   35.7900   40.5140 C   0  0  0  0  0  0  0  0  0  0  0  0
   41.2760   35.5960   41.4460 C   0  0  0  0  0  0  0  0  0  0  0  0
   42.5340   35.2380   41.0110 C   0  0  0  0  0  0  0  0  0  0  0  0
   42.6940   35.0930   39.6640 N   0  0  0  0  0  0  0  0  0  0  0  0
   41.7000   35.2830   38.7710 C   0  0  0  0  0  0  0  0  0  0  0  0
   40.4790   35.6320   39.2110 N   0  0  0  0  0  0  0  0  0  0  0  0
   39.2620   36.0720   40.8600 H   0  0  0  0  0  0  0  0  0  0  0  0
   41.1320   35.7140   42.4920 H   0  0  0  0  0  0  0  0  0  0  0  0
   42.0270   35.1190   37.7390 H   0  0  0  0  0  0  0  0  0  0  0  0
   41.0470   31.2660   42.5130 S   0  0  0  0  0  0  0  0  0  0  0  0
   40.2480   32.5420   42.6420 O   0  0  0  0  0  0  0  0  0  0  0  0
   39.5200   32.7140   43.2870 H   0  0  0  0  0  0  0  0  0  0  0  0
   40.6540   30.2980   43.5720 O   0  0  0  0  0  0  0  0  0  0  0  0
   41.2020   29.4800   43.7950 H   0  0  0  0  0  0  0  0  0  0  0  0
   40.7140   30.5860   41.0120 O   0  0  0  0  0  0  0  0  0  0  0  0
   40.3990   29.2450   41.2130 C   0  0  0  0  0  0  0  0  0  0  0  0
   39.2790   29.1720   41.1850 H   0  0  0  0  0  0  0  0  0  0  0  0
   40.7600   28.8160   42.1430 H   0  0  0  0  0  0  0  0  0  0  0  0
   40.8860   28.4370   39.9950 C   0  0  0  0  0  0  0  0  0  0  0  0
   41.9830   28.5660   39.9090 H   0  0  0  0  0  0  0  0  0  0  0  0
   40.6890   27.3710   40.1580 H   0  0  0  0  0  0  0  0  0  0  0  0
   40.1770   28.9010   38.8210 N   0  0  0  0  0  0  0  0  0  0  0  0
   38.8340   28.7640   38.7530 C   0  0  0  0  0  3  0  0  0  0  0  0
   38.2050   29.2270   37.6030 C   0  0  0  0  0  0  0  0  0  0  0  0
   37.1150   29.1410   37.4940 H   0  0  0  0  0  0  0  0  0  0  0  0
   38.9680   29.7950   36.6030 C   0  0  0  0  0  0  0  0  0  0  0  0
   38.4370   30.2350   35.5310 O   0  0  0  0  0  0  0  0  0  0  0  0
   40.3130   29.9070   36.7240 N   0  0  0  0  0  0  0  0  0  0  0  0
   40.9120   29.4580   37.8380 C   0  0  0  0  0  0  0  0  0  0  0  0
   42.1800   29.5620   37.9550 O   0  0  0  0  0  0  0  0  0  0  0  0
   40.9210   30.3310   35.9890 H   0  0  0  0  0  0  0  0  0  0  0  0
  2  1  1  0  0  0  0
  3  7  1  0  0  0  0
  3  1  1  0  0  0  0
  4  3  1  0  0  0  0
  5  3  1  0  0  0  0
  6  7  2  0  0  0  0
  6 11  1  0  0  0  0
  7  8  1  0  0  0  0
  8 12  1  0  0  0  0
  8  9  2  0  0  0  0
  9 13  1  0  0  0  0
 10  9  1  0  0  0  0
 10 14  1  0  0  0  0
 11 10  2  0  0  0  0
 15 11  1  0  0  0  0
 16 22  1  0  0  0  0
 16 17  1  0  0  0  0
 17 23  1  0  0  0  0
 18 17  2  0  0  0  0
 18  6  1  0  0  0  0
 19 18  1  0  0  0  0
 20 21  1  0  0  0  0
 20 19  2  0  0  0  0
 21 16  2  0  0  0  0
 24 20  1  0  0  0  0
 25  1  1  0  0  0  0
 25 26  1  0  0  0  0
 25 28  1  0  0  0  0
 26 27  1  0  0  0  0
 28 29  1  0  0  0  0
 30 31  1  0  0  0  0
 30 25  1  0  0  0  0
 31 33  1  0  0  0  0
 32 31  1  0  0  0  0
 34 36  1  0  0  0  0
 34 31  1  0  0  0  0
 35 34  1  0  0  0  0
 37 34  1  0  0  0  0
 38 37  1  0  0  0  0
 39 38  2  0  0  0  0
 40 39  1  0  0  0  0
 41 43  1  0  0  0  0
 41 39  1  0  0  0  0
 42 41  2  0  0  0  0
 43 44  1  0  0  0  0
 44 45  2  0  0  0  0
 44 37  1  0  0  0  0
 46 43  1  0  0  0  0
M  END
>  <minimizedAffinity>
-5.03547192

>  <minimizedRMSD>
1.53462887

$$$$
