
 OpenBabel03252503383D

 42 45  0  0  1  0  0  0  0  0999 V2000
   45.7670   34.6090   41.1240 C   0  0  1  0  0  0  0  0  0  0  0  0
   44.3330   35.1000   41.6570 C   0  0  0  0  0  0  0  0  0  0  0  0
   44.5000   36.1310   42.7170 C   0  0  0  0  0  0  0  0  0  0  0  0
   45.1370   35.5760   43.9720 C   0  0  0  0  0  0  0  0  0  0  0  0
   45.9780   34.3780   43.5910 C   0  0  0  0  0  0  0  0  0  0  0  0
   46.6730   34.6560   42.2560 C   0  0  1  0  0  0  0  0  0  0  0  0
   45.9030   35.3780   40.3280 H   0  0  0  0  0  0  0  0  0  0  0  0
   43.8580   34.1660   41.9820 H   0  0  0  0  0  0  0  0  0  0  0  0
   43.7770   35.5260   40.8210 H   0  0  0  0  0  0  0  0  0  0  0  0
   45.0650   36.9780   42.2980 H   0  0  0  0  0  0  0  0  0  0  0  0
   43.5030   36.4960   42.9720 H   0  0  0  0  0  0  0  0  0  0  0  0
   45.8180   36.3440   44.3870 H   0  0  0  0  0  0  0  0  0  0  0  0
   44.3860   35.2870   44.7300 H   0  0  0  0  0  0  0  0  0  0  0  0
   45.2000   33.5830   43.3380 H   0  0  0  0  0  0  0  0  0  0  0  0
   46.5680   33.9370   44.3640 H   0  0  0  0  0  0  0  0  0  0  0  0
   46.8850   35.8090   42.3800 H   0  0  0  0  0  0  0  0  0  0  0  0
   47.9570   34.1050   42.2410 N   0  0  0  0  0  0  0  0  0  0  0  0
   47.9820   32.7550   42.4540 C   0  0  0  0  0  0  0  0  0  0  0  0
   49.1660   32.0490   42.4800 C   0  0  0  0  0  0  0  0  0  0  0  0
   49.3330   30.9850   42.6350 H   0  0  0  0  0  0  0  0  0  0  0  0
   50.3860   32.7080   42.2860 C   0  0  0  0  0  0  0  0  0  0  0  0
   51.5150   32.1300   42.2950 O   0  0  0  0  0  0  0  0  0  0  0  0
   50.3750   34.0300   42.0780 N   0  0  0  0  0  0  0  0  0  0  0  0
   49.1780   34.6320   42.0700 C   0  0  0  0  0  0  0  0  0  0  0  0
   49.2250   35.8670   41.8770 O   0  0  0  0  0  0  0  0  0  0  0  0
   51.2540   34.5470   41.9330 H   0  0  0  0  0  0  0  0  0  0  0  0
   45.4990   33.3070   40.4720 C   0  0  0  0  0  0  0  0  0  0  0  0
   45.9900   32.7940   39.2800 C   0  0  0  0  0  0  0  0  0  0  0  0
   45.5450   31.5450   38.9150 C   0  0  0  0  0  0  0  0  0  0  0  0
   44.6520   30.8740   39.7360 N   0  0  0  0  0  0  0  0  0  0  0  0
   44.2030   31.4230   40.8970 C   0  0  0  0  0  0  0  0  0  0  0  0
   44.6440   32.6590   41.2550 N   0  0  0  0  0  0  0  0  0  0  0  0
   45.8980   31.1040   37.9940 H   0  0  0  0  0  0  0  0  0  0  0  0
   43.5190   30.7440   41.3900 H   0  0  0  0  0  0  0  0  0  0  0  0
   47.0040   33.4750   38.4280 C   0  0  0  0  0  0  0  0  0  0  0  0
   48.0600   34.2410   38.9110 C   0  0  0  0  0  0  0  0  0  0  0  0
   48.5040   32.8870   38.5820 C   0  0  0  0  0  0  0  0  0  0  0  0
   46.7970   33.1660   37.3360 H   0  0  0  0  0  0  0  0  0  0  0  0
   48.0740   34.5790   39.9800 H   0  0  0  0  0  0  0  0  0  0  0  0
   48.4620   35.1000   38.2760 H   0  0  0  0  0  0  0  0  0  0  0  0
   49.0660   32.7590   37.6670 H   0  0  0  0  0  0  0  0  0  0  0  0
   48.5580   32.1410   39.4020 H   0  0  0  0  0  0  0  0  0  0  0  0
  1  7  1  6  0  0  0
  1  2  1  0  0  0  0
  1  6  1  0  0  0  0
  2  8  1  0  0  0  0
  2  3  1  0  0  0  0
  3 11  1  0  0  0  0
  3  4  1  0  0  0  0
  4 12  1  0  0  0  0
  4 13  1  0  0  0  0
  5  4  1  0  0  0  0
  5 15  1  0  0  0  0
  6 16  1  1  0  0  0
  6  5  1  0  0  0  0
  9  2  1  0  0  0  0
 10  3  1  0  0  0  0
 14  5  1  0  0  0  0
 17  6  1  0  0  0  0
 17 18  1  0  0  0  0
 18 19  2  0  0  0  0
 19 20  1  0  0  0  0
 21 22  2  0  0  0  0
 21 19  1  0  0  0  0
 23 21  1  0  0  0  0
 24 23  1  0  0  0  0
 24 17  1  0  0  0  0
 25 24  2  0  0  0  0
 26 23  1  0  0  0  0
 27  1  1  0  0  0  0
 27 32  1  0  0  0  0
 28 27  2  0  0  0  0
 29 28  1  0  0  0  0
 29 30  2  0  0  0  0
 30 31  1  0  0  0  0
 31 32  2  0  0  0  0
 31 34  1  0  0  0  0
 33 29  1  0  0  0  0
 35 37  1  0  0  0  0
 35 36  1  0  0  0  0
 35 28  1  0  0  0  0
 36 39  1  0  0  0  0
 37 36  1  0  0  0  0
 37 42  1  0  0  0  0
 38 35  1  0  0  0  0
 40 36  1  0  0  0  0
 41 37  1  0  0  0  0
M  END
>  <minimizedAffinity>
-4.96906948

>  <minimizedRMSD>
5.52471495

$$$$
