
 OpenBabel03252504103D

 26 27  0  0  0  0  0  0  0  0999 V2000
   46.9880   34.3350   42.5130 C   0  0  0  0  0  0  0  0  0  0  0  0
   45.6690   34.4230   42.9800 C   0  0  0  0  0  0  0  0  0  0  0  0
   45.0410   33.2420   43.4100 C   0  0  0  0  0  0  0  0  0  0  0  0
   45.7380   32.0830   43.3510 N   0  0  0  0  0  0  0  0  0  0  0  0
   47.0180   32.0390   42.8900 C   0  0  0  0  0  0  0  0  0  0  0  0
   47.6310   33.1560   42.4770 N   0  0  0  0  0  0  0  0  0  0  0  0
   44.0350   33.2950   43.7690 H   0  0  0  0  0  0  0  0  0  0  0  0
   47.7010   30.7890   42.8520 N   0  0  0  0  0  0  0  0  0  0  0  0
   48.6730   30.5200   43.7410 C   0  0  0  0  0  3  0  0  0  0  0  0
   49.3740   29.3160   43.7510 C   0  0  0  0  0  0  0  0  0  0  0  0
   50.1540   29.1160   44.4760 H   0  0  0  0  0  0  0  0  0  0  0  0
   48.9880   28.4250   42.7720 C   0  0  0  0  0  0  0  0  0  0  0  0
   49.6010   27.3090   42.7420 O   0  0  0  0  0  0  0  0  0  0  0  0
   48.0200   28.6760   41.8730 N   0  0  0  0  0  0  0  0  0  0  0  0
   47.3810   29.8800   41.9320 C   0  0  0  0  0  0  0  0  0  0  0  0
   46.4720   30.1350   41.1000 O   0  0  0  0  0  0  0  0  0  0  0  0
   47.7810   27.9570   41.1620 H   0  0  0  0  0  0  0  0  0  0  0  0
   44.9970   35.7490   43.0010 C   0  0  0  0  0  0  0  0  0  0  0  0
   45.9330   36.7570   43.0980 F   0  0  0  0  0  0  0  0  0  0  0  0
   44.3320   35.9170   41.7940 F   0  0  0  0  0  0  0  0  0  0  0  0
   44.1070   35.9120   44.0250 F   0  0  0  0  0  0  0  0  0  0  0  0
   47.5760   35.4750   42.1050 O   0  0  0  0  0  0  0  0  0  0  0  0
   48.7780   35.5990   41.3910 C   0  0  0  0  0  0  0  0  0  0  0  0
   49.6970   34.7320   41.9730 F   0  0  0  0  0  0  0  0  0  0  0  0
   48.5560   35.3480   40.0580 F   0  0  0  0  0  0  0  0  0  0  0  0
   49.3170   36.8630   41.6000 F   0  0  0  0  0  0  0  0  0  0  0  0
  1  2  1  0  0  0  0
  2 18  1  0  0  0  0
  2  3  2  0  0  0  0
  3  7  1  0  0  0  0
  4  3  1  0  0  0  0
  5  4  2  0  0  0  0
  6  1  2  0  0  0  0
  6  5  1  0  0  0  0
  8  5  1  0  0  0  0
  8  9  1  0  0  0  0
  9 10  2  0  0  0  0
 10 11  1  0  0  0  0
 12 10  1  0  0  0  0
 13 12  2  0  0  0  0
 14 15  1  0  0  0  0
 14 12  1  0  0  0  0
 15  8  1  0  0  0  0
 16 15  2  0  0  0  0
 17 14  1  0  0  0  0
 18 19  1  0  0  0  0
 18 21  1  0  0  0  0
 20 18  1  0  0  0  0
 22  1  1  0  0  0  0
 23 26  1  0  0  0  0
 23 24  1  0  0  0  0
 23 22  1  0  0  0  0
 25 23  1  0  0  0  0
M  END
>  <minimizedAffinity>
-5.14268732

>  <minimizedRMSD>
2.14380169

$$$$
