
 OpenBabel03242519423D

 30 31  0  0  0  0  0  0  0  0999 V2000
   48.0210   32.8430   41.7930 O   0  0  0  0  0  0  0  0  0  0  0  0
   47.1790   34.0380   41.3390 P   0  0  2  0  0  0  0  0  0  0  0  0
   45.5900   33.8790   41.9720 O   0  0  0  0  0  0  0  0  0  0  0  0
   44.3720   35.9390   44.6650 C   0  0  0  0  0  0  0  0  0  0  0  0
   44.6680   35.4980   43.3570 C   0  0  0  0  0  0  0  0  0  0  0  0
   45.3120   34.2690   43.2390 C   0  0  0  0  0  0  0  0  0  0  0  0
   45.6150   33.5670   44.3490 N   0  0  0  0  0  0  0  0  0  0  0  0
   45.3170   34.0190   45.5820 C   0  0  0  0  0  0  0  0  0  0  0  0
   44.6980   35.2010   45.7440 N   0  0  0  0  0  0  0  0  0  0  0  0
   43.8740   36.8900   44.8010 H   0  0  0  0  0  0  0  0  0  0  0  0
   44.3670   36.1590   42.5590 H   0  0  0  0  0  0  0  0  0  0  0  0
   45.6070   33.3750   46.3970 H   0  0  0  0  0  0  0  0  0  0  0  0
   46.9500   34.0960   39.6910 O   0  0  0  0  0  0  0  0  0  0  0  0
   46.2540   33.2810   38.8890 C   0  0  0  0  0  0  0  0  0  0  0  0
   46.7360   33.2950   37.6210 O   0  0  0  0  0  0  0  0  0  0  0  0
   44.5320   29.1650   37.9650 H   0  0  0  0  0  0  0  0  0  0  0  0
   44.3040   30.1930   38.0800 N   0  0  0  0  0  0  0  0  0  0  0  0
   45.3310   30.9930   38.3700 C   0  0  0  0  0  3  0  0  0  0  0  0
   45.2250   32.3230   38.5510 C   0  0  0  0  0  0  0  0  0  0  0  0
   43.8580   32.6690   38.3780 C   0  0  0  0  0  0  0  0  0  0  0  0
   43.5500   33.9230   38.5180 O   0  0  0  0  0  0  0  0  0  0  0  0
   42.7550   31.9880   38.0940 N   0  0  0  0  0  0  0  0  0  0  0  0
   43.0930   30.7170   37.9590 C   0  0  0  0  0  0  0  0  0  0  0  0
   42.2040   29.8550   37.6840 O   0  0  0  0  0  0  0  0  0  0  0  0
   41.8010   32.3740   37.9940 H   0  0  0  0  0  0  0  0  0  0  0  0
   47.8010   35.4220   41.9970 O   0  0  0  0  0  0  0  0  0  0  0  0
   49.0280   35.7250   41.4340 C   0  0  0  0  0  0  0  0  0  0  0  0
   49.4420   37.0110   41.7570 F   0  0  0  0  0  0  0  0  0  0  0  0
   49.9520   34.7860   41.7730 F   0  0  0  0  0  0  0  0  0  0  0  0
   48.8480   35.7030   40.0630 F   0  0  0  0  0  0  0  0  0  0  0  0
  2  1  2  1  0  0  0
  2  3  1  0  0  0  0
  2 26  1  0  0  0  0
  3  6  1  0  0  0  0
  4 10  1  0  0  0  0
  4  9  1  0  0  0  0
  5  4  2  0  0  0  0
  6  5  1  0  0  0  0
  6  7  2  0  0  0  0
  7  8  1  0  0  0  0
  8  9  2  0  0  0  0
  8 12  1  0  0  0  0
 11  5  1  0  0  0  0
 13  2  1  0  0  0  0
 14 13  1  0  0  0  0
 15 14  2  0  0  0  0
 16 17  1  0  0  0  0
 17 18  1  0  0  0  0
 18 19  2  0  0  0  0
 19 14  1  0  0  0  0
 20 21  2  0  0  0  0
 20 19  1  0  0  0  0
 22 20  1  0  0  0  0
 23 17  1  0  0  0  0
 23 22  1  0  0  0  0
 24 23  2  0  0  0  0
 25 22  1  0  0  0  0
 27 28  1  0  0  0  0
 27 29  1  0  0  0  0
 27 26  1  0  0  0  0
 30 27  1  0  0  0  0
M  END
>  <minimizedAffinity>
-5.15420151

>  <minimizedRMSD>
0.932908058

$$$$
