
 OpenBabel03242523093D

 46 50  0  0  1  0  0  0  0  0999 V2000
   43.2240   33.5530   41.3080 C   0  0  0  0  0  0  0  0  0  0  0  0
   42.1720   32.6570   41.2200 C   0  0  0  0  0  0  0  0  0  0  0  0
   42.1030   31.6580   42.1550 C   0  0  0  0  0  0  0  0  0  0  0  0
   43.0680   31.5860   43.1260 N   0  0  0  0  0  0  0  0  0  0  0  0
   44.0790   32.4770   43.1800 C   0  0  0  0  0  0  0  0  0  0  0  0
   44.1530   33.4420   42.2860 N   0  0  0  0  0  0  0  0  0  0  0  0
   43.2960   34.3590   40.5710 H   0  0  0  0  0  0  0  0  0  0  0  0
   44.8760   32.4890   43.9090 H   0  0  0  0  0  0  0  0  0  0  0  0
   41.2580   32.8120   40.1790 N   0  0  0  0  0  0  0  0  0  0  0  0
   41.2150   31.9510   39.0590 C   0  0  0  0  0  0  0  0  0  0  0  0
   40.0550   32.1770   38.1250 C   0  0  0  0  0  0  0  0  0  0  0  0
   38.8210   32.4960   38.7360 N   0  0  0  0  0  0  0  0  0  0  0  0
   38.8740   33.3460   39.8430 C   0  0  0  0  0  0  0  0  0  0  0  0
   40.2800   33.8420   40.1140 C   0  0  0  0  0  0  0  0  0  0  0  0
   41.2930   30.8700   39.3000 H   0  0  0  0  0  0  0  0  0  0  0  0
   42.1350   32.1550   38.4600 H   0  0  0  0  0  0  0  0  0  0  0  0
   40.3200   32.9740   37.4000 H   0  0  0  0  0  0  0  0  0  0  0  0
   39.9190   31.2450   37.5060 H   0  0  0  0  0  0  0  0  0  0  0  0
   38.0880   31.7830   38.6880 H   0  0  0  0  0  0  0  0  0  0  0  0
   38.2900   34.3010   39.6470 H   0  0  0  0  0  0  0  0  0  0  0  0
   38.4580   32.9900   40.8010 H   0  0  0  0  0  0  0  0  0  0  0  0
   40.5630   34.5660   39.3220 H   0  0  0  0  0  0  0  0  0  0  0  0
   40.2800   34.4140   41.0710 H   0  0  0  0  0  0  0  0  0  0  0  0
   39.8780   31.0310   42.6010 C   0  0  0  0  0  0  0  0  0  0  0  0
   41.1950   30.5980   42.3470 C   0  0  0  0  0  0  0  0  0  0  0  0
   41.2700   29.2190   42.4190 C   0  0  0  0  0  0  0  0  0  0  0  0
   40.2540   28.3620   42.6960 C   0  0  0  0  0  0  0  0  0  0  0  0
   38.9990   28.8740   42.9400 C   0  0  0  0  0  0  0  0  0  0  0  0
   38.7960   30.2190   42.8930 C   0  0  0  0  0  0  0  0  0  0  0  0
   38.2140   27.7820   43.2020 O   0  0  0  0  0  0  0  0  0  0  0  0
   38.9790   26.5950   43.1620 C   0  0  2  0  0  0  0  0  0  0  0  0
   40.2930   26.9800   42.7640 O   0  0  0  0  0  0  0  0  0  0  0  0
   39.4600   32.0590   42.6100 H   0  0  0  0  0  0  0  0  0  0  0  0
   42.2460   28.8930   42.2380 H   0  0  0  0  0  0  0  0  0  0  0  0
   37.8010   30.5110   43.0890 H   0  0  0  0  0  0  0  0  0  0  0  0
   39.1170   26.1580   44.1960 H   0  0  0  0  0  0  0  0  0  0  0  0
   38.3950   25.6110   42.2600 N   0  0  0  0  0  0  0  0  0  0  0  0
   37.4700   25.8830   41.3210 C   0  0  0  0  0  3  0  0  0  0  0  0
   36.9480   24.9170   40.4920 C   0  0  0  0  0  0  0  0  0  0  0  0
   36.2170   25.2490   39.7820 H   0  0  0  0  0  0  0  0  0  0  0  0
   37.4280   23.6290   40.6710 C   0  0  0  0  0  0  0  0  0  0  0  0
   36.9480   22.7450   39.9090 O   0  0  0  0  0  0  0  0  0  0  0  0
   38.3550   23.3900   41.6210 N   0  0  0  0  0  0  0  0  0  0  0  0
   38.8510   24.3510   42.4210 C   0  0  0  0  0  0  0  0  0  0  0  0
   39.7190   24.0210   43.2810 O   0  0  0  0  0  0  0  0  0  0  0  0
   38.6260   22.3830   41.6470 H   0  0  0  0  0  0  0  0  0  0  0  0
  1  6  1  0  0  0  0
  2  1  2  0  0  0  0
  2  3  1  0  0  0  0
  3 25  1  0  0  0  0
  3  4  2  0  0  0  0
  4  5  1  0  0  0  0
  5  8  1  0  0  0  0
  6  5  2  0  0  0  0
  7  1  1  0  0  0  0
  9  2  1  0  0  0  0
 10 15  1  0  0  0  0
 10  9  1  0  0  0  0
 11 12  1  0  0  0  0
 11 10  1  0  0  0  0
 12 13  1  0  0  0  0
 13 14  1  0  0  0  0
 13 21  1  0  0  0  0
 14  9  1  0  0  0  0
 14 23  1  0  0  0  0
 16 10  1  0  0  0  0
 17 11  1  0  0  0  0
 18 11  1  0  0  0  0
 19 12  1  0  0  0  0
 20 13  1  0  0  0  0
 22 14  1  0  0  0  0
 24 33  1  0  0  0  0
 24 29  1  0  0  0  0
 25 26  1  0  0  0  0
 25 24  2  0  0  0  0
 26 27  2  0  0  0  0
 27 32  1  0  0  0  0
 27 28  1  0  0  0  0
 28 30  1  0  0  0  0
 29 28  2  0  0  0  0
 29 35  1  0  0  0  0
 31 30  1  0  0  0  0
 31 36  1  1  0  0  0
 32 31  1  0  0  0  0
 34 26  1  0  0  0  0
 37 44  1  0  0  0  0
 37 31  1  0  0  0  0
 38 37  1  0  0  0  0
 39 41  1  0  0  0  0
 39 38  2  0  0  0  0
 40 39  1  0  0  0  0
 41 43  1  0  0  0  0
 42 41  2  0  0  0  0
 43 46  1  0  0  0  0
 43 44  1  0  0  0  0
 44 45  2  0  0  0  0
M  END
>  <minimizedAffinity>
-6.58016491

$$$$

 OpenBabel03242523093D

 46 50  0  0  1  0  0  0  0  0999 V2000
   35.6300   27.4790   38.9880 C   0  0  0  0  0  0  0  0  0  0  0  0
   36.5530   28.3730   39.5030 C   0  0  0  0  0  0  0  0  0  0  0  0
   36.8030   29.5170   38.7920 C   0  0  0  0  0  0  0  0  0  0  0  0
   36.1380   29.7260   37.6120 N   0  0  0  0  0  0  0  0  0  0  0  0
   35.2450   28.8330   37.1400 C   0  0  0  0  0  0  0  0  0  0  0  0
   34.9980   27.7300   37.8180 N   0  0  0  0  0  0  0  0  0  0  0  0
   35.4160   26.5600   39.5410 H   0  0  0  0  0  0  0  0  0  0  0  0
   34.6820   28.9220   36.2220 H   0  0  0  0  0  0  0  0  0  0  0  0
   37.1870   28.0500   40.7030 N   0  0  0  0  0  0  0  0  0  0  0  0
   38.4050   27.3350   40.7610 C   0  0  0  0  0  0  0  0  0  0  0  0
   39.0160   27.2280   42.1330 C   0  0  0  0  0  0  0  0  0  0  0  0
   38.9060   28.3750   42.9530 N   0  0  0  0  0  0  0  0  0  0  0  0
   37.6980   29.0740   42.8870 C   0  0  0  0  0  0  0  0  0  0  0  0
   36.6880   28.3860   41.9910 C   0  0  0  0  0  0  0  0  0  0  0  0
   39.1760   27.6700   40.0370 H   0  0  0  0  0  0  0  0  0  0  0  0
   38.1810   26.2890   40.4430 H   0  0  0  0  0  0  0  0  0  0  0  0
   38.5740   26.3580   42.6620 H   0  0  0  0  0  0  0  0  0  0  0  0
   40.1080   26.9780   42.0110 H   0  0  0  0  0  0  0  0  0  0  0  0
   39.7710   28.8870   43.1430 H   0  0  0  0  0  0  0  0  0  0  0  0
   37.1860   29.0910   43.9000 H   0  0  0  0  0  0  0  0  0  0  0  0
   37.7220   30.1400   42.6010 H   0  0  0  0  0  0  0  0  0  0  0  0
   36.3310   27.4650   42.4970 H   0  0  0  0  0  0  0  0  0  0  0  0
   35.7970   29.0460   41.8830 H   0  0  0  0  0  0  0  0  0  0  0  0
   37.0910   31.6250   39.8000 C   0  0  0  0  0  0  0  0  0  0  0  0
   37.6690   30.6060   39.0170 C   0  0  0  0  0  0  0  0  0  0  0  0
   38.9380   30.9730   38.6100 C   0  0  0  0  0  0  0  0  0  0  0  0
   39.5770   32.1380   38.8910 C   0  0  0  0  0  0  0  0  0  0  0  0
   38.9320   33.0830   39.6570 C   0  0  0  0  0  0  0  0  0  0  0  0
   37.6780   32.8350   40.1240 C   0  0  0  0  0  0  0  0  0  0  0  0
   39.8110   34.1310   39.7430 O   0  0  0  0  0  0  0  0  0  0  0  0
   40.9850   33.8620   39.0040 C   0  0  2  0  0  0  0  0  0  0  0  0
   40.8480   32.5310   38.5090 O   0  0  0  0  0  0  0  0  0  0  0  0
   36.0990   31.6600   40.2980 H   0  0  0  0  0  0  0  0  0  0  0  0
   39.3690   30.2240   38.0230 H   0  0  0  0  0  0  0  0  0  0  0  0
   37.2730   33.6180   40.7040 H   0  0  0  0  0  0  0  0  0  0  0  0
   41.0420   34.5020   38.0730 H   0  0  0  0  0  0  0  0  0  0  0  0
   42.1820   34.0280   39.8170 N   0  0  0  0  0  0  0  0  0  0  0  0
   42.2310   33.8690   41.1530 C   0  0  0  0  0  3  0  0  0  0  0  0
   43.3880   34.0370   41.8780 C   0  0  0  0  0  0  0  0  0  0  0  0
   43.3080   33.8850   42.9360 H   0  0  0  0  0  0  0  0  0  0  0  0
   44.5200   34.3820   41.1580 C   0  0  0  0  0  0  0  0  0  0  0  0
   45.5800   34.5360   41.8250 O   0  0  0  0  0  0  0  0  0  0  0  0
   44.4370   34.5340   39.8200 N   0  0  0  0  0  0  0  0  0  0  0  0
   43.2930   34.3650   39.1320 C   0  0  0  0  0  0  0  0  0  0  0  0
   43.3230   34.5310   37.8770 O   0  0  0  0  0  0  0  0  0  0  0  0
   45.3580   34.7940   39.4060 H   0  0  0  0  0  0  0  0  0  0  0  0
  1  2  1  0  0  0  0
  1  7  1  0  0  0  0
  2  9  1  0  0  0  0
  3 25  1  0  0  0  0
  3  2  2  0  0  0  0
  4  3  1  0  0  0  0
  5  4  2  0  0  0  0
  5  6  1  0  0  0  0
  6  1  2  0  0  0  0
  8  5  1  0  0  0  0
  9 10  1  0  0  0  0
  9 14  1  0  0  0  0
 10 11  1  0  0  0  0
 11 17  1  0  0  0  0
 11 12  1  0  0  0  0
 12 19  1  0  0  0  0
 13 12  1  0  0  0  0
 13 20  1  0  0  0  0
 14 22  1  0  0  0  0
 14 13  1  0  0  0  0
 15 10  1  0  0  0  0
 16 10  1  0  0  0  0
 18 11  1  0  0  0  0
 21 13  1  0  0  0  0
 23 14  1  0  0  0  0
 24 29  1  0  0  0  0
 24 33  1  0  0  0  0
 25 24  2  0  0  0  0
 26 27  2  0  0  0  0
 26 25  1  0  0  0  0
 27 28  1  0  0  0  0
 28 30  1  0  0  0  0
 28 29  2  0  0  0  0
 29 35  1  0  0  0  0
 31 36  1  6  0  0  0
 31 30  1  0  0  0  0
 31 37  1  0  0  0  0
 32 27  1  0  0  0  0
 32 31  1  0  0  0  0
 34 26  1  0  0  0  0
 37 38  1  0  0  0  0
 38 39  2  0  0  0  0
 39 40  1  0  0  0  0
 41 42  2  0  0  0  0
 41 39  1  0  0  0  0
 43 41  1  0  0  0  0
 44 37  1  0  0  0  0
 44 43  1  0  0  0  0
 45 44  2  0  0  0  0
 46 43  1  0  0  0  0
M  END
>  <minimizedAffinity>
-6.26801729

$$$$

 OpenBabel03242523093D

 46 50  0  0  1  0  0  0  0  0999 V2000
   40.6710   33.5920   39.3450 C   0  0  0  0  0  0  0  0  0  0  0  0
   40.4180   32.2450   39.5420 C   0  0  0  0  0  0  0  0  0  0  0  0
   39.3440   31.9010   40.3190 C   0  0  0  0  0  0  0  0  0  0  0  0
   38.5730   32.8940   40.8650 N   0  0  0  0  0  0  0  0  0  0  0  0
   38.8480   34.1970   40.6530 C   0  0  0  0  0  0  0  0  0  0  0  0
   39.8800   34.5360   39.9050 N   0  0  0  0  0  0  0  0  0  0  0  0
   41.5240   33.8860   38.7270 H   0  0  0  0  0  0  0  0  0  0  0  0
   38.2930   35.0360   41.0460 H   0  0  0  0  0  0  0  0  0  0  0  0
   41.2800   31.3190   38.9550 N   0  0  0  0  0  0  0  0  0  0  0  0
   42.4390   30.8300   39.5990 C   0  0  0  0  0  0  0  0  0  0  0  0
   43.1490   29.7160   38.8770 C   0  0  0  0  0  0  0  0  0  0  0  0
   42.3210   28.7640   38.2390 N   0  0  0  0  0  0  0  0  0  0  0  0
   41.1780   29.2570   37.6050 C   0  0  0  0  0  0  0  0  0  0  0  0
   41.1060   30.7700   37.6550 C   0  0  0  0  0  0  0  0  0  0  0  0
   42.2960   30.5500   40.6640 H   0  0  0  0  0  0  0  0  0  0  0  0
   43.1650   31.6770   39.6450 H   0  0  0  0  0  0  0  0  0  0  0  0
   43.8460   30.1510   38.1320 H   0  0  0  0  0  0  0  0  0  0  0  0
   43.8050   29.1790   39.6210 H   0  0  0  0  0  0  0  0  0  0  0  0
   42.3010   27.8260   38.6480 H   0  0  0  0  0  0  0  0  0  0  0  0
   41.2030   29.0290   36.4930 H   0  0  0  0  0  0  0  0  0  0  0  0
   40.1930   28.8680   37.9180 H   0  0  0  0  0  0  0  0  0  0  0  0
   41.8770   31.1870   36.9750 H   0  0  0  0  0  0  0  0  0  0  0  0
   40.1220   31.0960   37.2440 H   0  0  0  0  0  0  0  0  0  0  0  0
   37.4380   30.6910   40.9900 C   0  0  0  0  0  0  0  0  0  0  0  0
   38.8210   30.6560   40.7220 C   0  0  0  0  0  0  0  0  0  0  0  0
   39.3320   29.3990   40.9910 C   0  0  0  0  0  0  0  0  0  0  0  0
   38.6430   28.3240   41.4540 C   0  0  0  0  0  0  0  0  0  0  0  0
   37.2940   28.4520   41.6980 C   0  0  0  0  0  0  0  0  0  0  0  0
   36.6740   29.6400   41.4640 C   0  0  0  0  0  0  0  0  0  0  0  0
   36.9000   27.2260   42.1660 O   0  0  0  0  0  0  0  0  0  0  0  0
   38.0010   26.3450   42.2540 C   0  0  2  0  0  0  0  0  0  0  0  0
   39.1200   27.0530   41.7230 O   0  0  0  0  0  0  0  0  0  0  0  0
   36.7150   31.5260   40.8730 H   0  0  0  0  0  0  0  0  0  0  0  0
   40.3580   29.3690   40.8010 H   0  0  0  0  0  0  0  0  0  0  0  0
   35.6400   29.6350   41.6770 H   0  0  0  0  0  0  0  0  0  0  0  0
   38.2840   26.1440   43.3310 H   0  0  0  0  0  0  0  0  0  0  0  0
   37.7500   25.0980   41.5460 N   0  0  0  0  0  0  0  0  0  0  0  0
   36.8120   24.9300   40.5950 C   0  0  0  0  0  3  0  0  0  0  0  0
   36.6120   23.7290   39.9530 C   0  0  0  0  0  0  0  0  0  0  0  0
   35.8370   23.7130   39.2140 H   0  0  0  0  0  0  0  0  0  0  0  0
   37.4360   22.6830   40.3370 C   0  0  0  0  0  0  0  0  0  0  0  0
   37.2520   21.5830   39.7470 O   0  0  0  0  0  0  0  0  0  0  0  0
   38.3660   22.8850   41.2930 N   0  0  0  0  0  0  0  0  0  0  0  0
   38.5430   24.0690   41.9070 C   0  0  0  0  0  0  0  0  0  0  0  0
   39.4450   24.1520   42.7920 O   0  0  0  0  0  0  0  0  0  0  0  0
   38.9140   22.0180   41.4840 H   0  0  0  0  0  0  0  0  0  0  0  0
  1  2  2  0  0  0  0
  1  6  1  0  0  0  0
  2  3  1  0  0  0  0
  3 25  1  0  0  0  0
  3  4  2  0  0  0  0
  5  4  1  0  0  0  0
  5  8  1  0  0  0  0
  6  5  2  0  0  0  0
  7  1  1  0  0  0  0
  9  2  1  0  0  0  0
  9 10  1  0  0  0  0
 10 16  1  0  0  0  0
 10 15  1  0  0  0  0
 11 10  1  0  0  0  0
 11 18  1  0  0  0  0
 12 19  1  0  0  0  0
 12 11  1  0  0  0  0
 13 14  1  0  0  0  0
 13 21  1  0  0  0  0
 13 12  1  0  0  0  0
 14  9  1  0  0  0  0
 17 11  1  0  0  0  0
 20 13  1  0  0  0  0
 22 14  1  0  0  0  0
 23 14  1  0  0  0  0
 24 29  1  0  0  0  0
 25 24  2  0  0  0  0
 25 26  1  0  0  0  0
 26 27  2  0  0  0  0
 27 28  1  0  0  0  0
 27 32  1  0  0  0  0
 28 30  1  0  0  0  0
 29 35  1  0  0  0  0
 29 28  2  0  0  0  0
 30 31  1  0  0  0  0
 31 36  1  1  0  0  0
 32 31  1  0  0  0  0
 33 24  1  0  0  0  0
 34 26  1  0  0  0  0
 37 44  1  0  0  0  0
 37 31  1  0  0  0  0
 38 37  1  0  0  0  0
 39 41  1  0  0  0  0
 39 38  2  0  0  0  0
 40 39  1  0  0  0  0
 41 43  1  0  0  0  0
 42 41  2  0  0  0  0
 43 46  1  0  0  0  0
 43 44  1  0  0  0  0
 44 45  2  0  0  0  0
M  END
>  <minimizedAffinity>
-6.11507702

$$$$

 OpenBabel03242523093D

 46 50  0  0  1  0  0  0  0  0999 V2000
   35.4840   24.3370   38.4560 C   0  0  0  0  0  0  0  0  0  0  0  0
   36.1690   25.4070   39.0060 C   0  0  0  0  0  0  0  0  0  0  0  0
   35.8390   26.6670   38.5770 C   0  0  0  0  0  0  0  0  0  0  0  0
   34.8570   26.8120   37.6330 N   0  0  0  0  0  0  0  0  0  0  0  0
   34.2110   25.7460   37.1180 C   0  0  0  0  0  0  0  0  0  0  0  0
   34.5210   24.5320   37.5250 N   0  0  0  0  0  0  0  0  0  0  0  0
   35.7320   23.3240   38.7850 H   0  0  0  0  0  0  0  0  0  0  0  0
   33.4300   25.7760   36.3730 H   0  0  0  0  0  0  0  0  0  0  0  0
   37.1630   25.1420   39.9460 N   0  0  0  0  0  0  0  0  0  0  0  0
   36.9830   25.3410   41.3330 C   0  0  0  0  0  0  0  0  0  0  0  0
   38.1080   24.8420   42.2010 C   0  0  0  0  0  0  0  0  0  0  0  0
   38.7070   23.6260   41.8010 N   0  0  0  0  0  0  0  0  0  0  0  0
   38.8800   23.4390   40.4270 C   0  0  0  0  0  0  0  0  0  0  0  0
   38.4610   24.6560   39.6280 C   0  0  0  0  0  0  0  0  0  0  0  0
   36.0150   24.9740   41.7340 H   0  0  0  0  0  0  0  0  0  0  0  0
   36.9340   26.4440   41.4980 H   0  0  0  0  0  0  0  0  0  0  0  0
   38.8880   25.6270   42.2730 H   0  0  0  0  0  0  0  0  0  0  0  0
   37.7120   24.7190   43.2500 H   0  0  0  0  0  0  0  0  0  0  0  0
   38.5390   22.8130   42.3990 H   0  0  0  0  0  0  0  0  0  0  0  0
   39.9810   23.3200   40.1720 H   0  0  0  0  0  0  0  0  0  0  0  0
   38.4180   22.5560   39.9530 H   0  0  0  0  0  0  0  0  0  0  0  0
   39.2040   25.4640   39.7910 H   0  0  0  0  0  0  0  0  0  0  0  0
   38.5080   24.4060   38.5430 H   0  0  0  0  0  0  0  0  0  0  0  0
   35.6790   28.5210   40.0200 C   0  0  0  0  0  0  0  0  0  0  0  0
   36.3310   27.9430   38.9120 C   0  0  0  0  0  0  0  0  0  0  0  0
   37.2610   28.8230   38.3890 C   0  0  0  0  0  0  0  0  0  0  0  0
   37.5380   30.0750   38.8370 C   0  0  0  0  0  0  0  0  0  0  0  0
   36.8440   30.5630   39.9220 C   0  0  0  0  0  0  0  0  0  0  0  0
   35.9060   29.7870   40.5290 C   0  0  0  0  0  0  0  0  0  0  0  0
   37.3270   31.8310   40.1120 O   0  0  0  0  0  0  0  0  0  0  0  0
   38.2890   32.1530   39.1290 C   0  0  2  0  0  0  0  0  0  0  0  0
   38.4670   30.9750   38.3440 O   0  0  0  0  0  0  0  0  0  0  0  0
   34.8950   28.0950   40.6810 H   0  0  0  0  0  0  0  0  0  0  0  0
   37.7430   28.4040   37.5630 H   0  0  0  0  0  0  0  0  0  0  0  0
   35.4340   30.2480   41.3530 H   0  0  0  0  0  0  0  0  0  0  0  0
   37.8920   32.9180   38.3970 H   0  0  0  0  0  0  0  0  0  0  0  0
   39.5360   32.6110   39.7270 N   0  0  0  0  0  0  0  0  0  0  0  0
   40.6890   31.9160   39.7270 C   0  0  0  0  0  3  0  0  0  0  0  0
   41.8420   32.3930   40.3070 C   0  0  0  0  0  0  0  0  0  0  0  0
   42.7000   31.7530   40.2460 H   0  0  0  0  0  0  0  0  0  0  0  0
   41.7600   33.6420   40.9010 C   0  0  0  0  0  0  0  0  0  0  0  0
   42.8190   34.0770   41.4320 O   0  0  0  0  0  0  0  0  0  0  0  0
   40.5900   34.3120   40.8840 N   0  0  0  0  0  0  0  0  0  0  0  0
   39.4740   33.8260   40.3110 C   0  0  0  0  0  0  0  0  0  0  0  0
   38.4260   34.5360   40.3500 O   0  0  0  0  0  0  0  0  0  0  0  0
   40.6690   35.2340   41.3640 H   0  0  0  0  0  0  0  0  0  0  0  0
  1  7  1  0  0  0  0
  1  2  1  0  0  0  0
  2  9  1  0  0  0  0
  3 25  1  0  0  0  0
  3  2  2  0  0  0  0
  4  3  1  0  0  0  0
  5  6  1  0  0  0  0
  5  4  2  0  0  0  0
  6  1  2  0  0  0  0
  8  5  1  0  0  0  0
  9 10  1  0  0  0  0
 10 16  1  0  0  0  0
 10 15  1  0  0  0  0
 10 11  1  0  0  0  0
 11 17  1  0  0  0  0
 11 18  1  0  0  0  0
 12 11  1  0  0  0  0
 12 19  1  0  0  0  0
 13 12  1  0  0  0  0
 14 22  1  0  0  0  0
 14  9  1  0  0  0  0
 14 13  1  0  0  0  0
 20 13  1  0  0  0  0
 21 13  1  0  0  0  0
 23 14  1  0  0  0  0
 24 29  1  0  0  0  0
 24 33  1  0  0  0  0
 25 24  2  0  0  0  0
 26 27  2  0  0  0  0
 26 25  1  0  0  0  0
 27 28  1  0  0  0  0
 28 30  1  0  0  0  0
 28 29  2  0  0  0  0
 29 35  1  0  0  0  0
 31 36  1  6  0  0  0
 31 37  1  0  0  0  0
 31 30  1  0  0  0  0
 32 27  1  0  0  0  0
 32 31  1  0  0  0  0
 34 26  1  0  0  0  0
 37 44  1  0  0  0  0
 38 37  1  0  0  0  0
 38 39  2  0  0  0  0
 39 41  1  0  0  0  0
 40 39  1  0  0  0  0
 41 42  2  0  0  0  0
 43 41  1  0  0  0  0
 43 46  1  0  0  0  0
 44 45  2  0  0  0  0
 44 43  1  0  0  0  0
M  END
>  <minimizedAffinity>
-6.02307463

$$$$

 OpenBabel03242523093D

 46 50  0  0  1  0  0  0  0  0999 V2000
   40.1790   29.3890   38.1510 C   0  0  0  0  0  0  0  0  0  0  0  0
   38.8270   29.6870   38.1750 C   0  0  0  0  0  0  0  0  0  0  0  0
   37.9950   28.9540   37.3710 C   0  0  0  0  0  0  0  0  0  0  0  0
   38.5290   27.9670   36.5840 N   0  0  0  0  0  0  0  0  0  0  0  0
   39.8510   27.7040   36.5860 C   0  0  0  0  0  0  0  0  0  0  0  0
   40.6590   28.4040   37.3570 N   0  0  0  0  0  0  0  0  0  0  0  0
   40.8600   29.9630   38.7860 H   0  0  0  0  0  0  0  0  0  0  0  0
   40.3490   26.9480   35.9970 H   0  0  0  0  0  0  0  0  0  0  0  0
   38.3950   30.7260   38.9990 N   0  0  0  0  0  0  0  0  0  0  0  0
   38.0140   31.9930   38.5040 C   0  0  0  0  0  0  0  0  0  0  0  0
   37.4190   32.9250   39.5260 C   0  0  0  0  0  0  0  0  0  0  0  0
   36.5700   32.3310   40.4870 N   0  0  0  0  0  0  0  0  0  0  0  0
   36.9550   31.0780   40.9700 C   0  0  0  0  0  0  0  0  0  0  0  0
   38.2960   30.6400   40.4150 C   0  0  0  0  0  0  0  0  0  0  0  0
   37.3630   31.9650   37.6050 H   0  0  0  0  0  0  0  0  0  0  0  0
   38.9450   32.4910   38.1400 H   0  0  0  0  0  0  0  0  0  0  0  0
   38.2380   33.4660   40.0460 H   0  0  0  0  0  0  0  0  0  0  0  0
   36.8390   33.7210   38.9770 H   0  0  0  0  0  0  0  0  0  0  0  0
   35.5740   32.5580   40.4210 H   0  0  0  0  0  0  0  0  0  0  0  0
   37.1310   31.1140   42.0910 H   0  0  0  0  0  0  0  0  0  0  0  0
   36.2560   30.2320   40.8540 H   0  0  0  0  0  0  0  0  0  0  0  0
   39.0920   31.2590   40.8760 H   0  0  0  0  0  0  0  0  0  0  0  0
   38.4920   29.5920   40.7370 H   0  0  0  0  0  0  0  0  0  0  0  0
   35.8460   28.6560   38.2850 C   0  0  0  0  0  0  0  0  0  0  0  0
   36.6050   29.0000   37.1480 C   0  0  0  0  0  0  0  0  0  0  0  0
   35.7730   29.2370   36.0690 C   0  0  0  0  0  0  0  0  0  0  0  0
   34.4180   29.1560   36.0520 C   0  0  0  0  0  0  0  0  0  0  0  0
   33.7580   28.8030   37.2090 C   0  0  0  0  0  0  0  0  0  0  0  0
   34.4680   28.5510   38.3420 C   0  0  0  0  0  0  0  0  0  0  0  0
   32.4310   28.7890   36.8710 O   0  0  0  0  0  0  0  0  0  0  0  0
   32.2590   29.0920   35.5010 C   0  0  2  0  0  0  0  0  0  0  0  0
   33.5580   29.3960   34.9950 O   0  0  0  0  0  0  0  0  0  0  0  0
   36.1820   28.4190   39.3160 H   0  0  0  0  0  0  0  0  0  0  0  0
   36.3310   29.4860   35.2220 H   0  0  0  0  0  0  0  0  0  0  0  0
   33.8710   28.2940   39.1740 H   0  0  0  0  0  0  0  0  0  0  0  0
   31.9370   28.1810   34.9140 H   0  0  0  0  0  0  0  0  0  0  0  0
   31.3210   30.1890   35.3070 N   0  0  0  0  0  0  0  0  0  0  0  0
   31.0980   31.1750   36.1960 C   0  0  0  0  0  3  0  0  0  0  0  0
   30.1990   32.1910   35.9660 C   0  0  0  0  0  0  0  0  0  0  0  0
   30.1030   32.9220   36.7450 H   0  0  0  0  0  0  0  0  0  0  0  0
   29.5230   32.1520   34.7570 C   0  0  0  0  0  0  0  0  0  0  0  0
   28.6990   33.0850   34.5480 O   0  0  0  0  0  0  0  0  0  0  0  0
   29.7700   31.1500   33.8890 N   0  0  0  0  0  0  0  0  0  0  0  0
   30.6540   30.1660   34.1350 C   0  0  0  0  0  0  0  0  0  0  0  0
   30.8120   29.2720   33.2520 O   0  0  0  0  0  0  0  0  0  0  0  0
   29.1950   31.2420   33.0230 H   0  0  0  0  0  0  0  0  0  0  0  0
  1  2  1  0  0  0  0
  1  7  1  0  0  0  0
  2  9  1  0  0  0  0
  3  2  2  0  0  0  0
  4  5  2  0  0  0  0
  4  3  1  0  0  0  0
  5  6  1  0  0  0  0
  6  1  2  0  0  0  0
  8  5  1  0  0  0  0
  9 14  1  0  0  0  0
 10  9  1  0  0  0  0
 10 11  1  0  0  0  0
 11 17  1  0  0  0  0
 11 12  1  0  0  0  0
 12 13  1  0  0  0  0
 13 20  1  0  0  0  0
 14 23  1  0  0  0  0
 14 22  1  0  0  0  0
 14 13  1  0  0  0  0
 15 10  1  0  0  0  0
 16 10  1  0  0  0  0
 18 11  1  0  0  0  0
 19 12  1  0  0  0  0
 21 13  1  0  0  0  0
 24 29  1  0  0  0  0
 24 33  1  0  0  0  0
 25  3  1  0  0  0  0
 25 24  2  0  0  0  0
 26 25  1  0  0  0  0
 27 26  2  0  0  0  0
 27 28  1  0  0  0  0
 28 29  2  0  0  0  0
 29 35  1  0  0  0  0
 30 28  1  0  0  0  0
 31 36  1  6  0  0  0
 31 30  1  0  0  0  0
 32 31  1  0  0  0  0
 32 27  1  0  0  0  0
 34 26  1  0  0  0  0
 37 31  1  0  0  0  0
 37 38  1  0  0  0  0
 39 38  2  0  0  0  0
 39 40  1  0  0  0  0
 41 39  1  0  0  0  0
 42 41  2  0  0  0  0
 43 44  1  0  0  0  0
 43 41  1  0  0  0  0
 44 37  1  0  0  0  0
 45 44  2  0  0  0  0
 46 43  1  0  0  0  0
M  END
>  <minimizedAffinity>
-5.9230895

$$$$

 OpenBabel03242523093D

 46 50  0  0  1  0  0  0  0  0999 V2000
   32.7530   26.6840   36.0750 C   0  0  0  0  0  0  0  0  0  0  0  0
   33.2230   27.8560   36.6460 C   0  0  0  0  0  0  0  0  0  0  0  0
   34.3850   27.7950   37.3680 C   0  0  0  0  0  0  0  0  0  0  0  0
   35.0280   26.5910   37.4960 N   0  0  0  0  0  0  0  0  0  0  0  0
   34.5420   25.4700   36.9260 C   0  0  0  0  0  0  0  0  0  0  0  0
   33.4240   25.5190   36.2290 N   0  0  0  0  0  0  0  0  0  0  0  0
   31.8270   26.7130   35.4940 H   0  0  0  0  0  0  0  0  0  0  0  0
   34.9850   24.4860   36.9800 H   0  0  0  0  0  0  0  0  0  0  0  0
   32.4780   29.0210   36.4690 N   0  0  0  0  0  0  0  0  0  0  0  0
   32.3910   29.6970   35.2310 C   0  0  0  0  0  0  0  0  0  0  0  0
   31.4090   30.8380   35.1950 C   0  0  0  0  0  0  0  0  0  0  0  0
   30.2010   30.6390   35.9020 N   0  0  0  0  0  0  0  0  0  0  0  0
   30.2980   29.9690   37.1240 C   0  0  0  0  0  0  0  0  0  0  0  0
   31.7350   29.6640   37.4960 C   0  0  0  0  0  0  0  0  0  0  0  0
   32.2280   29.0400   34.3520 H   0  0  0  0  0  0  0  0  0  0  0  0
   33.3930   30.1500   35.0390 H   0  0  0  0  0  0  0  0  0  0  0  0
   31.9050   31.7580   35.5700 H   0  0  0  0  0  0  0  0  0  0  0  0
   31.1610   31.0530   34.1160 H   0  0  0  0  0  0  0  0  0  0  0  0
   29.3530   30.5360   35.3410 H   0  0  0  0  0  0  0  0  0  0  0  0
   29.9380   30.6290   37.9760 H   0  0  0  0  0  0  0  0  0  0  0  0
   29.7160   29.0410   37.2630 H   0  0  0  0  0  0  0  0  0  0  0  0
   32.2410   30.6120   37.7750 H   0  0  0  0  0  0  0  0  0  0  0  0
   31.7420   29.0290   38.4110 H   0  0  0  0  0  0  0  0  0  0  0  0
   34.8200   28.8060   39.4500 C   0  0  0  0  0  0  0  0  0  0  0  0
   35.1180   28.7700   38.0730 C   0  0  0  0  0  0  0  0  0  0  0  0
   36.0230   29.7650   37.7510 C   0  0  0  0  0  0  0  0  0  0  0  0
   36.5700   30.6730   38.6000 C   0  0  0  0  0  0  0  0  0  0  0  0
   36.2130   30.6410   39.9300 C   0  0  0  0  0  0  0  0  0  0  0  0
   35.3330   29.7010   40.3710 C   0  0  0  0  0  0  0  0  0  0  0  0
   36.9030   31.6740   40.5080 O   0  0  0  0  0  0  0  0  0  0  0  0
   37.6570   32.3760   39.5420 C   0  0  2  0  0  0  0  0  0  0  0  0
   37.4840   31.6720   38.3130 O   0  0  0  0  0  0  0  0  0  0  0  0
   34.1510   28.1510   40.0470 H   0  0  0  0  0  0  0  0  0  0  0  0
   36.2430   29.7480   36.7310 H   0  0  0  0  0  0  0  0  0  0  0  0
   35.1290   29.7560   41.4050 H   0  0  0  0  0  0  0  0  0  0  0  0
   37.2190   33.3990   39.3410 H   0  0  0  0  0  0  0  0  0  0  0  0
   39.0580   32.4810   39.9250 N   0  0  0  0  0  0  0  0  0  0  0  0
   39.9980   31.5540   39.6610 C   0  0  0  0  0  3  0  0  0  0  0  0
   41.3110   31.6990   40.0460 C   0  0  0  0  0  0  0  0  0  0  0  0
   41.9710   30.8970   39.7820 H   0  0  0  0  0  0  0  0  0  0  0  0
   41.6270   32.8630   40.7290 C   0  0  0  0  0  0  0  0  0  0  0  0
   42.8320   32.9930   41.0800 O   0  0  0  0  0  0  0  0  0  0  0  0
   40.6610   33.7710   40.9780 N   0  0  0  0  0  0  0  0  0  0  0  0
   39.3830   33.6070   40.5920 C   0  0  0  0  0  0  0  0  0  0  0  0
   38.5530   34.5220   40.8750 O   0  0  0  0  0  0  0  0  0  0  0  0
   41.0340   34.5950   41.4970 H   0  0  0  0  0  0  0  0  0  0  0  0
  1  6  2  0  0  0  0
  1  2  1  0  0  0  0
  2  3  2  0  0  0  0
  3  4  1  0  0  0  0
  3 25  1  0  0  0  0
  5  8  1  0  0  0  0
  5  4  2  0  0  0  0
  6  5  1  0  0  0  0
  7  1  1  0  0  0  0
  9  2  1  0  0  0  0
  9 14  1  0  0  0  0
 10  9  1  0  0  0  0
 11 10  1  0  0  0  0
 11 17  1  0  0  0  0
 11 12  1  0  0  0  0
 12 13  1  0  0  0  0
 13 21  1  0  0  0  0
 13 14  1  0  0  0  0
 13 20  1  0  0  0  0
 14 22  1  0  0  0  0
 14 23  1  0  0  0  0
 15 10  1  0  0  0  0
 16 10  1  0  0  0  0
 18 11  1  0  0  0  0
 19 12  1  0  0  0  0
 24 33  1  0  0  0  0
 24 29  1  0  0  0  0
 25 24  2  0  0  0  0
 26 25  1  0  0  0  0
 26 27  2  0  0  0  0
 27 28  1  0  0  0  0
 28 29  2  0  0  0  0
 28 30  1  0  0  0  0
 29 35  1  0  0  0  0
 31 36  1  6  0  0  0
 31 37  1  0  0  0  0
 31 30  1  0  0  0  0
 32 27  1  0  0  0  0
 32 31  1  0  0  0  0
 34 26  1  0  0  0  0
 37 44  1  0  0  0  0
 38 37  1  0  0  0  0
 38 39  2  0  0  0  0
 39 41  1  0  0  0  0
 40 39  1  0  0  0  0
 41 43  1  0  0  0  0
 41 42  2  0  0  0  0
 43 46  1  0  0  0  0
 44 45  2  0  0  0  0
 44 43  1  0  0  0  0
M  END
>  <minimizedAffinity>
-5.8937664

$$$$

 OpenBabel03242523093D

 46 50  0  0  1  0  0  0  0  0999 V2000
   39.3270   31.8980   41.5360 C   0  0  0  0  0  0  0  0  0  0  0  0
   38.5050   30.9050   41.0310 C   0  0  0  0  0  0  0  0  0  0  0  0
   37.5970   31.2540   40.0670 C   0  0  0  0  0  0  0  0  0  0  0  0
   37.5400   32.5570   39.6470 N   0  0  0  0  0  0  0  0  0  0  0  0
   38.3560   33.4990   40.1610 C   0  0  0  0  0  0  0  0  0  0  0  0
   39.2340   33.1710   41.0890 N   0  0  0  0  0  0  0  0  0  0  0  0
   40.0590   31.6380   42.3060 H   0  0  0  0  0  0  0  0  0  0  0  0
   38.3740   34.5440   39.8870 H   0  0  0  0  0  0  0  0  0  0  0  0
   38.6350   29.6150   41.5450 N   0  0  0  0  0  0  0  0  0  0  0  0
   38.2750   29.2740   42.8680 C   0  0  0  0  0  0  0  0  0  0  0  0
   38.3300   27.8030   43.1860 C   0  0  0  0  0  0  0  0  0  0  0  0
   37.9010   26.9310   42.1600 N   0  0  0  0  0  0  0  0  0  0  0  0
   38.2620   27.2770   40.8550 C   0  0  0  0  0  0  0  0  0  0  0  0
   39.1470   28.5070   40.8150 C   0  0  0  0  0  0  0  0  0  0  0  0
   37.3030   29.6900   43.2070 H   0  0  0  0  0  0  0  0  0  0  0  0
   39.0190   29.7620   43.5420 H   0  0  0  0  0  0  0  0  0  0  0  0
   39.3650   27.5340   43.4850 H   0  0  0  0  0  0  0  0  0  0  0  0
   37.6980   27.6190   44.1010 H   0  0  0  0  0  0  0  0  0  0  0  0
   37.0220   26.4320   42.3200 H   0  0  0  0  0  0  0  0  0  0  0  0
   38.9100   26.4690   40.3880 H   0  0  0  0  0  0  0  0  0  0  0  0
   37.4630   27.4190   40.1080 H   0  0  0  0  0  0  0  0  0  0  0  0
   40.1490   28.2400   41.2100 H   0  0  0  0  0  0  0  0  0  0  0  0
   39.3020   28.8030   39.7520 H   0  0  0  0  0  0  0  0  0  0  0  0
   35.6370   29.9560   40.1980 C   0  0  0  0  0  0  0  0  0  0  0  0
   36.6260   30.5150   39.3630 C   0  0  0  0  0  0  0  0  0  0  0  0
   36.4200   30.1300   38.0510 C   0  0  0  0  0  0  0  0  0  0  0  0
   35.4290   29.3290   37.5840 C   0  0  0  0  0  0  0  0  0  0  0  0
   34.5090   28.8190   38.4740 C   0  0  0  0  0  0  0  0  0  0  0  0
   34.6020   29.1310   39.7950 C   0  0  0  0  0  0  0  0  0  0  0  0
   33.6680   28.0490   37.7140 O   0  0  0  0  0  0  0  0  0  0  0  0
   34.0800   28.0420   36.3620 C   0  0  2  0  0  0  0  0  0  0  0  0
   35.1890   28.9350   36.2790 O   0  0  0  0  0  0  0  0  0  0  0  0
   35.4890   30.0670   41.2930 H   0  0  0  0  0  0  0  0  0  0  0  0
   37.1540   30.5350   37.4290 H   0  0  0  0  0  0  0  0  0  0  0  0
   33.8490   28.6970   40.3930 H   0  0  0  0  0  0  0  0  0  0  0  0
   34.5070   27.0380   36.0660 H   0  0  0  0  0  0  0  0  0  0  0  0
   32.9950   28.4240   35.4690 N   0  0  0  0  0  0  0  0  0  0  0  0
   32.4390   29.6490   35.4160 C   0  0  0  0  0  3  0  0  0  0  0  0
   31.4140   29.9620   34.5530 C   0  0  0  0  0  0  0  0  0  0  0  0
   31.0490   30.9680   34.5980 H   0  0  0  0  0  0  0  0  0  0  0  0
   30.9730   28.9400   33.7270 C   0  0  0  0  0  0  0  0  0  0  0  0
   30.0330   29.2290   32.9360 O   0  0  0  0  0  0  0  0  0  0  0  0
   31.5510   27.7240   33.8050 N   0  0  0  0  0  0  0  0  0  0  0  0
   32.5520   27.4410   34.6580 C   0  0  0  0  0  0  0  0  0  0  0  0
   33.0260   26.2670   34.6520 O   0  0  0  0  0  0  0  0  0  0  0  0
   31.1240   27.0520   33.1310 H   0  0  0  0  0  0  0  0  0  0  0  0
  1  7  1  0  0  0  0
  2  1  2  0  0  0  0
  2  9  1  0  0  0  0
  3  2  1  0  0  0  0
  4  3  2  0  0  0  0
  4  5  1  0  0  0  0
  5  6  2  0  0  0  0
  6  1  1  0  0  0  0
  8  5  1  0  0  0  0
  9 10  1  0  0  0  0
 10 11  1  0  0  0  0
 10 15  1  0  0  0  0
 10 16  1  0  0  0  0
 11 17  1  0  0  0  0
 11 18  1  0  0  0  0
 12 19  1  0  0  0  0
 12 11  1  0  0  0  0
 13 12  1  0  0  0  0
 14 13  1  0  0  0  0
 14 22  1  0  0  0  0
 14  9  1  0  0  0  0
 20 13  1  0  0  0  0
 21 13  1  0  0  0  0
 23 14  1  0  0  0  0
 24 33  1  0  0  0  0
 25  3  1  0  0  0  0
 25 24  2  0  0  0  0
 26 25  1  0  0  0  0
 27 26  2  0  0  0  0
 27 28  1  0  0  0  0
 28 29  2  0  0  0  0
 29 24  1  0  0  0  0
 29 35  1  0  0  0  0
 30 28  1  0  0  0  0
 31 36  1  6  0  0  0
 31 30  1  0  0  0  0
 32 31  1  0  0  0  0
 32 27  1  0  0  0  0
 34 26  1  0  0  0  0
 37 31  1  0  0  0  0
 38 37  1  0  0  0  0
 39 40  1  0  0  0  0
 39 38  2  0  0  0  0
 41 43  1  0  0  0  0
 41 39  1  0  0  0  0
 42 41  2  0  0  0  0
 43 44  1  0  0  0  0
 44 37  1  0  0  0  0
 45 44  2  0  0  0  0
 46 43  1  0  0  0  0
M  END
>  <minimizedAffinity>
-5.85114908

$$$$

 OpenBabel03242523093D

 46 50  0  0  1  0  0  0  0  0999 V2000
   40.9350   31.7580   41.4370 C   0  0  0  0  0  0  0  0  0  0  0  0
   40.0270   30.7450   41.1820 C   0  0  0  0  0  0  0  0  0  0  0  0
   40.1690   29.5680   41.8690 C   0  0  0  0  0  0  0  0  0  0  0  0
   41.1940   29.4440   42.7700 N   0  0  0  0  0  0  0  0  0  0  0  0
   42.0620   30.4520   42.9930 C   0  0  0  0  0  0  0  0  0  0  0  0
   41.9310   31.5880   42.3370 N   0  0  0  0  0  0  0  0  0  0  0  0
   40.8370   32.7050   40.8990 H   0  0  0  0  0  0  0  0  0  0  0  0
   42.8930   30.4340   43.6830 H   0  0  0  0  0  0  0  0  0  0  0  0
   39.0340   30.9730   40.2300 N   0  0  0  0  0  0  0  0  0  0  0  0
   37.8250   31.6430   40.5240 C   0  0  0  0  0  0  0  0  0  0  0  0
   36.9540   31.9400   39.3320 C   0  0  0  0  0  0  0  0  0  0  0  0
   37.6280   32.3260   38.1520 N   0  0  0  0  0  0  0  0  0  0  0  0
   38.8230   31.6590   37.8700 C   0  0  0  0  0  0  0  0  0  0  0  0
   39.1120   30.5580   38.8720 C   0  0  0  0  0  0  0  0  0  0  0  0
   37.9390   32.5600   41.1380 H   0  0  0  0  0  0  0  0  0  0  0  0
   37.2290   30.9610   41.1770 H   0  0  0  0  0  0  0  0  0  0  0  0
   36.3170   31.0570   39.1170 H   0  0  0  0  0  0  0  0  0  0  0  0
   36.2360   32.7610   39.6200 H   0  0  0  0  0  0  0  0  0  0  0  0
   37.5180   33.3000   37.8580 H   0  0  0  0  0  0  0  0  0  0  0  0
   38.7520   31.1050   36.8810 H   0  0  0  0  0  0  0  0  0  0  0  0
   39.7450   32.2550   37.7570 H   0  0  0  0  0  0  0  0  0  0  0  0
   38.4000   29.7250   38.7020 H   0  0  0  0  0  0  0  0  0  0  0  0
   40.1270   30.1460   38.6680 H   0  0  0  0  0  0  0  0  0  0  0  0
   38.3280   28.3610   42.7040 C   0  0  0  0  0  0  0  0  0  0  0  0
   39.4450   28.3600   41.8450 C   0  0  0  0  0  0  0  0  0  0  0  0
   39.5830   27.1250   41.2370 C   0  0  0  0  0  0  0  0  0  0  0  0
   38.7880   26.0390   41.4130 C   0  0  0  0  0  0  0  0  0  0  0  0
   37.7210   26.1280   42.2800 C   0  0  0  0  0  0  0  0  0  0  0  0
   37.4770   27.2950   42.9350 C   0  0  0  0  0  0  0  0  0  0  0  0
   37.1390   24.8880   42.2560 O   0  0  0  0  0  0  0  0  0  0  0  0
   37.8580   24.0130   41.4100 C   0  0  2  0  0  0  0  0  0  0  0  0
   38.8910   24.7950   40.8140 O   0  0  0  0  0  0  0  0  0  0  0  0
   37.9180   29.1810   43.3320 H   0  0  0  0  0  0  0  0  0  0  0  0
   40.4130   27.1160   40.6050 H   0  0  0  0  0  0  0  0  0  0  0  0
   36.6360   27.2640   43.5710 H   0  0  0  0  0  0  0  0  0  0  0  0
   38.4110   23.2260   42.0040 H   0  0  0  0  0  0  0  0  0  0  0  0
   36.9910   23.3950   40.4160 N   0  0  0  0  0  0  0  0  0  0  0  0
   35.8420   23.9290   39.9590 C   0  0  0  0  0  3  0  0  0  0  0  0
   35.0570   23.3040   39.0180 C   0  0  0  0  0  0  0  0  0  0  0  0
   34.1640   23.8220   38.7290 H   0  0  0  0  0  0  0  0  0  0  0  0
   35.5100   22.0790   38.5530 C   0  0  0  0  0  0  0  0  0  0  0  0
   34.7880   21.5090   37.6900 O   0  0  0  0  0  0  0  0  0  0  0  0
   36.6650   21.5720   39.0320 N   0  0  0  0  0  0  0  0  0  0  0  0
   37.4170   22.2020   39.9530 C   0  0  0  0  0  0  0  0  0  0  0  0
   38.4850   21.6390   40.3350 O   0  0  0  0  0  0  0  0  0  0  0  0
   36.8870   20.6500   38.5990 H   0  0  0  0  0  0  0  0  0  0  0  0
  1  6  1  0  0  0  0
  2  1  2  0  0  0  0
  2  3  1  0  0  0  0
  3  4  2  0  0  0  0
  4  5  1  0  0  0  0
  5  8  1  0  0  0  0
  6  5  2  0  0  0  0
  7  1  1  0  0  0  0
  9 10  1  0  0  0  0
  9  2  1  0  0  0  0
 10 15  1  0  0  0  0
 10 16  1  0  0  0  0
 11 18  1  0  0  0  0
 11 10  1  0  0  0  0
 12 11  1  0  0  0  0
 13 12  1  0  0  0  0
 13 14  1  0  0  0  0
 14  9  1  0  0  0  0
 17 11  1  0  0  0  0
 19 12  1  0  0  0  0
 20 13  1  0  0  0  0
 21 13  1  0  0  0  0
 22 14  1  0  0  0  0
 23 14  1  0  0  0  0
 24 29  1  0  0  0  0
 24 33  1  0  0  0  0
 25  3  1  0  0  0  0
 25 24  2  0  0  0  0
 26 27  2  0  0  0  0
 26 25  1  0  0  0  0
 27 28  1  0  0  0  0
 28 29  2  0  0  0  0
 29 35  1  0  0  0  0
 30 28  1  0  0  0  0
 31 36  1  1  0  0  0
 31 30  1  0  0  0  0
 32 31  1  0  0  0  0
 32 27  1  0  0  0  0
 34 26  1  0  0  0  0
 37 31  1  0  0  0  0
 38 37  1  0  0  0  0
 39 38  2  0  0  0  0
 40 39  1  0  0  0  0
 41 39  1  0  0  0  0
 41 43  1  0  0  0  0
 42 41  2  0  0  0  0
 43 44  1  0  0  0  0
 44 45  2  0  0  0  0
 44 37  1  0  0  0  0
 46 43  1  0  0  0  0
M  END
>  <minimizedAffinity>
-5.78247213

$$$$

 OpenBabel03242523093D

 46 50  0  0  1  0  0  0  0  0999 V2000
   38.4300   29.6370   42.7460 C   0  0  0  0  0  0  0  0  0  0  0  0
   37.7930   29.8940   41.5440 C   0  0  0  0  0  0  0  0  0  0  0  0
   36.8310   29.0120   41.1270 C   0  0  0  0  0  0  0  0  0  0  0  0
   36.5420   27.9240   41.9080 N   0  0  0  0  0  0  0  0  0  0  0  0
   37.1830   27.7050   43.0740 C   0  0  0  0  0  0  0  0  0  0  0  0
   38.1090   28.5480   43.4830 N   0  0  0  0  0  0  0  0  0  0  0  0
   39.2010   30.3290   43.0960 H   0  0  0  0  0  0  0  0  0  0  0  0
   37.0150   26.8740   43.7440 H   0  0  0  0  0  0  0  0  0  0  0  0
   38.1800   31.0210   40.8200 N   0  0  0  0  0  0  0  0  0  0  0  0
   39.4940   31.2110   40.3360 C   0  0  0  0  0  0  0  0  0  0  0  0
   39.6770   32.4050   39.4370 C   0  0  0  0  0  0  0  0  0  0  0  0
   38.6190   32.6720   38.5380 N   0  0  0  0  0  0  0  0  0  0  0  0
   37.3240   32.4800   39.0250 C   0  0  0  0  0  0  0  0  0  0  0  0
   37.3160   32.1020   40.4930 C   0  0  0  0  0  0  0  0  0  0  0  0
   39.9500   30.3160   39.8620 H   0  0  0  0  0  0  0  0  0  0  0  0
   40.1430   31.3960   41.2260 H   0  0  0  0  0  0  0  0  0  0  0  0
   39.8640   33.3050   40.0590 H   0  0  0  0  0  0  0  0  0  0  0  0
   40.6230   32.2530   38.8430 H   0  0  0  0  0  0  0  0  0  0  0  0
   38.8090   32.5110   37.5460 H   0  0  0  0  0  0  0  0  0  0  0  0
   36.7350   33.4520   38.9990 H   0  0  0  0  0  0  0  0  0  0  0  0
   36.6620   31.7720   38.4970 H   0  0  0  0  0  0  0  0  0  0  0  0
   37.6000   32.9920   41.0930 H   0  0  0  0  0  0  0  0  0  0  0  0
   36.2740   31.8470   40.7920 H   0  0  0  0  0  0  0  0  0  0  0  0
   36.7410   28.7710   38.7870 C   0  0  0  0  0  0  0  0  0  0  0  0
   36.0160   28.9680   39.9790 C   0  0  0  0  0  0  0  0  0  0  0  0
   34.6710   29.1350   39.7010 C   0  0  0  0  0  0  0  0  0  0  0  0
   34.0860   29.1260   38.4760 C   0  0  0  0  0  0  0  0  0  0  0  0
   34.8750   28.9350   37.3630 C   0  0  0  0  0  0  0  0  0  0  0  0
   36.2150   28.7520   37.5070 C   0  0  0  0  0  0  0  0  0  0  0  0
   34.0120   28.9980   36.3010 O   0  0  0  0  0  0  0  0  0  0  0  0
   32.6960   29.2650   36.7400 C   0  0  2  0  0  0  0  0  0  0  0  0
   32.7460   29.2790   38.1650 O   0  0  0  0  0  0  0  0  0  0  0  0
   37.8270   28.5910   38.6400 H   0  0  0  0  0  0  0  0  0  0  0  0
   34.1300   29.2890   40.5800 H   0  0  0  0  0  0  0  0  0  0  0  0
   36.7300   28.6100   36.5970 H   0  0  0  0  0  0  0  0  0  0  0  0
   32.3720   30.3120   36.4620 H   0  0  0  0  0  0  0  0  0  0  0  0
   31.7500   28.2810   36.2310 N   0  0  0  0  0  0  0  0  0  0  0  0
   32.0470   26.9960   35.9630 C   0  0  0  0  0  3  0  0  0  0  0  0
   31.1160   26.1040   35.4820 C   0  0  0  0  0  0  0  0  0  0  0  0
   31.4660   25.1060   35.3050 H   0  0  0  0  0  0  0  0  0  0  0  0
   29.8370   26.5970   35.2840 C   0  0  0  0  0  0  0  0  0  0  0  0
   28.9850   25.7770   34.8430 O   0  0  0  0  0  0  0  0  0  0  0  0
   29.5720   27.8900   35.5620 N   0  0  0  0  0  0  0  0  0  0  0  0
   30.4990   28.7450   36.0310 C   0  0  0  0  0  0  0  0  0  0  0  0
   30.1460   29.9390   36.2600 O   0  0  0  0  0  0  0  0  0  0  0  0
   28.5750   28.1280   35.3670 H   0  0  0  0  0  0  0  0  0  0  0  0
  1  7  1  0  0  0  0
  1  6  1  0  0  0  0
  2  1  2  0  0  0  0
  3  2  1  0  0  0  0
  3  4  2  0  0  0  0
  4  5  1  0  0  0  0
  5  6  2  0  0  0  0
  5  8  1  0  0  0  0
  9  2  1  0  0  0  0
 10  9  1  0  0  0  0
 10 16  1  0  0  0  0
 11 17  1  0  0  0  0
 11 10  1  0  0  0  0
 12 13  1  0  0  0  0
 12 11  1  0  0  0  0
 13 14  1  0  0  0  0
 14 23  1  0  0  0  0
 14  9  1  0  0  0  0
 14 22  1  0  0  0  0
 15 10  1  0  0  0  0
 18 11  1  0  0  0  0
 19 12  1  0  0  0  0
 20 13  1  0  0  0  0
 21 13  1  0  0  0  0
 24 25  1  0  0  0  0
 25  3  1  0  0  0  0
 26 25  2  0  0  0  0
 26 34  1  0  0  0  0
 27 26  1  0  0  0  0
 28 29  1  0  0  0  0
 28 27  2  0  0  0  0
 29 24  2  0  0  0  0
 30 31  1  0  0  0  0
 30 28  1  0  0  0  0
 31 36  1  6  0  0  0
 31 32  1  0  0  0  0
 32 27  1  0  0  0  0
 33 24  1  0  0  0  0
 35 29  1  0  0  0  0
 37 31  1  0  0  0  0
 38 37  1  0  0  0  0
 39 38  2  0  0  0  0
 40 39  1  0  0  0  0
 41 39  1  0  0  0  0
 41 43  1  0  0  0  0
 42 41  2  0  0  0  0
 43 44  1  0  0  0  0
 44 37  1  0  0  0  0
 44 45  2  0  0  0  0
 46 43  1  0  0  0  0
M  END
>  <minimizedAffinity>
-5.74171829

$$$$
