
 OpenBabel03252501453D

 24 25  0  0  0  0  0  0  0  0999 V2000
   40.5900   30.1460   40.6590 C   0  0  0  0  0  0  0  0  0  0  0  0
   41.2890   30.1400   41.8840 C   0  0  0  0  0  0  0  0  0  0  0  0
   41.9870   31.2880   42.2280 C   0  0  0  0  0  0  0  0  0  0  0  0
   41.9680   32.3590   41.3790 N   0  0  0  0  0  0  0  0  0  0  0  0
   41.2920   32.3300   40.2230 C   0  0  0  0  0  0  0  0  0  0  0  0
   40.6230   31.2320   39.8900 N   0  0  0  0  0  0  0  0  0  0  0  0
   40.0370   29.2650   40.3640 H   0  0  0  0  0  0  0  0  0  0  0  0
   42.5470   31.3690   43.1450 H   0  0  0  0  0  0  0  0  0  0  0  0
   41.3120   33.4790   39.3820 N   0  0  0  0  0  0  0  0  0  0  0  0
   42.2720   34.4170   39.5280 C   0  0  0  0  0  3  0  0  0  0  0  0
   42.2110   35.5040   38.6640 C   0  0  0  0  0  0  0  0  0  0  0  0
   42.9750   36.2840   38.7560 H   0  0  0  0  0  0  0  0  0  0  0  0
   41.2130   35.5850   37.7230 C   0  0  0  0  0  0  0  0  0  0  0  0
   41.1720   36.5750   36.9480 O   0  0  0  0  0  0  0  0  0  0  0  0
   40.2670   34.6350   37.5980 N   0  0  0  0  0  0  0  0  0  0  0  0
   40.3510   33.5990   38.4450 C   0  0  0  0  0  0  0  0  0  0  0  0
   39.4650   32.7120   38.3260 O   0  0  0  0  0  0  0  0  0  0  0  0
   39.5070   34.7040   36.8780 H   0  0  0  0  0  0  0  0  0  0  0  0
   41.2900   28.9830   42.7670 C   0  0  0  0  0  3  0  0  0  0  0  0
   40.8090   28.9650   44.0050 C   0  0  0  0  0  3  0  0  0  0  0  0
   40.8780   27.6910   44.8050 C   0  0  0  0  0  0  0  0  0  0  0  0
   41.7490   27.1130   44.4650 H   0  0  0  0  0  0  0  0  0  0  0  0
   39.9640   27.1020   44.6230 H   0  0  0  0  0  0  0  0  0  0  0  0
   40.9470   27.9340   45.8830 H   0  0  0  0  0  0  0  0  0  0  0  0
  1  2  1  0  0  0  0
  2  3  2  0  0  0  0
  2 19  1  0  0  0  0
  3  8  1  0  0  0  0
  4  3  1  0  0  0  0
  5  4  2  0  0  0  0
  6  5  1  0  0  0  0
  6  1  2  0  0  0  0
  7  1  1  0  0  0  0
  9 10  1  0  0  0  0
  9  5  1  0  0  0  0
 11 12  1  0  0  0  0
 11 10  2  0  0  0  0
 13 11  1  0  0  0  0
 14 13  2  0  0  0  0
 15 13  1  0  0  0  0
 15 16  1  0  0  0  0
 16  9  1  0  0  0  0
 17 16  2  0  0  0  0
 18 15  1  0  0  0  0
 19 20  2  0  0  0  0
 20 21  1  0  0  0  0
 21 24  1  0  0  0  0
 22 21  1  0  0  0  0
 23 21  1  0  0  0  0
M  END
>  <minimizedAffinity>
-3.99536753

>  <minimizedRMSD>
9.42420006

$$$$
