
 OpenBabel03242520193D

 36 38  0  0  0  0  0  0  0  0999 V2000
   41.5170   35.4690   38.7700 C   0  0  0  0  0  0  0  0  0  0  0  0
   41.7340   36.5200   38.4780 H   0  0  0  0  0  0  0  0  0  0  0  0
   41.2850   34.8980   37.8360 H   0  0  0  0  0  0  0  0  0  0  0  0
   44.1780   34.4930   41.2660 C   0  0  0  0  0  0  0  0  0  0  0  0
   43.0790   35.1540   40.6850 C   0  0  0  0  0  0  0  0  0  0  0  0
   42.6770   34.8030   39.4070 C   0  0  0  0  0  0  0  0  0  0  0  0
   43.3850   33.8160   38.7730 N   0  0  0  0  0  0  0  0  0  0  0  0
   44.4480   33.2030   39.3800 C   0  0  0  0  0  0  0  0  0  0  0  0
   44.8270   33.5420   40.6000 N   0  0  0  0  0  0  0  0  0  0  0  0
   42.5810   35.9200   41.2600 H   0  0  0  0  0  0  0  0  0  0  0  0
   44.9590   32.4310   38.8130 H   0  0  0  0  0  0  0  0  0  0  0  0
   44.6060   34.8900   42.6350 C   0  0  0  0  0  0  0  0  0  0  0  0
   46.1190   35.3010   42.6740 C   0  0  0  0  0  0  0  0  0  0  0  0
   45.0080   36.2030   42.9930 C   0  0  0  0  0  0  0  0  0  0  0  0
   44.3430   34.1170   43.4100 H   0  0  0  0  0  0  0  0  0  0  0  0
   46.6560   35.3360   41.7160 H   0  0  0  0  0  0  0  0  0  0  0  0
   46.6730   34.8970   43.5460 H   0  0  0  0  0  0  0  0  0  0  0  0
   44.8360   37.0110   42.2210 H   0  0  0  0  0  0  0  0  0  0  0  0
   44.8530   36.6250   44.0080 H   0  0  0  0  0  0  0  0  0  0  0  0
   40.3160   35.4560   39.6670 C   0  0  0  0  0  0  0  0  0  0  0  0
   40.5810   35.9300   40.6330 H   0  0  0  0  0  0  0  0  0  0  0  0
   39.4790   36.0900   39.2680 H   0  0  0  0  0  0  0  0  0  0  0  0
   39.6860   33.5690   41.1550 C   0  0  0  0  0  0  0  0  0  0  0  0
   39.9480   34.2440   42.1980 O   0  0  0  0  0  0  0  0  0  0  0  0
   39.7520   34.1310   39.8610 N   0  0  0  0  0  0  0  0  0  0  0  0
   39.4270   33.6760   39.0200 H   0  0  0  0  0  0  0  0  0  0  0  0
   36.6460   30.2080   40.8640 H   0  0  0  0  0  0  0  0  0  0  0  0
   37.6040   30.4790   41.1680 N   0  0  0  0  0  0  0  0  0  0  0  0
   38.0390   31.7380   41.0020 C   0  0  0  0  0  0  0  0  0  0  0  0
   39.3110   32.1780   41.3850 C   0  0  0  0  0  0  0  0  0  0  0  0
   40.0280   31.1720   41.9380 C   0  0  0  0  0  0  0  0  0  0  0  0
   41.1850   31.4170   42.3290 O   0  0  0  0  0  0  0  0  0  0  0  0
   39.6300   29.9170   42.1190 N   0  0  0  0  0  0  0  0  0  0  0  0
   38.3970   29.5510   41.7310 C   0  0  0  0  0  0  0  0  0  0  0  0
   37.9520   28.4020   41.8640 O   0  0  0  0  0  0  0  0  0  0  0  0
   40.2250   29.1910   42.5470 H   0  0  0  0  0  0  0  0  0  0  0  0
  1  6  1  0  0  0  0
  1 20  1  0  0  0  0
  2  1  1  0  0  0  0
  3  1  1  0  0  0  0
  4 12  1  0  0  0  0
  5 10  1  0  0  0  0
  5  4  1  0  0  0  0
  6  5  2  0  0  0  0
  7  8  2  0  0  0  0
  7  6  1  0  0  0  0
  8  9  1  0  0  0  0
  9  4  2  0  0  0  0
 11  8  1  0  0  0  0
 12 13  1  0  0  0  0
 12 14  1  0  0  0  0
 12 15  1  0  0  0  0
 13 14  1  0  0  0  0
 13 17  1  0  0  0  0
 14 19  1  0  0  0  0
 16 13  1  0  0  0  0
 18 14  1  0  0  0  0
 20 25  1  0  0  0  0
 20 21  1  0  0  0  0
 22 20  1  0  0  0  0
 23 30  1  0  0  0  0
 23 24  2  0  0  0  0
 25 23  1  0  0  0  0
 26 25  1  0  0  0  0
 27 28  1  0  0  0  0
 28 34  1  0  0  0  0
 29 28  1  0  0  0  0
 29 30  2  0  0  0  0
 30 31  1  0  0  0  0
 31 33  1  0  0  0  0
 31 32  2  0  0  0  0
 33 36  1  0  0  0  0
 34 35  2  0  0  0  0
 34 33  1  0  0  0  0
M  END
>  <minimizedAffinity>
-5.2631135

>  <minimizedRMSD>
1.53722143

$$$$
