
 OpenBabel03252509033D

 49 51  0  0  1  0  0  0  0  0999 V2000
   46.9830   34.1920   43.5900 N   0  0  0  0  0  0  0  0  0  0  0  0
   46.6640   35.1130   42.5670 C   0  0  0  0  0  0  0  0  0  0  0  0
   45.1730   35.2730   42.3230 C   0  0  0  0  0  0  0  0  0  0  0  0
   44.3300   35.1650   43.5700 C   0  0  0  0  0  0  0  0  0  0  0  0
   45.2000   35.0240   44.8070 C   0  0  0  0  0  0  0  0  0  0  0  0
   46.0550   33.7290   44.4880 C   0  0  2  0  0  0  0  0  0  0  0  0
   47.0520   36.1130   42.8810 H   0  0  0  0  0  0  0  0  0  0  0  0
   47.1090   34.9160   41.5860 H   0  0  0  0  0  0  0  0  0  0  0  0
   44.8180   34.5820   41.5230 H   0  0  0  0  0  0  0  0  0  0  0  0
   45.0060   36.2900   41.9070 H   0  0  0  0  0  0  0  0  0  0  0  0
   43.7430   34.2240   43.4900 H   0  0  0  0  0  0  0  0  0  0  0  0
   43.5920   35.9780   43.6740 H   0  0  0  0  0  0  0  0  0  0  0  0
   44.5660   34.8280   45.6790 H   0  0  0  0  0  0  0  0  0  0  0  0
   45.8770   35.8710   44.9140 H   0  0  0  0  0  0  0  0  0  0  0  0
   45.3510   32.9620   44.1060 H   0  0  0  0  0  0  0  0  0  0  0  0
   48.1490   33.3930   43.3210 C   0  0  0  0  0  0  0  0  0  0  0  0
   48.5940   33.1490   44.3070 H   0  0  0  0  0  0  0  0  0  0  0  0
   48.8490   34.0330   42.7430 H   0  0  0  0  0  0  0  0  0  0  0  0
   47.7140   32.1820   42.5770 C   0  0  0  0  0  0  0  0  0  0  0  0
   46.6360   32.2340   42.2800 H   0  0  0  0  0  0  0  0  0  0  0  0
   47.8450   31.2690   43.1660 H   0  0  0  0  0  0  0  0  0  0  0  0
   50.3990   31.3140   40.0980 C   0  0  0  0  0  0  0  0  0  0  0  0
   49.6650   31.4150   41.2950 C   0  0  0  0  0  0  0  0  0  0  0  0
   48.4710   32.0880   41.3040 C   0  0  0  0  0  0  0  0  0  0  0  0
   48.0570   32.6230   40.1510 N   0  0  0  0  0  0  0  0  0  0  0  0
   48.7470   32.5330   39.0080 C   0  0  0  0  0  0  0  0  0  0  0  0
   49.9280   31.8770   38.9640 N   0  0  0  0  0  0  0  0  0  0  0  0
   51.3290   30.7690   40.1760 H   0  0  0  0  0  0  0  0  0  0  0  0
   50.0200   30.9730   42.2230 H   0  0  0  0  0  0  0  0  0  0  0  0
   48.4240   32.9600   38.0670 H   0  0  0  0  0  0  0  0  0  0  0  0
   46.5810   33.4550   45.7370 O   0  0  0  0  0  0  0  0  0  0  0  0
   45.5550   31.0590   45.1810 O   0  0  0  0  0  0  0  0  0  0  0  0
   46.1910   31.9190   46.2820 P   0  0  2  0  0  0  0  0  0  0  0  0
   44.9100   32.1450   47.4090 O   0  0  0  0  0  0  0  0  0  0  0  0
   45.2640   32.2970   48.3060 H   0  0  0  0  0  0  0  0  0  0  0  0
   47.4370   31.1470   47.0700 O   0  0  0  0  0  0  0  0  0  0  0  0
   47.9730   30.1840   46.2270 C   0  0  0  0  0  0  0  0  0  0  0  0
   47.4130   30.1460   45.2550 H   0  0  0  0  0  0  0  0  0  0  0  0
   49.0390   30.3670   46.0270 H   0  0  0  0  0  0  0  0  0  0  0  0
   47.7930   28.8950   46.8690 N   0  0  0  0  0  0  0  0  0  0  0  0
   46.7410   28.0690   46.7350 C   0  0  0  0  0  3  0  0  0  0  0  0
   46.7060   26.8610   47.4120 C   0  0  0  0  0  0  0  0  0  0  0  0
   45.8480   26.2160   47.2880 H   0  0  0  0  0  0  0  0  0  0  0  0
   47.7500   26.4760   48.2430 C   0  0  0  0  0  0  0  0  0  0  0  0
   47.7270   25.3830   48.8610 O   0  0  0  0  0  0  0  0  0  0  0  0
   48.7780   27.3300   48.3450 N   0  0  0  0  0  0  0  0  0  0  0  0
   48.8070   28.5020   47.6850 C   0  0  0  0  0  0  0  0  0  0  0  0
   49.8290   29.1950   47.8780 O   0  0  0  0  0  0  0  0  0  0  0  0
   49.5480   27.0080   48.9790 H   0  0  0  0  0  0  0  0  0  0  0  0
  1  6  1  0  0  0  0
  2  7  1  0  0  0  0
  2  1  1  0  0  0  0
  3  2  1  0  0  0  0
  3  4  1  0  0  0  0
  4 12  1  0  0  0  0
  4  5  1  0  0  0  0
  5 14  1  0  0  0  0
  5 13  1  0  0  0  0
  6 15  1  6  0  0  0
  6  5  1  0  0  0  0
  6 31  1  0  0  0  0
  8  2  1  0  0  0  0
  9  3  1  0  0  0  0
 10  3  1  0  0  0  0
 11  4  1  0  0  0  0
 16  1  1  0  0  0  0
 16 17  1  0  0  0  0
 18 16  1  0  0  0  0
 19 21  1  0  0  0  0
 19 16  1  0  0  0  0
 20 19  1  0  0  0  0
 22 28  1  0  0  0  0
 22 23  1  0  0  0  0
 23 24  2  0  0  0  0
 23 29  1  0  0  0  0
 24 19  1  0  0  0  0
 25 24  1  0  0  0  0
 26 25  2  0  0  0  0
 27 26  1  0  0  0  0
 27 22  2  0  0  0  0
 30 26  1  0  0  0  0
 31 33  1  0  0  0  0
 33 32  2  6  0  0  0
 33 36  1  0  0  0  0
 33 34  1  0  0  0  0
 34 35  1  0  0  0  0
 37 40  1  0  0  0  0
 37 36  1  0  0  0  0
 38 37  1  0  0  0  0
 39 37  1  0  0  0  0
 40 47  1  0  0  0  0
 41 40  1  0  0  0  0
 41 42  2  0  0  0  0
 42 44  1  0  0  0  0
 43 42  1  0  0  0  0
 44 46  1  0  0  0  0
 44 45  2  0  0  0  0
 46 49  1  0  0  0  0
 47 48  2  0  0  0  0
 47 46  1  0  0  0  0
M  END
>  <minimizedAffinity>
-4.4622364

>  <minimizedRMSD>
1.9761852

$$$$
