
 OpenBabel03252507463D

 38 40  0  0  0  0  0  0  0  0999 V2000
   47.0750   34.3010   40.8450 C   0  0  0  0  0  0  0  0  0  0  0  0
   47.1640   35.0110   40.0130 H   0  0  0  0  0  0  0  0  0  0  0  0
   46.4850   33.4400   40.4960 H   0  0  0  0  0  0  0  0  0  0  0  0
   48.4280   33.9090   41.2820 C   0  0  0  0  0  0  0  0  0  0  0  0
   48.8740   32.6640   40.8750 C   0  0  0  0  0  0  0  0  0  0  0  0
   50.1290   32.1920   41.2260 C   0  0  0  0  0  0  0  0  0  0  0  0
   50.9020   33.0300   41.9980 N   0  0  0  0  0  0  0  0  0  0  0  0
   50.4310   34.2340   42.3730 C   0  0  0  0  0  0  0  0  0  0  0  0
   49.2230   34.6630   42.0230 N   0  0  0  0  0  0  0  0  0  0  0  0
   50.4950   31.2330   40.9230 H   0  0  0  0  0  0  0  0  0  0  0  0
   51.0150   34.9200   42.9840 H   0  0  0  0  0  0  0  0  0  0  0  0
   47.8190   31.5940   39.8560 S   0  0  0  0  0  0  0  0  0  0  0  0
   47.0230   34.1160   35.7510 H   0  0  0  0  0  0  0  0  0  0  0  0
   47.6320   33.4120   36.2300 N   0  0  0  0  0  0  0  0  0  0  0  0
   47.2920   33.1070   37.4800 C   0  0  0  0  0  3  0  0  0  0  0  0
   48.0430   32.1930   38.1710 C   0  0  0  0  0  0  0  0  0  0  0  0
   49.1430   31.5990   37.5640 C   0  0  0  0  0  0  0  0  0  0  0  0
   49.9230   30.7360   38.0900 O   0  0  0  0  0  0  0  0  0  0  0  0
   49.4660   31.9300   36.2860 N   0  0  0  0  0  0  0  0  0  0  0  0
   48.7040   32.8370   35.6300 C   0  0  0  0  0  0  0  0  0  0  0  0
   48.9500   33.1830   34.4520 O   0  0  0  0  0  0  0  0  0  0  0  0
   50.2880   31.5020   35.7950 H   0  0  0  0  0  0  0  0  0  0  0  0
   46.2680   34.9490   41.9420 C   0  0  0  0  0  0  0  0  0  0  0  0
   46.5730   34.5350   42.9230 H   0  0  0  0  0  0  0  0  0  0  0  0
   46.5420   36.0350   41.9690 H   0  0  0  0  0  0  0  0  0  0  0  0
   44.8030   34.9190   41.7070 C   0  0  0  0  0  0  0  0  0  0  0  0
   43.9200   35.4370   42.7080 C   0  0  0  0  0  0  0  0  0  0  0  0
   42.2630   35.1820   41.9670 S   0  0  0  0  0  0  0  0  0  0  0  0
   43.0450   34.4120   40.4150 C   0  0  0  0  0  0  0  0  0  0  0  0
   44.1570   34.4690   40.6690 N   0  0  0  0  0  0  0  0  0  0  0  0
   44.1890   35.8680   43.6600 H   0  0  0  0  0  0  0  0  0  0  0  0
   42.2970   33.9500   39.3430 O   0  0  0  0  0  0  0  0  0  0  0  0
   40.3850   34.4340   37.5730 O   0  0  0  0  0  0  0  0  0  0  0  0
   41.4660   35.1130   38.4100 P   0  0  0  0  0  0  0  0  0  0  0  0
   40.7310   36.1960   39.4780 O   0  0  0  0  0  0  0  0  0  0  0  0
   40.2760   36.9030   38.9530 H   0  0  0  0  0  0  0  0  0  0  0  0
   42.5570   35.9450   37.4220 O   0  0  0  0  0  0  0  0  0  0  0  0
   42.6500   35.5120   36.5530 H   0  0  0  0  0  0  0  0  0  0  0  0
  1  4  1  0  0  0  0
  1 23  1  0  0  0  0
  2  1  1  0  0  0  0
  3  1  1  0  0  0  0
  4  9  1  0  0  0  0
  5  6  1  0  0  0  0
  5  4  2  0  0  0  0
  6  7  2  0  0  0  0
  7  8  1  0  0  0  0
  8 11  1  0  0  0  0
  9  8  2  0  0  0  0
 10  6  1  0  0  0  0
 12  5  1  0  0  0  0
 13 14  1  0  0  0  0
 14 15  1  0  0  0  0
 15 16  2  0  0  0  0
 16 12  1  0  0  0  0
 17 18  2  0  0  0  0
 17 16  1  0  0  0  0
 19 17  1  0  0  0  0
 20 14  1  0  0  0  0
 20 19  1  0  0  0  0
 21 20  2  0  0  0  0
 22 19  1  0  0  0  0
 23 25  1  0  0  0  0
 23 24  1  0  0  0  0
 26 23  1  0  0  0  0
 26 27  2  0  0  0  0
 27 31  1  0  0  0  0
 28 27  1  0  0  0  0
 29 30  2  0  0  0  0
 29 28  1  0  0  0  0
 30 26  1  0  0  0  0
 32 29  1  0  0  0  0
 33 34  2  0  0  0  0
 34 32  1  0  0  0  0
 34 35  1  0  0  0  0
 36 35  1  0  0  0  0
 37 34  1  0  0  0  0
 38 37  1  0  0  0  0
M  END
>  <minimizedAffinity>
-5.33112907

>  <minimizedRMSD>
0.44422859

$$$$
