
 OpenBabel03252507073D

 25 26  0  0  0  0  0  0  0  0999 V2000
   44.7260   35.5250   44.8230 C   0  0  0  0  0  0  0  0  0  0  0  0
   45.3530   35.7750   43.5720 C   0  0  0  0  0  0  0  0  0  0  0  0
   46.1920   34.7890   43.0670 C   0  0  0  0  0  0  0  0  0  0  0  0
   46.3740   33.6380   43.7890 N   0  0  0  0  0  0  0  0  0  0  0  0
   45.7560   33.4420   44.9780 C   0  0  0  0  0  0  0  0  0  0  0  0
   44.9360   34.3810   45.4910 N   0  0  0  0  0  0  0  0  0  0  0  0
   44.0700   36.2660   45.2430 H   0  0  0  0  0  0  0  0  0  0  0  0
   45.1450   36.7220   43.0750 H   0  0  0  0  0  0  0  0  0  0  0  0
   46.1090   32.1750   45.5220 N   0  0  0  0  0  0  0  0  0  0  0  0
   45.6430   31.0840   44.8840 C   0  0  0  0  0  3  0  0  0  0  0  0
   45.9830   29.8320   45.4090 C   0  0  0  0  0  0  0  0  0  0  0  0
   45.6180   28.9500   44.9100 H   0  0  0  0  0  0  0  0  0  0  0  0
   46.7700   29.7960   46.5410 C   0  0  0  0  0  0  0  0  0  0  0  0
   47.0790   28.6690   47.0200 O   0  0  0  0  0  0  0  0  0  0  0  0
   47.2130   30.9130   47.1470 N   0  0  0  0  0  0  0  0  0  0  0  0
   46.8760   32.1140   46.6260 C   0  0  0  0  0  0  0  0  0  0  0  0
   47.3110   33.1320   47.2230 O   0  0  0  0  0  0  0  0  0  0  0  0
   47.8110   30.8200   48.0090 H   0  0  0  0  0  0  0  0  0  0  0  0
   46.8070   35.0260   41.8470 O   0  0  0  0  0  0  0  0  0  0  0  0
   48.6900   33.3600   41.0030 O   0  0  0  0  0  0  0  0  0  0  0  0
   48.4880   34.7210   41.6770 P   0  0  0  0  0  0  0  0  0  0  0  0
   49.1660   35.9590   40.7930 O   0  0  0  0  0  0  0  0  0  0  0  0
   49.0420   35.7380   39.8340 H   0  0  0  0  0  0  0  0  0  0  0  0
   49.1380   34.6070   43.2400 O   0  0  0  0  0  0  0  0  0  0  0  0
   49.2450   35.5400   43.5630 H   0  0  0  0  0  0  0  0  0  0  0  0
  1  7  1  0  0  0  0
  1  6  1  0  0  0  0
  2  1  2  0  0  0  0
  3  2  1  0  0  0  0
  3  4  2  0  0  0  0
  4  5  1  0  0  0  0
  5  6  2  0  0  0  0
  5  9  1  0  0  0  0
  8  2  1  0  0  0  0
  9 16  1  0  0  0  0
 10 11  2  0  0  0  0
 10  9  1  0  0  0  0
 11 13  1  0  0  0  0
 12 11  1  0  0  0  0
 13 14  2  0  0  0  0
 13 15  1  0  0  0  0
 15 18  1  0  0  0  0
 16 15  1  0  0  0  0
 16 17  2  0  0  0  0
 19  3  1  0  0  0  0
 20 21  2  0  0  0  0
 21 19  1  0  0  0  0
 21 24  1  0  0  0  0
 22 21  1  0  0  0  0
 23 22  1  0  0  0  0
 24 25  1  0  0  0  0
M  END
>  <minimizedAffinity>
-5.25118446

>  <minimizedRMSD>
0.779545605

$$$$
