
 OpenBabel03252506253D

 46 50  0  0  0  0  0  0  0  0999 V2000
   48.0510   30.5470   44.6630 C   0  0  0  0  0  0  0  0  0  0  0  0
   48.6390   30.4630   43.4120 C   0  0  0  0  0  0  0  0  0  0  0  0
   48.4340   31.5500   42.5660 C   0  0  0  0  0  0  0  0  0  0  0  0
   47.6930   32.6500   42.9370 C   0  0  0  0  0  0  0  0  0  0  0  0
   47.3360   33.8050   42.3560 N   0  0  0  0  0  0  0  0  0  0  0  0
   46.5850   34.5500   43.1800 C   0  0  0  0  0  0  0  0  0  0  0  0
   46.4230   33.8750   44.3730 C   0  0  0  0  0  0  0  0  0  0  0  0
   47.1180   32.7100   44.1870 C   0  0  0  0  0  0  0  0  0  0  0  0
   47.3140   31.6370   45.0360 C   0  0  0  0  0  0  0  0  0  0  0  0
   48.2460   29.6680   45.2810 H   0  0  0  0  0  0  0  0  0  0  0  0
   48.8310   31.6250   41.5610 H   0  0  0  0  0  0  0  0  0  0  0  0
   47.6060   34.1030   41.3750 H   0  0  0  0  0  0  0  0  0  0  0  0
   46.1790   35.5240   42.9350 H   0  0  0  0  0  0  0  0  0  0  0  0
   45.8830   34.1680   45.2630 H   0  0  0  0  0  0  0  0  0  0  0  0
   46.7420   31.6470   46.3420 N   0  0  0  0  0  0  0  0  0  0  0  0
   47.1680   32.3500   47.4080 C   0  0  0  0  0  3  0  0  0  0  0  0
   46.4710   32.2250   48.6070 C   0  0  0  0  0  0  0  0  0  0  0  0
   46.8370   32.8030   49.4470 H   0  0  0  0  0  0  0  0  0  0  0  0
   45.3710   31.3990   48.7000 C   0  0  0  0  0  0  0  0  0  0  0  0
   44.7390   31.2830   49.7810 O   0  0  0  0  0  0  0  0  0  0  0  0
   44.9790   30.7080   47.5920 N   0  0  0  0  0  0  0  0  0  0  0  0
   45.6650   30.8410   46.4420 C   0  0  0  0  0  0  0  0  0  0  0  0
   45.1970   30.1420   45.4840 O   0  0  0  0  0  0  0  0  0  0  0  0
   44.1320   30.0840   47.7010 H   0  0  0  0  0  0  0  0  0  0  0  0
   49.4500   29.4080   42.8260 C   0  0  0  0  0  0  0  0  0  0  0  0
   49.5670   29.5410   41.7250 H   0  0  0  0  0  0  0  0  0  0  0  0
   50.5000   29.5470   43.2140 H   0  0  0  0  0  0  0  0  0  0  0  0
   49.0690   28.0100   43.1400 C   0  0  0  0  0  0  0  0  0  0  0  0
   49.6150   27.3460   42.4110 H   0  0  0  0  0  0  0  0  0  0  0  0
   49.3990   27.7460   44.1400 H   0  0  0  0  0  0  0  0  0  0  0  0
   45.6430   27.9360   42.1330 C   0  0  0  0  0  0  0  0  0  0  0  0
   45.5960   27.2670   43.3610 C   0  0  0  0  0  0  0  0  0  0  0  0
   46.8490   27.2140   43.8800 C   0  0  0  0  0  0  0  0  0  0  0  0
   47.6400   27.8270   43.0020 N   0  0  0  0  0  0  0  0  0  0  0  0
   46.9320   28.2690   41.9430 N   0  0  0  0  0  0  0  0  0  0  0  0
   44.7230   26.8420   43.8600 H   0  0  0  0  0  0  0  0  0  0  0  0
   47.1670   26.7650   44.8230 H   0  0  0  0  0  0  0  0  0  0  0  0
   43.6210   28.6480   39.1770 C   0  0  0  0  0  0  0  0  0  0  0  0
   42.3170   28.6680   39.6850 C   0  0  0  0  0  0  0  0  0  0  0  0
   42.1480   28.4360   41.0440 C   0  0  0  0  0  0  0  0  0  0  0  0
   43.2570   28.2080   41.7700 N   0  0  0  0  0  0  0  0  0  0  0  0
   44.4970   28.1910   41.2760 C   0  0  0  0  0  0  0  0  0  0  0  0
   44.6680   28.4120   39.9740 N   0  0  0  0  0  0  0  0  0  0  0  0
   43.7180   28.8330   38.1110 H   0  0  0  0  0  0  0  0  0  0  0  0
   41.4220   28.8460   39.1310 H   0  0  0  0  0  0  0  0  0  0  0  0
   41.1940   28.4260   41.5560 H   0  0  0  0  0  0  0  0  0  0  0  0
  1  9  1  0  0  0  0
  1 10  1  0  0  0  0
  2  1  2  0  0  0  0
  3  4  2  0  0  0  0
  3  2  1  0  0  0  0
  4  8  1  0  0  0  0
  5  4  1  0  0  0  0
  5  6  1  0  0  0  0
  6  7  2  0  0  0  0
  7 14  1  0  0  0  0
  8  7  1  0  0  0  0
  8  9  2  0  0  0  0
  9 15  1  0  0  0  0
 11  3  1  0  0  0  0
 12  5  1  0  0  0  0
 13  6  1  0  0  0  0
 15 22  1  0  0  0  0
 15 16  1  0  0  0  0
 16 17  2  0  0  0  0
 17 19  1  0  0  0  0
 17 18  1  0  0  0  0
 19 20  2  0  0  0  0
 21 24  1  0  0  0  0
 21 19  1  0  0  0  0
 22 21  1  0  0  0  0
 23 22  2  0  0  0  0
 25 28  1  0  0  0  0
 25 27  1  0  0  0  0
 25  2  1  0  0  0  0
 26 25  1  0  0  0  0
 28 30  1  0  0  0  0
 29 28  1  0  0  0  0
 31 32  1  0  0  0  0
 32 36  1  0  0  0  0
 32 33  2  0  0  0  0
 33 37  1  0  0  0  0
 34 28  1  0  0  0  0
 34 33  1  0  0  0  0
 35 31  2  0  0  0  0
 35 34  1  0  0  0  0
 38 39  2  0  0  0  0
 38 43  1  0  0  0  0
 39 40  1  0  0  0  0
 40 46  1  0  0  0  0
 40 41  2  0  0  0  0
 42 41  1  0  0  0  0
 42 31  1  0  0  0  0
 43 42  2  0  0  0  0
 44 38  1  0  0  0  0
 45 39  1  0  0  0  0
M  END
>  <minimizedAffinity>
-3.87077618

>  <minimizedRMSD>
7.11087465

$$$$
