
 OpenBabel03252506253D

 46 50  0  0  0  0  0  0  0  0999 V2000
   45.5950   27.9120   47.9170 C   0  0  0  0  0  0  0  0  0  0  0  0
   45.0470   29.1820   47.8700 C   0  0  0  0  0  0  0  0  0  0  0  0
   44.2170   29.4500   46.7850 C   0  0  0  0  0  0  0  0  0  0  0  0
   43.9480   28.5180   45.8080 C   0  0  0  0  0  0  0  0  0  0  0  0
   43.2150   28.4900   44.6850 N   0  0  0  0  0  0  0  0  0  0  0  0
   43.3000   27.2970   44.0800 C   0  0  0  0  0  0  0  0  0  0  0  0
   44.1260   26.4750   44.8210 C   0  0  0  0  0  0  0  0  0  0  0  0
   44.5060   27.2600   45.8760 C   0  0  0  0  0  0  0  0  0  0  0  0
   45.3320   26.9820   46.9490 C   0  0  0  0  0  0  0  0  0  0  0  0
   46.2360   27.7600   48.7890 H   0  0  0  0  0  0  0  0  0  0  0  0
   43.7200   30.3970   46.6160 H   0  0  0  0  0  0  0  0  0  0  0  0
   42.6390   29.2990   44.3140 H   0  0  0  0  0  0  0  0  0  0  0  0
   42.7950   27.0340   43.1590 H   0  0  0  0  0  0  0  0  0  0  0  0
   44.4210   25.4510   44.6400 H   0  0  0  0  0  0  0  0  0  0  0  0
   45.9350   25.6950   47.0700 N   0  0  0  0  0  0  0  0  0  0  0  0
   47.1100   25.2990   46.5460 C   0  0  0  0  0  3  0  0  0  0  0  0
   47.5320   23.9930   46.7760 C   0  0  0  0  0  0  0  0  0  0  0  0
   48.4810   23.7030   46.3410 H   0  0  0  0  0  0  0  0  0  0  0  0
   46.7650   23.1260   47.5240 C   0  0  0  0  0  0  0  0  0  0  0  0
   47.1430   21.9440   47.7340 O   0  0  0  0  0  0  0  0  0  0  0  0
   45.5820   23.5740   48.0340 N   0  0  0  0  0  0  0  0  0  0  0  0
   45.1910   24.8410   47.8010 C   0  0  0  0  0  0  0  0  0  0  0  0
   44.0710   25.1340   48.3330 O   0  0  0  0  0  0  0  0  0  0  0  0
   45.0210   22.8810   48.6030 H   0  0  0  0  0  0  0  0  0  0  0  0
   45.1980   30.3020   48.7850 C   0  0  0  0  0  0  0  0  0  0  0  0
   44.3160   30.9840   48.7500 H   0  0  0  0  0  0  0  0  0  0  0  0
   45.1550   29.8810   49.8300 H   0  0  0  0  0  0  0  0  0  0  0  0
   46.4570   31.0810   48.6980 C   0  0  0  0  0  0  0  0  0  0  0  0
   46.4030   31.8860   49.4850 H   0  0  0  0  0  0  0  0  0  0  0  0
   47.3080   30.4470   48.9300 H   0  0  0  0  0  0  0  0  0  0  0  0
   46.2860   33.0580   45.7290 C   0  0  0  0  0  0  0  0  0  0  0  0
   47.2190   32.0790   45.3690 C   0  0  0  0  0  0  0  0  0  0  0  0
   47.3940   31.2350   46.4170 C   0  0  0  0  0  0  0  0  0  0  0  0
   46.5980   31.6770   47.3870 N   0  0  0  0  0  0  0  0  0  0  0  0
   45.9220   32.7740   46.9910 N   0  0  0  0  0  0  0  0  0  0  0  0
   47.7450   31.9710   44.4190 H   0  0  0  0  0  0  0  0  0  0  0  0
   48.0500   30.3630   46.4750 H   0  0  0  0  0  0  0  0  0  0  0  0
   44.4640   35.9730   44.4980 C   0  0  0  0  0  0  0  0  0  0  0  0
   45.0120   36.1720   43.2250 C   0  0  0  0  0  0  0  0  0  0  0  0
   46.0050   35.2980   42.8030 C   0  0  0  0  0  0  0  0  0  0  0  0
   46.3660   34.3220   43.6560 N   0  0  0  0  0  0  0  0  0  0  0  0
   45.8370   34.1400   44.8680 C   0  0  0  0  0  0  0  0  0  0  0  0
   44.8840   34.9740   45.2810 N   0  0  0  0  0  0  0  0  0  0  0  0
   43.6900   36.6740   44.7960 H   0  0  0  0  0  0  0  0  0  0  0  0
   44.7430   36.9370   42.5300 H   0  0  0  0  0  0  0  0  0  0  0  0
   46.5050   35.3450   41.8440 H   0  0  0  0  0  0  0  0  0  0  0  0
  1 10  1  0  0  0  0
  2  1  1  0  0  0  0
  2 25  1  0  0  0  0
  3  2  2  0  0  0  0
  4  8  2  0  0  0  0
  4  3  1  0  0  0  0
  5  4  1  0  0  0  0
  6  5  1  0  0  0  0
  6  7  2  0  0  0  0
  7  8  1  0  0  0  0
  8  9  1  0  0  0  0
  9 15  1  0  0  0  0
  9  1  2  0  0  0  0
 11  3  1  0  0  0  0
 12  5  1  0  0  0  0
 13  6  1  0  0  0  0
 14  7  1  0  0  0  0
 15 22  1  0  0  0  0
 16 17  2  0  0  0  0
 16 15  1  0  0  0  0
 17 19  1  0  0  0  0
 18 17  1  0  0  0  0
 19 20  2  0  0  0  0
 19 21  1  0  0  0  0
 21 24  1  0  0  0  0
 22 21  1  0  0  0  0
 22 23  2  0  0  0  0
 25 27  1  0  0  0  0
 26 25  1  0  0  0  0
 28 25  1  0  0  0  0
 28 30  1  0  0  0  0
 28 29  1  0  0  0  0
 31 35  2  0  0  0  0
 32 31  1  0  0  0  0
 32 33  2  0  0  0  0
 33 37  1  0  0  0  0
 33 34  1  0  0  0  0
 34 28  1  0  0  0  0
 35 34  1  0  0  0  0
 36 32  1  0  0  0  0
 38 44  1  0  0  0  0
 38 43  1  0  0  0  0
 39 38  2  0  0  0  0
 40 39  1  0  0  0  0
 40 41  2  0  0  0  0
 41 42  1  0  0  0  0
 42 43  2  0  0  0  0
 42 31  1  0  0  0  0
 45 39  1  0  0  0  0
 46 40  1  0  0  0  0
M  END
>  <minimizedAffinity>
-5.4971571

>  <minimizedRMSD>
1.58122039

$$$$
