
 OpenBabel03242521443D

 39 41  0  0  1  0  0  0  0  0999 V2000
   45.5870   35.5220   43.7430 C   0  0  0  0  0  0  0  0  0  0  0  0
   46.6150   34.7290   43.2390 C   0  0  0  0  0  0  0  0  0  0  0  0
   47.0300   33.5970   43.9320 C   0  0  0  0  0  0  0  0  0  0  0  0
   46.3990   33.3290   45.0750 N   0  0  0  0  0  0  0  0  0  0  0  0
   45.4000   34.0980   45.5650 C   0  0  0  0  0  0  0  0  0  0  0  0
   44.9850   35.1950   44.9110 N   0  0  0  0  0  0  0  0  0  0  0  0
   47.0410   35.0430   42.3190 H   0  0  0  0  0  0  0  0  0  0  0  0
   44.8940   33.8700   46.4940 H   0  0  0  0  0  0  0  0  0  0  0  0
   49.0810   33.6010   42.5360 C   0  0  2  0  0  0  0  0  0  0  0  0
   48.1050   32.8200   43.3430 C   0  0  2  0  0  0  0  0  0  0  0  0
   47.6750   31.8530   42.3880 O   0  0  0  0  0  0  0  0  0  0  0  0
   48.8840   31.3570   41.9310 C   0  0  0  0  0  0  0  0  0  0  0  0
   49.9270   32.4260   42.0120 C   0  0  1  0  0  0  0  0  0  0  0  0
   48.6190   34.0230   41.6030 H   0  0  0  0  0  0  0  0  0  0  0  0
   48.6510   32.2840   44.1540 H   0  0  0  0  0  0  0  0  0  0  0  0
   49.1640   30.4410   42.5110 H   0  0  0  0  0  0  0  0  0  0  0  0
   48.7510   31.0870   40.8610 H   0  0  0  0  0  0  0  0  0  0  0  0
   50.7480   32.1880   42.6970 H   0  0  0  0  0  0  0  0  0  0  0  0
   49.7940   34.5260   43.2360 O   0  0  0  0  0  0  0  0  0  0  0  0
   50.5960   34.7620   42.6850 H   0  0  0  0  0  0  0  0  0  0  0  0
   50.4850   32.7850   40.7890 O   0  0  0  0  0  0  0  0  0  0  0  0
   49.8670   32.7890   40.0380 H   0  0  0  0  0  0  0  0  0  0  0  0
   45.1600   36.7420   42.9930 C   0  0  0  0  0  0  0  0  0  0  0  0
   46.0170   37.0840   42.3630 H   0  0  0  0  0  0  0  0  0  0  0  0
   44.2450   36.5490   42.3870 H   0  0  0  0  0  0  0  0  0  0  0  0
   45.3010   39.1430   43.9230 C   0  0  0  0  0  0  0  0  0  0  0  0
   45.9360   39.4750   42.8560 O   0  0  0  0  0  0  0  0  0  0  0  0
   44.9080   37.7900   43.9430 N   0  0  0  0  0  0  0  0  0  0  0  0
   44.3440   37.4620   44.7500 H   0  0  0  0  0  0  0  0  0  0  0  0
   44.8910   40.2110   48.2750 H   0  0  0  0  0  0  0  0  0  0  0  0
   44.8770   40.5620   47.3030 N   0  0  0  0  0  0  0  0  0  0  0  0
   45.0780   39.7280   46.2750 C   0  0  0  0  0  3  0  0  0  0  0  0
   45.0700   40.1490   44.9420 C   0  0  0  0  0  0  0  0  0  0  0  0
   44.8350   41.4970   44.8180 C   0  0  0  0  0  0  0  0  0  0  0  0
   44.8150   41.9390   43.6450 O   0  0  0  0  0  0  0  0  0  0  0  0
   44.6310   42.3550   45.8290 N   0  0  0  0  0  0  0  0  0  0  0  0
   44.6560   41.8680   47.0800 C   0  0  0  0  0  0  0  0  0  0  0  0
   44.4640   42.6790   48.0020 O   0  0  0  0  0  0  0  0  0  0  0  0
   44.4640   43.3580   45.6000 H   0  0  0  0  0  0  0  0  0  0  0  0
  1  6  1  0  0  0  0
  2  1  2  0  0  0  0
  2  3  1  0  0  0  0
  3  4  2  0  0  0  0
  4  5  1  0  0  0  0
  5  8  1  0  0  0  0
  6  5  2  0  0  0  0
  7  2  1  0  0  0  0
  9 14  1  6  0  0  0
  9 19  1  0  0  0  0
  9 10  1  0  0  0  0
 10  3  1  0  0  0  0
 10 15  1  1  0  0  0
 11 10  1  0  0  0  0
 12 13  1  0  0  0  0
 12 11  1  0  0  0  0
 12 16  1  0  0  0  0
 13  9  1  0  0  0  0
 13 18  1  1  0  0  0
 17 12  1  0  0  0  0
 20 19  1  0  0  0  0
 21 13  1  0  0  0  0
 22 21  1  0  0  0  0
 23  1  1  0  0  0  0
 23 28  1  0  0  0  0
 24 23  1  0  0  0  0
 25 23  1  0  0  0  0
 26 28  1  0  0  0  0
 26 33  1  0  0  0  0
 27 26  2  0  0  0  0
 28 29  1  0  0  0  0
 31 30  1  0  0  0  0
 32 31  1  0  0  0  0
 33 32  2  0  0  0  0
 34 33  1  0  0  0  0
 34 36  1  0  0  0  0
 35 34  2  0  0  0  0
 36 37  1  0  0  0  0
 37 31  1  0  0  0  0
 37 38  2  0  0  0  0
 39 36  1  0  0  0  0
M  END
>  <minimizedAffinity>
-3.28594422

>  <minimizedRMSD>
0.76700455

$$$$
