
 OpenBabel03252506283D

 48 52  0  0  0  0  0  0  0  0999 V2000
   47.1220   31.8570   44.1130 C   0  0  0  0  0  0  0  0  0  0  0  0
   47.9870   30.7560   44.0870 C   0  0  0  0  0  0  0  0  0  0  0  0
   48.0090   30.1790   45.3080 C   0  0  0  0  0  0  0  0  0  0  0  0
   47.1820   30.8990   46.0670 N   0  0  0  0  0  0  0  0  0  0  0  0
   46.6430   31.9060   45.3710 N   0  0  0  0  0  0  0  0  0  0  0  0
   48.5500   30.4320   43.2010 H   0  0  0  0  0  0  0  0  0  0  0  0
   48.5990   29.3080   45.5560 H   0  0  0  0  0  0  0  0  0  0  0  0
   47.6350   33.9910   41.1970 C   0  0  0  0  0  0  0  0  0  0  0  0
   46.3460   34.3580   40.8350 C   0  0  0  0  0  0  0  0  0  0  0  0
   45.2990   33.8610   41.6080 C   0  0  0  0  0  0  0  0  0  0  0  0
   45.6090   33.0550   42.6580 N   0  0  0  0  0  0  0  0  0  0  0  0
   46.8460   32.7220   42.9810 C   0  0  0  0  0  0  0  0  0  0  0  0
   47.8690   33.1970   42.2380 N   0  0  0  0  0  0  0  0  0  0  0  0
   48.4240   34.4030   40.5640 H   0  0  0  0  0  0  0  0  0  0  0  0
   46.0460   34.9890   40.0180 H   0  0  0  0  0  0  0  0  0  0  0  0
   43.9060   34.1390   41.3770 N   0  0  0  0  0  0  0  0  0  0  0  0
   43.2730   35.2220   41.8580 C   0  0  0  0  0  3  0  0  0  0  0  0
   41.9260   35.4330   41.6000 C   0  0  0  0  0  0  0  0  0  0  0  0
   41.4220   36.3050   41.9880 H   0  0  0  0  0  0  0  0  0  0  0  0
   41.2520   34.5010   40.8370 C   0  0  0  0  0  0  0  0  0  0  0  0
   40.0310   34.6260   40.5620 O   0  0  0  0  0  0  0  0  0  0  0  0
   41.9490   33.4330   40.3830 N   0  0  0  0  0  0  0  0  0  0  0  0
   43.2740   33.2220   40.6360 C   0  0  0  0  0  0  0  0  0  0  0  0
   43.7480   32.1740   40.1310 O   0  0  0  0  0  0  0  0  0  0  0  0
   41.3920   32.7450   39.8020 H   0  0  0  0  0  0  0  0  0  0  0  0
   46.8800   30.6530   47.4740 C   0  0  0  0  0  0  0  0  0  0  0  0
   47.1950   31.5180   48.1020 H   0  0  0  0  0  0  0  0  0  0  0  0
   47.4290   29.7850   47.8370 H   0  0  0  0  0  0  0  0  0  0  0  0
   45.4290   30.4510   47.6740 C   0  0  0  0  0  0  0  0  0  0  0  0
   44.8850   31.1680   47.0030 H   0  0  0  0  0  0  0  0  0  0  0  0
   45.1740   30.8070   48.7020 H   0  0  0  0  0  0  0  0  0  0  0  0
   45.0280   28.0350   48.4030 C   0  0  0  0  0  0  0  0  0  0  0  0
   44.9160   29.1020   47.5460 C   0  0  0  0  0  0  0  0  0  0  0  0
   44.2020   28.8770   46.3640 C   0  0  0  0  0  0  0  0  0  0  0  0
   43.6410   27.6460   46.0750 C   0  0  0  0  0  0  0  0  0  0  0  0
   42.9250   27.1500   45.0540 N   0  0  0  0  0  0  0  0  0  0  0  0
   42.6110   25.8720   45.2500 C   0  0  0  0  0  0  0  0  0  0  0  0
   43.1430   25.4750   46.4740 C   0  0  0  0  0  0  0  0  0  0  0  0
   43.7670   26.5990   46.9440 C   0  0  0  0  0  0  0  0  0  0  0  0
   44.4700   26.8150   48.1120 C   0  0  0  0  0  0  0  0  0  0  0  0
   45.5860   28.2480   49.3050 H   0  0  0  0  0  0  0  0  0  0  0  0
   44.0320   29.6250   45.5960 H   0  0  0  0  0  0  0  0  0  0  0  0
   42.6360   27.6850   44.1950 H   0  0  0  0  0  0  0  0  0  0  0  0
   42.0460   25.1810   44.6250 H   0  0  0  0  0  0  0  0  0  0  0  0
   43.0640   24.4940   46.9250 H   0  0  0  0  0  0  0  0  0  0  0  0
   44.6200   25.7110   49.0620 C   0  0  0  0  0  0  0  0  0  0  0  0
   44.3590   25.8840   50.2900 O   0  0  0  0  0  0  0  0  0  0  0  0
   44.9550   24.7360   48.7360 H   0  0  0  0  0  0  0  0  0  0  0  0
  1  5  2  0  0  0  0
  2  1  1  0  0  0  0
  2  3  2  0  0  0  0
  3  7  1  0  0  0  0
  3  4  1  0  0  0  0
  4 26  1  0  0  0  0
  5  4  1  0  0  0  0
  6  2  1  0  0  0  0
  8 13  1  0  0  0  0
  9  8  2  0  0  0  0
  9 10  1  0  0  0  0
 10 11  2  0  0  0  0
 11 12  1  0  0  0  0
 12  1  1  0  0  0  0
 13 12  2  0  0  0  0
 14  8  1  0  0  0  0
 15  9  1  0  0  0  0
 16 10  1  0  0  0  0
 16 17  1  0  0  0  0
 18 17  2  0  0  0  0
 18 19  1  0  0  0  0
 20 18  1  0  0  0  0
 21 20  2  0  0  0  0
 22 23  1  0  0  0  0
 22 20  1  0  0  0  0
 23 16  1  0  0  0  0
 24 23  2  0  0  0  0
 25 22  1  0  0  0  0
 26 29  1  0  0  0  0
 26 28  1  0  0  0  0
 26 27  1  0  0  0  0
 29 31  1  0  0  0  0
 30 29  1  0  0  0  0
 32 41  1  0  0  0  0
 33 29  1  0  0  0  0
 33 32  2  0  0  0  0
 34 33  1  0  0  0  0
 35 34  2  0  0  0  0
 35 39  1  0  0  0  0
 36 37  1  0  0  0  0
 36 35  1  0  0  0  0
 37 38  2  0  0  0  0
 38 45  1  0  0  0  0
 38 39  1  0  0  0  0
 39 40  2  0  0  0  0
 40 32  1  0  0  0  0
 40 46  1  0  0  0  0
 42 34  1  0  0  0  0
 43 36  1  0  0  0  0
 44 37  1  0  0  0  0
 46 47  2  0  0  0  0
 48 46  1  0  0  0  0
M  END
>  <minimizedAffinity>
-5.48119497

>  <minimizedRMSD>
3.53306079

$$$$
