
 OpenBabel03252505543D

 34 36  0  0  0  0  0  0  0  0999 V2000
   46.4990   30.0920   47.5990 C   0  0  0  0  0  0  0  0  0  0  0  0
   46.5230   28.8440   47.0140 C   0  0  0  0  0  0  0  0  0  0  0  0
   47.6120   28.0330   47.2040 C   0  0  0  0  0  0  0  0  0  0  0  0
   48.6650   28.4160   47.9440 N   0  0  0  0  0  0  0  0  0  0  0  0
   48.6290   29.6370   48.5090 C   0  0  0  0  0  0  0  0  0  0  0  0
   47.5720   30.4790   48.3520 N   0  0  0  0  0  0  0  0  0  0  0  0
   45.6360   28.6340   46.4450 H   0  0  0  0  0  0  0  0  0  0  0  0
   47.5280   27.0780   46.7020 H   0  0  0  0  0  0  0  0  0  0  0  0
   49.7760   30.0170   49.2970 N   0  0  0  0  0  0  0  0  0  0  0  0
   49.8430   30.4300   50.5530 C   0  0  0  0  0  3  0  0  0  0  0  0
   51.0710   30.7370   51.0900 C   0  0  0  0  0  0  0  0  0  0  0  0
   51.0830   31.0720   52.1180 H   0  0  0  0  0  0  0  0  0  0  0  0
   52.2090   30.6140   50.3280 C   0  0  0  0  0  0  0  0  0  0  0  0
   53.3270   30.9000   50.8360 O   0  0  0  0  0  0  0  0  0  0  0  0
   52.1160   30.1920   49.0520 N   0  0  0  0  0  0  0  0  0  0  0  0
   50.9050   29.8940   48.5410 C   0  0  0  0  0  0  0  0  0  0  0  0
   50.9800   29.5130   47.3360 O   0  0  0  0  0  0  0  0  0  0  0  0
   53.0200   30.1220   48.5340 H   0  0  0  0  0  0  0  0  0  0  0  0
   45.4800   31.1330   47.5560 C   0  0  0  0  0  0  0  0  0  0  0  0
   44.7730   31.1040   48.4240 H   0  0  0  0  0  0  0  0  0  0  0  0
   44.8360   30.9990   46.6540 H   0  0  0  0  0  0  0  0  0  0  0  0
   46.1310   32.3730   47.4210 O   0  0  0  0  0  0  0  0  0  0  0  0
   45.1650   34.7440   44.9520 C   0  0  0  0  0  0  0  0  0  0  0  0
   46.0440   34.5090   43.9000 C   0  0  0  0  0  0  0  0  0  0  0  0
   47.0040   33.4890   44.0630 C   0  0  0  0  0  0  0  0  0  0  0  0
   47.0080   32.8050   45.2300 N   0  0  0  0  0  0  0  0  0  0  0  0
   46.1330   33.0720   46.2190 C   0  0  0  0  0  0  0  0  0  0  0  0
   45.2230   34.0270   46.0870 N   0  0  0  0  0  0  0  0  0  0  0  0
   44.4050   35.5200   44.8780 H   0  0  0  0  0  0  0  0  0  0  0  0
   47.6730   33.3190   43.2460 H   0  0  0  0  0  0  0  0  0  0  0  0
   45.9200   35.3490   42.6650 C   0  0  0  0  0  0  0  0  0  0  0  0
   45.2370   36.4700   43.0620 F   0  0  0  0  0  0  0  0  0  0  0  0
   45.1540   34.6080   41.7730 F   0  0  0  0  0  0  0  0  0  0  0  0
   47.1750   35.6200   42.1850 F   0  0  0  0  0  0  0  0  0  0  0  0
  1  6  1  0  0  0  0
  2  3  1  0  0  0  0
  2  1  2  0  0  0  0
  3  4  2  0  0  0  0
  4  5  1  0  0  0  0
  5  9  1  0  0  0  0
  6  5  2  0  0  0  0
  7  2  1  0  0  0  0
  8  3  1  0  0  0  0
  9 10  1  0  0  0  0
 10 11  2  0  0  0  0
 11 12  1  0  0  0  0
 13 14  2  0  0  0  0
 13 11  1  0  0  0  0
 15 13  1  0  0  0  0
 16 15  1  0  0  0  0
 16  9  1  0  0  0  0
 17 16  2  0  0  0  0
 18 15  1  0  0  0  0
 19  1  1  0  0  0  0
 19 20  1  0  0  0  0
 21 19  1  0  0  0  0
 22 19  1  0  0  0  0
 23 28  1  0  0  0  0
 24 25  1  0  0  0  0
 24 23  2  0  0  0  0
 25 26  2  0  0  0  0
 26 27  1  0  0  0  0
 27 22  1  0  0  0  0
 28 27  2  0  0  0  0
 29 23  1  0  0  0  0
 30 25  1  0  0  0  0
 31 32  1  0  0  0  0
 31 24  1  0  0  0  0
 33 31  1  0  0  0  0
 34 31  1  0  0  0  0
M  END
>  <minimizedAffinity>
-5.68651438

>  <minimizedRMSD>
1.64925134

$$$$
