
 OpenBabel03252506253D

 46 50  0  0  0  0  0  0  0  0999 V2000
   45.6430   27.6480   47.8460 C   0  0  0  0  0  0  0  0  0  0  0  0
   45.0500   28.8920   47.7100 C   0  0  0  0  0  0  0  0  0  0  0  0
   44.2390   29.0630   46.5920 C   0  0  0  0  0  0  0  0  0  0  0  0
   44.0290   28.0640   45.6670 C   0  0  0  0  0  0  0  0  0  0  0  0
   43.3270   27.9410   44.5310 N   0  0  0  0  0  0  0  0  0  0  0  0
   43.4710   26.7190   44.0010 C   0  0  0  0  0  0  0  0  0  0  0  0
   44.3070   25.9740   44.8090 C   0  0  0  0  0  0  0  0  0  0  0  0
   44.6310   26.8350   45.8240 C   0  0  0  0  0  0  0  0  0  0  0  0
   45.4390   26.6530   46.9310 C   0  0  0  0  0  0  0  0  0  0  0  0
   46.2660   27.5730   48.7410 H   0  0  0  0  0  0  0  0  0  0  0  0
   43.7110   29.9780   46.3540 H   0  0  0  0  0  0  0  0  0  0  0  0
   42.7300   28.7040   44.0980 H   0  0  0  0  0  0  0  0  0  0  0  0
   42.9990   26.3820   43.0860 H   0  0  0  0  0  0  0  0  0  0  0  0
   44.6450   24.9540   44.6970 H   0  0  0  0  0  0  0  0  0  0  0  0
   46.0860   25.4000   47.1430 N   0  0  0  0  0  0  0  0  0  0  0  0
   47.2690   25.0040   46.6400 C   0  0  0  0  0  3  0  0  0  0  0  0
   47.7380   23.7350   46.9650 C   0  0  0  0  0  0  0  0  0  0  0  0
   48.6940   23.4440   46.5450 H   0  0  0  0  0  0  0  0  0  0  0  0
   47.0050   22.9010   47.7860 C   0  0  0  0  0  0  0  0  0  0  0  0
   47.4250   21.7530   48.0820 O   0  0  0  0  0  0  0  0  0  0  0  0
   45.8120   23.3480   48.2700 N   0  0  0  0  0  0  0  0  0  0  0  0
   45.3770   24.5800   47.9440 C   0  0  0  0  0  0  0  0  0  0  0  0
   44.2500   24.8750   48.4620 O   0  0  0  0  0  0  0  0  0  0  0  0
   45.2770   22.6830   48.8960 H   0  0  0  0  0  0  0  0  0  0  0  0
   45.1350   30.0690   48.5590 C   0  0  0  0  0  0  0  0  0  0  0  0
   44.2630   30.7480   48.4120 H   0  0  0  0  0  0  0  0  0  0  0  0
   45.0100   29.7170   49.6230 H   0  0  0  0  0  0  0  0  0  0  0  0
   46.4020   30.8400   48.5190 C   0  0  0  0  0  0  0  0  0  0  0  0
   46.3490   31.6070   49.3440 H   0  0  0  0  0  0  0  0  0  0  0  0
   47.2450   30.1880   48.7260 H   0  0  0  0  0  0  0  0  0  0  0  0
   46.2670   32.9550   45.6450 C   0  0  0  0  0  0  0  0  0  0  0  0
   47.2030   31.9930   45.2500 C   0  0  0  0  0  0  0  0  0  0  0  0
   47.3650   31.1000   46.2580 C   0  0  0  0  0  0  0  0  0  0  0  0
   46.5580   31.4970   47.2400 N   0  0  0  0  0  0  0  0  0  0  0  0
   45.8880   32.6130   46.8880 N   0  0  0  0  0  0  0  0  0  0  0  0
   47.7390   31.9290   44.3010 H   0  0  0  0  0  0  0  0  0  0  0  0
   48.0190   30.2250   46.2820 H   0  0  0  0  0  0  0  0  0  0  0  0
   44.4840   35.9470   44.5460 C   0  0  0  0  0  0  0  0  0  0  0  0
   45.0240   36.1860   43.2770 C   0  0  0  0  0  0  0  0  0  0  0  0
   45.9980   35.3120   42.8110 C   0  0  0  0  0  0  0  0  0  0  0  0
   46.3490   34.2970   43.6220 N   0  0  0  0  0  0  0  0  0  0  0  0
   45.8290   34.0780   44.8320 C   0  0  0  0  0  0  0  0  0  0  0  0
   44.8940   34.9110   45.2850 N   0  0  0  0  0  0  0  0  0  0  0  0
   43.7250   36.6480   44.8790 H   0  0  0  0  0  0  0  0  0  0  0  0
   44.7620   36.9820   42.6150 H   0  0  0  0  0  0  0  0  0  0  0  0
   46.4900   35.3890   41.8500 H   0  0  0  0  0  0  0  0  0  0  0  0
  1 10  1  0  0  0  0
  2  1  1  0  0  0  0
  2 25  1  0  0  0  0
  3  2  2  0  0  0  0
  4  8  2  0  0  0  0
  4  3  1  0  0  0  0
  5  4  1  0  0  0  0
  6  5  1  0  0  0  0
  6  7  2  0  0  0  0
  7  8  1  0  0  0  0
  8  9  1  0  0  0  0
  9 15  1  0  0  0  0
  9  1  2  0  0  0  0
 11  3  1  0  0  0  0
 12  5  1  0  0  0  0
 13  6  1  0  0  0  0
 14  7  1  0  0  0  0
 15 22  1  0  0  0  0
 16 17  2  0  0  0  0
 16 15  1  0  0  0  0
 17 19  1  0  0  0  0
 18 17  1  0  0  0  0
 19 20  2  0  0  0  0
 19 21  1  0  0  0  0
 21 24  1  0  0  0  0
 22 21  1  0  0  0  0
 22 23  2  0  0  0  0
 25 27  1  0  0  0  0
 26 25  1  0  0  0  0
 28 25  1  0  0  0  0
 28 30  1  0  0  0  0
 28 29  1  0  0  0  0
 31 35  2  0  0  0  0
 32 31  1  0  0  0  0
 32 33  2  0  0  0  0
 33 37  1  0  0  0  0
 33 34  1  0  0  0  0
 34 28  1  0  0  0  0
 35 34  1  0  0  0  0
 36 32  1  0  0  0  0
 38 44  1  0  0  0  0
 38 43  1  0  0  0  0
 39 38  2  0  0  0  0
 40 39  1  0  0  0  0
 40 41  2  0  0  0  0
 41 42  1  0  0  0  0
 42 43  2  0  0  0  0
 42 31  1  0  0  0  0
 45 39  1  0  0  0  0
 46 40  1  0  0  0  0
M  END
>  <minimizedAffinity>
-5.44013739

>  <minimizedRMSD>
1.5875926

$$$$
