
 OpenBabel03252502253D

 35 37  0  0  1  0  0  0  0  0999 V2000
   46.7530   34.5530   42.2820 N   0  0  0  0  0  0  0  0  0  0  0  0
   48.2080   34.4980   42.3190 C   0  0  0  0  0  0  0  0  0  0  0  0
   48.6250   35.2860   41.0590 C   0  0  0  0  0  0  0  0  0  0  0  0
   48.2150   34.5180   39.8450 C   0  0  0  0  0  0  0  0  0  0  0  0
   46.8400   33.9440   39.9150 C   0  0  0  0  0  0  0  0  0  0  0  0
   45.9910   34.4010   41.0650 C   0  0  1  0  0  0  0  0  0  0  0  0
   48.5680   33.4530   42.2290 H   0  0  0  0  0  0  0  0  0  0  0  0
   48.5890   35.0390   43.1990 H   0  0  0  0  0  0  0  0  0  0  0  0
   49.7390   35.3350   41.1270 H   0  0  0  0  0  0  0  0  0  0  0  0
   48.1650   36.2900   41.1420 H   0  0  0  0  0  0  0  0  0  0  0  0
   48.9460   33.6670   39.7470 H   0  0  0  0  0  0  0  0  0  0  0  0
   48.4060   35.1480   38.9540 H   0  0  0  0  0  0  0  0  0  0  0  0
   46.3040   34.2710   38.9750 H   0  0  0  0  0  0  0  0  0  0  0  0
   46.8330   32.8330   39.8690 H   0  0  0  0  0  0  0  0  0  0  0  0
   45.6230   35.4120   40.8070 H   0  0  0  0  0  0  0  0  0  0  0  0
   44.4640   36.0100   44.8610 C   0  0  0  0  0  0  0  0  0  0  0  0
   45.1490   35.8860   43.6460 C   0  0  0  0  0  0  0  0  0  0  0  0
   46.0090   34.7670   43.4890 C   0  0  0  0  0  0  0  0  0  0  0  0
   46.1160   33.8830   44.5270 N   0  0  0  0  0  0  0  0  0  0  0  0
   45.4320   34.0500   45.6800 C   0  0  0  0  0  0  0  0  0  0  0  0
   44.6030   35.1210   45.8390 N   0  0  0  0  0  0  0  0  0  0  0  0
   43.8580   36.9030   44.8180 H   0  0  0  0  0  0  0  0  0  0  0  0
   45.1110   36.5370   42.7940 H   0  0  0  0  0  0  0  0  0  0  0  0
   45.4940   33.3790   46.5090 H   0  0  0  0  0  0  0  0  0  0  0  0
   45.0090   33.4500   41.2750 O   0  0  0  0  0  0  0  0  0  0  0  0
   41.8770   30.7210   39.8730 H   0  0  0  0  0  0  0  0  0  0  0  0
   42.1630   31.6950   40.0960 N   0  0  0  0  0  0  0  0  0  0  0  0
   43.4000   32.0510   40.5550 C   0  0  0  0  0  3  0  0  0  0  0  0
   43.7210   33.3870   40.8370 C   0  0  0  0  0  0  0  0  0  0  0  0
   42.7120   34.3030   40.6200 C   0  0  0  0  0  0  0  0  0  0  0  0
   43.0890   35.4690   40.8990 O   0  0  0  0  0  0  0  0  0  0  0  0
   41.5120   33.9000   40.1670 N   0  0  0  0  0  0  0  0  0  0  0  0
   41.2280   32.6300   39.9060 C   0  0  0  0  0  0  0  0  0  0  0  0
   40.0650   32.3700   39.4840 O   0  0  0  0  0  0  0  0  0  0  0  0
   40.8220   34.6970   40.0420 H   0  0  0  0  0  0  0  0  0  0  0  0
  1  2  1  0  0  0  0
  1 18  1  0  0  0  0
  2  8  1  0  0  0  0
  3  9  1  0  0  0  0
  3 10  1  0  0  0  0
  3  2  1  0  0  0  0
  4  5  1  0  0  0  0
  4  3  1  0  0  0  0
  5  6  1  0  0  0  0
  6 15  1  6  0  0  0
  6 25  1  0  0  0  0
  6  1  1  0  0  0  0
  7  2  1  0  0  0  0
 11  4  1  0  0  0  0
 12  4  1  0  0  0  0
 13  5  1  0  0  0  0
 14  5  1  0  0  0  0
 16 21  1  0  0  0  0
 17 16  2  0  0  0  0
 18 17  1  0  0  0  0
 18 19  2  0  0  0  0
 19 20  1  0  0  0  0
 20 21  2  0  0  0  0
 20 24  1  0  0  0  0
 22 16  1  0  0  0  0
 23 17  1  0  0  0  0
 26 27  1  0  0  0  0
 27 28  1  0  0  0  0
 28 29  2  0  0  0  0
 29 25  1  0  0  0  0
 30 29  1  0  0  0  0
 30 31  2  0  0  0  0
 32 30  1  0  0  0  0
 33 27  1  0  0  0  0
 33 32  1  0  0  0  0
 34 33  2  0  0  0  0
 35 32  1  0  0  0  0
M  END
>  <minimizedAffinity>
-5.61058426

>  <minimizedRMSD>
0.660179675

$$$$
