
 OpenBabel03252509003D

 46 48  0  0  1  0  0  0  0  0999 V2000
   46.8670   34.4020   43.3330 N   0  0  0  0  0  0  0  0  0  0  0  0
   46.4130   35.5950   42.6980 C   0  0  0  0  0  0  0  0  0  0  0  0
   44.9400   35.8780   42.8320 C   0  0  0  0  0  0  0  0  0  0  0  0
   44.3200   35.3900   44.1080 C   0  0  0  0  0  0  0  0  0  0  0  0
   45.3620   34.8350   45.0520 C   0  0  0  0  0  0  0  0  0  0  0  0
   46.0400   33.7030   44.1950 C   0  0  2  0  0  0  0  0  0  0  0  0
   46.9480   36.4340   43.2200 H   0  0  0  0  0  0  0  0  0  0  0  0
   46.6810   35.7060   41.6460 H   0  0  0  0  0  0  0  0  0  0  0  0
   44.3840   35.5150   41.9370 H   0  0  0  0  0  0  0  0  0  0  0  0
   44.7920   36.9840   42.8290 H   0  0  0  0  0  0  0  0  0  0  0  0
   43.6500   34.5390   43.8370 H   0  0  0  0  0  0  0  0  0  0  0  0
   43.6480   36.1390   44.5910 H   0  0  0  0  0  0  0  0  0  0  0  0
   46.1070   35.6030   45.2790 H   0  0  0  0  0  0  0  0  0  0  0  0
   44.8760   34.3890   45.9280 H   0  0  0  0  0  0  0  0  0  0  0  0
   45.2320   33.1020   43.7510 H   0  0  0  0  0  0  0  0  0  0  0  0
   47.8640   33.6840   42.5950 C   0  0  0  0  0  0  0  0  0  0  0  0
   48.5420   34.4030   42.1190 H   0  0  0  0  0  0  0  0  0  0  0  0
   48.4380   33.0540   43.3090 H   0  0  0  0  0  0  0  0  0  0  0  0
   47.1810   32.7820   41.6130 C   0  0  0  0  0  0  0  0  0  0  0  0
   47.2330   31.7260   41.9090 H   0  0  0  0  0  0  0  0  0  0  0  0
   46.1050   33.0330   41.5260 H   0  0  0  0  0  0  0  0  0  0  0  0
   49.2520   32.1680   38.5340 C   0  0  0  0  0  0  0  0  0  0  0  0
   48.6660   31.9950   39.8080 C   0  0  0  0  0  0  0  0  0  0  0  0
   47.7990   32.9600   40.2730 C   0  0  0  0  0  0  0  0  0  0  0  0
   47.5500   34.0270   39.4880 N   0  0  0  0  0  0  0  0  0  0  0  0
   48.1250   34.1640   38.2760 C   0  0  0  0  0  0  0  0  0  0  0  0
   48.9720   33.2500   37.7880 N   0  0  0  0  0  0  0  0  0  0  0  0
   49.9200   31.3790   38.2280 H   0  0  0  0  0  0  0  0  0  0  0  0
   48.8680   31.1320   40.4410 H   0  0  0  0  0  0  0  0  0  0  0  0
   47.9290   35.0190   37.6390 H   0  0  0  0  0  0  0  0  0  0  0  0
   46.7780   33.0300   45.1700 O   0  0  0  0  0  0  0  0  0  0  0  0
   45.3680   30.9860   44.2150 O   0  0  0  0  0  0  0  0  0  0  0  0
   46.2800   31.4270   45.3570 P   0  0  2  0  0  0  0  0  0  0  0  0
   45.3130   31.4020   46.7690 O   0  0  0  0  0  0  0  0  0  0  0  0
   45.7910   31.8450   47.5090 H   0  0  0  0  0  0  0  0  0  0  0  0
   47.5650   30.4030   45.6020 O   0  0  0  0  0  0  0  0  0  0  0  0
   47.5860   27.7570   49.1270 H   0  0  0  0  0  0  0  0  0  0  0  0
   47.4600   27.8570   48.0880 N   0  0  0  0  0  0  0  0  0  0  0  0
   47.5790   29.0460   47.4310 C   0  0  0  0  0  3  0  0  0  0  0  0
   47.3980   29.1020   46.0450 C   0  0  0  0  0  0  0  0  0  0  0  0
   47.1010   27.9300   45.3910 C   0  0  0  0  0  0  0  0  0  0  0  0
   46.9630   28.1090   44.1560 O   0  0  0  0  0  0  0  0  0  0  0  0
   46.9970   26.7930   46.0840 N   0  0  0  0  0  0  0  0  0  0  0  0
   47.1700   26.7350   47.4110 C   0  0  0  0  0  0  0  0  0  0  0  0
   47.0350   25.5880   47.8930 O   0  0  0  0  0  0  0  0  0  0  0  0
   46.7670   25.9570   45.4800 H   0  0  0  0  0  0  0  0  0  0  0  0
  1  6  1  0  0  0  0
  2  3  1  0  0  0  0
  2  7  1  0  0  0  0
  2  1  1  0  0  0  0
  3  4  1  0  0  0  0
  4 12  1  0  0  0  0
  4  5  1  0  0  0  0
  5 13  1  0  0  0  0
  5 14  1  0  0  0  0
  6 15  1  6  0  0  0
  6  5  1  0  0  0  0
  6 31  1  0  0  0  0
  8  2  1  0  0  0  0
  9  3  1  0  0  0  0
 10  3  1  0  0  0  0
 11  4  1  0  0  0  0
 16 18  1  0  0  0  0
 16  1  1  0  0  0  0
 17 16  1  0  0  0  0
 19 20  1  0  0  0  0
 19 16  1  0  0  0  0
 21 19  1  0  0  0  0
 22 23  1  0  0  0  0
 23 24  2  0  0  0  0
 23 29  1  0  0  0  0
 24 19  1  0  0  0  0
 25 24  1  0  0  0  0
 26 25  2  0  0  0  0
 27 26  1  0  0  0  0
 27 22  2  0  0  0  0
 28 22  1  0  0  0  0
 30 26  1  0  0  0  0
 31 33  1  0  0  0  0
 33 32  2  6  0  0  0
 33 36  1  0  0  0  0
 33 34  1  0  0  0  0
 34 35  1  0  0  0  0
 36 40  1  0  0  0  0
 38 37  1  0  0  0  0
 39 38  1  0  0  0  0
 40 39  2  0  0  0  0
 41 40  1  0  0  0  0
 41 43  1  0  0  0  0
 42 41  2  0  0  0  0
 43 44  1  0  0  0  0
 44 45  2  0  0  0  0
 44 38  1  0  0  0  0
 46 43  1  0  0  0  0
M  END
>  <minimizedAffinity>
-4.3056159

>  <minimizedRMSD>
0.456937045

$$$$
