
 OpenBabel03252502243D

 35 37  0  0  1  0  0  0  0  0999 V2000
   46.7370   34.5410   42.2630 N   0  0  0  0  0  0  0  0  0  0  0  0
   48.1940   34.5340   42.2850 C   0  0  0  0  0  0  0  0  0  0  0  0
   48.5710   35.3060   41.0020 C   0  0  0  0  0  0  0  0  0  0  0  0
   48.1720   34.4970   39.8100 C   0  0  0  0  0  0  0  0  0  0  0  0
   46.8170   33.8820   39.9100 C   0  0  0  0  0  0  0  0  0  0  0  0
   45.9660   34.3380   41.0600 C   0  0  1  0  0  0  0  0  0  0  0  0
   48.5860   33.5000   42.2140 H   0  0  0  0  0  0  0  0  0  0  0  0
   48.5660   35.1070   43.1480 H   0  0  0  0  0  0  0  0  0  0  0  0
   49.6840   35.3910   41.0560 H   0  0  0  0  0  0  0  0  0  0  0  0
   48.0800   36.2970   41.0680 H   0  0  0  0  0  0  0  0  0  0  0  0
   48.9290   33.6690   39.7230 H   0  0  0  0  0  0  0  0  0  0  0  0
   48.3330   35.1130   38.9040 H   0  0  0  0  0  0  0  0  0  0  0  0
   46.2610   34.1700   38.9700 H   0  0  0  0  0  0  0  0  0  0  0  0
   46.8450   32.7710   39.8890 H   0  0  0  0  0  0  0  0  0  0  0  0
   45.5630   35.3310   40.7840 H   0  0  0  0  0  0  0  0  0  0  0  0
   44.4620   36.0060   44.8510 C   0  0  0  0  0  0  0  0  0  0  0  0
   45.1400   35.8780   43.6320 C   0  0  0  0  0  0  0  0  0  0  0  0
   46.0000   34.7590   43.4740 C   0  0  0  0  0  0  0  0  0  0  0  0
   46.1140   33.8800   44.5150 N   0  0  0  0  0  0  0  0  0  0  0  0
   45.4370   34.0500   45.6720 C   0  0  0  0  0  0  0  0  0  0  0  0
   44.6080   35.1210   45.8320 N   0  0  0  0  0  0  0  0  0  0  0  0
   43.8560   36.8990   44.8090 H   0  0  0  0  0  0  0  0  0  0  0  0
   45.0970   36.5260   42.7790 H   0  0  0  0  0  0  0  0  0  0  0  0
   45.5040   33.3820   46.5030 H   0  0  0  0  0  0  0  0  0  0  0  0
   45.0180   33.3610   41.3020 O   0  0  0  0  0  0  0  0  0  0  0  0
   41.3790   31.2380   42.5200 H   0  0  0  0  0  0  0  0  0  0  0  0
   41.8040   32.0700   42.0610 N   0  0  0  0  0  0  0  0  0  0  0  0
   43.1490   32.2730   41.9270 C   0  0  0  0  0  3  0  0  0  0  0  0
   43.6580   33.4190   41.2940 C   0  0  0  0  0  0  0  0  0  0  0  0
   42.7140   34.3100   40.8250 C   0  0  0  0  0  0  0  0  0  0  0  0
   43.2600   35.3000   40.2760 O   0  0  0  0  0  0  0  0  0  0  0  0
   41.4040   34.0600   40.9840 N   0  0  0  0  0  0  0  0  0  0  0  0
   40.9420   32.9710   41.5840 C   0  0  0  0  0  0  0  0  0  0  0  0
   39.6880   32.8440   41.6750 O   0  0  0  0  0  0  0  0  0  0  0  0
   40.7800   34.8210   40.5800 H   0  0  0  0  0  0  0  0  0  0  0  0
  1  2  1  0  0  0  0
  1 18  1  0  0  0  0
  2  8  1  0  0  0  0
  3  9  1  0  0  0  0
  3 10  1  0  0  0  0
  3  2  1  0  0  0  0
  4  5  1  0  0  0  0
  4  3  1  0  0  0  0
  5  6  1  0  0  0  0
  6 15  1  6  0  0  0
  6 25  1  0  0  0  0
  6  1  1  0  0  0  0
  7  2  1  0  0  0  0
 11  4  1  0  0  0  0
 12  4  1  0  0  0  0
 13  5  1  0  0  0  0
 14  5  1  0  0  0  0
 16 21  1  0  0  0  0
 17 16  2  0  0  0  0
 18 17  1  0  0  0  0
 18 19  2  0  0  0  0
 19 20  1  0  0  0  0
 20 21  2  0  0  0  0
 20 24  1  0  0  0  0
 22 16  1  0  0  0  0
 23 17  1  0  0  0  0
 27 26  1  0  0  0  0
 28 27  1  0  0  0  0
 29 25  1  0  0  0  0
 29 28  2  0  0  0  0
 30 32  1  0  0  0  0
 30 29  1  0  0  0  0
 31 30  2  0  0  0  0
 32 33  1  0  0  0  0
 33 34  2  0  0  0  0
 33 27  1  0  0  0  0
 35 32  1  0  0  0  0
M  END
>  <minimizedAffinity>
-6.19591856

>  <minimizedRMSD>
0.585469186

$$$$
