
 OpenBabel03242523203D

 38 41  0  0  0  0  0  0  0  0999 V2000
   44.3160   31.9800   42.8070 Cl  0  0  0  0  0  0  0  0  0  0  0  0
   44.4250   33.7360   42.6560 C   0  0  0  0  0  0  0  0  0  0  0  0
   45.2260   34.3800   43.6220 C   0  0  0  0  0  0  0  0  0  0  0  0
   45.2400   35.7470   43.3990 C   0  0  0  0  0  0  0  0  0  0  0  0
   44.6380   36.4760   42.4510 C   0  0  0  0  0  0  0  0  0  0  0  0
   43.8830   35.7740   41.5560 C   0  0  0  0  0  0  0  0  0  0  0  0
   43.7600   34.4290   41.6330 C   0  0  0  0  0  0  0  0  0  0  0  0
   45.7980   36.4100   44.0940 H   0  0  0  0  0  0  0  0  0  0  0  0
   44.6870   37.5440   42.3240 H   0  0  0  0  0  0  0  0  0  0  0  0
   43.3220   36.1850   40.7230 H   0  0  0  0  0  0  0  0  0  0  0  0
   42.9940   33.5750   40.7550 N   0  0  0  0  0  0  0  0  0  0  0  0
   43.4580   32.7480   39.8000 C   0  0  0  0  0  3  0  0  0  0  0  0
   42.5430   32.0170   39.0700 C   0  0  0  0  0  0  0  0  0  0  0  0
   42.9580   31.3650   38.3130 H   0  0  0  0  0  0  0  0  0  0  0  0
   41.1880   32.1250   39.3050 C   0  0  0  0  0  0  0  0  0  0  0  0
   40.3700   31.4490   38.6270 O   0  0  0  0  0  0  0  0  0  0  0  0
   40.7550   32.9610   40.2670 N   0  0  0  0  0  0  0  0  0  0  0  0
   41.6710   33.6750   40.9780 C   0  0  0  0  0  0  0  0  0  0  0  0
   41.1270   34.4260   41.8560 O   0  0  0  0  0  0  0  0  0  0  0  0
   39.7240   33.0260   40.4280 H   0  0  0  0  0  0  0  0  0  0  0  0
   45.9770   33.7290   44.7280 C   0  0  0  0  0  0  0  0  0  0  0  0
   45.3510   34.1900   45.6490 O   0  0  0  0  0  0  0  0  0  0  0  0
   47.0410   32.9000   44.1460 C   0  0  0  0  0  0  0  0  0  0  0  0
   47.9630   33.2970   43.2590 C   0  0  0  0  0  0  0  0  0  0  0  0
   48.7920   32.2890   42.8000 C   0  0  0  0  0  0  0  0  0  0  0  0
   48.6060   30.9810   43.2860 N   0  0  0  0  0  0  0  0  0  0  0  0
   47.6720   30.6750   44.1630 C   0  0  0  0  0  0  0  0  0  0  0  0
   46.8270   31.6510   44.6430 N   0  0  0  0  0  0  0  0  0  0  0  0
   49.5850   32.4380   42.0810 H   0  0  0  0  0  0  0  0  0  0  0  0
   47.6460   29.6280   44.4500 H   0  0  0  0  0  0  0  0  0  0  0  0
   48.2310   34.6310   42.8560 C   0  0  0  0  0  0  0  0  0  0  0  0
   49.3060   35.1160   42.1780 C   0  0  0  0  0  0  0  0  0  0  0  0
   48.0890   34.9530   41.3090 C   0  0  0  0  0  0  0  0  0  0  0  0
   47.7890   35.3920   43.5270 H   0  0  0  0  0  0  0  0  0  0  0  0
   50.1440   34.4180   41.8760 H   0  0  0  0  0  0  0  0  0  0  0  0
   49.7000   36.1560   42.1310 H   0  0  0  0  0  0  0  0  0  0  0  0
   47.4310   35.8190   41.0850 H   0  0  0  0  0  0  0  0  0  0  0  0
   47.9860   34.0510   40.6940 H   0  0  0  0  0  0  0  0  0  0  0  0
  2  1  1  0  0  0  0
  2  3  1  0  0  0  0
  3 21  1  0  0  0  0
  4  3  2  0  0  0  0
  4  8  1  0  0  0  0
  5  4  1  0  0  0  0
  6  7  1  0  0  0  0
  6  5  2  0  0  0  0
  7  2  2  0  0  0  0
  9  5  1  0  0  0  0
 10  6  1  0  0  0  0
 11 18  1  0  0  0  0
 11  7  1  0  0  0  0
 12 11  1  0  0  0  0
 13 15  1  0  0  0  0
 13 12  2  0  0  0  0
 14 13  1  0  0  0  0
 15 17  1  0  0  0  0
 16 15  2  0  0  0  0
 17 20  1  0  0  0  0
 17 18  1  0  0  0  0
 18 19  2  0  0  0  0
 21 22  2  0  0  0  0
 23 28  1  0  0  0  0
 23 21  1  0  0  0  0
 24 23  2  0  0  0  0
 25 24  1  0  0  0  0
 25 26  2  0  0  0  0
 26 27  1  0  0  0  0
 27 30  1  0  0  0  0
 27 28  2  0  0  0  0
 29 25  1  0  0  0  0
 31 24  1  0  0  0  0
 31 34  1  0  0  0  0
 32 31  1  0  0  0  0
 33 32  1  0  0  0  0
 33 31  1  0  0  0  0
 35 32  1  0  0  0  0
 36 32  1  0  0  0  0
 37 33  1  0  0  0  0
 38 33  1  0  0  0  0
M  END
>  <minimizedAffinity>
-5.59695292

>  <minimizedRMSD>
0.613555014

$$$$
