
 OpenBabel03252501043D

 32 34  0  0  1  0  0  0  0  0999 V2000
   37.2020   30.6580   37.5430 C   0  0  1  0  0  0  0  0  0  0  0  0
   38.0590   29.4880   37.2290 C   0  0  0  0  0  0  0  0  0  0  0  0
   36.9070   29.3920   38.2210 C   0  0  1  0  0  0  0  0  0  0  0  0
   36.5190   31.0650   36.7740 H   0  0  0  0  0  0  0  0  0  0  0  0
   39.0270   29.2900   37.7170 H   0  0  0  0  0  0  0  0  0  0  0  0
   37.9490   28.9490   36.2620 H   0  0  0  0  0  0  0  0  0  0  0  0
   36.0730   28.7730   37.8360 H   0  0  0  0  0  0  0  0  0  0  0  0
   39.8300   32.8200   39.1920 C   0  0  0  0  0  0  0  0  0  0  0  0
   39.2660   31.8100   38.4020 C   0  0  0  0  0  0  0  0  0  0  0  0
   37.8680   31.7180   38.3580 C   0  0  0  0  0  0  0  0  0  0  0  0
   37.1240   32.6060   39.0750 N   0  0  0  0  0  0  0  0  0  0  0  0
   37.7000   33.5720   39.8300 C   0  0  0  0  0  0  0  0  0  0  0  0
   39.0560   33.6750   39.8850 N   0  0  0  0  0  0  0  0  0  0  0  0
   40.8910   32.9730   39.2930 H   0  0  0  0  0  0  0  0  0  0  0  0
   39.9190   31.1590   37.8710 H   0  0  0  0  0  0  0  0  0  0  0  0
   37.0070   34.2240   40.3600 H   0  0  0  0  0  0  0  0  0  0  0  0
   37.1010   29.3250   39.5500 O   0  0  0  0  0  0  0  0  0  0  0  0
   34.4700   29.2210   39.8810 O   0  0  0  0  0  0  0  0  0  0  0  0
   35.8080   29.4370   40.5510 P   0  0  2  0  0  0  0  0  0  0  0  0
   35.6870   30.9190   41.3660 O   0  0  0  0  0  0  0  0  0  0  0  0
   35.7010   31.6190   40.6680 H   0  0  0  0  0  0  0  0  0  0  0  0
   35.9160   28.2430   41.7460 O   0  0  0  0  0  0  0  0  0  0  0  0
   38.9450   24.8840   41.3170 H   0  0  0  0  0  0  0  0  0  0  0  0
   38.6850   25.8160   41.7100 N   0  0  0  0  0  0  0  0  0  0  0  0
   37.4700   26.3590   41.4360 C   0  0  0  0  0  3  0  0  0  0  0  0
   37.1240   27.5890   41.9550 C   0  0  0  0  0  0  0  0  0  0  0  0
   38.0140   28.2770   42.7560 C   0  0  0  0  0  0  0  0  0  0  0  0
   37.8790   29.3960   43.3120 O   0  0  0  0  0  0  0  0  0  0  0  0
   39.2340   27.7290   43.0290 N   0  0  0  0  0  0  0  0  0  0  0  0
   39.5340   26.5200   42.5020 C   0  0  0  0  0  0  0  0  0  0  0  0
   40.6480   25.9460   42.7090 O   0  0  0  0  0  0  0  0  0  0  0  0
   39.9930   28.1370   43.6140 H   0  0  0  0  0  0  0  0  0  0  0  0
  1  4  1  6  0  0  0
  1  3  1  0  0  0  0
  1 10  1  0  0  0  0
  2  1  1  0  0  0  0
  2  5  1  0  0  0  0
  2  3  1  0  0  0  0
  3  7  1  6  0  0  0
  3 17  1  0  0  0  0
  6  2  1  0  0  0  0
  8 14  1  0  0  0  0
  8 13  1  0  0  0  0
  9  8  2  0  0  0  0
 10  9  1  0  0  0  0
 10 11  2  0  0  0  0
 11 12  1  0  0  0  0
 12 13  2  0  0  0  0
 12 16  1  0  0  0  0
 15  9  1  0  0  0  0
 17 19  1  0  0  0  0
 19 18  2  6  0  0  0
 19 20  1  0  0  0  0
 19 22  1  0  0  0  0
 21 20  1  0  0  0  0
 22 26  1  0  0  0  0
 23 24  1  0  0  0  0
 24 30  1  0  0  0  0
 25 24  1  0  0  0  0
 25 26  2  0  0  0  0
 26 27  1  0  0  0  0
 27 29  1  0  0  0  0
 27 28  2  0  0  0  0
 29 32  1  0  0  0  0
 30 31  2  0  0  0  0
 30 29  1  0  0  0  0
M  END
>  <minimizedAffinity>
-5.43799973

$$$$

 OpenBabel03252501043D

 32 34  0  0  1  0  0  0  0  0999 V2000
   36.9470   26.6360   43.0790 C   0  0  1  0  0  0  0  0  0  0  0  0
   37.7810   27.7080   43.6790 C   0  0  0  0  0  0  0  0  0  0  0  0
   36.6840   28.0190   42.6680 C   0  0  1  0  0  0  0  0  0  0  0  0
   36.2250   26.0820   43.7070 H   0  0  0  0  0  0  0  0  0  0  0  0
   38.7740   27.9970   43.2960 H   0  0  0  0  0  0  0  0  0  0  0  0
   37.6170   28.0310   44.7300 H   0  0  0  0  0  0  0  0  0  0  0  0
   35.8280   28.5490   43.1300 H   0  0  0  0  0  0  0  0  0  0  0  0
   37.6820   24.0570   40.4130 C   0  0  0  0  0  0  0  0  0  0  0  0
   36.9520   24.8500   41.3090 C   0  0  0  0  0  0  0  0  0  0  0  0
   37.6610   25.7670   42.0970 C   0  0  0  0  0  0  0  0  0  0  0  0
   39.0140   25.8510   41.9590 N   0  0  0  0  0  0  0  0  0  0  0  0
   39.6900   25.0700   41.0830 C   0  0  0  0  0  0  0  0  0  0  0  0
   39.0180   24.1720   40.3110 N   0  0  0  0  0  0  0  0  0  0  0  0
   37.2310   23.3230   39.7660 H   0  0  0  0  0  0  0  0  0  0  0  0
   35.8970   24.7230   41.3530 H   0  0  0  0  0  0  0  0  0  0  0  0
   40.7690   25.2220   41.0590 H   0  0  0  0  0  0  0  0  0  0  0  0
   36.9500   28.3630   41.3960 O   0  0  0  0  0  0  0  0  0  0  0  0
   38.0740   30.7640   41.5170 O   0  0  0  0  0  0  0  0  0  0  0  0
   36.9230   29.9480   40.9760 P   0  0  2  0  0  0  0  0  0  0  0  0
   35.5120   30.7650   41.4400 O   0  0  0  0  0  0  0  0  0  0  0  0
   35.4160   30.6190   42.4130 H   0  0  0  0  0  0  0  0  0  0  0  0
   37.0220   30.0840   39.2910 O   0  0  0  0  0  0  0  0  0  0  0  0
   41.2670   29.8260   37.6940 H   0  0  0  0  0  0  0  0  0  0  0  0
   40.4100   30.3920   37.8820 N   0  0  0  0  0  0  0  0  0  0  0  0
   39.3230   29.8160   38.4590 C   0  0  0  0  0  3  0  0  0  0  0  0
   38.1900   30.5610   38.7090 C   0  0  0  0  0  0  0  0  0  0  0  0
   38.1550   31.9000   38.3730 C   0  0  0  0  0  0  0  0  0  0  0  0
   37.2230   32.7310   38.5210 O   0  0  0  0  0  0  0  0  0  0  0  0
   39.2480   32.4770   37.7940 N   0  0  0  0  0  0  0  0  0  0  0  0
   40.3400   31.7110   37.5660 C   0  0  0  0  0  0  0  0  0  0  0  0
   41.3940   32.1740   37.0310 O   0  0  0  0  0  0  0  0  0  0  0  0
   39.3550   33.4680   37.4930 H   0  0  0  0  0  0  0  0  0  0  0  0
  1  2  1  0  0  0  0
  1  4  1  1  0  0  0
  2  6  1  0  0  0  0
  3  1  1  0  0  0  0
  3  7  1  1  0  0  0
  3  2  1  0  0  0  0
  5  2  1  0  0  0  0
  8  9  1  0  0  0  0
  9 15  1  0  0  0  0
  9 10  2  0  0  0  0
 10  1  1  0  0  0  0
 11 10  1  0  0  0  0
 12 11  2  0  0  0  0
 13  8  2  0  0  0  0
 13 12  1  0  0  0  0
 14  8  1  0  0  0  0
 16 12  1  0  0  0  0
 17  3  1  0  0  0  0
 19 17  1  0  0  0  0
 19 20  1  0  0  0  0
 19 18  2  1  0  0  0
 20 21  1  0  0  0  0
 22 19  1  0  0  0  0
 23 24  1  0  0  0  0
 24 25  1  0  0  0  0
 25 26  2  0  0  0  0
 26 22  1  0  0  0  0
 27 28  2  0  0  0  0
 27 26  1  0  0  0  0
 29 27  1  0  0  0  0
 30 29  1  0  0  0  0
 30 24  1  0  0  0  0
 31 30  2  0  0  0  0
 32 29  1  0  0  0  0
M  END
>  <minimizedAffinity>
-5.40370083

$$$$

 OpenBabel03252501043D

 32 34  0  0  1  0  0  0  0  0999 V2000
   37.2360   31.5090   38.1240 C   0  0  1  0  0  0  0  0  0  0  0  0
   37.8710   30.3810   37.3960 C   0  0  0  0  0  0  0  0  0  0  0  0
   37.0430   30.1550   38.6550 C   0  0  1  0  0  0  0  0  0  0  0  0
   36.4000   32.0640   37.6620 H   0  0  0  0  0  0  0  0  0  0  0  0
   38.9190   30.0710   37.5430 H   0  0  0  0  0  0  0  0  0  0  0  0
   37.4490   30.0210   36.4320 H   0  0  0  0  0  0  0  0  0  0  0  0
   36.0870   29.6390   38.4390 H   0  0  0  0  0  0  0  0  0  0  0  0
   38.6640   34.1610   40.4110 C   0  0  0  0  0  0  0  0  0  0  0  0
   37.7180   33.3600   39.7570 C   0  0  0  0  0  0  0  0  0  0  0  0
   38.1900   32.3900   38.8620 C   0  0  0  0  0  0  0  0  0  0  0  0
   39.5330   32.2660   38.6680 N   0  0  0  0  0  0  0  0  0  0  0  0
   40.4220   33.0560   39.3160 C   0  0  0  0  0  0  0  0  0  0  0  0
   39.9810   34.0040   40.1880 N   0  0  0  0  0  0  0  0  0  0  0  0
   38.4040   34.9330   41.1150 H   0  0  0  0  0  0  0  0  0  0  0  0
   36.6880   33.5200   39.9680 H   0  0  0  0  0  0  0  0  0  0  0  0
   41.4700   32.8680   39.0820 H   0  0  0  0  0  0  0  0  0  0  0  0
   37.5990   29.8540   39.8420 O   0  0  0  0  0  0  0  0  0  0  0  0
   35.6890   28.5000   41.0910 O   0  0  0  0  0  0  0  0  0  0  0  0
   36.6320   29.6800   41.1540 P   0  0  2  0  0  0  0  0  0  0  0  0
   35.6650   31.0320   41.4890 O   0  0  0  0  0  0  0  0  0  0  0  0
   35.1640   31.2250   40.6590 H   0  0  0  0  0  0  0  0  0  0  0  0
   37.5880   29.4240   42.5270 O   0  0  0  0  0  0  0  0  0  0  0  0
   40.9090   32.5200   42.3620 H   0  0  0  0  0  0  0  0  0  0  0  0
   40.6140   31.5230   42.4540 N   0  0  0  0  0  0  0  0  0  0  0  0
   39.2950   31.1950   42.4230 C   0  0  0  0  0  3  0  0  0  0  0  0
   38.9010   29.8790   42.5430 C   0  0  0  0  0  0  0  0  0  0  0  0
   39.8480   28.8850   42.6970 C   0  0  0  0  0  0  0  0  0  0  0  0
   39.6830   27.6450   42.8210 O   0  0  0  0  0  0  0  0  0  0  0  0
   41.1720   29.2170   42.7270 N   0  0  0  0  0  0  0  0  0  0  0  0
   41.5160   30.5200   42.6050 C   0  0  0  0  0  0  0  0  0  0  0  0
   42.7250   30.9070   42.6250 O   0  0  0  0  0  0  0  0  0  0  0  0
   41.9820   28.5730   42.8370 H   0  0  0  0  0  0  0  0  0  0  0  0
  1  4  1  6  0  0  0
  1  3  1  0  0  0  0
  1 10  1  0  0  0  0
  2  5  1  0  0  0  0
  2  1  1  0  0  0  0
  2  3  1  0  0  0  0
  3  7  1  6  0  0  0
  3 17  1  0  0  0  0
  6  2  1  0  0  0  0
  8 14  1  0  0  0  0
  9 15  1  0  0  0  0
  9  8  2  0  0  0  0
 10  9  1  0  0  0  0
 11 10  2  0  0  0  0
 11 12  1  0  0  0  0
 12 13  2  0  0  0  0
 13  8  1  0  0  0  0
 16 12  1  0  0  0  0
 17 19  1  0  0  0  0
 19 18  2  6  0  0  0
 19 20  1  0  0  0  0
 19 22  1  0  0  0  0
 21 20  1  0  0  0  0
 22 26  1  0  0  0  0
 23 24  1  0  0  0  0
 24 30  1  0  0  0  0
 25 24  1  0  0  0  0
 25 26  2  0  0  0  0
 26 27  1  0  0  0  0
 27 29  1  0  0  0  0
 27 28  2  0  0  0  0
 29 32  1  0  0  0  0
 30 31  2  0  0  0  0
 30 29  1  0  0  0  0
M  END
>  <minimizedAffinity>
-5.39891672

$$$$

 OpenBabel03252501043D

 32 34  0  0  1  0  0  0  0  0999 V2000
   38.1090   28.0920   43.1750 C   0  0  1  0  0  0  0  0  0  0  0  0
   39.2200   28.9860   42.7640 C   0  0  0  0  0  0  0  0  0  0  0  0
   37.7840   29.2400   42.3220 C   0  0  1  0  0  0  0  0  0  0  0  0
   37.7880   28.0590   44.2320 H   0  0  0  0  0  0  0  0  0  0  0  0
   39.8770   28.7890   41.9010 H   0  0  0  0  0  0  0  0  0  0  0  0
   39.6680   29.7010   43.4880 H   0  0  0  0  0  0  0  0  0  0  0  0
   37.3530   30.1420   42.7990 H   0  0  0  0  0  0  0  0  0  0  0  0
   37.0280   24.7110   41.8700 C   0  0  0  0  0  0  0  0  0  0  0  0
   36.9540   25.9650   42.4910 C   0  0  0  0  0  0  0  0  0  0  0  0
   38.1150   26.7490   42.5200 C   0  0  0  0  0  0  0  0  0  0  0  0
   39.2540   26.2670   41.9490 N   0  0  0  0  0  0  0  0  0  0  0  0
   39.2930   25.0490   41.3560 C   0  0  0  0  0  0  0  0  0  0  0  0
   38.1740   24.2740   41.3190 N   0  0  0  0  0  0  0  0  0  0  0  0
   36.1930   24.0350   41.7960 H   0  0  0  0  0  0  0  0  0  0  0  0
   36.0240   26.2670   42.9100 H   0  0  0  0  0  0  0  0  0  0  0  0
   40.2570   24.7670   40.9340 H   0  0  0  0  0  0  0  0  0  0  0  0
   37.3600   28.9990   41.0690 O   0  0  0  0  0  0  0  0  0  0  0  0
   36.0200   31.2900   41.0710 O   0  0  0  0  0  0  0  0  0  0  0  0
   36.1580   29.9210   40.4430 P   0  0  2  0  0  0  0  0  0  0  0  0
   34.6200   29.2110   40.5290 O   0  0  0  0  0  0  0  0  0  0  0  0
   34.4770   28.9790   41.4790 H   0  0  0  0  0  0  0  0  0  0  0  0
   36.4630   30.2040   38.8020 O   0  0  0  0  0  0  0  0  0  0  0  0
   39.3610   33.6750   38.3590 H   0  0  0  0  0  0  0  0  0  0  0  0
   39.1350   32.6670   38.2060 N   0  0  0  0  0  0  0  0  0  0  0  0
   37.9440   32.1620   38.6230 C   0  0  0  0  0  3  0  0  0  0  0  0
   37.6420   30.8310   38.4220 C   0  0  0  0  0  0  0  0  0  0  0  0
   38.5530   30.0040   37.7950 C   0  0  0  0  0  0  0  0  0  0  0  0
   38.4580   28.7790   37.5270 O   0  0  0  0  0  0  0  0  0  0  0  0
   39.7490   30.5130   37.3770 N   0  0  0  0  0  0  0  0  0  0  0  0
   40.0050   31.8240   37.5930 C   0  0  0  0  0  0  0  0  0  0  0  0
   41.0940   32.3710   37.2350 O   0  0  0  0  0  0  0  0  0  0  0  0
   40.5190   30.0040   36.8960 H   0  0  0  0  0  0  0  0  0  0  0  0
  1  4  1  1  0  0  0
  2  1  1  0  0  0  0
  2  6  1  0  0  0  0
  3  2  1  0  0  0  0
  3  7  1  1  0  0  0
  3  1  1  0  0  0  0
  5  2  1  0  0  0  0
  8  9  1  0  0  0  0
  9 10  2  0  0  0  0
  9 15  1  0  0  0  0
 10  1  1  0  0  0  0
 11 10  1  0  0  0  0
 12 11  2  0  0  0  0
 13 12  1  0  0  0  0
 13  8  2  0  0  0  0
 14  8  1  0  0  0  0
 16 12  1  0  0  0  0
 17  3  1  0  0  0  0
 19 20  1  0  0  0  0
 19 17  1  0  0  0  0
 19 18  2  1  0  0  0
 20 21  1  0  0  0  0
 22 19  1  0  0  0  0
 24 23  1  0  0  0  0
 24 25  1  0  0  0  0
 26 25  2  0  0  0  0
 26 22  1  0  0  0  0
 27 26  1  0  0  0  0
 28 27  2  0  0  0  0
 29 30  1  0  0  0  0
 29 27  1  0  0  0  0
 30 24  1  0  0  0  0
 31 30  2  0  0  0  0
 32 29  1  0  0  0  0
M  END
>  <minimizedAffinity>
-5.30554199

$$$$

 OpenBabel03252501043D

 32 34  0  0  1  0  0  0  0  0999 V2000
   37.3120   31.1670   38.2360 C   0  0  1  0  0  0  0  0  0  0  0  0
   37.9470   30.0200   37.5400 C   0  0  0  0  0  0  0  0  0  0  0  0
   37.1150   29.8280   38.8010 C   0  0  1  0  0  0  0  0  0  0  0  0
   36.4780   31.7110   37.7570 H   0  0  0  0  0  0  0  0  0  0  0  0
   38.9940   29.7120   37.6980 H   0  0  0  0  0  0  0  0  0  0  0  0
   37.5270   29.6350   36.5840 H   0  0  0  0  0  0  0  0  0  0  0  0
   36.1580   29.3080   38.5960 H   0  0  0  0  0  0  0  0  0  0  0  0
   40.4690   32.9330   39.3360 C   0  0  0  0  0  0  0  0  0  0  0  0
   39.6260   32.0740   38.6190 C   0  0  0  0  0  0  0  0  0  0  0  0
   38.2650   32.0650   38.9540 C   0  0  0  0  0  0  0  0  0  0  0  0
   37.8230   32.8840   39.9490 N   0  0  0  0  0  0  0  0  0  0  0  0
   38.6650   33.7030   40.6240 C   0  0  0  0  0  0  0  0  0  0  0  0
   39.9900   33.7240   40.3130 N   0  0  0  0  0  0  0  0  0  0  0  0
   41.5280   33.0130   39.1560 H   0  0  0  0  0  0  0  0  0  0  0  0
   40.0510   31.4700   37.8540 H   0  0  0  0  0  0  0  0  0  0  0  0
   38.2000   34.3120   41.4000 H   0  0  0  0  0  0  0  0  0  0  0  0
   37.6650   29.5570   39.9970 O   0  0  0  0  0  0  0  0  0  0  0  0
   35.8530   28.3770   41.5340 O   0  0  0  0  0  0  0  0  0  0  0  0
   36.7220   29.5970   41.3370 P   0  0  2  0  0  0  0  0  0  0  0  0
   35.6780   30.9310   41.4120 O   0  0  0  0  0  0  0  0  0  0  0  0
   35.1590   30.9220   40.5710 H   0  0  0  0  0  0  0  0  0  0  0  0
   37.7040   29.6810   42.7140 O   0  0  0  0  0  0  0  0  0  0  0  0
   39.2170   25.6250   44.0930 H   0  0  0  0  0  0  0  0  0  0  0  0
   39.4100   26.5620   43.6730 N   0  0  0  0  0  0  0  0  0  0  0  0
   38.4000   27.4530   43.4970 C   0  0  0  0  0  3  0  0  0  0  0  0
   38.6510   28.6910   42.9420 C   0  0  0  0  0  0  0  0  0  0  0  0
   39.9350   29.0290   42.5610 C   0  0  0  0  0  0  0  0  0  0  0  0
   40.3530   30.0970   42.0450 O   0  0  0  0  0  0  0  0  0  0  0  0
   40.9480   28.1320   42.7400 N   0  0  0  0  0  0  0  0  0  0  0  0
   40.6590   26.9290   43.2870 C   0  0  0  0  0  0  0  0  0  0  0  0
   41.5460   26.0420   43.4840 O   0  0  0  0  0  0  0  0  0  0  0  0
   41.9530   28.2580   42.4980 H   0  0  0  0  0  0  0  0  0  0  0  0
  1  4  1  6  0  0  0
  1  3  1  0  0  0  0
  1 10  1  0  0  0  0
  2  5  1  0  0  0  0
  2  1  1  0  0  0  0
  2  3  1  0  0  0  0
  3  7  1  6  0  0  0
  3 17  1  0  0  0  0
  6  2  1  0  0  0  0
  8 13  1  0  0  0  0
  9 10  1  0  0  0  0
  9  8  2  0  0  0  0
 10 11  2  0  0  0  0
 11 12  1  0  0  0  0
 12 16  1  0  0  0  0
 13 12  2  0  0  0  0
 14  8  1  0  0  0  0
 15  9  1  0  0  0  0
 17 19  1  0  0  0  0
 19 20  1  0  0  0  0
 19 18  2  1  0  0  0
 19 22  1  0  0  0  0
 21 20  1  0  0  0  0
 22 26  1  0  0  0  0
 24 23  1  0  0  0  0
 25 24  1  0  0  0  0
 26 25  2  0  0  0  0
 27 29  1  0  0  0  0
 27 26  1  0  0  0  0
 28 27  2  0  0  0  0
 29 30  1  0  0  0  0
 30 31  2  0  0  0  0
 30 24  1  0  0  0  0
 32 29  1  0  0  0  0
M  END
>  <minimizedAffinity>
-5.29023504

$$$$

 OpenBabel03252501043D

 32 34  0  0  1  0  0  0  0  0999 V2000
   37.1780   26.7730   42.2650 C   0  0  1  0  0  0  0  0  0  0  0  0
   36.5460   27.5370   43.3700 C   0  0  0  0  0  0  0  0  0  0  0  0
   36.6920   28.1260   41.9720 C   0  0  1  0  0  0  0  0  0  0  0  0
   36.6710   25.8830   41.8490 H   0  0  0  0  0  0  0  0  0  0  0  0
   37.1150   28.1210   44.1130 H   0  0  0  0  0  0  0  0  0  0  0  0
   35.5200   27.2870   43.7170 H   0  0  0  0  0  0  0  0  0  0  0  0
   35.7160   28.2320   41.4590 H   0  0  0  0  0  0  0  0  0  0  0  0
   40.6810   26.6050   43.6790 C   0  0  0  0  0  0  0  0  0  0  0  0
   39.2900   26.7690   43.6300 C   0  0  0  0  0  0  0  0  0  0  0  0
   38.6560   26.6020   42.3910 C   0  0  0  0  0  0  0  0  0  0  0  0
   39.4090   26.2890   41.2990 N   0  0  0  0  0  0  0  0  0  0  0  0
   40.7520   26.1360   41.3810 C   0  0  0  0  0  0  0  0  0  0  0  0
   41.3850   26.2960   42.5760 N   0  0  0  0  0  0  0  0  0  0  0  0
   41.2600   26.7130   44.5810 H   0  0  0  0  0  0  0  0  0  0  0  0
   38.7770   27.0110   44.5300 H   0  0  0  0  0  0  0  0  0  0  0  0
   41.2500   25.8870   40.4440 H   0  0  0  0  0  0  0  0  0  0  0  0
   37.5980   29.0740   41.6770 O   0  0  0  0  0  0  0  0  0  0  0  0
   38.0320   31.6150   41.0460 O   0  0  0  0  0  0  0  0  0  0  0  0
   37.1090   30.4280   40.8930 P   0  0  2  0  0  0  0  0  0  0  0  0
   35.5680   30.9740   41.3440 O   0  0  0  0  0  0  0  0  0  0  0  0
   35.5910   31.0800   42.3270 H   0  0  0  0  0  0  0  0  0  0  0  0
   37.0380   30.1200   39.2300 O   0  0  0  0  0  0  0  0  0  0  0  0
   39.9790   26.9330   37.8720 H   0  0  0  0  0  0  0  0  0  0  0  0
   39.6780   27.9340   37.8820 N   0  0  0  0  0  0  0  0  0  0  0  0
   38.5590   28.3040   38.5590 C   0  0  0  0  0  3  0  0  0  0  0  0
   38.1590   29.6230   38.5760 C   0  0  0  0  0  0  0  0  0  0  0  0
   38.8960   30.5770   37.9010 C   0  0  0  0  0  0  0  0  0  0  0  0
   38.6910   31.8140   37.8030 O   0  0  0  0  0  0  0  0  0  0  0  0
   40.0190   30.2030   37.2220 N   0  0  0  0  0  0  0  0  0  0  0  0
   40.3770   28.8980   37.2320 C   0  0  0  0  0  0  0  0  0  0  0  0
   41.4080   28.4730   36.6240 O   0  0  0  0  0  0  0  0  0  0  0  0
   40.6610   30.8150   36.6760 H   0  0  0  0  0  0  0  0  0  0  0  0
  1  4  1  6  0  0  0
  1 10  1  0  0  0  0
  1  2  1  0  0  0  0
  2  6  1  0  0  0  0
  2  5  1  0  0  0  0
  3  7  1  6  0  0  0
  3  1  1  0  0  0  0
  3  2  1  0  0  0  0
  8 14  1  0  0  0  0
  9  8  1  0  0  0  0
  9 15  1  0  0  0  0
 10  9  2  0  0  0  0
 11 12  2  0  0  0  0
 11 10  1  0  0  0  0
 12 13  1  0  0  0  0
 13  8  2  0  0  0  0
 16 12  1  0  0  0  0
 17  3  1  0  0  0  0
 19 18  2  1  0  0  0
 19 20  1  0  0  0  0
 19 17  1  0  0  0  0
 20 21  1  0  0  0  0
 22 19  1  0  0  0  0
 23 24  1  0  0  0  0
 24 25  1  0  0  0  0
 25 26  2  0  0  0  0
 26 22  1  0  0  0  0
 27 26  1  0  0  0  0
 28 27  2  0  0  0  0
 29 30  1  0  0  0  0
 29 27  1  0  0  0  0
 30 24  1  0  0  0  0
 31 30  2  0  0  0  0
 32 29  1  0  0  0  0
M  END
>  <minimizedAffinity>
-5.17820263

$$$$

 OpenBabel03252501043D

 32 34  0  0  1  0  0  0  0  0999 V2000
   37.0030   31.5430   39.3310 C   0  0  1  0  0  0  0  0  0  0  0  0
   37.3220   32.7800   40.0860 C   0  0  0  0  0  0  0  0  0  0  0  0
   38.2100   32.2850   38.9510 C   0  0  1  0  0  0  0  0  0  0  0  0
   36.1200   31.5130   38.6660 H   0  0  0  0  0  0  0  0  0  0  0  0
   37.8640   32.7880   41.0460 H   0  0  0  0  0  0  0  0  0  0  0  0
   36.7420   33.7130   39.9140 H   0  0  0  0  0  0  0  0  0  0  0  0
   38.1610   32.9460   38.0630 H   0  0  0  0  0  0  0  0  0  0  0  0
   37.4600   27.8920   40.2050 C   0  0  0  0  0  0  0  0  0  0  0  0
   37.2780   29.0440   39.4290 C   0  0  0  0  0  0  0  0  0  0  0  0
   37.2060   30.2760   40.0950 C   0  0  0  0  0  0  0  0  0  0  0  0
   37.3170   30.3010   41.4530 N   0  0  0  0  0  0  0  0  0  0  0  0
   37.4930   29.1680   42.1740 C   0  0  0  0  0  0  0  0  0  0  0  0
   37.5640   27.9630   41.5440 N   0  0  0  0  0  0  0  0  0  0  0  0
   37.5270   26.9010   39.7890 H   0  0  0  0  0  0  0  0  0  0  0  0
   37.2030   28.9370   38.3740 H   0  0  0  0  0  0  0  0  0  0  0  0
   37.5680   29.3090   43.2520 H   0  0  0  0  0  0  0  0  0  0  0  0
   39.4040   31.7060   39.1670 O   0  0  0  0  0  0  0  0  0  0  0  0
   41.4190   33.3690   38.7020 O   0  0  0  0  0  0  0  0  0  0  0  0
   40.6800   32.1370   38.2320 P   0  0  2  0  0  0  0  0  0  0  0  0
   40.2860   32.4200   36.6070 O   0  0  0  0  0  0  0  0  0  0  0  0
   39.5620   33.0940   36.6120 H   0  0  0  0  0  0  0  0  0  0  0  0
   41.8260   30.8910   38.2360 O   0  0  0  0  0  0  0  0  0  0  0  0
   45.5840   32.3540   36.1430 H   0  0  0  0  0  0  0  0  0  0  0  0
   44.7970   31.6700   36.2040 N   0  0  0  0  0  0  0  0  0  0  0  0
   43.8700   31.7810   37.1920 C   0  0  0  0  0  3  0  0  0  0  0  0
   42.8290   30.8800   37.2750 C   0  0  0  0  0  0  0  0  0  0  0  0
   42.7260   29.8560   36.3530 C   0  0  0  0  0  0  0  0  0  0  0  0
   41.8580   28.9500   36.2690 O   0  0  0  0  0  0  0  0  0  0  0  0
   43.6590   29.7470   35.3630 N   0  0  0  0  0  0  0  0  0  0  0  0
   44.6630   30.6520   35.3160 C   0  0  0  0  0  0  0  0  0  0  0  0
   45.5680   30.6160   34.4260 O   0  0  0  0  0  0  0  0  0  0  0  0
   43.6990   29.0290   34.6090 H   0  0  0  0  0  0  0  0  0  0  0  0
  1  4  1  6  0  0  0
  1  2  1  0  0  0  0
  1 10  1  0  0  0  0
  2  5  1  0  0  0  0
  3  7  1  6  0  0  0
  3 17  1  0  0  0  0
  3  1  1  0  0  0  0
  3  2  1  0  0  0  0
  6  2  1  0  0  0  0
  8 13  1  0  0  0  0
  9 10  1  0  0  0  0
  9  8  2  0  0  0  0
 10 11  2  0  0  0  0
 11 12  1  0  0  0  0
 12 16  1  0  0  0  0
 13 12  2  0  0  0  0
 14  8  1  0  0  0  0
 15  9  1  0  0  0  0
 19 22  1  0  0  0  0
 19 18  2  1  0  0  0
 19 17  1  0  0  0  0
 20 21  1  0  0  0  0
 20 19  1  0  0  0  0
 23 24  1  0  0  0  0
 24 25  1  0  0  0  0
 25 26  2  0  0  0  0
 26 22  1  0  0  0  0
 27 26  1  0  0  0  0
 28 27  2  0  0  0  0
 29 27  1  0  0  0  0
 30 29  1  0  0  0  0
 30 24  1  0  0  0  0
 31 30  2  0  0  0  0
 32 29  1  0  0  0  0
M  END
>  <minimizedAffinity>
-5.14249468

$$$$

 OpenBabel03252501043D

 32 34  0  0  1  0  0  0  0  0999 V2000
   37.3680   28.3750   43.2180 C   0  0  1  0  0  0  0  0  0  0  0  0
   38.4500   29.3900   43.1510 C   0  0  0  0  0  0  0  0  0  0  0  0
   37.3240   29.3530   42.1260 C   0  0  1  0  0  0  0  0  0  0  0  0
   36.6310   28.4060   44.0410 H   0  0  0  0  0  0  0  0  0  0  0  0
   39.4300   29.2090   42.6790 H   0  0  0  0  0  0  0  0  0  0  0  0
   38.4690   30.2440   43.8630 H   0  0  0  0  0  0  0  0  0  0  0  0
   36.6390   30.2190   42.2260 H   0  0  0  0  0  0  0  0  0  0  0  0
   39.4690   25.2890   42.6140 C   0  0  0  0  0  0  0  0  0  0  0  0
   39.1350   26.6020   42.9740 C   0  0  0  0  0  0  0  0  0  0  0  0
   37.7920   26.9880   42.8610 C   0  0  0  0  0  0  0  0  0  0  0  0
   36.8780   26.0830   42.4130 N   0  0  0  0  0  0  0  0  0  0  0  0
   37.2340   24.8200   42.0720 C   0  0  0  0  0  0  0  0  0  0  0  0
   38.5340   24.4280   42.1750 N   0  0  0  0  0  0  0  0  0  0  0  0
   40.4710   24.8970   42.6640 H   0  0  0  0  0  0  0  0  0  0  0  0
   39.9090   27.2450   43.3170 H   0  0  0  0  0  0  0  0  0  0  0  0
   36.4200   24.1840   41.7270 H   0  0  0  0  0  0  0  0  0  0  0  0
   37.5030   28.9100   40.8700 O   0  0  0  0  0  0  0  0  0  0  0  0
   34.9540   29.1150   40.1600 O   0  0  0  0  0  0  0  0  0  0  0  0
   36.3920   29.2850   39.7250 P   0  0  2  0  0  0  0  0  0  0  0  0
   36.5510   28.4010   38.2860 O   0  0  0  0  0  0  0  0  0  0  0  0
   36.5350   27.4480   38.5460 H   0  0  0  0  0  0  0  0  0  0  0  0
   36.5480   30.9170   39.3030 O   0  0  0  0  0  0  0  0  0  0  0  0
   40.6800   32.7240   39.8570 H   0  0  0  0  0  0  0  0  0  0  0  0
   39.9400   32.3510   39.2220 N   0  0  0  0  0  0  0  0  0  0  0  0
   38.7650   31.8980   39.7340 C   0  0  0  0  0  3  0  0  0  0  0  0
   37.7850   31.4050   38.8980 C   0  0  0  0  0  0  0  0  0  0  0  0
   37.9940   31.3680   37.5330 C   0  0  0  0  0  0  0  0  0  0  0  0
   37.2280   30.9590   36.6240 O   0  0  0  0  0  0  0  0  0  0  0  0
   39.1750   31.8230   37.0220 N   0  0  0  0  0  0  0  0  0  0  0  0
   40.1100   32.2990   37.8760 C   0  0  0  0  0  0  0  0  0  0  0  0
   41.2330   32.7390   37.4780 O   0  0  0  0  0  0  0  0  0  0  0  0
   39.4610   31.8520   36.0210 H   0  0  0  0  0  0  0  0  0  0  0  0
  1  4  1  1  0  0  0
  2  1  1  0  0  0  0
  2  6  1  0  0  0  0
  3  7  1  1  0  0  0
  3  2  1  0  0  0  0
  3  1  1  0  0  0  0
  5  2  1  0  0  0  0
  8 14  1  0  0  0  0
  8  9  1  0  0  0  0
  9 15  1  0  0  0  0
 10  9  2  0  0  0  0
 10  1  1  0  0  0  0
 11 10  1  0  0  0  0
 12 13  1  0  0  0  0
 12 11  2  0  0  0  0
 13  8  2  0  0  0  0
 16 12  1  0  0  0  0
 17  3  1  0  0  0  0
 19 18  2  1  0  0  0
 19 17  1  0  0  0  0
 20 21  1  0  0  0  0
 20 19  1  0  0  0  0
 22 19  1  0  0  0  0
 24 25  1  0  0  0  0
 24 23  1  0  0  0  0
 26 22  1  0  0  0  0
 26 25  2  0  0  0  0
 27 26  1  0  0  0  0
 28 27  2  0  0  0  0
 29 27  1  0  0  0  0
 29 30  1  0  0  0  0
 30 24  1  0  0  0  0
 31 30  2  0  0  0  0
 32 29  1  0  0  0  0
M  END
>  <minimizedAffinity>
-5.12928391

$$$$

 OpenBabel03252501043D

 32 34  0  0  1  0  0  0  0  0999 V2000
   35.4910   27.5960   38.1760 C   0  0  1  0  0  0  0  0  0  0  0  0
   36.8160   27.3480   38.7970 C   0  0  0  0  0  0  0  0  0  0  0  0
   35.9050   28.4700   39.2780 C   0  0  1  0  0  0  0  0  0  0  0  0
   34.6740   26.8630   38.3060 H   0  0  0  0  0  0  0  0  0  0  0  0
   37.7640   27.7440   38.3950 H   0  0  0  0  0  0  0  0  0  0  0  0
   36.9690   26.4830   39.4780 H   0  0  0  0  0  0  0  0  0  0  0  0
   35.4940   28.2710   40.2870 H   0  0  0  0  0  0  0  0  0  0  0  0
   36.7410   28.7820   34.8090 C   0  0  0  0  0  0  0  0  0  0  0  0
   36.7540   28.2160   36.0910 C   0  0  0  0  0  0  0  0  0  0  0  0
   35.5460   28.1760   36.8000 C   0  0  0  0  0  0  0  0  0  0  0  0
   34.4210   28.6820   36.2210 N   0  0  0  0  0  0  0  0  0  0  0  0
   34.4420   29.2230   34.9790 C   0  0  0  0  0  0  0  0  0  0  0  0
   35.6070   29.2700   34.2760 N   0  0  0  0  0  0  0  0  0  0  0  0
   37.6150   28.8600   34.1860 H   0  0  0  0  0  0  0  0  0  0  0  0
   37.6750   27.8410   36.4690 H   0  0  0  0  0  0  0  0  0  0  0  0
   33.4840   29.5960   34.6170 H   0  0  0  0  0  0  0  0  0  0  0  0
   36.1460   29.7640   39.0050 O   0  0  0  0  0  0  0  0  0  0  0  0
   37.9430   30.2470   40.8960 O   0  0  0  0  0  0  0  0  0  0  0  0
   36.6970   30.7430   40.1980 P   0  0  2  0  0  0  0  0  0  0  0  0
   35.5660   31.0490   41.4240 O   0  0  0  0  0  0  0  0  0  0  0  0
   35.2690   30.1650   41.7520 H   0  0  0  0  0  0  0  0  0  0  0  0
   37.1120   32.2480   39.5450 O   0  0  0  0  0  0  0  0  0  0  0  0
   40.0100   31.6700   36.0940 H   0  0  0  0  0  0  0  0  0  0  0  0
   39.8020   32.0700   37.0360 N   0  0  0  0  0  0  0  0  0  0  0  0
   38.5890   31.8640   37.6130 C   0  0  0  0  0  3  0  0  0  0  0  0
   38.3110   32.3910   38.8570 C   0  0  0  0  0  0  0  0  0  0  0  0
   39.2670   33.1320   39.5230 C   0  0  0  0  0  0  0  0  0  0  0  0
   39.1980   33.6860   40.6500 O   0  0  0  0  0  0  0  0  0  0  0  0
   40.4850   33.3370   38.9410 N   0  0  0  0  0  0  0  0  0  0  0  0
   40.7170   32.8030   37.7200 C   0  0  0  0  0  0  0  0  0  0  0  0
   41.8230   32.9500   37.1140 O   0  0  0  0  0  0  0  0  0  0  0  0
   41.2890   33.8730   39.3300 H   0  0  0  0  0  0  0  0  0  0  0  0
  1  4  1  1  0  0  0
  1  2  1  0  0  0  0
  1  3  1  0  0  0  0
  2  3  1  0  0  0  0
  2  6  1  0  0  0  0
  3  7  1  1  0  0  0
  5  2  1  0  0  0  0
  8  9  1  0  0  0  0
  9 15  1  0  0  0  0
  9 10  2  0  0  0  0
 10  1  1  0  0  0  0
 11 10  1  0  0  0  0
 12 11  2  0  0  0  0
 13  8  2  0  0  0  0
 13 12  1  0  0  0  0
 14  8  1  0  0  0  0
 16 12  1  0  0  0  0
 17  3  1  0  0  0  0
 17 19  1  0  0  0  0
 19 18  2  1  0  0  0
 19 20  1  0  0  0  0
 20 21  1  0  0  0  0
 22 19  1  0  0  0  0
 23 24  1  0  0  0  0
 24 25  1  0  0  0  0
 24 30  1  0  0  0  0
 25 26  2  0  0  0  0
 26 27  1  0  0  0  0
 26 22  1  0  0  0  0
 27 28  2  0  0  0  0
 29 32  1  0  0  0  0
 29 27  1  0  0  0  0
 30 29  1  0  0  0  0
 31 30  2  0  0  0  0
M  END
>  <minimizedAffinity>
-5.11467457

$$$$
