
 OpenBabel03242523193D

 38 41  0  0  0  0  0  0  0  0999 V2000
   44.3430   31.8480   42.7850 Cl  0  0  0  0  0  0  0  0  0  0  0  0
   44.4950   33.6050   42.7120 C   0  0  0  0  0  0  0  0  0  0  0  0
   45.4230   34.1720   43.6100 C   0  0  0  0  0  0  0  0  0  0  0  0
   45.4590   35.5490   43.4570 C   0  0  0  0  0  0  0  0  0  0  0  0
   44.7770   36.3450   42.6240 C   0  0  0  0  0  0  0  0  0  0  0  0
   43.9010   35.7150   41.7880 C   0  0  0  0  0  0  0  0  0  0  0  0
   43.7410   34.3710   41.8110 C   0  0  0  0  0  0  0  0  0  0  0  0
   46.1150   36.1560   44.1150 H   0  0  0  0  0  0  0  0  0  0  0  0
   44.8490   37.4160   42.5470 H   0  0  0  0  0  0  0  0  0  0  0  0
   43.2640   36.1860   41.0480 H   0  0  0  0  0  0  0  0  0  0  0  0
   42.8510   33.5890   40.9850 N   0  0  0  0  0  0  0  0  0  0  0  0
   41.5950   33.1980   41.2680 C   0  0  0  0  0  3  0  0  0  0  0  0
   40.9190   32.4480   40.3260 C   0  0  0  0  0  0  0  0  0  0  0  0
   39.9120   32.1550   40.5930 H   0  0  0  0  0  0  0  0  0  0  0  0
   41.5060   32.1040   39.1260 C   0  0  0  0  0  0  0  0  0  0  0  0
   40.8710   31.4200   38.2820 O   0  0  0  0  0  0  0  0  0  0  0  0
   42.7640   32.5100   38.8720 N   0  0  0  0  0  0  0  0  0  0  0  0
   43.4180   33.2490   39.8110 C   0  0  0  0  0  0  0  0  0  0  0  0
   44.5990   33.5660   39.4440 O   0  0  0  0  0  0  0  0  0  0  0  0
   43.1880   32.2380   37.9570 H   0  0  0  0  0  0  0  0  0  0  0  0
   46.2730   33.4410   44.5870 C   0  0  0  0  0  0  0  0  0  0  0  0
   45.7090   33.7900   45.5930 O   0  0  0  0  0  0  0  0  0  0  0  0
   47.3070   32.7060   43.8480 C   0  0  0  0  0  0  0  0  0  0  0  0
   48.2280   33.2340   43.0300 C   0  0  0  0  0  0  0  0  0  0  0  0
   49.0240   32.3070   42.3830 C   0  0  0  0  0  0  0  0  0  0  0  0
   48.8120   30.9370   42.6310 N   0  0  0  0  0  0  0  0  0  0  0  0
   47.8830   30.5000   43.4560 C   0  0  0  0  0  0  0  0  0  0  0  0
   47.0690   31.3930   44.1170 N   0  0  0  0  0  0  0  0  0  0  0  0
   49.8110   32.5640   41.6890 H   0  0  0  0  0  0  0  0  0  0  0  0
   47.8340   29.4200   43.5520 H   0  0  0  0  0  0  0  0  0  0  0  0
   48.5230   34.6120   42.8670 C   0  0  0  0  0  0  0  0  0  0  0  0
   49.6150   35.1870   42.2920 C   0  0  0  0  0  0  0  0  0  0  0  0
   48.4060   35.2000   41.3980 C   0  0  0  0  0  0  0  0  0  0  0  0
   48.0860   35.2540   43.6550 H   0  0  0  0  0  0  0  0  0  0  0  0
   50.4450   34.5360   41.8820 H   0  0  0  0  0  0  0  0  0  0  0  0
   50.0270   36.2120   42.4310 H   0  0  0  0  0  0  0  0  0  0  0  0
   47.7660   36.1040   41.3210 H   0  0  0  0  0  0  0  0  0  0  0  0
   48.2950   34.4210   40.6350 H   0  0  0  0  0  0  0  0  0  0  0  0
  2  1  1  0  0  0  0
  2  3  1  0  0  0  0
  3 21  1  0  0  0  0
  4  3  2  0  0  0  0
  4  8  1  0  0  0  0
  5  4  1  0  0  0  0
  6  7  1  0  0  0  0
  6  5  2  0  0  0  0
  7  2  2  0  0  0  0
  9  5  1  0  0  0  0
 10  6  1  0  0  0  0
 11 12  1  0  0  0  0
 11  7  1  0  0  0  0
 13 14  1  0  0  0  0
 13 12  2  0  0  0  0
 15 13  1  0  0  0  0
 16 15  2  0  0  0  0
 17 15  1  0  0  0  0
 17 18  1  0  0  0  0
 18 11  1  0  0  0  0
 19 18  2  0  0  0  0
 20 17  1  0  0  0  0
 21 22  2  0  0  0  0
 23 28  1  0  0  0  0
 23 21  1  0  0  0  0
 24 23  2  0  0  0  0
 25 26  2  0  0  0  0
 25 24  1  0  0  0  0
 26 27  1  0  0  0  0
 27 30  1  0  0  0  0
 27 28  2  0  0  0  0
 29 25  1  0  0  0  0
 31 24  1  0  0  0  0
 31 34  1  0  0  0  0
 32 36  1  0  0  0  0
 32 31  1  0  0  0  0
 33 32  1  0  0  0  0
 33 31  1  0  0  0  0
 35 32  1  0  0  0  0
 37 33  1  0  0  0  0
 38 33  1  0  0  0  0
M  END
>  <minimizedAffinity>
-5.64753771

>  <minimizedRMSD>
0.846604824

$$$$
