
 OpenBabel03252504273D

 23 24  0  0  0  0  0  0  0  0999 V2000
   44.0120   34.9940   41.1720 C   0  0  0  0  0  0  0  0  0  0  0  0
   43.9370   33.9990   40.6820 H   0  0  0  0  0  0  0  0  0  0  0  0
   44.8130   35.5260   40.5900 H   0  0  0  0  0  0  0  0  0  0  0  0
   44.2870   35.8120   43.4210 C   0  0  0  0  0  0  0  0  0  0  0  0
   44.4310   34.7510   42.5540 C   0  0  0  0  0  0  0  0  0  0  0  0
   44.9500   33.5790   43.0670 C   0  0  0  0  0  0  0  0  0  0  0  0
   45.2820   33.5480   44.3770 N   0  0  0  0  0  0  0  0  0  0  0  0
   45.1310   34.5950   45.2020 C   0  0  0  0  0  0  0  0  0  0  0  0
   44.6190   35.7890   44.7460 N   0  0  0  0  0  0  0  0  0  0  0  0
   43.8830   36.7900   43.1160 H   0  0  0  0  0  0  0  0  0  0  0  0
   45.0580   32.7590   42.3760 H   0  0  0  0  0  0  0  0  0  0  0  0
   45.4720   34.3050   46.1940 H   0  0  0  0  0  0  0  0  0  0  0  0
   42.7750   35.6080   41.0530 O   0  0  0  0  0  0  0  0  0  0  0  0
   41.4020   34.8290   36.8230 H   0  0  0  0  0  0  0  0  0  0  0  0
   41.2310   34.8800   37.8620 N   0  0  0  0  0  0  0  0  0  0  0  0
   42.1830   35.2240   38.7260 C   0  0  0  0  0  3  0  0  0  0  0  0
   41.8620   35.2620   40.0680 C   0  0  0  0  0  0  0  0  0  0  0  0
   40.5610   34.9380   40.4300 C   0  0  0  0  0  0  0  0  0  0  0  0
   40.2700   34.9730   41.6570 O   0  0  0  0  0  0  0  0  0  0  0  0
   39.6160   34.5920   39.5280 N   0  0  0  0  0  0  0  0  0  0  0  0
   39.9710   34.5660   38.2150 C   0  0  0  0  0  0  0  0  0  0  0  0
   39.0450   34.2360   37.4290 O   0  0  0  0  0  0  0  0  0  0  0  0
   38.6380   34.3510   39.8350 H   0  0  0  0  0  0  0  0  0  0  0  0
  1  5  1  0  0  0  0
  2  1  1  0  0  0  0
  3  1  1  0  0  0  0
  4  9  1  0  0  0  0
  5  6  1  0  0  0  0
  5  4  2  0  0  0  0
  6  7  2  0  0  0  0
  7  8  1  0  0  0  0
  8 12  1  0  0  0  0
  9  8  2  0  0  0  0
 10  4  1  0  0  0  0
 11  6  1  0  0  0  0
 13  1  1  0  0  0  0
 14 15  1  0  0  0  0
 15 21  1  0  0  0  0
 15 16  1  0  0  0  0
 16 17  2  0  0  0  0
 17 18  1  0  0  0  0
 17 13  1  0  0  0  0
 18 19  2  0  0  0  0
 20 23  1  0  0  0  0
 20 18  1  0  0  0  0
 21 20  1  0  0  0  0
 22 21  2  0  0  0  0
M  END
>  <minimizedAffinity>
-4.79010487

>  <minimizedRMSD>
1.58172154

$$$$
