
 OpenBabel03252505473D

 30 32  0  0  1  0  0  0  0  0999 V2000
   46.1980   33.0650   45.5060 C   0  0  0  0  0  0  0  0  0  0  0  0
   45.2360   34.0530   45.1940 C   0  0  0  0  0  0  0  0  0  0  0  0
   45.4260   34.9100   44.0890 C   0  0  0  0  0  0  0  0  0  0  0  0
   46.5660   34.7270   43.3690 N   0  0  0  0  0  0  0  0  0  0  0  0
   47.4660   33.7570   43.7160 C   0  0  0  0  0  0  0  0  0  0  0  0
   47.2880   32.9550   44.7460 N   0  0  0  0  0  0  0  0  0  0  0  0
   44.3480   34.1620   45.7930 H   0  0  0  0  0  0  0  0  0  0  0  0
   44.7220   35.6630   43.8260 H   0  0  0  0  0  0  0  0  0  0  0  0
   45.9350   32.2160   46.6650 C   0  0  1  0  0  0  0  0  0  0  0  0
   46.8610   32.5940   47.8790 C   0  0  1  0  0  0  0  0  0  0  0  0
   45.3500   32.6190   47.8850 C   0  0  0  0  0  0  0  0  0  0  0  0
   46.0180   31.1160   46.4010 H   0  0  0  0  0  0  0  0  0  0  0  0
   47.4090   33.5320   47.8270 H   0  0  0  0  0  0  0  0  0  0  0  0
   44.9250   33.6550   47.9890 H   0  0  0  0  0  0  0  0  0  0  0  0
   44.8030   31.9000   48.5320 H   0  0  0  0  0  0  0  0  0  0  0  0
   47.4490   31.3990   48.5910 C   0  0  0  0  0  0  0  0  0  0  0  0
   48.5760   31.6900   49.3020 F   0  0  0  0  0  0  0  0  0  0  0  0
   46.4880   30.8970   49.4900 F   0  0  0  0  0  0  0  0  0  0  0  0
   47.6730   30.3550   47.7030 F   0  0  0  0  0  0  0  0  0  0  0  0
   48.5780   33.6980   42.8880 O   0  0  0  0  0  0  0  0  0  0  0  0
   47.4700   32.3490   38.8070 H   0  0  0  0  0  0  0  0  0  0  0  0
   47.8280   33.0620   39.4600 N   0  0  0  0  0  0  0  0  0  0  0  0
   47.9860   32.9360   40.8090 C   0  0  0  0  0  0  0  0  0  0  0  0
   48.4860   34.0060   41.5400 C   0  0  0  0  0  0  0  0  0  0  0  0
   48.8250   35.1980   40.9170 C   0  0  0  0  0  0  0  0  0  0  0  0
   49.2560   36.0660   41.6840 O   0  0  0  0  0  0  0  0  0  0  0  0
   48.6410   35.2390   39.6000 N   0  0  0  0  0  0  0  0  0  0  0  0
   48.1660   34.2390   38.8660 C   0  0  0  0  0  0  0  0  0  0  0  0
   48.0560   34.4560   37.6160 O   0  0  0  0  0  0  0  0  0  0  0  0
   48.9090   36.1620   39.1480 H   0  0  0  0  0  0  0  0  0  0  0  0
  1  9  1  0  0  0  0
  2  1  1  0  0  0  0
  2  7  1  0  0  0  0
  3  2  2  0  0  0  0
  4  5  2  0  0  0  0
  4  3  1  0  0  0  0
  5  6  1  0  0  0  0
  6  1  2  0  0  0  0
  8  3  1  0  0  0  0
  9 12  1  6  0  0  0
  9 10  1  0  0  0  0
  9 11  1  0  0  0  0
 10 13  1  6  0  0  0
 10 11  1  0  0  0  0
 10 16  1  0  0  0  0
 11 14  1  0  0  0  0
 11 15  1  0  0  0  0
 16 17  1  0  0  0  0
 16 18  1  0  0  0  0
 19 16  1  0  0  0  0
 20  5  1  0  0  0  0
 21 22  1  0  0  0  0
 22 23  1  0  0  0  0
 23 24  2  0  0  0  0
 24 20  1  0  0  0  0
 25 24  1  0  0  0  0
 25 26  2  0  0  0  0
 27 25  1  0  0  0  0
 28 22  1  0  0  0  0
 28 27  1  0  0  0  0
 29 28  2  0  0  0  0
 30 27  1  0  0  0  0
M  END
>  <minimizedAffinity>
-5.94501638

>  <minimizedRMSD>
8.09360886

$$$$
