
 OpenBabel03252504273D

 23 24  0  0  0  0  0  0  0  0999 V2000
   43.8890   35.7240   41.7540 C   0  0  0  0  0  0  0  0  0  0  0  0
   44.6140   36.5190   41.4770 H   0  0  0  0  0  0  0  0  0  0  0  0
   42.9420   36.2850   41.9850 H   0  0  0  0  0  0  0  0  0  0  0  0
   44.3480   35.7950   44.1180 C   0  0  0  0  0  0  0  0  0  0  0  0
   44.4210   35.0680   42.9500 C   0  0  0  0  0  0  0  0  0  0  0  0
   44.9820   33.8090   43.0220 C   0  0  0  0  0  0  0  0  0  0  0  0
   45.4210   33.3730   44.2250 N   0  0  0  0  0  0  0  0  0  0  0  0
   45.3370   34.1000   45.3490 C   0  0  0  0  0  0  0  0  0  0  0  0
   44.7880   35.3630   45.3370 N   0  0  0  0  0  0  0  0  0  0  0  0
   43.9190   36.8080   44.1730 H   0  0  0  0  0  0  0  0  0  0  0  0
   45.0330   33.2520   42.1000 H   0  0  0  0  0  0  0  0  0  0  0  0
   45.7590   33.5210   46.1680 H   0  0  0  0  0  0  0  0  0  0  0  0
   43.7540   34.8860   40.6590 O   0  0  0  0  0  0  0  0  0  0  0  0
   39.4400   35.7850   39.6790 H   0  0  0  0  0  0  0  0  0  0  0  0
   40.3750   35.3550   39.4520 N   0  0  0  0  0  0  0  0  0  0  0  0
   41.4200   35.4480   40.2690 C   0  0  0  0  0  3  0  0  0  0  0  0
   42.6040   34.8510   39.8840 C   0  0  0  0  0  0  0  0  0  0  0  0
   42.6260   34.1890   38.6640 C   0  0  0  0  0  0  0  0  0  0  0  0
   43.7090   33.6440   38.3130 O   0  0  0  0  0  0  0  0  0  0  0  0
   41.5460   34.1120   37.8540 N   0  0  0  0  0  0  0  0  0  0  0  0
   40.3980   34.7140   38.2690 C   0  0  0  0  0  0  0  0  0  0  0  0
   39.4320   34.6040   37.4700 O   0  0  0  0  0  0  0  0  0  0  0  0
   41.5950   33.6020   36.9330 H   0  0  0  0  0  0  0  0  0  0  0  0
  1  3  1  0  0  0  0
  1  5  1  0  0  0  0
  2  1  1  0  0  0  0
  4 10  1  0  0  0  0
  4  9  1  0  0  0  0
  5  6  1  0  0  0  0
  5  4  2  0  0  0  0
  6  7  2  0  0  0  0
  7  8  1  0  0  0  0
  8 12  1  0  0  0  0
  9  8  2  0  0  0  0
 11  6  1  0  0  0  0
 13  1  1  0  0  0  0
 15 14  1  0  0  0  0
 15 16  1  0  0  0  0
 17 16  2  0  0  0  0
 17 13  1  0  0  0  0
 18 17  1  0  0  0  0
 19 18  2  0  0  0  0
 20 21  1  0  0  0  0
 20 18  1  0  0  0  0
 21 15  1  0  0  0  0
 22 21  2  0  0  0  0
 23 20  1  0  0  0  0
M  END
>  <minimizedAffinity>
-4.70382595

>  <minimizedRMSD>
1.4431088

$$$$
