
 OpenBabel03242523193D

 38 41  0  0  0  0  0  0  0  0999 V2000
   44.4670   31.8400   42.8530 Cl  0  0  0  0  0  0  0  0  0  0  0  0
   44.5660   33.6010   42.7760 C   0  0  0  0  0  0  0  0  0  0  0  0
   45.4580   34.2000   43.6890 C   0  0  0  0  0  0  0  0  0  0  0  0
   45.4540   35.5760   43.5310 C   0  0  0  0  0  0  0  0  0  0  0  0
   44.7650   36.3470   42.6810 C   0  0  0  0  0  0  0  0  0  0  0  0
   43.9260   35.6880   41.8310 C   0  0  0  0  0  0  0  0  0  0  0  0
   43.8080   34.3400   41.8560 C   0  0  0  0  0  0  0  0  0  0  0  0
   46.0780   36.2060   44.2000 H   0  0  0  0  0  0  0  0  0  0  0  0
   44.8050   37.4200   42.6010 H   0  0  0  0  0  0  0  0  0  0  0  0
   43.2890   36.1360   41.0760 H   0  0  0  0  0  0  0  0  0  0  0  0
   42.9590   33.5270   41.0160 N   0  0  0  0  0  0  0  0  0  0  0  0
   41.7050   33.1090   41.2700 C   0  0  0  0  0  0  0  0  0  0  0  0
   41.0710   32.3350   40.3200 C   0  0  0  0  0  0  0  0  0  0  0  0
   40.0650   32.0200   40.5650 H   0  0  0  0  0  0  0  0  0  0  0  0
   41.6980   31.9920   39.1390 C   0  0  0  0  0  0  0  0  0  0  0  0
   41.1010   31.2840   38.2870 O   0  0  0  0  0  0  0  0  0  0  0  0
   42.9520   32.4260   38.9140 N   0  0  0  0  0  0  0  0  0  0  0  0
   43.5630   33.1900   39.8610 C   0  0  0  0  0  0  0  0  0  0  0  0
   44.7470   33.5310   39.5210 O   0  0  0  0  0  0  0  0  0  0  0  0
   43.4070   32.1540   38.0120 H   0  0  0  0  0  0  0  0  0  0  0  0
   46.3100   33.4980   44.6860 C   0  0  0  0  0  0  0  0  0  0  0  0
   45.7400   33.8670   45.6820 O   0  0  0  0  0  0  0  0  0  0  0  0
   47.3530   32.7550   43.9690 C   0  0  0  0  0  0  0  0  0  0  0  0
   48.2420   33.2650   43.1050 C   0  0  0  0  0  0  0  0  0  0  0  0
   49.0550   32.3270   42.4950 C   0  0  0  0  0  0  0  0  0  0  0  0
   48.8900   30.9670   42.8210 N   0  0  0  0  0  0  0  0  0  0  0  0
   47.9890   30.5490   43.6870 C   0  0  0  0  0  0  0  0  0  0  0  0
   47.1610   31.4530   44.3140 N   0  0  0  0  0  0  0  0  0  0  0  0
   49.8210   32.5680   41.7720 H   0  0  0  0  0  0  0  0  0  0  0  0
   47.9750   29.4750   43.8430 H   0  0  0  0  0  0  0  0  0  0  0  0
   48.4920   34.6400   42.8610 C   0  0  0  0  0  0  0  0  0  0  0  0
   49.5560   35.2140   42.2350 C   0  0  0  0  0  0  0  0  0  0  0  0
   48.3310   35.1410   41.3650 C   0  0  0  0  0  0  0  0  0  0  0  0
   48.0490   35.3110   43.6220 H   0  0  0  0  0  0  0  0  0  0  0  0
   50.3970   34.5660   41.8450 H   0  0  0  0  0  0  0  0  0  0  0  0
   49.9380   36.2570   42.3090 H   0  0  0  0  0  0  0  0  0  0  0  0
   47.6620   36.0200   41.2510 H   0  0  0  0  0  0  0  0  0  0  0  0
   48.2310   34.3180   40.6480 H   0  0  0  0  0  0  0  0  0  0  0  0
  2  1  1  0  0  0  0
  2  3  1  0  0  0  0
  3 21  1  0  0  0  0
  4  3  2  0  0  0  0
  4  8  1  0  0  0  0
  5  4  1  0  0  0  0
  6  7  1  0  0  0  0
  6  5  2  0  0  0  0
  7  2  2  0  0  0  0
  9  5  1  0  0  0  0
 10  6  1  0  0  0  0
 11 12  1  0  0  0  0
 11  7  1  0  0  0  0
 13 14  1  0  0  0  0
 13 12  2  0  0  0  0
 15 13  1  0  0  0  0
 16 15  2  0  0  0  0
 17 15  1  0  0  0  0
 17 18  1  0  0  0  0
 18 11  1  0  0  0  0
 19 18  2  0  0  0  0
 20 17  1  0  0  0  0
 21 22  2  0  0  0  0
 23 28  1  0  0  0  0
 23 21  1  0  0  0  0
 24 23  2  0  0  0  0
 25 26  2  0  0  0  0
 25 24  1  0  0  0  0
 26 27  1  0  0  0  0
 27 30  1  0  0  0  0
 27 28  2  0  0  0  0
 29 25  1  0  0  0  0
 31 24  1  0  0  0  0
 31 34  1  0  0  0  0
 32 36  1  0  0  0  0
 32 31  1  0  0  0  0
 33 32  1  0  0  0  0
 33 31  1  0  0  0  0
 35 32  1  0  0  0  0
 37 33  1  0  0  0  0
 38 33  1  0  0  0  0
M  END
>  <minimizedAffinity>
-5.66467762

>  <minimizedRMSD>
0.332866877

$$$$
