
 OpenBabel03252509003D

 46 48  0  0  1  0  0  0  0  0999 V2000
   46.7810   34.4430   43.5770 N   0  0  0  0  0  0  0  0  0  0  0  0
   46.3560   35.3480   42.5610 C   0  0  0  0  0  0  0  0  0  0  0  0
   44.8660   35.5210   42.4320 C   0  0  0  0  0  0  0  0  0  0  0  0
   44.1020   35.3760   43.7160 C   0  0  0  0  0  0  0  0  0  0  0  0
   45.0330   35.2220   44.8970 C   0  0  0  0  0  0  0  0  0  0  0  0
   45.8820   33.9560   44.5090 C   0  0  2  0  0  0  0  0  0  0  0  0
   46.7680   36.3490   42.8610 H   0  0  0  0  0  0  0  0  0  0  0  0
   46.7600   35.1690   41.5630 H   0  0  0  0  0  0  0  0  0  0  0  0
   44.4580   34.8610   41.6320 H   0  0  0  0  0  0  0  0  0  0  0  0
   44.6610   36.5590   42.0760 H   0  0  0  0  0  0  0  0  0  0  0  0
   43.5230   34.4250   43.6410 H   0  0  0  0  0  0  0  0  0  0  0  0
   43.3320   36.1680   43.8680 H   0  0  0  0  0  0  0  0  0  0  0  0
   45.6980   36.0880   44.9640 H   0  0  0  0  0  0  0  0  0  0  0  0
   44.4550   35.0110   45.8050 H   0  0  0  0  0  0  0  0  0  0  0  0
   45.1760   33.1790   44.1790 H   0  0  0  0  0  0  0  0  0  0  0  0
   47.9060   33.6340   43.2120 C   0  0  0  0  0  0  0  0  0  0  0  0
   48.6200   34.2490   42.6500 H   0  0  0  0  0  0  0  0  0  0  0  0
   48.3910   33.2710   44.1460 H   0  0  0  0  0  0  0  0  0  0  0  0
   47.4180   32.4470   42.4410 C   0  0  0  0  0  0  0  0  0  0  0  0
   47.6190   31.5000   42.9590 H   0  0  0  0  0  0  0  0  0  0  0  0
   46.3210   32.4960   42.2880 H   0  0  0  0  0  0  0  0  0  0  0  0
   49.8210   31.6790   39.6510 C   0  0  0  0  0  0  0  0  0  0  0  0
   49.2100   31.6890   40.9240 C   0  0  0  0  0  0  0  0  0  0  0  0
   48.0640   32.4330   41.1020 C   0  0  0  0  0  0  0  0  0  0  0  0
   47.5770   33.1190   40.0480 N   0  0  0  0  0  0  0  0  0  0  0  0
   48.1840   33.0900   38.8440 C   0  0  0  0  0  0  0  0  0  0  0  0
   49.2980   32.3800   38.6300 N   0  0  0  0  0  0  0  0  0  0  0  0
   50.7120   31.0790   39.5760 H   0  0  0  0  0  0  0  0  0  0  0  0
   49.6030   31.1340   41.7750 H   0  0  0  0  0  0  0  0  0  0  0  0
   47.7980   33.6390   37.9930 H   0  0  0  0  0  0  0  0  0  0  0  0
   46.5130   33.6710   45.7210 O   0  0  0  0  0  0  0  0  0  0  0  0
   45.6110   31.2260   45.1840 O   0  0  0  0  0  0  0  0  0  0  0  0
   46.1250   32.1320   46.3000 P   0  0  2  0  0  0  0  0  0  0  0  0
   44.8070   32.3560   47.3690 O   0  0  0  0  0  0  0  0  0  0  0  0
   45.0180   33.0710   48.0140 H   0  0  0  0  0  0  0  0  0  0  0  0
   47.3740   31.4620   47.1650 O   0  0  0  0  0  0  0  0  0  0  0  0
   50.0240   27.9830   46.6170 H   0  0  0  0  0  0  0  0  0  0  0  0
   49.0980   28.3540   46.9480 N   0  0  0  0  0  0  0  0  0  0  0  0
   48.7530   29.6720   46.8760 C   0  0  0  0  0  3  0  0  0  0  0  0
   47.5010   30.0930   47.3380 C   0  0  0  0  0  0  0  0  0  0  0  0
   46.6550   29.1410   47.8540 C   0  0  0  0  0  0  0  0  0  0  0  0
   45.5670   29.6410   48.2330 O   0  0  0  0  0  0  0  0  0  0  0  0
   47.0460   27.8650   47.9010 N   0  0  0  0  0  0  0  0  0  0  0  0
   48.2430   27.4570   47.4600 C   0  0  0  0  0  0  0  0  0  0  0  0
   48.4380   26.2250   47.5810 O   0  0  0  0  0  0  0  0  0  0  0  0
   46.3160   27.2220   48.3170 H   0  0  0  0  0  0  0  0  0  0  0  0
  1  6  1  0  0  0  0
  2  7  1  0  0  0  0
  2  1  1  0  0  0  0
  3  2  1  0  0  0  0
  3  4  1  0  0  0  0
  4 12  1  0  0  0  0
  4  5  1  0  0  0  0
  5 13  1  0  0  0  0
  5 14  1  0  0  0  0
  6 15  1  6  0  0  0
  6  5  1  0  0  0  0
  6 31  1  0  0  0  0
  8  2  1  0  0  0  0
  9  3  1  0  0  0  0
 10  3  1  0  0  0  0
 11  4  1  0  0  0  0
 16  1  1  0  0  0  0
 16 18  1  0  0  0  0
 17 16  1  0  0  0  0
 19 20  1  0  0  0  0
 19 16  1  0  0  0  0
 21 19  1  0  0  0  0
 22 23  1  0  0  0  0
 23 24  2  0  0  0  0
 23 29  1  0  0  0  0
 24 19  1  0  0  0  0
 25 24  1  0  0  0  0
 26 25  2  0  0  0  0
 27 26  1  0  0  0  0
 27 22  2  0  0  0  0
 28 22  1  0  0  0  0
 30 26  1  0  0  0  0
 31 33  1  0  0  0  0
 33 32  2  6  0  0  0
 33 36  1  0  0  0  0
 33 34  1  0  0  0  0
 34 35  1  0  0  0  0
 36 40  1  0  0  0  0
 37 38  1  0  0  0  0
 38 44  1  0  0  0  0
 39 38  1  0  0  0  0
 39 40  2  0  0  0  0
 40 41  1  0  0  0  0
 41 43  1  0  0  0  0
 41 42  2  0  0  0  0
 43 46  1  0  0  0  0
 44 45  2  0  0  0  0
 44 43  1  0  0  0  0
M  END
>  <minimizedAffinity>
-4.61659288

>  <minimizedRMSD>
1.4467026

$$$$
