
 OpenBabel03242516433D

 45 47  0  0  1  0  0  0  0  0999 V2000
   36.3530   28.5430   41.6050 O   0  0  0  0  0  0  0  0  0  0  0  0
   38.1270   27.0950   42.1670 C   0  0  1  0  0  0  0  0  0  0  0  0
   37.6740   28.3170   41.3860 C   0  0  2  0  0  0  0  0  0  0  0  0
   38.4230   29.4040   42.1900 C   0  0  0  0  0  0  0  0  0  0  0  0
   38.3220   29.0330   43.5010 O   0  0  0  0  0  0  0  0  0  0  0  0
   38.1480   27.6810   43.5740 C   0  0  0  0  0  0  0  0  0  0  0  0
   39.1560   26.8080   41.8780 H   0  0  0  0  0  0  0  0  0  0  0  0
   38.0150   28.3280   40.3380 H   0  0  0  0  0  0  0  0  0  0  0  0
   38.0260   30.3930   41.9330 H   0  0  0  0  0  0  0  0  0  0  0  0
   39.4900   29.2830   41.8380 H   0  0  0  0  0  0  0  0  0  0  0  0
   39.0270   27.2400   44.1100 H   0  0  0  0  0  0  0  0  0  0  0  0
   37.2320   27.4330   44.1360 H   0  0  0  0  0  0  0  0  0  0  0  0
   37.2590   26.0390   42.0510 O   0  0  0  0  0  0  0  0  0  0  0  0
   38.4950   21.8680   41.5100 H   0  0  0  0  0  0  0  0  0  0  0  0
   38.0350   22.7100   41.1460 N   0  0  0  0  0  0  0  0  0  0  0  0
   37.8850   23.9150   41.7690 C   0  0  0  0  0  3  0  0  0  0  0  0
   37.2330   24.9940   41.1620 C   0  0  0  0  0  0  0  0  0  0  0  0
   36.7470   24.7690   39.8940 C   0  0  0  0  0  0  0  0  0  0  0  0
   36.1800   25.7930   39.4390 O   0  0  0  0  0  0  0  0  0  0  0  0
   36.9060   23.5750   39.3040 N   0  0  0  0  0  0  0  0  0  0  0  0
   37.5320   22.5540   39.8980 C   0  0  0  0  0  0  0  0  0  0  0  0
   37.6090   21.4910   39.2240 O   0  0  0  0  0  0  0  0  0  0  0  0
   36.4760   23.5710   38.3390 H   0  0  0  0  0  0  0  0  0  0  0  0
   34.3330   29.1330   40.0250 O   0  0  0  0  0  0  0  0  0  0  0  0
   35.6960   29.6340   40.4630 P   0  0  1  0  0  0  0  0  0  0  0  0
   35.6320   31.1340   41.1970 O   0  0  0  0  0  0  0  0  0  0  0  0
   34.7010   31.3640   41.4700 H   0  0  0  0  0  0  0  0  0  0  0  0
   36.7070   29.7160   39.1210 O   0  0  0  0  0  0  0  0  0  0  0  0
   36.8610   31.0250   38.6880 C   0  0  0  0  0  0  0  0  0  0  0  0
   35.9990   31.2700   38.0220 H   0  0  0  0  0  0  0  0  0  0  0  0
   36.7660   31.7490   39.5370 H   0  0  0  0  0  0  0  0  0  0  0  0
   38.1420   31.1940   37.9450 C   0  0  0  0  0  0  0  0  0  0  0  0
   38.7100   30.2260   38.0660 H   0  0  0  0  0  0  0  0  0  0  0  0
   37.9570   31.4160   36.8890 H   0  0  0  0  0  0  0  0  0  0  0  0
   39.2510   33.8630   40.3670 C   0  0  0  0  0  0  0  0  0  0  0  0
   38.4530   32.9030   39.7120 C   0  0  0  0  0  0  0  0  0  0  0  0
   38.9870   32.2050   38.6320 C   0  0  0  0  0  0  0  0  0  0  0  0
   40.2610   32.4800   38.2570 N   0  0  0  0  0  0  0  0  0  0  0  0
   41.0080   33.4080   38.9030 C   0  0  0  0  0  0  0  0  0  0  0  0
   40.5150   34.0900   39.9420 N   0  0  0  0  0  0  0  0  0  0  0  0
   38.7290   34.5750   41.4550 N   0  0  0  0  0  0  0  0  0  0  0  0
   37.4500   32.6910   40.0130 H   0  0  0  0  0  0  0  0  0  0  0  0
   42.0140   33.5820   38.5560 H   0  0  0  0  0  0  0  0  0  0  0  0
   39.2380   35.3770   41.8560 H   0  0  0  0  0  0  0  0  0  0  0  0
   37.8130   34.2990   41.8740 H   0  0  0  0  0  0  0  0  0  0  0  0
  2  7  1  6  0  0  0
  2  6  1  0  0  0  0
  3  8  1  6  0  0  0
  3  1  1  0  0  0  0
  3  2  1  0  0  0  0
  3  4  1  0  0  0  0
  4  5  1  0  0  0  0
  5  6  1  0  0  0  0
  6 11  1  0  0  0  0
  6 12  1  0  0  0  0
  9  4  1  0  0  0  0
 10  4  1  0  0  0  0
 13  2  1  0  0  0  0
 15 14  1  0  0  0  0
 15 16  1  0  0  0  0
 17 16  2  0  0  0  0
 17 13  1  0  0  0  0
 18 17  1  0  0  0  0
 19 18  2  0  0  0  0
 20 18  1  0  0  0  0
 20 21  1  0  0  0  0
 21 15  1  0  0  0  0
 22 21  2  0  0  0  0
 23 20  1  0  0  0  0
 25 24  2  6  0  0  0
 25 26  1  0  0  0  0
 25  1  1  0  0  0  0
 26 27  1  0  0  0  0
 28 25  1  0  0  0  0
 29 28  1  0  0  0  0
 29 31  1  0  0  0  0
 30 29  1  0  0  0  0
 32 33  1  0  0  0  0
 32 37  1  0  0  0  0
 32 29  1  0  0  0  0
 34 32  1  0  0  0  0
 35 41  1  0  0  0  0
 36 42  1  0  0  0  0
 36 35  2  0  0  0  0
 37 36  1  0  0  0  0
 38 37  2  0  0  0  0
 38 39  1  0  0  0  0
 39 40  2  0  0  0  0
 40 35  1  0  0  0  0
 41 44  1  0  0  0  0
 41 45  1  0  0  0  0
 43 39  1  0  0  0  0
M  END
>  <minimizedAffinity>
-6.26465034

$$$$

 OpenBabel03242516433D

 45 47  0  0  1  0  0  0  0  0999 V2000
   35.6720   26.6970   38.3710 O   0  0  0  0  0  0  0  0  0  0  0  0
   35.5740   28.9200   37.5930 C   0  0  1  0  0  0  0  0  0  0  0  0
   35.7450   27.4510   37.2450 C   0  0  2  0  0  0  0  0  0  0  0  0
   34.4080   27.2250   36.5030 C   0  0  0  0  0  0  0  0  0  0  0  0
   33.4690   27.9230   37.2070 O   0  0  0  0  0  0  0  0  0  0  0  0
   34.0770   28.9450   37.8770 C   0  0  0  0  0  0  0  0  0  0  0  0
   35.7870   29.5550   36.7110 H   0  0  0  0  0  0  0  0  0  0  0  0
   36.5880   27.2490   36.5630 H   0  0  0  0  0  0  0  0  0  0  0  0
   34.2270   26.1500   36.3850 H   0  0  0  0  0  0  0  0  0  0  0  0
   34.5890   27.7240   35.5050 H   0  0  0  0  0  0  0  0  0  0  0  0
   33.6750   29.9130   37.4850 H   0  0  0  0  0  0  0  0  0  0  0  0
   33.8640   28.8870   38.9580 H   0  0  0  0  0  0  0  0  0  0  0  0
   36.3220   29.2980   38.6770 O   0  0  0  0  0  0  0  0  0  0  0  0
   37.8790   33.2440   37.5680 H   0  0  0  0  0  0  0  0  0  0  0  0
   37.5010   32.6090   38.2800 N   0  0  0  0  0  0  0  0  0  0  0  0
   37.1140   31.3100   38.1190 C   0  0  0  0  0  3  0  0  0  0  0  0
   36.6110   30.5430   39.1770 C   0  0  0  0  0  0  0  0  0  0  0  0
   36.5270   31.1790   40.3950 C   0  0  0  0  0  0  0  0  0  0  0  0
   36.0650   30.4100   41.2740 O   0  0  0  0  0  0  0  0  0  0  0  0
   36.9140   32.4570   40.5270 N   0  0  0  0  0  0  0  0  0  0  0  0
   37.3930   33.1740   39.5060 C   0  0  0  0  0  0  0  0  0  0  0  0
   37.7180   34.3630   39.7760 O   0  0  0  0  0  0  0  0  0  0  0  0
   36.7840   32.7880   41.5210 H   0  0  0  0  0  0  0  0  0  0  0  0
   37.1170   24.9450   37.0420 O   0  0  0  0  0  0  0  0  0  0  0  0
   36.9110   25.5190   38.4310 P   0  0  1  0  0  0  0  0  0  0  0  0
   38.2760   26.2720   39.0320 O   0  0  0  0  0  0  0  0  0  0  0  0
   38.9350   26.4600   38.3090 H   0  0  0  0  0  0  0  0  0  0  0  0
   36.4560   24.2800   39.4740 O   0  0  0  0  0  0  0  0  0  0  0  0
   37.3570   24.1490   40.5200 C   0  0  0  0  0  0  0  0  0  0  0  0
   37.6430   23.0710   40.5940 H   0  0  0  0  0  0  0  0  0  0  0  0
   38.3210   24.6730   40.2960 H   0  0  0  0  0  0  0  0  0  0  0  0
   36.7540   24.6030   41.8050 C   0  0  0  0  0  0  0  0  0  0  0  0
   35.7820   25.1120   41.5380 H   0  0  0  0  0  0  0  0  0  0  0  0
   36.5860   23.7590   42.4800 H   0  0  0  0  0  0  0  0  0  0  0  0
   37.7550   27.9030   43.3310 C   0  0  0  0  0  0  0  0  0  0  0  0
   36.9700   26.8730   42.7760 C   0  0  0  0  0  0  0  0  0  0  0  0
   37.5860   25.6860   42.3910 C   0  0  0  0  0  0  0  0  0  0  0  0
   38.9260   25.5710   42.5720 N   0  0  0  0  0  0  0  0  0  0  0  0
   39.6600   26.5750   43.1090 C   0  0  0  0  0  0  0  0  0  0  0  0
   39.0870   27.7240   43.4840 N   0  0  0  0  0  0  0  0  0  0  0  0
   37.1510   29.1040   43.7230 N   0  0  0  0  0  0  0  0  0  0  0  0
   35.9140   26.9700   42.6360 H   0  0  0  0  0  0  0  0  0  0  0  0
   40.7210   26.4220   43.2260 H   0  0  0  0  0  0  0  0  0  0  0  0
   37.7210   29.9190   43.9970 H   0  0  0  0  0  0  0  0  0  0  0  0
   36.1100   29.1880   43.7420 H   0  0  0  0  0  0  0  0  0  0  0  0
  1 25  1  0  0  0  0
  2  7  1  6  0  0  0
  2  6  1  0  0  0  0
  2 13  1  0  0  0  0
  3  8  1  6  0  0  0
  3  2  1  0  0  0  0
  3  1  1  0  0  0  0
  4  5  1  0  0  0  0
  4  3  1  0  0  0  0
  5  6  1  0  0  0  0
  6 12  1  0  0  0  0
  9  4  1  0  0  0  0
 10  4  1  0  0  0  0
 11  6  1  0  0  0  0
 13 17  1  0  0  0  0
 14 15  1  0  0  0  0
 15 21  1  0  0  0  0
 16 15  1  0  0  0  0
 16 17  2  0  0  0  0
 17 18  1  0  0  0  0
 18 20  1  0  0  0  0
 18 19  2  0  0  0  0
 20 23  1  0  0  0  0
 21 22  2  0  0  0  0
 21 20  1  0  0  0  0
 25 24  2  6  0  0  0
 25 26  1  0  0  0  0
 25 28  1  0  0  0  0
 27 26  1  0  0  0  0
 28 29  1  0  0  0  0
 29 30  1  0  0  0  0
 29 32  1  0  0  0  0
 31 29  1  0  0  0  0
 32 37  1  0  0  0  0
 32 34  1  0  0  0  0
 33 32  1  0  0  0  0
 35 40  1  0  0  0  0
 35 41  1  0  0  0  0
 36 35  2  0  0  0  0
 37 38  2  0  0  0  0
 37 36  1  0  0  0  0
 38 39  1  0  0  0  0
 39 43  1  0  0  0  0
 39 40  2  0  0  0  0
 41 45  1  0  0  0  0
 41 44  1  0  0  0  0
 42 36  1  0  0  0  0
M  END
>  <minimizedAffinity>
-5.92961407

$$$$

 OpenBabel03242516433D

 45 47  0  0  1  0  0  0  0  0999 V2000
   38.5100   27.2810   42.3310 O   0  0  0  0  0  0  0  0  0  0  0  0
   40.5230   28.3130   42.9940 C   0  0  1  0  0  0  0  0  0  0  0  0
   39.2830   27.5420   43.4160 C   0  0  2  0  0  0  0  0  0  0  0  0
   39.9520   26.1990   43.7850 C   0  0  0  0  0  0  0  0  0  0  0  0
   40.9160   25.9910   42.8390 O   0  0  0  0  0  0  0  0  0  0  0  0
   41.3090   27.1920   42.3250 C   0  0  0  0  0  0  0  0  0  0  0  0
   41.0810   28.6670   43.8830 H   0  0  0  0  0  0  0  0  0  0  0  0
   38.7760   27.9620   44.3000 H   0  0  0  0  0  0  0  0  0  0  0  0
   39.1880   25.4190   43.8810 H   0  0  0  0  0  0  0  0  0  0  0  0
   40.4360   26.4270   44.7810 H   0  0  0  0  0  0  0  0  0  0  0  0
   42.3900   27.3440   42.5700 H   0  0  0  0  0  0  0  0  0  0  0  0
   41.1900   27.2070   41.2280 H   0  0  0  0  0  0  0  0  0  0  0  0
   40.2400   29.3430   42.1350 O   0  0  0  0  0  0  0  0  0  0  0  0
   42.6690   32.6690   43.6390 H   0  0  0  0  0  0  0  0  0  0  0  0
   42.2750   32.1460   42.8480 N   0  0  0  0  0  0  0  0  0  0  0  0
   41.4790   31.0390   42.8940 C   0  0  0  0  0  3  0  0  0  0  0  0
   41.0020   30.4130   41.7360 C   0  0  0  0  0  0  0  0  0  0  0  0
   41.3850   30.9810   40.5420 C   0  0  0  0  0  0  0  0  0  0  0  0
   40.9080   30.3490   39.5680 O   0  0  0  0  0  0  0  0  0  0  0  0
   42.1690   32.0700   40.5250 N   0  0  0  0  0  0  0  0  0  0  0  0
   42.6150   32.6560   41.6400 C   0  0  0  0  0  0  0  0  0  0  0  0
   43.3430   33.6710   41.4730 O   0  0  0  0  0  0  0  0  0  0  0  0
   42.3670   32.3750   39.5330 H   0  0  0  0  0  0  0  0  0  0  0  0
   36.1650   27.2330   43.5240 O   0  0  0  0  0  0  0  0  0  0  0  0
   36.9570   27.9850   42.4720 P   0  0  1  0  0  0  0  0  0  0  0  0
   37.1810   29.5960   42.8560 O   0  0  0  0  0  0  0  0  0  0  0  0
   36.9920   29.7690   43.8190 H   0  0  0  0  0  0  0  0  0  0  0  0
   36.1550   27.8720   40.9980 O   0  0  0  0  0  0  0  0  0  0  0  0
   35.4430   29.0310   40.7240 C   0  0  0  0  0  0  0  0  0  0  0  0
   34.3610   28.8200   40.9080 H   0  0  0  0  0  0  0  0  0  0  0  0
   35.6910   29.8440   41.4530 H   0  0  0  0  0  0  0  0  0  0  0  0
   35.6430   29.4600   39.3110 C   0  0  0  0  0  0  0  0  0  0  0  0
   36.1720   28.6080   38.7920 H   0  0  0  0  0  0  0  0  0  0  0  0
   34.6870   29.6850   38.8300 H   0  0  0  0  0  0  0  0  0  0  0  0
   38.1840   31.9250   38.0120 C   0  0  0  0  0  0  0  0  0  0  0  0
   37.2570   30.8640   38.0610 C   0  0  0  0  0  0  0  0  0  0  0  0
   36.6190   30.5800   39.2650 C   0  0  0  0  0  0  0  0  0  0  0  0
   36.9170   31.3440   40.3450 N   0  0  0  0  0  0  0  0  0  0  0  0
   37.8120   32.3590   40.2730 C   0  0  0  0  0  0  0  0  0  0  0  0
   38.4370   32.6480   39.1260 N   0  0  0  0  0  0  0  0  0  0  0  0
   38.8350   32.2240   36.8090 N   0  0  0  0  0  0  0  0  0  0  0  0
   37.0260   30.2660   37.2050 H   0  0  0  0  0  0  0  0  0  0  0  0
   38.0060   32.9300   41.1670 H   0  0  0  0  0  0  0  0  0  0  0  0
   39.6170   32.8970   36.7820 H   0  0  0  0  0  0  0  0  0  0  0  0
   38.5350   31.7660   35.9190 H   0  0  0  0  0  0  0  0  0  0  0  0
  1 25  1  0  0  0  0
  1  3  1  0  0  0  0
  2  3  1  0  0  0  0
  2  7  1  1  0  0  0
  3  4  1  0  0  0  0
  3  8  1  1  0  0  0
  4  9  1  0  0  0  0
  4 10  1  0  0  0  0
  5  4  1  0  0  0  0
  6 11  1  0  0  0  0
  6  5  1  0  0  0  0
  6  2  1  0  0  0  0
 12  6  1  0  0  0  0
 13  2  1  0  0  0  0
 15 16  1  0  0  0  0
 15 14  1  0  0  0  0
 17 13  1  0  0  0  0
 17 16  2  0  0  0  0
 18 17  1  0  0  0  0
 19 18  2  0  0  0  0
 20 18  1  0  0  0  0
 20 21  1  0  0  0  0
 21 15  1  0  0  0  0
 22 21  2  0  0  0  0
 23 20  1  0  0  0  0
 25 26  1  0  0  0  0
 25 24  2  1  0  0  0
 26 27  1  0  0  0  0
 28 25  1  0  0  0  0
 29 30  1  0  0  0  0
 29 28  1  0  0  0  0
 29 31  1  0  0  0  0
 32 29  1  0  0  0  0
 33 32  1  0  0  0  0
 34 32  1  0  0  0  0
 35 36  2  0  0  0  0
 35 40  1  0  0  0  0
 36 37  1  0  0  0  0
 37 32  1  0  0  0  0
 37 38  2  0  0  0  0
 39 38  1  0  0  0  0
 39 43  1  0  0  0  0
 40 39  2  0  0  0  0
 41 35  1  0  0  0  0
 42 36  1  0  0  0  0
 44 41  1  0  0  0  0
 45 41  1  0  0  0  0
M  END
>  <minimizedAffinity>
-5.74734354

$$$$

 OpenBabel03242516433D

 45 47  0  0  1  0  0  0  0  0999 V2000
   37.0610   28.8070   41.2010 O   0  0  0  0  0  0  0  0  0  0  0  0
   38.6100   29.4180   42.8690 C   0  0  1  0  0  0  0  0  0  0  0  0
   37.1630   29.1120   42.5200 C   0  0  2  0  0  0  0  0  0  0  0  0
   37.0150   27.7710   43.2720 C   0  0  0  0  0  0  0  0  0  0  0  0
   38.1920   27.1050   43.0800 O   0  0  0  0  0  0  0  0  0  0  0  0
   39.1870   28.0080   42.8390 C   0  0  0  0  0  0  0  0  0  0  0  0
   38.6840   29.8190   43.8990 H   0  0  0  0  0  0  0  0  0  0  0  0
   36.4430   29.8450   42.9200 H   0  0  0  0  0  0  0  0  0  0  0  0
   36.1060   27.2570   42.9380 H   0  0  0  0  0  0  0  0  0  0  0  0
   36.9310   28.0980   44.3510 H   0  0  0  0  0  0  0  0  0  0  0  0
   39.9390   27.9330   43.6640 H   0  0  0  0  0  0  0  0  0  0  0  0
   39.6900   27.7910   41.8820 H   0  0  0  0  0  0  0  0  0  0  0  0
   39.2100   30.2520   41.9610 O   0  0  0  0  0  0  0  0  0  0  0  0
   42.5590   32.5330   43.6350 H   0  0  0  0  0  0  0  0  0  0  0  0
   42.1870   31.9080   42.9110 N   0  0  0  0  0  0  0  0  0  0  0  0
   40.9200   31.4110   42.8080 C   0  0  0  0  0  3  0  0  0  0  0  0
   40.5330   30.5610   41.7660 C   0  0  0  0  0  0  0  0  0  0  0  0
   41.5090   30.2520   40.8460 C   0  0  0  0  0  0  0  0  0  0  0  0
   41.0650   29.4860   39.9560 O   0  0  0  0  0  0  0  0  0  0  0  0
   42.7480   30.7530   40.9700 N   0  0  0  0  0  0  0  0  0  0  0  0
   43.1010   31.5650   41.9720 C   0  0  0  0  0  0  0  0  0  0  0  0
   44.2980   31.9600   41.9620 O   0  0  0  0  0  0  0  0  0  0  0  0
   43.3690   30.4180   40.1850 H   0  0  0  0  0  0  0  0  0  0  0  0
   34.5750   28.9400   40.3470 O   0  0  0  0  0  0  0  0  0  0  0  0
   35.8590   29.7430   40.4220 P   0  0  1  0  0  0  0  0  0  0  0  0
   35.6920   31.1560   41.3000 O   0  0  0  0  0  0  0  0  0  0  0  0
   34.8630   31.1420   41.8540 H   0  0  0  0  0  0  0  0  0  0  0  0
   36.3640   30.1170   38.8620 O   0  0  0  0  0  0  0  0  0  0  0  0
   37.7460   30.2130   38.7910 C   0  0  0  0  0  0  0  0  0  0  0  0
   38.1310   30.3950   39.8240 H   0  0  0  0  0  0  0  0  0  0  0  0
   38.2080   29.2360   38.4950 H   0  0  0  0  0  0  0  0  0  0  0  0
   38.1580   31.3270   37.8900 C   0  0  0  0  0  0  0  0  0  0  0  0
   38.8370   30.8710   37.1110 H   0  0  0  0  0  0  0  0  0  0  0  0
   37.2870   31.8010   37.4290 H   0  0  0  0  0  0  0  0  0  0  0  0
   39.3300   33.8560   40.4290 C   0  0  0  0  0  0  0  0  0  0  0  0
   38.5050   32.9600   39.7210 C   0  0  0  0  0  0  0  0  0  0  0  0
   39.0330   32.2700   38.6340 C   0  0  0  0  0  0  0  0  0  0  0  0
   40.3300   32.4910   38.3030 N   0  0  0  0  0  0  0  0  0  0  0  0
   41.1040   33.3570   38.9990 C   0  0  0  0  0  0  0  0  0  0  0  0
   40.6160   34.0310   40.0460 N   0  0  0  0  0  0  0  0  0  0  0  0
   38.8150   34.5590   41.5250 N   0  0  0  0  0  0  0  0  0  0  0  0
   37.4830   32.7900   39.9870 H   0  0  0  0  0  0  0  0  0  0  0  0
   42.1280   33.4890   38.6860 H   0  0  0  0  0  0  0  0  0  0  0  0
   39.3520   35.3210   41.9660 H   0  0  0  0  0  0  0  0  0  0  0  0
   37.8740   34.3180   41.9100 H   0  0  0  0  0  0  0  0  0  0  0  0
  1  3  1  0  0  0  0
  2  7  1  1  0  0  0
  3  2  1  0  0  0  0
  3  8  1  1  0  0  0
  3  4  1  0  0  0  0
  4 10  1  0  0  0  0
  5  4  1  0  0  0  0
  6  2  1  0  0  0  0
  6  5  1  0  0  0  0
  6 11  1  0  0  0  0
  9  4  1  0  0  0  0
 12  6  1  0  0  0  0
 13  2  1  0  0  0  0
 15 14  1  0  0  0  0
 16 15  1  0  0  0  0
 17 13  1  0  0  0  0
 17 16  2  0  0  0  0
 18 20  1  0  0  0  0
 18 17  1  0  0  0  0
 19 18  2  0  0  0  0
 20 21  1  0  0  0  0
 21 15  1  0  0  0  0
 22 21  2  0  0  0  0
 23 20  1  0  0  0  0
 25 24  2  6  0  0  0
 25  1  1  0  0  0  0
 25 26  1  0  0  0  0
 26 27  1  0  0  0  0
 28 25  1  0  0  0  0
 29 28  1  0  0  0  0
 29 30  1  0  0  0  0
 31 29  1  0  0  0  0
 32 37  1  0  0  0  0
 32 29  1  0  0  0  0
 33 32  1  0  0  0  0
 34 32  1  0  0  0  0
 35 41  1  0  0  0  0
 36 42  1  0  0  0  0
 36 35  2  0  0  0  0
 37 36  1  0  0  0  0
 38 37  2  0  0  0  0
 38 39  1  0  0  0  0
 39 40  2  0  0  0  0
 40 35  1  0  0  0  0
 41 45  1  0  0  0  0
 41 44  1  0  0  0  0
 43 39  1  0  0  0  0
M  END
>  <minimizedAffinity>
-5.70100069

$$$$

 OpenBabel03242516433D

 45 47  0  0  1  0  0  0  0  0999 V2000
   36.8700   28.5010   40.5680 O   0  0  0  0  0  0  0  0  0  0  0  0
   37.5500   27.0720   38.8200 C   0  0  1  0  0  0  0  0  0  0  0  0
   37.9690   27.9990   39.9490 C   0  0  2  0  0  0  0  0  0  0  0  0
   38.5500   26.9440   40.9190 C   0  0  0  0  0  0  0  0  0  0  0  0
   37.7110   25.8690   40.8450 O   0  0  0  0  0  0  0  0  0  0  0  0
   37.0840   25.8700   39.6320 C   0  0  0  0  0  0  0  0  0  0  0  0
   38.4270   26.7810   38.2110 H   0  0  0  0  0  0  0  0  0  0  0  0
   38.7550   28.7180   39.6670 H   0  0  0  0  0  0  0  0  0  0  0  0
   38.6830   27.3890   41.9120 H   0  0  0  0  0  0  0  0  0  0  0  0
   39.5430   26.6900   40.4440 H   0  0  0  0  0  0  0  0  0  0  0  0
   37.3890   24.9480   39.0760 H   0  0  0  0  0  0  0  0  0  0  0  0
   35.9880   25.8600   39.7580 H   0  0  0  0  0  0  0  0  0  0  0  0
   36.5520   27.6010   38.0430 O   0  0  0  0  0  0  0  0  0  0  0  0
   36.5820   27.3020   33.6700 H   0  0  0  0  0  0  0  0  0  0  0  0
   36.6080   27.8780   34.5180 N   0  0  0  0  0  0  0  0  0  0  0  0
   36.5670   27.4560   35.8150 C   0  0  0  0  0  3  0  0  0  0  0  0
   36.6110   28.3480   36.8940 C   0  0  0  0  0  0  0  0  0  0  0  0
   36.6960   29.6830   36.5680 C   0  0  0  0  0  0  0  0  0  0  0  0
   36.7280   30.3970   37.6000 O   0  0  0  0  0  0  0  0  0  0  0  0
   36.7340   30.0720   35.2850 N   0  0  0  0  0  0  0  0  0  0  0  0
   36.6920   29.2070   34.2670 C   0  0  0  0  0  0  0  0  0  0  0  0
   36.7360   29.7140   33.1140 O   0  0  0  0  0  0  0  0  0  0  0  0
   36.7980   31.1230   35.2130 H   0  0  0  0  0  0  0  0  0  0  0  0
   36.2460   31.0090   41.0600 O   0  0  0  0  0  0  0  0  0  0  0  0
   37.2290   29.9220   41.4500 P   0  0  1  0  0  0  0  0  0  0  0  0
   37.1520   29.5270   43.0720 O   0  0  0  0  0  0  0  0  0  0  0  0
   36.3130   29.8690   43.4880 H   0  0  0  0  0  0  0  0  0  0  0  0
   38.7880   30.4330   41.0770 O   0  0  0  0  0  0  0  0  0  0  0  0
   38.8110   31.7840   40.7610 C   0  0  0  0  0  0  0  0  0  0  0  0
   37.7870   32.1950   40.9350 H   0  0  0  0  0  0  0  0  0  0  0  0
   39.4600   32.3570   41.4720 H   0  0  0  0  0  0  0  0  0  0  0  0
   39.2090   31.9930   39.3400 C   0  0  0  0  0  0  0  0  0  0  0  0
   39.5460   30.9870   38.9530 H   0  0  0  0  0  0  0  0  0  0  0  0
   38.3730   32.3840   38.7520 H   0  0  0  0  0  0  0  0  0  0  0  0
   42.1340   33.9470   37.9820 C   0  0  0  0  0  0  0  0  0  0  0  0
   40.9740   33.1480   38.0410 C   0  0  0  0  0  0  0  0  0  0  0  0
   40.4310   32.8360   39.2840 C   0  0  0  0  0  0  0  0  0  0  0  0
   41.0450   33.3200   40.3920 N   0  0  0  0  0  0  0  0  0  0  0  0
   42.1590   34.0870   40.3100 C   0  0  0  0  0  0  0  0  0  0  0  0
   42.6980   34.3980   39.1260 N   0  0  0  0  0  0  0  0  0  0  0  0
   42.6930   34.2700   36.7400 N   0  0  0  0  0  0  0  0  0  0  0  0
   40.4950   32.7690   37.1630 H   0  0  0  0  0  0  0  0  0  0  0  0
   42.6010   34.4420   41.2280 H   0  0  0  0  0  0  0  0  0  0  0  0
   43.6150   34.7290   36.6770 H   0  0  0  0  0  0  0  0  0  0  0  0
   42.1800   34.0480   35.8570 H   0  0  0  0  0  0  0  0  0  0  0  0
  1 25  1  0  0  0  0
  2  7  1  6  0  0  0
  2  6  1  0  0  0  0
  2  3  1  0  0  0  0
  3  8  1  6  0  0  0
  3  1  1  0  0  0  0
  3  4  1  0  0  0  0
  4  9  1  0  0  0  0
  5  4  1  0  0  0  0
  6 12  1  0  0  0  0
  6  5  1  0  0  0  0
 10  4  1  0  0  0  0
 11  6  1  0  0  0  0
 13  2  1  0  0  0  0
 14 15  1  0  0  0  0
 15 16  1  0  0  0  0
 16 17  2  0  0  0  0
 17 13  1  0  0  0  0
 18 17  1  0  0  0  0
 18 19  2  0  0  0  0
 20 18  1  0  0  0  0
 21 15  1  0  0  0  0
 21 20  1  0  0  0  0
 22 21  2  0  0  0  0
 23 20  1  0  0  0  0
 25 24  2  6  0  0  0
 25 26  1  0  0  0  0
 26 27  1  0  0  0  0
 28 25  1  0  0  0  0
 29 30  1  0  0  0  0
 29 28  1  0  0  0  0
 29 31  1  0  0  0  0
 32 29  1  0  0  0  0
 33 32  1  0  0  0  0
 34 32  1  0  0  0  0
 35 36  2  0  0  0  0
 35 40  1  0  0  0  0
 36 37  1  0  0  0  0
 37 32  1  0  0  0  0
 37 38  2  0  0  0  0
 39 38  1  0  0  0  0
 39 43  1  0  0  0  0
 40 39  2  0  0  0  0
 41 35  1  0  0  0  0
 42 36  1  0  0  0  0
 44 41  1  0  0  0  0
 45 41  1  0  0  0  0
M  END
>  <minimizedAffinity>
-5.6986618

$$$$

 OpenBabel03242516433D

 45 47  0  0  1  0  0  0  0  0999 V2000
   36.9020   29.8140   39.4520 O   0  0  0  0  0  0  0  0  0  0  0  0
   38.6340   30.0790   37.8750 C   0  0  1  0  0  0  0  0  0  0  0  0
   38.1340   29.3550   39.1140 C   0  0  2  0  0  0  0  0  0  0  0  0
   37.9040   27.9570   38.4970 C   0  0  0  0  0  0  0  0  0  0  0  0
   37.3740   28.1800   37.2570 O   0  0  0  0  0  0  0  0  0  0  0  0
   37.7620   29.4130   36.8180 C   0  0  0  0  0  0  0  0  0  0  0  0
   39.6950   29.8280   37.6800 H   0  0  0  0  0  0  0  0  0  0  0  0
   38.8810   29.2870   39.9220 H   0  0  0  0  0  0  0  0  0  0  0  0
   37.3030   27.3450   39.1800 H   0  0  0  0  0  0  0  0  0  0  0  0
   38.9550   27.5530   38.3970 H   0  0  0  0  0  0  0  0  0  0  0  0
   38.3870   29.2790   35.8980 H   0  0  0  0  0  0  0  0  0  0  0  0
   36.8840   30.0300   36.5610 H   0  0  0  0  0  0  0  0  0  0  0  0
   38.4410   31.4340   37.9380 O   0  0  0  0  0  0  0  0  0  0  0  0
   42.2350   33.3320   39.0430 H   0  0  0  0  0  0  0  0  0  0  0  0
   41.2200   33.2460   39.1640 N   0  0  0  0  0  0  0  0  0  0  0  0
   40.3700   32.4050   38.5060 C   0  0  0  0  0  3  0  0  0  0  0  0
   38.9940   32.3810   38.7630 C   0  0  0  0  0  0  0  0  0  0  0  0
   38.5450   33.2600   39.7230 C   0  0  0  0  0  0  0  0  0  0  0  0
   37.3030   33.1620   39.8790 O   0  0  0  0  0  0  0  0  0  0  0  0
   39.4020   34.0750   40.3560 N   0  0  0  0  0  0  0  0  0  0  0  0
   40.7130   34.0850   40.0980 C   0  0  0  0  0  0  0  0  0  0  0  0
   41.3980   34.9040   40.7690 O   0  0  0  0  0  0  0  0  0  0  0  0
   38.8950   34.6810   41.0580 H   0  0  0  0  0  0  0  0  0  0  0  0
   38.0440   30.1660   41.7970 O   0  0  0  0  0  0  0  0  0  0  0  0
   36.6990   29.9000   41.1490 P   0  0  1  0  0  0  0  0  0  0  0  0
   35.5830   31.1060   41.4490 O   0  0  0  0  0  0  0  0  0  0  0  0
   36.0250   31.9340   41.7860 H   0  0  0  0  0  0  0  0  0  0  0  0
   36.0980   28.4350   41.7150 O   0  0  0  0  0  0  0  0  0  0  0  0
   36.8890   27.9280   42.7360 C   0  0  0  0  0  0  0  0  0  0  0  0
   37.9080   28.3740   42.6340 H   0  0  0  0  0  0  0  0  0  0  0  0
   36.5350   28.2820   43.7390 H   0  0  0  0  0  0  0  0  0  0  0  0
   36.9730   26.4420   42.6600 C   0  0  0  0  0  0  0  0  0  0  0  0
   36.4290   26.0460   43.5660 H   0  0  0  0  0  0  0  0  0  0  0  0
   36.5240   26.0710   41.7340 H   0  0  0  0  0  0  0  0  0  0  0  0
   40.6230   26.5110   43.6040 C   0  0  0  0  0  0  0  0  0  0  0  0
   39.2860   26.9140   43.4130 C   0  0  0  0  0  0  0  0  0  0  0  0
   38.3820   26.0130   42.8590 C   0  0  0  0  0  0  0  0  0  0  0  0
   38.8300   24.7760   42.5260 N   0  0  0  0  0  0  0  0  0  0  0  0
   40.1210   24.4120   42.7190 C   0  0  0  0  0  0  0  0  0  0  0  0
   41.0060   25.2630   43.2500 N   0  0  0  0  0  0  0  0  0  0  0  0
   41.5460   27.4060   44.1600 N   0  0  0  0  0  0  0  0  0  0  0  0
   38.9380   27.8900   43.6780 H   0  0  0  0  0  0  0  0  0  0  0  0
   40.4160   23.4150   42.4340 H   0  0  0  0  0  0  0  0  0  0  0  0
   42.5530   27.1860   44.1760 H   0  0  0  0  0  0  0  0  0  0  0  0
   41.2220   28.3120   44.5670 H   0  0  0  0  0  0  0  0  0  0  0  0
  1 25  1  0  0  0  0
  2  7  1  6  0  0  0
  2 13  1  0  0  0  0
  2  3  1  0  0  0  0
  3  1  1  0  0  0  0
  3  8  1  1  0  0  0
  4  3  1  0  0  0  0
  4  9  1  0  0  0  0
  5  4  1  0  0  0  0
  6  5  1  0  0  0  0
  6  2  1  0  0  0  0
 10  4  1  0  0  0  0
 11  6  1  0  0  0  0
 12  6  1  0  0  0  0
 13 17  1  0  0  0  0
 14 15  1  0  0  0  0
 15 21  1  0  0  0  0
 16 17  2  0  0  0  0
 16 15  1  0  0  0  0
 17 18  1  0  0  0  0
 18 19  2  0  0  0  0
 18 20  1  0  0  0  0
 20 23  1  0  0  0  0
 21 20  1  0  0  0  0
 21 22  2  0  0  0  0
 25 26  1  0  0  0  0
 25 28  1  0  0  0  0
 25 24  2  1  0  0  0
 26 27  1  0  0  0  0
 28 29  1  0  0  0  0
 29 31  1  0  0  0  0
 30 29  1  0  0  0  0
 32 29  1  0  0  0  0
 32 37  1  0  0  0  0
 32 33  1  0  0  0  0
 34 32  1  0  0  0  0
 35 41  1  0  0  0  0
 36 35  1  0  0  0  0
 36 42  1  0  0  0  0
 37 36  2  0  0  0  0
 38 39  2  0  0  0  0
 38 37  1  0  0  0  0
 39 40  1  0  0  0  0
 40 35  2  0  0  0  0
 41 44  1  0  0  0  0
 41 45  1  0  0  0  0
 43 39  1  0  0  0  0
M  END
>  <minimizedAffinity>
-5.67132187

$$$$

 OpenBabel03242516433D

 45 47  0  0  1  0  0  0  0  0999 V2000
   41.9410   31.5970   38.7610 O   0  0  0  0  0  0  0  0  0  0  0  0
   41.0540   29.5180   39.4290 C   0  0  1  0  0  0  0  0  0  0  0  0
   41.3190   30.4870   38.2890 C   0  0  2  0  0  0  0  0  0  0  0  0
   42.4080   29.6830   37.5420 C   0  0  0  0  0  0  0  0  0  0  0  0
   43.1950   29.1320   38.5130 O   0  0  0  0  0  0  0  0  0  0  0  0
   42.4670   28.9980   39.6600 C   0  0  0  0  0  0  0  0  0  0  0  0
   40.4110   28.6830   39.0880 H   0  0  0  0  0  0  0  0  0  0  0  0
   40.4520   30.6440   37.6260 H   0  0  0  0  0  0  0  0  0  0  0  0
   42.9130   30.3310   36.8160 H   0  0  0  0  0  0  0  0  0  0  0  0
   41.8110   28.8740   37.0270 H   0  0  0  0  0  0  0  0  0  0  0  0
   42.3910   27.9080   39.9040 H   0  0  0  0  0  0  0  0  0  0  0  0
   42.9620   29.5140   40.5000 H   0  0  0  0  0  0  0  0  0  0  0  0
   40.5320   30.1330   40.5370 O   0  0  0  0  0  0  0  0  0  0  0  0
   37.5640   26.9990   41.3050 H   0  0  0  0  0  0  0  0  0  0  0  0
   38.0530   27.8490   41.6070 N   0  0  0  0  0  0  0  0  0  0  0  0
   39.0190   28.5400   40.9350 C   0  0  0  0  0  3  0  0  0  0  0  0
   39.6140   29.6940   41.4580 C   0  0  0  0  0  0  0  0  0  0  0  0
   39.1670   30.0930   42.6970 C   0  0  0  0  0  0  0  0  0  0  0  0
   39.7610   31.1320   43.0770 O   0  0  0  0  0  0  0  0  0  0  0  0
   38.2170   29.3960   43.3380 N   0  0  0  0  0  0  0  0  0  0  0  0
   37.6590   28.2960   42.8230 C   0  0  0  0  0  0  0  0  0  0  0  0
   36.7780   27.7420   43.5370 O   0  0  0  0  0  0  0  0  0  0  0  0
   37.9920   29.8360   44.2710 H   0  0  0  0  0  0  0  0  0  0  0  0
   42.7520   33.5730   37.2230 O   0  0  0  0  0  0  0  0  0  0  0  0
   41.5100   32.9950   37.8730 P   0  0  1  0  0  0  0  0  0  0  0  0
   40.3500   32.5320   36.7620 O   0  0  0  0  0  0  0  0  0  0  0  0
   40.7340   32.4630   35.8450 H   0  0  0  0  0  0  0  0  0  0  0  0
   40.8530   34.1400   38.9160 O   0  0  0  0  0  0  0  0  0  0  0  0
   40.1500   33.5350   39.9470 C   0  0  0  0  0  0  0  0  0  0  0  0
   40.2990   32.4310   39.8630 H   0  0  0  0  0  0  0  0  0  0  0  0
   40.5880   33.7940   40.9460 H   0  0  0  0  0  0  0  0  0  0  0  0
   38.6980   33.8600   39.8670 C   0  0  0  0  0  0  0  0  0  0  0  0
   38.3700   34.1140   40.9170 H   0  0  0  0  0  0  0  0  0  0  0  0
   38.5200   34.6960   39.1840 H   0  0  0  0  0  0  0  0  0  0  0  0
   36.3500   30.9260   40.1700 C   0  0  0  0  0  0  0  0  0  0  0  0
   37.0790   32.0900   40.4860 C   0  0  0  0  0  0  0  0  0  0  0  0
   37.9310   32.6340   39.5290 C   0  0  0  0  0  0  0  0  0  0  0  0
   38.0200   32.0160   38.3240 N   0  0  0  0  0  0  0  0  0  0  0  0
   37.3080   30.8980   38.0440 C   0  0  0  0  0  0  0  0  0  0  0  0
   36.4850   30.3590   38.9490 N   0  0  0  0  0  0  0  0  0  0  0  0
   35.4880   30.3660   41.1210 N   0  0  0  0  0  0  0  0  0  0  0  0
   37.0040   32.5720   41.4370 H   0  0  0  0  0  0  0  0  0  0  0  0
   37.4230   30.4540   37.0680 H   0  0  0  0  0  0  0  0  0  0  0  0
   35.0570   29.4420   40.9670 H   0  0  0  0  0  0  0  0  0  0  0  0
   35.2720   30.8800   42.0050 H   0  0  0  0  0  0  0  0  0  0  0  0
  2  7  1  6  0  0  0
  2  6  1  0  0  0  0
  2 13  1  0  0  0  0
  3  8  1  6  0  0  0
  3  1  1  0  0  0  0
  3  2  1  0  0  0  0
  4  3  1  0  0  0  0
  4  5  1  0  0  0  0
  5  6  1  0  0  0  0
  6 11  1  0  0  0  0
  6 12  1  0  0  0  0
  9  4  1  0  0  0  0
 10  4  1  0  0  0  0
 13 17  1  0  0  0  0
 14 15  1  0  0  0  0
 15 21  1  0  0  0  0
 16 17  2  0  0  0  0
 16 15  1  0  0  0  0
 17 18  1  0  0  0  0
 18 19  2  0  0  0  0
 18 20  1  0  0  0  0
 20 23  1  0  0  0  0
 21 20  1  0  0  0  0
 21 22  2  0  0  0  0
 25 24  2  6  0  0  0
 25  1  1  0  0  0  0
 25 28  1  0  0  0  0
 26 25  1  0  0  0  0
 27 26  1  0  0  0  0
 28 29  1  0  0  0  0
 29 31  1  0  0  0  0
 30 29  1  0  0  0  0
 32 29  1  0  0  0  0
 32 33  1  0  0  0  0
 34 32  1  0  0  0  0
 35 36  1  0  0  0  0
 35 41  1  0  0  0  0
 36 42  1  0  0  0  0
 37 32  1  0  0  0  0
 37 36  2  0  0  0  0
 38 37  1  0  0  0  0
 39 38  2  0  0  0  0
 39 40  1  0  0  0  0
 40 35  2  0  0  0  0
 41 45  1  0  0  0  0
 43 39  1  0  0  0  0
 44 41  1  0  0  0  0
M  END
>  <minimizedAffinity>
-5.61908865

$$$$

 OpenBabel03242516433D

 45 47  0  0  1  0  0  0  0  0999 V2000
   37.1310   28.8370   41.4230 O   0  0  0  0  0  0  0  0  0  0  0  0
   38.9010   29.7330   42.6960 C   0  0  1  0  0  0  0  0  0  0  0  0
   37.4140   29.4320   42.6100 C   0  0  2  0  0  0  0  0  0  0  0  0
   37.3370   28.3090   43.6700 C   0  0  0  0  0  0  0  0  0  0  0  0
   38.4630   27.5560   43.4960 O   0  0  0  0  0  0  0  0  0  0  0  0
   39.4370   28.3260   42.9280 C   0  0  0  0  0  0  0  0  0  0  0  0
   39.1200   30.3560   43.5860 H   0  0  0  0  0  0  0  0  0  0  0  0
   36.7700   30.2740   42.9120 H   0  0  0  0  0  0  0  0  0  0  0  0
   36.3810   27.7810   43.5800 H   0  0  0  0  0  0  0  0  0  0  0  0
   37.4040   28.8800   44.6430 H   0  0  0  0  0  0  0  0  0  0  0  0
   40.2910   28.4030   43.6480 H   0  0  0  0  0  0  0  0  0  0  0  0
   39.8040   27.8680   41.9940 H   0  0  0  0  0  0  0  0  0  0  0  0
   39.3940   30.3020   41.5510 O   0  0  0  0  0  0  0  0  0  0  0  0
   43.0350   32.7440   41.5300 H   0  0  0  0  0  0  0  0  0  0  0  0
   42.0230   32.6620   41.3850 N   0  0  0  0  0  0  0  0  0  0  0  0
   41.2450   31.5510   41.5380 C   0  0  0  0  0  3  0  0  0  0  0  0
   39.8640   31.5680   41.3090 C   0  0  0  0  0  0  0  0  0  0  0  0
   39.3330   32.7770   40.9170 C   0  0  0  0  0  0  0  0  0  0  0  0
   38.0940   32.6880   40.7370 O   0  0  0  0  0  0  0  0  0  0  0  0
   40.1200   33.8540   40.7740 N   0  0  0  0  0  0  0  0  0  0  0  0
   41.4370   33.8210   40.9970 C   0  0  0  0  0  0  0  0  0  0  0  0
   42.0500   34.9080   40.8240 O   0  0  0  0  0  0  0  0  0  0  0  0
   39.5560   34.6940   40.4700 H   0  0  0  0  0  0  0  0  0  0  0  0
   34.6140   28.8370   40.6540 O   0  0  0  0  0  0  0  0  0  0  0  0
   35.8890   29.6560   40.5800 P   0  0  1  0  0  0  0  0  0  0  0  0
   35.7320   31.1650   41.2820 O   0  0  0  0  0  0  0  0  0  0  0  0
   34.9240   31.2120   41.8640 H   0  0  0  0  0  0  0  0  0  0  0  0
   36.3310   29.8370   38.9680 O   0  0  0  0  0  0  0  0  0  0  0  0
   37.7020   29.7050   38.8050 C   0  0  0  0  0  0  0  0  0  0  0  0
   38.1980   30.1240   39.7150 H   0  0  0  0  0  0  0  0  0  0  0  0
   38.0100   28.6280   38.7970 H   0  0  0  0  0  0  0  0  0  0  0  0
   38.1690   30.4330   37.5920 C   0  0  0  0  0  0  0  0  0  0  0  0
   38.1740   29.6800   36.7510 H   0  0  0  0  0  0  0  0  0  0  0  0
   37.5110   31.2780   37.3630 H   0  0  0  0  0  0  0  0  0  0  0  0
   41.3400   32.4740   37.6010 C   0  0  0  0  0  0  0  0  0  0  0  0
   39.9870   32.1110   37.4480 C   0  0  0  0  0  0  0  0  0  0  0  0
   39.5970   30.8110   37.7550 C   0  0  0  0  0  0  0  0  0  0  0  0
   40.5430   29.9440   38.1950 N   0  0  0  0  0  0  0  0  0  0  0  0
   41.8390   30.3160   38.3340 C   0  0  0  0  0  0  0  0  0  0  0  0
   42.2340   31.5600   38.0440 N   0  0  0  0  0  0  0  0  0  0  0  0
   41.7490   33.7780   37.2960 N   0  0  0  0  0  0  0  0  0  0  0  0
   39.2450   32.7990   37.1010 H   0  0  0  0  0  0  0  0  0  0  0  0
   42.5440   29.5810   38.6880 H   0  0  0  0  0  0  0  0  0  0  0  0
   42.7500   34.0250   37.2630 H   0  0  0  0  0  0  0  0  0  0  0  0
   41.0410   34.5190   37.0960 H   0  0  0  0  0  0  0  0  0  0  0  0
  1  3  1  0  0  0  0
  2  6  1  0  0  0  0
  2  7  1  1  0  0  0
  3  2  1  0  0  0  0
  3  8  1  1  0  0  0
  3  4  1  0  0  0  0
  4 10  1  0  0  0  0
  5  4  1  0  0  0  0
  6  5  1  0  0  0  0
  6 11  1  0  0  0  0
  9  4  1  0  0  0  0
 12  6  1  0  0  0  0
 13  2  1  0  0  0  0
 15 14  1  0  0  0  0
 15 16  1  0  0  0  0
 17 16  2  0  0  0  0
 17 13  1  0  0  0  0
 18 17  1  0  0  0  0
 19 18  2  0  0  0  0
 20 18  1  0  0  0  0
 20 21  1  0  0  0  0
 21 15  1  0  0  0  0
 22 21  2  0  0  0  0
 23 20  1  0  0  0  0
 25 24  2  1  0  0  0
 25 26  1  0  0  0  0
 25  1  1  0  0  0  0
 26 27  1  0  0  0  0
 28 25  1  0  0  0  0
 29 28  1  0  0  0  0
 29 30  1  0  0  0  0
 31 29  1  0  0  0  0
 32 37  1  0  0  0  0
 32 29  1  0  0  0  0
 33 32  1  0  0  0  0
 34 32  1  0  0  0  0
 35 40  1  0  0  0  0
 36 35  2  0  0  0  0
 36 37  1  0  0  0  0
 37 38  2  0  0  0  0
 38 39  1  0  0  0  0
 39 43  1  0  0  0  0
 40 39  2  0  0  0  0
 41 35  1  0  0  0  0
 42 36  1  0  0  0  0
 44 41  1  0  0  0  0
 45 41  1  0  0  0  0
M  END
>  <minimizedAffinity>
-5.60065222

$$$$

 OpenBabel03242516433D

 45 47  0  0  1  0  0  0  0  0999 V2000
   42.2630   32.1610   40.7100 O   0  0  0  0  0  0  0  0  0  0  0  0
   41.2100   33.8950   39.5100 C   0  0  1  0  0  0  0  0  0  0  0  0
   41.8940   33.4640   40.7970 C   0  0  2  0  0  0  0  0  0  0  0  0
   43.2000   34.2790   40.6570 C   0  0  0  0  0  0  0  0  0  0  0  0
   43.5440   34.2060   39.3370 O   0  0  0  0  0  0  0  0  0  0  0  0
   42.4220   33.9840   38.5910 C   0  0  0  0  0  0  0  0  0  0  0  0
   40.7670   34.9030   39.6250 H   0  0  0  0  0  0  0  0  0  0  0  0
   41.3590   33.7710   41.7110 H   0  0  0  0  0  0  0  0  0  0  0  0
   43.9430   33.9120   41.3740 H   0  0  0  0  0  0  0  0  0  0  0  0
   42.8660   35.3290   40.9090 H   0  0  0  0  0  0  0  0  0  0  0  0
   42.2690   34.8620   37.9140 H   0  0  0  0  0  0  0  0  0  0  0  0
   42.5360   33.0780   37.9730 H   0  0  0  0  0  0  0  0  0  0  0  0
   40.2830   32.9850   39.0710 O   0  0  0  0  0  0  0  0  0  0  0  0
   37.8590   29.5270   40.2470 H   0  0  0  0  0  0  0  0  0  0  0  0
   37.9640   30.5430   40.1510 N   0  0  0  0  0  0  0  0  0  0  0  0
   39.0430   31.2280   39.6720 C   0  0  0  0  0  3  0  0  0  0  0  0
   39.0650   32.6260   39.5900 C   0  0  0  0  0  0  0  0  0  0  0  0
   37.9290   33.2720   40.0220 C   0  0  0  0  0  0  0  0  0  0  0  0
   38.0480   34.5170   39.9090 O   0  0  0  0  0  0  0  0  0  0  0  0
   36.8820   32.5750   40.4890 N   0  0  0  0  0  0  0  0  0  0  0  0
   36.8780   31.2410   40.5600 C   0  0  0  0  0  0  0  0  0  0  0  0
   35.8260   30.7190   41.0190 O   0  0  0  0  0  0  0  0  0  0  0  0
   36.0980   33.2220   40.7770 H   0  0  0  0  0  0  0  0  0  0  0  0
   43.1830   32.0190   43.1720 O   0  0  0  0  0  0  0  0  0  0  0  0
   42.1860   31.3750   42.2280 P   0  0  1  0  0  0  0  0  0  0  0  0
   40.6080   31.4990   42.7650 O   0  0  0  0  0  0  0  0  0  0  0  0
   40.5230   32.1880   43.4810 H   0  0  0  0  0  0  0  0  0  0  0  0
   42.5800   29.7510   42.0380 O   0  0  0  0  0  0  0  0  0  0  0  0
   41.6170   28.9300   42.6080 C   0  0  0  0  0  0  0  0  0  0  0  0
   42.1440   28.1110   43.1540 H   0  0  0  0  0  0  0  0  0  0  0  0
   41.0450   29.4680   43.4070 H   0  0  0  0  0  0  0  0  0  0  0  0
   40.7230   28.3530   41.5650 C   0  0  0  0  0  0  0  0  0  0  0  0
   40.5270   29.1790   40.8210 H   0  0  0  0  0  0  0  0  0  0  0  0
   41.1890   27.4880   41.0830 H   0  0  0  0  0  0  0  0  0  0  0  0
   37.5590   26.5350   42.5120 C   0  0  0  0  0  0  0  0  0  0  0  0
   38.8230   26.8110   41.9550 C   0  0  0  0  0  0  0  0  0  0  0  0
   39.3890   28.0670   42.1550 C   0  0  0  0  0  0  0  0  0  0  0  0
   38.6950   28.9750   42.8850 N   0  0  0  0  0  0  0  0  0  0  0  0
   37.4800   28.6860   43.4110 C   0  0  0  0  0  0  0  0  0  0  0  0
   36.9180   27.4860   43.2300 N   0  0  0  0  0  0  0  0  0  0  0  0
   36.9740   25.2760   42.3210 N   0  0  0  0  0  0  0  0  0  0  0  0
   39.3660   26.0900   41.3810 H   0  0  0  0  0  0  0  0  0  0  0  0
   36.9780   29.4500   43.9810 H   0  0  0  0  0  0  0  0  0  0  0  0
   35.9950   25.1000   42.5940 H   0  0  0  0  0  0  0  0  0  0  0  0
   37.5260   24.4980   41.8950 H   0  0  0  0  0  0  0  0  0  0  0  0
  1  3  1  0  0  0  0
  1 25  1  0  0  0  0
  2  7  1  1  0  0  0
  2  3  1  0  0  0  0
  3  8  1  1  0  0  0
  4  3  1  0  0  0  0
  4 10  1  0  0  0  0
  4  9  1  0  0  0  0
  5  4  1  0  0  0  0
  6  5  1  0  0  0  0
  6  2  1  0  0  0  0
 11  6  1  0  0  0  0
 12  6  1  0  0  0  0
 13  2  1  0  0  0  0
 13 17  1  0  0  0  0
 15 14  1  0  0  0  0
 15 21  1  0  0  0  0
 16 15  1  0  0  0  0
 17 16  2  0  0  0  0
 17 18  1  0  0  0  0
 18 20  1  0  0  0  0
 19 18  2  0  0  0  0
 20 21  1  0  0  0  0
 20 23  1  0  0  0  0
 21 22  2  0  0  0  0
 25 26  1  0  0  0  0
 25 24  2  1  0  0  0
 26 27  1  0  0  0  0
 28 25  1  0  0  0  0
 28 29  1  0  0  0  0
 29 30  1  0  0  0  0
 29 31  1  0  0  0  0
 32 37  1  0  0  0  0
 32 29  1  0  0  0  0
 33 32  1  0  0  0  0
 34 32  1  0  0  0  0
 35 40  1  0  0  0  0
 36 37  1  0  0  0  0
 36 35  2  0  0  0  0
 37 38  2  0  0  0  0
 38 39  1  0  0  0  0
 39 43  1  0  0  0  0
 40 39  2  0  0  0  0
 41 35  1  0  0  0  0
 41 44  1  0  0  0  0
 42 36  1  0  0  0  0
 45 41  1  0  0  0  0
M  END
>  <minimizedAffinity>
-5.52805567

$$$$
