
 OpenBabel03242515293D

 33 35  0  0  0  0  0  0  0  0999 V2000
   44.6640   35.5230   45.1290 C   0  0  0  0  0  0  0  0  0  0  0  0
   45.3500   35.0180   44.0110 C   0  0  0  0  0  0  0  0  0  0  0  0
   45.9480   33.7870   44.1610 C   0  0  0  0  0  0  0  0  0  0  0  0
   45.8610   33.1290   45.3370 N   0  0  0  0  0  0  0  0  0  0  0  0
   45.1820   33.6770   46.3800 C   0  0  0  0  0  0  0  0  0  0  0  0
   44.5690   34.8800   46.3050 N   0  0  0  0  0  0  0  0  0  0  0  0
   44.1740   36.4870   45.0690 H   0  0  0  0  0  0  0  0  0  0  0  0
   46.4770   33.3950   43.3010 H   0  0  0  0  0  0  0  0  0  0  0  0
   45.3620   35.8520   42.8040 C   0  0  0  0  0  0  0  0  0  0  0  0
   45.0850   36.8780   43.0250 H   0  0  0  0  0  0  0  0  0  0  0  0
   46.4400   35.9110   42.4690 H   0  0  0  0  0  0  0  0  0  0  0  0
   44.5770   35.1930   41.7860 N   0  0  0  0  0  0  0  0  0  0  0  0
   43.2460   35.2640   41.8080 C   0  0  0  0  0  0  0  0  0  0  0  0
   42.5540   34.6090   40.8060 C   0  0  0  0  0  0  0  0  0  0  0  0
   43.1910   33.9100   39.8140 C   0  0  0  0  0  0  0  0  0  0  0  0
   42.5180   33.3400   38.9360 O   0  0  0  0  0  0  0  0  0  0  0  0
   44.5390   33.8540   39.8140 N   0  0  0  0  0  0  0  0  0  0  0  0
   45.2330   34.4920   40.7950 C   0  0  0  0  0  0  0  0  0  0  0  0
   46.4870   34.4050   40.7420 O   0  0  0  0  0  0  0  0  0  0  0  0
   42.7670   35.8230   42.6040 H   0  0  0  0  0  0  0  0  0  0  0  0
   41.4600   34.7000   40.8730 H   0  0  0  0  0  0  0  0  0  0  0  0
   45.0240   33.3230   39.0630 H   0  0  0  0  0  0  0  0  0  0  0  0
   45.0790   33.0180   47.6040 O   0  0  0  0  0  0  0  0  0  0  0  0
   49.3970   32.2770   48.3380 H   0  0  0  0  0  0  0  0  0  0  0  0
   48.4000   32.0150   48.4990 N   0  0  0  0  0  0  0  0  0  0  0  0
   47.4030   32.7160   47.9250 C   0  0  0  0  0  0  0  0  0  0  0  0
   46.0970   32.2970   48.1930 C   0  0  0  0  0  0  0  0  0  0  0  0
   45.9200   31.2030   49.0210 C   0  0  0  0  0  0  0  0  0  0  0  0
   44.7200   30.8390   49.2510 O   0  0  0  0  0  0  0  0  0  0  0  0
   46.9480   30.5340   49.5710 N   0  0  0  0  0  0  0  0  0  0  0  0
   48.1950   30.9550   49.2990 C   0  0  0  0  0  0  0  0  0  0  0  0
   49.1160   30.2950   49.8390 O   0  0  0  0  0  0  0  0  0  0  0  0
   46.7680   29.7130   50.1890 H   0  0  0  0  0  0  0  0  0  0  0  0
  1  6  1  0  0  0  0
  2  3  1  0  0  0  0
  2  1  2  0  0  0  0
  3  4  2  0  0  0  0
  4  5  1  0  0  0  0
  5 23  1  0  0  0  0
  6  5  2  0  0  0  0
  7  1  1  0  0  0  0
  8  3  1  0  0  0  0
  9 10  1  0  0  0  0
  9  2  1  0  0  0  0
 11  9  1  0  0  0  0
 12 13  1  0  0  0  0
 12  9  1  0  0  0  0
 13 20  1  0  0  0  0
 14 21  1  0  0  0  0
 14 13  2  0  0  0  0
 15 14  1  0  0  0  0
 16 15  2  0  0  0  0
 17 15  1  0  0  0  0
 17 18  1  0  0  0  0
 18 12  1  0  0  0  0
 19 18  2  0  0  0  0
 22 17  1  0  0  0  0
 23 27  1  0  0  0  0
 24 25  1  0  0  0  0
 25 31  1  0  0  0  0
 26 27  2  0  0  0  0
 26 25  1  0  0  0  0
 27 28  1  0  0  0  0
 28 29  2  0  0  0  0
 28 30  1  0  0  0  0
 30 33  1  0  0  0  0
 31 30  1  0  0  0  0
 31 32  2  0  0  0  0
M  END
>  <minimizedAffinity>
-6.38635063

>  <minimizedRMSD>
2.37193322

$$$$
