
 OpenBabel03252502253D

 35 37  0  0  1  0  0  0  0  0999 V2000
   46.8930   34.6240   42.2830 N   0  0  0  0  0  0  0  0  0  0  0  0
   48.3460   34.6880   42.3470 C   0  0  0  0  0  0  0  0  0  0  0  0
   48.7220   35.4930   41.0840 C   0  0  0  0  0  0  0  0  0  0  0  0
   48.3980   34.6800   39.8730 C   0  0  0  0  0  0  0  0  0  0  0  0
   47.0730   33.9980   39.9260 C   0  0  0  0  0  0  0  0  0  0  0  0
   46.1680   34.3970   41.0550 C   0  0  1  0  0  0  0  0  0  0  0  0
   48.7910   33.6750   42.2760 H   0  0  0  0  0  0  0  0  0  0  0  0
   48.6650   35.2670   43.2270 H   0  0  0  0  0  0  0  0  0  0  0  0
   49.8270   35.6320   41.1720 H   0  0  0  0  0  0  0  0  0  0  0  0
   48.1810   36.4570   41.1460 H   0  0  0  0  0  0  0  0  0  0  0  0
   49.1970   33.8910   39.7990 H   0  0  0  0  0  0  0  0  0  0  0  0
   48.5540   35.3130   38.9780 H   0  0  0  0  0  0  0  0  0  0  0  0
   46.5300   34.2690   38.9720 H   0  0  0  0  0  0  0  0  0  0  0  0
   47.1560   32.8900   39.8940 H   0  0  0  0  0  0  0  0  0  0  0  0
   45.7240   35.3720   40.7780 H   0  0  0  0  0  0  0  0  0  0  0  0
   44.5000   35.9630   44.8320 C   0  0  0  0  0  0  0  0  0  0  0  0
   45.2210   35.8850   43.6340 C   0  0  0  0  0  0  0  0  0  0  0  0
   46.1110   34.7900   43.4740 C   0  0  0  0  0  0  0  0  0  0  0  0
   46.2100   33.8840   44.4920 N   0  0  0  0  0  0  0  0  0  0  0  0
   45.4910   34.0050   45.6300 C   0  0  0  0  0  0  0  0  0  0  0  0
   44.6330   35.0540   45.7920 N   0  0  0  0  0  0  0  0  0  0  0  0
   43.8760   36.8430   44.7950 H   0  0  0  0  0  0  0  0  0  0  0  0
   45.1920   36.5570   42.7980 H   0  0  0  0  0  0  0  0  0  0  0  0
   45.5460   33.3150   46.4430 H   0  0  0  0  0  0  0  0  0  0  0  0
   45.2620   33.3720   41.2590 O   0  0  0  0  0  0  0  0  0  0  0  0
   41.0500   34.1480   42.2000 H   0  0  0  0  0  0  0  0  0  0  0  0
   41.7480   33.7460   41.5420 N   0  0  0  0  0  0  0  0  0  0  0  0
   43.1000   33.7700   41.7410 C   0  0  0  0  0  3  0  0  0  0  0  0
   43.9870   33.2070   40.8100 C   0  0  0  0  0  0  0  0  0  0  0  0
   43.4040   32.6370   39.6980 C   0  0  0  0  0  0  0  0  0  0  0  0
   44.2720   32.1610   38.9230 O   0  0  0  0  0  0  0  0  0  0  0  0
   42.0680   32.6410   39.5510 N   0  0  0  0  0  0  0  0  0  0  0  0
   41.2450   33.1780   40.4420 C   0  0  0  0  0  0  0  0  0  0  0  0
   40.0060   33.1220   40.1970 O   0  0  0  0  0  0  0  0  0  0  0  0
   41.7430   32.1730   38.6550 H   0  0  0  0  0  0  0  0  0  0  0  0
  1  2  1  0  0  0  0
  1 18  1  0  0  0  0
  2  8  1  0  0  0  0
  3 10  1  0  0  0  0
  3  9  1  0  0  0  0
  3  2  1  0  0  0  0
  4  5  1  0  0  0  0
  4  3  1  0  0  0  0
  5  6  1  0  0  0  0
  6 15  1  6  0  0  0
  6 25  1  0  0  0  0
  6  1  1  0  0  0  0
  7  2  1  0  0  0  0
 11  4  1  0  0  0  0
 12  4  1  0  0  0  0
 13  5  1  0  0  0  0
 14  5  1  0  0  0  0
 16 21  1  0  0  0  0
 17 16  2  0  0  0  0
 18 17  1  0  0  0  0
 18 19  2  0  0  0  0
 19 20  1  0  0  0  0
 20 21  2  0  0  0  0
 20 24  1  0  0  0  0
 22 16  1  0  0  0  0
 23 17  1  0  0  0  0
 27 28  1  0  0  0  0
 27 26  1  0  0  0  0
 29 25  1  0  0  0  0
 29 28  2  0  0  0  0
 30 29  1  0  0  0  0
 31 30  2  0  0  0  0
 32 30  1  0  0  0  0
 32 33  1  0  0  0  0
 33 27  1  0  0  0  0
 34 33  2  0  0  0  0
 35 32  1  0  0  0  0
M  END
>  <minimizedAffinity>
-5.71995115

>  <minimizedRMSD>
0.670614243

$$$$
