
 OpenBabel03252502243D

 35 37  0  0  1  0  0  0  0  0999 V2000
   46.7760   34.5690   42.2600 N   0  0  0  0  0  0  0  0  0  0  0  0
   48.2320   34.5720   42.2940 C   0  0  0  0  0  0  0  0  0  0  0  0
   48.6140   35.3490   41.0140 C   0  0  0  0  0  0  0  0  0  0  0  0
   48.2300   34.5380   39.8190 C   0  0  0  0  0  0  0  0  0  0  0  0
   46.8800   33.9130   39.9070 C   0  0  0  0  0  0  0  0  0  0  0  0
   46.0160   34.3610   41.0500 C   0  0  1  0  0  0  0  0  0  0  0  0
   48.6320   33.5410   42.2240 H   0  0  0  0  0  0  0  0  0  0  0  0
   48.5930   35.1460   43.1600 H   0  0  0  0  0  0  0  0  0  0  0  0
   49.7260   35.4420   41.0780 H   0  0  0  0  0  0  0  0  0  0  0  0
   48.1150   36.3350   41.0780 H   0  0  0  0  0  0  0  0  0  0  0  0
   48.9940   33.7150   39.7360 H   0  0  0  0  0  0  0  0  0  0  0  0
   48.3940   35.1560   38.9140 H   0  0  0  0  0  0  0  0  0  0  0  0
   46.3280   34.1980   38.9620 H   0  0  0  0  0  0  0  0  0  0  0  0
   46.9160   32.8020   39.8850 H   0  0  0  0  0  0  0  0  0  0  0  0
   45.6080   35.3510   40.7720 H   0  0  0  0  0  0  0  0  0  0  0  0
   44.4830   36.0240   44.8380 C   0  0  0  0  0  0  0  0  0  0  0  0
   45.1720   35.9030   43.6250 C   0  0  0  0  0  0  0  0  0  0  0  0
   46.0280   34.7800   43.4650 C   0  0  0  0  0  0  0  0  0  0  0  0
   46.1250   33.8900   44.4980 N   0  0  0  0  0  0  0  0  0  0  0  0
   45.4360   34.0530   45.6500 C   0  0  0  0  0  0  0  0  0  0  0  0
   44.6120   35.1280   45.8110 N   0  0  0  0  0  0  0  0  0  0  0  0
   43.8830   36.9200   44.7980 H   0  0  0  0  0  0  0  0  0  0  0  0
   45.1430   36.5590   42.7780 H   0  0  0  0  0  0  0  0  0  0  0  0
   45.4900   33.3760   46.4750 H   0  0  0  0  0  0  0  0  0  0  0  0
   45.0730   33.3770   41.2840 O   0  0  0  0  0  0  0  0  0  0  0  0
   41.6090   35.8050   40.1290 H   0  0  0  0  0  0  0  0  0  0  0  0
   41.9690   34.9400   40.5800 N   0  0  0  0  0  0  0  0  0  0  0  0
   43.2940   34.6220   40.6920 C   0  0  0  0  0  3  0  0  0  0  0  0
   43.7130   33.4350   41.3130 C   0  0  0  0  0  0  0  0  0  0  0  0
   42.7050   32.6260   41.7930 C   0  0  0  0  0  0  0  0  0  0  0  0
   43.1730   31.5900   42.3310 O   0  0  0  0  0  0  0  0  0  0  0  0
   41.4180   32.9860   41.6580 N   0  0  0  0  0  0  0  0  0  0  0  0
   41.0410   34.1120   41.0660 C   0  0  0  0  0  0  0  0  0  0  0  0
   39.8010   34.3460   40.9970 O   0  0  0  0  0  0  0  0  0  0  0  0
   40.7380   32.2790   42.0680 H   0  0  0  0  0  0  0  0  0  0  0  0
  1  2  1  0  0  0  0
  1 18  1  0  0  0  0
  2  8  1  0  0  0  0
  3 10  1  0  0  0  0
  3  9  1  0  0  0  0
  3  2  1  0  0  0  0
  4  5  1  0  0  0  0
  4  3  1  0  0  0  0
  5  6  1  0  0  0  0
  6 15  1  6  0  0  0
  6 25  1  0  0  0  0
  6  1  1  0  0  0  0
  7  2  1  0  0  0  0
 11  4  1  0  0  0  0
 12  4  1  0  0  0  0
 13  5  1  0  0  0  0
 14  5  1  0  0  0  0
 16 21  1  0  0  0  0
 17 16  2  0  0  0  0
 18 17  1  0  0  0  0
 18 19  2  0  0  0  0
 19 20  1  0  0  0  0
 20 21  2  0  0  0  0
 20 24  1  0  0  0  0
 22 16  1  0  0  0  0
 23 17  1  0  0  0  0
 25 29  1  0  0  0  0
 26 27  1  0  0  0  0
 27 28  1  0  0  0  0
 27 33  1  0  0  0  0
 28 29  2  0  0  0  0
 29 30  1  0  0  0  0
 30 31  2  0  0  0  0
 32 30  1  0  0  0  0
 32 35  1  0  0  0  0
 33 32  1  0  0  0  0
 34 33  2  0  0  0  0
M  END
>  <minimizedAffinity>
-6.12261868

>  <minimizedRMSD>
0.800036669

$$$$
