
 OpenBabel03252507563D

 45 48  0  0  1  0  0  0  0  0999 V2000
   36.8780   31.2570   40.4060 C   0  0  2  0  0  0  0  0  0  0  0  0
   36.7630   31.0840   38.9660 C   0  0  0  0  0  0  0  0  0  0  0  0
   38.0990   31.0100   39.6370 C   0  0  1  0  0  0  0  0  0  0  0  0
   36.7380   32.2720   40.8200 H   0  0  0  0  0  0  0  0  0  0  0  0
   36.5920   31.9450   38.2620 H   0  0  0  0  0  0  0  0  0  0  0  0
   36.3140   30.1560   38.5780 H   0  0  0  0  0  0  0  0  0  0  0  0
   38.5720   30.0400   39.8940 H   0  0  0  0  0  0  0  0  0  0  0  0
   36.8400   28.1230   42.1820 C   0  0  2  0  0  0  0  0  0  0  0  0
   36.4700   27.8350   40.7240 C   0  0  0  0  0  0  0  0  0  0  0  0
   35.5860   29.0800   40.4880 C   0  0  0  0  0  0  0  0  0  0  0  0
   36.2530   30.1760   41.2590 C   0  0  1  0  0  0  0  0  0  0  0  0
   37.3630   29.5230   42.0280 C   0  0  0  0  0  0  0  0  0  0  0  0
   35.9200   28.1060   42.7960 H   0  0  0  0  0  0  0  0  0  0  0  0
   37.3830   27.9160   40.1260 H   0  0  0  0  0  0  0  0  0  0  0  0
   35.8920   26.9160   40.6130 H   0  0  0  0  0  0  0  0  0  0  0  0
   34.6280   28.8470   41.0240 H   0  0  0  0  0  0  0  0  0  0  0  0
   35.4680   29.2730   39.4180 H   0  0  0  0  0  0  0  0  0  0  0  0
   35.5790   30.6670   41.9910 H   0  0  0  0  0  0  0  0  0  0  0  0
   38.3050   29.4980   41.4440 H   0  0  0  0  0  0  0  0  0  0  0  0
   37.5290   30.0090   43.0100 H   0  0  0  0  0  0  0  0  0  0  0  0
   39.8490   26.6150   43.8730 C   0  0  0  0  0  0  0  0  0  0  0  0
   38.9180   27.5800   43.5060 C   0  0  0  0  0  0  0  0  0  0  0  0
   37.8860   27.1800   42.6670 C   0  0  0  0  0  0  0  0  0  0  0  0
   37.8080   25.8540   42.2230 N   0  0  0  0  0  0  0  0  0  0  0  0
   38.7490   24.9530   42.6140 C   0  0  0  0  0  0  0  0  0  0  0  0
   39.7610   25.3400   43.4360 N   0  0  0  0  0  0  0  0  0  0  0  0
   40.6740   26.8820   44.5290 H   0  0  0  0  0  0  0  0  0  0  0  0
   38.9680   28.6030   43.8420 H   0  0  0  0  0  0  0  0  0  0  0  0
   38.6510   23.9410   42.2480 H   0  0  0  0  0  0  0  0  0  0  0  0
   38.9740   32.1100   39.4390 O   0  0  0  0  0  0  0  0  0  0  0  0
   40.0930   30.1510   38.1330 O   0  0  0  0  0  0  0  0  0  0  0  0
   40.1610   31.6430   38.3450 P   0  0  1  0  0  0  0  0  0  0  0  0
   39.8820   32.3840   36.8230 O   0  0  0  0  0  0  0  0  0  0  0  0
   40.2830   33.2750   36.8380 H   0  0  0  0  0  0  0  0  0  0  0  0
   41.7040   32.0440   38.8010 O   0  0  0  0  0  0  0  0  0  0  0  0
   42.3960   32.9700   43.1640 H   0  0  0  0  0  0  0  0  0  0  0  0
   42.5310   33.2600   42.1750 N   0  0  0  0  0  0  0  0  0  0  0  0
   42.0210   32.4380   41.2630 C   0  0  0  0  0  3  0  0  0  0  0  0
   42.1400   32.7250   39.9090 C   0  0  0  0  0  0  0  0  0  0  0  0
   42.8100   33.9010   39.5600 C   0  0  0  0  0  0  0  0  0  0  0  0
   43.0370   34.3590   38.4040 O   0  0  0  0  0  0  0  0  0  0  0  0
   43.3170   34.7120   40.5300 N   0  0  0  0  0  0  0  0  0  0  0  0
   43.1710   34.3830   41.8220 C   0  0  0  0  0  0  0  0  0  0  0  0
   43.6190   35.0970   42.7670 O   0  0  0  0  0  0  0  0  0  0  0  0
   43.8290   35.6040   40.3520 H   0  0  0  0  0  0  0  0  0  0  0  0
  1  4  1  1  0  0  0
  1 11  1  0  0  0  0
  2  3  1  0  0  0  0
  2  1  1  0  0  0  0
  3  7  1  1  0  0  0
  3  1  1  0  0  0  0
  5  2  1  0  0  0  0
  6  2  1  0  0  0  0
  8 23  1  0  0  0  0
  8 13  1  1  0  0  0
  9  8  1  0  0  0  0
 10  9  1  0  0  0  0
 10 16  1  0  0  0  0
 10 11  1  0  0  0  0
 11 18  1  1  0  0  0
 11 12  1  0  0  0  0
 12  8  1  0  0  0  0
 12 20  1  0  0  0  0
 14  9  1  0  0  0  0
 15  9  1  0  0  0  0
 17 10  1  0  0  0  0
 19 12  1  0  0  0  0
 21 27  1  0  0  0  0
 22 28  1  0  0  0  0
 22 21  1  0  0  0  0
 23 22  2  0  0  0  0
 24 25  2  0  0  0  0
 24 23  1  0  0  0  0
 25 26  1  0  0  0  0
 26 21  2  0  0  0  0
 29 25  1  0  0  0  0
 30  3  1  0  0  0  0
 32 31  2  6  0  0  0
 32 35  1  0  0  0  0
 32 30  1  0  0  0  0
 33 34  1  0  0  0  0
 33 32  1  0  0  0  0
 35 39  1  0  0  0  0
 37 36  1  0  0  0  0
 38 37  1  0  0  0  0
 39 38  2  0  0  0  0
 40 39  1  0  0  0  0
 40 42  1  0  0  0  0
 41 40  2  0  0  0  0
 42 43  1  0  0  0  0
 43 37  1  0  0  0  0
 43 44  2  0  0  0  0
 45 42  1  0  0  0  0
M  END
>  <minimizedAffinity>
-6.85530901

$$$$

 OpenBabel03252507563D

 45 48  0  0  1  0  0  0  0  0999 V2000
   36.9920   31.6100   39.7180 C   0  0  2  0  0  0  0  0  0  0  0  0
   37.5280   30.8670   38.5880 C   0  0  0  0  0  0  0  0  0  0  0  0
   38.4410   31.6090   39.5130 C   0  0  1  0  0  0  0  0  0  0  0  0
   36.4520   32.5520   39.5110 H   0  0  0  0  0  0  0  0  0  0  0  0
   37.4600   31.2400   37.5280 H   0  0  0  0  0  0  0  0  0  0  0  0
   37.5180   29.7660   38.6240 H   0  0  0  0  0  0  0  0  0  0  0  0
   38.9840   31.0980   40.3340 H   0  0  0  0  0  0  0  0  0  0  0  0
   36.7350   28.7920   41.9480 C   0  0  2  0  0  0  0  0  0  0  0  0
   36.0730   28.3980   40.6250 C   0  0  0  0  0  0  0  0  0  0  0  0
   35.3850   29.7500   40.3300 C   0  0  0  0  0  0  0  0  0  0  0  0
   36.3510   30.7860   40.8130 C   0  0  1  0  0  0  0  0  0  0  0  0
   37.4520   30.0350   41.5020 C   0  0  0  0  0  0  0  0  0  0  0  0
   35.9460   29.0300   42.6870 H   0  0  0  0  0  0  0  0  0  0  0  0
   36.8680   28.2260   39.8930 H   0  0  0  0  0  0  0  0  0  0  0  0
   35.3370   27.6010   40.7450 H   0  0  0  0  0  0  0  0  0  0  0  0
   34.5090   29.7760   41.0320 H   0  0  0  0  0  0  0  0  0  0  0  0
   35.1160   29.8250   39.2730 H   0  0  0  0  0  0  0  0  0  0  0  0
   35.9080   31.4870   41.5510 H   0  0  0  0  0  0  0  0  0  0  0  0
   38.2590   29.7560   40.7960 H   0  0  0  0  0  0  0  0  0  0  0  0
   37.8660   30.6000   42.3600 H   0  0  0  0  0  0  0  0  0  0  0  0
   39.5160   26.9290   43.6730 C   0  0  0  0  0  0  0  0  0  0  0  0
   38.6860   27.9900   43.3310 C   0  0  0  0  0  0  0  0  0  0  0  0
   37.6750   27.7360   42.4150 C   0  0  0  0  0  0  0  0  0  0  0  0
   37.5170   26.4540   41.8710 N   0  0  0  0  0  0  0  0  0  0  0  0
   38.3620   25.4540   42.2410 C   0  0  0  0  0  0  0  0  0  0  0  0
   39.3540   25.6980   43.1390 N   0  0  0  0  0  0  0  0  0  0  0  0
   40.3220   27.0810   44.3870 H   0  0  0  0  0  0  0  0  0  0  0  0
   38.7970   28.9790   43.7440 H   0  0  0  0  0  0  0  0  0  0  0  0
   38.2050   24.4810   41.7970 H   0  0  0  0  0  0  0  0  0  0  0  0
   39.0240   32.8020   39.0110 O   0  0  0  0  0  0  0  0  0  0  0  0
   38.6220   34.5220   40.9290 O   0  0  0  0  0  0  0  0  0  0  0  0
   39.6820   33.6470   40.3070 P   0  0  1  0  0  0  0  0  0  0  0  0
   40.2070   32.5500   41.5180 O   0  0  0  0  0  0  0  0  0  0  0  0
   41.1090   32.2510   41.2890 H   0  0  0  0  0  0  0  0  0  0  0  0
   40.9860   34.5920   39.9140 O   0  0  0  0  0  0  0  0  0  0  0  0
   43.3460   34.4910   36.0670 H   0  0  0  0  0  0  0  0  0  0  0  0
   43.3080   34.2520   37.0790 N   0  0  0  0  0  0  0  0  0  0  0  0
   42.1910   34.6020   37.7090 C   0  0  0  0  0  3  0  0  0  0  0  0
   42.0290   34.3330   39.0610 C   0  0  0  0  0  0  0  0  0  0  0  0
   43.0810   33.6860   39.7160 C   0  0  0  0  0  0  0  0  0  0  0  0
   43.1550   33.3450   40.9310 O   0  0  0  0  0  0  0  0  0  0  0  0
   44.2070   33.3460   39.0300 N   0  0  0  0  0  0  0  0  0  0  0  0
   44.3070   33.6320   37.7230 C   0  0  0  0  0  0  0  0  0  0  0  0
   45.3270   33.3410   37.0320 O   0  0  0  0  0  0  0  0  0  0  0  0
   45.0340   32.8640   39.4450 H   0  0  0  0  0  0  0  0  0  0  0  0
  1  4  1  6  0  0  0
  1 11  1  0  0  0  0
  2  6  1  0  0  0  0
  2  3  1  0  0  0  0
  2  1  1  0  0  0  0
  3  1  1  0  0  0  0
  3  7  1  1  0  0  0
  5  2  1  0  0  0  0
  8 23  1  0  0  0  0
  8 13  1  1  0  0  0
  9 15  1  0  0  0  0
  9  8  1  0  0  0  0
 10  9  1  0  0  0  0
 10 11  1  0  0  0  0
 10 16  1  0  0  0  0
 11 12  1  0  0  0  0
 11 18  1  1  0  0  0
 12  8  1  0  0  0  0
 12 20  1  0  0  0  0
 14  9  1  0  0  0  0
 17 10  1  0  0  0  0
 19 12  1  0  0  0  0
 21 27  1  0  0  0  0
 22 21  1  0  0  0  0
 22 28  1  0  0  0  0
 23 22  2  0  0  0  0
 24 25  2  0  0  0  0
 24 23  1  0  0  0  0
 25 26  1  0  0  0  0
 26 21  2  0  0  0  0
 29 25  1  0  0  0  0
 30  3  1  0  0  0  0
 30 32  1  0  0  0  0
 32 31  2  1  0  0  0
 32 33  1  0  0  0  0
 34 33  1  0  0  0  0
 35 32  1  0  0  0  0
 36 37  1  0  0  0  0
 37 38  1  0  0  0  0
 37 43  1  0  0  0  0
 38 39  2  0  0  0  0
 39 40  1  0  0  0  0
 39 35  1  0  0  0  0
 40 41  2  0  0  0  0
 42 45  1  0  0  0  0
 42 40  1  0  0  0  0
 43 42  1  0  0  0  0
 44 43  2  0  0  0  0
M  END
>  <minimizedAffinity>
-6.65582514

$$$$

 OpenBabel03252507563D

 45 48  0  0  1  0  0  0  0  0999 V2000
   36.5520   31.3380   40.3870 C   0  0  2  0  0  0  0  0  0  0  0  0
   37.1420   30.9290   39.1220 C   0  0  0  0  0  0  0  0  0  0  0  0
   37.8890   31.8320   40.0530 C   0  0  1  0  0  0  0  0  0  0  0  0
   35.7220   32.0680   40.3620 H   0  0  0  0  0  0  0  0  0  0  0  0
   36.8230   31.3640   38.1330 H   0  0  0  0  0  0  0  0  0  0  0  0
   37.4820   29.8870   39.0080 H   0  0  0  0  0  0  0  0  0  0  0  0
   38.6670   31.4460   40.7430 H   0  0  0  0  0  0  0  0  0  0  0  0
   37.5970   28.5830   42.4600 C   0  0  2  0  0  0  0  0  0  0  0  0
   37.2070   28.0130   41.0930 C   0  0  0  0  0  0  0  0  0  0  0  0
   35.9760   28.9130   40.8400 C   0  0  0  0  0  0  0  0  0  0  0  0
   36.3500   30.2450   41.4120 C   0  0  1  0  0  0  0  0  0  0  0  0
   37.6660   30.0420   42.1060 C   0  0  0  0  0  0  0  0  0  0  0  0
   36.7780   28.3840   43.1780 H   0  0  0  0  0  0  0  0  0  0  0  0
   38.0000   28.2720   40.3850 H   0  0  0  0  0  0  0  0  0  0  0  0
   36.9200   26.9610   41.1440 H   0  0  0  0  0  0  0  0  0  0  0  0
   35.1790   28.4900   41.5070 H   0  0  0  0  0  0  0  0  0  0  0  0
   35.7160   28.9230   39.7780 H   0  0  0  0  0  0  0  0  0  0  0  0
   35.6260   30.6150   42.1670 H   0  0  0  0  0  0  0  0  0  0  0  0
   38.5190   30.2090   41.4190 H   0  0  0  0  0  0  0  0  0  0  0  0
   37.7620   30.6780   43.0070 H   0  0  0  0  0  0  0  0  0  0  0  0
   40.3070   26.5050   44.0490 C   0  0  0  0  0  0  0  0  0  0  0  0
   39.0270   26.8920   43.6680 C   0  0  0  0  0  0  0  0  0  0  0  0
   38.9120   28.0490   42.9090 C   0  0  0  0  0  0  0  0  0  0  0  0
   40.0540   28.7800   42.5540 N   0  0  0  0  0  0  0  0  0  0  0  0
   41.2810   28.3530   42.9570 C   0  0  0  0  0  0  0  0  0  0  0  0
   41.3990   27.2210   43.7010 N   0  0  0  0  0  0  0  0  0  0  0  0
   40.4450   25.6060   44.6440 H   0  0  0  0  0  0  0  0  0  0  0  0
   38.1420   26.3380   43.9350 H   0  0  0  0  0  0  0  0  0  0  0  0
   42.1350   28.9470   42.6620 H   0  0  0  0  0  0  0  0  0  0  0  0
   37.9990   33.1940   39.6680 O   0  0  0  0  0  0  0  0  0  0  0  0
   39.3280   35.0980   40.8540 O   0  0  0  0  0  0  0  0  0  0  0  0
   39.4970   33.7600   40.1760 P   0  0  1  0  0  0  0  0  0  0  0  0
   40.1690   32.6880   41.3350 O   0  0  0  0  0  0  0  0  0  0  0  0
   40.6320   31.9710   40.8570 H   0  0  0  0  0  0  0  0  0  0  0  0
   40.6150   33.9200   38.9610 O   0  0  0  0  0  0  0  0  0  0  0  0
   40.9200   30.0810   36.6050 H   0  0  0  0  0  0  0  0  0  0  0  0
   41.3740   30.9710   36.8930 N   0  0  0  0  0  0  0  0  0  0  0  0
   40.6530   31.7490   37.6950 C   0  0  0  0  0  3  0  0  0  0  0  0
   41.1590   32.9620   38.1440 C   0  0  0  0  0  0  0  0  0  0  0  0
   42.4420   33.3170   37.7180 C   0  0  0  0  0  0  0  0  0  0  0  0
   43.0970   34.3610   37.9960 O   0  0  0  0  0  0  0  0  0  0  0  0
   43.1440   32.4880   36.8970 N   0  0  0  0  0  0  0  0  0  0  0  0
   42.6030   31.3280   36.4960 C   0  0  0  0  0  0  0  0  0  0  0  0
   43.2060   30.5160   35.7330 O   0  0  0  0  0  0  0  0  0  0  0  0
   44.1040   32.6810   36.5360 H   0  0  0  0  0  0  0  0  0  0  0  0
  1  4  1  6  0  0  0
  1 11  1  0  0  0  0
  2  3  1  0  0  0  0
  2  1  1  0  0  0  0
  3  1  1  0  0  0  0
  3  7  1  1  0  0  0
  5  2  1  0  0  0  0
  6  2  1  0  0  0  0
  8 23  1  0  0  0  0
  8 13  1  1  0  0  0
  9 15  1  0  0  0  0
  9  8  1  0  0  0  0
 10  9  1  0  0  0  0
 10 11  1  0  0  0  0
 10 16  1  0  0  0  0
 11 12  1  0  0  0  0
 11 18  1  1  0  0  0
 12  8  1  0  0  0  0
 12 20  1  0  0  0  0
 14  9  1  0  0  0  0
 17 10  1  0  0  0  0
 19 12  1  0  0  0  0
 21 27  1  0  0  0  0
 22 28  1  0  0  0  0
 22 21  2  0  0  0  0
 23 22  1  0  0  0  0
 24 23  2  0  0  0  0
 24 25  1  0  0  0  0
 25 26  2  0  0  0  0
 26 21  1  0  0  0  0
 29 25  1  0  0  0  0
 30  3  1  0  0  0  0
 30 32  1  0  0  0  0
 32 31  2  1  0  0  0
 32 33  1  0  0  0  0
 34 33  1  0  0  0  0
 35 32  1  0  0  0  0
 36 37  1  0  0  0  0
 37 38  1  0  0  0  0
 38 39  2  0  0  0  0
 39 35  1  0  0  0  0
 40 41  2  0  0  0  0
 40 39  1  0  0  0  0
 42 40  1  0  0  0  0
 43 37  1  0  0  0  0
 43 42  1  0  0  0  0
 44 43  2  0  0  0  0
 45 42  1  0  0  0  0
M  END
>  <minimizedAffinity>
-6.53515625

$$$$

 OpenBabel03252507563D

 45 48  0  0  1  0  0  0  0  0999 V2000
   36.8020   28.8920   39.4070 C   0  0  2  0  0  0  0  0  0  0  0  0
   35.4530   29.4300   39.5010 C   0  0  0  0  0  0  0  0  0  0  0  0
   36.3480   29.4050   40.7000 C   0  0  1  0  0  0  0  0  0  0  0  0
   36.9190   27.7970   39.3110 H   0  0  0  0  0  0  0  0  0  0  0  0
   34.5380   28.7750   39.5330 H   0  0  0  0  0  0  0  0  0  0  0  0
   35.2340   30.3980   39.0230 H   0  0  0  0  0  0  0  0  0  0  0  0
   36.9180   30.3010   41.0240 H   0  0  0  0  0  0  0  0  0  0  0  0
   38.8350   31.7400   38.5510 C   0  0  2  0  0  0  0  0  0  0  0  0
   37.4260   31.9960   38.0090 C   0  0  0  0  0  0  0  0  0  0  0  0
   37.1270   30.5580   37.5280 C   0  0  0  0  0  0  0  0  0  0  0  0
   37.7710   29.6710   38.5470 C   0  0  1  0  0  0  0  0  0  0  0  0
   38.5390   30.5800   39.4600 C   0  0  0  0  0  0  0  0  0  0  0  0
   39.4910   31.4340   37.7140 H   0  0  0  0  0  0  0  0  0  0  0  0
   36.7800   32.2380   38.8590 H   0  0  0  0  0  0  0  0  0  0  0  0
   37.4190   32.6990   37.1740 H   0  0  0  0  0  0  0  0  0  0  0  0
   37.7260   30.4500   36.5840 H   0  0  0  0  0  0  0  0  0  0  0  0
   36.0520   30.4090   37.3970 H   0  0  0  0  0  0  0  0  0  0  0  0
   38.4910   28.9500   38.1070 H   0  0  0  0  0  0  0  0  0  0  0  0
   37.9150   30.9310   40.3060 H   0  0  0  0  0  0  0  0  0  0  0  0
   39.4680   30.1060   39.8340 H   0  0  0  0  0  0  0  0  0  0  0  0
   39.1120   34.8330   40.6820 C   0  0  0  0  0  0  0  0  0  0  0  0
   38.5220   33.7430   40.0520 C   0  0  0  0  0  0  0  0  0  0  0  0
   39.3480   32.9240   39.2950 C   0  0  0  0  0  0  0  0  0  0  0  0
   40.7170   33.2040   39.1850 N   0  0  0  0  0  0  0  0  0  0  0  0
   41.2370   34.2860   39.8240 C   0  0  0  0  0  0  0  0  0  0  0  0
   40.4320   35.0910   40.5670 N   0  0  0  0  0  0  0  0  0  0  0  0
   38.5040   35.5020   41.2860 H   0  0  0  0  0  0  0  0  0  0  0  0
   37.4710   33.5180   40.1300 H   0  0  0  0  0  0  0  0  0  0  0  0
   42.2980   34.4660   39.7120 H   0  0  0  0  0  0  0  0  0  0  0  0
   36.0420   28.4510   41.7050 O   0  0  0  0  0  0  0  0  0  0  0  0
   38.1460   29.6790   42.6360 O   0  0  0  0  0  0  0  0  0  0  0  0
   37.3020   28.4410   42.8170 P   0  0  1  0  0  0  0  0  0  0  0  0
   36.6770   28.4840   44.4140 O   0  0  0  0  0  0  0  0  0  0  0  0
   36.4660   27.5680   44.6850 H   0  0  0  0  0  0  0  0  0  0  0  0
   38.2870   27.1100   42.7210 O   0  0  0  0  0  0  0  0  0  0  0  0
   36.4790   24.1340   39.8480 H   0  0  0  0  0  0  0  0  0  0  0  0
   37.1700   24.3140   40.6040 N   0  0  0  0  0  0  0  0  0  0  0  0
   37.1950   25.5570   41.0730 C   0  0  0  0  0  3  0  0  0  0  0  0
   38.0790   25.9120   42.0840 C   0  0  0  0  0  0  0  0  0  0  0  0
   38.9240   24.9140   42.5750 C   0  0  0  0  0  0  0  0  0  0  0  0
   39.7990   25.0060   43.4830 O   0  0  0  0  0  0  0  0  0  0  0  0
   38.8630   23.6530   42.0640 N   0  0  0  0  0  0  0  0  0  0  0  0
   37.9890   23.3690   41.0870 C   0  0  0  0  0  0  0  0  0  0  0  0
   37.8850   22.2170   40.5720 O   0  0  0  0  0  0  0  0  0  0  0  0
   39.4590   22.8560   42.3750 H   0  0  0  0  0  0  0  0  0  0  0  0
  1  4  1  6  0  0  0
  1  2  1  0  0  0  0
  1  3  1  0  0  0  0
  2  5  1  0  0  0  0
  2  3  1  0  0  0  0
  3  7  1  1  0  0  0
  3 30  1  0  0  0  0
  6  2  1  0  0  0  0
  8 13  1  6  0  0  0
  8 23  1  0  0  0  0
  8 12  1  0  0  0  0
  9  8  1  0  0  0  0
  9 14  1  0  0  0  0
 10  9  1  0  0  0  0
 10 11  1  0  0  0  0
 11 18  1  6  0  0  0
 11  1  1  0  0  0  0
 11 12  1  0  0  0  0
 12 20  1  0  0  0  0
 12 19  1  0  0  0  0
 15  9  1  0  0  0  0
 16 10  1  0  0  0  0
 17 10  1  0  0  0  0
 21 27  1  0  0  0  0
 22 28  1  0  0  0  0
 22 21  2  0  0  0  0
 23 22  1  0  0  0  0
 24 23  2  0  0  0  0
 24 25  1  0  0  0  0
 25 26  2  0  0  0  0
 26 21  1  0  0  0  0
 29 25  1  0  0  0  0
 30 32  1  0  0  0  0
 32 31  2  6  0  0  0
 32 33  1  0  0  0  0
 33 34  1  0  0  0  0
 35 32  1  0  0  0  0
 36 37  1  0  0  0  0
 37 38  1  0  0  0  0
 37 43  1  0  0  0  0
 38 39  2  0  0  0  0
 39 40  1  0  0  0  0
 39 35  1  0  0  0  0
 40 41  2  0  0  0  0
 42 45  1  0  0  0  0
 42 40  1  0  0  0  0
 43 42  1  0  0  0  0
 44 43  2  0  0  0  0
M  END
>  <minimizedAffinity>
-6.37889481

$$$$

 OpenBabel03252507563D

 45 48  0  0  1  0  0  0  0  0999 V2000
   38.5260   28.7910   43.0990 C   0  0  2  0  0  0  0  0  0  0  0  0
   37.2550   28.1820   43.4620 C   0  0  0  0  0  0  0  0  0  0  0  0
   37.4020   28.9240   42.1710 C   0  0  1  0  0  0  0  0  0  0  0  0
   38.8410   29.6990   43.6450 H   0  0  0  0  0  0  0  0  0  0  0  0
   36.5650   28.6270   44.2320 H   0  0  0  0  0  0  0  0  0  0  0  0
   37.1670   27.0840   43.4350 H   0  0  0  0  0  0  0  0  0  0  0  0
   37.5820   28.3980   41.2110 H   0  0  0  0  0  0  0  0  0  0  0  0
   39.9990   25.7430   41.8670 C   0  0  2  0  0  0  0  0  0  0  0  0
   39.5080   25.4780   43.2930 C   0  0  0  0  0  0  0  0  0  0  0  0
   39.9180   26.8360   43.9060 C   0  0  0  0  0  0  0  0  0  0  0  0
   39.6670   27.8380   42.8230 C   0  0  1  0  0  0  0  0  0  0  0  0
   39.2950   27.0450   41.6050 C   0  0  0  0  0  0  0  0  0  0  0  0
   41.0970   25.8800   41.8840 H   0  0  0  0  0  0  0  0  0  0  0  0
   38.4170   25.4060   43.2620 H   0  0  0  0  0  0  0  0  0  0  0  0
   40.0390   24.6540   43.7720 H   0  0  0  0  0  0  0  0  0  0  0  0
   41.0330   26.7630   44.0240 H   0  0  0  0  0  0  0  0  0  0  0  0
   39.3790   27.0170   44.8400 H   0  0  0  0  0  0  0  0  0  0  0  0
   40.5620   28.4430   42.5710 H   0  0  0  0  0  0  0  0  0  0  0  0
   38.2030   26.8640   41.5540 H   0  0  0  0  0  0  0  0  0  0  0  0
   39.6530   27.5240   40.6730 H   0  0  0  0  0  0  0  0  0  0  0  0
   39.5770   23.4930   38.8760 C   0  0  0  0  0  0  0  0  0  0  0  0
   40.0850   24.5210   39.6620 C   0  0  0  0  0  0  0  0  0  0  0  0
   39.5580   24.6670   40.9370 C   0  0  0  0  0  0  0  0  0  0  0  0
   38.5540   23.8000   41.3920 N   0  0  0  0  0  0  0  0  0  0  0  0
   38.0950   22.8130   40.5780 C   0  0  0  0  0  0  0  0  0  0  0  0
   38.6080   22.6660   39.3280 N   0  0  0  0  0  0  0  0  0  0  0  0
   39.9600   23.3410   37.8700 H   0  0  0  0  0  0  0  0  0  0  0  0
   40.8570   25.1930   39.3220 H   0  0  0  0  0  0  0  0  0  0  0  0
   37.3200   22.1670   40.9680 H   0  0  0  0  0  0  0  0  0  0  0  0
   36.7750   30.1950   42.0900 O   0  0  0  0  0  0  0  0  0  0  0  0
   35.7890   30.1730   39.6770 O   0  0  0  0  0  0  0  0  0  0  0  0
   36.9100   30.7450   40.5080 P   0  0  1  0  0  0  0  0  0  0  0  0
   36.7520   32.4530   40.4650 O   0  0  0  0  0  0  0  0  0  0  0  0
   37.6280   32.8460   40.6480 H   0  0  0  0  0  0  0  0  0  0  0  0
   38.3520   30.3750   39.7780 O   0  0  0  0  0  0  0  0  0  0  0  0
   39.7770   32.6020   36.1190 H   0  0  0  0  0  0  0  0  0  0  0  0
   39.9540   32.3410   37.1100 N   0  0  0  0  0  0  0  0  0  0  0  0
   39.0290   31.5700   37.6720 C   0  0  0  0  0  3  0  0  0  0  0  0
   39.1600   31.1580   38.9920 C   0  0  0  0  0  0  0  0  0  0  0  0
   40.2950   31.5860   39.6860 C   0  0  0  0  0  0  0  0  0  0  0  0
   40.6200   31.3390   40.8820 O   0  0  0  0  0  0  0  0  0  0  0  0
   41.2170   32.3760   39.0690 N   0  0  0  0  0  0  0  0  0  0  0  0
   41.0360   32.7420   37.7910 C   0  0  0  0  0  0  0  0  0  0  0  0
   41.8570   33.4740   37.1640 O   0  0  0  0  0  0  0  0  0  0  0  0
   42.0870   32.7370   39.5170 H   0  0  0  0  0  0  0  0  0  0  0  0
  1  2  1  0  0  0  0
  1  4  1  1  0  0  0
  2  5  1  0  0  0  0
  3  7  1  6  0  0  0
  3  1  1  0  0  0  0
  3  2  1  0  0  0  0
  6  2  1  0  0  0  0
  8 13  1  6  0  0  0
  8  9  1  0  0  0  0
  9 15  1  0  0  0  0
  9 10  1  0  0  0  0
 10 16  1  0  0  0  0
 10 17  1  0  0  0  0
 11 18  1  6  0  0  0
 11  1  1  0  0  0  0
 11 10  1  0  0  0  0
 12  8  1  0  0  0  0
 12 11  1  0  0  0  0
 14  9  1  0  0  0  0
 19 12  1  0  0  0  0
 20 12  1  0  0  0  0
 21 26  2  0  0  0  0
 21 22  1  0  0  0  0
 22 23  2  0  0  0  0
 23 24  1  0  0  0  0
 23  8  1  0  0  0  0
 25 29  1  0  0  0  0
 25 24  2  0  0  0  0
 26 25  1  0  0  0  0
 27 21  1  0  0  0  0
 28 22  1  0  0  0  0
 30  3  1  0  0  0  0
 32 31  2  6  0  0  0
 32 30  1  0  0  0  0
 33 32  1  0  0  0  0
 33 34  1  0  0  0  0
 35 32  1  0  0  0  0
 36 37  1  0  0  0  0
 37 38  1  0  0  0  0
 37 43  1  0  0  0  0
 38 39  2  0  0  0  0
 39 40  1  0  0  0  0
 39 35  1  0  0  0  0
 40 41  2  0  0  0  0
 42 45  1  0  0  0  0
 42 40  1  0  0  0  0
 43 42  1  0  0  0  0
 44 43  2  0  0  0  0
M  END
>  <minimizedAffinity>
-6.34378529

$$$$

 OpenBabel03252507563D

 45 48  0  0  1  0  0  0  0  0999 V2000
   36.2970   28.0280   41.1040 C   0  0  2  0  0  0  0  0  0  0  0  0
   36.5470   27.1740   39.9530 C   0  0  0  0  0  0  0  0  0  0  0  0
   37.1910   28.5200   40.0550 C   0  0  1  0  0  0  0  0  0  0  0  0
   35.3050   28.5090   41.1890 H   0  0  0  0  0  0  0  0  0  0  0  0
   35.7940   27.0280   39.1290 H   0  0  0  0  0  0  0  0  0  0  0  0
   37.1720   26.2760   40.0860 H   0  0  0  0  0  0  0  0  0  0  0  0
   38.2350   28.6440   40.4120 H   0  0  0  0  0  0  0  0  0  0  0  0
   38.8910   27.1590   43.4480 C   0  0  2  0  0  0  0  0  0  0  0  0
   38.6300   25.9330   42.5690 C   0  0  0  0  0  0  0  0  0  0  0  0
   37.0920   26.0630   42.4890 C   0  0  0  0  0  0  0  0  0  0  0  0
   36.8330   27.5360   42.4290 C   0  0  1  0  0  0  0  0  0  0  0  0
   38.1630   28.1970   42.6400 C   0  0  0  0  0  0  0  0  0  0  0  0
   38.4060   27.0070   44.4310 H   0  0  0  0  0  0  0  0  0  0  0  0
   39.0640   26.1290   41.5840 H   0  0  0  0  0  0  0  0  0  0  0  0
   38.9200   25.0000   43.0550 H   0  0  0  0  0  0  0  0  0  0  0  0
   36.7300   25.7140   43.4930 H   0  0  0  0  0  0  0  0  0  0  0  0
   36.6980   25.4890   41.6450 H   0  0  0  0  0  0  0  0  0  0  0  0
   36.1500   27.8930   43.2270 H   0  0  0  0  0  0  0  0  0  0  0  0
   38.6980   28.3530   41.6820 H   0  0  0  0  0  0  0  0  0  0  0  0
   38.0690   29.1530   43.1910 H   0  0  0  0  0  0  0  0  0  0  0  0
   42.5540   27.0150   44.3120 C   0  0  0  0  0  0  0  0  0  0  0  0
   41.2180   26.6330   44.2660 C   0  0  0  0  0  0  0  0  0  0  0  0
   40.3490   27.4450   43.5520 C   0  0  0  0  0  0  0  0  0  0  0  0
   40.8210   28.5990   42.9120 N   0  0  0  0  0  0  0  0  0  0  0  0
   42.1400   28.9240   42.9930 C   0  0  0  0  0  0  0  0  0  0  0  0
   42.9950   28.1310   43.6910 N   0  0  0  0  0  0  0  0  0  0  0  0
   43.2720   26.4090   44.8590 H   0  0  0  0  0  0  0  0  0  0  0  0
   40.8440   25.7470   44.7540 H   0  0  0  0  0  0  0  0  0  0  0  0
   42.4620   29.8220   42.4850 H   0  0  0  0  0  0  0  0  0  0  0  0
   36.6890   29.5340   39.1980 O   0  0  0  0  0  0  0  0  0  0  0  0
   36.9000   32.1130   38.8740 O   0  0  0  0  0  0  0  0  0  0  0  0
   36.9970   31.0230   39.9140 P   0  0  1  0  0  0  0  0  0  0  0  0
   35.8110   31.3570   41.1080 O   0  0  0  0  0  0  0  0  0  0  0  0
   36.0880   30.9290   41.9420 H   0  0  0  0  0  0  0  0  0  0  0  0
   38.4750   31.1310   40.6580 O   0  0  0  0  0  0  0  0  0  0  0  0
   40.0300   35.3420   41.1290 H   0  0  0  0  0  0  0  0  0  0  0  0
   40.2420   34.3500   40.9030 N   0  0  0  0  0  0  0  0  0  0  0  0
   39.2080   33.5160   40.9550 C   0  0  0  0  0  3  0  0  0  0  0  0
   39.3740   32.1670   40.6710 C   0  0  0  0  0  0  0  0  0  0  0  0
   40.6600   31.7370   40.3330 C   0  0  0  0  0  0  0  0  0  0  0  0
   41.0430   30.5690   40.0410 O   0  0  0  0  0  0  0  0  0  0  0  0
   41.6900   32.6270   40.2930 N   0  0  0  0  0  0  0  0  0  0  0  0
   41.4690   33.9190   40.5770 C   0  0  0  0  0  0  0  0  0  0  0  0
   42.3850   34.7930   40.5560 O   0  0  0  0  0  0  0  0  0  0  0  0
   42.6750   32.3860   40.0510 H   0  0  0  0  0  0  0  0  0  0  0  0
  1  4  1  1  0  0  0
  1 11  1  0  0  0  0
  2  3  1  0  0  0  0
  2  6  1  0  0  0  0
  2  1  1  0  0  0  0
  3  7  1  1  0  0  0
  3  1  1  0  0  0  0
  5  2  1  0  0  0  0
  8 23  1  0  0  0  0
  8 13  1  1  0  0  0
  9 15  1  0  0  0  0
  9  8  1  0  0  0  0
 10  9  1  0  0  0  0
 10 16  1  0  0  0  0
 11 10  1  0  0  0  0
 11 12  1  0  0  0  0
 11 18  1  1  0  0  0
 12 20  1  0  0  0  0
 12  8  1  0  0  0  0
 14  9  1  0  0  0  0
 17 10  1  0  0  0  0
 19 12  1  0  0  0  0
 21 27  1  0  0  0  0
 22 21  1  0  0  0  0
 22 28  1  0  0  0  0
 23 22  2  0  0  0  0
 24 25  2  0  0  0  0
 24 23  1  0  0  0  0
 25 26  1  0  0  0  0
 26 21  2  0  0  0  0
 29 25  1  0  0  0  0
 30 32  1  0  0  0  0
 30  3  1  0  0  0  0
 32 31  2  6  0  0  0
 32 35  1  0  0  0  0
 32 33  1  0  0  0  0
 33 34  1  0  0  0  0
 35 39  1  0  0  0  0
 37 38  1  0  0  0  0
 37 36  1  0  0  0  0
 39 38  2  0  0  0  0
 40 39  1  0  0  0  0
 41 40  2  0  0  0  0
 42 40  1  0  0  0  0
 42 43  1  0  0  0  0
 43 37  1  0  0  0  0
 44 43  2  0  0  0  0
 45 42  1  0  0  0  0
M  END
>  <minimizedAffinity>
-6.26961279

$$$$

 OpenBabel03252507563D

 45 48  0  0  1  0  0  0  0  0999 V2000
   36.8110   27.5840   42.2680 C   0  0  2  0  0  0  0  0  0  0  0  0
   36.9810   26.1480   42.1090 C   0  0  0  0  0  0  0  0  0  0  0  0
   37.2620   27.0790   40.9710 C   0  0  1  0  0  0  0  0  0  0  0  0
   35.7810   27.9820   42.3250 H   0  0  0  0  0  0  0  0  0  0  0  0
   36.1120   25.4420   41.9900 H   0  0  0  0  0  0  0  0  0  0  0  0
   37.8280   25.6560   42.6130 H   0  0  0  0  0  0  0  0  0  0  0  0
   38.2930   27.4060   40.7240 H   0  0  0  0  0  0  0  0  0  0  0  0
   39.6340   29.6490   43.1300 C   0  0  2  0  0  0  0  0  0  0  0  0
   40.1530   28.2280   42.8940 C   0  0  0  0  0  0  0  0  0  0  0  0
   38.9850   27.4690   43.5620 C   0  0  0  0  0  0  0  0  0  0  0  0
   37.7640   28.2670   43.2220 C   0  0  1  0  0  0  0  0  0  0  0  0
   38.2600   29.5080   42.5390 C   0  0  0  0  0  0  0  0  0  0  0  0
   39.5830   29.8360   44.2200 H   0  0  0  0  0  0  0  0  0  0  0  0
   40.1400   28.0430   41.8160 H   0  0  0  0  0  0  0  0  0  0  0  0
   41.0950   28.0340   43.4120 H   0  0  0  0  0  0  0  0  0  0  0  0
   39.1590   27.6030   44.6630 H   0  0  0  0  0  0  0  0  0  0  0  0
   38.9620   26.4270   43.2340 H   0  0  0  0  0  0  0  0  0  0  0  0
   37.1860   28.5820   44.1150 H   0  0  0  0  0  0  0  0  0  0  0  0
   38.3480   29.3630   41.4440 H   0  0  0  0  0  0  0  0  0  0  0  0
   37.6250   30.3870   42.7640 H   0  0  0  0  0  0  0  0  0  0  0  0
   42.3760   32.0180   42.1040 C   0  0  0  0  0  0  0  0  0  0  0  0
   41.7080   31.0580   42.8560 C   0  0  0  0  0  0  0  0  0  0  0  0
   40.4610   30.6510   42.4030 C   0  0  0  0  0  0  0  0  0  0  0  0
   39.9170   31.2010   41.2340 N   0  0  0  0  0  0  0  0  0  0  0  0
   40.6170   32.1390   40.5410 C   0  0  0  0  0  0  0  0  0  0  0  0
   41.8400   32.5400   40.9800 N   0  0  0  0  0  0  0  0  0  0  0  0
   43.3570   32.3670   42.4200 H   0  0  0  0  0  0  0  0  0  0  0  0
   42.1170   30.6280   43.7560 H   0  0  0  0  0  0  0  0  0  0  0  0
   40.1610   32.5370   39.6450 H   0  0  0  0  0  0  0  0  0  0  0  0
   36.3210   27.0880   39.9090 O   0  0  0  0  0  0  0  0  0  0  0  0
   38.4540   28.1740   38.8730 O   0  0  0  0  0  0  0  0  0  0  0  0
   36.9780   27.9720   38.6380 P   0  0  1  0  0  0  0  0  0  0  0  0
   36.8140   27.1000   37.1700 O   0  0  0  0  0  0  0  0  0  0  0  0
   35.9260   27.2820   36.8030 H   0  0  0  0  0  0  0  0  0  0  0  0
   36.2720   29.4530   38.4010 O   0  0  0  0  0  0  0  0  0  0  0  0
   36.6780   32.7630   41.4440 H   0  0  0  0  0  0  0  0  0  0  0  0
   36.8510   32.4410   40.4700 N   0  0  0  0  0  0  0  0  0  0  0  0
   36.4340   31.2110   40.1900 C   0  0  0  0  0  3  0  0  0  0  0  0
   36.6110   30.6770   38.9200 C   0  0  0  0  0  0  0  0  0  0  0  0
   37.2400   31.4840   37.9680 C   0  0  0  0  0  0  0  0  0  0  0  0
   37.5070   31.2110   36.7640 O   0  0  0  0  0  0  0  0  0  0  0  0
   37.6520   32.7390   38.3010 N   0  0  0  0  0  0  0  0  0  0  0  0
   37.4530   33.2010   39.5440 C   0  0  0  0  0  0  0  0  0  0  0  0
   37.8130   34.3580   39.9120 O   0  0  0  0  0  0  0  0  0  0  0  0
   38.1280   33.4010   37.6500 H   0  0  0  0  0  0  0  0  0  0  0  0
  1  4  1  1  0  0  0
  1 11  1  0  0  0  0
  2  1  1  0  0  0  0
  2  6  1  0  0  0  0
  3  7  1  6  0  0  0
  3  2  1  0  0  0  0
  3  1  1  0  0  0  0
  5  2  1  0  0  0  0
  8 13  1  1  0  0  0
  9  8  1  0  0  0  0
  9 15  1  0  0  0  0
  9 10  1  0  0  0  0
 10 16  1  0  0  0  0
 11 10  1  0  0  0  0
 11 18  1  1  0  0  0
 12 20  1  0  0  0  0
 12  8  1  0  0  0  0
 12 11  1  0  0  0  0
 14  9  1  0  0  0  0
 17 10  1  0  0  0  0
 19 12  1  0  0  0  0
 21 27  1  0  0  0  0
 21 22  1  0  0  0  0
 22 28  1  0  0  0  0
 23 22  2  0  0  0  0
 23  8  1  0  0  0  0
 24 23  1  0  0  0  0
 25 26  1  0  0  0  0
 25 24  2  0  0  0  0
 26 21  2  0  0  0  0
 29 25  1  0  0  0  0
 30  3  1  0  0  0  0
 32 31  2  1  0  0  0
 32 30  1  0  0  0  0
 33 32  1  0  0  0  0
 34 33  1  0  0  0  0
 35 32  1  0  0  0  0
 35 39  1  0  0  0  0
 37 36  1  0  0  0  0
 38 37  1  0  0  0  0
 39 38  2  0  0  0  0
 40 42  1  0  0  0  0
 40 39  1  0  0  0  0
 41 40  2  0  0  0  0
 42 43  1  0  0  0  0
 43 44  2  0  0  0  0
 43 37  1  0  0  0  0
 45 42  1  0  0  0  0
M  END
>  <minimizedAffinity>
-6.19736719

$$$$

 OpenBabel03252507563D

 45 48  0  0  1  0  0  0  0  0999 V2000
   38.9790   27.3690   42.3380 C   0  0  2  0  0  0  0  0  0  0  0  0
   38.3880   27.3570   43.6670 C   0  0  0  0  0  0  0  0  0  0  0  0
   37.6770   28.0110   42.5240 C   0  0  1  0  0  0  0  0  0  0  0  0
   39.8480   28.0290   42.1620 H   0  0  0  0  0  0  0  0  0  0  0  0
   38.7460   28.0270   44.4980 H   0  0  0  0  0  0  0  0  0  0  0  0
   37.9930   26.4070   44.0630 H   0  0  0  0  0  0  0  0  0  0  0  0
   36.8680   27.4960   41.9670 H   0  0  0  0  0  0  0  0  0  0  0  0
   37.7810   24.5720   40.4100 C   0  0  2  0  0  0  0  0  0  0  0  0
   37.4260   24.3110   41.8760 C   0  0  0  0  0  0  0  0  0  0  0  0
   38.7300   24.8540   42.5020 C   0  0  0  0  0  0  0  0  0  0  0  0
   39.1050   26.0270   41.6520 C   0  0  1  0  0  0  0  0  0  0  0  0
   38.1410   26.0280   40.5020 C   0  0  0  0  0  0  0  0  0  0  0  0
   38.6620   23.9590   40.1390 H   0  0  0  0  0  0  0  0  0  0  0  0
   36.5920   24.9690   42.1400 H   0  0  0  0  0  0  0  0  0  0  0  0
   37.2980   23.2490   42.0940 H   0  0  0  0  0  0  0  0  0  0  0  0
   39.4910   24.0540   42.2990 H   0  0  0  0  0  0  0  0  0  0  0  0
   38.5860   25.0780   43.5630 H   0  0  0  0  0  0  0  0  0  0  0  0
   40.1290   25.9540   41.2330 H   0  0  0  0  0  0  0  0  0  0  0  0
   37.2300   26.6150   40.7330 H   0  0  0  0  0  0  0  0  0  0  0  0
   38.6100   26.3940   39.5680 H   0  0  0  0  0  0  0  0  0  0  0  0
   34.6070   23.2330   38.8860 C   0  0  0  0  0  0  0  0  0  0  0  0
   35.6430   23.3790   39.8020 C   0  0  0  0  0  0  0  0  0  0  0  0
   36.6090   24.3360   39.5220 C   0  0  0  0  0  0  0  0  0  0  0  0
   36.5220   25.1110   38.3580 N   0  0  0  0  0  0  0  0  0  0  0  0
   35.4850   24.9230   37.4970 C   0  0  0  0  0  0  0  0  0  0  0  0
   34.5370   23.9870   37.7670 N   0  0  0  0  0  0  0  0  0  0  0  0
   33.8280   22.4960   39.0640 H   0  0  0  0  0  0  0  0  0  0  0  0
   35.7200   22.7890   40.7010 H   0  0  0  0  0  0  0  0  0  0  0  0
   35.4570   25.5420   36.6110 H   0  0  0  0  0  0  0  0  0  0  0  0
   37.6480   29.4300   42.5200 O   0  0  0  0  0  0  0  0  0  0  0  0
   36.1230   28.7680   40.5120 O   0  0  0  0  0  0  0  0  0  0  0  0
   36.8640   29.9320   41.1210 P   0  0  1  0  0  0  0  0  0  0  0  0
   35.6970   31.1320   41.5000 O   0  0  0  0  0  0  0  0  0  0  0  0
   36.1480   31.9990   41.5270 H   0  0  0  0  0  0  0  0  0  0  0  0
   37.8680   30.5810   39.9720 O   0  0  0  0  0  0  0  0  0  0  0  0
   41.6500   32.8960   40.8190 H   0  0  0  0  0  0  0  0  0  0  0  0
   40.6660   32.9170   40.4820 N   0  0  0  0  0  0  0  0  0  0  0  0
   40.0340   31.7480   40.4860 C   0  0  0  0  0  3  0  0  0  0  0  0
   38.7160   31.6560   40.0580 C   0  0  0  0  0  0  0  0  0  0  0  0
   38.0990   32.8350   39.6300 C   0  0  0  0  0  0  0  0  0  0  0  0
   36.9200   32.9900   39.2020 O   0  0  0  0  0  0  0  0  0  0  0  0
   38.7860   34.0110   39.6430 N   0  0  0  0  0  0  0  0  0  0  0  0
   40.0580   34.0370   40.0680 C   0  0  0  0  0  0  0  0  0  0  0  0
   40.7480   35.0990   40.1040 O   0  0  0  0  0  0  0  0  0  0  0  0
   38.3980   34.9300   39.3410 H   0  0  0  0  0  0  0  0  0  0  0  0
  1  4  1  6  0  0  0
  1  3  1  0  0  0  0
  1  2  1  0  0  0  0
  2  6  1  0  0  0  0
  2  5  1  0  0  0  0
  3  7  1  6  0  0  0
  3  2  1  0  0  0  0
  8 13  1  6  0  0  0
  8 12  1  0  0  0  0
  8  9  1  0  0  0  0
  9 15  1  0  0  0  0
  9 14  1  0  0  0  0
  9 10  1  0  0  0  0
 10 17  1  0  0  0  0
 11 18  1  6  0  0  0
 11  1  1  0  0  0  0
 11 10  1  0  0  0  0
 12 19  1  0  0  0  0
 12 11  1  0  0  0  0
 16 10  1  0  0  0  0
 20 12  1  0  0  0  0
 21 27  1  0  0  0  0
 21 22  1  0  0  0  0
 22 28  1  0  0  0  0
 23 22  2  0  0  0  0
 23  8  1  0  0  0  0
 24 23  1  0  0  0  0
 25 26  1  0  0  0  0
 25 24  2  0  0  0  0
 26 21  2  0  0  0  0
 29 25  1  0  0  0  0
 30  3  1  0  0  0  0
 32 31  2  6  0  0  0
 32 33  1  0  0  0  0
 32 30  1  0  0  0  0
 33 34  1  0  0  0  0
 35 39  1  0  0  0  0
 35 32  1  0  0  0  0
 37 38  1  0  0  0  0
 37 36  1  0  0  0  0
 39 38  2  0  0  0  0
 40 42  1  0  0  0  0
 40 39  1  0  0  0  0
 41 40  2  0  0  0  0
 42 43  1  0  0  0  0
 43 44  2  0  0  0  0
 43 37  1  0  0  0  0
 45 42  1  0  0  0  0
M  END
>  <minimizedAffinity>
-6.10477591

$$$$

 OpenBabel03252507563D

 45 48  0  0  1  0  0  0  0  0999 V2000
   37.0500   28.9150   39.8490 C   0  0  2  0  0  0  0  0  0  0  0  0
   35.8360   28.1140   39.8690 C   0  0  0  0  0  0  0  0  0  0  0  0
   36.5540   28.4390   41.1410 C   0  0  1  0  0  0  0  0  0  0  0  0
   37.9740   28.4490   39.4590 H   0  0  0  0  0  0  0  0  0  0  0  0
   35.8150   27.0330   39.5560 H   0  0  0  0  0  0  0  0  0  0  0  0
   34.8720   28.6070   39.6640 H   0  0  0  0  0  0  0  0  0  0  0  0
   36.2280   29.2690   41.8010 H   0  0  0  0  0  0  0  0  0  0  0  0
   38.2190   32.2410   39.1080 C   0  0  2  0  0  0  0  0  0  0  0  0
   37.9550   32.1670   40.6140 C   0  0  0  0  0  0  0  0  0  0  0  0
   36.6660   31.3170   40.5540 C   0  0  0  0  0  0  0  0  0  0  0  0
   36.8900   30.3580   39.4270 C   0  0  1  0  0  0  0  0  0  0  0  0
   38.1790   30.7740   38.7810 C   0  0  0  0  0  0  0  0  0  0  0  0
   37.3840   32.7810   38.6230 H   0  0  0  0  0  0  0  0  0  0  0  0
   38.7600   31.5780   41.0660 H   0  0  0  0  0  0  0  0  0  0  0  0
   37.7590   33.1470   41.0540 H   0  0  0  0  0  0  0  0  0  0  0  0
   35.8740   32.0350   40.2120 H   0  0  0  0  0  0  0  0  0  0  0  0
   36.4630   30.8530   41.5230 H   0  0  0  0  0  0  0  0  0  0  0  0
   36.0960   30.4000   38.6530 H   0  0  0  0  0  0  0  0  0  0  0  0
   39.0490   30.2730   39.2480 H   0  0  0  0  0  0  0  0  0  0  0  0
   38.1700   30.5980   37.6880 H   0  0  0  0  0  0  0  0  0  0  0  0
   41.6200   32.9940   37.6750 C   0  0  0  0  0  0  0  0  0  0  0  0
   40.3910   32.3630   37.8310 C   0  0  0  0  0  0  0  0  0  0  0  0
   39.5500   32.8450   38.8240 C   0  0  0  0  0  0  0  0  0  0  0  0
   39.9460   33.9250   39.6250 N   0  0  0  0  0  0  0  0  0  0  0  0
   41.1620   34.5020   39.4280 C   0  0  0  0  0  0  0  0  0  0  0  0
   41.9890   34.0330   38.4560 N   0  0  0  0  0  0  0  0  0  0  0  0
   42.3110   32.6510   36.9090 H   0  0  0  0  0  0  0  0  0  0  0  0
   40.0760   31.5330   37.2200 H   0  0  0  0  0  0  0  0  0  0  0  0
   41.4280   35.3320   40.0680 H   0  0  0  0  0  0  0  0  0  0  0  0
   37.2680   27.3790   41.7590 O   0  0  0  0  0  0  0  0  0  0  0  0
   38.2040   29.2790   43.2810 O   0  0  0  0  0  0  0  0  0  0  0  0
   37.6800   27.8650   43.3150 P   0  0  1  0  0  0  0  0  0  0  0  0
   36.2880   27.8640   44.3180 O   0  0  0  0  0  0  0  0  0  0  0  0
   36.1600   26.9580   44.6630 H   0  0  0  0  0  0  0  0  0  0  0  0
   38.8080   26.9000   44.0540 O   0  0  0  0  0  0  0  0  0  0  0  0
   43.1670   27.7820   43.2770 H   0  0  0  0  0  0  0  0  0  0  0  0
   42.4050   27.0730   43.2960 N   0  0  0  0  0  0  0  0  0  0  0  0
   41.2090   27.5270   43.6560 C   0  0  0  0  0  3  0  0  0  0  0  0
   40.1180   26.6700   43.7170 C   0  0  0  0  0  0  0  0  0  0  0  0
   40.3370   25.3300   43.3860 C   0  0  0  0  0  0  0  0  0  0  0  0
   39.5020   24.3810   43.3720 O   0  0  0  0  0  0  0  0  0  0  0  0
   41.5810   24.9100   43.0240 N   0  0  0  0  0  0  0  0  0  0  0  0
   42.5970   25.7840   42.9830 C   0  0  0  0  0  0  0  0  0  0  0  0
   43.7740   25.4540   42.6530 O   0  0  0  0  0  0  0  0  0  0  0  0
   41.8250   23.9300   42.7640 H   0  0  0  0  0  0  0  0  0  0  0  0
  1  4  1  6  0  0  0
  1  2  1  0  0  0  0
  1  3  1  0  0  0  0
  2  3  1  0  0  0  0
  3 30  1  0  0  0  0
  3  7  1  1  0  0  0
  5  2  1  0  0  0  0
  6  2  1  0  0  0  0
  8 13  1  6  0  0  0
  8  9  1  0  0  0  0
  9 15  1  0  0  0  0
  9 14  1  0  0  0  0
 10  9  1  0  0  0  0
 10 17  1  0  0  0  0
 11 18  1  6  0  0  0
 11  1  1  0  0  0  0
 11 10  1  0  0  0  0
 12  8  1  0  0  0  0
 12 19  1  0  0  0  0
 12 11  1  0  0  0  0
 16 10  1  0  0  0  0
 20 12  1  0  0  0  0
 21 22  2  0  0  0  0
 21 26  1  0  0  0  0
 22 23  1  0  0  0  0
 23  8  1  0  0  0  0
 23 24  2  0  0  0  0
 25 24  1  0  0  0  0
 25 29  1  0  0  0  0
 26 25  2  0  0  0  0
 27 21  1  0  0  0  0
 28 22  1  0  0  0  0
 30 32  1  0  0  0  0
 32 31  2  6  0  0  0
 32 35  1  0  0  0  0
 32 33  1  0  0  0  0
 33 34  1  0  0  0  0
 36 37  1  0  0  0  0
 37 38  1  0  0  0  0
 38 39  2  0  0  0  0
 39 35  1  0  0  0  0
 40 39  1  0  0  0  0
 41 40  2  0  0  0  0
 42 40  1  0  0  0  0
 43 42  1  0  0  0  0
 43 37  1  0  0  0  0
 44 43  2  0  0  0  0
 45 42  1  0  0  0  0
M  END
>  <minimizedAffinity>
-6.0974369

$$$$
