
 OpenBabel03252504273D

 23 24  0  0  0  0  0  0  0  0999 V2000
   43.4910   35.6310   41.1980 C   0  0  0  0  0  0  0  0  0  0  0  0
   43.5070   35.0760   40.2350 H   0  0  0  0  0  0  0  0  0  0  0  0
   43.6750   36.7000   40.9010 H   0  0  0  0  0  0  0  0  0  0  0  0
   44.4800   35.2800   43.3670 C   0  0  0  0  0  0  0  0  0  0  0  0
   44.5950   35.1070   42.0050 C   0  0  0  0  0  0  0  0  0  0  0  0
   45.7250   34.4630   41.5410 C   0  0  0  0  0  0  0  0  0  0  0  0
   46.6400   34.0490   42.4460 N   0  0  0  0  0  0  0  0  0  0  0  0
   46.5040   34.2280   43.7680 C   0  0  0  0  0  0  0  0  0  0  0  0
   45.3980   34.8640   44.2880 N   0  0  0  0  0  0  0  0  0  0  0  0
   43.6190   35.7780   43.8410 H   0  0  0  0  0  0  0  0  0  0  0  0
   45.8010   34.3360   40.4740 H   0  0  0  0  0  0  0  0  0  0  0  0
   47.3740   33.8050   44.2660 H   0  0  0  0  0  0  0  0  0  0  0  0
   42.2380   35.4470   41.7610 O   0  0  0  0  0  0  0  0  0  0  0  0
   40.1250   31.7670   40.2200 H   0  0  0  0  0  0  0  0  0  0  0  0
   40.1980   32.8100   40.3540 N   0  0  0  0  0  0  0  0  0  0  0  0
   41.2180   33.3780   40.9920 C   0  0  0  0  0  3  0  0  0  0  0  0
   41.2250   34.7520   41.1170 C   0  0  0  0  0  0  0  0  0  0  0  0
   40.1610   35.4550   40.5680 C   0  0  0  0  0  0  0  0  0  0  0  0
   40.1680   36.7120   40.6840 O   0  0  0  0  0  0  0  0  0  0  0  0
   39.1380   34.8510   39.9260 N   0  0  0  0  0  0  0  0  0  0  0  0
   39.1670   33.4930   39.8230 C   0  0  0  0  0  0  0  0  0  0  0  0
   38.1860   32.9940   39.2140 O   0  0  0  0  0  0  0  0  0  0  0  0
   38.3440   35.4110   39.5200 H   0  0  0  0  0  0  0  0  0  0  0  0
  1 13  1  0  0  0  0
  1  5  1  0  0  0  0
  2  1  1  0  0  0  0
  3  1  1  0  0  0  0
  4 10  1  0  0  0  0
  4  9  1  0  0  0  0
  5  4  2  0  0  0  0
  6  5  1  0  0  0  0
  6  7  2  0  0  0  0
  7  8  1  0  0  0  0
  8 12  1  0  0  0  0
  8  9  2  0  0  0  0
 11  6  1  0  0  0  0
 14 15  1  0  0  0  0
 15 16  1  0  0  0  0
 16 17  2  0  0  0  0
 17 13  1  0  0  0  0
 18 19  2  0  0  0  0
 18 17  1  0  0  0  0
 20 18  1  0  0  0  0
 21 20  1  0  0  0  0
 21 15  1  0  0  0  0
 22 21  2  0  0  0  0
 23 20  1  0  0  0  0
M  END
>  <minimizedAffinity>
-4.36798286

>  <minimizedRMSD>
2.85976553

$$$$
