
 OpenBabel03252509003D

 46 48  0  0  1  0  0  0  0  0999 V2000
   47.1730   34.1560   43.0880 N   0  0  0  0  0  0  0  0  0  0  0  0
   46.6760   35.3590   42.5070 C   0  0  0  0  0  0  0  0  0  0  0  0
   45.2070   35.6180   42.7130 C   0  0  0  0  0  0  0  0  0  0  0  0
   44.6500   35.0880   44.0020 C   0  0  0  0  0  0  0  0  0  0  0  0
   45.7400   34.5220   44.8830 C   0  0  0  0  0  0  0  0  0  0  0  0
   46.3940   33.4230   43.9670 C   0  0  2  0  0  0  0  0  0  0  0  0
   47.2220   36.1910   43.0280 H   0  0  0  0  0  0  0  0  0  0  0  0
   46.8950   35.5020   41.4470 H   0  0  0  0  0  0  0  0  0  0  0  0
   44.6160   35.2720   41.8350 H   0  0  0  0  0  0  0  0  0  0  0  0
   45.0450   36.7220   42.7480 H   0  0  0  0  0  0  0  0  0  0  0  0
   43.9800   34.2350   43.7380 H   0  0  0  0  0  0  0  0  0  0  0  0
   43.9910   35.8140   44.5350 H   0  0  0  0  0  0  0  0  0  0  0  0
   46.4850   35.2940   45.0980 H   0  0  0  0  0  0  0  0  0  0  0  0
   45.3000   34.0460   45.7670 H   0  0  0  0  0  0  0  0  0  0  0  0
   45.5740   32.8230   43.5430 H   0  0  0  0  0  0  0  0  0  0  0  0
   48.1440   33.4720   42.2880 C   0  0  0  0  0  0  0  0  0  0  0  0
   48.8060   34.2120   41.8210 H   0  0  0  0  0  0  0  0  0  0  0  0
   48.7430   32.8130   42.9550 H   0  0  0  0  0  0  0  0  0  0  0  0
   47.4300   32.6120   41.2920 C   0  0  0  0  0  0  0  0  0  0  0  0
   47.5050   31.5430   41.5320 H   0  0  0  0  0  0  0  0  0  0  0  0
   46.3480   32.8530   41.2620 H   0  0  0  0  0  0  0  0  0  0  0  0
   49.3380   32.1560   38.0830 C   0  0  0  0  0  0  0  0  0  0  0  0
   48.8090   31.9130   39.3700 C   0  0  0  0  0  0  0  0  0  0  0  0
   47.9880   32.8640   39.9380 C   0  0  0  0  0  0  0  0  0  0  0  0
   47.7290   33.9850   39.2350 N   0  0  0  0  0  0  0  0  0  0  0  0
   48.2490   34.1880   38.0080 C   0  0  0  0  0  0  0  0  0  0  0  0
   49.0500   33.2900   37.4220 N   0  0  0  0  0  0  0  0  0  0  0  0
   49.9710   31.3750   37.6950 H   0  0  0  0  0  0  0  0  0  0  0  0
   49.0190   31.0060   39.9360 H   0  0  0  0  0  0  0  0  0  0  0  0
   48.0450   35.0860   37.4380 H   0  0  0  0  0  0  0  0  0  0  0  0
   47.1830   32.7350   44.8890 O   0  0  0  0  0  0  0  0  0  0  0  0
   45.9420   30.5750   43.9540 O   0  0  0  0  0  0  0  0  0  0  0  0
   46.6040   31.1760   45.1910 P   0  0  2  0  0  0  0  0  0  0  0  0
   45.3590   31.3580   46.3510 O   0  0  0  0  0  0  0  0  0  0  0  0
   45.6840   31.9030   47.1060 H   0  0  0  0  0  0  0  0  0  0  0  0
   47.7750   30.1980   45.8490 O   0  0  0  0  0  0  0  0  0  0  0  0
   48.9000   27.0830   48.7580 H   0  0  0  0  0  0  0  0  0  0  0  0
   48.2730   27.3800   47.9670 N   0  0  0  0  0  0  0  0  0  0  0  0
   48.3660   28.5970   47.3560 C   0  0  0  0  0  3  0  0  0  0  0  0
   47.4950   28.9220   46.3110 C   0  0  0  0  0  0  0  0  0  0  0  0
   46.5650   27.9820   45.9370 C   0  0  0  0  0  0  0  0  0  0  0  0
   45.8450   28.3920   44.9910 O   0  0  0  0  0  0  0  0  0  0  0  0
   46.5180   26.8080   46.5690 N   0  0  0  0  0  0  0  0  0  0  0  0
   47.3490   26.4920   47.5720 C   0  0  0  0  0  0  0  0  0  0  0  0
   47.1620   25.3490   48.0470 O   0  0  0  0  0  0  0  0  0  0  0  0
   45.7650   26.1650   46.1990 H   0  0  0  0  0  0  0  0  0  0  0  0
  1  6  1  0  0  0  0
  2  3  1  0  0  0  0
  2  7  1  0  0  0  0
  2  1  1  0  0  0  0
  3 10  1  0  0  0  0
  3  4  1  0  0  0  0
  4 12  1  0  0  0  0
  4  5  1  0  0  0  0
  5 13  1  0  0  0  0
  5 14  1  0  0  0  0
  6 15  1  6  0  0  0
  6  5  1  0  0  0  0
  6 31  1  0  0  0  0
  8  2  1  0  0  0  0
  9  3  1  0  0  0  0
 11  4  1  0  0  0  0
 16 18  1  0  0  0  0
 16  1  1  0  0  0  0
 17 16  1  0  0  0  0
 19 20  1  0  0  0  0
 19 16  1  0  0  0  0
 21 19  1  0  0  0  0
 22 23  1  0  0  0  0
 23 29  1  0  0  0  0
 23 24  2  0  0  0  0
 24 19  1  0  0  0  0
 25 24  1  0  0  0  0
 26 25  2  0  0  0  0
 27 26  1  0  0  0  0
 27 22  2  0  0  0  0
 28 22  1  0  0  0  0
 30 26  1  0  0  0  0
 31 33  1  0  0  0  0
 33 32  2  6  0  0  0
 33 36  1  0  0  0  0
 33 34  1  0  0  0  0
 34 35  1  0  0  0  0
 36 40  1  0  0  0  0
 38 37  1  0  0  0  0
 39 38  1  0  0  0  0
 40 39  2  0  0  0  0
 41 40  1  0  0  0  0
 41 43  1  0  0  0  0
 42 41  2  0  0  0  0
 43 44  1  0  0  0  0
 44 38  1  0  0  0  0
 44 45  2  0  0  0  0
 46 43  1  0  0  0  0
M  END
>  <minimizedAffinity>
-4.25222921

>  <minimizedRMSD>
0.20312354

$$$$
