
 OpenBabel03252509323D

 28 29  0  0  0  0  0  0  0  0999 V2000
   50.7390   32.6790   42.5390 O   0  0  0  0  0  0  0  0  0  0  0  0
   49.6690   33.7160   42.4030 P   0  0  2  0  0  0  0  0  0  0  0  0
   50.1220   35.2130   43.0280 O   0  0  0  0  0  0  0  0  0  0  0  0
   50.0370   35.2520   44.0140 H   0  0  0  0  0  0  0  0  0  0  0  0
   48.2790   33.2230   43.2320 O   0  0  0  0  0  0  0  0  0  0  0  0
   47.2150   33.9780   42.7430 C   0  0  0  0  0  0  0  0  0  0  0  0
   46.6140   33.3880   41.9920 H   0  0  0  0  0  0  0  0  0  0  0  0
   47.5320   34.9060   42.2240 H   0  0  0  0  0  0  0  0  0  0  0  0
   45.3950   34.0040   46.0030 C   0  0  0  0  0  0  0  0  0  0  0  0
   46.2900   33.6110   44.9850 C   0  0  0  0  0  0  0  0  0  0  0  0
   46.2940   34.3600   43.8250 C   0  0  0  0  0  0  0  0  0  0  0  0
   45.4430   35.4330   43.7210 N   0  0  0  0  0  0  0  0  0  0  0  0
   44.6010   35.7790   44.7160 C   0  0  0  0  0  0  0  0  0  0  0  0
   44.5810   35.0670   45.8490 N   0  0  0  0  0  0  0  0  0  0  0  0
   45.3680   33.4460   46.9120 H   0  0  0  0  0  0  0  0  0  0  0  0
   46.9540   32.7690   45.0750 H   0  0  0  0  0  0  0  0  0  0  0  0
   43.9770   36.6420   44.5220 H   0  0  0  0  0  0  0  0  0  0  0  0
   49.2620   33.8630   40.7660 O   0  0  0  0  0  0  0  0  0  0  0  0
   50.1610   29.9530   38.9380 H   0  0  0  0  0  0  0  0  0  0  0  0
   49.4610   30.7370   39.0040 N   0  0  0  0  0  0  0  0  0  0  0  0
   49.8270   31.7380   39.8160 C   0  0  0  0  0  3  0  0  0  0  0  0
   48.9440   32.8100   39.9490 C   0  0  0  0  0  0  0  0  0  0  0  0
   47.7500   32.7770   39.2390 C   0  0  0  0  0  0  0  0  0  0  0  0
   46.9320   33.7280   39.3370 O   0  0  0  0  0  0  0  0  0  0  0  0
   47.4880   31.7140   38.4490 N   0  0  0  0  0  0  0  0  0  0  0  0
   48.3390   30.6580   38.3060 C   0  0  0  0  0  0  0  0  0  0  0  0
   48.0310   29.6980   37.5520 O   0  0  0  0  0  0  0  0  0  0  0  0
   46.5610   31.7440   37.9310 H   0  0  0  0  0  0  0  0  0  0  0  0
  2  1  2  1  0  0  0
  2  3  1  0  0  0  0
  2  5  1  0  0  0  0
  3  4  1  0  0  0  0
  6  5  1  0  0  0  0
  6 11  1  0  0  0  0
  7  6  1  0  0  0  0
  8  6  1  0  0  0  0
  9 15  1  0  0  0  0
 10 16  1  0  0  0  0
 10  9  2  0  0  0  0
 11 10  1  0  0  0  0
 12 11  2  0  0  0  0
 12 13  1  0  0  0  0
 13 14  2  0  0  0  0
 14  9  1  0  0  0  0
 17 13  1  0  0  0  0
 18  2  1  0  0  0  0
 19 20  1  0  0  0  0
 20 21  1  0  0  0  0
 21 22  2  0  0  0  0
 22 18  1  0  0  0  0
 23 24  2  0  0  0  0
 23 22  1  0  0  0  0
 25 23  1  0  0  0  0
 26 25  1  0  0  0  0
 26 20  1  0  0  0  0
 27 26  2  0  0  0  0
 28 25  1  0  0  0  0
M  END
>  <minimizedAffinity>
-4.52477407

>  <minimizedRMSD>
1.25371432

$$$$
