
 OpenBabel03252509003D

 46 48  0  0  1  0  0  0  0  0999 V2000
   47.1730   34.1560   43.0890 N   0  0  0  0  0  0  0  0  0  0  0  0
   46.6720   35.3540   42.5010 C   0  0  0  0  0  0  0  0  0  0  0  0
   45.2020   35.6100   42.7080 C   0  0  0  0  0  0  0  0  0  0  0  0
   44.6490   35.0850   44.0000 C   0  0  0  0  0  0  0  0  0  0  0  0
   45.7410   34.5280   44.8830 C   0  0  0  0  0  0  0  0  0  0  0  0
   46.3970   33.4260   43.9720 C   0  0  2  0  0  0  0  0  0  0  0  0
   47.2160   36.1910   43.0170 H   0  0  0  0  0  0  0  0  0  0  0  0
   46.8890   35.4920   41.4410 H   0  0  0  0  0  0  0  0  0  0  0  0
   44.6110   35.2560   41.8320 H   0  0  0  0  0  0  0  0  0  0  0  0
   45.0360   36.7130   42.7360 H   0  0  0  0  0  0  0  0  0  0  0  0
   43.9800   34.2280   43.7410 H   0  0  0  0  0  0  0  0  0  0  0  0
   43.9880   35.8120   44.5300 H   0  0  0  0  0  0  0  0  0  0  0  0
   46.4840   35.3030   45.0930 H   0  0  0  0  0  0  0  0  0  0  0  0
   45.3030   34.0550   45.7710 H   0  0  0  0  0  0  0  0  0  0  0  0
   45.5800   32.8200   43.5530 H   0  0  0  0  0  0  0  0  0  0  0  0
   48.1460   33.4700   42.2910 C   0  0  0  0  0  0  0  0  0  0  0  0
   48.8050   34.2100   41.8200 H   0  0  0  0  0  0  0  0  0  0  0  0
   48.7470   32.8170   42.9620 H   0  0  0  0  0  0  0  0  0  0  0  0
   47.4330   32.6020   41.3010 C   0  0  0  0  0  0  0  0  0  0  0  0
   47.5130   31.5350   41.5470 H   0  0  0  0  0  0  0  0  0  0  0  0
   46.3510   32.8390   41.2720 H   0  0  0  0  0  0  0  0  0  0  0  0
   49.3390   32.1340   38.0920 C   0  0  0  0  0  0  0  0  0  0  0  0
   48.8120   31.8970   39.3810 C   0  0  0  0  0  0  0  0  0  0  0  0
   47.9890   32.8480   39.9450 C   0  0  0  0  0  0  0  0  0  0  0  0
   47.7250   33.9640   39.2360 N   0  0  0  0  0  0  0  0  0  0  0  0
   48.2430   34.1620   38.0080 C   0  0  0  0  0  0  0  0  0  0  0  0
   49.0460   33.2640   37.4260 N   0  0  0  0  0  0  0  0  0  0  0  0
   49.9750   31.3540   37.7080 H   0  0  0  0  0  0  0  0  0  0  0  0
   49.0270   30.9940   39.9530 H   0  0  0  0  0  0  0  0  0  0  0  0
   48.0350   35.0570   37.4330 H   0  0  0  0  0  0  0  0  0  0  0  0
   47.1900   32.7450   44.8980 O   0  0  0  0  0  0  0  0  0  0  0  0
   45.9540   30.5760   43.9780 O   0  0  0  0  0  0  0  0  0  0  0  0
   46.6160   31.1870   45.2100 P   0  0  2  0  0  0  0  0  0  0  0  0
   45.3710   31.3730   46.3700 O   0  0  0  0  0  0  0  0  0  0  0  0
   45.6940   31.9240   47.1210 H   0  0  0  0  0  0  0  0  0  0  0  0
   47.7890   30.2160   45.8730 O   0  0  0  0  0  0  0  0  0  0  0  0
   45.7680   26.4130   44.9310 H   0  0  0  0  0  0  0  0  0  0  0  0
   46.3520   26.9690   45.6060 N   0  0  0  0  0  0  0  0  0  0  0  0
   46.7400   28.2560   45.3750 C   0  0  0  0  0  3  0  0  0  0  0  0
   47.5180   28.9330   46.3210 C   0  0  0  0  0  0  0  0  0  0  0  0
   47.8640   28.2570   47.4660 C   0  0  0  0  0  0  0  0  0  0  0  0
   48.5600   28.9690   48.2340 O   0  0  0  0  0  0  0  0  0  0  0  0
   47.4570   26.9980   47.6400 N   0  0  0  0  0  0  0  0  0  0  0  0
   46.7120   26.3460   46.7380 C   0  0  0  0  0  0  0  0  0  0  0  0
   46.4230   25.1740   47.0680 O   0  0  0  0  0  0  0  0  0  0  0  0
   47.7810   26.5790   48.5560 H   0  0  0  0  0  0  0  0  0  0  0  0
  1  6  1  0  0  0  0
  2  3  1  0  0  0  0
  2  7  1  0  0  0  0
  2  1  1  0  0  0  0
  3 10  1  0  0  0  0
  3  4  1  0  0  0  0
  4 12  1  0  0  0  0
  4  5  1  0  0  0  0
  5 13  1  0  0  0  0
  5 14  1  0  0  0  0
  6 15  1  6  0  0  0
  6  5  1  0  0  0  0
  6 31  1  0  0  0  0
  8  2  1  0  0  0  0
  9  3  1  0  0  0  0
 11  4  1  0  0  0  0
 16 18  1  0  0  0  0
 16  1  1  0  0  0  0
 17 16  1  0  0  0  0
 19 20  1  0  0  0  0
 19 16  1  0  0  0  0
 21 19  1  0  0  0  0
 22 23  1  0  0  0  0
 23 24  2  0  0  0  0
 23 29  1  0  0  0  0
 24 19  1  0  0  0  0
 25 24  1  0  0  0  0
 26 25  2  0  0  0  0
 27 26  1  0  0  0  0
 27 22  2  0  0  0  0
 28 22  1  0  0  0  0
 30 26  1  0  0  0  0
 31 33  1  0  0  0  0
 33 32  2  6  0  0  0
 33 36  1  0  0  0  0
 33 34  1  0  0  0  0
 34 35  1  0  0  0  0
 36 40  1  0  0  0  0
 37 38  1  0  0  0  0
 38 44  1  0  0  0  0
 39 38  1  0  0  0  0
 39 40  2  0  0  0  0
 40 41  1  0  0  0  0
 41 43  1  0  0  0  0
 41 42  2  0  0  0  0
 43 46  1  0  0  0  0
 44 45  2  0  0  0  0
 44 43  1  0  0  0  0
M  END
>  <minimizedAffinity>
-4.15200329

>  <minimizedRMSD>
0.20009616

$$$$
