
 OpenBabel03242522003D

 34 36  0  0  0  0  0  0  0  0999 V2000
   37.6370   26.5930   41.6510 C   0  0  0  0  0  0  0  0  0  0  0  0
   37.7930   26.7600   43.0120 C   0  0  0  0  0  0  0  0  0  0  0  0
   38.0300   27.9810   43.6400 C   0  0  0  0  0  0  0  0  0  0  0  0
   38.1140   29.1070   42.8480 C   0  0  0  0  0  0  0  0  0  0  0  0
   37.9570   28.9280   41.5190 C   0  0  0  0  0  0  0  0  0  0  0  0
   37.7310   27.7360   40.9530 N   0  0  0  0  0  0  0  0  0  0  0  0
   37.7140   25.8180   43.5810 H   0  0  0  0  0  0  0  0  0  0  0  0
   38.1220   27.8900   44.7230 H   0  0  0  0  0  0  0  0  0  0  0  0
   38.3160   29.9410   43.4950 H   0  0  0  0  0  0  0  0  0  0  0  0
   37.6210   22.9610   40.6580 C   0  0  0  0  0  0  0  0  0  0  0  0
   37.9710   24.1070   41.3890 C   0  0  0  0  0  0  0  0  0  0  0  0
   37.4060   25.3000   41.0260 C   0  0  0  0  0  0  0  0  0  0  0  0
   36.5290   25.2990   39.9650 N   0  0  0  0  0  0  0  0  0  0  0  0
   36.2070   24.1900   39.2790 C   0  0  0  0  0  0  0  0  0  0  0  0
   36.7580   23.0230   39.6320 N   0  0  0  0  0  0  0  0  0  0  0  0
   38.0830   22.0300   40.9670 H   0  0  0  0  0  0  0  0  0  0  0  0
   38.6500   24.1420   42.2180 H   0  0  0  0  0  0  0  0  0  0  0  0
   35.5070   24.3020   38.4630 H   0  0  0  0  0  0  0  0  0  0  0  0
   38.0350   30.0420   40.7070 O   0  0  0  0  0  0  0  0  0  0  0  0
   36.0190   30.0590   39.0050 O   0  0  0  0  0  0  0  0  0  0  0  0
   36.6520   30.8520   40.1150 P   0  0  1  0  0  0  0  0  0  0  0  0
   35.5520   31.0410   41.3860 O   0  0  0  0  0  0  0  0  0  0  0  0
   35.1120   30.1620   41.5480 H   0  0  0  0  0  0  0  0  0  0  0  0
   37.1620   32.3610   39.5190 O   0  0  0  0  0  0  0  0  0  0  0  0
   39.8410   31.6920   36.0140 H   0  0  0  0  0  0  0  0  0  0  0  0
   39.7740   32.0670   37.0050 N   0  0  0  0  0  0  0  0  0  0  0  0
   38.5440   31.9530   37.5510 C   0  0  0  0  0  3  0  0  0  0  0  0
   38.3760   32.4170   38.8390 C   0  0  0  0  0  0  0  0  0  0  0  0
   39.4470   32.9820   39.5430 C   0  0  0  0  0  0  0  0  0  0  0  0
   39.3580   33.4250   40.7260 O   0  0  0  0  0  0  0  0  0  0  0  0
   40.6460   33.0630   38.9370 N   0  0  0  0  0  0  0  0  0  0  0  0
   40.8200   32.6140   37.6850 C   0  0  0  0  0  0  0  0  0  0  0  0
   41.8760   32.6250   36.9970 O   0  0  0  0  0  0  0  0  0  0  0  0
   41.5170   33.4670   39.3710 H   0  0  0  0  0  0  0  0  0  0  0  0
  1  2  1  0  0  0  0
  2  7  1  0  0  0  0
  2  3  2  0  0  0  0
  3  8  1  0  0  0  0
  4  9  1  0  0  0  0
  4  3  1  0  0  0  0
  5  4  2  0  0  0  0
  6  5  1  0  0  0  0
  6  1  2  0  0  0  0
 10 16  1  0  0  0  0
 10 11  1  0  0  0  0
 11 17  1  0  0  0  0
 12 11  2  0  0  0  0
 12  1  1  0  0  0  0
 13 12  1  0  0  0  0
 14 15  1  0  0  0  0
 14 13  2  0  0  0  0
 15 10  2  0  0  0  0
 18 14  1  0  0  0  0
 19  5  1  0  0  0  0
 21 20  2  6  0  0  0
 21 19  1  0  0  0  0
 21 22  1  0  0  0  0
 22 23  1  0  0  0  0
 24 21  1  0  0  0  0
 25 26  1  0  0  0  0
 26 27  1  0  0  0  0
 26 32  1  0  0  0  0
 27 28  2  0  0  0  0
 28 24  1  0  0  0  0
 28 29  1  0  0  0  0
 29 30  2  0  0  0  0
 31 34  1  0  0  0  0
 31 29  1  0  0  0  0
 32 31  1  0  0  0  0
 33 32  2  0  0  0  0
M  END
>  <minimizedAffinity>
-6.43305826

$$$$

 OpenBabel03242522003D

 34 36  0  0  0  0  0  0  0  0999 V2000
   37.0650   25.4520   41.3170 C   0  0  0  0  0  0  0  0  0  0  0  0
   36.8810   25.6010   42.6770 C   0  0  0  0  0  0  0  0  0  0  0  0
   36.7940   26.8240   43.3370 C   0  0  0  0  0  0  0  0  0  0  0  0
   36.8970   27.9720   42.5810 C   0  0  0  0  0  0  0  0  0  0  0  0
   37.0750   27.8110   41.2520 C   0  0  0  0  0  0  0  0  0  0  0  0
   37.1540   26.6150   40.6540 N   0  0  0  0  0  0  0  0  0  0  0  0
   36.8080   24.6410   43.2170 H   0  0  0  0  0  0  0  0  0  0  0  0
   36.6480   26.7160   44.4130 H   0  0  0  0  0  0  0  0  0  0  0  0
   36.8260   28.8080   43.2530 H   0  0  0  0  0  0  0  0  0  0  0  0
   38.1080   22.0550   40.0700 C   0  0  0  0  0  0  0  0  0  0  0  0
   38.1910   23.2580   40.7890 C   0  0  0  0  0  0  0  0  0  0  0  0
   37.1670   24.1570   40.6610 C   0  0  0  0  0  0  0  0  0  0  0  0
   36.1200   23.8240   39.8340 N   0  0  0  0  0  0  0  0  0  0  0  0
   36.0590   22.6670   39.1540 C   0  0  0  0  0  0  0  0  0  0  0  0
   37.0590   21.7860   39.2770 N   0  0  0  0  0  0  0  0  0  0  0  0
   38.9330   21.3620   40.1890 H   0  0  0  0  0  0  0  0  0  0  0  0
   38.9930   23.5470   41.4410 H   0  0  0  0  0  0  0  0  0  0  0  0
   35.1900   22.5060   38.5320 H   0  0  0  0  0  0  0  0  0  0  0  0
   37.1780   28.9480   40.4750 O   0  0  0  0  0  0  0  0  0  0  0  0
   34.5740   29.1140   40.0760 O   0  0  0  0  0  0  0  0  0  0  0  0
   35.8350   29.9340   40.0990 P   0  0  1  0  0  0  0  0  0  0  0  0
   35.7110   31.1460   41.2720 O   0  0  0  0  0  0  0  0  0  0  0  0
   35.3280   30.7400   42.0980 H   0  0  0  0  0  0  0  0  0  0  0  0
   36.1090   30.6010   38.5580 O   0  0  0  0  0  0  0  0  0  0  0  0
   40.1420   29.9500   36.7650 H   0  0  0  0  0  0  0  0  0  0  0  0
   39.5180   30.6290   37.2920 N   0  0  0  0  0  0  0  0  0  0  0  0
   38.2820   30.1480   37.5470 C   0  0  0  0  0  3  0  0  0  0  0  0
   37.4110   30.9710   38.2300 C   0  0  0  0  0  0  0  0  0  0  0  0
   37.8050   32.2520   38.6370 C   0  0  0  0  0  0  0  0  0  0  0  0
   37.0540   33.0550   39.2670 O   0  0  0  0  0  0  0  0  0  0  0  0
   39.0530   32.6660   38.3490 N   0  0  0  0  0  0  0  0  0  0  0  0
   39.9080   31.8730   37.6850 C   0  0  0  0  0  0  0  0  0  0  0  0
   41.0960   32.1250   37.3480 O   0  0  0  0  0  0  0  0  0  0  0  0
   39.4530   33.6060   38.6050 H   0  0  0  0  0  0  0  0  0  0  0  0
  1  2  1  0  0  0  0
  2  7  1  0  0  0  0
  2  3  2  0  0  0  0
  3  8  1  0  0  0  0
  4  9  1  0  0  0  0
  4  3  1  0  0  0  0
  5  4  2  0  0  0  0
  6  5  1  0  0  0  0
  6  1  2  0  0  0  0
 10 16  1  0  0  0  0
 10 11  1  0  0  0  0
 11 17  1  0  0  0  0
 12 11  2  0  0  0  0
 12  1  1  0  0  0  0
 13 12  1  0  0  0  0
 14 15  1  0  0  0  0
 14 13  2  0  0  0  0
 15 10  2  0  0  0  0
 18 14  1  0  0  0  0
 19  5  1  0  0  0  0
 21 20  2  6  0  0  0
 21 19  1  0  0  0  0
 21 22  1  0  0  0  0
 22 23  1  0  0  0  0
 24 21  1  0  0  0  0
 25 26  1  0  0  0  0
 26 27  1  0  0  0  0
 26 32  1  0  0  0  0
 27 28  2  0  0  0  0
 28 24  1  0  0  0  0
 28 29  1  0  0  0  0
 29 30  2  0  0  0  0
 31 34  1  0  0  0  0
 31 29  1  0  0  0  0
 32 31  1  0  0  0  0
 33 32  2  0  0  0  0
M  END
>  <minimizedAffinity>
-6.09488916

$$$$

 OpenBabel03242522003D

 34 36  0  0  0  0  0  0  0  0999 V2000
   39.4110   27.5380   42.8110 C   0  0  0  0  0  0  0  0  0  0  0  0
   38.4330   27.0790   43.6700 C   0  0  0  0  0  0  0  0  0  0  0  0
   37.0640   27.2630   43.4870 C   0  0  0  0  0  0  0  0  0  0  0  0
   36.6530   27.9530   42.3660 C   0  0  0  0  0  0  0  0  0  0  0  0
   37.6200   28.3940   41.5340 C   0  0  0  0  0  0  0  0  0  0  0  0
   38.9280   28.1970   41.7460 N   0  0  0  0  0  0  0  0  0  0  0  0
   38.8350   26.5370   44.5440 H   0  0  0  0  0  0  0  0  0  0  0  0
   36.4660   26.8210   44.2830 H   0  0  0  0  0  0  0  0  0  0  0  0
   35.5800   28.0120   42.4000 H   0  0  0  0  0  0  0  0  0  0  0  0
   42.8260   26.2100   43.6790 C   0  0  0  0  0  0  0  0  0  0  0  0
   41.4300   26.2070   43.5240 C   0  0  0  0  0  0  0  0  0  0  0  0
   40.8340   27.3410   43.0420 C   0  0  0  0  0  0  0  0  0  0  0  0
   41.6410   28.4130   42.7400 N   0  0  0  0  0  0  0  0  0  0  0  0
   42.9750   28.3950   42.8960 C   0  0  0  0  0  0  0  0  0  0  0  0
   43.5610   27.2880   43.3670 N   0  0  0  0  0  0  0  0  0  0  0  0
   43.2720   25.3000   44.0630 H   0  0  0  0  0  0  0  0  0  0  0  0
   40.7740   25.3900   43.7510 H   0  0  0  0  0  0  0  0  0  0  0  0
   43.5150   29.2920   42.6270 H   0  0  0  0  0  0  0  0  0  0  0  0
   37.2310   29.0850   40.4040 O   0  0  0  0  0  0  0  0  0  0  0  0
   36.6610   31.2510   39.0070 O   0  0  0  0  0  0  0  0  0  0  0  0
   36.9570   30.7720   40.4020 P   0  0  1  0  0  0  0  0  0  0  0  0
   35.6440   31.1060   41.4150 O   0  0  0  0  0  0  0  0  0  0  0  0
   34.8100   30.8530   40.9340 H   0  0  0  0  0  0  0  0  0  0  0  0
   38.3750   31.5180   40.9730 O   0  0  0  0  0  0  0  0  0  0  0  0
   41.6770   30.9570   38.0240 H   0  0  0  0  0  0  0  0  0  0  0  0
   41.0310   31.6590   38.4910 N   0  0  0  0  0  0  0  0  0  0  0  0
   40.1780   31.1070   39.3820 C   0  0  0  0  0  3  0  0  0  0  0  0
   39.3050   31.9550   40.0330 C   0  0  0  0  0  0  0  0  0  0  0  0
   39.3130   33.3300   39.7710 C   0  0  0  0  0  0  0  0  0  0  0  0
   38.5390   34.1600   40.3340 O   0  0  0  0  0  0  0  0  0  0  0  0
   40.1910   33.8120   38.8710 N   0  0  0  0  0  0  0  0  0  0  0  0
   41.0440   32.9960   38.2330 C   0  0  0  0  0  0  0  0  0  0  0  0
   41.9130   33.3030   37.3730 O   0  0  0  0  0  0  0  0  0  0  0  0
   40.2830   34.8240   38.5980 H   0  0  0  0  0  0  0  0  0  0  0  0
  1 12  1  0  0  0  0
  1  2  1  0  0  0  0
  2  7  1  0  0  0  0
  3  2  2  0  0  0  0
  3  8  1  0  0  0  0
  4  9  1  0  0  0  0
  4  3  1  0  0  0  0
  5  6  1  0  0  0  0
  5  4  2  0  0  0  0
  6  1  2  0  0  0  0
 10 16  1  0  0  0  0
 11 10  1  0  0  0  0
 11 17  1  0  0  0  0
 12 11  2  0  0  0  0
 13 14  2  0  0  0  0
 13 12  1  0  0  0  0
 14 15  1  0  0  0  0
 15 10  2  0  0  0  0
 18 14  1  0  0  0  0
 19  5  1  0  0  0  0
 21 20  2  6  0  0  0
 21 19  1  0  0  0  0
 21 24  1  0  0  0  0
 21 22  1  0  0  0  0
 23 22  1  0  0  0  0
 25 26  1  0  0  0  0
 26 27  1  0  0  0  0
 27 28  2  0  0  0  0
 28 24  1  0  0  0  0
 29 28  1  0  0  0  0
 29 30  2  0  0  0  0
 31 29  1  0  0  0  0
 32 26  1  0  0  0  0
 32 31  1  0  0  0  0
 33 32  2  0  0  0  0
 34 31  1  0  0  0  0
M  END
>  <minimizedAffinity>
-5.95147371

$$$$

 OpenBabel03242522003D

 34 36  0  0  0  0  0  0  0  0999 V2000
   38.4430   26.0020   41.5760 C   0  0  0  0  0  0  0  0  0  0  0  0
   38.8870   26.0110   42.8830 C   0  0  0  0  0  0  0  0  0  0  0  0
   38.9910   27.1480   43.6800 C   0  0  0  0  0  0  0  0  0  0  0  0
   38.6240   28.3570   43.1260 C   0  0  0  0  0  0  0  0  0  0  0  0
   38.1900   28.3330   41.8470 C   0  0  0  0  0  0  0  0  0  0  0  0
   38.1050   27.2160   41.1140 N   0  0  0  0  0  0  0  0  0  0  0  0
   39.1620   25.0100   43.2590 H   0  0  0  0  0  0  0  0  0  0  0  0
   39.3630   26.9330   44.6810 H   0  0  0  0  0  0  0  0  0  0  0  0
   38.7860   29.1150   43.8700 H   0  0  0  0  0  0  0  0  0  0  0  0
   37.8040   22.5530   40.2080 C   0  0  0  0  0  0  0  0  0  0  0  0
   37.7820   23.6100   41.1320 C   0  0  0  0  0  0  0  0  0  0  0  0
   38.3610   24.7960   40.7670 C   0  0  0  0  0  0  0  0  0  0  0  0
   38.9290   24.8760   39.5170 N   0  0  0  0  0  0  0  0  0  0  0  0
   38.9390   23.8520   38.6470 C   0  0  0  0  0  0  0  0  0  0  0  0
   38.3740   22.6920   39.0010 N   0  0  0  0  0  0  0  0  0  0  0  0
   37.3390   21.6260   40.5220 H   0  0  0  0  0  0  0  0  0  0  0  0
   37.3490   23.5790   42.1120 H   0  0  0  0  0  0  0  0  0  0  0  0
   39.4120   24.0230   37.6910 H   0  0  0  0  0  0  0  0  0  0  0  0
   37.8150   29.5320   41.2730 O   0  0  0  0  0  0  0  0  0  0  0  0
   35.3620   28.6230   40.9260 O   0  0  0  0  0  0  0  0  0  0  0  0
   36.2450   29.8110   40.6600 P   0  0  1  0  0  0  0  0  0  0  0  0
   35.6070   31.1830   41.4170 O   0  0  0  0  0  0  0  0  0  0  0  0
   35.3280   30.9260   42.3380 H   0  0  0  0  0  0  0  0  0  0  0  0
   36.3890   30.0500   38.9820 O   0  0  0  0  0  0  0  0  0  0  0  0
   39.0040   33.6050   38.3210 H   0  0  0  0  0  0  0  0  0  0  0  0
   38.8930   32.5600   38.1680 N   0  0  0  0  0  0  0  0  0  0  0  0
   37.7460   32.0530   38.6710 C   0  0  0  0  0  3  0  0  0  0  0  0
   37.5280   30.7000   38.5120 C   0  0  0  0  0  0  0  0  0  0  0  0
   38.4650   29.8960   37.8530 C   0  0  0  0  0  0  0  0  0  0  0  0
   38.3240   28.6490   37.6750 O   0  0  0  0  0  0  0  0  0  0  0  0
   39.5870   30.4680   37.3770 N   0  0  0  0  0  0  0  0  0  0  0  0
   39.8080   31.7830   37.5260 C   0  0  0  0  0  0  0  0  0  0  0  0
   40.8040   32.4500   37.1350 O   0  0  0  0  0  0  0  0  0  0  0  0
   40.3560   29.9600   36.8680 H   0  0  0  0  0  0  0  0  0  0  0  0
  1  2  1  0  0  0  0
  2  7  1  0  0  0  0
  2  3  2  0  0  0  0
  3  8  1  0  0  0  0
  4  3  1  0  0  0  0
  4  9  1  0  0  0  0
  5  4  2  0  0  0  0
  6  1  2  0  0  0  0
  6  5  1  0  0  0  0
 10 16  1  0  0  0  0
 10 11  1  0  0  0  0
 11 17  1  0  0  0  0
 12 11  2  0  0  0  0
 12  1  1  0  0  0  0
 13 12  1  0  0  0  0
 14 15  1  0  0  0  0
 14 13  2  0  0  0  0
 15 10  2  0  0  0  0
 18 14  1  0  0  0  0
 19  5  1  0  0  0  0
 21 20  2  1  0  0  0
 21 19  1  0  0  0  0
 21 22  1  0  0  0  0
 22 23  1  0  0  0  0
 24 21  1  0  0  0  0
 26 25  1  0  0  0  0
 26 27  1  0  0  0  0
 28 27  2  0  0  0  0
 28 24  1  0  0  0  0
 29 28  1  0  0  0  0
 30 29  2  0  0  0  0
 31 32  1  0  0  0  0
 31 29  1  0  0  0  0
 32 26  1  0  0  0  0
 33 32  2  0  0  0  0
 34 31  1  0  0  0  0
M  END
>  <minimizedAffinity>
-5.87411404

$$$$

 OpenBabel03242522003D

 34 36  0  0  0  0  0  0  0  0999 V2000
   39.5400   29.3640   42.1380 C   0  0  0  0  0  0  0  0  0  0  0  0
   39.4220   28.4110   43.1300 C   0  0  0  0  0  0  0  0  0  0  0  0
   38.4210   27.4450   43.1890 C   0  0  0  0  0  0  0  0  0  0  0  0
   37.4760   27.4360   42.1840 C   0  0  0  0  0  0  0  0  0  0  0  0
   37.6060   28.3720   41.2190 C   0  0  0  0  0  0  0  0  0  0  0  0
   38.5850   29.2850   41.1990 N   0  0  0  0  0  0  0  0  0  0  0  0
   40.2120   28.4790   43.8990 H   0  0  0  0  0  0  0  0  0  0  0  0
   38.5120   26.7900   44.0560 H   0  0  0  0  0  0  0  0  0  0  0  0
   36.7820   26.6450   42.4010 H   0  0  0  0  0  0  0  0  0  0  0  0
   42.6450   31.4210   42.6900 C   0  0  0  0  0  0  0  0  0  0  0  0
   41.7470   30.3540   42.8500 C   0  0  0  0  0  0  0  0  0  0  0  0
   40.5920   30.3680   42.1150 C   0  0  0  0  0  0  0  0  0  0  0  0
   40.3850   31.4300   41.2660 N   0  0  0  0  0  0  0  0  0  0  0  0
   41.2580   32.4420   41.1270 C   0  0  0  0  0  0  0  0  0  0  0  0
   42.3870   32.4300   41.8440 N   0  0  0  0  0  0  0  0  0  0  0  0
   43.5510   31.3850   43.2840 H   0  0  0  0  0  0  0  0  0  0  0  0
   41.8790   29.5130   43.5040 H   0  0  0  0  0  0  0  0  0  0  0  0
   40.9960   33.2260   40.4300 H   0  0  0  0  0  0  0  0  0  0  0  0
   36.6720   28.3800   40.2020 O   0  0  0  0  0  0  0  0  0  0  0  0
   34.1610   29.1570   39.9590 O   0  0  0  0  0  0  0  0  0  0  0  0
   35.5760   29.6690   39.9640 P   0  0  1  0  0  0  0  0  0  0  0  0
   35.7790   30.7870   41.2180 O   0  0  0  0  0  0  0  0  0  0  0  0
   35.3470   30.4160   42.0350 H   0  0  0  0  0  0  0  0  0  0  0  0
   35.9340   30.3700   38.4560 O   0  0  0  0  0  0  0  0  0  0  0  0
   40.0160   29.5790   36.8370 H   0  0  0  0  0  0  0  0  0  0  0  0
   39.3950   30.2780   37.3390 N   0  0  0  0  0  0  0  0  0  0  0  0
   38.1320   29.8420   37.5390 C   0  0  0  0  0  3  0  0  0  0  0  0
   37.2620   30.6940   38.1870 C   0  0  0  0  0  0  0  0  0  0  0  0
   37.6830   31.9590   38.6160 C   0  0  0  0  0  0  0  0  0  0  0  0
   36.9350   32.7860   39.2160 O   0  0  0  0  0  0  0  0  0  0  0  0
   38.9560   32.3290   38.3840 N   0  0  0  0  0  0  0  0  0  0  0  0
   39.8110   31.5060   37.7550 C   0  0  0  0  0  0  0  0  0  0  0  0
   41.0200   31.7170   37.4710 O   0  0  0  0  0  0  0  0  0  0  0  0
   39.3780   33.2520   38.6620 H   0  0  0  0  0  0  0  0  0  0  0  0
  1  2  1  0  0  0  0
  2  3  2  0  0  0  0
  2  7  1  0  0  0  0
  3  8  1  0  0  0  0
  4  9  1  0  0  0  0
  4  3  1  0  0  0  0
  5  4  2  0  0  0  0
  6  5  1  0  0  0  0
  6  1  2  0  0  0  0
 10 11  1  0  0  0  0
 10 16  1  0  0  0  0
 11 17  1  0  0  0  0
 12  1  1  0  0  0  0
 12 11  2  0  0  0  0
 13 12  1  0  0  0  0
 14 13  2  0  0  0  0
 14 15  1  0  0  0  0
 15 10  2  0  0  0  0
 18 14  1  0  0  0  0
 19  5  1  0  0  0  0
 21 20  2  1  0  0  0
 21 19  1  0  0  0  0
 21 22  1  0  0  0  0
 22 23  1  0  0  0  0
 24 21  1  0  0  0  0
 25 26  1  0  0  0  0
 26 27  1  0  0  0  0
 26 32  1  0  0  0  0
 27 28  2  0  0  0  0
 28 24  1  0  0  0  0
 28 29  1  0  0  0  0
 29 30  2  0  0  0  0
 31 29  1  0  0  0  0
 31 34  1  0  0  0  0
 32 31  1  0  0  0  0
 33 32  2  0  0  0  0
M  END
>  <minimizedAffinity>
-5.58144712

$$$$

 OpenBabel03242522003D

 34 36  0  0  0  0  0  0  0  0999 V2000
   38.0300   26.4010   42.0340 C   0  0  0  0  0  0  0  0  0  0  0  0
   36.9090   26.4380   42.8400 C   0  0  0  0  0  0  0  0  0  0  0  0
   36.5590   27.5050   43.6640 C   0  0  0  0  0  0  0  0  0  0  0  0
   37.3880   28.6060   43.6780 C   0  0  0  0  0  0  0  0  0  0  0  0
   38.4780   28.5560   42.8830 C   0  0  0  0  0  0  0  0  0  0  0  0
   38.7810   27.5100   42.1040 N   0  0  0  0  0  0  0  0  0  0  0  0
   36.2940   25.5230   42.7770 H   0  0  0  0  0  0  0  0  0  0  0  0
   35.6350   27.3290   44.2160 H   0  0  0  0  0  0  0  0  0  0  0  0
   36.9750   29.3120   44.3750 H   0  0  0  0  0  0  0  0  0  0  0  0
   38.4240   23.0000   40.4650 C   0  0  0  0  0  0  0  0  0  0  0  0
   37.9860   23.9640   41.3880 C   0  0  0  0  0  0  0  0  0  0  0  0
   38.3740   25.2620   41.1960 C   0  0  0  0  0  0  0  0  0  0  0  0
   39.1690   25.5410   40.1090 N   0  0  0  0  0  0  0  0  0  0  0  0
   39.5780   24.6040   39.2370 C   0  0  0  0  0  0  0  0  0  0  0  0
   39.2000   23.3340   39.4220 N   0  0  0  0  0  0  0  0  0  0  0  0
   38.1020   21.9800   40.6410 H   0  0  0  0  0  0  0  0  0  0  0  0
   37.3670   23.7790   42.2440 H   0  0  0  0  0  0  0  0  0  0  0  0
   40.2000   24.9330   38.4170 H   0  0  0  0  0  0  0  0  0  0  0  0
   39.3220   29.6500   42.8800 O   0  0  0  0  0  0  0  0  0  0  0  0
   41.3450   31.0220   41.8840 O   0  0  0  0  0  0  0  0  0  0  0  0
   40.1890   30.1430   41.4920 P   0  0  1  0  0  0  0  0  0  0  0  0
   40.7590   28.7640   40.6950 O   0  0  0  0  0  0  0  0  0  0  0  0
   41.5420   28.4150   41.2030 H   0  0  0  0  0  0  0  0  0  0  0  0
   39.1150   31.0190   40.5050 O   0  0  0  0  0  0  0  0  0  0  0  0
   34.7610   31.0540   41.4790 H   0  0  0  0  0  0  0  0  0  0  0  0
   35.5270   30.5840   40.9150 N   0  0  0  0  0  0  0  0  0  0  0  0
   36.7530   31.1210   41.1030 C   0  0  0  0  0  3  0  0  0  0  0  0
   37.8030   30.5620   40.4050 C   0  0  0  0  0  0  0  0  0  0  0  0
   37.5950   29.4830   39.5380 C   0  0  0  0  0  0  0  0  0  0  0  0
   38.5150   28.9260   38.8690 O   0  0  0  0  0  0  0  0  0  0  0  0
   36.3470   28.9980   39.3990 N   0  0  0  0  0  0  0  0  0  0  0  0
   35.3180   29.5330   40.0740 C   0  0  0  0  0  0  0  0  0  0  0  0
   34.1070   29.1860   40.0430 O   0  0  0  0  0  0  0  0  0  0  0  0
   36.0770   28.1920   38.7770 H   0  0  0  0  0  0  0  0  0  0  0  0
  1  6  2  0  0  0  0
  1  2  1  0  0  0  0
  2  3  2  0  0  0  0
  3  4  1  0  0  0  0
  3  8  1  0  0  0  0
  4  9  1  0  0  0  0
  5  4  2  0  0  0  0
  6  5  1  0  0  0  0
  7  2  1  0  0  0  0
 10 16  1  0  0  0  0
 10 11  1  0  0  0  0
 11 17  1  0  0  0  0
 12 11  2  0  0  0  0
 12  1  1  0  0  0  0
 13 12  1  0  0  0  0
 14 15  1  0  0  0  0
 14 13  2  0  0  0  0
 15 10  2  0  0  0  0
 18 14  1  0  0  0  0
 19  5  1  0  0  0  0
 21 20  2  1  0  0  0
 21 19  1  0  0  0  0
 22 23  1  0  0  0  0
 22 21  1  0  0  0  0
 24 21  1  0  0  0  0
 26 27  1  0  0  0  0
 26 25  1  0  0  0  0
 28 24  1  0  0  0  0
 28 27  2  0  0  0  0
 29 28  1  0  0  0  0
 30 29  2  0  0  0  0
 31 29  1  0  0  0  0
 31 32  1  0  0  0  0
 32 26  1  0  0  0  0
 33 32  2  0  0  0  0
 34 31  1  0  0  0  0
M  END
>  <minimizedAffinity>
-5.58047295

$$$$

 OpenBabel03242522003D

 34 36  0  0  0  0  0  0  0  0999 V2000
   37.4780   27.4540   41.4140 C   0  0  0  0  0  0  0  0  0  0  0  0
   37.4350   27.5020   42.7930 C   0  0  0  0  0  0  0  0  0  0  0  0
   37.9270   28.5490   43.5680 C   0  0  0  0  0  0  0  0  0  0  0  0
   38.5000   29.6190   42.9130 C   0  0  0  0  0  0  0  0  0  0  0  0
   38.5330   29.5600   41.5650 C   0  0  0  0  0  0  0  0  0  0  0  0
   38.0480   28.5330   40.8550 N   0  0  0  0  0  0  0  0  0  0  0  0
   36.9640   26.6130   43.2480 H   0  0  0  0  0  0  0  0  0  0  0  0
   37.7920   28.3860   44.6380 H   0  0  0  0  0  0  0  0  0  0  0  0
   38.8350   30.3130   43.6620 H   0  0  0  0  0  0  0  0  0  0  0  0
   36.0490   25.1910   38.7660 C   0  0  0  0  0  0  0  0  0  0  0  0
   36.5060   26.3840   39.3490 C   0  0  0  0  0  0  0  0  0  0  0  0
   36.9670   26.3360   40.6370 C   0  0  0  0  0  0  0  0  0  0  0  0
   36.9540   25.1200   41.2790 N   0  0  0  0  0  0  0  0  0  0  0  0
   36.5120   23.9890   40.7030 C   0  0  0  0  0  0  0  0  0  0  0  0
   36.0610   24.0330   39.4440 N   0  0  0  0  0  0  0  0  0  0  0  0
   35.6890   25.2570   37.7460 H   0  0  0  0  0  0  0  0  0  0  0  0
   36.5290   27.3460   38.8760 H   0  0  0  0  0  0  0  0  0  0  0  0
   36.5470   23.0870   41.2980 H   0  0  0  0  0  0  0  0  0  0  0  0
   39.1000   30.6220   40.8890 O   0  0  0  0  0  0  0  0  0  0  0  0
   36.7660   31.8490   40.7870 O   0  0  0  0  0  0  0  0  0  0  0  0
   38.2310   32.0410   40.5030 P   0  0  1  0  0  0  0  0  0  0  0  0
   38.8350   33.3150   41.4390 O   0  0  0  0  0  0  0  0  0  0  0  0
   38.4840   33.2120   42.3660 H   0  0  0  0  0  0  0  0  0  0  0  0
   38.4560   32.3420   38.8440 O   0  0  0  0  0  0  0  0  0  0  0  0
   41.0820   29.5380   36.5750 H   0  0  0  0  0  0  0  0  0  0  0  0
   41.0270   30.4710   37.0790 N   0  0  0  0  0  0  0  0  0  0  0  0
   39.8080   30.7430   37.5940 C   0  0  0  0  0  3  0  0  0  0  0  0
   39.6570   31.9380   38.2660 C   0  0  0  0  0  0  0  0  0  0  0  0
   40.7310   32.8250   38.4020 C   0  0  0  0  0  0  0  0  0  0  0  0
   40.6570   33.9370   39.0060 O   0  0  0  0  0  0  0  0  0  0  0  0
   41.9180   32.4900   37.8630 N   0  0  0  0  0  0  0  0  0  0  0  0
   42.0760   31.3290   37.2080 C   0  0  0  0  0  0  0  0  0  0  0  0
   43.1200   30.8870   36.6570 O   0  0  0  0  0  0  0  0  0  0  0  0
   42.7900   33.0790   37.9050 H   0  0  0  0  0  0  0  0  0  0  0  0
  1  2  1  0  0  0  0
  2  7  1  0  0  0  0
  2  3  2  0  0  0  0
  3  8  1  0  0  0  0
  4  3  1  0  0  0  0
  4  9  1  0  0  0  0
  5  4  2  0  0  0  0
  6  1  2  0  0  0  0
  6  5  1  0  0  0  0
 10 11  2  0  0  0  0
 10 15  1  0  0  0  0
 11 12  1  0  0  0  0
 12 13  2  0  0  0  0
 12  1  1  0  0  0  0
 14 13  1  0  0  0  0
 14 18  1  0  0  0  0
 15 14  2  0  0  0  0
 16 10  1  0  0  0  0
 17 11  1  0  0  0  0
 19  5  1  0  0  0  0
 21 20  2  1  0  0  0
 21 19  1  0  0  0  0
 21 22  1  0  0  0  0
 22 23  1  0  0  0  0
 24 21  1  0  0  0  0
 25 26  1  0  0  0  0
 26 32  1  0  0  0  0
 26 27  1  0  0  0  0
 27 28  2  0  0  0  0
 28 29  1  0  0  0  0
 28 24  1  0  0  0  0
 29 30  2  0  0  0  0
 31 34  1  0  0  0  0
 31 29  1  0  0  0  0
 32 31  1  0  0  0  0
 33 32  2  0  0  0  0
M  END
>  <minimizedAffinity>
-5.49473858

$$$$

 OpenBabel03242522003D

 34 36  0  0  0  0  0  0  0  0999 V2000
   37.5790   27.9740   41.2930 C   0  0  0  0  0  0  0  0  0  0  0  0
   36.4230   27.6360   40.6170 C   0  0  0  0  0  0  0  0  0  0  0  0
   35.4940   28.5490   40.1260 C   0  0  0  0  0  0  0  0  0  0  0  0
   35.7430   29.8910   40.3260 C   0  0  0  0  0  0  0  0  0  0  0  0
   36.8780   30.2070   40.9860 C   0  0  0  0  0  0  0  0  0  0  0  0
   37.7480   29.2960   41.4430 N   0  0  0  0  0  0  0  0  0  0  0  0
   36.2900   26.5470   40.4950 H   0  0  0  0  0  0  0  0  0  0  0  0
   34.6520   28.0710   39.6240 H   0  0  0  0  0  0  0  0  0  0  0  0
   34.9220   30.4380   39.9010 H   0  0  0  0  0  0  0  0  0  0  0  0
   39.8630   25.0290   41.8280 C   0  0  0  0  0  0  0  0  0  0  0  0
   38.9450   25.8580   41.1650 C   0  0  0  0  0  0  0  0  0  0  0  0
   38.5210   26.9910   41.8050 C   0  0  0  0  0  0  0  0  0  0  0  0
   39.0230   27.2460   43.0610 N   0  0  0  0  0  0  0  0  0  0  0  0
   39.9020   26.4380   43.6790 C   0  0  0  0  0  0  0  0  0  0  0  0
   40.3170   25.3300   43.0540 N   0  0  0  0  0  0  0  0  0  0  0  0
   40.1810   24.1380   41.2990 H   0  0  0  0  0  0  0  0  0  0  0  0
   38.5350   25.6880   40.1890 H   0  0  0  0  0  0  0  0  0  0  0  0
   40.2320   26.7330   44.6640 H   0  0  0  0  0  0  0  0  0  0  0  0
   37.1490   31.5440   41.1950 O   0  0  0  0  0  0  0  0  0  0  0  0
   37.1470   32.5860   38.7700 O   0  0  0  0  0  0  0  0  0  0  0  0
   37.9500   32.5160   40.0400 P   0  0  1  0  0  0  0  0  0  0  0  0
   38.1460   34.0680   40.6840 O   0  0  0  0  0  0  0  0  0  0  0  0
   37.2670   34.5350   40.6380 H   0  0  0  0  0  0  0  0  0  0  0  0
   39.4570   31.7920   39.7230 O   0  0  0  0  0  0  0  0  0  0  0  0
   42.8420   34.6940   39.5590 H   0  0  0  0  0  0  0  0  0  0  0  0
   42.3660   33.9370   40.1310 N   0  0  0  0  0  0  0  0  0  0  0  0
   41.2720   33.4110   39.5380 C   0  0  0  0  0  3  0  0  0  0  0  0
   40.5970   32.4180   40.2190 C   0  0  0  0  0  0  0  0  0  0  0  0
   41.0400   31.9820   41.4740 C   0  0  0  0  0  0  0  0  0  0  0  0
   40.4660   31.0760   42.1490 O   0  0  0  0  0  0  0  0  0  0  0  0
   42.1380   32.5500   42.0050 N   0  0  0  0  0  0  0  0  0  0  0  0
   42.8010   33.5160   41.3510 C   0  0  0  0  0  0  0  0  0  0  0  0
   43.8350   34.1340   41.7220 O   0  0  0  0  0  0  0  0  0  0  0  0
   42.5570   32.3010   42.9380 H   0  0  0  0  0  0  0  0  0  0  0  0
  1  6  1  0  0  0  0
  1 12  1  0  0  0  0
  2  1  2  0  0  0  0
  3  4  2  0  0  0  0
  3  2  1  0  0  0  0
  4  5  1  0  0  0  0
  5 19  1  0  0  0  0
  5  6  2  0  0  0  0
  7  2  1  0  0  0  0
  8  3  1  0  0  0  0
  9  4  1  0  0  0  0
 10 15  1  0  0  0  0
 11 12  1  0  0  0  0
 11 10  2  0  0  0  0
 12 13  2  0  0  0  0
 13 14  1  0  0  0  0
 14 18  1  0  0  0  0
 15 14  2  0  0  0  0
 16 10  1  0  0  0  0
 17 11  1  0  0  0  0
 21 20  2  6  0  0  0
 21 22  1  0  0  0  0
 21 19  1  0  0  0  0
 23 22  1  0  0  0  0
 24 21  1  0  0  0  0
 24 28  1  0  0  0  0
 25 26  1  0  0  0  0
 26 32  1  0  0  0  0
 27 26  1  0  0  0  0
 27 28  2  0  0  0  0
 28 29  1  0  0  0  0
 29 31  1  0  0  0  0
 29 30  2  0  0  0  0
 31 34  1  0  0  0  0
 32 33  2  0  0  0  0
 32 31  1  0  0  0  0
M  END
>  <minimizedAffinity>
-5.47945642

$$$$

 OpenBabel03242522003D

 34 36  0  0  0  0  0  0  0  0999 V2000
   38.9990   25.9140   41.5220 C   0  0  0  0  0  0  0  0  0  0  0  0
   39.7260   26.0400   42.6890 C   0  0  0  0  0  0  0  0  0  0  0  0
   39.4800   26.9880   43.6790 C   0  0  0  0  0  0  0  0  0  0  0  0
   38.4340   27.8650   43.4850 C   0  0  0  0  0  0  0  0  0  0  0  0
   37.7300   27.7280   42.3410 C   0  0  0  0  0  0  0  0  0  0  0  0
   37.9990   26.8020   41.4110 N   0  0  0  0  0  0  0  0  0  0  0  0
   40.5470   25.3070   42.7750 H   0  0  0  0  0  0  0  0  0  0  0  0
   40.1730   26.9150   44.5180 H   0  0  0  0  0  0  0  0  0  0  0  0
   38.4060   28.5260   44.3320 H   0  0  0  0  0  0  0  0  0  0  0  0
   40.3790   23.9480   38.6230 C   0  0  0  0  0  0  0  0  0  0  0  0
   40.2460   25.0170   39.5230 C   0  0  0  0  0  0  0  0  0  0  0  0
   39.2930   24.9210   40.5010 C   0  0  0  0  0  0  0  0  0  0  0  0
   38.5240   23.7810   40.5380 N   0  0  0  0  0  0  0  0  0  0  0  0
   38.6670   22.7690   39.6670 C   0  0  0  0  0  0  0  0  0  0  0  0
   39.5980   22.8600   38.7100 N   0  0  0  0  0  0  0  0  0  0  0  0
   41.1410   24.0500   37.8590 H   0  0  0  0  0  0  0  0  0  0  0  0
   40.8290   25.9170   39.5200 H   0  0  0  0  0  0  0  0  0  0  0  0
   38.0100   21.9190   39.7870 H   0  0  0  0  0  0  0  0  0  0  0  0
   36.6760   28.5940   42.1270 O   0  0  0  0  0  0  0  0  0  0  0  0
   36.6620   29.4830   39.6420 O   0  0  0  0  0  0  0  0  0  0  0  0
   36.7820   29.9340   41.0720 P   0  0  1  0  0  0  0  0  0  0  0  0
   35.5310   31.0110   41.4420 O   0  0  0  0  0  0  0  0  0  0  0  0
   34.6830   30.6390   41.0730 H   0  0  0  0  0  0  0  0  0  0  0  0
   38.3020   30.6560   41.3170 O   0  0  0  0  0  0  0  0  0  0  0  0
   39.1130   33.5890   38.0540 H   0  0  0  0  0  0  0  0  0  0  0  0
   39.4060   32.6690   38.4960 N   0  0  0  0  0  0  0  0  0  0  0  0
   38.6650   32.3190   39.5700 C   0  0  0  0  0  3  0  0  0  0  0  0
   38.9840   31.1340   40.2010 C   0  0  0  0  0  0  0  0  0  0  0  0
   40.0360   30.3350   39.7360 C   0  0  0  0  0  0  0  0  0  0  0  0
   40.3780   29.2380   40.2690 O   0  0  0  0  0  0  0  0  0  0  0  0
   40.7320   30.7460   38.6600 N   0  0  0  0  0  0  0  0  0  0  0  0
   40.4290   31.8970   38.0390 C   0  0  0  0  0  0  0  0  0  0  0  0
   40.9890   32.4020   37.0300 O   0  0  0  0  0  0  0  0  0  0  0  0
   41.5390   30.2260   38.2270 H   0  0  0  0  0  0  0  0  0  0  0  0
  1  2  1  0  0  0  0
  2  7  1  0  0  0  0
  2  3  2  0  0  0  0
  3  8  1  0  0  0  0
  4  3  1  0  0  0  0
  4  9  1  0  0  0  0
  5  4  2  0  0  0  0
  6  1  2  0  0  0  0
  6  5  1  0  0  0  0
 10 15  2  0  0  0  0
 10 11  1  0  0  0  0
 11 12  2  0  0  0  0
 12 13  1  0  0  0  0
 12  1  1  0  0  0  0
 14 18  1  0  0  0  0
 14 13  2  0  0  0  0
 15 14  1  0  0  0  0
 16 10  1  0  0  0  0
 17 11  1  0  0  0  0
 19  5  1  0  0  0  0
 21 20  2  6  0  0  0
 21 24  1  0  0  0  0
 21 22  1  0  0  0  0
 21 19  1  0  0  0  0
 23 22  1  0  0  0  0
 25 26  1  0  0  0  0
 26 27  1  0  0  0  0
 27 28  2  0  0  0  0
 28 24  1  0  0  0  0
 29 28  1  0  0  0  0
 29 30  2  0  0  0  0
 31 29  1  0  0  0  0
 32 26  1  0  0  0  0
 32 31  1  0  0  0  0
 33 32  2  0  0  0  0
 34 31  1  0  0  0  0
M  END
>  <minimizedAffinity>
-5.46295261

$$$$
