
 OpenBabel03242516343D

 45 48  0  0  1  0  0  0  0  0999 V2000
   49.1140   32.6170   37.7470 C   0  0  1  0  0  0  0  0  0  0  0  0
   48.4940   33.7420   38.7220 C   0  0  1  0  0  0  0  0  0  0  0  0
   48.0430   34.5770   37.7710 O   0  0  0  0  0  0  0  0  0  0  0  0
   47.1510   33.7150   37.0850 C   0  0  0  0  0  0  0  0  0  0  0  0
   48.0910   32.6050   36.6480 C   0  0  1  0  0  0  0  0  0  0  0  0
   49.2440   31.7060   38.3050 H   0  0  0  0  0  0  0  0  0  0  0  0
   49.3520   33.9130   39.3640 H   0  0  0  0  0  0  0  0  0  0  0  0
   46.6930   34.2450   36.2310 H   0  0  0  0  0  0  0  0  0  0  0  0
   46.3830   33.2860   37.7220 H   0  0  0  0  0  0  0  0  0  0  0  0
   47.5490   31.6270   36.7320 H   0  0  0  0  0  0  0  0  0  0  0  0
   50.2760   33.1990   37.2400 O   0  0  0  0  0  0  0  0  0  0  0  0
   50.1890   33.6120   36.3720 H   0  0  0  0  0  0  0  0  0  0  0  0
   47.4170   33.0890   39.3190 O   0  0  0  0  0  0  0  0  0  0  0  0
   47.6220   33.2730   41.6710 C   0  0  2  0  0  0  0  0  0  0  0  0
   46.0760   33.4010   41.6640 C   0  0  1  0  0  0  0  0  0  0  0  0
   45.7440   32.0830   41.7620 O   0  0  0  0  0  0  0  0  0  0  0  0
   46.5010   31.4670   40.7460 C   0  0  0  0  0  0  0  0  0  0  0  0
   47.7040   32.3860   40.4500 C   0  0  1  0  0  0  0  0  0  0  0  0
   48.1050   34.2440   41.5610 H   0  0  0  0  0  0  0  0  0  0  0  0
   45.8160   33.8320   40.6690 H   0  0  0  0  0  0  0  0  0  0  0  0
   46.8830   30.5000   41.0820 H   0  0  0  0  0  0  0  0  0  0  0  0
   45.9090   31.3740   39.8190 H   0  0  0  0  0  0  0  0  0  0  0  0
   48.6540   31.8290   40.4240 H   0  0  0  0  0  0  0  0  0  0  0  0
   44.7460   36.1280   43.9550 C   0  0  0  0  0  0  0  0  0  0  0  0
   45.1470   35.5490   42.7490 C   0  0  0  0  0  0  0  0  0  0  0  0
   45.6170   34.2540   42.7660 C   0  0  0  0  0  0  0  0  0  0  0  0
   45.6580   33.6150   43.9860 N   0  0  0  0  0  0  0  0  0  0  0  0
   45.2650   34.1960   45.1310 C   0  0  0  0  0  0  0  0  0  0  0  0
   44.8080   35.4610   45.1100 N   0  0  0  0  0  0  0  0  0  0  0  0
   44.3910   37.1460   43.8640 H   0  0  0  0  0  0  0  0  0  0  0  0
   45.1430   35.9780   41.7730 H   0  0  0  0  0  0  0  0  0  0  0  0
   45.3120   33.6610   46.0700 H   0  0  0  0  0  0  0  0  0  0  0  0
   48.0390   32.5130   42.7310 O   0  0  0  0  0  0  0  0  0  0  0  0
   48.7940   32.9060   43.1980 H   0  0  0  0  0  0  0  0  0  0  0  0
   48.6250   32.9160   35.4290 O   0  0  0  0  0  0  0  0  0  0  0  0
   47.1040   29.0940   33.9300 H   0  0  0  0  0  0  0  0  0  0  0  0
   47.4530   30.0560   33.7520 N   0  0  0  0  0  0  0  0  0  0  0  0
   47.8570   30.9880   34.6580 C   0  0  0  0  0  0  0  0  0  0  0  0
   48.3110   32.2640   34.2700 C   0  0  0  0  0  0  0  0  0  0  0  0
   48.3050   32.4680   32.9100 C   0  0  0  0  0  0  0  0  0  0  0  0
   48.7160   33.6140   32.6270 O   0  0  0  0  0  0  0  0  0  0  0  0
   47.9050   31.5400   32.0310 N   0  0  0  0  0  0  0  0  0  0  0  0
   47.4800   30.3410   32.4230 C   0  0  0  0  0  0  0  0  0  0  0  0
   47.1330   29.5620   31.5020 O   0  0  0  0  0  0  0  0  0  0  0  0
   47.9790   31.8970   31.0500 H   0  0  0  0  0  0  0  0  0  0  0  0
  1  6  1  1  0  0  0
  1  2  1  0  0  0  0
  2 13  1  0  0  0  0
  2  7  1  1  0  0  0
  3  2  1  0  0  0  0
  4  9  1  0  0  0  0
  4  3  1  0  0  0  0
  5 10  1  6  0  0  0
  5  4  1  0  0  0  0
  5  1  1  0  0  0  0
  8  4  1  0  0  0  0
 11  1  1  0  0  0  0
 12 11  1  0  0  0  0
 13 18  1  0  0  0  0
 14 19  1  6  0  0  0
 14 33  1  0  0  0  0
 15 20  1  6  0  0  0
 15 14  1  0  0  0  0
 15 16  1  0  0  0  0
 15 26  1  0  0  0  0
 17 21  1  0  0  0  0
 17 16  1  0  0  0  0
 18 23  1  6  0  0  0
 18 17  1  0  0  0  0
 18 14  1  0  0  0  0
 22 17  1  0  0  0  0
 24 29  1  0  0  0  0
 25 26  1  0  0  0  0
 25 24  2  0  0  0  0
 26 27  2  0  0  0  0
 27 28  1  0  0  0  0
 28 32  1  0  0  0  0
 29 28  2  0  0  0  0
 30 24  1  0  0  0  0
 31 25  1  0  0  0  0
 33 34  1  0  0  0  0
 35  5  1  0  0  0  0
 37 36  1  0  0  0  0
 37 38  1  0  0  0  0
 39 38  2  0  0  0  0
 39 35  1  0  0  0  0
 40 39  1  0  0  0  0
 41 40  2  0  0  0  0
 42 43  1  0  0  0  0
 42 40  1  0  0  0  0
 43 37  1  0  0  0  0
 44 43  2  0  0  0  0
 45 42  1  0  0  0  0
M  END
>  <minimizedAffinity>
-6.11761951

>  <minimizedRMSD>
2.16061854

$$$$
