
 OpenBabel03252509313D

 28 29  0  0  0  0  0  0  0  0999 V2000
   50.4550   32.7500   42.0310 O   0  0  0  0  0  0  0  0  0  0  0  0
   49.4320   33.8160   42.2690 P   0  0  2  0  0  0  0  0  0  0  0  0
   50.0810   35.2080   42.9580 O   0  0  0  0  0  0  0  0  0  0  0  0
   50.2170   35.1180   43.9350 H   0  0  0  0  0  0  0  0  0  0  0  0
   48.2360   33.2430   43.3200 O   0  0  0  0  0  0  0  0  0  0  0  0
   47.0060   33.6540   42.8120 C   0  0  0  0  0  0  0  0  0  0  0  0
   46.4500   32.7860   42.3520 H   0  0  0  0  0  0  0  0  0  0  0  0
   47.0900   34.4230   42.0170 H   0  0  0  0  0  0  0  0  0  0  0  0
   45.2710   34.0900   46.0890 C   0  0  0  0  0  0  0  0  0  0  0  0
   46.1030   33.5420   45.0900 C   0  0  0  0  0  0  0  0  0  0  0  0
   46.1470   34.1980   43.8760 C   0  0  0  0  0  0  0  0  0  0  0  0
   45.3930   35.3330   43.7030 N   0  0  0  0  0  0  0  0  0  0  0  0
   44.6080   35.8280   44.6820 C   0  0  0  0  0  0  0  0  0  0  0  0
   44.5510   35.2070   45.8660 N   0  0  0  0  0  0  0  0  0  0  0  0
   45.2150   33.6060   47.0390 H   0  0  0  0  0  0  0  0  0  0  0  0
   46.6920   32.6520   45.2340 H   0  0  0  0  0  0  0  0  0  0  0  0
   44.0590   36.7260   44.4320 H   0  0  0  0  0  0  0  0  0  0  0  0
   48.6820   34.1840   40.7960 O   0  0  0  0  0  0  0  0  0  0  0  0
   48.0370   30.0840   39.3120 H   0  0  0  0  0  0  0  0  0  0  0  0
   48.1410   31.0960   39.0400 N   0  0  0  0  0  0  0  0  0  0  0  0
   48.3340   31.9270   40.0730 C   0  0  0  0  0  3  0  0  0  0  0  0
   48.4810   33.2850   39.7820 C   0  0  0  0  0  0  0  0  0  0  0  0
   48.4170   33.6880   38.4550 C   0  0  0  0  0  0  0  0  0  0  0  0
   48.5450   34.9050   38.1590 O   0  0  0  0  0  0  0  0  0  0  0  0
   48.2170   32.7590   37.4960 N   0  0  0  0  0  0  0  0  0  0  0  0
   48.0720   31.4290   37.7600 C   0  0  0  0  0  0  0  0  0  0  0  0
   47.8880   30.6160   36.8190 O   0  0  0  0  0  0  0  0  0  0  0  0
   48.1770   33.1270   36.5000 H   0  0  0  0  0  0  0  0  0  0  0  0
  2  1  2  6  0  0  0
  2  3  1  0  0  0  0
  2  5  1  0  0  0  0
  3  4  1  0  0  0  0
  6  5  1  0  0  0  0
  6 11  1  0  0  0  0
  7  6  1  0  0  0  0
  8  6  1  0  0  0  0
  9 15  1  0  0  0  0
 10 16  1  0  0  0  0
 10  9  2  0  0  0  0
 11 10  1  0  0  0  0
 12 11  2  0  0  0  0
 12 13  1  0  0  0  0
 13 14  2  0  0  0  0
 14  9  1  0  0  0  0
 17 13  1  0  0  0  0
 18  2  1  0  0  0  0
 20 19  1  0  0  0  0
 20 21  1  0  0  0  0
 22 21  2  0  0  0  0
 22 18  1  0  0  0  0
 23 22  1  0  0  0  0
 24 23  2  0  0  0  0
 25 26  1  0  0  0  0
 25 23  1  0  0  0  0
 26 20  1  0  0  0  0
 27 26  2  0  0  0  0
 28 25  1  0  0  0  0
M  END
>  <minimizedAffinity>
-4.74238205

>  <minimizedRMSD>
0.8356691

$$$$
