
 OpenBabel03252509313D

 28 29  0  0  0  0  0  0  0  0999 V2000
   50.0550   33.0760   41.6660 O   0  0  0  0  0  0  0  0  0  0  0  0
   49.1740   34.0970   42.3160 P   0  0  2  0  0  0  0  0  0  0  0  0
   50.0400   35.3340   43.0600 O   0  0  0  0  0  0  0  0  0  0  0  0
   50.3900   35.0690   43.9480 H   0  0  0  0  0  0  0  0  0  0  0  0
   48.2200   33.3630   43.5040 O   0  0  0  0  0  0  0  0  0  0  0  0
   46.9070   33.7800   43.2980 C   0  0  0  0  0  0  0  0  0  0  0  0
   46.3460   33.0430   42.6530 H   0  0  0  0  0  0  0  0  0  0  0  0
   46.8290   34.7600   42.7840 H   0  0  0  0  0  0  0  0  0  0  0  0
   45.7180   33.0760   46.7670 C   0  0  0  0  0  0  0  0  0  0  0  0
   46.4360   32.9510   45.5590 C   0  0  0  0  0  0  0  0  0  0  0  0
   46.1750   33.8810   44.5710 C   0  0  0  0  0  0  0  0  0  0  0  0
   45.2480   34.8650   44.8090 N   0  0  0  0  0  0  0  0  0  0  0  0
   44.5800   34.9530   45.9790 C   0  0  0  0  0  0  0  0  0  0  0  0
   44.8180   34.0620   46.9480 N   0  0  0  0  0  0  0  0  0  0  0  0
   45.8970   32.3730   47.5500 H   0  0  0  0  0  0  0  0  0  0  0  0
   47.1620   32.1770   45.3800 H   0  0  0  0  0  0  0  0  0  0  0  0
   43.8730   35.7680   46.0530 H   0  0  0  0  0  0  0  0  0  0  0  0
   48.1300   34.7330   41.1450 O   0  0  0  0  0  0  0  0  0  0  0  0
   49.5130   35.3820   37.0090 H   0  0  0  0  0  0  0  0  0  0  0  0
   48.9190   34.7820   37.6390 N   0  0  0  0  0  0  0  0  0  0  0  0
   48.9290   35.1550   38.9250 C   0  0  0  0  0  3  0  0  0  0  0  0
   48.1620   34.4020   39.8160 C   0  0  0  0  0  0  0  0  0  0  0  0
   47.4410   33.3220   39.3200 C   0  0  0  0  0  0  0  0  0  0  0  0
   46.7390   32.6230   40.0960 O   0  0  0  0  0  0  0  0  0  0  0  0
   47.5080   33.0410   38.0020 N   0  0  0  0  0  0  0  0  0  0  0  0
   48.2510   33.7640   37.1160 C   0  0  0  0  0  0  0  0  0  0  0  0
   48.2690   33.4460   35.9000 O   0  0  0  0  0  0  0  0  0  0  0  0
   46.9360   32.2040   37.6800 H   0  0  0  0  0  0  0  0  0  0  0  0
  2  1  2  6  0  0  0
  2  3  1  0  0  0  0
  2  5  1  0  0  0  0
  3  4  1  0  0  0  0
  6  5  1  0  0  0  0
  6 11  1  0  0  0  0
  7  6  1  0  0  0  0
  8  6  1  0  0  0  0
  9 14  1  0  0  0  0
  9 15  1  0  0  0  0
 10  9  2  0  0  0  0
 11 12  2  0  0  0  0
 11 10  1  0  0  0  0
 12 13  1  0  0  0  0
 13 17  1  0  0  0  0
 13 14  2  0  0  0  0
 16 10  1  0  0  0  0
 18  2  1  0  0  0  0
 19 20  1  0  0  0  0
 20 21  1  0  0  0  0
 21 22  2  0  0  0  0
 22 18  1  0  0  0  0
 23 22  1  0  0  0  0
 23 24  2  0  0  0  0
 25 23  1  0  0  0  0
 26 20  1  0  0  0  0
 26 25  1  0  0  0  0
 27 26  2  0  0  0  0
 28 25  1  0  0  0  0
M  END
>  <minimizedAffinity>
-4.65704727

>  <minimizedRMSD>
1.22685909

$$$$
