
 OpenBabel03242521593D

 34 36  0  0  0  0  0  0  0  0999 V2000
   46.3140   34.4160   41.9460 C   0  0  0  0  0  0  0  0  0  0  0  0
   47.5140   34.9390   41.5060 C   0  0  0  0  0  0  0  0  0  0  0  0
   48.1170   34.6280   40.2900 C   0  0  0  0  0  0  0  0  0  0  0  0
   47.4720   33.7340   39.4610 C   0  0  0  0  0  0  0  0  0  0  0  0
   46.2990   33.2330   39.9030 C   0  0  0  0  0  0  0  0  0  0  0  0
   45.7510   33.5580   41.0820 N   0  0  0  0  0  0  0  0  0  0  0  0
   47.9720   35.6450   42.2200 H   0  0  0  0  0  0  0  0  0  0  0  0
   49.0620   35.1520   40.1380 H   0  0  0  0  0  0  0  0  0  0  0  0
   48.0850   33.6040   38.5880 H   0  0  0  0  0  0  0  0  0  0  0  0
   44.4900   36.0160   44.8250 C   0  0  0  0  0  0  0  0  0  0  0  0
   44.9810   35.8680   43.5180 C   0  0  0  0  0  0  0  0  0  0  0  0
   45.7190   34.7520   43.2300 C   0  0  0  0  0  0  0  0  0  0  0  0
   45.9330   33.8440   44.2410 N   0  0  0  0  0  0  0  0  0  0  0  0
   45.4540   34.0050   45.4870 C   0  0  0  0  0  0  0  0  0  0  0  0
   44.7320   35.0950   45.7700 N   0  0  0  0  0  0  0  0  0  0  0  0
   43.9090   36.9090   45.0260 H   0  0  0  0  0  0  0  0  0  0  0  0
   44.8330   36.5560   42.7090 H   0  0  0  0  0  0  0  0  0  0  0  0
   45.6810   33.2300   46.2050 H   0  0  0  0  0  0  0  0  0  0  0  0
   45.6340   32.3380   39.0880 O   0  0  0  0  0  0  0  0  0  0  0  0
   45.4370   33.5550   36.7550 O   0  0  0  0  0  0  0  0  0  0  0  0
   44.6290   32.8340   37.7990 P   0  0  1  0  0  0  0  0  0  0  0  0
   43.9060   31.4630   37.1210 O   0  0  0  0  0  0  0  0  0  0  0  0
   44.5880   30.9970   36.5640 H   0  0  0  0  0  0  0  0  0  0  0  0
   43.4580   33.8880   38.4420 O   0  0  0  0  0  0  0  0  0  0  0  0
   40.7350   30.8350   40.2240 H   0  0  0  0  0  0  0  0  0  0  0  0
   41.1780   31.7910   40.3490 N   0  0  0  0  0  0  0  0  0  0  0  0
   41.9870   32.1570   39.3310 C   0  0  0  0  0  0  0  0  0  0  0  0
   42.6010   33.3890   39.4200 C   0  0  0  0  0  0  0  0  0  0  0  0
   42.3840   34.2190   40.5270 C   0  0  0  0  0  0  0  0  0  0  0  0
   42.9160   35.3610   40.6680 O   0  0  0  0  0  0  0  0  0  0  0  0
   41.5650   33.7920   41.5050 N   0  0  0  0  0  0  0  0  0  0  0  0
   40.9630   32.5940   41.4280 C   0  0  0  0  0  0  0  0  0  0  0  0
   40.1770   32.0680   42.2610 O   0  0  0  0  0  0  0  0  0  0  0  0
   41.3310   34.3310   42.3780 H   0  0  0  0  0  0  0  0  0  0  0  0
  1 12  1  0  0  0  0
  2  1  1  0  0  0  0
  2  7  1  0  0  0  0
  3  2  2  0  0  0  0
  4  5  2  0  0  0  0
  4  3  1  0  0  0  0
  5  6  1  0  0  0  0
  6  1  2  0  0  0  0
  8  3  1  0  0  0  0
  9  4  1  0  0  0  0
 10 16  1  0  0  0  0
 10 15  1  0  0  0  0
 11 10  2  0  0  0  0
 12 11  1  0  0  0  0
 12 13  2  0  0  0  0
 13 14  1  0  0  0  0
 14 15  2  0  0  0  0
 14 18  1  0  0  0  0
 17 11  1  0  0  0  0
 19  5  1  0  0  0  0
 21 20  2  6  0  0  0
 21 24  1  0  0  0  0
 21 19  1  0  0  0  0
 22 21  1  0  0  0  0
 23 22  1  0  0  0  0
 24 28  1  0  0  0  0
 25 26  1  0  0  0  0
 26 32  1  0  0  0  0
 27 28  2  0  0  0  0
 27 26  1  0  0  0  0
 28 29  1  0  0  0  0
 29 30  2  0  0  0  0
 29 31  1  0  0  0  0
 31 34  1  0  0  0  0
 32 31  1  0  0  0  0
 32 33  2  0  0  0  0
M  END
>  <minimizedAffinity>
-5.82676172

>  <minimizedRMSD>
2.54358172

$$$$
