
 OpenBabel03252509313D

 28 29  0  0  0  0  0  0  0  0999 V2000
   50.4480   32.4370   42.5110 O   0  0  0  0  0  0  0  0  0  0  0  0
   49.5120   33.5870   42.3090 P   0  0  2  0  0  0  0  0  0  0  0  0
   50.0280   34.9970   43.0710 O   0  0  0  0  0  0  0  0  0  0  0  0
   49.8240   34.9990   44.0400 H   0  0  0  0  0  0  0  0  0  0  0  0
   47.9860   33.2060   42.9330 O   0  0  0  0  0  0  0  0  0  0  0  0
   47.1580   34.3010   42.7020 C   0  0  0  0  0  0  0  0  0  0  0  0
   46.5110   34.1340   41.7920 H   0  0  0  0  0  0  0  0  0  0  0  0
   47.7120   35.2440   42.5160 H   0  0  0  0  0  0  0  0  0  0  0  0
   45.4340   33.9220   45.9930 C   0  0  0  0  0  0  0  0  0  0  0  0
   46.3180   33.6750   44.9210 C   0  0  0  0  0  0  0  0  0  0  0  0
   46.2500   34.5290   43.8380 C   0  0  0  0  0  0  0  0  0  0  0  0
   45.3430   35.5600   43.8570 N   0  0  0  0  0  0  0  0  0  0  0  0
   44.5130   35.7650   44.9010 C   0  0  0  0  0  0  0  0  0  0  0  0
   44.5630   34.9490   45.9600 N   0  0  0  0  0  0  0  0  0  0  0  0
   45.4620   33.2790   46.8440 H   0  0  0  0  0  0  0  0  0  0  0  0
   47.0270   32.8650   44.9130 H   0  0  0  0  0  0  0  0  0  0  0  0
   43.8400   36.6070   44.8060 H   0  0  0  0  0  0  0  0  0  0  0  0
   49.3310   33.8510   40.6460 O   0  0  0  0  0  0  0  0  0  0  0  0
   45.7670   32.4260   38.4770 H   0  0  0  0  0  0  0  0  0  0  0  0
   46.7920   32.2650   38.6570 N   0  0  0  0  0  0  0  0  0  0  0  0
   47.3480   33.1420   39.5040 C   0  0  0  0  0  3  0  0  0  0  0  0
   48.7060   32.9860   39.7870 C   0  0  0  0  0  0  0  0  0  0  0  0
   49.3920   31.9420   39.1810 C   0  0  0  0  0  0  0  0  0  0  0  0
   50.6170   31.7720   39.4140 O   0  0  0  0  0  0  0  0  0  0  0  0
   48.7260   31.1190   38.3430 N   0  0  0  0  0  0  0  0  0  0  0  0
   47.4010   31.2550   38.0540 C   0  0  0  0  0  0  0  0  0  0  0  0
   46.8410   30.4520   37.2640 O   0  0  0  0  0  0  0  0  0  0  0  0
   49.3030   30.3390   37.9090 H   0  0  0  0  0  0  0  0  0  0  0  0
  2  1  2  1  0  0  0
  2  5  1  0  0  0  0
  2  3  1  0  0  0  0
  3  4  1  0  0  0  0
  6  5  1  0  0  0  0
  6 11  1  0  0  0  0
  7  6  1  0  0  0  0
  8  6  1  0  0  0  0
  9 15  1  0  0  0  0
 10  9  2  0  0  0  0
 11 12  2  0  0  0  0
 11 10  1  0  0  0  0
 12 13  1  0  0  0  0
 13 14  2  0  0  0  0
 14  9  1  0  0  0  0
 16 10  1  0  0  0  0
 17 13  1  0  0  0  0
 18  2  1  0  0  0  0
 19 20  1  0  0  0  0
 20 21  1  0  0  0  0
 21 22  2  0  0  0  0
 22 18  1  0  0  0  0
 23 24  2  0  0  0  0
 23 22  1  0  0  0  0
 25 23  1  0  0  0  0
 26 25  1  0  0  0  0
 26 20  1  0  0  0  0
 27 26  2  0  0  0  0
 28 25  1  0  0  0  0
M  END
>  <minimizedAffinity>
-4.2904458

>  <minimizedRMSD>
1.07367229

$$$$
