
 OpenBabel03252509313D

 28 29  0  0  0  0  0  0  0  0999 V2000
   50.0480   33.0660   41.6920 O   0  0  0  0  0  0  0  0  0  0  0  0
   49.1630   34.0930   42.3240 P   0  0  2  0  0  0  0  0  0  0  0  0
   50.0230   35.3530   43.0360 O   0  0  0  0  0  0  0  0  0  0  0  0
   50.3810   35.1100   43.9280 H   0  0  0  0  0  0  0  0  0  0  0  0
   48.2220   33.3770   43.5340 O   0  0  0  0  0  0  0  0  0  0  0  0
   46.8880   33.6510   43.2390 C   0  0  0  0  0  0  0  0  0  0  0  0
   46.4000   32.7710   42.7270 H   0  0  0  0  0  0  0  0  0  0  0  0
   46.7540   34.5170   42.5590 H   0  0  0  0  0  0  0  0  0  0  0  0
   45.5210   33.3520   46.7010 C   0  0  0  0  0  0  0  0  0  0  0  0
   46.2750   33.0680   45.5420 C   0  0  0  0  0  0  0  0  0  0  0  0
   46.1170   33.9170   44.4640 C   0  0  0  0  0  0  0  0  0  0  0  0
   45.2500   34.9760   44.5700 N   0  0  0  0  0  0  0  0  0  0  0  0
   44.5450   35.2160   45.6960 C   0  0  0  0  0  0  0  0  0  0  0  0
   44.6840   34.4060   46.7520 N   0  0  0  0  0  0  0  0  0  0  0  0
   45.6210   32.7140   47.5510 H   0  0  0  0  0  0  0  0  0  0  0  0
   46.9530   32.2360   45.4670 H   0  0  0  0  0  0  0  0  0  0  0  0
   43.8930   36.0780   45.6640 H   0  0  0  0  0  0  0  0  0  0  0  0
   48.1070   34.6960   41.1460 O   0  0  0  0  0  0  0  0  0  0  0  0
   49.5120   35.4240   37.0320 H   0  0  0  0  0  0  0  0  0  0  0  0
   48.9330   34.7990   37.6500 N   0  0  0  0  0  0  0  0  0  0  0  0
   48.9140   35.1620   38.9390 C   0  0  0  0  0  3  0  0  0  0  0  0
   48.1650   34.3750   39.8160 C   0  0  0  0  0  0  0  0  0  0  0  0
   47.4900   33.2740   39.3040 C   0  0  0  0  0  0  0  0  0  0  0  0
   46.8050   32.5430   40.0670 O   0  0  0  0  0  0  0  0  0  0  0  0
   47.5820   33.0040   37.9840 N   0  0  0  0  0  0  0  0  0  0  0  0
   48.3090   33.7610   37.1130 C   0  0  0  0  0  0  0  0  0  0  0  0
   48.3520   33.4520   35.8950 O   0  0  0  0  0  0  0  0  0  0  0  0
   47.0450   32.1500   37.6510 H   0  0  0  0  0  0  0  0  0  0  0  0
  2  1  2  6  0  0  0
  2  3  1  0  0  0  0
  2  5  1  0  0  0  0
  3  4  1  0  0  0  0
  6  5  1  0  0  0  0
  6 11  1  0  0  0  0
  7  6  1  0  0  0  0
  8  6  1  0  0  0  0
  9 14  1  0  0  0  0
  9 15  1  0  0  0  0
 10  9  2  0  0  0  0
 11 12  2  0  0  0  0
 11 10  1  0  0  0  0
 12 13  1  0  0  0  0
 13 14  2  0  0  0  0
 16 10  1  0  0  0  0
 17 13  1  0  0  0  0
 18  2  1  0  0  0  0
 19 20  1  0  0  0  0
 20 21  1  0  0  0  0
 21 22  2  0  0  0  0
 22 18  1  0  0  0  0
 23 22  1  0  0  0  0
 23 24  2  0  0  0  0
 25 23  1  0  0  0  0
 26 20  1  0  0  0  0
 26 25  1  0  0  0  0
 27 26  2  0  0  0  0
 28 25  1  0  0  0  0
M  END
>  <minimizedAffinity>
-4.72173977

>  <minimizedRMSD>
1.15517855

$$$$
