
 OpenBabel03252504273D

 23 24  0  0  0  0  0  0  0  0999 V2000
   44.0690   35.6490   41.8020 C   0  0  0  0  0  0  0  0  0  0  0  0
   44.8610   36.3550   41.4740 H   0  0  0  0  0  0  0  0  0  0  0  0
   43.1720   36.3050   41.9760 H   0  0  0  0  0  0  0  0  0  0  0  0
   44.3250   35.7870   44.1940 C   0  0  0  0  0  0  0  0  0  0  0  0
   44.5340   35.0450   43.0530 C   0  0  0  0  0  0  0  0  0  0  0  0
   45.1540   33.8200   43.1980 C   0  0  0  0  0  0  0  0  0  0  0  0
   45.5140   33.4310   44.4420 N   0  0  0  0  0  0  0  0  0  0  0  0
   45.2980   34.1720   45.5390 C   0  0  0  0  0  0  0  0  0  0  0  0
   44.6850   35.4020   45.4540 N   0  0  0  0  0  0  0  0  0  0  0  0
   43.8390   36.7760   44.1910 H   0  0  0  0  0  0  0  0  0  0  0  0
   45.3120   33.2510   42.2970 H   0  0  0  0  0  0  0  0  0  0  0  0
   45.6810   33.6310   46.4020 H   0  0  0  0  0  0  0  0  0  0  0  0
   43.8690   34.7420   40.7730 O   0  0  0  0  0  0  0  0  0  0  0  0
   39.6580   35.8900   39.6180 H   0  0  0  0  0  0  0  0  0  0  0  0
   40.5810   35.4190   39.4230 N   0  0  0  0  0  0  0  0  0  0  0  0
   41.5880   35.4340   40.2910 C   0  0  0  0  0  3  0  0  0  0  0  0
   42.7580   34.7880   39.9440 C   0  0  0  0  0  0  0  0  0  0  0  0
   42.8070   34.1630   38.7060 C   0  0  0  0  0  0  0  0  0  0  0  0
   43.8770   33.5730   38.3900 O   0  0  0  0  0  0  0  0  0  0  0  0
   41.7660   34.1650   37.8440 N   0  0  0  0  0  0  0  0  0  0  0  0
   40.6300   34.8130   38.2230 C   0  0  0  0  0  0  0  0  0  0  0  0
   39.7000   34.7760   37.3750 O   0  0  0  0  0  0  0  0  0  0  0  0
   41.8340   33.6820   36.9110 H   0  0  0  0  0  0  0  0  0  0  0  0
  1  3  1  0  0  0  0
  1  5  1  0  0  0  0
  2  1  1  0  0  0  0
  4  9  1  0  0  0  0
  5  6  1  0  0  0  0
  5  4  2  0  0  0  0
  6  7  2  0  0  0  0
  7  8  1  0  0  0  0
  8 12  1  0  0  0  0
  9  8  2  0  0  0  0
 10  4  1  0  0  0  0
 11  6  1  0  0  0  0
 13  1  1  0  0  0  0
 15 14  1  0  0  0  0
 15 16  1  0  0  0  0
 17 16  2  0  0  0  0
 17 13  1  0  0  0  0
 18 17  1  0  0  0  0
 19 18  2  0  0  0  0
 20 21  1  0  0  0  0
 20 18  1  0  0  0  0
 21 15  1  0  0  0  0
 22 21  2  0  0  0  0
 23 20  1  0  0  0  0
M  END
>  <minimizedAffinity>
-4.7003231

>  <minimizedRMSD>
1.38617814

$$$$
