
 OpenBabel03252509003D

 46 48  0  0  1  0  0  0  0  0999 V2000
   46.5850   34.6140   43.5500 N   0  0  0  0  0  0  0  0  0  0  0  0
   46.0700   35.5950   42.6530 C   0  0  0  0  0  0  0  0  0  0  0  0
   44.5720   35.7470   42.6510 C   0  0  0  0  0  0  0  0  0  0  0  0
   43.9110   35.4750   43.9710 C   0  0  0  0  0  0  0  0  0  0  0  0
   44.9310   35.2380   45.0610 C   0  0  0  0  0  0  0  0  0  0  0  0
   45.7660   34.0290   44.5000 C   0  0  2  0  0  0  0  0  0  0  0  0
   46.4900   36.5750   43.0090 H   0  0  0  0  0  0  0  0  0  0  0  0
   46.3990   35.5120   41.6150 H   0  0  0  0  0  0  0  0  0  0  0  0
   44.1140   35.1510   41.8290 H   0  0  0  0  0  0  0  0  0  0  0  0
   44.3250   36.8080   42.4050 H   0  0  0  0  0  0  0  0  0  0  0  0
   43.3410   34.5220   43.8560 H   0  0  0  0  0  0  0  0  0  0  0  0
   43.1430   36.2350   44.2500 H   0  0  0  0  0  0  0  0  0  0  0  0
   45.5870   36.1090   45.1540 H   0  0  0  0  0  0  0  0  0  0  0  0
   44.4280   34.9370   45.9870 H   0  0  0  0  0  0  0  0  0  0  0  0
   45.0480   33.2690   44.1560 H   0  0  0  0  0  0  0  0  0  0  0  0
   47.6900   33.8630   43.0320 C   0  0  0  0  0  0  0  0  0  0  0  0
   48.3610   34.5450   42.4940 H   0  0  0  0  0  0  0  0  0  0  0  0
   48.2360   33.4110   43.8890 H   0  0  0  0  0  0  0  0  0  0  0  0
   47.1620   32.7570   42.1710 C   0  0  0  0  0  0  0  0  0  0  0  0
   47.3890   31.7640   42.5810 H   0  0  0  0  0  0  0  0  0  0  0  0
   46.0590   32.8170   42.0800 H   0  0  0  0  0  0  0  0  0  0  0  0
   49.0900   31.9890   39.0340 C   0  0  0  0  0  0  0  0  0  0  0  0
   48.5440   31.8690   40.3310 C   0  0  0  0  0  0  0  0  0  0  0  0
   47.7390   32.8810   40.8070 C   0  0  0  0  0  0  0  0  0  0  0  0
   47.5090   33.9430   40.0080 N   0  0  0  0  0  0  0  0  0  0  0  0
   48.0450   34.0290   38.7740 C   0  0  0  0  0  0  0  0  0  0  0  0
   48.8320   33.0690   38.2760 N   0  0  0  0  0  0  0  0  0  0  0  0
   49.7110   31.1660   38.7210 H   0  0  0  0  0  0  0  0  0  0  0  0
   48.7300   31.0100   40.9750 H   0  0  0  0  0  0  0  0  0  0  0  0
   47.8650   34.8800   38.1270 H   0  0  0  0  0  0  0  0  0  0  0  0
   46.4930   33.6520   45.6310 O   0  0  0  0  0  0  0  0  0  0  0  0
   45.5410   31.2580   44.9690 O   0  0  0  0  0  0  0  0  0  0  0  0
   46.1640   32.0650   46.1050 P   0  0  2  0  0  0  0  0  0  0  0  0
   44.9590   32.1800   47.3160 O   0  0  0  0  0  0  0  0  0  0  0  0
   45.2340   32.8370   47.9980 H   0  0  0  0  0  0  0  0  0  0  0  0
   47.4940   31.3310   46.7780 O   0  0  0  0  0  0  0  0  0  0  0  0
   46.3810   27.5520   48.7530 H   0  0  0  0  0  0  0  0  0  0  0  0
   46.9250   28.0340   47.9930 N   0  0  0  0  0  0  0  0  0  0  0  0
   46.9110   29.3850   47.8080 C   0  0  0  0  0  3  0  0  0  0  0  0
   47.6590   29.9560   46.7720 C   0  0  0  0  0  0  0  0  0  0  0  0
   48.3900   29.1120   45.9690 C   0  0  0  0  0  0  0  0  0  0  0  0
   49.0160   29.7420   45.0810 O   0  0  0  0  0  0  0  0  0  0  0  0
   48.3650   27.7970   46.1960 N   0  0  0  0  0  0  0  0  0  0  0  0
   47.6510   27.2460   47.1860 C   0  0  0  0  0  0  0  0  0  0  0  0
   47.7460   25.9990   47.2510 O   0  0  0  0  0  0  0  0  0  0  0  0
   48.9630   27.2460   45.5190 H   0  0  0  0  0  0  0  0  0  0  0  0
  1  6  1  0  0  0  0
  2  7  1  0  0  0  0
  2  1  1  0  0  0  0
  3  2  1  0  0  0  0
  3  4  1  0  0  0  0
  4 12  1  0  0  0  0
  4  5  1  0  0  0  0
  5 13  1  0  0  0  0
  5 14  1  0  0  0  0
  6 15  1  6  0  0  0
  6  5  1  0  0  0  0
  6 31  1  0  0  0  0
  8  2  1  0  0  0  0
  9  3  1  0  0  0  0
 10  3  1  0  0  0  0
 11  4  1  0  0  0  0
 16  1  1  0  0  0  0
 16 18  1  0  0  0  0
 17 16  1  0  0  0  0
 19 20  1  0  0  0  0
 19 16  1  0  0  0  0
 21 19  1  0  0  0  0
 22 23  1  0  0  0  0
 23 24  2  0  0  0  0
 23 29  1  0  0  0  0
 24 19  1  0  0  0  0
 25 24  1  0  0  0  0
 26 25  2  0  0  0  0
 27 26  1  0  0  0  0
 27 22  2  0  0  0  0
 28 22  1  0  0  0  0
 30 26  1  0  0  0  0
 31 33  1  0  0  0  0
 33 32  2  6  0  0  0
 33 36  1  0  0  0  0
 33 34  1  0  0  0  0
 34 35  1  0  0  0  0
 38 37  1  0  0  0  0
 39 38  1  0  0  0  0
 40 36  1  0  0  0  0
 40 39  2  0  0  0  0
 41 43  1  0  0  0  0
 41 40  1  0  0  0  0
 42 41  2  0  0  0  0
 43 44  1  0  0  0  0
 44 45  2  0  0  0  0
 44 38  1  0  0  0  0
 46 43  1  0  0  0  0
M  END
>  <minimizedAffinity>
-4.5196867

>  <minimizedRMSD>
1.20808542

$$$$
