
 OpenBabel03252509323D

 28 29  0  0  0  0  0  0  0  0999 V2000
   50.6760   32.3590   42.7090 O   0  0  0  0  0  0  0  0  0  0  0  0
   49.6920   33.4430   42.4000 P   0  0  2  0  0  0  0  0  0  0  0  0
   50.1750   34.9520   42.9700 O   0  0  0  0  0  0  0  0  0  0  0  0
   49.9990   35.0650   43.9380 H   0  0  0  0  0  0  0  0  0  0  0  0
   48.2000   33.0880   43.1150 O   0  0  0  0  0  0  0  0  0  0  0  0
   47.3000   34.0690   42.7050 C   0  0  0  0  0  0  0  0  0  0  0  0
   46.6870   33.7120   41.8270 H   0  0  0  0  0  0  0  0  0  0  0  0
   47.7890   35.0100   42.3770 H   0  0  0  0  0  0  0  0  0  0  0  0
   45.4330   33.9790   45.9370 C   0  0  0  0  0  0  0  0  0  0  0  0
   46.3510   33.6300   44.9250 C   0  0  0  0  0  0  0  0  0  0  0  0
   46.3540   34.4050   43.7810 C   0  0  0  0  0  0  0  0  0  0  0  0
   45.4790   35.4590   43.6870 N   0  0  0  0  0  0  0  0  0  0  0  0
   44.6140   35.7630   44.6770 C   0  0  0  0  0  0  0  0  0  0  0  0
   44.5950   35.0250   45.7940 N   0  0  0  0  0  0  0  0  0  0  0  0
   45.4060   33.4000   46.8340 H   0  0  0  0  0  0  0  0  0  0  0  0
   47.0350   32.8030   45.0060 H   0  0  0  0  0  0  0  0  0  0  0  0
   43.9720   36.6140   44.4920 H   0  0  0  0  0  0  0  0  0  0  0  0
   49.4550   33.4970   40.7250 O   0  0  0  0  0  0  0  0  0  0  0  0
   46.3930   30.9400   38.8480 H   0  0  0  0  0  0  0  0  0  0  0  0
   47.4260   31.0950   38.9840 N   0  0  0  0  0  0  0  0  0  0  0  0
   47.7290   32.1590   39.7400 C   0  0  0  0  0  3  0  0  0  0  0  0
   49.0820   32.4230   39.9600 C   0  0  0  0  0  0  0  0  0  0  0  0
   50.0230   31.5760   39.3890 C   0  0  0  0  0  0  0  0  0  0  0  0
   51.2520   31.7860   39.5680 O   0  0  0  0  0  0  0  0  0  0  0  0
   49.5990   30.5330   38.6460 N   0  0  0  0  0  0  0  0  0  0  0  0
   48.2830   30.2580   38.4190 C   0  0  0  0  0  0  0  0  0  0  0  0
   47.9560   29.2680   37.7150 O   0  0  0  0  0  0  0  0  0  0  0  0
   50.3640   29.9200   38.2340 H   0  0  0  0  0  0  0  0  0  0  0  0
  2  1  2  1  0  0  0
  2  3  1  0  0  0  0
  2  5  1  0  0  0  0
  3  4  1  0  0  0  0
  6  5  1  0  0  0  0
  6 11  1  0  0  0  0
  7  6  1  0  0  0  0
  8  6  1  0  0  0  0
  9 15  1  0  0  0  0
 10 16  1  0  0  0  0
 10  9  2  0  0  0  0
 11 10  1  0  0  0  0
 12 11  2  0  0  0  0
 12 13  1  0  0  0  0
 13 14  2  0  0  0  0
 14  9  1  0  0  0  0
 17 13  1  0  0  0  0
 18  2  1  0  0  0  0
 19 20  1  0  0  0  0
 20 21  1  0  0  0  0
 21 22  2  0  0  0  0
 22 18  1  0  0  0  0
 23 24  2  0  0  0  0
 23 22  1  0  0  0  0
 25 23  1  0  0  0  0
 26 25  1  0  0  0  0
 26 20  1  0  0  0  0
 27 26  2  0  0  0  0
 28 25  1  0  0  0  0
M  END
>  <minimizedAffinity>
-4.22664022

>  <minimizedRMSD>
1.54839599

$$$$
