
 OpenBabel03252504273D

 23 24  0  0  0  0  0  0  0  0999 V2000
   44.0170   35.0190   41.2150 C   0  0  0  0  0  0  0  0  0  0  0  0
   43.9670   34.0340   40.7040 H   0  0  0  0  0  0  0  0  0  0  0  0
   44.8070   35.5820   40.6470 H   0  0  0  0  0  0  0  0  0  0  0  0
   44.2920   35.8030   43.4770 C   0  0  0  0  0  0  0  0  0  0  0  0
   44.4400   34.7570   42.5930 C   0  0  0  0  0  0  0  0  0  0  0  0
   44.9650   33.5790   43.0870 C   0  0  0  0  0  0  0  0  0  0  0  0
   45.2980   33.5290   44.3970 N   0  0  0  0  0  0  0  0  0  0  0  0
   45.1430   34.5620   45.2380 C   0  0  0  0  0  0  0  0  0  0  0  0
   44.6250   35.7620   44.8010 N   0  0  0  0  0  0  0  0  0  0  0  0
   43.8830   36.7850   43.1880 H   0  0  0  0  0  0  0  0  0  0  0  0
   45.0750   32.7700   42.3840 H   0  0  0  0  0  0  0  0  0  0  0  0
   45.4870   34.2590   46.2250 H   0  0  0  0  0  0  0  0  0  0  0  0
   42.7660   35.6070   41.1070 O   0  0  0  0  0  0  0  0  0  0  0  0
   41.4430   34.8480   36.8590 H   0  0  0  0  0  0  0  0  0  0  0  0
   41.2600   34.8920   37.8950 N   0  0  0  0  0  0  0  0  0  0  0  0
   42.2010   35.2340   38.7710 C   0  0  0  0  0  0  0  0  0  0  0  0
   41.8650   35.2630   40.1100 C   0  0  0  0  0  0  0  0  0  0  0  0
   40.5620   34.9320   40.4560 C   0  0  0  0  0  0  0  0  0  0  0  0
   40.2570   34.9590   41.6810 O   0  0  0  0  0  0  0  0  0  0  0  0
   39.6280   34.5880   39.5420 N   0  0  0  0  0  0  0  0  0  0  0  0
   39.9980   34.5710   38.2330 C   0  0  0  0  0  0  0  0  0  0  0  0
   39.0810   34.2420   37.4360 O   0  0  0  0  0  0  0  0  0  0  0  0
   38.6460   34.3410   39.8370 H   0  0  0  0  0  0  0  0  0  0  0  0
  1  5  1  0  0  0  0
  2  1  1  0  0  0  0
  3  1  1  0  0  0  0
  4  9  1  0  0  0  0
  5  6  1  0  0  0  0
  5  4  2  0  0  0  0
  6  7  2  0  0  0  0
  7  8  1  0  0  0  0
  8 12  1  0  0  0  0
  9  8  2  0  0  0  0
 10  4  1  0  0  0  0
 11  6  1  0  0  0  0
 13  1  1  0  0  0  0
 14 15  1  0  0  0  0
 15 21  1  0  0  0  0
 15 16  1  0  0  0  0
 16 17  2  0  0  0  0
 17 18  1  0  0  0  0
 17 13  1  0  0  0  0
 18 19  2  0  0  0  0
 20 23  1  0  0  0  0
 20 18  1  0  0  0  0
 21 20  1  0  0  0  0
 22 21  2  0  0  0  0
M  END
>  <minimizedAffinity>
-4.79917336

>  <minimizedRMSD>
1.53966236

$$$$
