
 OpenBabel03252507553D

 45 48  0  0  1  0  0  0  0  0999 V2000
   49.9920   31.1650   41.5630 C   0  0  2  0  0  0  0  0  0  0  0  0
   50.0050   32.6190   41.5510 C   0  0  0  0  0  0  0  0  0  0  0  0
   49.9110   31.8490   40.2720 C   0  0  1  0  0  0  0  0  0  0  0  0
   50.9360   30.6380   41.7980 H   0  0  0  0  0  0  0  0  0  0  0  0
   50.9420   33.2210   41.7190 H   0  0  0  0  0  0  0  0  0  0  0  0
   49.1150   33.1600   41.9110 H   0  0  0  0  0  0  0  0  0  0  0  0
   48.9400   31.6780   39.7620 H   0  0  0  0  0  0  0  0  0  0  0  0
   47.6840   30.4690   44.2400 C   0  0  2  0  0  0  0  0  0  0  0  0
   48.8530   29.4880   44.3680 C   0  0  0  0  0  0  0  0  0  0  0  0
   49.0500   29.2050   42.8620 C   0  0  0  0  0  0  0  0  0  0  0  0
   48.7780   30.5140   42.1870 C   0  0  1  0  0  0  0  0  0  0  0  0
   48.2850   31.4380   43.2610 C   0  0  0  0  0  0  0  0  0  0  0  0
   46.8180   29.9390   43.7970 H   0  0  0  0  0  0  0  0  0  0  0  0
   49.7140   30.0450   44.7510 H   0  0  0  0  0  0  0  0  0  0  0  0
   48.5800   28.5790   44.9060 H   0  0  0  0  0  0  0  0  0  0  0  0
   48.2000   28.5230   42.5930 H   0  0  0  0  0  0  0  0  0  0  0  0
   50.0410   28.7840   42.6740 H   0  0  0  0  0  0  0  0  0  0  0  0
   47.9890   30.4490   41.4100 H   0  0  0  0  0  0  0  0  0  0  0  0
   49.1200   31.9780   43.7500 H   0  0  0  0  0  0  0  0  0  0  0  0
   47.5320   32.1540   42.8780 H   0  0  0  0  0  0  0  0  0  0  0  0
   47.2650   31.1690   47.9160 C   0  0  0  0  0  0  0  0  0  0  0  0
   47.6210   30.4830   46.7610 C   0  0  0  0  0  0  0  0  0  0  0  0
   47.3720   31.1080   45.5480 C   0  0  0  0  0  0  0  0  0  0  0  0
   46.7830   32.3800   45.5140 N   0  0  0  0  0  0  0  0  0  0  0  0
   46.4540   33.0030   46.6770 C   0  0  0  0  0  0  0  0  0  0  0  0
   46.6970   32.3940   47.8680 N   0  0  0  0  0  0  0  0  0  0  0  0
   47.4420   30.7180   48.8900 H   0  0  0  0  0  0  0  0  0  0  0  0
   48.0750   29.5050   46.7760 H   0  0  0  0  0  0  0  0  0  0  0  0
   46.0020   33.9820   46.6050 H   0  0  0  0  0  0  0  0  0  0  0  0
   51.0700   31.8290   39.4530 O   0  0  0  0  0  0  0  0  0  0  0  0
   51.8160   31.2680   37.0180 O   0  0  0  0  0  0  0  0  0  0  0  0
   50.5950   31.4570   37.8840 P   0  0  1  0  0  0  0  0  0  0  0  0
   49.7290   29.9760   37.8680 O   0  0  0  0  0  0  0  0  0  0  0  0
   48.7930   30.1660   38.0780 H   0  0  0  0  0  0  0  0  0  0  0  0
   49.6170   32.5950   37.1790 O   0  0  0  0  0  0  0  0  0  0  0  0
   47.3220   31.2430   33.5340 H   0  0  0  0  0  0  0  0  0  0  0  0
   47.3050   31.7470   34.4440 N   0  0  0  0  0  0  0  0  0  0  0  0
   48.4600   31.7820   35.1020 C   0  0  0  0  0  3  0  0  0  0  0  0
   48.5540   32.4280   36.3270 C   0  0  0  0  0  0  0  0  0  0  0  0
   47.3950   33.0270   36.8260 C   0  0  0  0  0  0  0  0  0  0  0  0
   47.2470   33.6630   37.9080 O   0  0  0  0  0  0  0  0  0  0  0  0
   46.2330   32.9670   36.1180 N   0  0  0  0  0  0  0  0  0  0  0  0
   46.2040   32.3290   34.9380 C   0  0  0  0  0  0  0  0  0  0  0  0
   45.1550   32.2370   34.2340 O   0  0  0  0  0  0  0  0  0  0  0  0
   45.3290   33.3870   36.4200 H   0  0  0  0  0  0  0  0  0  0  0  0
  1  4  1  1  0  0  0
  1 11  1  0  0  0  0
  2  1  1  0  0  0  0
  2  5  1  0  0  0  0
  2  6  1  0  0  0  0
  3  7  1  6  0  0  0
  3  2  1  0  0  0  0
  3  1  1  0  0  0  0
  8 13  1  6  0  0  0
  8  9  1  0  0  0  0
  8 23  1  0  0  0  0
  9 14  1  0  0  0  0
  9 15  1  0  0  0  0
 10  9  1  0  0  0  0
 11 18  1  6  0  0  0
 11 10  1  0  0  0  0
 11 12  1  0  0  0  0
 12 19  1  0  0  0  0
 12  8  1  0  0  0  0
 16 10  1  0  0  0  0
 17 10  1  0  0  0  0
 20 12  1  0  0  0  0
 21 27  1  0  0  0  0
 22 28  1  0  0  0  0
 22 21  2  0  0  0  0
 23 22  1  0  0  0  0
 24 23  2  0  0  0  0
 24 25  1  0  0  0  0
 25 26  2  0  0  0  0
 26 21  1  0  0  0  0
 29 25  1  0  0  0  0
 30  3  1  0  0  0  0
 32 31  2  6  0  0  0
 32 30  1  0  0  0  0
 33 32  1  0  0  0  0
 33 34  1  0  0  0  0
 35 32  1  0  0  0  0
 36 37  1  0  0  0  0
 37 43  1  0  0  0  0
 37 38  1  0  0  0  0
 38 39  2  0  0  0  0
 39 40  1  0  0  0  0
 39 35  1  0  0  0  0
 40 41  2  0  0  0  0
 42 45  1  0  0  0  0
 42 40  1  0  0  0  0
 43 42  1  0  0  0  0
 44 43  2  0  0  0  0
M  END
>  <minimizedAffinity>
-4.29536772

>  <minimizedRMSD>
6.35090685

$$$$
