
 OpenBabel03252502243D

 35 37  0  0  1  0  0  0  0  0999 V2000
   46.6850   34.5170   42.3010 N   0  0  0  0  0  0  0  0  0  0  0  0
   48.1410   34.5540   42.2830 C   0  0  0  0  0  0  0  0  0  0  0  0
   48.4600   35.3100   40.9750 C   0  0  0  0  0  0  0  0  0  0  0  0
   48.0540   34.4660   39.8110 C   0  0  0  0  0  0  0  0  0  0  0  0
   46.7220   33.8120   39.9600 C   0  0  0  0  0  0  0  0  0  0  0  0
   45.8890   34.2650   41.1240 C   0  0  1  0  0  0  0  0  0  0  0  0
   48.5630   33.5300   42.2210 H   0  0  0  0  0  0  0  0  0  0  0  0
   48.5190   35.1550   43.1240 H   0  0  0  0  0  0  0  0  0  0  0  0
   49.5710   35.4300   40.9970 H   0  0  0  0  0  0  0  0  0  0  0  0
   47.9410   36.2870   41.0350 H   0  0  0  0  0  0  0  0  0  0  0  0
   48.8340   33.6580   39.7190 H   0  0  0  0  0  0  0  0  0  0  0  0
   48.1710   35.0670   38.8880 H   0  0  0  0  0  0  0  0  0  0  0  0
   46.1320   34.0640   39.0300 H   0  0  0  0  0  0  0  0  0  0  0  0
   46.7830   32.7020   39.9610 H   0  0  0  0  0  0  0  0  0  0  0  0
   45.4480   35.2400   40.8400 H   0  0  0  0  0  0  0  0  0  0  0  0
   44.5040   36.0120   44.9520 C   0  0  0  0  0  0  0  0  0  0  0  0
   45.1590   35.8840   43.7210 C   0  0  0  0  0  0  0  0  0  0  0  0
   45.9750   34.7370   43.5270 C   0  0  0  0  0  0  0  0  0  0  0  0
   46.0710   33.8330   44.5490 N   0  0  0  0  0  0  0  0  0  0  0  0
   45.4180   34.0050   45.7190 C   0  0  0  0  0  0  0  0  0  0  0  0
   44.6320   35.1030   45.9130 N   0  0  0  0  0  0  0  0  0  0  0  0
   43.9310   36.9270   44.9370 H   0  0  0  0  0  0  0  0  0  0  0  0
   45.1280   36.5500   42.8810 H   0  0  0  0  0  0  0  0  0  0  0  0
   45.4720   33.3180   46.5360 H   0  0  0  0  0  0  0  0  0  0  0  0
   44.9780   33.2650   41.4120 O   0  0  0  0  0  0  0  0  0  0  0  0
   41.3170   35.6530   41.7710 H   0  0  0  0  0  0  0  0  0  0  0  0
   41.7540   34.7370   41.5430 N   0  0  0  0  0  0  0  0  0  0  0  0
   43.0970   34.4890   41.5950 C   0  0  0  0  0  3  0  0  0  0  0  0
   43.6240   33.2280   41.2750 C   0  0  0  0  0  0  0  0  0  0  0  0
   42.6990   32.2720   40.9090 C   0  0  0  0  0  0  0  0  0  0  0  0
   43.2600   31.1790   40.6400 O   0  0  0  0  0  0  0  0  0  0  0  0
   41.3890   32.5680   40.8730 N   0  0  0  0  0  0  0  0  0  0  0  0
   40.9110   33.7670   41.1810 C   0  0  0  0  0  0  0  0  0  0  0  0
   39.6590   33.9290   41.1120 O   0  0  0  0  0  0  0  0  0  0  0  0
   40.7810   31.7480   40.5770 H   0  0  0  0  0  0  0  0  0  0  0  0
  1 18  1  0  0  0  0
  2  1  1  0  0  0  0
  2  8  1  0  0  0  0
  3  9  1  0  0  0  0
  3 10  1  0  0  0  0
  3  2  1  0  0  0  0
  4  5  1  0  0  0  0
  4  3  1  0  0  0  0
  5 14  1  0  0  0  0
  5  6  1  0  0  0  0
  6 15  1  6  0  0  0
  6 25  1  0  0  0  0
  6  1  1  0  0  0  0
  7  2  1  0  0  0  0
 11  4  1  0  0  0  0
 12  4  1  0  0  0  0
 13  5  1  0  0  0  0
 16 21  1  0  0  0  0
 17 16  2  0  0  0  0
 18 17  1  0  0  0  0
 18 19  2  0  0  0  0
 19 20  1  0  0  0  0
 20 21  2  0  0  0  0
 20 24  1  0  0  0  0
 22 16  1  0  0  0  0
 23 17  1  0  0  0  0
 27 28  1  0  0  0  0
 27 26  1  0  0  0  0
 29 25  1  0  0  0  0
 29 28  2  0  0  0  0
 30 29  1  0  0  0  0
 31 30  2  0  0  0  0
 32 30  1  0  0  0  0
 32 33  1  0  0  0  0
 33 27  1  0  0  0  0
 34 33  2  0  0  0  0
 35 32  1  0  0  0  0
M  END
>  <minimizedAffinity>
-5.82158518

>  <minimizedRMSD>
0.352270424

$$$$
