
 OpenBabel03252504273D

 23 24  0  0  0  0  0  0  0  0999 V2000
   44.3160   34.9400   41.9660 C   0  0  0  0  0  0  0  0  0  0  0  0
   45.1390   34.6400   41.2830 H   0  0  0  0  0  0  0  0  0  0  0  0
   44.2650   36.0580   41.8590 H   0  0  0  0  0  0  0  0  0  0  0  0
   44.4110   35.4450   44.3200 C   0  0  0  0  0  0  0  0  0  0  0  0
   44.7280   34.5540   43.3170 C   0  0  0  0  0  0  0  0  0  0  0  0
   45.3940   33.4010   43.6810 C   0  0  0  0  0  0  0  0  0  0  0  0
   45.6910   33.2210   44.9880 N   0  0  0  0  0  0  0  0  0  0  0  0
   45.3710   34.1030   45.9460 C   0  0  0  0  0  0  0  0  0  0  0  0
   44.7060   35.2710   45.6420 N   0  0  0  0  0  0  0  0  0  0  0  0
   43.8800   36.3930   44.1390 H   0  0  0  0  0  0  0  0  0  0  0  0
   45.6360   32.7150   42.8860 H   0  0  0  0  0  0  0  0  0  0  0  0
   45.7220   33.7190   46.9020 H   0  0  0  0  0  0  0  0  0  0  0  0
   43.1610   34.3130   41.5230 O   0  0  0  0  0  0  0  0  0  0  0  0
   42.6070   34.4430   37.0450 H   0  0  0  0  0  0  0  0  0  0  0  0
   42.3100   34.6880   38.0260 N   0  0  0  0  0  0  0  0  0  0  0  0
   42.9950   34.2960   39.0970 C   0  0  0  0  0  3  0  0  0  0  0  0
   42.5270   34.6660   40.3420 C   0  0  0  0  0  0  0  0  0  0  0  0
   41.3660   35.4250   40.3940 C   0  0  0  0  0  0  0  0  0  0  0  0
   40.9390   35.7630   41.5340 O   0  0  0  0  0  0  0  0  0  0  0  0
   40.6920   35.8080   39.2880 N   0  0  0  0  0  0  0  0  0  0  0  0
   41.1850   35.4230   38.0790 C   0  0  0  0  0  0  0  0  0  0  0  0
   40.5100   35.8130   37.0910 O   0  0  0  0  0  0  0  0  0  0  0  0
   39.8130   36.3850   39.3610 H   0  0  0  0  0  0  0  0  0  0  0  0
  1  5  1  0  0  0  0
  2  1  1  0  0  0  0
  3  1  1  0  0  0  0
  4  9  1  0  0  0  0
  5  6  1  0  0  0  0
  5  4  2  0  0  0  0
  6  7  2  0  0  0  0
  7  8  1  0  0  0  0
  8 12  1  0  0  0  0
  9  8  2  0  0  0  0
 10  4  1  0  0  0  0
 11  6  1  0  0  0  0
 13  1  1  0  0  0  0
 14 15  1  0  0  0  0
 15 21  1  0  0  0  0
 15 16  1  0  0  0  0
 16 17  2  0  0  0  0
 17 18  1  0  0  0  0
 17 13  1  0  0  0  0
 18 19  2  0  0  0  0
 20 23  1  0  0  0  0
 20 18  1  0  0  0  0
 21 20  1  0  0  0  0
 22 21  2  0  0  0  0
M  END
>  <minimizedAffinity>
-4.545012

>  <minimizedRMSD>
1.20452571

$$$$
