
 OpenBabel03252509003D

 46 48  0  0  1  0  0  0  0  0999 V2000
   47.0770   34.3230   42.9930 N   0  0  0  0  0  0  0  0  0  0  0  0
   46.5810   35.4940   42.3510 C   0  0  0  0  0  0  0  0  0  0  0  0
   45.1030   35.7390   42.5030 C   0  0  0  0  0  0  0  0  0  0  0  0
   44.5150   35.2510   43.7950 C   0  0  0  0  0  0  0  0  0  0  0  0
   45.5860   34.7360   44.7290 C   0  0  0  0  0  0  0  0  0  0  0  0
   46.2820   33.6120   43.8760 C   0  0  2  0  0  0  0  0  0  0  0  0
   47.1000   36.3540   42.8540 H   0  0  0  0  0  0  0  0  0  0  0  0
   46.8300   35.6000   41.2930 H   0  0  0  0  0  0  0  0  0  0  0  0
   44.5440   35.3500   41.6220 H   0  0  0  0  0  0  0  0  0  0  0  0
   44.9240   36.8410   42.4890 H   0  0  0  0  0  0  0  0  0  0  0  0
   43.8650   34.3780   43.5440 H   0  0  0  0  0  0  0  0  0  0  0  0
   43.8300   35.9860   44.2790 H   0  0  0  0  0  0  0  0  0  0  0  0
   46.3130   35.5260   44.9360 H   0  0  0  0  0  0  0  0  0  0  0  0
   45.1260   34.2880   45.6180 H   0  0  0  0  0  0  0  0  0  0  0  0
   45.4850   32.9840   43.4520 H   0  0  0  0  0  0  0  0  0  0  0  0
   48.0820   33.6220   42.2490 C   0  0  0  0  0  0  0  0  0  0  0  0
   48.7510   34.3540   41.7800 H   0  0  0  0  0  0  0  0  0  0  0  0
   48.6640   32.9940   42.9580 H   0  0  0  0  0  0  0  0  0  0  0  0
   47.4100   32.7210   41.2600 C   0  0  0  0  0  0  0  0  0  0  0  0
   47.5220   31.6600   41.5180 H   0  0  0  0  0  0  0  0  0  0  0  0
   46.3210   32.9210   41.2160 H   0  0  0  0  0  0  0  0  0  0  0  0
   49.3230   32.2580   38.0550 C   0  0  0  0  0  0  0  0  0  0  0  0
   48.7890   32.0160   39.3410 C   0  0  0  0  0  0  0  0  0  0  0  0
   47.9730   32.9710   39.9080 C   0  0  0  0  0  0  0  0  0  0  0  0
   47.7220   34.0950   39.2070 N   0  0  0  0  0  0  0  0  0  0  0  0
   48.2470   34.2970   37.9810 C   0  0  0  0  0  0  0  0  0  0  0  0
   49.0440   33.3950   37.3960 N   0  0  0  0  0  0  0  0  0  0  0  0
   49.9520   31.4740   37.6670 H   0  0  0  0  0  0  0  0  0  0  0  0
   48.9930   31.1080   39.9060 H   0  0  0  0  0  0  0  0  0  0  0  0
   48.0490   35.1970   37.4120 H   0  0  0  0  0  0  0  0  0  0  0  0
   47.0530   32.9720   44.8480 O   0  0  0  0  0  0  0  0  0  0  0  0
   45.5530   30.8580   44.2470 O   0  0  0  0  0  0  0  0  0  0  0  0
   46.3590   31.5200   45.3620 P   0  0  2  0  0  0  0  0  0  0  0  0
   45.2270   31.9480   46.5720 O   0  0  0  0  0  0  0  0  0  0  0  0
   45.6560   32.5360   47.2370 H   0  0  0  0  0  0  0  0  0  0  0  0
   47.4810   30.5060   46.0500 O   0  0  0  0  0  0  0  0  0  0  0  0
   47.7350   26.1490   45.4380 H   0  0  0  0  0  0  0  0  0  0  0  0
   47.3970   26.9480   46.0330 N   0  0  0  0  0  0  0  0  0  0  0  0
   47.6200   28.2570   45.7220 C   0  0  0  0  0  3  0  0  0  0  0  0
   47.1380   29.2670   46.5630 C   0  0  0  0  0  0  0  0  0  0  0  0
   46.4480   28.8870   47.6890 C   0  0  0  0  0  0  0  0  0  0  0  0
   46.0700   29.8800   48.3600 O   0  0  0  0  0  0  0  0  0  0  0  0
   46.2600   27.5900   47.9450 N   0  0  0  0  0  0  0  0  0  0  0  0
   46.7190   26.6200   47.1430 C   0  0  0  0  0  0  0  0  0  0  0  0
   46.4500   25.4630   47.5380 O   0  0  0  0  0  0  0  0  0  0  0  0
   45.7180   27.4160   48.8350 H   0  0  0  0  0  0  0  0  0  0  0  0
  1  6  1  0  0  0  0
  2  3  1  0  0  0  0
  2  7  1  0  0  0  0
  2  1  1  0  0  0  0
  3  4  1  0  0  0  0
  4 12  1  0  0  0  0
  4  5  1  0  0  0  0
  5 13  1  0  0  0  0
  5 14  1  0  0  0  0
  6 15  1  6  0  0  0
  6  5  1  0  0  0  0
  6 31  1  0  0  0  0
  8  2  1  0  0  0  0
  9  3  1  0  0  0  0
 10  3  1  0  0  0  0
 11  4  1  0  0  0  0
 16 18  1  0  0  0  0
 16  1  1  0  0  0  0
 17 16  1  0  0  0  0
 19 20  1  0  0  0  0
 19 16  1  0  0  0  0
 21 19  1  0  0  0  0
 22 23  1  0  0  0  0
 23 29  1  0  0  0  0
 23 24  2  0  0  0  0
 24 19  1  0  0  0  0
 25 24  1  0  0  0  0
 26 25  2  0  0  0  0
 27 26  1  0  0  0  0
 27 22  2  0  0  0  0
 28 22  1  0  0  0  0
 30 26  1  0  0  0  0
 31 33  1  0  0  0  0
 33 32  2  6  0  0  0
 33 36  1  0  0  0  0
 33 34  1  0  0  0  0
 34 35  1  0  0  0  0
 36 40  1  0  0  0  0
 37 38  1  0  0  0  0
 38 44  1  0  0  0  0
 39 38  1  0  0  0  0
 39 40  2  0  0  0  0
 40 41  1  0  0  0  0
 41 43  1  0  0  0  0
 41 42  2  0  0  0  0
 43 46  1  0  0  0  0
 44 45  2  0  0  0  0
 44 43  1  0  0  0  0
M  END
>  <minimizedAffinity>
-4.33348656

>  <minimizedRMSD>
0.631881297

$$$$
