
 OpenBabel03252509323D

 28 29  0  0  0  0  0  0  0  0999 V2000
   50.5520   32.7290   42.1570 O   0  0  0  0  0  0  0  0  0  0  0  0
   49.4970   33.7790   42.3120 P   0  0  2  0  0  0  0  0  0  0  0  0
   50.0850   35.2090   42.9770 O   0  0  0  0  0  0  0  0  0  0  0  0
   50.1800   35.1570   43.9620 H   0  0  0  0  0  0  0  0  0  0  0  0
   48.2690   33.2160   43.3310 O   0  0  0  0  0  0  0  0  0  0  0  0
   47.0590   33.6750   42.8150 C   0  0  0  0  0  0  0  0  0  0  0  0
   46.4950   32.8400   42.3060 H   0  0  0  0  0  0  0  0  0  0  0  0
   47.1770   34.4750   42.0550 H   0  0  0  0  0  0  0  0  0  0  0  0
   45.3120   34.0470   46.0940 C   0  0  0  0  0  0  0  0  0  0  0  0
   46.1560   33.5240   45.0910 C   0  0  0  0  0  0  0  0  0  0  0  0
   46.1890   34.1920   43.8830 C   0  0  0  0  0  0  0  0  0  0  0  0
   45.4120   35.3130   43.7190 N   0  0  0  0  0  0  0  0  0  0  0  0
   44.6160   35.7830   44.7020 C   0  0  0  0  0  0  0  0  0  0  0  0
   44.5700   35.1510   45.8800 N   0  0  0  0  0  0  0  0  0  0  0  0
   45.2650   33.5530   47.0390 H   0  0  0  0  0  0  0  0  0  0  0  0
   46.7630   32.6460   45.2280 H   0  0  0  0  0  0  0  0  0  0  0  0
   44.0500   36.6720   44.4590 H   0  0  0  0  0  0  0  0  0  0  0  0
   48.8050   34.0780   40.7960 O   0  0  0  0  0  0  0  0  0  0  0  0
   48.3810   29.8800   39.5180 H   0  0  0  0  0  0  0  0  0  0  0  0
   48.3830   30.8850   39.2020 N   0  0  0  0  0  0  0  0  0  0  0  0
   48.5860   31.7720   40.1840 C   0  0  0  0  0  3  0  0  0  0  0  0
   48.6020   33.1230   39.8350 C   0  0  0  0  0  0  0  0  0  0  0  0
   48.4070   33.4630   38.5020 C   0  0  0  0  0  0  0  0  0  0  0  0
   48.4160   34.6730   38.1520 O   0  0  0  0  0  0  0  0  0  0  0  0
   48.2120   32.4820   37.5970 N   0  0  0  0  0  0  0  0  0  0  0  0
   48.1930   31.1570   37.9190 C   0  0  0  0  0  0  0  0  0  0  0  0
   48.0060   30.2920   37.0260 O   0  0  0  0  0  0  0  0  0  0  0  0
   48.0690   32.8020   36.5940 H   0  0  0  0  0  0  0  0  0  0  0  0
  2  1  2  6  0  0  0
  2  3  1  0  0  0  0
  2  5  1  0  0  0  0
  3  4  1  0  0  0  0
  6  5  1  0  0  0  0
  6 11  1  0  0  0  0
  7  6  1  0  0  0  0
  8  6  1  0  0  0  0
  9 15  1  0  0  0  0
 10 16  1  0  0  0  0
 10  9  2  0  0  0  0
 11 10  1  0  0  0  0
 12 11  2  0  0  0  0
 12 13  1  0  0  0  0
 13 14  2  0  0  0  0
 14  9  1  0  0  0  0
 17 13  1  0  0  0  0
 18  2  1  0  0  0  0
 20 19  1  0  0  0  0
 20 21  1  0  0  0  0
 22 21  2  0  0  0  0
 22 18  1  0  0  0  0
 23 22  1  0  0  0  0
 24 23  2  0  0  0  0
 25 26  1  0  0  0  0
 25 23  1  0  0  0  0
 26 20  1  0  0  0  0
 27 26  2  0  0  0  0
 28 25  1  0  0  0  0
M  END
>  <minimizedAffinity>
-4.77483702

>  <minimizedRMSD>
0.930474401

$$$$
