
 OpenBabel03242523203D

 38 41  0  0  0  0  0  0  0  0999 V2000
   44.2270   31.7480   42.8240 Cl  0  0  0  0  0  0  0  0  0  0  0  0
   44.1880   33.4490   42.3540 C   0  0  0  0  0  0  0  0  0  0  0  0
   44.9470   34.3190   43.1630 C   0  0  0  0  0  0  0  0  0  0  0  0
   44.8450   35.6200   42.6950 C   0  0  0  0  0  0  0  0  0  0  0  0
   44.1700   36.1130   41.6500 C   0  0  0  0  0  0  0  0  0  0  0  0
   43.4620   35.2030   40.9190 C   0  0  0  0  0  0  0  0  0  0  0  0
   43.4520   33.8890   41.2430 C   0  0  0  0  0  0  0  0  0  0  0  0
   45.3570   36.4400   43.2420 H   0  0  0  0  0  0  0  0  0  0  0  0
   44.1290   37.1400   41.3310 H   0  0  0  0  0  0  0  0  0  0  0  0
   42.8570   35.4090   40.0440 H   0  0  0  0  0  0  0  0  0  0  0  0
   42.7470   32.8310   40.5580 N   0  0  0  0  0  0  0  0  0  0  0  0
   43.2500   31.9330   39.6910 C   0  0  0  0  0  3  0  0  0  0  0  0
   42.3890   31.0000   39.1470 C   0  0  0  0  0  0  0  0  0  0  0  0
   42.8350   30.2970   38.4550 H   0  0  0  0  0  0  0  0  0  0  0  0
   41.0500   30.9810   39.4770 C   0  0  0  0  0  0  0  0  0  0  0  0
   40.2840   30.1210   38.9690 O   0  0  0  0  0  0  0  0  0  0  0  0
   40.5770   31.8930   40.3470 N   0  0  0  0  0  0  0  0  0  0  0  0
   41.4380   32.8070   40.8740 C   0  0  0  0  0  0  0  0  0  0  0  0
   40.8610   33.6100   41.6820 O   0  0  0  0  0  0  0  0  0  0  0  0
   39.5590   31.8600   40.5810 H   0  0  0  0  0  0  0  0  0  0  0  0
   45.7660   33.9430   44.3450 C   0  0  0  0  0  0  0  0  0  0  0  0
   45.0900   34.4700   45.1920 O   0  0  0  0  0  0  0  0  0  0  0  0
   46.9200   33.1600   43.8850 C   0  0  0  0  0  0  0  0  0  0  0  0
   47.8370   33.5460   42.9880 C   0  0  0  0  0  0  0  0  0  0  0  0
   48.7670   32.5760   42.6610 C   0  0  0  0  0  0  0  0  0  0  0  0
   48.6780   31.3120   43.2760 N   0  0  0  0  0  0  0  0  0  0  0  0
   47.7420   31.0140   44.1540 C   0  0  0  0  0  0  0  0  0  0  0  0
   46.7980   31.9540   44.5040 N   0  0  0  0  0  0  0  0  0  0  0  0
   49.5710   32.7220   41.9530 H   0  0  0  0  0  0  0  0  0  0  0  0
   47.7970   30.0040   44.5490 H   0  0  0  0  0  0  0  0  0  0  0  0
   48.0020   34.8500   42.4550 C   0  0  0  0  0  0  0  0  0  0  0  0
   49.0930   35.3890   41.8450 C   0  0  0  0  0  0  0  0  0  0  0  0
   48.0200   34.9790   40.8730 C   0  0  0  0  0  0  0  0  0  0  0  0
   47.3960   35.6180   42.9720 H   0  0  0  0  0  0  0  0  0  0  0  0
   50.0350   34.7740   41.7270 H   0  0  0  0  0  0  0  0  0  0  0  0
   49.3700   36.4590   41.7130 H   0  0  0  0  0  0  0  0  0  0  0  0
   47.3020   35.7250   40.4710 H   0  0  0  0  0  0  0  0  0  0  0  0
   48.0970   34.0090   40.3670 H   0  0  0  0  0  0  0  0  0  0  0  0
  2  1  1  0  0  0  0
  2  3  1  0  0  0  0
  3 21  1  0  0  0  0
  4  3  2  0  0  0  0
  4  8  1  0  0  0  0
  5  4  1  0  0  0  0
  6  7  1  0  0  0  0
  6  5  2  0  0  0  0
  7  2  2  0  0  0  0
  9  5  1  0  0  0  0
 10  6  1  0  0  0  0
 11 18  1  0  0  0  0
 11  7  1  0  0  0  0
 12 11  1  0  0  0  0
 13 15  1  0  0  0  0
 13 12  2  0  0  0  0
 14 13  1  0  0  0  0
 15 17  1  0  0  0  0
 16 15  2  0  0  0  0
 17 20  1  0  0  0  0
 17 18  1  0  0  0  0
 18 19  2  0  0  0  0
 21 22  2  0  0  0  0
 23 21  1  0  0  0  0
 23 28  1  0  0  0  0
 24 23  2  0  0  0  0
 25 24  1  0  0  0  0
 25 26  2  0  0  0  0
 26 27  1  0  0  0  0
 27 28  2  0  0  0  0
 27 30  1  0  0  0  0
 29 25  1  0  0  0  0
 31 34  1  0  0  0  0
 31 24  1  0  0  0  0
 32 31  1  0  0  0  0
 33 32  1  0  0  0  0
 33 31  1  0  0  0  0
 35 32  1  0  0  0  0
 36 32  1  0  0  0  0
 37 33  1  0  0  0  0
 38 33  1  0  0  0  0
M  END
>  <minimizedAffinity>
-5.44538212

>  <minimizedRMSD>
0.790998042

$$$$
