
 OpenBabel03242512003D

 48 51  0  0  1  0  0  0  0  0999 V2000
   47.6970   34.1110   42.3750 C   0  0  2  0  0  0  0  0  0  0  0  0
   48.8900   35.0090   42.5090 C   0  0  0  0  0  0  0  0  0  0  0  0
   48.9630   36.0190   41.4320 C   0  0  0  0  0  0  0  0  0  0  0  0
   48.9300   35.4140   40.0470 C   0  0  0  0  0  0  0  0  0  0  0  0
   47.9730   34.2660   39.9150 C   0  0  0  0  0  0  0  0  0  0  0  0
   47.0000   34.1670   41.0670 C   0  0  1  0  0  0  0  0  0  0  0  0
   48.1040   33.0610   42.5080 H   0  0  0  0  0  0  0  0  0  0  0  0
   49.8490   34.4550   42.5430 H   0  0  0  0  0  0  0  0  0  0  0  0
   48.7990   35.5370   43.4780 H   0  0  0  0  0  0  0  0  0  0  0  0
   49.9380   36.5530   41.5090 H   0  0  0  0  0  0  0  0  0  0  0  0
   48.1310   36.7510   41.5030 H   0  0  0  0  0  0  0  0  0  0  0  0
   48.7500   36.2250   39.3320 H   0  0  0  0  0  0  0  0  0  0  0  0
   49.9460   35.0160   39.8490 H   0  0  0  0  0  0  0  0  0  0  0  0
   48.4920   33.2950   39.7780 H   0  0  0  0  0  0  0  0  0  0  0  0
   47.3530   34.4600   38.9960 H   0  0  0  0  0  0  0  0  0  0  0  0
   46.2850   34.9890   40.9170 H   0  0  0  0  0  0  0  0  0  0  0  0
   46.7310   34.2750   43.4810 C   0  0  0  0  0  0  0  0  0  0  0  0
   45.8290   35.3040   43.2680 C   0  0  0  0  0  0  0  0  0  0  0  0
   44.8450   35.5760   44.2330 C   0  0  0  0  0  0  0  0  0  0  0  0
   44.8660   34.7510   45.3650 N   0  0  0  0  0  0  0  0  0  0  0  0
   45.7690   33.7620   45.5230 C   0  0  0  0  0  0  0  0  0  0  0  0
   46.6910   33.5400   44.5710 N   0  0  0  0  0  0  0  0  0  0  0  0
   45.6550   36.0370   42.4950 H   0  0  0  0  0  0  0  0  0  0  0  0
   44.0750   36.3130   44.2500 H   0  0  0  0  0  0  0  0  0  0  0  0
   45.6920   33.1910   46.4320 H   0  0  0  0  0  0  0  0  0  0  0  0
   46.2190   32.8930   40.9000 C   0  0  2  0  0  0  0  0  0  0  0  0
   46.2160   32.2460   39.5260 C   0  0  0  0  0  0  0  0  0  0  0  0
   44.9910   32.8630   40.0600 C   0  0  1  0  0  0  0  0  0  0  0  0
   46.3610   32.1520   41.7140 H   0  0  0  0  0  0  0  0  0  0  0  0
   46.6970   32.7240   38.6730 H   0  0  0  0  0  0  0  0  0  0  0  0
   46.1990   31.1350   39.4520 H   0  0  0  0  0  0  0  0  0  0  0  0
   44.6830   33.8660   39.6830 H   0  0  0  0  0  0  0  0  0  0  0  0
   43.8740   32.0930   40.6960 C   0  0  0  0  0  0  0  0  0  0  0  0
   44.1830   31.0290   40.7580 H   0  0  0  0  0  0  0  0  0  0  0  0
   43.7700   32.4450   41.7510 H   0  0  0  0  0  0  0  0  0  0  0  0
   42.5840   32.1350   39.9400 C   0  0  0  0  0  0  0  0  0  0  0  0
   42.8240   31.9240   38.8790 H   0  0  0  0  0  0  0  0  0  0  0  0
   41.9770   31.2730   40.2860 H   0  0  0  0  0  0  0  0  0  0  0  0
   41.8840   33.3910   40.0690 N   0  0  0  0  0  0  0  0  0  0  0  0
   42.0850   34.4450   39.2560 C   0  0  0  0  0  3  0  0  0  0  0  0
   41.3590   35.6250   39.4580 C   0  0  0  0  0  0  0  0  0  0  0  0
   41.4870   36.4930   38.8300 H   0  0  0  0  0  0  0  0  0  0  0  0
   40.4560   35.5990   40.5290 C   0  0  0  0  0  0  0  0  0  0  0  0
   39.8190   36.6980   40.6720 O   0  0  0  0  0  0  0  0  0  0  0  0
   40.2790   34.5280   41.3250 N   0  0  0  0  0  0  0  0  0  0  0  0
   41.0020   33.4180   41.0860 C   0  0  0  0  0  0  0  0  0  0  0  0
   40.7740   32.4670   41.8770 O   0  0  0  0  0  0  0  0  0  0  0  0
   39.5610   34.7080   42.0660 H   0  0  0  0  0  0  0  0  0  0  0  0
  1  7  1  1  0  0  0
  1  2  1  0  0  0  0
  1 17  1  0  0  0  0
  2  8  1  0  0  0  0
  2  9  1  0  0  0  0
  3 11  1  0  0  0  0
  3 10  1  0  0  0  0
  3  2  1  0  0  0  0
  4  3  1  0  0  0  0
  5  4  1  0  0  0  0
  5  6  1  0  0  0  0
  6 16  1  6  0  0  0
  6  1  1  0  0  0  0
 12  4  1  0  0  0  0
 13  4  1  0  0  0  0
 14  5  1  0  0  0  0
 15  5  1  0  0  0  0
 17 22  1  0  0  0  0
 18 17  2  0  0  0  0
 18 19  1  0  0  0  0
 19 24  1  0  0  0  0
 19 20  2  0  0  0  0
 20 21  1  0  0  0  0
 21 25  1  0  0  0  0
 22 21  2  0  0  0  0
 23 18  1  0  0  0  0
 26  6  1  0  0  0  0
 26 29  1  1  0  0  0
 27 28  1  0  0  0  0
 27 26  1  0  0  0  0
 28 32  1  6  0  0  0
 28 33  1  0  0  0  0
 28 26  1  0  0  0  0
 30 27  1  0  0  0  0
 31 27  1  0  0  0  0
 33 34  1  0  0  0  0
 33 35  1  0  0  0  0
 36 39  1  0  0  0  0
 36 38  1  0  0  0  0
 36 33  1  0  0  0  0
 37 36  1  0  0  0  0
 39 46  1  0  0  0  0
 40 41  2  0  0  0  0
 40 39  1  0  0  0  0
 41 43  1  0  0  0  0
 42 41  1  0  0  0  0
 43 44  2  0  0  0  0
 43 45  1  0  0  0  0
 45 48  1  0  0  0  0
 46 45  1  0  0  0  0
 46 47  2  0  0  0  0
M  END
>  <minimizedAffinity>
-6.16622829

>  <minimizedRMSD>
1.34738958

$$$$
