
 OpenBabel03242512003D

 48 51  0  0  1  0  0  0  0  0999 V2000
   47.6390   34.0500   42.4180 C   0  0  2  0  0  0  0  0  0  0  0  0
   48.8310   34.9550   42.5030 C   0  0  0  0  0  0  0  0  0  0  0  0
   48.8870   35.9220   41.3860 C   0  0  0  0  0  0  0  0  0  0  0  0
   48.8390   35.2640   40.0260 C   0  0  0  0  0  0  0  0  0  0  0  0
   47.8850   34.1100   39.9500 C   0  0  0  0  0  0  0  0  0  0  0  0
   46.9260   34.0540   41.1170 C   0  0  1  0  0  0  0  0  0  0  0  0
   48.0500   33.0070   42.5860 H   0  0  0  0  0  0  0  0  0  0  0  0
   49.7920   34.4050   42.5460 H   0  0  0  0  0  0  0  0  0  0  0  0
   48.7500   35.5210   43.4510 H   0  0  0  0  0  0  0  0  0  0  0  0
   49.8620   36.4610   41.4300 H   0  0  0  0  0  0  0  0  0  0  0  0
   48.0550   36.6540   41.4390 H   0  0  0  0  0  0  0  0  0  0  0  0
   48.6480   36.0470   39.2820 H   0  0  0  0  0  0  0  0  0  0  0  0
   49.8540   34.8620   39.8310 H   0  0  0  0  0  0  0  0  0  0  0  0
   48.4040   33.1350   39.8450 H   0  0  0  0  0  0  0  0  0  0  0  0
   47.2520   34.2660   39.0330 H   0  0  0  0  0  0  0  0  0  0  0  0
   46.2070   34.8670   40.9440 H   0  0  0  0  0  0  0  0  0  0  0  0
   46.6860   34.2550   43.5280 C   0  0  0  0  0  0  0  0  0  0  0  0
   45.7990   35.2920   43.3000 C   0  0  0  0  0  0  0  0  0  0  0  0
   44.8270   35.6020   44.2680 C   0  0  0  0  0  0  0  0  0  0  0  0
   44.8470   34.8030   45.4170 N   0  0  0  0  0  0  0  0  0  0  0  0
   45.7350   33.8030   45.5900 C   0  0  0  0  0  0  0  0  0  0  0  0
   46.6440   33.5450   44.6350 N   0  0  0  0  0  0  0  0  0  0  0  0
   45.6290   36.0110   42.5120 H   0  0  0  0  0  0  0  0  0  0  0  0
   44.0700   36.3520   44.2750 H   0  0  0  0  0  0  0  0  0  0  0  0
   45.6570   33.2550   46.5130 H   0  0  0  0  0  0  0  0  0  0  0  0
   46.1460   32.7720   41.0100 C   0  0  2  0  0  0  0  0  0  0  0  0
   46.1740   32.0430   39.6780 C   0  0  0  0  0  0  0  0  0  0  0  0
   44.9380   32.6920   40.1450 C   0  0  1  0  0  0  0  0  0  0  0  0
   46.2680   32.0810   41.8710 H   0  0  0  0  0  0  0  0  0  0  0  0
   46.6760   32.4680   38.8090 H   0  0  0  0  0  0  0  0  0  0  0  0
   46.1560   30.9300   39.6700 H   0  0  0  0  0  0  0  0  0  0  0  0
   44.6410   33.6700   39.7010 H   0  0  0  0  0  0  0  0  0  0  0  0
   43.8050   31.9620   40.8010 C   0  0  0  0  0  0  0  0  0  0  0  0
   44.0880   30.8920   40.8810 H   0  0  0  0  0  0  0  0  0  0  0  0
   43.7160   32.3360   41.8500 H   0  0  0  0  0  0  0  0  0  0  0  0
   42.5130   32.0220   40.0500 C   0  0  0  0  0  0  0  0  0  0  0  0
   42.7420   31.7850   38.9910 H   0  0  0  0  0  0  0  0  0  0  0  0
   41.8860   31.1840   40.4150 H   0  0  0  0  0  0  0  0  0  0  0  0
   41.8460   33.2980   40.1570 N   0  0  0  0  0  0  0  0  0  0  0  0
   42.1090   34.3490   39.3580 C   0  0  0  0  0  3  0  0  0  0  0  0
   41.4100   35.5480   39.5370 C   0  0  0  0  0  0  0  0  0  0  0  0
   41.5870   36.4160   38.9200 H   0  0  0  0  0  0  0  0  0  0  0  0
   40.4660   35.5460   40.5720 C   0  0  0  0  0  0  0  0  0  0  0  0
   39.8550   36.6620   40.6960 O   0  0  0  0  0  0  0  0  0  0  0  0
   40.2260   34.4770   41.3550 N   0  0  0  0  0  0  0  0  0  0  0  0
   40.9260   33.3470   41.1410 C   0  0  0  0  0  0  0  0  0  0  0  0
   40.6400   32.4010   41.9170 O   0  0  0  0  0  0  0  0  0  0  0  0
   39.4870   34.6750   42.0700 H   0  0  0  0  0  0  0  0  0  0  0  0
  1  2  1  0  0  0  0
  1  7  1  1  0  0  0
  1 17  1  0  0  0  0
  2  8  1  0  0  0  0
  2  9  1  0  0  0  0
  3 10  1  0  0  0  0
  3 11  1  0  0  0  0
  3  2  1  0  0  0  0
  4  3  1  0  0  0  0
  5  4  1  0  0  0  0
  5  6  1  0  0  0  0
  6 16  1  6  0  0  0
  6  1  1  0  0  0  0
 12  4  1  0  0  0  0
 13  4  1  0  0  0  0
 14  5  1  0  0  0  0
 15  5  1  0  0  0  0
 17 22  1  0  0  0  0
 18 17  2  0  0  0  0
 18 19  1  0  0  0  0
 19 24  1  0  0  0  0
 19 20  2  0  0  0  0
 20 21  1  0  0  0  0
 21 25  1  0  0  0  0
 22 21  2  0  0  0  0
 23 18  1  0  0  0  0
 26  6  1  0  0  0  0
 26 29  1  1  0  0  0
 27 28  1  0  0  0  0
 27 26  1  0  0  0  0
 28 32  1  6  0  0  0
 28 33  1  0  0  0  0
 28 26  1  0  0  0  0
 30 27  1  0  0  0  0
 31 27  1  0  0  0  0
 33 34  1  0  0  0  0
 33 35  1  0  0  0  0
 36 39  1  0  0  0  0
 36 38  1  0  0  0  0
 36 33  1  0  0  0  0
 37 36  1  0  0  0  0
 39 46  1  0  0  0  0
 40 41  2  0  0  0  0
 40 39  1  0  0  0  0
 41 43  1  0  0  0  0
 42 41  1  0  0  0  0
 43 44  2  0  0  0  0
 43 45  1  0  0  0  0
 45 48  1  0  0  0  0
 46 45  1  0  0  0  0
 46 47  2  0  0  0  0
M  END
>  <minimizedAffinity>
-6.16674423

>  <minimizedRMSD>
1.63194752

$$$$
