
 OpenBabel03242512003D

 48 51  0  0  1  0  0  0  0  0999 V2000
   49.7070   31.1830   39.3770 C   0  0  2  0  0  0  0  0  0  0  0  0
   49.5580   31.0590   37.8900 C   0  0  0  0  0  0  0  0  0  0  0  0
   49.5240   32.3720   37.2130 C   0  0  0  0  0  0  0  0  0  0  0  0
   48.4580   33.2950   37.7580 C   0  0  0  0  0  0  0  0  0  0  0  0
   48.3170   33.2350   39.2500 C   0  0  0  0  0  0  0  0  0  0  0  0
   49.4750   32.5410   39.9300 C   0  0  1  0  0  0  0  0  0  0  0  0
   48.9190   30.4930   39.8100 H   0  0  0  0  0  0  0  0  0  0  0  0
   48.6620   30.4800   37.5910 H   0  0  0  0  0  0  0  0  0  0  0  0
   50.4350   30.4960   37.5170 H   0  0  0  0  0  0  0  0  0  0  0  0
   49.2690   32.2130   36.1390 H   0  0  0  0  0  0  0  0  0  0  0  0
   50.4990   32.8960   37.2900 H   0  0  0  0  0  0  0  0  0  0  0  0
   48.6580   34.3020   37.3730 H   0  0  0  0  0  0  0  0  0  0  0  0
   47.4940   32.9600   37.3260 H   0  0  0  0  0  0  0  0  0  0  0  0
   47.3620   32.7680   39.5680 H   0  0  0  0  0  0  0  0  0  0  0  0
   48.3250   34.2960   39.6250 H   0  0  0  0  0  0  0  0  0  0  0  0
   50.3130   33.2510   39.8780 H   0  0  0  0  0  0  0  0  0  0  0  0
   50.9870   30.6380   39.8710 C   0  0  0  0  0  0  0  0  0  0  0  0
   52.0790   31.4190   39.5340 C   0  0  0  0  0  0  0  0  0  0  0  0
   53.3660   31.0290   39.9410 C   0  0  0  0  0  0  0  0  0  0  0  0
   53.4300   29.8410   40.6780 N   0  0  0  0  0  0  0  0  0  0  0  0
   52.3340   29.1150   40.9790 C   0  0  0  0  0  0  0  0  0  0  0  0
   51.1240   29.5310   40.5680 N   0  0  0  0  0  0  0  0  0  0  0  0
   52.2390   32.3340   38.9820 H   0  0  0  0  0  0  0  0  0  0  0  0
   54.3140   31.4900   39.7810 H   0  0  0  0  0  0  0  0  0  0  0  0
   52.5020   28.2190   41.5510 H   0  0  0  0  0  0  0  0  0  0  0  0
   49.1340   32.3980   41.3870 C   0  0  2  0  0  0  0  0  0  0  0  0
   47.9800   31.4800   41.7510 C   0  0  0  0  0  0  0  0  0  0  0  0
   47.8540   32.9370   41.9210 C   0  0  1  0  0  0  0  0  0  0  0  0
   50.0090   32.2600   42.0580 H   0  0  0  0  0  0  0  0  0  0  0  0
   47.3710   31.0020   40.9840 H   0  0  0  0  0  0  0  0  0  0  0  0
   48.0340   30.8910   42.6950 H   0  0  0  0  0  0  0  0  0  0  0  0
   47.2680   33.5190   41.1730 H   0  0  0  0  0  0  0  0  0  0  0  0
   48.0260   33.6450   43.2310 C   0  0  0  0  0  0  0  0  0  0  0  0
   48.7850   33.0930   43.8220 H   0  0  0  0  0  0  0  0  0  0  0  0
   48.4700   34.6490   43.0230 H   0  0  0  0  0  0  0  0  0  0  0  0
   46.7860   33.7180   44.0630 C   0  0  0  0  0  0  0  0  0  0  0  0
   46.5680   32.6890   44.4110 H   0  0  0  0  0  0  0  0  0  0  0  0
   47.0400   34.2950   44.9750 H   0  0  0  0  0  0  0  0  0  0  0  0
   45.6540   34.2710   43.3570 N   0  0  0  0  0  0  0  0  0  0  0  0
   45.5440   35.5710   43.0230 C   0  0  0  0  0  3  0  0  0  0  0  0
   44.4070   36.0170   42.3390 C   0  0  0  0  0  0  0  0  0  0  0  0
   44.2770   37.0490   42.0510 H   0  0  0  0  0  0  0  0  0  0  0  0
   43.4520   35.0330   42.0540 C   0  0  0  0  0  0  0  0  0  0  0  0
   42.4330   35.4880   41.4300 O   0  0  0  0  0  0  0  0  0  0  0  0
   43.5910   33.7410   42.4030 N   0  0  0  0  0  0  0  0  0  0  0  0
   44.7050   33.3640   43.0610 C   0  0  0  0  0  0  0  0  0  0  0  0
   44.7530   32.1400   43.3460 O   0  0  0  0  0  0  0  0  0  0  0  0
   42.7710   33.1630   42.1010 H   0  0  0  0  0  0  0  0  0  0  0  0
  1  7  1  1  0  0  0
  1 17  1  0  0  0  0
  1  6  1  0  0  0  0
  2  1  1  0  0  0  0
  3 11  1  0  0  0  0
  3  4  1  0  0  0  0
  3  2  1  0  0  0  0
  4  5  1  0  0  0  0
  5 14  1  0  0  0  0
  5 15  1  0  0  0  0
  5  6  1  0  0  0  0
  6 16  1  6  0  0  0
  6 26  1  0  0  0  0
  8  2  1  0  0  0  0
  9  2  1  0  0  0  0
 10  3  1  0  0  0  0
 12  4  1  0  0  0  0
 13  4  1  0  0  0  0
 17 22  1  0  0  0  0
 18 17  2  0  0  0  0
 18 19  1  0  0  0  0
 19 20  2  0  0  0  0
 20 21  1  0  0  0  0
 21 25  1  0  0  0  0
 22 21  2  0  0  0  0
 23 18  1  0  0  0  0
 24 19  1  0  0  0  0
 26 27  1  0  0  0  0
 26 28  1  0  0  0  0
 26 29  1  1  0  0  0
 27 28  1  0  0  0  0
 27 31  1  0  0  0  0
 28 32  1  6  0  0  0
 28 33  1  0  0  0  0
 30 27  1  0  0  0  0
 33 34  1  0  0  0  0
 33 36  1  0  0  0  0
 35 33  1  0  0  0  0
 36 37  1  0  0  0  0
 36 38  1  0  0  0  0
 39 36  1  0  0  0  0
 40 39  1  0  0  0  0
 41 40  2  0  0  0  0
 42 41  1  0  0  0  0
 43 41  1  0  0  0  0
 43 45  1  0  0  0  0
 44 43  2  0  0  0  0
 45 46  1  0  0  0  0
 46 47  2  0  0  0  0
 46 39  1  0  0  0  0
 48 45  1  0  0  0  0
M  END
>  <minimizedAffinity>
-4.36082602

>  <minimizedRMSD>
6.05844307

$$$$
