
 OpenBabel03242512003D

 48 51  0  0  1  0  0  0  0  0999 V2000
   47.2030   34.0990   42.4750 C   0  0  2  0  0  0  0  0  0  0  0  0
   48.5540   34.7410   42.5830 C   0  0  0  0  0  0  0  0  0  0  0  0
   48.8140   35.7000   41.4890 C   0  0  0  0  0  0  0  0  0  0  0  0
   48.6430   35.0950   40.1140 C   0  0  0  0  0  0  0  0  0  0  0  0
   47.4740   34.1610   40.0100 C   0  0  0  0  0  0  0  0  0  0  0  0
   46.5150   34.2770   41.1730 C   0  0  1  0  0  0  0  0  0  0  0  0
   47.3920   32.9920   42.6210 H   0  0  0  0  0  0  0  0  0  0  0  0
   49.3820   34.0060   42.6170 H   0  0  0  0  0  0  0  0  0  0  0  0
   48.5830   35.2900   43.5440 H   0  0  0  0  0  0  0  0  0  0  0  0
   49.8780   36.0270   41.5470 H   0  0  0  0  0  0  0  0  0  0  0  0
   48.1480   36.5850   41.5560 H   0  0  0  0  0  0  0  0  0  0  0  0
   48.6210   35.9150   39.3880 H   0  0  0  0  0  0  0  0  0  0  0  0
   49.5560   34.4980   39.9130 H   0  0  0  0  0  0  0  0  0  0  0  0
   47.7840   33.1040   39.8840 H   0  0  0  0  0  0  0  0  0  0  0  0
   46.8930   34.4620   39.0950 H   0  0  0  0  0  0  0  0  0  0  0  0
   45.9780   35.2230   41.0160 H   0  0  0  0  0  0  0  0  0  0  0  0
   46.3040   34.4710   43.5870 C   0  0  0  0  0  0  0  0  0  0  0  0
   45.5910   35.6320   43.3470 C   0  0  0  0  0  0  0  0  0  0  0  0
   44.6890   36.1080   44.3140 C   0  0  0  0  0  0  0  0  0  0  0  0
   44.5910   35.3340   45.4770 N   0  0  0  0  0  0  0  0  0  0  0  0
   45.3110   34.2090   45.6620 C   0  0  0  0  0  0  0  0  0  0  0  0
   46.1590   33.7950   44.7070 N   0  0  0  0  0  0  0  0  0  0  0  0
   45.5300   36.3560   42.5470 H   0  0  0  0  0  0  0  0  0  0  0  0
   44.0600   36.9680   44.3130 H   0  0  0  0  0  0  0  0  0  0  0  0
   45.1540   33.6940   46.5940 H   0  0  0  0  0  0  0  0  0  0  0  0
   45.4910   33.1840   41.0350 C   0  0  2  0  0  0  0  0  0  0  0  0
   44.8580   32.9830   39.6690 C   0  0  0  0  0  0  0  0  0  0  0  0
   44.0610   33.5140   40.7880 C   0  0  1  0  0  0  0  0  0  0  0  0
   45.7710   32.2220   41.5150 H   0  0  0  0  0  0  0  0  0  0  0  0
   45.0790   33.6530   38.8380 H   0  0  0  0  0  0  0  0  0  0  0  0
   44.5960   31.9520   39.3410 H   0  0  0  0  0  0  0  0  0  0  0  0
   43.8420   34.6050   40.8230 H   0  0  0  0  0  0  0  0  0  0  0  0
   43.1250   32.6860   41.6150 C   0  0  0  0  0  0  0  0  0  0  0  0
   43.5780   31.6820   41.7440 H   0  0  0  0  0  0  0  0  0  0  0  0
   43.0800   33.1360   42.6370 H   0  0  0  0  0  0  0  0  0  0  0  0
   41.7740   32.4870   41.0070 C   0  0  0  0  0  0  0  0  0  0  0  0
   41.7680   31.4740   40.5560 H   0  0  0  0  0  0  0  0  0  0  0  0
   41.0450   32.4460   41.8420 H   0  0  0  0  0  0  0  0  0  0  0  0
   41.4330   33.4880   40.0250 N   0  0  0  0  0  0  0  0  0  0  0  0
   41.1580   34.7710   40.3300 C   0  0  0  0  0  3  0  0  0  0  0  0
   40.8370   35.6720   39.3090 C   0  0  0  0  0  0  0  0  0  0  0  0
   40.6090   36.7090   39.5070 H   0  0  0  0  0  0  0  0  0  0  0  0
   40.8310   35.1380   38.0140 C   0  0  0  0  0  0  0  0  0  0  0  0
   40.5330   36.0000   37.1180 O   0  0  0  0  0  0  0  0  0  0  0  0
   41.1120   33.8490   37.7420 N   0  0  0  0  0  0  0  0  0  0  0  0
   41.4140   33.0240   38.7600 C   0  0  0  0  0  0  0  0  0  0  0  0
   41.6610   31.8400   38.4170 O   0  0  0  0  0  0  0  0  0  0  0  0
   41.0550   33.6470   36.7160 H   0  0  0  0  0  0  0  0  0  0  0  0
  1  2  1  0  0  0  0
  1  7  1  1  0  0  0
  1 17  1  0  0  0  0
  2  8  1  0  0  0  0
  2  9  1  0  0  0  0
  3 10  1  0  0  0  0
  3 11  1  0  0  0  0
  3  2  1  0  0  0  0
  4  3  1  0  0  0  0
  5  4  1  0  0  0  0
  5  6  1  0  0  0  0
  6 16  1  6  0  0  0
  6  1  1  0  0  0  0
 12  4  1  0  0  0  0
 13  4  1  0  0  0  0
 14  5  1  0  0  0  0
 15  5  1  0  0  0  0
 17 22  1  0  0  0  0
 18 17  2  0  0  0  0
 18 19  1  0  0  0  0
 19 20  2  0  0  0  0
 20 21  1  0  0  0  0
 21 25  1  0  0  0  0
 22 21  2  0  0  0  0
 23 18  1  0  0  0  0
 24 19  1  0  0  0  0
 26  6  1  0  0  0  0
 26 29  1  1  0  0  0
 27 28  1  0  0  0  0
 27 26  1  0  0  0  0
 28 32  1  6  0  0  0
 28 26  1  0  0  0  0
 28 33  1  0  0  0  0
 30 27  1  0  0  0  0
 31 27  1  0  0  0  0
 33 34  1  0  0  0  0
 33 35  1  0  0  0  0
 36 33  1  0  0  0  0
 36 38  1  0  0  0  0
 37 36  1  0  0  0  0
 39 40  1  0  0  0  0
 39 36  1  0  0  0  0
 41 42  1  0  0  0  0
 41 40  2  0  0  0  0
 43 41  1  0  0  0  0
 44 43  2  0  0  0  0
 45 43  1  0  0  0  0
 45 46  1  0  0  0  0
 46 39  1  0  0  0  0
 47 46  2  0  0  0  0
 48 45  1  0  0  0  0
M  END
>  <minimizedAffinity>
-6.6602273

>  <minimizedRMSD>
2.01241708

$$$$
