
 OpenBabel03242512003D

 48 51  0  0  1  0  0  0  0  0999 V2000
   47.3810   33.9120   42.5920 C   0  0  2  0  0  0  0  0  0  0  0  0
   48.5950   34.7900   42.5680 C   0  0  0  0  0  0  0  0  0  0  0  0
   48.6420   35.6590   41.3740 C   0  0  0  0  0  0  0  0  0  0  0  0
   48.5410   34.8920   40.0750 C   0  0  0  0  0  0  0  0  0  0  0  0
   47.5580   33.7600   40.1220 C   0  0  0  0  0  0  0  0  0  0  0  0
   46.6310   33.8250   41.3140 C   0  0  1  0  0  0  0  0  0  0  0  0
   47.7720   32.8760   42.8360 H   0  0  0  0  0  0  0  0  0  0  0  0
   49.5440   34.2220   42.6320 H   0  0  0  0  0  0  0  0  0  0  0  0
   48.5540   35.4350   43.4680 H   0  0  0  0  0  0  0  0  0  0  0  0
   49.6300   36.1750   41.3460 H   0  0  0  0  0  0  0  0  0  0  0  0
   47.8290   36.4140   41.3860 H   0  0  0  0  0  0  0  0  0  0  0  0
   48.3470   35.6140   39.2740 H   0  0  0  0  0  0  0  0  0  0  0  0
   49.5400   34.4490   39.8880 H   0  0  0  0  0  0  0  0  0  0  0  0
   48.0510   32.7670   40.0850 H   0  0  0  0  0  0  0  0  0  0  0  0
   46.9030   33.8550   39.2120 H   0  0  0  0  0  0  0  0  0  0  0  0
   45.9270   34.6390   41.0920 H   0  0  0  0  0  0  0  0  0  0  0  0
   46.4640   34.2320   43.7050 C   0  0  0  0  0  0  0  0  0  0  0  0
   45.6460   35.3170   43.4430 C   0  0  0  0  0  0  0  0  0  0  0  0
   44.7170   35.7380   44.4090 C   0  0  0  0  0  0  0  0  0  0  0  0
   44.7020   34.9930   45.5950 N   0  0  0  0  0  0  0  0  0  0  0  0
   45.5230   33.9430   45.8000 C   0  0  0  0  0  0  0  0  0  0  0  0
   46.3940   33.5790   44.8450 N   0  0  0  0  0  0  0  0  0  0  0  0
   45.5120   36.0100   42.6240 H   0  0  0  0  0  0  0  0  0  0  0  0
   44.0120   36.5370   44.3930 H   0  0  0  0  0  0  0  0  0  0  0  0
   45.4250   33.4430   46.7490 H   0  0  0  0  0  0  0  0  0  0  0  0
   45.8200   32.5600   41.3360 C   0  0  2  0  0  0  0  0  0  0  0  0
   46.0590   31.5530   40.2240 C   0  0  0  0  0  0  0  0  0  0  0  0
   44.7930   32.3010   40.2890 C   0  0  1  0  0  0  0  0  0  0  0  0
   45.7400   32.0750   42.3320 H   0  0  0  0  0  0  0  0  0  0  0  0
   46.7380   31.7700   39.3990 H   0  0  0  0  0  0  0  0  0  0  0  0
   45.9850   30.4660   40.4540 H   0  0  0  0  0  0  0  0  0  0  0  0
   44.6380   33.1590   39.5950 H   0  0  0  0  0  0  0  0  0  0  0  0
   43.5210   31.7460   40.8520 C   0  0  0  0  0  0  0  0  0  0  0  0
   43.6550   30.6530   40.9900 H   0  0  0  0  0  0  0  0  0  0  0  0
   43.3830   32.1700   41.8760 H   0  0  0  0  0  0  0  0  0  0  0  0
   42.3220   31.9360   39.9780 C   0  0  0  0  0  0  0  0  0  0  0  0
   42.6480   31.7480   38.9350 H   0  0  0  0  0  0  0  0  0  0  0  0
   41.6100   31.1210   40.2200 H   0  0  0  0  0  0  0  0  0  0  0  0
   41.7250   33.2450   40.1010 N   0  0  0  0  0  0  0  0  0  0  0  0
   42.0330   34.2850   39.3040 C   0  0  0  0  0  3  0  0  0  0  0  0
   41.4010   35.5200   39.4990 C   0  0  0  0  0  0  0  0  0  0  0  0
   41.6150   36.3800   38.8840 H   0  0  0  0  0  0  0  0  0  0  0  0
   40.4710   35.5590   40.5460 C   0  0  0  0  0  0  0  0  0  0  0  0
   39.9220   36.7050   40.6840 O   0  0  0  0  0  0  0  0  0  0  0  0
   40.1860   34.5000   41.3270 N   0  0  0  0  0  0  0  0  0  0  0  0
   40.8220   33.3370   41.0960 C   0  0  0  0  0  0  0  0  0  0  0  0
   40.4950   32.4020   41.8710 O   0  0  0  0  0  0  0  0  0  0  0  0
   39.4660   34.7330   42.0520 H   0  0  0  0  0  0  0  0  0  0  0  0
  1  7  1  1  0  0  0
  1 17  1  0  0  0  0
  2  1  1  0  0  0  0
  2  8  1  0  0  0  0
  2  9  1  0  0  0  0
  3 11  1  0  0  0  0
  3  2  1  0  0  0  0
  4  5  1  0  0  0  0
  4  3  1  0  0  0  0
  5  6  1  0  0  0  0
  6 16  1  6  0  0  0
  6 26  1  0  0  0  0
  6  1  1  0  0  0  0
 10  3  1  0  0  0  0
 12  4  1  0  0  0  0
 13  4  1  0  0  0  0
 14  5  1  0  0  0  0
 15  5  1  0  0  0  0
 17 22  1  0  0  0  0
 18 17  2  0  0  0  0
 18 19  1  0  0  0  0
 19 20  2  0  0  0  0
 20 21  1  0  0  0  0
 21 25  1  0  0  0  0
 22 21  2  0  0  0  0
 23 18  1  0  0  0  0
 24 19  1  0  0  0  0
 26 29  1  1  0  0  0
 27 28  1  0  0  0  0
 27 31  1  0  0  0  0
 27 26  1  0  0  0  0
 28 32  1  6  0  0  0
 28 33  1  0  0  0  0
 28 26  1  0  0  0  0
 30 27  1  0  0  0  0
 33 34  1  0  0  0  0
 33 35  1  0  0  0  0
 36 39  1  0  0  0  0
 36 38  1  0  0  0  0
 36 33  1  0  0  0  0
 37 36  1  0  0  0  0
 39 46  1  0  0  0  0
 40 41  2  0  0  0  0
 40 39  1  0  0  0  0
 41 43  1  0  0  0  0
 42 41  1  0  0  0  0
 43 44  2  0  0  0  0
 43 45  1  0  0  0  0
 45 48  1  0  0  0  0
 46 45  1  0  0  0  0
 46 47  2  0  0  0  0
M  END
>  <minimizedAffinity>
-6.17757273

>  <minimizedRMSD>
1.61595702

$$$$
