
 OpenBabel03242512003D

 48 51  0  0  1  0  0  0  0  0999 V2000
   47.0290   34.0740   42.5140 C   0  0  2  0  0  0  0  0  0  0  0  0
   48.4530   34.5140   42.6770 C   0  0  0  0  0  0  0  0  0  0  0  0
   48.8570   35.5120   41.6640 C   0  0  0  0  0  0  0  0  0  0  0  0
   48.6250   35.0460   40.2450 C   0  0  0  0  0  0  0  0  0  0  0  0
   47.3410   34.2920   40.0620 C   0  0  0  0  0  0  0  0  0  0  0  0
   46.3910   34.4450   41.2270 C   0  0  1  0  0  0  0  0  0  0  0  0
   47.0640   32.9420   42.5710 H   0  0  0  0  0  0  0  0  0  0  0  0
   49.1730   33.6730   42.6550 H   0  0  0  0  0  0  0  0  0  0  0  0
   48.5420   34.9770   43.6790 H   0  0  0  0  0  0  0  0  0  0  0  0
   49.9550   35.6860   41.7530 H   0  0  0  0  0  0  0  0  0  0  0  0
   48.3160   36.4720   41.8000 H   0  0  0  0  0  0  0  0  0  0  0  0
   48.7250   35.9170   39.5870 H   0  0  0  0  0  0  0  0  0  0  0  0
   49.4510   34.3480   40.0000 H   0  0  0  0  0  0  0  0  0  0  0  0
   47.5070   33.2160   39.8530 H   0  0  0  0  0  0  0  0  0  0  0  0
   46.8200   34.7410   39.1720 H   0  0  0  0  0  0  0  0  0  0  0  0
   45.9890   35.4650   41.1450 H   0  0  0  0  0  0  0  0  0  0  0  0
   46.1730   34.4750   43.6480 C   0  0  0  0  0  0  0  0  0  0  0  0
   45.5100   35.6710   43.4340 C   0  0  0  0  0  0  0  0  0  0  0  0
   44.6530   36.1780   44.4260 C   0  0  0  0  0  0  0  0  0  0  0  0
   44.5430   35.3980   45.5840 N   0  0  0  0  0  0  0  0  0  0  0  0
   45.2130   34.2390   45.7420 C   0  0  0  0  0  0  0  0  0  0  0  0
   46.0210   33.7950   44.7640 N   0  0  0  0  0  0  0  0  0  0  0  0
   45.4670   36.4050   42.6430 H   0  0  0  0  0  0  0  0  0  0  0  0
   44.0650   37.0670   44.4470 H   0  0  0  0  0  0  0  0  0  0  0  0
   45.0530   33.7220   46.6730 H   0  0  0  0  0  0  0  0  0  0  0  0
   45.2300   33.5160   40.9980 C   0  0  2  0  0  0  0  0  0  0  0  0
   44.6940   33.3990   39.5820 C   0  0  0  0  0  0  0  0  0  0  0  0
   43.8920   34.0540   40.6290 C   0  0  1  0  0  0  0  0  0  0  0  0
   45.3200   32.5290   41.4980 H   0  0  0  0  0  0  0  0  0  0  0  0
   45.0830   34.0190   38.7750 H   0  0  0  0  0  0  0  0  0  0  0  0
   44.3090   32.4150   39.2300 H   0  0  0  0  0  0  0  0  0  0  0  0
   43.8380   35.1670   40.6490 H   0  0  0  0  0  0  0  0  0  0  0  0
   42.7760   33.3840   41.3700 C   0  0  0  0  0  0  0  0  0  0  0  0
   42.7230   32.3300   41.0300 H   0  0  0  0  0  0  0  0  0  0  0  0
   43.0540   33.3450   42.4510 H   0  0  0  0  0  0  0  0  0  0  0  0
   41.4280   33.9910   41.1390 C   0  0  0  0  0  0  0  0  0  0  0  0
   41.1390   34.5050   42.0780 H   0  0  0  0  0  0  0  0  0  0  0  0
   41.5590   34.7950   40.3860 H   0  0  0  0  0  0  0  0  0  0  0  0
   40.4250   33.0290   40.7510 N   0  0  0  0  0  0  0  0  0  0  0  0
   39.6820   32.3260   41.6270 C   0  0  0  0  0  3  0  0  0  0  0  0
   38.7320   31.4140   41.1550 C   0  0  0  0  0  0  0  0  0  0  0  0
   38.1160   30.8300   41.8210 H   0  0  0  0  0  0  0  0  0  0  0  0
   38.6370   31.3100   39.7620 C   0  0  0  0  0  0  0  0  0  0  0  0
   37.7570   30.4650   39.3810 O   0  0  0  0  0  0  0  0  0  0  0  0
   39.3950   32.0270   38.9110 N   0  0  0  0  0  0  0  0  0  0  0  0
   40.2950   32.8910   39.4160 C   0  0  0  0  0  0  0  0  0  0  0  0
   40.9580   33.5180   38.5520 O   0  0  0  0  0  0  0  0  0  0  0  0
   39.1740   31.8060   37.9110 H   0  0  0  0  0  0  0  0  0  0  0  0
  1  7  1  1  0  0  0
  1  2  1  0  0  0  0
  1 17  1  0  0  0  0
  2  9  1  0  0  0  0
  3 10  1  0  0  0  0
  3 11  1  0  0  0  0
  3  2  1  0  0  0  0
  4  3  1  0  0  0  0
  5  4  1  0  0  0  0
  5  6  1  0  0  0  0
  6 16  1  1  0  0  0
  6  1  1  0  0  0  0
  8  2  1  0  0  0  0
 12  4  1  0  0  0  0
 13  4  1  0  0  0  0
 14  5  1  0  0  0  0
 15  5  1  0  0  0  0
 17 22  1  0  0  0  0
 18 17  2  0  0  0  0
 18 19  1  0  0  0  0
 19 24  1  0  0  0  0
 19 20  2  0  0  0  0
 20 21  1  0  0  0  0
 21 25  1  0  0  0  0
 22 21  2  0  0  0  0
 23 18  1  0  0  0  0
 26  6  1  0  0  0  0
 26 29  1  1  0  0  0
 27 28  1  0  0  0  0
 27 26  1  0  0  0  0
 28 32  1  6  0  0  0
 28 26  1  0  0  0  0
 28 33  1  0  0  0  0
 30 27  1  0  0  0  0
 31 27  1  0  0  0  0
 33 35  1  0  0  0  0
 34 33  1  0  0  0  0
 36 33  1  0  0  0  0
 36 37  1  0  0  0  0
 38 36  1  0  0  0  0
 39 36  1  0  0  0  0
 39 40  1  0  0  0  0
 41 40  2  0  0  0  0
 41 42  1  0  0  0  0
 43 41  1  0  0  0  0
 44 43  2  0  0  0  0
 45 46  1  0  0  0  0
 45 43  1  0  0  0  0
 46 39  1  0  0  0  0
 47 46  2  0  0  0  0
 48 45  1  0  0  0  0
M  END
>  <minimizedAffinity>
-6.41401815

>  <minimizedRMSD>
3.09889603

$$$$
