
 OpenBabel03242517533D

 39 41  0  0  0  0  0  0  0  0999 V2000
   44.9790   34.7670   44.7770 C   0  0  0  0  0  0  0  0  0  0  0  0
   45.5500   34.6460   43.4930 C   0  0  0  0  0  0  0  0  0  0  0  0
   46.6630   33.8230   43.3360 C   0  0  0  0  0  0  0  0  0  0  0  0
   47.1210   33.1940   44.4300 N   0  0  0  0  0  0  0  0  0  0  0  0
   46.5800   33.3130   45.6300 C   0  0  0  0  0  0  0  0  0  0  0  0
   45.5000   34.1090   45.7990 N   0  0  0  0  0  0  0  0  0  0  0  0
   44.1100   35.4220   44.8470 H   0  0  0  0  0  0  0  0  0  0  0  0
   45.2060   35.1340   42.6010 H   0  0  0  0  0  0  0  0  0  0  0  0
   47.3360   33.6350   42.0340 C   0  0  0  0  0  0  0  0  0  0  0  0
   48.3390   34.1390   42.1700 H   0  0  0  0  0  0  0  0  0  0  0  0
   47.4420   32.5670   41.8280 H   0  0  0  0  0  0  0  0  0  0  0  0
   46.5640   34.2360   40.9010 C   0  0  0  0  0  0  0  0  0  0  0  0
   45.5260   33.8680   40.9870 H   0  0  0  0  0  0  0  0  0  0  0  0
   46.5490   35.3370   41.0860 H   0  0  0  0  0  0  0  0  0  0  0  0
   47.1330   34.0220   39.6110 N   0  0  0  0  0  0  0  0  0  0  0  0
   46.5850   33.1380   38.7580 C   0  0  0  0  0  3  0  0  0  0  0  0
   47.0420   32.8470   37.4940 C   0  0  0  0  0  0  0  0  0  0  0  0
   46.5570   32.1240   36.8530 H   0  0  0  0  0  0  0  0  0  0  0  0
   48.1670   33.5620   37.1300 C   0  0  0  0  0  0  0  0  0  0  0  0
   48.6710   33.3670   35.9780 O   0  0  0  0  0  0  0  0  0  0  0  0
   48.7670   34.4650   37.9380 N   0  0  0  0  0  0  0  0  0  0  0  0
   48.2110   34.6480   39.1490 C   0  0  0  0  0  0  0  0  0  0  0  0
   48.7910   35.4930   39.8780 O   0  0  0  0  0  0  0  0  0  0  0  0
   49.6160   34.9690   37.5960 H   0  0  0  0  0  0  0  0  0  0  0  0
   47.0510   32.6700   46.7530 O   0  0  0  0  0  0  0  0  0  0  0  0
   46.0690   30.4270   47.2250 C   0  0  0  0  0  0  0  0  0  0  0  0
   46.3540   31.7430   47.5170 C   0  0  0  0  0  0  0  0  0  0  0  0
   45.9040   32.2430   48.7260 C   0  0  0  0  0  0  0  0  0  0  0  0
   45.1890   31.4580   49.6180 C   0  0  0  0  0  0  0  0  0  0  0  0
   44.9150   30.1530   49.3090 C   0  0  0  0  0  0  0  0  0  0  0  0
   45.3640   29.6410   48.0960 C   0  0  0  0  0  0  0  0  0  0  0  0
   46.0740   33.2600   49.0520 H   0  0  0  0  0  0  0  0  0  0  0  0
   44.8330   31.8420   50.5660 H   0  0  0  0  0  0  0  0  0  0  0  0
   44.3600   29.5140   49.9840 H   0  0  0  0  0  0  0  0  0  0  0  0
   45.1660   28.6150   47.8210 H   0  0  0  0  0  0  0  0  0  0  0  0
   46.6740   29.8860   45.6860 S   0  0  0  0  0  0  0  0  0  0  0  0
   45.6400   30.0540   44.5980 O   0  0  0  0  0  0  0  0  0  0  0  0
   46.8990   28.3840   45.7980 O   0  0  0  0  0  0  0  0  0  0  0  0
   47.8260   30.4800   45.3130 H   0  0  0  0  0  0  0  0  0  0  0  0
  1  7  1  0  0  0  0
  1  6  1  0  0  0  0
  2  1  2  0  0  0  0
  3  2  1  0  0  0  0
  3  4  2  0  0  0  0
  4  5  1  0  0  0  0
  5  6  2  0  0  0  0
  5 25  1  0  0  0  0
  8  2  1  0  0  0  0
  9 10  1  0  0  0  0
  9  3  1  0  0  0  0
 11  9  1  0  0  0  0
 12 13  1  0  0  0  0
 12 14  1  0  0  0  0
 12  9  1  0  0  0  0
 15 12  1  0  0  0  0
 16 15  1  0  0  0  0
 17 16  2  0  0  0  0
 18 17  1  0  0  0  0
 19 17  1  0  0  0  0
 19 21  1  0  0  0  0
 20 19  2  0  0  0  0
 21 22  1  0  0  0  0
 22 15  1  0  0  0  0
 22 23  2  0  0  0  0
 24 21  1  0  0  0  0
 25 27  1  0  0  0  0
 26 27  2  0  0  0  0
 26 31  1  0  0  0  0
 27 28  1  0  0  0  0
 28 32  1  0  0  0  0
 28 29  2  0  0  0  0
 29 33  1  0  0  0  0
 30 29  1  0  0  0  0
 30 34  1  0  0  0  0
 31 30  2  0  0  0  0
 35 31  1  0  0  0  0
 36 38  2  0  0  0  0
 36 26  1  0  0  0  0
 37 36  2  0  0  0  0
 39 36  1  0  0  0  0
M  END
>  <minimizedAffinity>
-5.65652561

>  <minimizedRMSD>
2.23153973

$$$$
