
 OpenBabel03242513523D

 40 42  0  0  1  0  0  0  0  0999 V2000
   48.6660   33.7280   39.9340 C   0  0  2  0  0  0  0  0  0  0  0  0
   49.2170   32.7450   40.9220 C   0  0  0  0  0  0  0  0  0  0  0  0
   49.8240   33.7030   41.9250 C   0  0  0  0  0  0  0  0  0  0  0  0
   48.8780   34.8120   41.9930 C   0  0  0  0  0  0  0  0  0  0  0  0
   47.7980   34.5870   40.8220 C   0  0  2  0  0  0  0  0  0  0  0  0
   49.4730   34.4000   39.5640 H   0  0  0  0  0  0  0  0  0  0  0  0
   48.4340   32.1840   41.4480 H   0  0  0  0  0  0  0  0  0  0  0  0
   49.9940   32.0810   40.4790 H   0  0  0  0  0  0  0  0  0  0  0  0
   50.7950   34.0430   41.5060 H   0  0  0  0  0  0  0  0  0  0  0  0
   50.0470   33.1890   42.8860 H   0  0  0  0  0  0  0  0  0  0  0  0
   48.3110   34.8280   42.9490 H   0  0  0  0  0  0  0  0  0  0  0  0
   49.3080   35.8190   41.8470 H   0  0  0  0  0  0  0  0  0  0  0  0
   47.5820   35.5900   40.4140 H   0  0  0  0  0  0  0  0  0  0  0  0
   46.6440   33.1520   36.8260 C   0  0  0  0  0  0  0  0  0  0  0  0
   47.3490   33.8700   37.8180 C   0  0  0  0  0  0  0  0  0  0  0  0
   47.8780   33.1390   38.8290 C   0  0  0  0  0  0  0  0  0  0  0  0
   47.7040   31.7520   38.8370 N   0  0  0  0  0  0  0  0  0  0  0  0
   47.0310   31.1100   37.8830 C   0  0  0  0  0  0  0  0  0  0  0  0
   46.5020   31.8060   36.8770 N   0  0  0  0  0  0  0  0  0  0  0  0
   46.2280   33.7490   36.0260 H   0  0  0  0  0  0  0  0  0  0  0  0
   47.4660   34.9440   37.7810 H   0  0  0  0  0  0  0  0  0  0  0  0
   46.9560   30.0360   37.9850 H   0  0  0  0  0  0  0  0  0  0  0  0
   46.7400   33.9040   41.3900 O   0  0  0  0  0  0  0  0  0  0  0  0
   46.7120   33.3230   42.6290 C   0  0  0  0  0  0  0  0  0  0  0  0
   46.3900   34.2480   43.4710 O   0  0  0  0  0  0  0  0  0  0  0  0
   46.8770   32.1250   43.4690 C   0  0  0  0  0  0  0  0  0  0  0  0
   47.3020   32.0340   44.7410 C   0  0  0  0  0  0  0  0  0  0  0  0
   47.4940   30.8760   45.6480 C   0  0  0  0  0  0  0  0  0  0  0  0
   47.2620   29.9130   45.1480 H   0  0  0  0  0  0  0  0  0  0  0  0
   48.5490   30.7910   45.9770 H   0  0  0  0  0  0  0  0  0  0  0  0
   46.7000   31.0740   46.8430 N   0  0  0  0  0  0  0  0  0  0  0  0
   45.4310   31.4890   46.8890 C   0  0  0  0  0  0  0  0  0  0  0  0
   44.8410   31.6190   48.1350 C   0  0  0  0  0  0  0  0  0  0  0  0
   43.8260   31.9500   48.1810 H   0  0  0  0  0  0  0  0  0  0  0  0
   45.5550   31.3250   49.2810 C   0  0  0  0  0  0  0  0  0  0  0  0
   45.0400   31.4340   50.4260 O   0  0  0  0  0  0  0  0  0  0  0  0
   46.8200   30.9120   49.2170 N   0  0  0  0  0  0  0  0  0  0  0  0
   47.3910   30.7880   47.9850 C   0  0  0  0  0  0  0  0  0  0  0  0
   48.6020   30.3900   47.9990 O   0  0  0  0  0  0  0  0  0  0  0  0
   47.3510   30.6920   50.0770 H   0  0  0  0  0  0  0  0  0  0  0  0
  1  6  1  6  0  0  0
  1  5  1  0  0  0  0
  1  2  1  0  0  0  0
  2  7  1  0  0  0  0
  2  3  1  0  0  0  0
  3  4  1  0  0  0  0
  3 10  1  0  0  0  0
  4 11  1  0  0  0  0
  5 13  1  6  0  0  0
  5 23  1  0  0  0  0
  5  4  1  0  0  0  0
  8  2  1  0  0  0  0
  9  3  1  0  0  0  0
 12  4  1  0  0  0  0
 14 19  2  0  0  0  0
 14 15  1  0  0  0  0
 15 16  2  0  0  0  0
 16 17  1  0  0  0  0
 16  1  1  0  0  0  0
 18 22  1  0  0  0  0
 18 17  2  0  0  0  0
 19 18  1  0  0  0  0
 20 14  1  0  0  0  0
 21 15  1  0  0  0  0
 23 24  1  0  0  0  0
 24 26  1  0  0  0  0
 24 25  2  0  0  0  0
 26 27  2  0  0  0  0
 27 28  1  0  0  0  0
 28 30  1  0  0  0  0
 28 31  1  0  0  0  0
 29 28  1  0  0  0  0
 31 32  1  0  0  0  0
 31 38  1  0  0  0  0
 32 33  2  0  0  0  0
 33 34  1  0  0  0  0
 33 35  1  0  0  0  0
 35 36  2  0  0  0  0
 37 35  1  0  0  0  0
 37 40  1  0  0  0  0
 38 39  2  0  0  0  0
 38 37  1  0  0  0  0
M  END
>  <minimizedAffinity>
-4.37913704

>  <minimizedRMSD>
7.6208787

$$$$
