
 OpenBabel03252504253D

 22 23  0  0  0  0  0  0  0  0999 V2000
   35.4730   28.8870   40.7480 C   0  0  0  0  0  0  0  0  0  0  0  0
   34.6670   29.1750   41.4350 H   0  0  0  0  0  0  0  0  0  0  0  0
   35.0210   28.2760   39.9170 H   0  0  0  0  0  0  0  0  0  0  0  0
   36.4800   28.0530   41.3870 N   0  0  0  0  0  0  0  0  0  0  0  0
   36.9730   28.4140   42.5730 C   0  0  0  0  0  3  0  0  0  0  0  0
   37.9350   27.5890   43.1500 C   0  0  0  0  0  0  0  0  0  0  0  0
   38.3670   27.8470   44.1230 H   0  0  0  0  0  0  0  0  0  0  0  0
   38.3620   26.4460   42.5200 C   0  0  0  0  0  0  0  0  0  0  0  0
   39.2340   25.7250   43.0720 O   0  0  0  0  0  0  0  0  0  0  0  0
   37.8340   26.1200   41.3190 N   0  0  0  0  0  0  0  0  0  0  0  0
   36.8920   26.9200   40.7470 C   0  0  0  0  0  0  0  0  0  0  0  0
   36.4480   26.5550   39.6300 O   0  0  0  0  0  0  0  0  0  0  0  0
   38.1630   25.2460   40.8410 H   0  0  0  0  0  0  0  0  0  0  0  0
   36.3700   30.0100   38.8040 C   0  0  0  0  0  0  0  0  0  0  0  0
   36.1330   30.0700   40.1870 C   0  0  0  0  0  0  0  0  0  0  0  0
   36.5440   31.2180   40.8500 C   0  0  0  0  0  0  0  0  0  0  0  0
   37.1370   32.1990   40.1440 N   0  0  0  0  0  0  0  0  0  0  0  0
   37.3480   32.1010   38.8050 C   0  0  0  0  0  0  0  0  0  0  0  0
   36.9710   31.0090   38.1050 N   0  0  0  0  0  0  0  0  0  0  0  0
   36.0910   29.1650   38.1970 H   0  0  0  0  0  0  0  0  0  0  0  0
   36.3460   31.2240   41.8950 H   0  0  0  0  0  0  0  0  0  0  0  0
   37.8310   32.9520   38.3610 H   0  0  0  0  0  0  0  0  0  0  0  0
  1  4  1  0  0  0  0
  1  2  1  0  0  0  0
  3  1  1  0  0  0  0
  4  5  1  0  0  0  0
  5  6  2  0  0  0  0
  6  7  1  0  0  0  0
  8  9  2  0  0  0  0
  8  6  1  0  0  0  0
 10  8  1  0  0  0  0
 11 10  1  0  0  0  0
 11  4  1  0  0  0  0
 12 11  2  0  0  0  0
 13 10  1  0  0  0  0
 14 15  1  0  0  0  0
 15  1  1  0  0  0  0
 15 16  2  0  0  0  0
 16 21  1  0  0  0  0
 17 16  1  0  0  0  0
 18 17  2  0  0  0  0
 19 14  2  0  0  0  0
 19 18  1  0  0  0  0
 20 14  1  0  0  0  0
 22 18  1  0  0  0  0
M  END
>  <minimizedAffinity>
-4.22694111

$$$$

 OpenBabel03252504253D

 22 23  0  0  0  0  0  0  0  0999 V2000
   36.8330   27.2300   42.9640 C   0  0  0  0  0  0  0  0  0  0  0  0
   35.8440   26.8670   43.2710 H   0  0  0  0  0  0  0  0  0  0  0  0
   37.3920   27.5440   43.8900 H   0  0  0  0  0  0  0  0  0  0  0  0
   36.7590   28.3970   42.0990 N   0  0  0  0  0  0  0  0  0  0  0  0
   35.8860   28.4100   41.0900 C   0  0  0  0  0  3  0  0  0  0  0  0
   35.8470   29.5460   40.2860 C   0  0  0  0  0  0  0  0  0  0  0  0
   35.1450   29.5990   39.4450 H   0  0  0  0  0  0  0  0  0  0  0  0
   36.6760   30.6150   40.5230 C   0  0  0  0  0  0  0  0  0  0  0  0
   36.6120   31.6250   39.7750 O   0  0  0  0  0  0  0  0  0  0  0  0
   37.5440   30.5580   41.5580 N   0  0  0  0  0  0  0  0  0  0  0  0
   37.5900   29.4510   42.3500 C   0  0  0  0  0  0  0  0  0  0  0  0
   38.4220   29.4680   43.2910 O   0  0  0  0  0  0  0  0  0  0  0  0
   38.1750   31.3760   41.7350 H   0  0  0  0  0  0  0  0  0  0  0  0
   36.9030   24.9570   42.1410 C   0  0  0  0  0  0  0  0  0  0  0  0
   37.5840   26.1800   42.2670 C   0  0  0  0  0  0  0  0  0  0  0  0
   38.8610   26.2510   41.7310 C   0  0  0  0  0  0  0  0  0  0  0  0
   39.3740   25.1640   41.1260 N   0  0  0  0  0  0  0  0  0  0  0  0
   38.6820   23.9990   41.0240 C   0  0  0  0  0  0  0  0  0  0  0  0
   37.4360   23.8670   41.5270 N   0  0  0  0  0  0  0  0  0  0  0  0
   35.9090   24.7960   42.5230 H   0  0  0  0  0  0  0  0  0  0  0  0
   39.3410   27.1930   41.8470 H   0  0  0  0  0  0  0  0  0  0  0  0
   39.2040   23.2070   40.5190 H   0  0  0  0  0  0  0  0  0  0  0  0
  1  2  1  0  0  0  0
  1  3  1  0  0  0  0
  4 11  1  0  0  0  0
  4  1  1  0  0  0  0
  5  4  1  0  0  0  0
  6  8  1  0  0  0  0
  6  5  2  0  0  0  0
  7  6  1  0  0  0  0
  8 10  1  0  0  0  0
  9  8  2  0  0  0  0
 10 13  1  0  0  0  0
 10 11  1  0  0  0  0
 11 12  2  0  0  0  0
 14 15  1  0  0  0  0
 14 20  1  0  0  0  0
 15  1  1  0  0  0  0
 16 21  1  0  0  0  0
 16 15  2  0  0  0  0
 17 16  1  0  0  0  0
 18 17  2  0  0  0  0
 18 19  1  0  0  0  0
 19 14  2  0  0  0  0
 22 18  1  0  0  0  0
M  END
>  <minimizedAffinity>
-4.21060705

$$$$

 OpenBabel03252504253D

 22 23  0  0  0  0  0  0  0  0999 V2000
   36.3830   30.7850   41.0260 C   0  0  0  0  0  0  0  0  0  0  0  0
   36.7120   31.7780   41.3570 H   0  0  0  0  0  0  0  0  0  0  0  0
   35.2850   30.6870   41.2540 H   0  0  0  0  0  0  0  0  0  0  0  0
   37.0590   29.7080   41.7340 N   0  0  0  0  0  0  0  0  0  0  0  0
   36.4210   28.5520   41.9310 C   0  0  0  0  0  3  0  0  0  0  0  0
   37.1020   27.5470   42.6130 C   0  0  0  0  0  0  0  0  0  0  0  0
   36.6160   26.5830   42.7960 H   0  0  0  0  0  0  0  0  0  0  0  0
   38.3840   27.7390   43.0670 C   0  0  0  0  0  0  0  0  0  0  0  0
   38.9680   26.8070   43.6800 O   0  0  0  0  0  0  0  0  0  0  0  0
   38.9910   28.9260   42.8440 N   0  0  0  0  0  0  0  0  0  0  0  0
   38.3330   29.9150   42.1780 C   0  0  0  0  0  0  0  0  0  0  0  0
   38.9590   30.9910   42.0090 O   0  0  0  0  0  0  0  0  0  0  0  0
   39.9700   29.0680   43.1930 H   0  0  0  0  0  0  0  0  0  0  0  0
   37.3820   31.6170   38.9880 C   0  0  0  0  0  0  0  0  0  0  0  0
   36.6070   30.6100   39.5870 C   0  0  0  0  0  0  0  0  0  0  0  0
   36.1520   29.5890   38.7660 C   0  0  0  0  0  0  0  0  0  0  0  0
   36.4710   29.6150   37.4590 N   0  0  0  0  0  0  0  0  0  0  0  0
   37.2240   30.6080   36.9180 C   0  0  0  0  0  0  0  0  0  0  0  0
   37.6960   31.6290   37.6650 N   0  0  0  0  0  0  0  0  0  0  0  0
   37.7840   32.4540   39.5350 H   0  0  0  0  0  0  0  0  0  0  0  0
   35.5690   28.8480   39.2590 H   0  0  0  0  0  0  0  0  0  0  0  0
   37.4080   30.5120   35.8630 H   0  0  0  0  0  0  0  0  0  0  0  0
  1  3  1  0  0  0  0
  1  2  1  0  0  0  0
  1  4  1  0  0  0  0
  4  5  1  0  0  0  0
  4 11  1  0  0  0  0
  5  6  2  0  0  0  0
  6  7  1  0  0  0  0
  6  8  1  0  0  0  0
  8  9  2  0  0  0  0
 10  8  1  0  0  0  0
 10 13  1  0  0  0  0
 11 10  1  0  0  0  0
 12 11  2  0  0  0  0
 14 20  1  0  0  0  0
 14 15  1  0  0  0  0
 15  1  1  0  0  0  0
 16 21  1  0  0  0  0
 16 15  2  0  0  0  0
 17 16  1  0  0  0  0
 18 17  2  0  0  0  0
 18 19  1  0  0  0  0
 19 14  2  0  0  0  0
 22 18  1  0  0  0  0
M  END
>  <minimizedAffinity>
-4.18842936

$$$$

 OpenBabel03252504253D

 22 23  0  0  0  0  0  0  0  0999 V2000
   37.4840   28.5190   43.6070 C   0  0  0  0  0  0  0  0  0  0  0  0
   36.3900   28.4430   43.5560 H   0  0  0  0  0  0  0  0  0  0  0  0
   37.7630   28.8410   44.6490 H   0  0  0  0  0  0  0  0  0  0  0  0
   38.0180   29.5220   42.6990 N   0  0  0  0  0  0  0  0  0  0  0  0
   39.2280   30.0350   42.9280 C   0  0  0  0  0  3  0  0  0  0  0  0
   39.7030   30.9920   42.0350 C   0  0  0  0  0  0  0  0  0  0  0  0
   40.6920   31.4410   42.1860 H   0  0  0  0  0  0  0  0  0  0  0  0
   38.9530   31.3940   40.9570 C   0  0  0  0  0  0  0  0  0  0  0  0
   39.4150   32.2620   40.1710 O   0  0  0  0  0  0  0  0  0  0  0  0
   37.7330   30.8460   40.7640 N   0  0  0  0  0  0  0  0  0  0  0  0
   37.2590   29.9090   41.6320 C   0  0  0  0  0  0  0  0  0  0  0  0
   36.1170   29.4450   41.3900 O   0  0  0  0  0  0  0  0  0  0  0  0
   37.1630   31.1560   39.9400 H   0  0  0  0  0  0  0  0  0  0  0  0
   37.3260   26.3590   42.5330 C   0  0  0  0  0  0  0  0  0  0  0  0
   38.1140   27.2300   43.3030 C   0  0  0  0  0  0  0  0  0  0  0  0
   39.3710   26.7800   43.6800 C   0  0  0  0  0  0  0  0  0  0  0  0
   39.7640   25.5520   43.2940 N   0  0  0  0  0  0  0  0  0  0  0  0
   38.9710   24.7390   42.5480 C   0  0  0  0  0  0  0  0  0  0  0  0
   37.7370   25.1200   42.1510 N   0  0  0  0  0  0  0  0  0  0  0  0
   36.3360   26.6100   42.1890 H   0  0  0  0  0  0  0  0  0  0  0  0
   39.9350   27.4700   44.2610 H   0  0  0  0  0  0  0  0  0  0  0  0
   39.4020   23.7850   42.3070 H   0  0  0  0  0  0  0  0  0  0  0  0
  1  3  1  0  0  0  0
  2  1  1  0  0  0  0
  4  5  1  0  0  0  0
  4  1  1  0  0  0  0
  6  7  1  0  0  0  0
  6  5  2  0  0  0  0
  8  6  1  0  0  0  0
  9  8  2  0  0  0  0
 10  8  1  0  0  0  0
 10 11  1  0  0  0  0
 11  4  1  0  0  0  0
 12 11  2  0  0  0  0
 13 10  1  0  0  0  0
 14 15  1  0  0  0  0
 15  1  1  0  0  0  0
 15 16  2  0  0  0  0
 16 21  1  0  0  0  0
 17 16  1  0  0  0  0
 18 17  2  0  0  0  0
 19 14  2  0  0  0  0
 19 18  1  0  0  0  0
 20 14  1  0  0  0  0
 22 18  1  0  0  0  0
M  END
>  <minimizedAffinity>
-4.18156242

$$$$

 OpenBabel03252504253D

 22 23  0  0  0  0  0  0  0  0999 V2000
   37.6310   28.7270   40.1030 C   0  0  0  0  0  0  0  0  0  0  0  0
   38.1700   28.2760   39.2600 H   0  0  0  0  0  0  0  0  0  0  0  0
   36.5340   28.5110   39.9700 H   0  0  0  0  0  0  0  0  0  0  0  0
   37.7740   30.1740   40.1490 N   0  0  0  0  0  0  0  0  0  0  0  0
   38.9700   30.7220   39.9260 C   0  0  0  0  0  3  0  0  0  0  0  0
   39.0640   32.1100   39.9790 C   0  0  0  0  0  0  0  0  0  0  0  0
   40.0270   32.6020   39.8030 H   0  0  0  0  0  0  0  0  0  0  0  0
   37.9650   32.8880   40.2520 C   0  0  0  0  0  0  0  0  0  0  0  0
   38.0890   34.1400   40.2920 O   0  0  0  0  0  0  0  0  0  0  0  0
   36.7730   32.2890   40.4710 N   0  0  0  0  0  0  0  0  0  0  0  0
   36.6710   30.9320   40.4200 C   0  0  0  0  0  0  0  0  0  0  0  0
   35.5320   30.4460   40.6350 O   0  0  0  0  0  0  0  0  0  0  0  0
   35.9370   32.8870   40.6790 H   0  0  0  0  0  0  0  0  0  0  0  0
   39.3040   27.4650   41.3080 C   0  0  0  0  0  0  0  0  0  0  0  0
   38.0920   28.1720   41.3790 C   0  0  0  0  0  0  0  0  0  0  0  0
   37.4830   28.2590   42.6230 C   0  0  0  0  0  0  0  0  0  0  0  0
   38.0760   27.6740   43.6800 N   0  0  0  0  0  0  0  0  0  0  0  0
   39.2500   26.9990   43.5680 C   0  0  0  0  0  0  0  0  0  0  0  0
   39.8900   26.8780   42.3860 N   0  0  0  0  0  0  0  0  0  0  0  0
   39.8570   27.3380   40.3920 H   0  0  0  0  0  0  0  0  0  0  0  0
   36.5680   28.8020   42.6330 H   0  0  0  0  0  0  0  0  0  0  0  0
   39.6170   26.5780   44.4860 H   0  0  0  0  0  0  0  0  0  0  0  0
  1  4  1  0  0  0  0
  1 15  1  0  0  0  0
  2  1  1  0  0  0  0
  3  1  1  0  0  0  0
  4 11  1  0  0  0  0
  5  6  2  0  0  0  0
  5  4  1  0  0  0  0
  6  8  1  0  0  0  0
  7  6  1  0  0  0  0
  8  9  2  0  0  0  0
  8 10  1  0  0  0  0
 10 13  1  0  0  0  0
 11 10  1  0  0  0  0
 11 12  2  0  0  0  0
 14 15  2  0  0  0  0
 14 19  1  0  0  0  0
 15 16  1  0  0  0  0
 16 21  1  0  0  0  0
 16 17  2  0  0  0  0
 18 17  1  0  0  0  0
 18 22  1  0  0  0  0
 19 18  2  0  0  0  0
 20 14  1  0  0  0  0
M  END
>  <minimizedAffinity>
-4.12331915

$$$$

 OpenBabel03252504253D

 22 23  0  0  0  0  0  0  0  0999 V2000
   36.3960   30.7060   41.0660 C   0  0  0  0  0  0  0  0  0  0  0  0
   36.2130   31.6660   41.5630 H   0  0  0  0  0  0  0  0  0  0  0  0
   35.4510   30.0960   41.1240 H   0  0  0  0  0  0  0  0  0  0  0  0
   37.4410   29.9290   41.7170 N   0  0  0  0  0  0  0  0  0  0  0  0
   38.6430   30.4760   41.9050 C   0  0  0  0  0  3  0  0  0  0  0  0
   39.6140   29.7000   42.5320 C   0  0  0  0  0  0  0  0  0  0  0  0
   40.6160   30.1090   42.7060 H   0  0  0  0  0  0  0  0  0  0  0  0
   39.3450   28.4160   42.9400 C   0  0  0  0  0  0  0  0  0  0  0  0
   40.2480   27.7440   43.5030 O   0  0  0  0  0  0  0  0  0  0  0  0
   38.1120   27.9040   42.7290 N   0  0  0  0  0  0  0  0  0  0  0  0
   37.1550   28.6550   42.1170 C   0  0  0  0  0  0  0  0  0  0  0  0
   36.0340   28.1130   41.9530 O   0  0  0  0  0  0  0  0  0  0  0  0
   37.9110   26.9230   43.0420 H   0  0  0  0  0  0  0  0  0  0  0  0
   36.5860   29.7790   38.8410 C   0  0  0  0  0  0  0  0  0  0  0  0
   36.7690   30.9040   39.6620 C   0  0  0  0  0  0  0  0  0  0  0  0
   37.2720   32.0490   39.0610 C   0  0  0  0  0  0  0  0  0  0  0  0
   37.5530   32.0240   37.7450 N   0  0  0  0  0  0  0  0  0  0  0  0
   37.3610   30.9130   36.9860 C   0  0  0  0  0  0  0  0  0  0  0  0
   36.8750   29.7680   37.5120 N   0  0  0  0  0  0  0  0  0  0  0  0
   36.2020   28.8410   39.2070 H   0  0  0  0  0  0  0  0  0  0  0  0
   37.3950   32.8780   39.7170 H   0  0  0  0  0  0  0  0  0  0  0  0
   37.6250   31.0240   35.9500 H   0  0  0  0  0  0  0  0  0  0  0  0
  1  3  1  0  0  0  0
  1  2  1  0  0  0  0
  1  4  1  0  0  0  0
  4  5  1  0  0  0  0
  4 11  1  0  0  0  0
  5  6  2  0  0  0  0
  6  7  1  0  0  0  0
  6  8  1  0  0  0  0
  8  9  2  0  0  0  0
 10  8  1  0  0  0  0
 10 13  1  0  0  0  0
 11 10  1  0  0  0  0
 12 11  2  0  0  0  0
 14 20  1  0  0  0  0
 14 15  1  0  0  0  0
 15  1  1  0  0  0  0
 16 15  2  0  0  0  0
 16 21  1  0  0  0  0
 17 16  1  0  0  0  0
 18 19  1  0  0  0  0
 18 17  2  0  0  0  0
 19 14  2  0  0  0  0
 22 18  1  0  0  0  0
M  END
>  <minimizedAffinity>
-4.08333254

$$$$

 OpenBabel03252504253D

 22 23  0  0  0  0  0  0  0  0999 V2000
   36.7650   31.1720   40.5690 C   0  0  0  0  0  0  0  0  0  0  0  0
   35.8170   30.9320   40.0730 H   0  0  0  0  0  0  0  0  0  0  0  0
   36.6190   32.1170   41.1630 H   0  0  0  0  0  0  0  0  0  0  0  0
   37.8410   31.4310   39.6240 N   0  0  0  0  0  0  0  0  0  0  0  0
   38.1500   30.5060   38.7130 C   0  0  0  0  0  3  0  0  0  0  0  0
   39.1850   30.7920   37.8270 C   0  0  0  0  0  0  0  0  0  0  0  0
   39.4720   30.0600   37.0640 H   0  0  0  0  0  0  0  0  0  0  0  0
   39.8650   31.9840   37.8890 C   0  0  0  0  0  0  0  0  0  0  0  0
   40.7960   32.2080   37.0720 O   0  0  0  0  0  0  0  0  0  0  0  0
   39.5170   32.8920   38.8280 N   0  0  0  0  0  0  0  0  0  0  0  0
   38.5060   32.6210   39.6990 C   0  0  0  0  0  0  0  0  0  0  0  0
   38.2390   33.5110   40.5440 O   0  0  0  0  0  0  0  0  0  0  0  0
   40.0390   33.8010   38.8720 H   0  0  0  0  0  0  0  0  0  0  0  0
   36.3430   28.9590   41.4450 C   0  0  0  0  0  0  0  0  0  0  0  0
   37.1810   30.0860   41.4630 C   0  0  0  0  0  0  0  0  0  0  0  0
   38.2810   30.0430   42.3070 C   0  0  0  0  0  0  0  0  0  0  0  0
   38.4860   28.9410   43.0520 N   0  0  0  0  0  0  0  0  0  0  0  0
   37.6500   27.8710   43.0060 C   0  0  0  0  0  0  0  0  0  0  0  0
   36.5630   27.8530   42.2050 N   0  0  0  0  0  0  0  0  0  0  0  0
   35.4630   28.8900   40.8260 H   0  0  0  0  0  0  0  0  0  0  0  0
   38.8890   30.9160   42.2900 H   0  0  0  0  0  0  0  0  0  0  0  0
   37.9250   27.0560   43.6500 H   0  0  0  0  0  0  0  0  0  0  0  0
  1  3  1  0  0  0  0
  1 15  1  0  0  0  0
  2  1  1  0  0  0  0
  4 11  1  0  0  0  0
  4  1  1  0  0  0  0
  5  4  1  0  0  0  0
  6  8  1  0  0  0  0
  6  5  2  0  0  0  0
  7  6  1  0  0  0  0
  8 10  1  0  0  0  0
  9  8  2  0  0  0  0
 10 13  1  0  0  0  0
 10 11  1  0  0  0  0
 11 12  2  0  0  0  0
 14 15  2  0  0  0  0
 14 19  1  0  0  0  0
 15 16  1  0  0  0  0
 16 17  2  0  0  0  0
 18 17  1  0  0  0  0
 18 22  1  0  0  0  0
 19 18  2  0  0  0  0
 20 14  1  0  0  0  0
 21 16  1  0  0  0  0
M  END
>  <minimizedAffinity>
-4.07691288

$$$$

 OpenBabel03252504253D

 22 23  0  0  0  0  0  0  0  0999 V2000
   37.1060   31.6520   39.3850 C   0  0  0  0  0  0  0  0  0  0  0  0
   36.2830   31.7050   38.6620 H   0  0  0  0  0  0  0  0  0  0  0  0
   36.9240   32.4300   40.1780 H   0  0  0  0  0  0  0  0  0  0  0  0
   38.3970   31.9540   38.7850 N   0  0  0  0  0  0  0  0  0  0  0  0
   39.4230   32.2860   39.5710 C   0  0  0  0  0  3  0  0  0  0  0  0
   40.6410   32.5680   38.9580 C   0  0  0  0  0  0  0  0  0  0  0  0
   41.5100   32.8440   39.5660 H   0  0  0  0  0  0  0  0  0  0  0  0
   40.7810   32.5080   37.5930 C   0  0  0  0  0  0  0  0  0  0  0  0
   41.8980   32.7700   37.0740 O   0  0  0  0  0  0  0  0  0  0  0  0
   39.7150   32.1670   36.8370 N   0  0  0  0  0  0  0  0  0  0  0  0
   38.5190   31.8890   37.4270 C   0  0  0  0  0  0  0  0  0  0  0  0
   37.5720   31.5810   36.6610 O   0  0  0  0  0  0  0  0  0  0  0  0
   39.8260   32.1220   35.7950 H   0  0  0  0  0  0  0  0  0  0  0  0
   36.9580   30.3110   41.3910 C   0  0  0  0  0  0  0  0  0  0  0  0
   37.1780   30.3240   40.0030 C   0  0  0  0  0  0  0  0  0  0  0  0
   37.4340   29.1060   39.3920 C   0  0  0  0  0  0  0  0  0  0  0  0
   37.4570   27.9920   40.1460 N   0  0  0  0  0  0  0  0  0  0  0  0
   37.2380   28.0210   41.4870 C   0  0  0  0  0  0  0  0  0  0  0  0
   36.9850   29.1760   42.1400 N   0  0  0  0  0  0  0  0  0  0  0  0
   36.7510   31.2010   41.9620 H   0  0  0  0  0  0  0  0  0  0  0  0
   37.5950   29.1600   38.3420 H   0  0  0  0  0  0  0  0  0  0  0  0
   37.2840   27.0640   41.9730 H   0  0  0  0  0  0  0  0  0  0  0  0
  1 15  1  0  0  0  0
  1  3  1  0  0  0  0
  2  1  1  0  0  0  0
  4  1  1  0  0  0  0
  4  5  1  0  0  0  0
  6  7  1  0  0  0  0
  6  5  2  0  0  0  0
  8  6  1  0  0  0  0
  9  8  2  0  0  0  0
 10 11  1  0  0  0  0
 10  8  1  0  0  0  0
 11  4  1  0  0  0  0
 12 11  2  0  0  0  0
 13 10  1  0  0  0  0
 14 20  1  0  0  0  0
 14 19  1  0  0  0  0
 15 14  2  0  0  0  0
 16 15  1  0  0  0  0
 16 17  2  0  0  0  0
 17 18  1  0  0  0  0
 18 22  1  0  0  0  0
 18 19  2  0  0  0  0
 21 16  1  0  0  0  0
M  END
>  <minimizedAffinity>
-4.074646

$$$$

 OpenBabel03252504253D

 22 23  0  0  0  0  0  0  0  0999 V2000
   38.0970   32.3480   40.5440 C   0  0  0  0  0  0  0  0  0  0  0  0
   38.3880   33.2450   41.1050 H   0  0  0  0  0  0  0  0  0  0  0  0
   37.0550   32.5060   40.1490 H   0  0  0  0  0  0  0  0  0  0  0  0
   38.0570   31.1550   41.3770 N   0  0  0  0  0  0  0  0  0  0  0  0
   39.1450   30.7960   42.0600 C   0  0  0  0  0  3  0  0  0  0  0  0
   39.0650   29.6490   42.8450 C   0  0  0  0  0  0  0  0  0  0  0  0
   39.9360   29.3170   43.4220 H   0  0  0  0  0  0  0  0  0  0  0  0
   37.9080   28.9130   42.9130 C   0  0  0  0  0  0  0  0  0  0  0  0
   37.8730   27.8810   43.6330 O   0  0  0  0  0  0  0  0  0  0  0  0
   36.8290   29.3150   42.2050 N   0  0  0  0  0  0  0  0  0  0  0  0
   36.8980   30.4360   41.4340 C   0  0  0  0  0  0  0  0  0  0  0  0
   35.8570   30.7480   40.8030 O   0  0  0  0  0  0  0  0  0  0  0  0
   35.9470   28.7500   42.2600 H   0  0  0  0  0  0  0  0  0  0  0  0
   40.0210   33.0760   39.2740 C   0  0  0  0  0  0  0  0  0  0  0  0
   39.0160   32.1060   39.4270 C   0  0  0  0  0  0  0  0  0  0  0  0
   39.0100   31.0540   38.5230 C   0  0  0  0  0  0  0  0  0  0  0  0
   39.9510   31.0170   37.5620 N   0  0  0  0  0  0  0  0  0  0  0  0
   40.9060   31.9760   37.4470 C   0  0  0  0  0  0  0  0  0  0  0  0
   40.9650   33.0250   38.2960 N   0  0  0  0  0  0  0  0  0  0  0  0
   40.1150   33.9320   39.9210 H   0  0  0  0  0  0  0  0  0  0  0  0
   38.2340   30.3420   38.6740 H   0  0  0  0  0  0  0  0  0  0  0  0
   41.5980   31.8310   36.6380 H   0  0  0  0  0  0  0  0  0  0  0  0
  1  2  1  0  0  0  0
  1  4  1  0  0  0  0
  3  1  1  0  0  0  0
  4 11  1  0  0  0  0
  4  5  1  0  0  0  0
  5  6  2  0  0  0  0
  6  8  1  0  0  0  0
  6  7  1  0  0  0  0
  8  9  2  0  0  0  0
 10 13  1  0  0  0  0
 10  8  1  0  0  0  0
 11 10  1  0  0  0  0
 12 11  2  0  0  0  0
 14 15  1  0  0  0  0
 14 20  1  0  0  0  0
 15  1  1  0  0  0  0
 16 21  1  0  0  0  0
 16 15  2  0  0  0  0
 17 16  1  0  0  0  0
 18 17  2  0  0  0  0
 18 19  1  0  0  0  0
 19 14  2  0  0  0  0
 22 18  1  0  0  0  0
M  END
>  <minimizedAffinity>
-4.06328249

$$$$
