
 OpenBabel03252504243D

 22 23  0  0  0  0  0  0  0  0999 V2000
   43.5720   34.7900   41.3420 C   0  0  0  0  0  0  0  0  0  0  0  0
   43.4920   35.8570   41.1040 H   0  0  0  0  0  0  0  0  0  0  0  0
   44.2000   34.3000   40.5460 H   0  0  0  0  0  0  0  0  0  0  0  0
   42.2820   34.1160   41.3360 N   0  0  0  0  0  0  0  0  0  0  0  0
   42.2400   32.7830   41.2840 C   0  0  0  0  0  3  0  0  0  0  0  0
   40.9850   32.1780   41.2790 C   0  0  0  0  0  0  0  0  0  0  0  0
   40.9040   31.0860   41.2360 H   0  0  0  0  0  0  0  0  0  0  0  0
   39.8340   32.9250   41.3280 C   0  0  0  0  0  0  0  0  0  0  0  0
   38.7180   32.3430   41.3220 O   0  0  0  0  0  0  0  0  0  0  0  0
   39.9260   34.2720   41.3810 N   0  0  0  0  0  0  0  0  0  0  0  0
   41.1480   34.8750   41.3850 C   0  0  0  0  0  0  0  0  0  0  0  0
   41.1560   36.1290   41.4350 O   0  0  0  0  0  0  0  0  0  0  0  0
   39.0440   34.8400   41.4180 H   0  0  0  0  0  0  0  0  0  0  0  0
   44.0570   35.6720   43.5400 C   0  0  0  0  0  0  0  0  0  0  0  0
   44.1960   34.5910   42.6550 C   0  0  0  0  0  0  0  0  0  0  0  0
   44.8940   33.4830   43.1130 C   0  0  0  0  0  0  0  0  0  0  0  0
   45.3930   33.5010   44.3630 N   0  0  0  0  0  0  0  0  0  0  0  0
   45.2370   34.5680   45.1890 C   0  0  0  0  0  0  0  0  0  0  0  0
   44.5680   35.6750   44.8000 N   0  0  0  0  0  0  0  0  0  0  0  0
   43.5350   36.5790   43.2830 H   0  0  0  0  0  0  0  0  0  0  0  0
   44.9760   32.6870   42.4130 H   0  0  0  0  0  0  0  0  0  0  0  0
   45.6830   34.4560   46.1600 H   0  0  0  0  0  0  0  0  0  0  0  0
  1 15  1  0  0  0  0
  2  1  1  0  0  0  0
  3  1  1  0  0  0  0
  4  1  1  0  0  0  0
  4 11  1  0  0  0  0
  5  4  1  0  0  0  0
  6  5  2  0  0  0  0
  6  8  1  0  0  0  0
  7  6  1  0  0  0  0
  8 10  1  0  0  0  0
  9  8  2  0  0  0  0
 10 11  1  0  0  0  0
 10 13  1  0  0  0  0
 11 12  2  0  0  0  0
 14 19  1  0  0  0  0
 15 16  1  0  0  0  0
 15 14  2  0  0  0  0
 16 17  2  0  0  0  0
 17 18  1  0  0  0  0
 18 22  1  0  0  0  0
 19 18  2  0  0  0  0
 20 14  1  0  0  0  0
 21 16  1  0  0  0  0
M  END
>  <minimizedAffinity>
-4.19568777

>  <minimizedRMSD>
1.42421126

$$$$
