
 OpenBabel03252507413D

 26 27  0  0  0  0  0  0  0  0999 V2000
   47.4910   34.8390   41.4510 C   0  0  0  0  0  0  0  0  0  0  0  0
   46.9080   34.5510   40.5630 H   0  0  0  0  0  0  0  0  0  0  0  0
   47.8010   35.9120   41.2860 H   0  0  0  0  0  0  0  0  0  0  0  0
   48.7400   34.0700   41.5830 C   0  0  0  0  0  0  0  0  0  0  0  0
   48.8410   32.9340   40.7650 C   0  0  0  0  0  0  0  0  0  0  0  0
   50.0000   32.1620   40.8420 C   0  0  0  0  0  0  0  0  0  0  0  0
   50.9880   32.5460   41.7120 N   0  0  0  0  0  0  0  0  0  0  0  0
   50.8540   33.6370   42.4770 C   0  0  0  0  0  0  0  0  0  0  0  0
   49.7530   34.3970   42.4240 N   0  0  0  0  0  0  0  0  0  0  0  0
   50.1130   31.2820   40.2270 H   0  0  0  0  0  0  0  0  0  0  0  0
   51.6790   33.8620   43.1290 H   0  0  0  0  0  0  0  0  0  0  0  0
   47.5180   32.4860   39.6510 S   0  0  0  0  0  0  0  0  0  0  0  0
   48.1160   32.0110   38.4610 H   0  0  0  0  0  0  0  0  0  0  0  0
   46.6800   34.8430   42.7190 C   0  0  0  0  0  0  0  0  0  0  0  0
   46.8800   33.8900   43.2490 H   0  0  0  0  0  0  0  0  0  0  0  0
   47.0450   35.6660   43.3570 H   0  0  0  0  0  0  0  0  0  0  0  0
   45.2750   35.0320   42.4500 N   0  0  0  0  0  0  0  0  0  0  0  0
   44.8860   34.6780   41.2040 C   0  0  0  0  0  0  0  0  0  0  0  0
   43.5590   34.8240   40.8550 C   0  0  0  0  0  0  0  0  0  0  0  0
   43.2150   34.5440   39.8480 H   0  0  0  0  0  0  0  0  0  0  0  0
   42.6690   35.3270   41.7880 C   0  0  0  0  0  0  0  0  0  0  0  0
   41.4450   35.4790   41.5160 O   0  0  0  0  0  0  0  0  0  0  0  0
   43.1110   35.6650   43.0170 N   0  0  0  0  0  0  0  0  0  0  0  0
   44.3910   35.5190   43.3400 C   0  0  0  0  0  0  0  0  0  0  0  0
   44.8910   35.8070   44.4590 O   0  0  0  0  0  0  0  0  0  0  0  0
   42.4410   36.0520   43.7450 H   0  0  0  0  0  0  0  0  0  0  0  0
  1  4  1  0  0  0  0
  1 14  1  0  0  0  0
  2  1  1  0  0  0  0
  3  1  1  0  0  0  0
  4  9  1  0  0  0  0
  5  6  1  0  0  0  0
  5  4  2  0  0  0  0
  6  7  2  0  0  0  0
  7  8  1  0  0  0  0
  8 11  1  0  0  0  0
  9  8  2  0  0  0  0
 10  6  1  0  0  0  0
 12  5  1  0  0  0  0
 13 12  1  0  0  0  0
 14 15  1  0  0  0  0
 14 16  1  0  0  0  0
 17 14  1  0  0  0  0
 17 24  1  0  0  0  0
 18 17  1  0  0  0  0
 19 18  2  0  0  0  0
 19 21  1  0  0  0  0
 20 19  1  0  0  0  0
 21 23  1  0  0  0  0
 22 21  2  0  0  0  0
 23 24  1  0  0  0  0
 23 26  1  0  0  0  0
 24 25  2  0  0  0  0
M  END
>  <minimizedAffinity>
-4.95706415

>  <minimizedRMSD>
6.1378603

$$$$
