
 OpenBabel03252500393D

 22 23  0  0  0  0  0  0  0  0999 V2000
   45.7080   35.5210   42.9280 C   0  0  0  0  0  0  0  0  0  0  0  0
   46.6850   35.6330   42.4170 H   0  0  0  0  0  0  0  0  0  0  0  0
   45.4080   36.5420   43.2380 H   0  0  0  0  0  0  0  0  0  0  0  0
   45.8020   34.6560   44.0910 N   0  0  0  0  0  0  0  0  0  0  0  0
   46.6730   33.6090   43.9910 C   0  0  0  0  0  0  0  0  0  0  0  0
   46.8750   32.6950   45.0150 C   0  0  0  0  0  0  0  0  0  0  0  0
   47.5730   31.8790   44.8980 H   0  0  0  0  0  0  0  0  0  0  0  0
   46.1410   32.8840   46.1810 C   0  0  0  0  0  0  0  0  0  0  0  0
   46.2930   32.0790   47.1340 O   0  0  0  0  0  0  0  0  0  0  0  0
   45.2920   33.9350   46.2280 N   0  0  0  0  0  0  0  0  0  0  0  0
   45.1090   34.8080   45.2310 C   0  0  0  0  0  0  0  0  0  0  0  0
   44.3230   35.7670   45.3020 O   0  0  0  0  0  0  0  0  0  0  0  0
   44.7380   34.0790   47.1070 H   0  0  0  0  0  0  0  0  0  0  0  0
   44.6730   35.0450   41.9630 C   0  0  0  0  0  0  0  0  0  0  0  0
   45.1070   34.2400   40.9020 C   0  0  0  0  0  0  0  0  0  0  0  0
   44.1370   33.7890   39.9910 C   0  0  0  0  0  0  0  0  0  0  0  0
   42.8460   34.1620   40.1980 N   0  0  0  0  0  0  0  0  0  0  0  0
   42.4720   34.9450   41.2440 C   0  0  0  0  0  0  0  0  0  0  0  0
   43.3970   35.3820   42.1230 N   0  0  0  0  0  0  0  0  0  0  0  0
   46.1090   33.9390   40.7210 H   0  0  0  0  0  0  0  0  0  0  0  0
   44.4260   33.1680   39.1580 H   0  0  0  0  0  0  0  0  0  0  0  0
   41.4260   35.2070   41.3550 H   0  0  0  0  0  0  0  0  0  0  0  0
  1  3  1  0  0  0  0
  1  4  1  0  0  0  0
  2  1  1  0  0  0  0
  4 11  1  0  0  0  0
  5  4  1  0  0  0  0
  5  6  2  0  0  0  0
  6  8  1  0  0  0  0
  7  6  1  0  0  0  0
  8 10  1  0  0  0  0
  8  9  2  0  0  0  0
 10 13  1  0  0  0  0
 11 12  2  0  0  0  0
 11 10  1  0  0  0  0
 14 19  1  0  0  0  0
 14  1  1  0  0  0  0
 15 14  2  0  0  0  0
 16 17  2  0  0  0  0
 16 15  1  0  0  0  0
 17 18  1  0  0  0  0
 18 22  1  0  0  0  0
 18 19  2  0  0  0  0
 20 15  1  0  0  0  0
 21 16  1  0  0  0  0
M  END
>  <minimizedAffinity>
-4.60720301

>  <minimizedRMSD>
5.14984417

$$$$
