
 OpenBabel03252504243D

 22 23  0  0  0  0  0  0  0  0999 V2000
   43.7970   35.6920   41.4140 C   0  0  0  0  0  0  0  0  0  0  0  0
   43.7040   36.7770   41.5500 H   0  0  0  0  0  0  0  0  0  0  0  0
   44.5000   35.5070   40.5560 H   0  0  0  0  0  0  0  0  0  0  0  0
   42.5320   35.0610   41.0680 N   0  0  0  0  0  0  0  0  0  0  0  0
   41.4370   35.3620   41.7680 C   0  0  0  0  0  3  0  0  0  0  0  0
   40.2460   34.7350   41.4040 C   0  0  0  0  0  0  0  0  0  0  0  0
   39.3230   34.9530   41.9530 H   0  0  0  0  0  0  0  0  0  0  0  0
   40.2020   33.8410   40.3620 C   0  0  0  0  0  0  0  0  0  0  0  0
   39.1080   33.2960   40.0630 O   0  0  0  0  0  0  0  0  0  0  0  0
   41.3370   33.5690   39.6810 N   0  0  0  0  0  0  0  0  0  0  0  0
   42.5060   34.1760   40.0290 C   0  0  0  0  0  0  0  0  0  0  0  0
   43.5190   33.8730   39.3510 O   0  0  0  0  0  0  0  0  0  0  0  0
   41.2990   32.8860   38.8860 H   0  0  0  0  0  0  0  0  0  0  0  0
   44.3930   35.8980   43.7480 C   0  0  0  0  0  0  0  0  0  0  0  0
   44.3190   35.0540   42.6270 C   0  0  0  0  0  0  0  0  0  0  0  0
   44.7410   33.7430   42.7930 C   0  0  0  0  0  0  0  0  0  0  0  0
   45.1910   33.3530   44.0000 N   0  0  0  0  0  0  0  0  0  0  0  0
   45.2470   34.2010   45.0600 C   0  0  0  0  0  0  0  0  0  0  0  0
   44.8520   35.4880   44.9610 N   0  0  0  0  0  0  0  0  0  0  0  0
   44.0920   36.9320   43.7270 H   0  0  0  0  0  0  0  0  0  0  0  0
   44.6680   33.1380   41.9210 H   0  0  0  0  0  0  0  0  0  0  0  0
   45.6260   33.7660   45.9670 H   0  0  0  0  0  0  0  0  0  0  0  0
  1  2  1  0  0  0  0
  1 15  1  0  0  0  0
  3  1  1  0  0  0  0
  4  1  1  0  0  0  0
  4  5  1  0  0  0  0
  6  5  2  0  0  0  0
  6  7  1  0  0  0  0
  8  6  1  0  0  0  0
  9  8  2  0  0  0  0
 10 11  1  0  0  0  0
 10  8  1  0  0  0  0
 11  4  1  0  0  0  0
 12 11  2  0  0  0  0
 13 10  1  0  0  0  0
 14 19  1  0  0  0  0
 15 16  1  0  0  0  0
 15 14  2  0  0  0  0
 16 17  2  0  0  0  0
 17 18  1  0  0  0  0
 18 22  1  0  0  0  0
 19 18  2  0  0  0  0
 20 14  1  0  0  0  0
 21 16  1  0  0  0  0
M  END
>  <minimizedAffinity>
-4.18578577

>  <minimizedRMSD>
1.02359653

$$$$
