
 OpenBabel03252504243D

 22 23  0  0  0  0  0  0  0  0999 V2000
   43.5780   35.7720   41.4320 C   0  0  0  0  0  0  0  0  0  0  0  0
   43.8420   36.5750   40.7330 H   0  0  0  0  0  0  0  0  0  0  0  0
   43.0160   36.2300   42.2930 H   0  0  0  0  0  0  0  0  0  0  0  0
   44.7470   35.1130   41.9950 N   0  0  0  0  0  0  0  0  0  0  0  0
   45.5960   34.4800   41.1830 C   0  0  0  0  0  3  0  0  0  0  0  0
   46.7020   33.8620   41.7610 C   0  0  0  0  0  0  0  0  0  0  0  0
   47.4260   33.3310   41.1320 H   0  0  0  0  0  0  0  0  0  0  0  0
   46.9110   33.9020   43.1190 C   0  0  0  0  0  0  0  0  0  0  0  0
   47.9220   33.3320   43.6050 O   0  0  0  0  0  0  0  0  0  0  0  0
   46.0240   34.5560   43.9020 N   0  0  0  0  0  0  0  0  0  0  0  0
   44.9390   35.1630   43.3460 C   0  0  0  0  0  0  0  0  0  0  0  0
   44.1590   35.7510   44.1350 O   0  0  0  0  0  0  0  0  0  0  0  0
   46.1880   34.5840   44.9380 H   0  0  0  0  0  0  0  0  0  0  0  0
   42.4310   35.0350   39.4350 C   0  0  0  0  0  0  0  0  0  0  0  0
   42.7420   34.7600   40.7780 C   0  0  0  0  0  0  0  0  0  0  0  0
   42.2310   33.5900   41.3190 C   0  0  0  0  0  0  0  0  0  0  0  0
   41.4770   32.7890   40.5420 N   0  0  0  0  0  0  0  0  0  0  0  0
   41.2000   33.0910   39.2470 C   0  0  0  0  0  0  0  0  0  0  0  0
   41.6680   34.2160   38.6640 N   0  0  0  0  0  0  0  0  0  0  0  0
   42.7770   35.9160   38.9210 H   0  0  0  0  0  0  0  0  0  0  0  0
   42.4900   33.4200   42.3370 H   0  0  0  0  0  0  0  0  0  0  0  0
   40.5880   32.3700   38.7370 H   0  0  0  0  0  0  0  0  0  0  0  0
  1  4  1  0  0  0  0
  1  3  1  0  0  0  0
  2  1  1  0  0  0  0
  4 11  1  0  0  0  0
  5  6  2  0  0  0  0
  5  4  1  0  0  0  0
  6  8  1  0  0  0  0
  7  6  1  0  0  0  0
  8  9  2  0  0  0  0
  8 10  1  0  0  0  0
 10 13  1  0  0  0  0
 11 10  1  0  0  0  0
 11 12  2  0  0  0  0
 14 15  1  0  0  0  0
 15 16  2  0  0  0  0
 15  1  1  0  0  0  0
 16 21  1  0  0  0  0
 17 16  1  0  0  0  0
 18 17  2  0  0  0  0
 19 18  1  0  0  0  0
 19 14  2  0  0  0  0
 20 14  1  0  0  0  0
 22 18  1  0  0  0  0
M  END
>  <minimizedAffinity>
-3.87497091

>  <minimizedRMSD>
5.57134962

$$$$
