
 OpenBabel03252509283D

 22 23  0  0  0  0  0  0  0  0999 V2000
   46.9550   34.1860   43.5990 C   0  0  0  0  0  0  0  0  0  0  0  0
   47.7860   33.7680   42.9870 H   0  0  0  0  0  0  0  0  0  0  0  0
   47.2710   35.1310   44.0660 H   0  0  0  0  0  0  0  0  0  0  0  0
   45.8240   34.5160   42.7300 N   0  0  0  0  0  0  0  0  0  0  0  0
   44.6700   35.0900   43.1810 C   0  0  0  0  0  3  0  0  0  0  0  0
   43.6950   35.3430   42.2520 C   0  0  0  0  0  0  0  0  0  0  0  0
   42.7710   35.8030   42.6110 H   0  0  0  0  0  0  0  0  0  0  0  0
   43.8430   35.0420   40.9050 C   0  0  0  0  0  0  0  0  0  0  0  0
   42.9290   35.2920   40.1060 O   0  0  0  0  0  0  0  0  0  0  0  0
   44.9790   34.4780   40.4650 N   0  0  0  0  0  0  0  0  0  0  0  0
   45.9160   34.2410   41.4010 C   0  0  0  0  0  0  0  0  0  0  0  0
   47.0020   33.7060   41.0000 O   0  0  0  0  0  0  0  0  0  0  0  0
   45.1650   34.2220   39.4740 H   0  0  0  0  0  0  0  0  0  0  0  0
   46.2230   30.9500   45.2880 C   0  0  0  0  0  0  0  0  0  0  0  0
   46.5750   31.8760   44.2900 C   0  0  0  0  0  0  0  0  0  0  0  0
   46.5870   33.2330   44.6500 C   0  0  0  0  0  0  0  0  0  0  0  0
   46.2600   33.5830   45.9370 N   0  0  0  0  0  0  0  0  0  0  0  0
   45.9290   32.6500   46.8570 C   0  0  0  0  0  0  0  0  0  0  0  0
   45.9110   31.3380   46.5330 N   0  0  0  0  0  0  0  0  0  0  0  0
   46.2220   29.9140   44.9830 H   0  0  0  0  0  0  0  0  0  0  0  0
   46.8210   31.5260   43.2920 H   0  0  0  0  0  0  0  0  0  0  0  0
   45.7100   33.1070   47.7910 H   0  0  0  0  0  0  0  0  0  0  0  0
  1  3  1  0  0  0  0
  1 16  1  0  0  0  0
  2  1  1  0  0  0  0
  4  5  1  0  0  0  0
  4  1  1  0  0  0  0
  6  7  1  0  0  0  0
  6  5  2  0  0  0  0
  8  6  1  0  0  0  0
  9  8  2  0  0  0  0
 10  8  1  0  0  0  0
 10 11  1  0  0  0  0
 11  4  1  0  0  0  0
 12 11  2  0  0  0  0
 13 10  1  0  0  0  0
 14 19  1  0  0  0  0
 15 16  1  0  0  0  0
 15 14  2  0  0  0  0
 16 17  2  0  0  0  0
 17 18  1  0  0  0  0
 18 22  1  0  0  0  0
 19 18  2  0  0  0  0
 20 14  1  0  0  0  0
 21 15  1  0  0  0  0
M  END
>  <minimizedAffinity>
-4.05661678

>  <minimizedRMSD>
4.77781343

$$$$
