
 OpenBabel03252504243D

 22 23  0  0  0  0  0  0  0  0999 V2000
   43.1430   35.0940   40.1990 C   0  0  0  0  0  0  0  0  0  0  0  0
   43.3330   34.7110   39.1890 H   0  0  0  0  0  0  0  0  0  0  0  0
   42.9570   36.2020   40.1230 H   0  0  0  0  0  0  0  0  0  0  0  0
   44.2800   34.9170   41.0890 N   0  0  0  0  0  0  0  0  0  0  0  0
   44.3010   35.5560   42.2600 C   0  0  0  0  0  3  0  0  0  0  0  0
   45.4090   35.3600   43.0830 C   0  0  0  0  0  0  0  0  0  0  0  0
   45.4670   35.8660   44.0530 H   0  0  0  0  0  0  0  0  0  0  0  0
   46.4410   34.5370   42.7010 C   0  0  0  0  0  0  0  0  0  0  0  0
   47.4250   34.3840   43.4720 O   0  0  0  0  0  0  0  0  0  0  0  0
   46.3750   33.9110   41.5060 N   0  0  0  0  0  0  0  0  0  0  0  0
   45.2970   34.0960   40.6940 C   0  0  0  0  0  0  0  0  0  0  0  0
   45.3070   33.4810   39.5990 O   0  0  0  0  0  0  0  0  0  0  0  0
   47.1660   33.2840   41.2200 H   0  0  0  0  0  0  0  0  0  0  0  0
   41.9790   33.0360   40.7050 C   0  0  0  0  0  0  0  0  0  0  0  0
   41.9750   34.4380   40.7980 C   0  0  0  0  0  0  0  0  0  0  0  0
   40.8910   35.0270   41.4300 C   0  0  0  0  0  0  0  0  0  0  0  0
   39.9130   34.2390   41.9160 N   0  0  0  0  0  0  0  0  0  0  0  0
   39.9550   32.8850   41.8050 C   0  0  0  0  0  0  0  0  0  0  0  0
   40.9830   32.2530   41.2000 N   0  0  0  0  0  0  0  0  0  0  0  0
   42.7720   32.4800   40.2340 H   0  0  0  0  0  0  0  0  0  0  0  0
   40.9270   36.0890   41.4800 H   0  0  0  0  0  0  0  0  0  0  0  0
   39.1130   32.3720   42.2330 H   0  0  0  0  0  0  0  0  0  0  0  0
  1 15  1  0  0  0  0
  1  4  1  0  0  0  0
  2  1  1  0  0  0  0
  3  1  1  0  0  0  0
  4  5  1  0  0  0  0
  5  6  2  0  0  0  0
  6  7  1  0  0  0  0
  8  6  1  0  0  0  0
  8  9  2  0  0  0  0
 10  8  1  0  0  0  0
 11  4  1  0  0  0  0
 11 10  1  0  0  0  0
 12 11  2  0  0  0  0
 13 10  1  0  0  0  0
 14 15  2  0  0  0  0
 14 19  1  0  0  0  0
 15 16  1  0  0  0  0
 16 21  1  0  0  0  0
 16 17  2  0  0  0  0
 18 17  1  0  0  0  0
 18 22  1  0  0  0  0
 19 18  2  0  0  0  0
 20 14  1  0  0  0  0
M  END
>  <minimizedAffinity>
-4.02414227

>  <minimizedRMSD>
5.32931471

$$$$
