
 OpenBabel03252509283D

 22 23  0  0  0  0  0  0  0  0999 V2000
   46.4490   34.6950   41.7170 C   0  0  0  0  0  0  0  0  0  0  0  0
   46.6130   35.7050   41.2780 H   0  0  0  0  0  0  0  0  0  0  0  0
   45.7640   34.1150   41.0810 H   0  0  0  0  0  0  0  0  0  0  0  0
   47.7150   33.9580   41.7350 N   0  0  0  0  0  0  0  0  0  0  0  0
   47.7940   32.5950   41.7090 C   0  0  0  0  0  3  0  0  0  0  0  0
   49.0480   32.0420   41.7300 C   0  0  0  0  0  0  0  0  0  0  0  0
   49.1120   30.9520   41.7090 H   0  0  0  0  0  0  0  0  0  0  0  0
   50.2060   32.8070   41.7750 C   0  0  0  0  0  0  0  0  0  0  0  0
   51.3160   32.2550   41.7920 O   0  0  0  0  0  0  0  0  0  0  0  0
   50.1240   34.1460   41.8000 N   0  0  0  0  0  0  0  0  0  0  0  0
   48.8800   34.6590   41.7790 C   0  0  0  0  0  0  0  0  0  0  0  0
   48.7860   35.9300   41.8020 O   0  0  0  0  0  0  0  0  0  0  0  0
   50.9450   34.7860   41.8340 H   0  0  0  0  0  0  0  0  0  0  0  0
   44.5520   36.1250   44.5820 C   0  0  0  0  0  0  0  0  0  0  0  0
   45.1180   35.9870   43.3030 C   0  0  0  0  0  0  0  0  0  0  0  0
   45.8660   34.8250   43.0550 C   0  0  0  0  0  0  0  0  0  0  0  0
   46.0060   33.8980   44.0580 N   0  0  0  0  0  0  0  0  0  0  0  0
   45.4390   34.0820   45.2710 C   0  0  0  0  0  0  0  0  0  0  0  0
   44.7150   35.1930   45.5310 N   0  0  0  0  0  0  0  0  0  0  0  0
   43.9810   37.0280   44.7450 H   0  0  0  0  0  0  0  0  0  0  0  0
   44.9650   36.7630   42.5590 H   0  0  0  0  0  0  0  0  0  0  0  0
   45.6550   33.2630   45.9120 H   0  0  0  0  0  0  0  0  0  0  0  0
  1  4  1  0  0  0  0
  1 16  1  0  0  0  0
  2  1  1  0  0  0  0
  3  1  1  0  0  0  0
  4 11  1  0  0  0  0
  5  6  2  0  0  0  0
  5  4  1  0  0  0  0
  6  8  1  0  0  0  0
  7  6  1  0  0  0  0
  8  9  2  0  0  0  0
  8 10  1  0  0  0  0
 10 13  1  0  0  0  0
 11 10  1  0  0  0  0
 11 12  2  0  0  0  0
 14 20  1  0  0  0  0
 14 19  1  0  0  0  0
 15 14  2  0  0  0  0
 16 15  1  0  0  0  0
 16 17  2  0  0  0  0
 17 18  1  0  0  0  0
 18 19  2  0  0  0  0
 18 22  1  0  0  0  0
 21 15  1  0  0  0  0
M  END
>  <minimizedAffinity>
-4.53729582

>  <minimizedRMSD>
2.59329224

$$$$
