
 OpenBabel03252509293D

 22 23  0  0  0  0  0  0  0  0999 V2000
   45.6940   31.8340   41.6190 C   0  0  0  0  0  0  0  0  0  0  0  0
   45.3840   31.7100   40.5560 H   0  0  0  0  0  0  0  0  0  0  0  0
   46.7720   31.6420   41.7210 H   0  0  0  0  0  0  0  0  0  0  0  0
   45.4830   33.2230   42.0310 N   0  0  0  0  0  0  0  0  0  0  0  0
   44.3710   33.9450   41.7060 C   0  0  0  0  0  3  0  0  0  0  0  0
   44.3100   35.2370   42.1620 C   0  0  0  0  0  0  0  0  0  0  0  0
   43.4210   35.8160   41.9020 H   0  0  0  0  0  0  0  0  0  0  0  0
   45.3190   35.8140   42.9230 C   0  0  0  0  0  0  0  0  0  0  0  0
   45.2130   36.9860   43.3100 O   0  0  0  0  0  0  0  0  0  0  0  0
   46.4110   35.1000   43.2390 N   0  0  0  0  0  0  0  0  0  0  0  0
   46.4400   33.8360   42.7780 C   0  0  0  0  0  0  0  0  0  0  0  0
   47.4710   33.1470   43.0710 O   0  0  0  0  0  0  0  0  0  0  0  0
   47.2070   35.4610   43.8040 H   0  0  0  0  0  0  0  0  0  0  0  0
   42.9730   29.5880   42.8050 C   0  0  0  0  0  0  0  0  0  0  0  0
   43.6900   30.4950   42.0060 C   0  0  0  0  0  0  0  0  0  0  0  0
   44.9580   30.8880   42.4620 C   0  0  0  0  0  0  0  0  0  0  0  0
   45.4270   30.3750   43.6470 N   0  0  0  0  0  0  0  0  0  0  0  0
   44.6940   29.5050   44.3760 C   0  0  0  0  0  0  0  0  0  0  0  0
   43.4710   29.1130   43.9550 N   0  0  0  0  0  0  0  0  0  0  0  0
   42.0010   29.3030   42.4290 H   0  0  0  0  0  0  0  0  0  0  0  0
   43.2550   30.8590   41.0800 H   0  0  0  0  0  0  0  0  0  0  0  0
   45.2180   29.2200   45.2550 H   0  0  0  0  0  0  0  0  0  0  0  0
  1  3  1  0  0  0  0
  1  4  1  0  0  0  0
  1 16  1  0  0  0  0
  2  1  1  0  0  0  0
  4 11  1  0  0  0  0
  5  4  1  0  0  0  0
  5  6  2  0  0  0  0
  6  8  1  0  0  0  0
  7  6  1  0  0  0  0
  8 10  1  0  0  0  0
  8  9  2  0  0  0  0
 10 13  1  0  0  0  0
 11 12  2  0  0  0  0
 11 10  1  0  0  0  0
 14 19  1  0  0  0  0
 15 16  1  0  0  0  0
 15 14  2  0  0  0  0
 16 17  2  0  0  0  0
 17 18  1  0  0  0  0
 18 22  1  0  0  0  0
 19 18  2  0  0  0  0
 20 14  1  0  0  0  0
 21 15  1  0  0  0  0
M  END
>  <minimizedAffinity>
-2.622648

>  <minimizedRMSD>
4.900455

$$$$
