
 OpenBabel03242513533D

 40 42  0  0  1  0  0  0  0  0999 V2000
   37.0870   32.0850   40.2610 C   0  0  2  0  0  0  0  0  0  0  0  0
   37.5750   32.8910   39.0960 C   0  0  0  0  0  0  0  0  0  0  0  0
   38.2540   34.0240   39.8350 C   0  0  0  0  0  0  0  0  0  0  0  0
   38.8870   33.3860   40.9850 C   0  0  0  0  0  0  0  0  0  0  0  0
   38.3680   31.8640   41.0270 C   0  0  2  0  0  0  0  0  0  0  0  0
   36.4450   32.7090   40.9240 H   0  0  0  0  0  0  0  0  0  0  0  0
   38.3510   32.3760   38.5160 H   0  0  0  0  0  0  0  0  0  0  0  0
   36.7440   33.2680   38.4570 H   0  0  0  0  0  0  0  0  0  0  0  0
   37.4560   34.7220   40.1680 H   0  0  0  0  0  0  0  0  0  0  0  0
   38.9270   34.5970   39.1600 H   0  0  0  0  0  0  0  0  0  0  0  0
   39.9940   33.3410   40.8880 H   0  0  0  0  0  0  0  0  0  0  0  0
   38.6590   33.8330   41.9680 H   0  0  0  0  0  0  0  0  0  0  0  0
   38.2240   31.6240   42.0950 H   0  0  0  0  0  0  0  0  0  0  0  0
   35.3090   28.7810   40.3370 C   0  0  0  0  0  0  0  0  0  0  0  0
   35.9070   29.9600   40.8350 C   0  0  0  0  0  0  0  0  0  0  0  0
   36.4450   30.7980   39.9150 C   0  0  0  0  0  0  0  0  0  0  0  0
   36.3800   30.4600   38.5600 N   0  0  0  0  0  0  0  0  0  0  0  0
   35.8080   29.3370   38.1280 C   0  0  0  0  0  0  0  0  0  0  0  0
   35.2710   28.4970   39.0140 N   0  0  0  0  0  0  0  0  0  0  0  0
   34.8840   28.1230   41.0840 H   0  0  0  0  0  0  0  0  0  0  0  0
   35.9390   30.1920   41.8900 H   0  0  0  0  0  0  0  0  0  0  0  0
   35.8120   29.1730   37.0600 H   0  0  0  0  0  0  0  0  0  0  0  0
   39.3010   31.1110   40.3410 O   0  0  0  0  0  0  0  0  0  0  0  0
   39.9140   29.9690   40.7790 C   0  0  0  0  0  0  0  0  0  0  0  0
   41.0550   29.9000   40.1790 O   0  0  0  0  0  0  0  0  0  0  0  0
   39.8880   28.7630   41.6230 C   0  0  0  0  0  3  0  0  0  0  0  0
   39.0270   28.4300   42.6000 C   0  0  0  0  0  3  0  0  0  0  0  0
   38.9350   27.2450   43.4880 C   0  0  0  0  0  0  0  0  0  0  0  0
   39.9030   27.0180   43.9800 H   0  0  0  0  0  0  0  0  0  0  0  0
   38.2180   27.4150   44.3160 H   0  0  0  0  0  0  0  0  0  0  0  0
   38.4340   26.1200   42.7270 N   0  0  0  0  0  0  0  0  0  0  0  0
   37.2990   26.0850   42.0230 C   0  0  0  0  0  3  0  0  0  0  0  0
   36.9880   24.9110   41.3580 C   0  0  0  0  0  0  0  0  0  0  0  0
   36.0820   24.8750   40.7940 H   0  0  0  0  0  0  0  0  0  0  0  0
   37.8350   23.8220   41.4320 C   0  0  0  0  0  0  0  0  0  0  0  0
   37.5750   22.7410   40.8360 O   0  0  0  0  0  0  0  0  0  0  0  0
   38.9630   23.8730   42.1380 N   0  0  0  0  0  0  0  0  0  0  0  0
   39.2590   25.0350   42.7880 C   0  0  0  0  0  0  0  0  0  0  0  0
   40.3520   25.0130   43.4440 O   0  0  0  0  0  0  0  0  0  0  0  0
   39.5950   23.0560   42.1910 H   0  0  0  0  0  0  0  0  0  0  0  0
  1  6  1  1  0  0  0
  1  5  1  0  0  0  0
  2  3  1  0  0  0  0
  2  1  1  0  0  0  0
  3  9  1  0  0  0  0
  3  4  1  0  0  0  0
  4  5  1  0  0  0  0
  4 12  1  0  0  0  0
  5 13  1  1  0  0  0
  7  2  1  0  0  0  0
  8  2  1  0  0  0  0
 10  3  1  0  0  0  0
 11  4  1  0  0  0  0
 14 15  1  0  0  0  0
 14 20  1  0  0  0  0
 15 21  1  0  0  0  0
 16  1  1  0  0  0  0
 16 15  2  0  0  0  0
 17 16  1  0  0  0  0
 18 17  2  0  0  0  0
 18 19  1  0  0  0  0
 19 14  2  0  0  0  0
 22 18  1  0  0  0  0
 23 24  1  0  0  0  0
 23  5  1  0  0  0  0
 24 26  1  0  0  0  0
 25 24  2  0  0  0  0
 26 27  2  0  0  0  0
 27 28  1  0  0  0  0
 28 29  1  0  0  0  0
 28 30  1  0  0  0  0
 31 38  1  0  0  0  0
 31 28  1  0  0  0  0
 32 31  1  0  0  0  0
 33 35  1  0  0  0  0
 33 32  2  0  0  0  0
 34 33  1  0  0  0  0
 35 37  1  0  0  0  0
 36 35  2  0  0  0  0
 37 40  1  0  0  0  0
 37 38  1  0  0  0  0
 38 39  2  0  0  0  0
M  END
>  <minimizedAffinity>
-5.59172153

$$$$

 OpenBabel03242513533D

 40 42  0  0  1  0  0  0  0  0999 V2000
   37.4030   25.1630   41.8570 C   0  0  2  0  0  0  0  0  0  0  0  0
   38.6000   24.4010   41.3750 C   0  0  0  0  0  0  0  0  0  0  0  0
   37.9100   23.2040   40.7560 C   0  0  0  0  0  0  0  0  0  0  0  0
   36.7150   23.7540   40.1250 C   0  0  0  0  0  0  0  0  0  0  0  0
   36.6000   25.2910   40.5850 C   0  0  2  0  0  0  0  0  0  0  0  0
   36.7890   24.5300   42.5370 H   0  0  0  0  0  0  0  0  0  0  0  0
   39.1350   24.9150   40.5660 H   0  0  0  0  0  0  0  0  0  0  0  0
   39.2750   24.0920   42.2050 H   0  0  0  0  0  0  0  0  0  0  0  0
   37.6320   22.5220   41.5890 H   0  0  0  0  0  0  0  0  0  0  0  0
   38.6010   22.6420   40.0910 H   0  0  0  0  0  0  0  0  0  0  0  0
   36.7860   23.7600   39.0160 H   0  0  0  0  0  0  0  0  0  0  0  0
   35.7620   23.2650   40.3930 H   0  0  0  0  0  0  0  0  0  0  0  0
   35.5240   25.4790   40.7440 H   0  0  0  0  0  0  0  0  0  0  0  0
   37.2210   28.4620   43.6370 C   0  0  0  0  0  0  0  0  0  0  0  0
   36.7770   27.2230   43.1210 C   0  0  0  0  0  0  0  0  0  0  0  0
   37.6920   26.4910   42.4410 C   0  0  0  0  0  0  0  0  0  0  0  0
   38.9900   26.9870   42.2890 N   0  0  0  0  0  0  0  0  0  0  0  0
   39.3720   28.1610   42.7890 C   0  0  0  0  0  0  0  0  0  0  0  0
   38.4900   28.9000   43.4640 N   0  0  0  0  0  0  0  0  0  0  0  0
   36.4780   29.0330   44.1780 H   0  0  0  0  0  0  0  0  0  0  0  0
   35.7650   26.8690   43.2570 H   0  0  0  0  0  0  0  0  0  0  0  0
   40.3990   28.4500   42.6150 H   0  0  0  0  0  0  0  0  0  0  0  0
   37.2260   26.0410   39.6090 O   0  0  0  0  0  0  0  0  0  0  0  0
   36.8630   27.2890   39.1780 C   0  0  0  0  0  0  0  0  0  0  0  0
   36.8300   27.2450   37.8870 O   0  0  0  0  0  0  0  0  0  0  0  0
   36.4880   28.6770   39.4920 C   0  0  0  0  0  3  0  0  0  0  0  0
   37.1960   29.6220   40.1330 C   0  0  0  0  0  3  0  0  0  0  0  0
   36.8910   31.0300   40.4860 C   0  0  0  0  0  0  0  0  0  0  0  0
   36.1070   31.4620   39.8310 H   0  0  0  0  0  0  0  0  0  0  0  0
   36.4910   31.1110   41.5170 H   0  0  0  0  0  0  0  0  0  0  0  0
   38.1160   31.8020   40.4530 N   0  0  0  0  0  0  0  0  0  0  0  0
   39.2550   31.5050   41.0840 C   0  0  0  0  0  3  0  0  0  0  0  0
   40.3230   32.3730   40.9300 C   0  0  0  0  0  0  0  0  0  0  0  0
   41.2370   32.1420   41.4320 H   0  0  0  0  0  0  0  0  0  0  0  0
   40.1960   33.5040   40.1460 C   0  0  0  0  0  0  0  0  0  0  0  0
   41.1530   34.3090   39.9890 O   0  0  0  0  0  0  0  0  0  0  0  0
   39.0530   33.7850   39.5230 N   0  0  0  0  0  0  0  0  0  0  0  0
   38.0080   32.9240   39.6820 C   0  0  0  0  0  0  0  0  0  0  0  0
   36.9460   33.2560   39.0590 O   0  0  0  0  0  0  0  0  0  0  0  0
   38.9620   34.6330   38.9360 H   0  0  0  0  0  0  0  0  0  0  0  0
  1 16  1  0  0  0  0
  1  6  1  1  0  0  0
  2  1  1  0  0  0  0
  2  8  1  0  0  0  0
  3  2  1  0  0  0  0
  3  9  1  0  0  0  0
  4 12  1  0  0  0  0
  4  5  1  0  0  0  0
  4  3  1  0  0  0  0
  5 13  1  1  0  0  0
  5  1  1  0  0  0  0
  7  2  1  0  0  0  0
 10  3  1  0  0  0  0
 11  4  1  0  0  0  0
 14 20  1  0  0  0  0
 15 21  1  0  0  0  0
 15 14  2  0  0  0  0
 16 15  1  0  0  0  0
 17 16  2  0  0  0  0
 17 18  1  0  0  0  0
 18 19  2  0  0  0  0
 19 14  1  0  0  0  0
 22 18  1  0  0  0  0
 23  5  1  0  0  0  0
 24 26  1  0  0  0  0
 24 23  1  0  0  0  0
 25 24  2  0  0  0  0
 26 27  2  0  0  0  0
 27 28  1  0  0  0  0
 28 30  1  0  0  0  0
 29 28  1  0  0  0  0
 31 28  1  0  0  0  0
 31 32  1  0  0  0  0
 33 32  2  0  0  0  0
 33 34  1  0  0  0  0
 35 33  1  0  0  0  0
 36 35  2  0  0  0  0
 37 38  1  0  0  0  0
 37 35  1  0  0  0  0
 38 31  1  0  0  0  0
 39 38  2  0  0  0  0
 40 37  1  0  0  0  0
M  END
>  <minimizedAffinity>
-5.37558842

$$$$

 OpenBabel03242513533D

 40 42  0  0  1  0  0  0  0  0999 V2000
   29.3980   31.1210   35.7640 C   0  0  2  0  0  0  0  0  0  0  0  0
   30.0520   32.3170   36.3880 C   0  0  0  0  0  0  0  0  0  0  0  0
   30.0100   31.9030   37.8430 C   0  0  0  0  0  0  0  0  0  0  0  0
   30.2850   30.4700   37.8260 C   0  0  0  0  0  0  0  0  0  0  0  0
   30.2670   30.0020   36.2870 C   0  0  2  0  0  0  0  0  0  0  0  0
   28.3920   30.9530   36.2110 H   0  0  0  0  0  0  0  0  0  0  0  0
   31.1100   32.4160   36.1130 H   0  0  0  0  0  0  0  0  0  0  0  0
   29.4770   33.2560   36.2190 H   0  0  0  0  0  0  0  0  0  0  0  0
   28.9780   32.0980   38.2080 H   0  0  0  0  0  0  0  0  0  0  0  0
   30.6960   32.5270   38.4570 H   0  0  0  0  0  0  0  0  0  0  0  0
   31.2960   30.2280   38.2190 H   0  0  0  0  0  0  0  0  0  0  0  0
   29.5600   29.8350   38.3650 H   0  0  0  0  0  0  0  0  0  0  0  0
   29.7830   29.0100   36.2790 H   0  0  0  0  0  0  0  0  0  0  0  0
   29.6000   32.0280   32.1290 C   0  0  0  0  0  0  0  0  0  0  0  0
   29.6610   32.2030   33.5300 C   0  0  0  0  0  0  0  0  0  0  0  0
   29.3600   31.1190   34.2860 C   0  0  0  0  0  0  0  0  0  0  0  0
   29.0160   29.9190   33.6570 N   0  0  0  0  0  0  0  0  0  0  0  0
   28.9680   29.7930   32.3320 C   0  0  0  0  0  0  0  0  0  0  0  0
   29.2610   30.8450   31.5660 N   0  0  0  0  0  0  0  0  0  0  0  0
   29.8440   32.9030   31.5400 H   0  0  0  0  0  0  0  0  0  0  0  0
   29.9320   33.1460   33.9840 H   0  0  0  0  0  0  0  0  0  0  0  0
   28.6900   28.8210   31.9480 H   0  0  0  0  0  0  0  0  0  0  0  0
   31.5730   30.0610   35.8430 O   0  0  0  0  0  0  0  0  0  0  0  0
   32.5830   29.1910   36.1520 C   0  0  0  0  0  0  0  0  0  0  0  0
   32.1740   28.0100   35.8240 O   0  0  0  0  0  0  0  0  0  0  0  0
   33.9340   28.9580   36.6890 C   0  0  0  0  0  3  0  0  0  0  0  0
   34.3810   29.0970   37.9490 C   0  0  0  0  0  3  0  0  0  0  0  0
   35.7140   28.8850   38.5640 C   0  0  0  0  0  0  0  0  0  0  0  0
   35.6550   28.2600   39.4780 H   0  0  0  0  0  0  0  0  0  0  0  0
   36.3940   28.3400   37.8780 H   0  0  0  0  0  0  0  0  0  0  0  0
   36.3260   30.1710   38.8220 N   0  0  0  0  0  0  0  0  0  0  0  0
   36.9630   30.9370   37.9310 C   0  0  0  0  0  3  0  0  0  0  0  0
   37.4850   32.1410   38.3720 C   0  0  0  0  0  0  0  0  0  0  0  0
   37.9960   32.7580   37.6650 H   0  0  0  0  0  0  0  0  0  0  0  0
   37.3430   32.5220   39.6920 C   0  0  0  0  0  0  0  0  0  0  0  0
   37.8090   33.6140   40.1180 O   0  0  0  0  0  0  0  0  0  0  0  0
   36.7050   31.7470   40.5680 N   0  0  0  0  0  0  0  0  0  0  0  0
   36.1950   30.5640   40.1220 C   0  0  0  0  0  0  0  0  0  0  0  0
   35.5980   29.8740   41.0140 O   0  0  0  0  0  0  0  0  0  0  0  0
   36.6000   32.0370   41.5560 H   0  0  0  0  0  0  0  0  0  0  0  0
  1  6  1  1  0  0  0
  1  5  1  0  0  0  0
  1  2  1  0  0  0  0
  2  3  1  0  0  0  0
  3  9  1  0  0  0  0
  3 10  1  0  0  0  0
  4  3  1  0  0  0  0
  4 11  1  0  0  0  0
  4 12  1  0  0  0  0
  5 13  1  6  0  0  0
  5  4  1  0  0  0  0
  7  2  1  0  0  0  0
  8  2  1  0  0  0  0
 14 15  1  0  0  0  0
 15 21  1  0  0  0  0
 15 16  2  0  0  0  0
 16  1  1  0  0  0  0
 17 16  1  0  0  0  0
 18 17  2  0  0  0  0
 19 14  2  0  0  0  0
 19 18  1  0  0  0  0
 20 14  1  0  0  0  0
 22 18  1  0  0  0  0
 23 24  1  0  0  0  0
 23  5  1  0  0  0  0
 24 26  1  0  0  0  0
 25 24  2  0  0  0  0
 26 27  2  0  0  0  0
 27 28  1  0  0  0  0
 28 31  1  0  0  0  0
 28 29  1  0  0  0  0
 30 28  1  0  0  0  0
 31 38  1  0  0  0  0
 32 33  2  0  0  0  0
 32 31  1  0  0  0  0
 33 35  1  0  0  0  0
 34 33  1  0  0  0  0
 35 36  2  0  0  0  0
 35 37  1  0  0  0  0
 37 40  1  0  0  0  0
 38 37  1  0  0  0  0
 38 39  2  0  0  0  0
M  END
>  <minimizedAffinity>
-5.34197187

$$$$

 OpenBabel03242513533D

 40 42  0  0  1  0  0  0  0  0999 V2000
   38.3690   30.5440   38.0990 C   0  0  2  0  0  0  0  0  0  0  0  0
   37.0920   30.3250   37.3450 C   0  0  0  0  0  0  0  0  0  0  0  0
   37.3720   28.9560   36.7610 C   0  0  0  0  0  0  0  0  0  0  0  0
   38.0810   28.2430   37.8180 C   0  0  0  0  0  0  0  0  0  0  0  0
   38.4140   29.3130   38.9710 C   0  0  2  0  0  0  0  0  0  0  0  0
   39.2430   30.4590   37.4140 H   0  0  0  0  0  0  0  0  0  0  0  0
   36.2210   30.2190   38.0040 H   0  0  0  0  0  0  0  0  0  0  0  0
   36.9320   31.0800   36.5430 H   0  0  0  0  0  0  0  0  0  0  0  0
   38.0340   29.1070   35.8800 H   0  0  0  0  0  0  0  0  0  0  0  0
   36.4380   28.4810   36.3890 H   0  0  0  0  0  0  0  0  0  0  0  0
   37.4560   27.4540   38.2890 H   0  0  0  0  0  0  0  0  0  0  0  0
   39.0370   27.7760   37.5240 H   0  0  0  0  0  0  0  0  0  0  0  0
   39.4220   29.0550   39.3410 H   0  0  0  0  0  0  0  0  0  0  0  0
   37.5830   33.7660   39.8560 C   0  0  0  0  0  0  0  0  0  0  0  0
   37.3840   32.6480   39.0150 C   0  0  0  0  0  0  0  0  0  0  0  0
   38.4170   31.7770   38.9150 C   0  0  0  0  0  0  0  0  0  0  0  0
   39.5940   32.0240   39.6290 N   0  0  0  0  0  0  0  0  0  0  0  0
   39.7440   33.0920   40.4120 C   0  0  0  0  0  0  0  0  0  0  0  0
   38.7420   33.9620   40.5280 N   0  0  0  0  0  0  0  0  0  0  0  0
   36.7480   34.4510   39.9260 H   0  0  0  0  0  0  0  0  0  0  0  0
   36.4600   32.4860   38.4770 H   0  0  0  0  0  0  0  0  0  0  0  0
   40.6940   33.1880   40.9200 H   0  0  0  0  0  0  0  0  0  0  0  0
   37.3800   29.2420   39.8840 O   0  0  0  0  0  0  0  0  0  0  0  0
   37.4920   29.2190   41.2480 C   0  0  0  0  0  0  0  0  0  0  0  0
   36.8220   30.2270   41.6970 O   0  0  0  0  0  0  0  0  0  0  0  0
   38.0220   28.5800   42.4630 C   0  0  0  0  0  3  0  0  0  0  0  0
   38.6190   27.3840   42.6010 C   0  0  0  0  0  3  0  0  0  0  0  0
   39.1750   26.6750   43.7790 C   0  0  0  0  0  0  0  0  0  0  0  0
   38.9360   27.1970   44.7290 H   0  0  0  0  0  0  0  0  0  0  0  0
   38.7410   25.6610   43.8830 H   0  0  0  0  0  0  0  0  0  0  0  0
   40.6010   26.5010   43.5980 N   0  0  0  0  0  0  0  0  0  0  0  0
   41.5360   27.4450   43.7310 C   0  0  0  0  0  3  0  0  0  0  0  0
   42.8550   27.0820   43.5150 C   0  0  0  0  0  0  0  0  0  0  0  0
   43.6090   27.8320   43.6190 H   0  0  0  0  0  0  0  0  0  0  0  0
   43.1740   25.7820   43.1730 C   0  0  0  0  0  0  0  0  0  0  0  0
   44.3670   25.4260   42.9710 O   0  0  0  0  0  0  0  0  0  0  0  0
   42.2290   24.8520   43.0440 N   0  0  0  0  0  0  0  0  0  0  0  0
   40.9350   25.2210   43.2600 C   0  0  0  0  0  0  0  0  0  0  0  0
   40.0840   24.2810   43.1190 O   0  0  0  0  0  0  0  0  0  0  0  0
   42.4720   23.8790   42.7880 H   0  0  0  0  0  0  0  0  0  0  0  0
  1  6  1  6  0  0  0
  1 16  1  0  0  0  0
  1  5  1  0  0  0  0
  2  7  1  0  0  0  0
  2  1  1  0  0  0  0
  3  2  1  0  0  0  0
  3  4  1  0  0  0  0
  4 11  1  0  0  0  0
  4  5  1  0  0  0  0
  5 13  1  1  0  0  0
  5 23  1  0  0  0  0
  8  2  1  0  0  0  0
  9  3  1  0  0  0  0
 10  3  1  0  0  0  0
 12  4  1  0  0  0  0
 14 20  1  0  0  0  0
 14 19  1  0  0  0  0
 15 14  2  0  0  0  0
 16 15  1  0  0  0  0
 16 17  2  0  0  0  0
 17 18  1  0  0  0  0
 18 19  2  0  0  0  0
 18 22  1  0  0  0  0
 21 15  1  0  0  0  0
 23 24  1  0  0  0  0
 24 25  2  0  0  0  0
 24 26  1  0  0  0  0
 26 27  2  0  0  0  0
 27 28  1  0  0  0  0
 28 30  1  0  0  0  0
 28 29  1  0  0  0  0
 31 32  1  0  0  0  0
 31 28  1  0  0  0  0
 33 34  1  0  0  0  0
 33 32  2  0  0  0  0
 35 33  1  0  0  0  0
 36 35  2  0  0  0  0
 37 35  1  0  0  0  0
 37 38  1  0  0  0  0
 38 31  1  0  0  0  0
 39 38  2  0  0  0  0
 40 37  1  0  0  0  0
M  END
>  <minimizedAffinity>
-5.30281401

$$$$

 OpenBabel03242513533D

 40 42  0  0  1  0  0  0  0  0999 V2000
   37.9540   25.7310   40.3150 C   0  0  2  0  0  0  0  0  0  0  0  0
   36.9140   24.8350   40.9170 C   0  0  0  0  0  0  0  0  0  0  0  0
   37.7100   24.2550   42.0670 C   0  0  0  0  0  0  0  0  0  0  0  0
   38.5170   25.3680   42.5540 C   0  0  0  0  0  0  0  0  0  0  0  0
   38.3430   26.5750   41.5050 C   0  0  2  0  0  0  0  0  0  0  0  0
   38.8650   25.1460   40.0530 H   0  0  0  0  0  0  0  0  0  0  0  0
   36.0750   25.3900   41.3560 H   0  0  0  0  0  0  0  0  0  0  0  0
   36.5790   24.0370   40.2160 H   0  0  0  0  0  0  0  0  0  0  0  0
   38.3590   23.4570   41.6450 H   0  0  0  0  0  0  0  0  0  0  0  0
   37.0410   23.7710   42.8120 H   0  0  0  0  0  0  0  0  0  0  0  0
   38.1650   25.7490   43.5370 H   0  0  0  0  0  0  0  0  0  0  0  0
   39.6000   25.1720   42.6440 H   0  0  0  0  0  0  0  0  0  0  0  0
   39.3370   27.0490   41.4220 H   0  0  0  0  0  0  0  0  0  0  0  0
   35.9080   27.5710   37.7630 C   0  0  0  0  0  0  0  0  0  0  0  0
   36.1870   26.7060   38.8460 C   0  0  0  0  0  0  0  0  0  0  0  0
   37.4900   26.5750   39.1930 C   0  0  0  0  0  0  0  0  0  0  0  0
   38.4630   27.2830   38.4810 N   0  0  0  0  0  0  0  0  0  0  0  0
   38.1610   28.0890   37.4640 C   0  0  0  0  0  0  0  0  0  0  0  0
   36.8860   28.2350   37.1040 N   0  0  0  0  0  0  0  0  0  0  0  0
   34.8630   27.6640   37.5000 H   0  0  0  0  0  0  0  0  0  0  0  0
   35.4100   26.1730   39.3760 H   0  0  0  0  0  0  0  0  0  0  0  0
   38.9900   28.5900   36.9820 H   0  0  0  0  0  0  0  0  0  0  0  0
   37.3160   27.3650   41.9830 O   0  0  0  0  0  0  0  0  0  0  0  0
   37.3110   28.7300   42.0820 C   0  0  0  0  0  0  0  0  0  0  0  0
   37.4710   29.0170   43.3310 O   0  0  0  0  0  0  0  0  0  0  0  0
   37.2090   30.0460   41.4300 C   0  0  0  0  0  3  0  0  0  0  0  0
   37.3030   30.3560   40.1260 C   0  0  0  0  0  3  0  0  0  0  0  0
   37.2120   31.6440   39.3970 C   0  0  0  0  0  0  0  0  0  0  0  0
   36.4650   31.6070   38.5780 H   0  0  0  0  0  0  0  0  0  0  0  0
   36.8770   32.4640   40.0640 H   0  0  0  0  0  0  0  0  0  0  0  0
   38.5290   32.0110   38.9180 N   0  0  0  0  0  0  0  0  0  0  0  0
   39.5620   32.4020   39.6690 C   0  0  0  0  0  3  0  0  0  0  0  0
   40.7470   32.7130   39.0220 C   0  0  0  0  0  0  0  0  0  0  0  0
   41.5780   33.0270   39.6160 H   0  0  0  0  0  0  0  0  0  0  0  0
   40.8390   32.6160   37.6470 C   0  0  0  0  0  0  0  0  0  0  0  0
   41.9060   32.8930   37.0350 O   0  0  0  0  0  0  0  0  0  0  0  0
   39.7980   32.2250   36.9130 N   0  0  0  0  0  0  0  0  0  0  0  0
   38.6370   31.9210   37.5600 C   0  0  0  0  0  0  0  0  0  0  0  0
   37.6840   31.5540   36.7970 O   0  0  0  0  0  0  0  0  0  0  0  0
   39.8710   32.1530   35.8840 H   0  0  0  0  0  0  0  0  0  0  0  0
  1  6  1  6  0  0  0
  1  2  1  0  0  0  0
  1  5  1  0  0  0  0
  2  7  1  0  0  0  0
  2  3  1  0  0  0  0
  3  4  1  0  0  0  0
  3 10  1  0  0  0  0
  4 12  1  0  0  0  0
  4 11  1  0  0  0  0
  5 13  1  6  0  0  0
  5 23  1  0  0  0  0
  5  4  1  0  0  0  0
  8  2  1  0  0  0  0
  9  3  1  0  0  0  0
 14 15  1  0  0  0  0
 15 16  2  0  0  0  0
 15 21  1  0  0  0  0
 16  1  1  0  0  0  0
 17 16  1  0  0  0  0
 18 17  2  0  0  0  0
 19 18  1  0  0  0  0
 19 14  2  0  0  0  0
 20 14  1  0  0  0  0
 22 18  1  0  0  0  0
 23 24  1  0  0  0  0
 24 25  2  0  0  0  0
 26 24  1  0  0  0  0
 27 26  2  0  0  0  0
 28 30  1  0  0  0  0
 28 27  1  0  0  0  0
 29 28  1  0  0  0  0
 31 28  1  0  0  0  0
 31 32  1  0  0  0  0
 33 34  1  0  0  0  0
 33 32  2  0  0  0  0
 35 33  1  0  0  0  0
 36 35  2  0  0  0  0
 37 38  1  0  0  0  0
 37 35  1  0  0  0  0
 38 31  1  0  0  0  0
 39 38  2  0  0  0  0
 40 37  1  0  0  0  0
M  END
>  <minimizedAffinity>
-5.19880676

$$$$

 OpenBabel03242513533D

 40 42  0  0  1  0  0  0  0  0999 V2000
   40.1810   33.5100   39.2300 C   0  0  2  0  0  0  0  0  0  0  0  0
   41.1560   33.0590   38.1860 C   0  0  0  0  0  0  0  0  0  0  0  0
   42.2250   34.1180   38.3600 C   0  0  0  0  0  0  0  0  0  0  0  0
   42.2870   34.3440   39.7990 C   0  0  0  0  0  0  0  0  0  0  0  0
   41.0560   33.5460   40.4590 C   0  0  2  0  0  0  0  0  0  0  0  0
   39.8770   34.5650   39.0470 H   0  0  0  0  0  0  0  0  0  0  0  0
   41.6210   32.0940   38.4240 H   0  0  0  0  0  0  0  0  0  0  0  0
   40.7270   33.0850   37.1580 H   0  0  0  0  0  0  0  0  0  0  0  0
   41.8670   35.0310   37.8360 H   0  0  0  0  0  0  0  0  0  0  0  0
   43.1750   33.8130   37.8690 H   0  0  0  0  0  0  0  0  0  0  0  0
   43.2130   33.9300   40.2530 H   0  0  0  0  0  0  0  0  0  0  0  0
   42.2020   35.3960   40.1250 H   0  0  0  0  0  0  0  0  0  0  0  0
   40.6770   34.1920   41.2690 H   0  0  0  0  0  0  0  0  0  0  0  0
   36.9410   31.9680   40.3300 C   0  0  0  0  0  0  0  0  0  0  0  0
   37.9910   32.9120   40.2700 C   0  0  0  0  0  0  0  0  0  0  0  0
   39.0150   32.6210   39.4320 C   0  0  0  0  0  0  0  0  0  0  0  0
   38.9810   31.4360   38.6920 N   0  0  0  0  0  0  0  0  0  0  0  0
   37.9720   30.5680   38.7760 C   0  0  0  0  0  0  0  0  0  0  0  0
   36.9520   30.8320   39.5930 N   0  0  0  0  0  0  0  0  0  0  0  0
   36.1310   32.2150   41.0030 H   0  0  0  0  0  0  0  0  0  0  0  0
   37.9870   33.8200   40.8560 H   0  0  0  0  0  0  0  0  0  0  0  0
   38.0440   29.6830   38.1600 H   0  0  0  0  0  0  0  0  0  0  0  0
   41.5440   32.3070   40.8280 O   0  0  0  0  0  0  0  0  0  0  0  0
   41.2340   31.6110   41.9650 C   0  0  0  0  0  0  0  0  0  0  0  0
   42.3280   31.4930   42.6430 O   0  0  0  0  0  0  0  0  0  0  0  0
   40.2310   30.9240   42.7950 C   0  0  0  0  0  3  0  0  0  0  0  0
   39.2670   30.0650   42.4220 C   0  0  0  0  0  3  0  0  0  0  0  0
   38.2270   29.3380   43.1900 C   0  0  0  0  0  0  0  0  0  0  0  0
   38.2550   29.5910   44.2700 H   0  0  0  0  0  0  0  0  0  0  0  0
   37.2080   29.6110   42.8500 H   0  0  0  0  0  0  0  0  0  0  0  0
   38.3760   27.9160   42.9590 N   0  0  0  0  0  0  0  0  0  0  0  0
   39.3950   27.1520   43.3620 C   0  0  0  0  0  3  0  0  0  0  0  0
   39.3570   25.8050   43.0420 C   0  0  0  0  0  0  0  0  0  0  0  0
   40.1690   25.1880   43.3600 H   0  0  0  0  0  0  0  0  0  0  0  0
   38.2930   25.2860   42.3290 C   0  0  0  0  0  0  0  0  0  0  0  0
   38.2350   24.0640   42.0250 O   0  0  0  0  0  0  0  0  0  0  0  0
   37.2850   26.0620   41.9350 N   0  0  0  0  0  0  0  0  0  0  0  0
   37.3330   27.3860   42.2550 C   0  0  0  0  0  0  0  0  0  0  0  0
   36.3360   28.0690   41.8460 O   0  0  0  0  0  0  0  0  0  0  0  0
   36.4890   25.6700   41.4020 H   0  0  0  0  0  0  0  0  0  0  0  0
  1  6  1  6  0  0  0
  1 16  1  0  0  0  0
  1  5  1  0  0  0  0
  2  3  1  0  0  0  0
  2  7  1  0  0  0  0
  2  1  1  0  0  0  0
  3  4  1  0  0  0  0
  4 12  1  0  0  0  0
  4 11  1  0  0  0  0
  4  5  1  0  0  0  0
  5 23  1  0  0  0  0
  5 13  1  1  0  0  0
  8  2  1  0  0  0  0
  9  3  1  0  0  0  0
 10  3  1  0  0  0  0
 14 20  1  0  0  0  0
 15 14  1  0  0  0  0
 15 21  1  0  0  0  0
 16 15  2  0  0  0  0
 17 18  2  0  0  0  0
 17 16  1  0  0  0  0
 18 19  1  0  0  0  0
 19 14  2  0  0  0  0
 22 18  1  0  0  0  0
 23 24  1  0  0  0  0
 24 25  2  0  0  0  0
 24 26  1  0  0  0  0
 27 26  2  0  0  0  0
 27 28  1  0  0  0  0
 28 29  1  0  0  0  0
 30 28  1  0  0  0  0
 31 28  1  0  0  0  0
 31 32  1  0  0  0  0
 33 34  1  0  0  0  0
 33 32  2  0  0  0  0
 35 33  1  0  0  0  0
 36 35  2  0  0  0  0
 37 38  1  0  0  0  0
 37 35  1  0  0  0  0
 38 31  1  0  0  0  0
 39 38  2  0  0  0  0
 40 37  1  0  0  0  0
M  END
>  <minimizedAffinity>
-5.19490099

$$$$

 OpenBabel03242513533D

 40 42  0  0  1  0  0  0  0  0999 V2000
   38.0420   26.5320   42.6050 C   0  0  2  0  0  0  0  0  0  0  0  0
   36.7000   27.0530   43.0210 C   0  0  0  0  0  0  0  0  0  0  0  0
   37.1330   28.2350   43.8610 C   0  0  0  0  0  0  0  0  0  0  0  0
   38.2800   28.7910   43.1500 C   0  0  0  0  0  0  0  0  0  0  0  0
   38.6550   27.7590   41.9750 C   0  0  2  0  0  0  0  0  0  0  0  0
   38.6670   26.3110   43.5000 H   0  0  0  0  0  0  0  0  0  0  0  0
   36.1190   27.4530   42.1800 H   0  0  0  0  0  0  0  0  0  0  0  0
   36.1230   26.3180   43.6270 H   0  0  0  0  0  0  0  0  0  0  0  0
   37.4440   27.8360   44.8510 H   0  0  0  0  0  0  0  0  0  0  0  0
   36.2840   28.9300   44.0420 H   0  0  0  0  0  0  0  0  0  0  0  0
   38.0440   29.7600   42.6580 H   0  0  0  0  0  0  0  0  0  0  0  0
   39.1920   28.9400   43.7530 H   0  0  0  0  0  0  0  0  0  0  0  0
   39.7580   27.7440   41.9280 H   0  0  0  0  0  0  0  0  0  0  0  0
   38.9270   23.7990   40.1900 C   0  0  0  0  0  0  0  0  0  0  0  0
   39.1230   24.8980   41.0570 C   0  0  0  0  0  0  0  0  0  0  0  0
   38.0140   25.4010   41.6510 C   0  0  0  0  0  0  0  0  0  0  0  0
   36.7700   24.8230   41.3830 N   0  0  0  0  0  0  0  0  0  0  0  0
   36.6250   23.7870   40.5570 C   0  0  0  0  0  0  0  0  0  0  0  0
   37.7010   23.2740   39.9610 N   0  0  0  0  0  0  0  0  0  0  0  0
   39.8230   23.4090   39.7240 H   0  0  0  0  0  0  0  0  0  0  0  0
   40.1000   25.3210   41.2440 H   0  0  0  0  0  0  0  0  0  0  0  0
   35.6190   23.4170   40.4190 H   0  0  0  0  0  0  0  0  0  0  0  0
   37.9900   28.1920   40.8440 O   0  0  0  0  0  0  0  0  0  0  0  0
   38.5490   28.7760   39.7400 C   0  0  0  0  0  0  0  0  0  0  0  0
   38.4850   27.9090   38.7840 O   0  0  0  0  0  0  0  0  0  0  0  0
   39.1970   29.9400   39.1150 C   0  0  0  0  0  3  0  0  0  0  0  0
   38.8630   31.2400   39.1920 C   0  0  0  0  0  3  0  0  0  0  0  0
   39.4590   32.4600   38.5970 C   0  0  0  0  0  0  0  0  0  0  0  0
   39.7760   32.2990   37.5460 H   0  0  0  0  0  0  0  0  0  0  0  0
   38.7260   33.2910   38.5590 H   0  0  0  0  0  0  0  0  0  0  0  0
   40.5530   32.9090   39.4330 N   0  0  0  0  0  0  0  0  0  0  0  0
   41.8040   32.4390   39.4180 C   0  0  0  0  0  3  0  0  0  0  0  0
   42.7140   32.9990   40.2990 C   0  0  0  0  0  0  0  0  0  0  0  0
   43.7160   32.6280   40.2930 H   0  0  0  0  0  0  0  0  0  0  0  0
   42.3240   34.0080   41.1580 C   0  0  0  0  0  0  0  0  0  0  0  0
   43.1320   34.5340   41.9690 O   0  0  0  0  0  0  0  0  0  0  0  0
   41.0720   34.4650   41.1610 N   0  0  0  0  0  0  0  0  0  0  0  0
   40.1850   33.9070   40.2890 C   0  0  0  0  0  0  0  0  0  0  0  0
   39.0070   34.3920   40.3460 O   0  0  0  0  0  0  0  0  0  0  0  0
   40.7840   35.2220   41.8050 H   0  0  0  0  0  0  0  0  0  0  0  0
  1  2  1  0  0  0  0
  1  6  1  1  0  0  0
  2  8  1  0  0  0  0
  2  3  1  0  0  0  0
  3 10  1  0  0  0  0
  3  9  1  0  0  0  0
  4 12  1  0  0  0  0
  4  3  1  0  0  0  0
  5 13  1  6  0  0  0
  5  1  1  0  0  0  0
  5  4  1  0  0  0  0
  7  2  1  0  0  0  0
 11  4  1  0  0  0  0
 14 15  1  0  0  0  0
 15 21  1  0  0  0  0
 15 16  2  0  0  0  0
 16  1  1  0  0  0  0
 17 16  1  0  0  0  0
 18 17  2  0  0  0  0
 19 14  2  0  0  0  0
 19 18  1  0  0  0  0
 20 14  1  0  0  0  0
 22 18  1  0  0  0  0
 23  5  1  0  0  0  0
 24 23  1  0  0  0  0
 25 24  2  0  0  0  0
 26 27  2  0  0  0  0
 26 24  1  0  0  0  0
 28 27  1  0  0  0  0
 28 31  1  0  0  0  0
 29 28  1  0  0  0  0
 30 28  1  0  0  0  0
 31 38  1  0  0  0  0
 32 31  1  0  0  0  0
 32 33  2  0  0  0  0
 33 35  1  0  0  0  0
 34 33  1  0  0  0  0
 35 37  1  0  0  0  0
 35 36  2  0  0  0  0
 37 40  1  0  0  0  0
 38 39  2  0  0  0  0
 38 37  1  0  0  0  0
M  END
>  <minimizedAffinity>
-5.19110966

$$$$

 OpenBabel03242513533D

 40 42  0  0  1  0  0  0  0  0999 V2000
   37.0070   31.0410   38.3540 C   0  0  2  0  0  0  0  0  0  0  0  0
   38.4070   31.5740   38.3160 C   0  0  0  0  0  0  0  0  0  0  0  0
   38.2180   32.8490   39.1100 C   0  0  0  0  0  0  0  0  0  0  0  0
   37.2800   32.4880   40.1680 C   0  0  0  0  0  0  0  0  0  0  0  0
   36.7410   31.0080   39.8390 C   0  0  2  0  0  0  0  0  0  0  0  0
   36.2960   31.7910   37.9390 H   0  0  0  0  0  0  0  0  0  0  0  0
   39.1160   30.9500   38.8770 H   0  0  0  0  0  0  0  0  0  0  0  0
   38.7560   31.7910   37.2810 H   0  0  0  0  0  0  0  0  0  0  0  0
   37.7630   33.5960   38.4240 H   0  0  0  0  0  0  0  0  0  0  0  0
   39.1950   33.2640   39.4400 H   0  0  0  0  0  0  0  0  0  0  0  0
   37.7680   32.4330   41.1650 H   0  0  0  0  0  0  0  0  0  0  0  0
   36.3950   33.1390   40.2680 H   0  0  0  0  0  0  0  0  0  0  0  0
   35.6710   31.0100   40.1100 H   0  0  0  0  0  0  0  0  0  0  0  0
   35.6370   27.7630   37.1450 C   0  0  0  0  0  0  0  0  0  0  0  0
   35.6540   29.0200   37.7920 C   0  0  0  0  0  0  0  0  0  0  0  0
   36.8230   29.7030   37.7500 C   0  0  0  0  0  0  0  0  0  0  0  0
   37.9200   29.1450   37.0870 N   0  0  0  0  0  0  0  0  0  0  0  0
   37.8650   27.9560   36.4890 C   0  0  0  0  0  0  0  0  0  0  0  0
   36.7260   27.2640   36.5150 N   0  0  0  0  0  0  0  0  0  0  0  0
   34.6950   27.2310   37.1870 H   0  0  0  0  0  0  0  0  0  0  0  0
   34.7860   29.4230   38.2960 H   0  0  0  0  0  0  0  0  0  0  0  0
   38.7710   27.6170   36.0040 H   0  0  0  0  0  0  0  0  0  0  0  0
   37.5560   30.1310   40.5290 O   0  0  0  0  0  0  0  0  0  0  0  0
   37.1540   29.1320   41.3730 C   0  0  0  0  0  0  0  0  0  0  0  0
   35.8620   29.1200   41.3510 O   0  0  0  0  0  0  0  0  0  0  0  0
   37.5000   28.0480   42.3070 C   0  0  0  0  0  3  0  0  0  0  0  0
   38.6830   27.7690   42.8800 C   0  0  0  0  0  3  0  0  0  0  0  0
   39.1080   26.7050   43.8220 C   0  0  0  0  0  0  0  0  0  0  0  0
   38.8330   26.9430   44.8700 H   0  0  0  0  0  0  0  0  0  0  0  0
   38.6070   25.7420   43.5980 H   0  0  0  0  0  0  0  0  0  0  0  0
   40.5300   26.4790   43.6710 N   0  0  0  0  0  0  0  0  0  0  0  0
   41.4990   27.3790   43.8650 C   0  0  0  0  0  3  0  0  0  0  0  0
   42.8070   26.9700   43.6680 C   0  0  0  0  0  0  0  0  0  0  0  0
   43.5870   27.6840   43.8210 H   0  0  0  0  0  0  0  0  0  0  0  0
   43.0830   25.6720   43.2830 C   0  0  0  0  0  0  0  0  0  0  0  0
   44.2650   25.2760   43.0970 O   0  0  0  0  0  0  0  0  0  0  0  0
   42.1050   24.7880   43.0930 N   0  0  0  0  0  0  0  0  0  0  0  0
   40.8210   25.2010   43.2900 C   0  0  0  0  0  0  0  0  0  0  0  0
   39.9380   24.3030   43.0910 O   0  0  0  0  0  0  0  0  0  0  0  0
   42.3160   23.8160   42.8050 H   0  0  0  0  0  0  0  0  0  0  0  0
  1  6  1  6  0  0  0
  1  5  1  0  0  0  0
  2  1  1  0  0  0  0
  2  7  1  0  0  0  0
  2  3  1  0  0  0  0
  3 10  1  0  0  0  0
  3  4  1  0  0  0  0
  4 12  1  0  0  0  0
  4 11  1  0  0  0  0
  5 13  1  1  0  0  0
  5  4  1  0  0  0  0
  5 23  1  0  0  0  0
  8  2  1  0  0  0  0
  9  3  1  0  0  0  0
 14 20  1  0  0  0  0
 14 15  1  0  0  0  0
 15 21  1  0  0  0  0
 16 15  2  0  0  0  0
 16  1  1  0  0  0  0
 17 16  1  0  0  0  0
 18 19  1  0  0  0  0
 18 17  2  0  0  0  0
 19 14  2  0  0  0  0
 22 18  1  0  0  0  0
 23 24  1  0  0  0  0
 24 26  1  0  0  0  0
 25 24  2  0  0  0  0
 26 27  2  0  0  0  0
 27 28  1  0  0  0  0
 28 29  1  0  0  0  0
 30 28  1  0  0  0  0
 31 28  1  0  0  0  0
 31 32  1  0  0  0  0
 33 34  1  0  0  0  0
 33 32  2  0  0  0  0
 35 33  1  0  0  0  0
 36 35  2  0  0  0  0
 37 35  1  0  0  0  0
 37 38  1  0  0  0  0
 38 31  1  0  0  0  0
 39 38  2  0  0  0  0
 40 37  1  0  0  0  0
M  END
>  <minimizedAffinity>
-5.16065121

$$$$

 OpenBabel03242513533D

 40 42  0  0  1  0  0  0  0  0999 V2000
   37.5850   25.8530   42.5520 C   0  0  2  0  0  0  0  0  0  0  0  0
   36.6890   27.0510   42.4550 C   0  0  0  0  0  0  0  0  0  0  0  0
   37.2380   27.8740   43.6000 C   0  0  0  0  0  0  0  0  0  0  0  0
   38.6800   27.6590   43.5510 C   0  0  0  0  0  0  0  0  0  0  0  0
   38.9490   26.4950   42.4740 C   0  0  2  0  0  0  0  0  0  0  0  0
   37.5220   25.4040   43.5690 H   0  0  0  0  0  0  0  0  0  0  0  0
   36.8520   27.6310   41.5370 H   0  0  0  0  0  0  0  0  0  0  0  0
   35.6170   26.7990   42.6170 H   0  0  0  0  0  0  0  0  0  0  0  0
   36.8130   27.4540   44.5370 H   0  0  0  0  0  0  0  0  0  0  0  0
   36.8970   28.9310   43.5340 H   0  0  0  0  0  0  0  0  0  0  0  0
   39.2300   28.5550   43.1930 H   0  0  0  0  0  0  0  0  0  0  0  0
   39.1500   27.3390   44.4970 H   0  0  0  0  0  0  0  0  0  0  0  0
   39.7650   25.8800   42.8920 H   0  0  0  0  0  0  0  0  0  0  0  0
   37.7440   22.7830   40.3990 C   0  0  0  0  0  0  0  0  0  0  0  0
   38.0400   23.6450   41.4800 C   0  0  0  0  0  0  0  0  0  0  0  0
   37.4090   24.8440   41.4850 C   0  0  0  0  0  0  0  0  0  0  0  0
   36.5240   25.1570   40.4490 N   0  0  0  0  0  0  0  0  0  0  0  0
   36.2710   24.3180   39.4460 C   0  0  0  0  0  0  0  0  0  0  0  0
   36.8780   23.1310   39.4190 N   0  0  0  0  0  0  0  0  0  0  0  0
   38.2550   21.8290   40.4110 H   0  0  0  0  0  0  0  0  0  0  0  0
   38.7300   23.3710   42.2660 H   0  0  0  0  0  0  0  0  0  0  0  0
   35.5690   24.6580   38.6960 H   0  0  0  0  0  0  0  0  0  0  0  0
   39.1970   27.1240   41.2700 O   0  0  0  0  0  0  0  0  0  0  0  0
   39.8320   28.3220   41.0880 C   0  0  0  0  0  0  0  0  0  0  0  0
   41.0950   28.1080   41.2580 O   0  0  0  0  0  0  0  0  0  0  0  0
   39.7580   29.7610   40.7860 C   0  0  0  0  0  3  0  0  0  0  0  0
   39.4940   30.7880   41.6120 C   0  0  0  0  0  3  0  0  0  0  0  0
   39.4020   32.2510   41.3870 C   0  0  0  0  0  0  0  0  0  0  0  0
   38.3650   32.5710   41.1540 H   0  0  0  0  0  0  0  0  0  0  0  0
   39.6880   32.8190   42.2950 H   0  0  0  0  0  0  0  0  0  0  0  0
   40.3360   32.6300   40.3480 N   0  0  0  0  0  0  0  0  0  0  0  0
   41.6470   32.8350   40.5000 C   0  0  0  0  0  3  0  0  0  0  0  0
   42.3780   33.1950   39.3800 C   0  0  0  0  0  0  0  0  0  0  0  0
   43.4270   33.3610   39.4940 H   0  0  0  0  0  0  0  0  0  0  0  0
   41.7550   33.3330   38.1540 C   0  0  0  0  0  0  0  0  0  0  0  0
   42.3980   33.6590   37.1200 O   0  0  0  0  0  0  0  0  0  0  0  0
   40.4460   33.1240   38.0190 N   0  0  0  0  0  0  0  0  0  0  0  0
   39.7370   32.7710   39.1290 C   0  0  0  0  0  0  0  0  0  0  0  0
   38.4910   32.5870   38.9270 O   0  0  0  0  0  0  0  0  0  0  0  0
   39.9840   33.2280   37.1000 H   0  0  0  0  0  0  0  0  0  0  0  0
  1  6  1  1  0  0  0
  2  1  1  0  0  0  0
  2  8  1  0  0  0  0
  2  3  1  0  0  0  0
  3  9  1  0  0  0  0
  4  3  1  0  0  0  0
  4 12  1  0  0  0  0
  5  1  1  0  0  0  0
  5 13  1  1  0  0  0
  5  4  1  0  0  0  0
  7  2  1  0  0  0  0
 10  3  1  0  0  0  0
 11  4  1  0  0  0  0
 14 20  1  0  0  0  0
 14 15  1  0  0  0  0
 15 16  2  0  0  0  0
 15 21  1  0  0  0  0
 16  1  1  0  0  0  0
 17 16  1  0  0  0  0
 18 17  2  0  0  0  0
 19 18  1  0  0  0  0
 19 14  2  0  0  0  0
 22 18  1  0  0  0  0
 23  5  1  0  0  0  0
 24 25  2  0  0  0  0
 24 23  1  0  0  0  0
 26 24  1  0  0  0  0
 26 27  2  0  0  0  0
 28 27  1  0  0  0  0
 28 30  1  0  0  0  0
 29 28  1  0  0  0  0
 31 32  1  0  0  0  0
 31 28  1  0  0  0  0
 33 34  1  0  0  0  0
 33 32  2  0  0  0  0
 35 33  1  0  0  0  0
 36 35  2  0  0  0  0
 37 35  1  0  0  0  0
 37 38  1  0  0  0  0
 38 31  1  0  0  0  0
 39 38  2  0  0  0  0
 40 37  1  0  0  0  0
M  END
>  <minimizedAffinity>
-5.07911587

$$$$
