
 OpenBabel03252506453D

 37 39  0  0  1  0  0  0  0  0999 V2000
   49.4610   33.4620   41.3180 N   0  0  1  0  0  0  0  0  0  0  0  0
   50.6550   33.0510   42.0200 C   0  0  0  0  0  0  0  0  0  0  0  0
   51.2090   31.7290   41.5810 C   0  0  0  0  0  0  0  0  0  0  0  0
   50.2170   30.6370   41.9200 C   0  0  0  0  0  0  0  0  0  0  0  0
   48.8070   31.1270   41.7670 C   0  0  0  0  0  0  0  0  0  0  0  0
   48.7840   32.3190   40.8170 C   0  0  2  0  0  0  0  0  0  0  0  0
   50.3570   32.9190   43.0930 H   0  0  0  0  0  0  0  0  0  0  0  0
   51.4170   33.8540   41.9700 H   0  0  0  0  0  0  0  0  0  0  0  0
   51.5870   31.6960   40.5600 H   0  0  0  0  0  0  0  0  0  0  0  0
   52.1130   31.5580   42.2270 H   0  0  0  0  0  0  0  0  0  0  0  0
   50.4020   29.8260   41.1580 H   0  0  0  0  0  0  0  0  0  0  0  0
   50.3900   30.2150   42.9330 H   0  0  0  0  0  0  0  0  0  0  0  0
   48.1420   30.3740   41.3180 H   0  0  0  0  0  0  0  0  0  0  0  0
   48.4250   31.4740   42.7360 H   0  0  0  0  0  0  0  0  0  0  0  0
   47.6860   32.5630   40.7380 H   0  0  0  0  0  0  0  0  0  0  0  0
   47.3160   34.7440   41.9360 C   0  0  1  0  0  0  0  0  0  0  0  0
   48.4480   35.6810   41.7510 C   0  0  0  0  0  0  0  0  0  0  0  0
   48.7100   34.2910   42.1820 C   0  0  2  0  0  0  0  0  0  0  0  0
   46.8030   34.3630   41.0250 H   0  0  0  0  0  0  0  0  0  0  0  0
   48.6620   36.0030   40.7020 H   0  0  0  0  0  0  0  0  0  0  0  0
   48.5070   36.5290   42.4760 H   0  0  0  0  0  0  0  0  0  0  0  0
   48.9480   34.1760   43.2690 H   0  0  0  0  0  0  0  0  0  0  0  0
   45.5440   36.0550   43.1250 C   0  0  0  0  0  0  0  0  0  0  0  0
   46.3850   34.9310   43.0660 C   0  0  0  0  0  0  0  0  0  0  0  0
   46.3080   33.9880   44.1010 C   0  0  0  0  0  0  0  0  0  0  0  0
   45.4290   34.2090   45.1040 N   0  0  0  0  0  0  0  0  0  0  0  0
   44.6290   35.2970   45.1440 C   0  0  0  0  0  0  0  0  0  0  0  0
   44.6800   36.2250   44.1580 N   0  0  0  0  0  0  0  0  0  0  0  0
   45.6340   36.7580   42.3070 H   0  0  0  0  0  0  0  0  0  0  0  0
   46.9520   33.1040   44.0790 H   0  0  0  0  0  0  0  0  0  0  0  0
   43.9290   35.4530   45.9600 H   0  0  0  0  0  0  0  0  0  0  0  0
   49.2090   31.8820   39.5190 N   0  0  0  0  0  0  0  0  0  0  0  0
   50.1940   32.1830   39.2940 H   0  0  0  0  0  0  0  0  0  0  0  0
   48.1140   32.5310   38.3390 S   0  0  0  0  0  0  0  0  0  0  0  0
   46.4580   32.6270   38.9090 C   0  0  0  0  0  1  0  0  0  0  0  0
   48.6200   33.9160   37.9950 O   0  0  0  0  0  0  0  0  0  0  0  0
   48.1870   31.7000   37.0970 O   0  0  0  0  0  0  0  0  0  0  0  0
  1  2  1  1  0  0  0
  1 18  1  0  0  0  0
  2  7  1  0  0  0  0
  3  4  1  0  0  0  0
  3  2  1  0  0  0  0
  3 10  1  0  0  0  0
  4 12  1  0  0  0  0
  5  4  1  0  0  0  0
  5 14  1  0  0  0  0
  6 15  1  6  0  0  0
  6  1  1  0  0  0  0
  6  5  1  0  0  0  0
  8  2  1  0  0  0  0
  9  3  1  0  0  0  0
 11  4  1  0  0  0  0
 13  5  1  0  0  0  0
 16 19  1  6  0  0  0
 16 18  1  0  0  0  0
 16 24  1  0  0  0  0
 17 16  1  0  0  0  0
 17 18  1  0  0  0  0
 17 21  1  0  0  0  0
 18 22  1  1  0  0  0
 20 17  1  0  0  0  0
 23 28  1  0  0  0  0
 24 23  2  0  0  0  0
 24 25  1  0  0  0  0
 25 26  2  0  0  0  0
 26 27  1  0  0  0  0
 27 31  1  0  0  0  0
 28 27  2  0  0  0  0
 29 23  1  0  0  0  0
 30 25  1  0  0  0  0
 32  6  1  0  0  0  0
 33 32  1  0  0  0  0
 34 35  1  0  0  0  0
 34 32  1  0  0  0  0
 36 34  2  0  0  0  0
 37 34  2  0  0  0  0
M  END
>  <minimizedAffinity>
-4.69027615

>  <minimizedRMSD>
1.17014396

$$$$
