
 OpenBabel03252506453D

 37 39  0  0  1  0  0  0  0  0999 V2000
   49.4630   33.4740   41.3090 N   0  0  1  0  0  0  0  0  0  0  0  0
   50.6480   33.0450   42.0140 C   0  0  0  0  0  0  0  0  0  0  0  0
   51.1940   31.7230   41.5630 C   0  0  0  0  0  0  0  0  0  0  0  0
   50.1910   30.6350   41.8800 C   0  0  0  0  0  0  0  0  0  0  0  0
   48.7860   31.1400   41.7230 C   0  0  0  0  0  0  0  0  0  0  0  0
   48.7800   32.3430   40.7880 C   0  0  2  0  0  0  0  0  0  0  0  0
   50.3410   32.9010   43.0840 H   0  0  0  0  0  0  0  0  0  0  0  0
   51.4170   33.8420   41.9800 H   0  0  0  0  0  0  0  0  0  0  0  0
   51.5800   31.7000   40.5450 H   0  0  0  0  0  0  0  0  0  0  0  0
   52.0920   31.5370   42.2130 H   0  0  0  0  0  0  0  0  0  0  0  0
   50.3750   29.8330   41.1100 H   0  0  0  0  0  0  0  0  0  0  0  0
   50.3530   30.1990   42.8900 H   0  0  0  0  0  0  0  0  0  0  0  0
   48.1180   30.3970   41.2590 H   0  0  0  0  0  0  0  0  0  0  0  0
   48.3990   31.4770   42.6930 H   0  0  0  0  0  0  0  0  0  0  0  0
   47.6850   32.5980   40.7040 H   0  0  0  0  0  0  0  0  0  0  0  0
   47.3180   34.7540   41.9330 C   0  0  1  0  0  0  0  0  0  0  0  0
   48.4510   35.6910   41.7550 C   0  0  0  0  0  0  0  0  0  0  0  0
   48.7130   34.2990   42.1770 C   0  0  2  0  0  0  0  0  0  0  0  0
   46.8050   34.3800   41.0200 H   0  0  0  0  0  0  0  0  0  0  0  0
   48.6660   36.0200   40.7080 H   0  0  0  0  0  0  0  0  0  0  0  0
   48.5110   36.5350   42.4860 H   0  0  0  0  0  0  0  0  0  0  0  0
   48.9500   34.1770   43.2640 H   0  0  0  0  0  0  0  0  0  0  0  0
   45.5420   36.0560   43.1260 C   0  0  0  0  0  0  0  0  0  0  0  0
   46.3870   34.9350   43.0640 C   0  0  0  0  0  0  0  0  0  0  0  0
   46.3140   33.9890   44.0970 C   0  0  0  0  0  0  0  0  0  0  0  0
   45.4340   34.2040   45.1010 N   0  0  0  0  0  0  0  0  0  0  0  0
   44.6300   35.2880   45.1430 C   0  0  0  0  0  0  0  0  0  0  0  0
   44.6780   36.2200   44.1600 N   0  0  0  0  0  0  0  0  0  0  0  0
   45.6300   36.7610   42.3110 H   0  0  0  0  0  0  0  0  0  0  0  0
   46.9600   33.1070   44.0720 H   0  0  0  0  0  0  0  0  0  0  0  0
   43.9290   35.4400   45.9600 H   0  0  0  0  0  0  0  0  0  0  0  0
   49.2120   31.9200   39.4870 N   0  0  0  0  0  0  0  0  0  0  0  0
   50.1800   32.2630   39.2520 H   0  0  0  0  0  0  0  0  0  0  0  0
   48.0780   32.5140   38.3160 S   0  0  0  0  0  0  0  0  0  0  0  0
   48.2680   34.2240   37.9700 C   0  0  0  0  0  1  0  0  0  0  0  0
   48.3000   31.7080   37.0540 O   0  0  0  0  0  0  0  0  0  0  0  0
   46.6880   32.2340   38.7950 O   0  0  0  0  0  0  0  0  0  0  0  0
  1  2  1  1  0  0  0
  1 18  1  0  0  0  0
  2  7  1  0  0  0  0
  3  4  1  0  0  0  0
  3  2  1  0  0  0  0
  3 10  1  0  0  0  0
  4 12  1  0  0  0  0
  5  4  1  0  0  0  0
  5 14  1  0  0  0  0
  6 15  1  6  0  0  0
  6  1  1  0  0  0  0
  6  5  1  0  0  0  0
  8  2  1  0  0  0  0
  9  3  1  0  0  0  0
 11  4  1  0  0  0  0
 13  5  1  0  0  0  0
 16 19  1  6  0  0  0
 16 18  1  0  0  0  0
 16 24  1  0  0  0  0
 17 16  1  0  0  0  0
 17 18  1  0  0  0  0
 17 21  1  0  0  0  0
 18 22  1  1  0  0  0
 20 17  1  0  0  0  0
 23 28  1  0  0  0  0
 24 23  2  0  0  0  0
 24 25  1  0  0  0  0
 25 26  2  0  0  0  0
 26 27  1  0  0  0  0
 27 31  1  0  0  0  0
 28 27  2  0  0  0  0
 29 23  1  0  0  0  0
 30 25  1  0  0  0  0
 32  6  1  0  0  0  0
 33 32  1  0  0  0  0
 34 37  2  0  0  0  0
 34 32  1  0  0  0  0
 35 34  1  0  0  0  0
 36 34  2  0  0  0  0
M  END
>  <minimizedAffinity>
-4.76891613

>  <minimizedRMSD>
1.16977584

$$$$
