
 OpenBabel03252506453D

 37 39  0  0  1  0  0  0  0  0999 V2000
   49.4430   33.4700   41.2950 N   0  0  1  0  0  0  0  0  0  0  0  0
   50.6420   33.0520   41.9840 C   0  0  0  0  0  0  0  0  0  0  0  0
   51.1910   31.7320   41.5300 C   0  0  0  0  0  0  0  0  0  0  0  0
   50.2010   30.6390   41.8680 C   0  0  0  0  0  0  0  0  0  0  0  0
   48.7900   31.1320   41.7300 C   0  0  0  0  0  0  0  0  0  0  0  0
   48.7610   32.3310   40.7900 C   0  0  2  0  0  0  0  0  0  0  0  0
   50.3520   32.9110   43.0590 H   0  0  0  0  0  0  0  0  0  0  0  0
   51.4050   33.8550   41.9350 H   0  0  0  0  0  0  0  0  0  0  0  0
   51.5610   31.7070   40.5070 H   0  0  0  0  0  0  0  0  0  0  0  0
   52.0990   31.5560   42.1680 H   0  0  0  0  0  0  0  0  0  0  0  0
   50.3780   29.8340   41.0990 H   0  0  0  0  0  0  0  0  0  0  0  0
   50.3810   30.2080   42.8770 H   0  0  0  0  0  0  0  0  0  0  0  0
   48.1200   30.3830   41.2800 H   0  0  0  0  0  0  0  0  0  0  0  0
   48.4150   31.4710   42.7050 H   0  0  0  0  0  0  0  0  0  0  0  0
   47.6620   32.5770   40.7220 H   0  0  0  0  0  0  0  0  0  0  0  0
   47.3100   34.7630   41.9320 C   0  0  1  0  0  0  0  0  0  0  0  0
   48.4510   35.6910   41.7620 C   0  0  0  0  0  0  0  0  0  0  0  0
   48.7000   34.2930   42.1710 C   0  0  2  0  0  0  0  0  0  0  0  0
   46.7940   34.4000   41.0150 H   0  0  0  0  0  0  0  0  0  0  0  0
   48.6680   36.0270   40.7170 H   0  0  0  0  0  0  0  0  0  0  0  0
   48.5180   36.5280   42.4990 H   0  0  0  0  0  0  0  0  0  0  0  0
   48.9370   34.1590   43.2570 H   0  0  0  0  0  0  0  0  0  0  0  0
   45.5370   36.0630   43.1310 C   0  0  0  0  0  0  0  0  0  0  0  0
   46.3800   34.9410   43.0640 C   0  0  0  0  0  0  0  0  0  0  0  0
   46.3080   33.9920   44.0950 C   0  0  0  0  0  0  0  0  0  0  0  0
   45.4300   34.2060   45.1010 N   0  0  0  0  0  0  0  0  0  0  0  0
   44.6270   35.2910   45.1470 C   0  0  0  0  0  0  0  0  0  0  0  0
   44.6750   36.2250   44.1660 N   0  0  0  0  0  0  0  0  0  0  0  0
   45.6240   36.7700   42.3170 H   0  0  0  0  0  0  0  0  0  0  0  0
   46.9530   33.1100   44.0670 H   0  0  0  0  0  0  0  0  0  0  0  0
   43.9280   35.4410   45.9650 H   0  0  0  0  0  0  0  0  0  0  0  0
   49.1750   31.9050   39.4850 N   0  0  0  0  0  0  0  0  0  0  0  0
   50.1450   32.2400   39.2400 H   0  0  0  0  0  0  0  0  0  0  0  0
   48.0360   32.5100   38.3250 S   0  0  0  0  0  0  0  0  0  0  0  0
   48.4010   34.1350   37.7760 C   0  0  0  0  0  1  0  0  0  0  0  0
   48.0640   31.5530   37.1520 O   0  0  0  0  0  0  0  0  0  0  0  0
   46.6620   32.4600   38.9180 O   0  0  0  0  0  0  0  0  0  0  0  0
  1  2  1  1  0  0  0
  1 18  1  0  0  0  0
  2  7  1  0  0  0  0
  3  4  1  0  0  0  0
  3  2  1  0  0  0  0
  3 10  1  0  0  0  0
  4 12  1  0  0  0  0
  5  4  1  0  0  0  0
  5 14  1  0  0  0  0
  6 15  1  6  0  0  0
  6  1  1  0  0  0  0
  6  5  1  0  0  0  0
  8  2  1  0  0  0  0
  9  3  1  0  0  0  0
 11  4  1  0  0  0  0
 13  5  1  0  0  0  0
 16 19  1  6  0  0  0
 16 18  1  0  0  0  0
 16 24  1  0  0  0  0
 17 16  1  0  0  0  0
 17 18  1  0  0  0  0
 17 21  1  0  0  0  0
 18 22  1  1  0  0  0
 20 17  1  0  0  0  0
 23 28  1  0  0  0  0
 24 23  2  0  0  0  0
 24 25  1  0  0  0  0
 25 26  2  0  0  0  0
 26 27  1  0  0  0  0
 27 31  1  0  0  0  0
 28 27  2  0  0  0  0
 29 23  1  0  0  0  0
 30 25  1  0  0  0  0
 32  6  1  0  0  0  0
 33 32  1  0  0  0  0
 34 37  2  0  0  0  0
 34 32  1  0  0  0  0
 35 34  1  0  0  0  0
 36 34  2  0  0  0  0
M  END
>  <minimizedAffinity>
-4.75887251

>  <minimizedRMSD>
1.16851747

$$$$
