
 OpenBabel03252506453D

 37 39  0  0  1  0  0  0  0  0999 V2000
   49.4040   33.3210   41.4940 N   0  0  1  0  0  0  0  0  0  0  0  0
   50.6800   33.1320   42.1410 C   0  0  0  0  0  0  0  0  0  0  0  0
   51.3270   31.8070   41.8650 C   0  0  0  0  0  0  0  0  0  0  0  0
   50.4740   30.7050   42.4550 C   0  0  0  0  0  0  0  0  0  0  0  0
   49.0150   31.0440   42.3540 C   0  0  0  0  0  0  0  0  0  0  0  0
   48.8060   32.0590   41.2370 C   0  0  2  0  0  0  0  0  0  0  0  0
   50.4780   33.1500   43.2450 H   0  0  0  0  0  0  0  0  0  0  0  0
   51.3550   33.9780   41.9000 H   0  0  0  0  0  0  0  0  0  0  0  0
   51.6300   31.6410   40.8330 H   0  0  0  0  0  0  0  0  0  0  0  0
   52.2880   31.8210   42.4470 H   0  0  0  0  0  0  0  0  0  0  0  0
   50.6800   29.8000   41.8150 H   0  0  0  0  0  0  0  0  0  0  0  0
   50.7620   30.4690   43.5030 H   0  0  0  0  0  0  0  0  0  0  0  0
   48.3950   30.1740   42.0870 H   0  0  0  0  0  0  0  0  0  0  0  0
   48.6740   31.5090   43.2870 H   0  0  0  0  0  0  0  0  0  0  0  0
   47.6860   32.1940   41.2190 H   0  0  0  0  0  0  0  0  0  0  0  0
   47.2300   34.5970   42.0170 C   0  0  1  0  0  0  0  0  0  0  0  0
   48.3290   35.5420   41.7150 C   0  0  0  0  0  0  0  0  0  0  0  0
   48.6420   34.2130   42.2810 C   0  0  2  0  0  0  0  0  0  0  0  0
   46.7140   34.1080   41.1620 H   0  0  0  0  0  0  0  0  0  0  0  0
   48.5140   35.7600   40.6330 H   0  0  0  0  0  0  0  0  0  0  0  0
   48.3730   36.4630   42.3460 H   0  0  0  0  0  0  0  0  0  0  0  0
   48.9020   34.2190   43.3700 H   0  0  0  0  0  0  0  0  0  0  0  0
   45.5250   36.0360   43.1550 C   0  0  0  0  0  0  0  0  0  0  0  0
   46.3130   34.8730   43.1410 C   0  0  0  0  0  0  0  0  0  0  0  0
   46.1970   33.9780   44.2140 C   0  0  0  0  0  0  0  0  0  0  0  0
   45.3320   34.2800   45.2090 N   0  0  0  0  0  0  0  0  0  0  0  0
   44.5830   35.4040   45.2050 C   0  0  0  0  0  0  0  0  0  0  0  0
   44.6740   36.2880   44.1820 N   0  0  0  0  0  0  0  0  0  0  0  0
   45.6450   36.6990   42.3090 H   0  0  0  0  0  0  0  0  0  0  0  0
   46.7980   33.0640   44.2270 H   0  0  0  0  0  0  0  0  0  0  0  0
   43.8940   35.6260   46.0150 H   0  0  0  0  0  0  0  0  0  0  0  0
   49.1740   31.4550   39.9890 N   0  0  0  0  0  0  0  0  0  0  0  0
   49.8790   32.0300   39.4550 H   0  0  0  0  0  0  0  0  0  0  0  0
   47.7390   31.2540   39.0350 S   0  0  0  0  0  0  0  0  0  0  0  0
   47.9720   31.6410   37.3400 C   0  0  0  0  0  1  0  0  0  0  0  0
   47.3250   29.8060   39.1790 O   0  0  0  0  0  0  0  0  0  0  0  0
   46.6460   32.0980   39.6130 O   0  0  0  0  0  0  0  0  0  0  0  0
  1  2  1  1  0  0  0
  1 18  1  0  0  0  0
  2  7  1  0  0  0  0
  3  2  1  0  0  0  0
  3 10  1  0  0  0  0
  3  4  1  0  0  0  0
  4 12  1  0  0  0  0
  5  4  1  0  0  0  0
  5 14  1  0  0  0  0
  6 15  1  6  0  0  0
  6  1  1  0  0  0  0
  6  5  1  0  0  0  0
  8  2  1  0  0  0  0
  9  3  1  0  0  0  0
 11  4  1  0  0  0  0
 13  5  1  0  0  0  0
 16 19  1  6  0  0  0
 16 18  1  0  0  0  0
 16 24  1  0  0  0  0
 17 16  1  0  0  0  0
 17 18  1  0  0  0  0
 17 21  1  0  0  0  0
 18 22  1  1  0  0  0
 20 17  1  0  0  0  0
 23 28  1  0  0  0  0
 24 23  2  0  0  0  0
 24 25  1  0  0  0  0
 25 30  1  0  0  0  0
 25 26  2  0  0  0  0
 27 26  1  0  0  0  0
 27 31  1  0  0  0  0
 28 27  2  0  0  0  0
 29 23  1  0  0  0  0
 32  6  1  0  0  0  0
 33 32  1  0  0  0  0
 34 36  2  0  0  0  0
 34 37  2  0  0  0  0
 34 32  1  0  0  0  0
 35 34  1  0  0  0  0
M  END
>  <minimizedAffinity>
-4.47975016

>  <minimizedRMSD>
0.36397326

$$$$
