
 OpenBabel03252506453D

 37 39  0  0  1  0  0  0  0  0999 V2000
   49.6100   33.6680   41.3640 N   0  0  1  0  0  0  0  0  0  0  0  0
   50.6800   33.0780   42.1330 C   0  0  0  0  0  0  0  0  0  0  0  0
   51.1990   31.7830   41.5830 C   0  0  0  0  0  0  0  0  0  0  0  0
   50.1070   30.7380   41.6550 C   0  0  0  0  0  0  0  0  0  0  0  0
   48.7600   31.3540   41.4130 C   0  0  0  0  0  0  0  0  0  0  0  0
   48.9280   32.6560   40.6380 C   0  0  2  0  0  0  0  0  0  0  0  0
   50.2460   32.8320   43.1380 H   0  0  0  0  0  0  0  0  0  0  0  0
   51.4920   33.8180   42.2800 H   0  0  0  0  0  0  0  0  0  0  0  0
   51.6970   31.8510   40.6170 H   0  0  0  0  0  0  0  0  0  0  0  0
   52.0050   31.4600   42.2970 H   0  0  0  0  0  0  0  0  0  0  0  0
   50.3310   30.0200   40.8150 H   0  0  0  0  0  0  0  0  0  0  0  0
   50.1270   30.1770   42.6140 H   0  0  0  0  0  0  0  0  0  0  0  0
   48.1080   30.7190   40.7920 H   0  0  0  0  0  0  0  0  0  0  0  0
   48.2840   31.6030   42.3700 H   0  0  0  0  0  0  0  0  0  0  0  0
   47.8660   32.9940   40.4700 H   0  0  0  0  0  0  0  0  0  0  0  0
   47.4060   34.8420   41.9880 C   0  0  1  0  0  0  0  0  0  0  0  0
   48.5020   35.8280   41.8560 C   0  0  0  0  0  0  0  0  0  0  0  0
   48.8130   34.4360   42.2430 C   0  0  2  0  0  0  0  0  0  0  0  0
   46.9230   34.4740   41.0560 H   0  0  0  0  0  0  0  0  0  0  0  0
   48.7200   36.1960   40.8220 H   0  0  0  0  0  0  0  0  0  0  0  0
   48.5160   36.6530   42.6100 H   0  0  0  0  0  0  0  0  0  0  0  0
   49.0380   34.2930   43.3290 H   0  0  0  0  0  0  0  0  0  0  0  0
   45.5460   36.0260   43.1770 C   0  0  0  0  0  0  0  0  0  0  0  0
   46.4500   34.9520   43.1080 C   0  0  0  0  0  0  0  0  0  0  0  0
   46.4140   33.9860   44.1230 C   0  0  0  0  0  0  0  0  0  0  0  0
   45.5100   34.1350   45.1180 N   0  0  0  0  0  0  0  0  0  0  0  0
   44.6480   35.1750   45.1670 C   0  0  0  0  0  0  0  0  0  0  0  0
   44.6600   36.1250   44.2000 N   0  0  0  0  0  0  0  0  0  0  0  0
   45.6070   36.7490   42.3750 H   0  0  0  0  0  0  0  0  0  0  0  0
   47.1070   33.1400   44.0930 H   0  0  0  0  0  0  0  0  0  0  0  0
   43.9290   35.2740   45.9750 H   0  0  0  0  0  0  0  0  0  0  0  0
   49.4810   32.3580   39.3490 N   0  0  0  0  0  0  0  0  0  0  0  0
   50.4540   32.7440   39.2270 H   0  0  0  0  0  0  0  0  0  0  0  0
   48.4320   33.0230   38.1370 S   0  0  0  0  0  0  0  0  0  0  0  0
   48.9490   32.6670   36.5000 C   0  0  0  0  0  1  0  0  0  0  0  0
   47.0600   32.4310   38.3830 O   0  0  0  0  0  0  0  0  0  0  0  0
   48.3280   34.5030   38.3380 O   0  0  0  0  0  0  0  0  0  0  0  0
  1  2  1  1  0  0  0
  1 18  1  0  0  0  0
  2  8  1  0  0  0  0
  2  7  1  0  0  0  0
  3  4  1  0  0  0  0
  3  2  1  0  0  0  0
  3 10  1  0  0  0  0
  4 12  1  0  0  0  0
  5  4  1  0  0  0  0
  5 14  1  0  0  0  0
  6 15  1  6  0  0  0
  6  1  1  0  0  0  0
  6  5  1  0  0  0  0
  9  3  1  0  0  0  0
 11  4  1  0  0  0  0
 13  5  1  0  0  0  0
 16 19  1  6  0  0  0
 16 18  1  0  0  0  0
 16 24  1  0  0  0  0
 17 16  1  0  0  0  0
 17 18  1  0  0  0  0
 17 21  1  0  0  0  0
 18 22  1  1  0  0  0
 20 17  1  0  0  0  0
 23 28  1  0  0  0  0
 24 23  2  0  0  0  0
 24 25  1  0  0  0  0
 25 26  2  0  0  0  0
 26 27  1  0  0  0  0
 27 31  1  0  0  0  0
 28 27  2  0  0  0  0
 29 23  1  0  0  0  0
 30 25  1  0  0  0  0
 32  6  1  0  0  0  0
 33 32  1  0  0  0  0
 34 37  2  0  0  0  0
 34 36  2  0  0  0  0
 34 32  1  0  0  0  0
 35 34  1  0  0  0  0
M  END
>  <minimizedAffinity>
-4.94410753

>  <minimizedRMSD>
1.48133719

$$$$
