
 OpenBabel03252506453D

 37 39  0  0  1  0  0  0  0  0999 V2000
   49.4540   33.3710   41.4320 N   0  0  1  0  0  0  0  0  0  0  0  0
   50.6990   33.1030   42.1120 C   0  0  0  0  0  0  0  0  0  0  0  0
   51.3140   31.7760   41.7820 C   0  0  0  0  0  0  0  0  0  0  0  0
   50.4070   30.6700   42.2760 C   0  0  0  0  0  0  0  0  0  0  0  0
   48.9640   31.0610   42.1430 C   0  0  0  0  0  0  0  0  0  0  0  0
   48.8270   32.1450   41.0810 C   0  0  2  0  0  0  0  0  0  0  0  0
   50.4560   33.0650   43.2070 H   0  0  0  0  0  0  0  0  0  0  0  0
   51.4080   33.9390   41.9450 H   0  0  0  0  0  0  0  0  0  0  0  0
   51.6510   31.6600   40.7530 H   0  0  0  0  0  0  0  0  0  0  0  0
   52.2540   31.7250   42.3970 H   0  0  0  0  0  0  0  0  0  0  0  0
   50.6090   29.7970   41.5920 H   0  0  0  0  0  0  0  0  0  0  0  0
   50.6480   30.3650   43.3170 H   0  0  0  0  0  0  0  0  0  0  0  0
   48.3280   30.2290   41.8040 H   0  0  0  0  0  0  0  0  0  0  0  0
   48.6030   31.4830   43.0900 H   0  0  0  0  0  0  0  0  0  0  0  0
   47.7140   32.3170   41.0310 H   0  0  0  0  0  0  0  0  0  0  0  0
   47.2860   34.6490   41.9750 C   0  0  1  0  0  0  0  0  0  0  0  0
   48.3990   35.5930   41.7230 C   0  0  0  0  0  0  0  0  0  0  0  0
   48.6910   34.2400   42.2430 C   0  0  2  0  0  0  0  0  0  0  0  0
   46.7770   34.1990   41.0950 H   0  0  0  0  0  0  0  0  0  0  0  0
   48.6010   35.8500   40.6530 H   0  0  0  0  0  0  0  0  0  0  0  0
   48.4440   36.4880   42.3900 H   0  0  0  0  0  0  0  0  0  0  0  0
   48.9350   34.2020   43.3340 H   0  0  0  0  0  0  0  0  0  0  0  0
   45.5480   36.0400   43.1220 C   0  0  0  0  0  0  0  0  0  0  0  0
   46.3570   34.8920   43.0960 C   0  0  0  0  0  0  0  0  0  0  0  0
   46.2500   33.9790   44.1550 C   0  0  0  0  0  0  0  0  0  0  0  0
   45.3730   34.2510   45.1490 N   0  0  0  0  0  0  0  0  0  0  0  0
   44.6040   35.3610   45.1560 C   0  0  0  0  0  0  0  0  0  0  0  0
   44.6860   36.2620   44.1460 N   0  0  0  0  0  0  0  0  0  0  0  0
   45.6620   36.7180   42.2870 H   0  0  0  0  0  0  0  0  0  0  0  0
   46.8670   33.0760   44.1590 H   0  0  0  0  0  0  0  0  0  0  0  0
   43.9060   35.5590   45.9640 H   0  0  0  0  0  0  0  0  0  0  0  0
   49.2240   31.6020   39.8140 N   0  0  0  0  0  0  0  0  0  0  0  0
   49.7990   32.2790   39.2460 H   0  0  0  0  0  0  0  0  0  0  0  0
   47.7920   31.1690   38.9340 S   0  0  0  0  0  0  0  0  0  0  0  0
   46.3840   32.1100   39.3930 C   0  0  0  0  0  1  0  0  0  0  0  0
   48.1020   31.3910   37.4700 O   0  0  0  0  0  0  0  0  0  0  0  0
   47.5250   29.7090   39.1250 O   0  0  0  0  0  0  0  0  0  0  0  0
  1  2  1  1  0  0  0
  1 18  1  0  0  0  0
  2  7  1  0  0  0  0
  3  2  1  0  0  0  0
  3  4  1  0  0  0  0
  3 10  1  0  0  0  0
  4 12  1  0  0  0  0
  5  4  1  0  0  0  0
  5 14  1  0  0  0  0
  6 15  1  6  0  0  0
  6  1  1  0  0  0  0
  6  5  1  0  0  0  0
  8  2  1  0  0  0  0
  9  3  1  0  0  0  0
 11  4  1  0  0  0  0
 13  5  1  0  0  0  0
 16 19  1  6  0  0  0
 16 18  1  0  0  0  0
 16 24  1  0  0  0  0
 17 16  1  0  0  0  0
 17 18  1  0  0  0  0
 17 21  1  0  0  0  0
 18 22  1  1  0  0  0
 20 17  1  0  0  0  0
 23 28  1  0  0  0  0
 24 23  2  0  0  0  0
 24 25  1  0  0  0  0
 25 30  1  0  0  0  0
 25 26  2  0  0  0  0
 26 27  1  0  0  0  0
 27 31  1  0  0  0  0
 28 27  2  0  0  0  0
 29 23  1  0  0  0  0
 32  6  1  0  0  0  0
 33 32  1  0  0  0  0
 34 37  2  0  0  0  0
 34 35  1  0  0  0  0
 34 32  1  0  0  0  0
 36 34  2  0  0  0  0
M  END
>  <minimizedAffinity>
-4.49261189

>  <minimizedRMSD>
0.368786335

$$$$
