
 OpenBabel03252506453D

 37 39  0  0  1  0  0  0  0  0999 V2000
   49.4910   33.4260   41.4260 N   0  0  1  0  0  0  0  0  0  0  0  0
   50.7070   33.1120   42.1400 C   0  0  0  0  0  0  0  0  0  0  0  0
   51.3100   31.7860   41.7870 C   0  0  0  0  0  0  0  0  0  0  0  0
   50.3670   30.6810   42.2120 C   0  0  0  0  0  0  0  0  0  0  0  0
   48.9370   31.1040   42.0430 C   0  0  0  0  0  0  0  0  0  0  0  0
   48.8560   32.2250   41.0130 C   0  0  2  0  0  0  0  0  0  0  0  0
   50.4250   33.0430   43.2240 H   0  0  0  0  0  0  0  0  0  0  0  0
   51.4350   33.9400   42.0260 H   0  0  0  0  0  0  0  0  0  0  0  0
   51.6800   31.6970   40.7670 H   0  0  0  0  0  0  0  0  0  0  0  0
   52.2260   31.6970   42.4320 H   0  0  0  0  0  0  0  0  0  0  0  0
   50.5770   29.8280   41.5060 H   0  0  0  0  0  0  0  0  0  0  0  0
   50.5660   30.3380   43.2500 H   0  0  0  0  0  0  0  0  0  0  0  0
   48.2980   30.2950   41.6540 H   0  0  0  0  0  0  0  0  0  0  0  0
   48.5490   31.5010   42.9900 H   0  0  0  0  0  0  0  0  0  0  0  0
   47.7490   32.4190   40.9310 H   0  0  0  0  0  0  0  0  0  0  0  0
   47.3050   34.6700   41.9730 C   0  0  1  0  0  0  0  0  0  0  0  0
   48.4030   35.6310   41.7230 C   0  0  0  0  0  0  0  0  0  0  0  0
   48.7160   34.2820   42.2400 C   0  0  2  0  0  0  0  0  0  0  0  0
   46.8020   34.2140   41.0920 H   0  0  0  0  0  0  0  0  0  0  0  0
   48.6020   35.8930   40.6530 H   0  0  0  0  0  0  0  0  0  0  0  0
   48.4360   36.5260   42.3910 H   0  0  0  0  0  0  0  0  0  0  0  0
   48.9610   34.2450   43.3300 H   0  0  0  0  0  0  0  0  0  0  0  0
   45.5530   36.0380   43.1280 C   0  0  0  0  0  0  0  0  0  0  0  0
   46.3720   34.8970   43.0950 C   0  0  0  0  0  0  0  0  0  0  0  0
   46.2720   33.9760   44.1470 C   0  0  0  0  0  0  0  0  0  0  0  0
   45.3920   34.2330   45.1420 N   0  0  0  0  0  0  0  0  0  0  0  0
   44.6130   35.3370   45.1560 C   0  0  0  0  0  0  0  0  0  0  0  0
   44.6880   36.2450   44.1520 N   0  0  0  0  0  0  0  0  0  0  0  0
   45.6620   36.7230   42.2970 H   0  0  0  0  0  0  0  0  0  0  0  0
   46.8980   33.0790   44.1460 H   0  0  0  0  0  0  0  0  0  0  0  0
   43.9130   35.5220   45.9650 H   0  0  0  0  0  0  0  0  0  0  0  0
   49.2870   31.7160   39.7430 N   0  0  0  0  0  0  0  0  0  0  0  0
   50.2750   32.0010   39.5080 H   0  0  0  0  0  0  0  0  0  0  0  0
   48.2020   32.3050   38.5230 S   0  0  0  0  0  0  0  0  0  0  0  0
   48.2450   31.3620   37.0440 C   0  0  0  0  0  1  0  0  0  0  0  0
   46.8120   32.2560   39.1220 O   0  0  0  0  0  0  0  0  0  0  0  0
   48.5210   33.7380   38.2340 O   0  0  0  0  0  0  0  0  0  0  0  0
  1  2  1  1  0  0  0
  1 18  1  0  0  0  0
  2  7  1  0  0  0  0
  3  2  1  0  0  0  0
  3  4  1  0  0  0  0
  3 10  1  0  0  0  0
  4 12  1  0  0  0  0
  5  4  1  0  0  0  0
  5 14  1  0  0  0  0
  6 15  1  6  0  0  0
  6  1  1  0  0  0  0
  6  5  1  0  0  0  0
  8  2  1  0  0  0  0
  9  3  1  0  0  0  0
 11  4  1  0  0  0  0
 13  5  1  0  0  0  0
 16 19  1  6  0  0  0
 16 18  1  0  0  0  0
 16 24  1  0  0  0  0
 17 16  1  0  0  0  0
 17 18  1  0  0  0  0
 17 21  1  0  0  0  0
 18 22  1  1  0  0  0
 20 17  1  0  0  0  0
 23 28  1  0  0  0  0
 24 23  2  0  0  0  0
 24 25  1  0  0  0  0
 25 26  2  0  0  0  0
 26 27  1  0  0  0  0
 27 31  1  0  0  0  0
 28 27  2  0  0  0  0
 29 23  1  0  0  0  0
 30 25  1  0  0  0  0
 32  6  1  0  0  0  0
 33 32  1  0  0  0  0
 34 36  2  0  0  0  0
 34 32  1  0  0  0  0
 35 34  1  0  0  0  0
 37 34  2  0  0  0  0
M  END
>  <minimizedAffinity>
-4.68013954

>  <minimizedRMSD>
1.03146005

$$$$
