
 OpenBabel03252506453D

 37 39  0  0  1  0  0  0  0  0999 V2000
   49.4520   33.4880   41.3050 N   0  0  1  0  0  0  0  0  0  0  0  0
   50.6430   33.0580   42.0000 C   0  0  0  0  0  0  0  0  0  0  0  0
   51.1900   31.7410   41.5380 C   0  0  0  0  0  0  0  0  0  0  0  0
   50.1920   30.6480   41.8580 C   0  0  0  0  0  0  0  0  0  0  0  0
   48.7850   31.1500   41.7120 C   0  0  0  0  0  0  0  0  0  0  0  0
   48.7690   32.3580   40.7830 C   0  0  2  0  0  0  0  0  0  0  0  0
   50.3440   32.9080   43.0710 H   0  0  0  0  0  0  0  0  0  0  0  0
   51.4100   33.8580   41.9640 H   0  0  0  0  0  0  0  0  0  0  0  0
   51.5690   31.7230   40.5180 H   0  0  0  0  0  0  0  0  0  0  0  0
   52.0920   31.5540   42.1820 H   0  0  0  0  0  0  0  0  0  0  0  0
   50.3730   29.8500   41.0820 H   0  0  0  0  0  0  0  0  0  0  0  0
   50.3620   30.2080   42.8640 H   0  0  0  0  0  0  0  0  0  0  0  0
   48.1150   30.4080   41.2490 H   0  0  0  0  0  0  0  0  0  0  0  0
   48.4040   31.4810   42.6870 H   0  0  0  0  0  0  0  0  0  0  0  0
   47.6720   32.6090   40.7080 H   0  0  0  0  0  0  0  0  0  0  0  0
   47.3140   34.7730   41.9420 C   0  0  1  0  0  0  0  0  0  0  0  0
   48.4530   35.7050   41.7760 C   0  0  0  0  0  0  0  0  0  0  0  0
   48.7060   34.3060   42.1820 C   0  0  2  0  0  0  0  0  0  0  0  0
   46.8000   34.4120   41.0240 H   0  0  0  0  0  0  0  0  0  0  0  0
   48.6700   36.0450   40.7330 H   0  0  0  0  0  0  0  0  0  0  0  0
   48.5160   36.5400   42.5170 H   0  0  0  0  0  0  0  0  0  0  0  0
   48.9410   34.1700   43.2670 H   0  0  0  0  0  0  0  0  0  0  0  0
   45.5330   36.0620   43.1410 C   0  0  0  0  0  0  0  0  0  0  0  0
   46.3830   34.9450   43.0740 C   0  0  0  0  0  0  0  0  0  0  0  0
   46.3140   33.9950   44.1030 C   0  0  0  0  0  0  0  0  0  0  0  0
   45.4340   34.2020   45.1080 N   0  0  0  0  0  0  0  0  0  0  0  0
   44.6250   35.2840   45.1550 C   0  0  0  0  0  0  0  0  0  0  0  0
   44.6690   36.2190   44.1750 N   0  0  0  0  0  0  0  0  0  0  0  0
   45.6180   36.7710   42.3280 H   0  0  0  0  0  0  0  0  0  0  0  0
   46.9640   33.1150   44.0750 H   0  0  0  0  0  0  0  0  0  0  0  0
   43.9250   35.4290   45.9730 H   0  0  0  0  0  0  0  0  0  0  0  0
   49.1930   31.9410   39.4780 N   0  0  0  0  0  0  0  0  0  0  0  0
   50.1730   32.2580   39.2510 H   0  0  0  0  0  0  0  0  0  0  0  0
   48.0840   32.5890   38.3110 S   0  0  0  0  0  0  0  0  0  0  0  0
   48.4280   34.2540   37.8750 C   0  0  0  0  0  1  0  0  0  0  0  0
   48.1810   31.7060   37.0860 O   0  0  0  0  0  0  0  0  0  0  0  0
   46.6900   32.4720   38.8450 O   0  0  0  0  0  0  0  0  0  0  0  0
  1  2  1  1  0  0  0
  1 18  1  0  0  0  0
  2  7  1  0  0  0  0
  3  4  1  0  0  0  0
  3  2  1  0  0  0  0
  3 10  1  0  0  0  0
  4 12  1  0  0  0  0
  5  4  1  0  0  0  0
  5 14  1  0  0  0  0
  6 15  1  6  0  0  0
  6  1  1  0  0  0  0
  6  5  1  0  0  0  0
  8  2  1  0  0  0  0
  9  3  1  0  0  0  0
 11  4  1  0  0  0  0
 13  5  1  0  0  0  0
 16 19  1  6  0  0  0
 16 18  1  0  0  0  0
 16 24  1  0  0  0  0
 17 16  1  0  0  0  0
 17 18  1  0  0  0  0
 17 21  1  0  0  0  0
 18 22  1  1  0  0  0
 20 17  1  0  0  0  0
 23 28  1  0  0  0  0
 24 23  2  0  0  0  0
 24 25  1  0  0  0  0
 25 26  2  0  0  0  0
 26 27  1  0  0  0  0
 27 31  1  0  0  0  0
 28 27  2  0  0  0  0
 29 23  1  0  0  0  0
 30 25  1  0  0  0  0
 32  6  1  0  0  0  0
 33 32  1  0  0  0  0
 34 37  2  0  0  0  0
 34 32  1  0  0  0  0
 35 34  1  0  0  0  0
 36 34  2  0  0  0  0
M  END
>  <minimizedAffinity>
-4.75956249

>  <minimizedRMSD>
1.19911385

$$$$
