
 OpenBabel03252506453D

 37 39  0  0  1  0  0  0  0  0999 V2000
   49.4680   33.4110   41.3990 N   0  0  1  0  0  0  0  0  0  0  0  0
   50.6970   33.1030   42.0920 C   0  0  0  0  0  0  0  0  0  0  0  0
   51.2970   31.7770   41.7290 C   0  0  0  0  0  0  0  0  0  0  0  0
   50.3660   30.6710   42.1730 C   0  0  0  0  0  0  0  0  0  0  0  0
   48.9310   31.0890   42.0290 C   0  0  0  0  0  0  0  0  0  0  0  0
   48.8290   32.2080   41.0000 C   0  0  2  0  0  0  0  0  0  0  0  0
   50.4350   33.0340   43.1800 H   0  0  0  0  0  0  0  0  0  0  0  0
   51.4210   33.9320   41.9630 H   0  0  0  0  0  0  0  0  0  0  0  0
   51.6500   31.6880   40.7030 H   0  0  0  0  0  0  0  0  0  0  0  0
   52.2250   31.6920   42.3580 H   0  0  0  0  0  0  0  0  0  0  0  0
   50.5660   29.8170   41.4640 H   0  0  0  0  0  0  0  0  0  0  0  0
   50.5840   30.3290   43.2080 H   0  0  0  0  0  0  0  0  0  0  0  0
   48.2880   30.2770   41.6530 H   0  0  0  0  0  0  0  0  0  0  0  0
   48.5600   31.4860   42.9820 H   0  0  0  0  0  0  0  0  0  0  0  0
   47.7190   32.3980   40.9370 H   0  0  0  0  0  0  0  0  0  0  0  0
   47.3000   34.6800   41.9640 C   0  0  1  0  0  0  0  0  0  0  0  0
   48.4130   35.6280   41.7290 C   0  0  0  0  0  0  0  0  0  0  0  0
   48.7040   34.2670   42.2250 C   0  0  2  0  0  0  0  0  0  0  0  0
   46.7910   34.2460   41.0750 H   0  0  0  0  0  0  0  0  0  0  0  0
   48.6160   35.9040   40.6640 H   0  0  0  0  0  0  0  0  0  0  0  0
   48.4580   36.5120   42.4120 H   0  0  0  0  0  0  0  0  0  0  0  0
   48.9480   34.2090   43.3160 H   0  0  0  0  0  0  0  0  0  0  0  0
   45.5510   36.0450   43.1260 C   0  0  0  0  0  0  0  0  0  0  0  0
   46.3690   34.9030   43.0880 C   0  0  0  0  0  0  0  0  0  0  0  0
   46.2710   33.9790   44.1370 C   0  0  0  0  0  0  0  0  0  0  0  0
   45.3930   34.2330   45.1340 N   0  0  0  0  0  0  0  0  0  0  0  0
   44.6150   35.3370   45.1540 C   0  0  0  0  0  0  0  0  0  0  0  0
   44.6880   36.2490   44.1530 N   0  0  0  0  0  0  0  0  0  0  0  0
   45.6580   36.7330   42.2980 H   0  0  0  0  0  0  0  0  0  0  0  0
   46.8960   33.0810   44.1310 H   0  0  0  0  0  0  0  0  0  0  0  0
   43.9160   35.5200   45.9650 H   0  0  0  0  0  0  0  0  0  0  0  0
   49.2380   31.6990   39.7220 N   0  0  0  0  0  0  0  0  0  0  0  0
   50.2310   31.9600   39.4830 H   0  0  0  0  0  0  0  0  0  0  0  0
   48.1610   32.3240   38.5140 S   0  0  0  0  0  0  0  0  0  0  0  0
   48.0770   31.3230   37.0750 C   0  0  0  0  0  1  0  0  0  0  0  0
   46.7930   32.4110   39.1590 O   0  0  0  0  0  0  0  0  0  0  0  0
   48.5820   33.7140   38.1550 O   0  0  0  0  0  0  0  0  0  0  0  0
  1  2  1  1  0  0  0
  1 18  1  0  0  0  0
  2  7  1  0  0  0  0
  3  2  1  0  0  0  0
  3  4  1  0  0  0  0
  3 10  1  0  0  0  0
  4 12  1  0  0  0  0
  5  4  1  0  0  0  0
  5 14  1  0  0  0  0
  6 15  1  6  0  0  0
  6  1  1  0  0  0  0
  6  5  1  0  0  0  0
  8  2  1  0  0  0  0
  9  3  1  0  0  0  0
 11  4  1  0  0  0  0
 13  5  1  0  0  0  0
 16 19  1  6  0  0  0
 16 18  1  0  0  0  0
 16 24  1  0  0  0  0
 17 16  1  0  0  0  0
 17 18  1  0  0  0  0
 17 21  1  0  0  0  0
 18 22  1  1  0  0  0
 20 17  1  0  0  0  0
 23 28  1  0  0  0  0
 24 23  2  0  0  0  0
 24 25  1  0  0  0  0
 25 26  2  0  0  0  0
 26 27  1  0  0  0  0
 27 31  1  0  0  0  0
 28 27  2  0  0  0  0
 29 23  1  0  0  0  0
 30 25  1  0  0  0  0
 32  6  1  0  0  0  0
 33 32  1  0  0  0  0
 34 36  2  0  0  0  0
 34 32  1  0  0  0  0
 35 34  1  0  0  0  0
 37 34  2  0  0  0  0
M  END
>  <minimizedAffinity>
-4.68521595

>  <minimizedRMSD>
1.04439211

$$$$
