
 OpenBabel03252506453D

 37 39  0  0  1  0  0  0  0  0999 V2000
   49.3800   33.3000   41.4850 N   0  0  1  0  0  0  0  0  0  0  0  0
   50.6740   33.1350   42.1040 C   0  0  0  0  0  0  0  0  0  0  0  0
   51.3290   31.8130   41.8310 C   0  0  0  0  0  0  0  0  0  0  0  0
   50.5040   30.7110   42.4590 C   0  0  0  0  0  0  0  0  0  0  0  0
   49.0400   31.0310   42.3890 C   0  0  0  0  0  0  0  0  0  0  0  0
   48.7900   32.0270   41.2630 C   0  0  2  0  0  0  0  0  0  0  0  0
   50.4990   33.1680   43.2110 H   0  0  0  0  0  0  0  0  0  0  0  0
   51.3330   33.9840   41.8330 H   0  0  0  0  0  0  0  0  0  0  0  0
   51.6080   31.6350   40.7940 H   0  0  0  0  0  0  0  0  0  0  0  0
   52.3040   31.8470   42.3880 H   0  0  0  0  0  0  0  0  0  0  0  0
   50.7050   29.7980   41.8280 H   0  0  0  0  0  0  0  0  0  0  0  0
   50.8210   30.4940   43.5020 H   0  0  0  0  0  0  0  0  0  0  0  0
   48.4230   30.1500   42.1510 H   0  0  0  0  0  0  0  0  0  0  0  0
   48.7160   31.5070   43.3240 H   0  0  0  0  0  0  0  0  0  0  0  0
   47.6700   32.1480   41.2710 H   0  0  0  0  0  0  0  0  0  0  0  0
   47.2190   34.5930   42.0170 C   0  0  1  0  0  0  0  0  0  0  0  0
   48.3260   35.5290   41.7180 C   0  0  0  0  0  0  0  0  0  0  0  0
   48.6280   34.1950   42.2780 C   0  0  2  0  0  0  0  0  0  0  0  0
   46.6970   34.1140   41.1590 H   0  0  0  0  0  0  0  0  0  0  0  0
   48.5130   35.7510   40.6380 H   0  0  0  0  0  0  0  0  0  0  0  0
   48.3800   36.4460   42.3550 H   0  0  0  0  0  0  0  0  0  0  0  0
   48.8880   34.1930   43.3660 H   0  0  0  0  0  0  0  0  0  0  0  0
   45.5190   36.0370   43.1580 C   0  0  0  0  0  0  0  0  0  0  0  0
   46.3050   34.8720   43.1430 C   0  0  0  0  0  0  0  0  0  0  0  0
   46.1910   33.9790   44.2170 C   0  0  0  0  0  0  0  0  0  0  0  0
   45.3290   34.2840   45.2140 N   0  0  0  0  0  0  0  0  0  0  0  0
   44.5820   35.4090   45.2110 C   0  0  0  0  0  0  0  0  0  0  0  0
   44.6710   36.2910   44.1860 N   0  0  0  0  0  0  0  0  0  0  0  0
   45.6380   36.6990   42.3110 H   0  0  0  0  0  0  0  0  0  0  0  0
   46.7910   33.0640   44.2300 H   0  0  0  0  0  0  0  0  0  0  0  0
   43.8960   35.6330   46.0230 H   0  0  0  0  0  0  0  0  0  0  0  0
   49.1350   31.4080   40.0150 N   0  0  0  0  0  0  0  0  0  0  0  0
   49.7810   32.0050   39.4330 H   0  0  0  0  0  0  0  0  0  0  0  0
   47.6710   31.1000   39.1360 S   0  0  0  0  0  0  0  0  0  0  0  0
   47.8750   31.1910   37.3960 C   0  0  0  0  0  1  0  0  0  0  0  0
   47.2170   29.7090   39.5280 O   0  0  0  0  0  0  0  0  0  0  0  0
   46.6180   32.0640   39.5850 O   0  0  0  0  0  0  0  0  0  0  0  0
  1  2  1  1  0  0  0
  1 18  1  0  0  0  0
  2  7  1  0  0  0  0
  3  2  1  0  0  0  0
  3 10  1  0  0  0  0
  3  4  1  0  0  0  0
  4 12  1  0  0  0  0
  5  4  1  0  0  0  0
  5 14  1  0  0  0  0
  6 15  1  6  0  0  0
  6  1  1  0  0  0  0
  6  5  1  0  0  0  0
  8  2  1  0  0  0  0
  9  3  1  0  0  0  0
 11  4  1  0  0  0  0
 13  5  1  0  0  0  0
 16 19  1  6  0  0  0
 16 18  1  0  0  0  0
 16 24  1  0  0  0  0
 17 16  1  0  0  0  0
 17 18  1  0  0  0  0
 17 21  1  0  0  0  0
 18 22  1  1  0  0  0
 20 17  1  0  0  0  0
 23 28  1  0  0  0  0
 24 23  2  0  0  0  0
 24 25  1  0  0  0  0
 25 30  1  0  0  0  0
 25 26  2  0  0  0  0
 27 26  1  0  0  0  0
 27 31  1  0  0  0  0
 28 27  2  0  0  0  0
 29 23  1  0  0  0  0
 32  6  1  0  0  0  0
 33 32  1  0  0  0  0
 34 36  2  0  0  0  0
 34 37  2  0  0  0  0
 34 32  1  0  0  0  0
 35 34  1  0  0  0  0
M  END
>  <minimizedAffinity>
-4.45869589

>  <minimizedRMSD>
0.219586834

$$$$
