
 OpenBabel03252506453D

 37 39  0  0  1  0  0  0  0  0999 V2000
   49.4410   33.3760   41.4190 N   0  0  1  0  0  0  0  0  0  0  0  0
   50.6900   33.1010   42.0890 C   0  0  0  0  0  0  0  0  0  0  0  0
   51.3010   31.7760   41.7450 C   0  0  0  0  0  0  0  0  0  0  0  0
   50.3960   30.6680   42.2370 C   0  0  0  0  0  0  0  0  0  0  0  0
   48.9530   31.0620   42.1170 C   0  0  0  0  0  0  0  0  0  0  0  0
   48.8100   32.1540   41.0630 C   0  0  2  0  0  0  0  0  0  0  0  0
   50.4540   33.0550   43.1850 H   0  0  0  0  0  0  0  0  0  0  0  0
   51.3990   33.9370   41.9230 H   0  0  0  0  0  0  0  0  0  0  0  0
   51.6310   31.6670   40.7130 H   0  0  0  0  0  0  0  0  0  0  0  0
   52.2440   31.7190   42.3540 H   0  0  0  0  0  0  0  0  0  0  0  0
   50.5920   29.7990   41.5450 H   0  0  0  0  0  0  0  0  0  0  0  0
   50.6430   30.3550   43.2750 H   0  0  0  0  0  0  0  0  0  0  0  0
   48.3130   30.2330   41.7750 H   0  0  0  0  0  0  0  0  0  0  0  0
   48.5980   31.4780   43.0680 H   0  0  0  0  0  0  0  0  0  0  0  0
   47.6970   32.3280   41.0220 H   0  0  0  0  0  0  0  0  0  0  0  0
   47.2830   34.6640   41.9780 C   0  0  1  0  0  0  0  0  0  0  0  0
   48.4040   35.6020   41.7390 C   0  0  0  0  0  0  0  0  0  0  0  0
   48.6840   34.2400   42.2410 C   0  0  2  0  0  0  0  0  0  0  0  0
   46.7710   34.2300   41.0910 H   0  0  0  0  0  0  0  0  0  0  0  0
   48.6090   35.8720   40.6730 H   0  0  0  0  0  0  0  0  0  0  0  0
   48.4560   36.4880   42.4180 H   0  0  0  0  0  0  0  0  0  0  0  0
   48.9280   34.1850   43.3320 H   0  0  0  0  0  0  0  0  0  0  0  0
   45.5430   36.0460   43.1330 C   0  0  0  0  0  0  0  0  0  0  0  0
   46.3550   34.8990   43.1010 C   0  0  0  0  0  0  0  0  0  0  0  0
   46.2520   33.9820   44.1570 C   0  0  0  0  0  0  0  0  0  0  0  0
   45.3770   34.2470   45.1520 N   0  0  0  0  0  0  0  0  0  0  0  0
   44.6040   35.3550   45.1660 C   0  0  0  0  0  0  0  0  0  0  0  0
   44.6820   36.2600   44.1600 N   0  0  0  0  0  0  0  0  0  0  0  0
   45.6530   36.7270   42.3010 H   0  0  0  0  0  0  0  0  0  0  0  0
   46.8730   33.0810   44.1560 H   0  0  0  0  0  0  0  0  0  0  0  0
   43.9070   35.5470   45.9770 H   0  0  0  0  0  0  0  0  0  0  0  0
   49.1980   31.6200   39.7890 N   0  0  0  0  0  0  0  0  0  0  0  0
   50.1800   31.8910   39.5190 H   0  0  0  0  0  0  0  0  0  0  0  0
   48.0800   32.1950   38.5930 S   0  0  0  0  0  0  0  0  0  0  0  0
   46.4280   32.2900   39.1770 C   0  0  0  0  0  1  0  0  0  0  0  0
   48.5580   33.5710   38.1820 O   0  0  0  0  0  0  0  0  0  0  0  0
   48.1540   31.3100   37.3890 O   0  0  0  0  0  0  0  0  0  0  0  0
  1  2  1  1  0  0  0
  1 18  1  0  0  0  0
  2  7  1  0  0  0  0
  3  2  1  0  0  0  0
  3  4  1  0  0  0  0
  3 10  1  0  0  0  0
  4 12  1  0  0  0  0
  5  4  1  0  0  0  0
  5 14  1  0  0  0  0
  6 15  1  6  0  0  0
  6  1  1  0  0  0  0
  6  5  1  0  0  0  0
  8  2  1  0  0  0  0
  9  3  1  0  0  0  0
 11  4  1  0  0  0  0
 13  5  1  0  0  0  0
 16 19  1  6  0  0  0
 16 18  1  0  0  0  0
 16 24  1  0  0  0  0
 17 16  1  0  0  0  0
 17 18  1  0  0  0  0
 17 21  1  0  0  0  0
 18 22  1  1  0  0  0
 20 17  1  0  0  0  0
 23 28  1  0  0  0  0
 24 23  2  0  0  0  0
 24 25  1  0  0  0  0
 25 26  2  0  0  0  0
 26 27  1  0  0  0  0
 27 31  1  0  0  0  0
 28 27  2  0  0  0  0
 29 23  1  0  0  0  0
 30 25  1  0  0  0  0
 32  6  1  0  0  0  0
 33 32  1  0  0  0  0
 34 35  1  0  0  0  0
 34 32  1  0  0  0  0
 36 34  2  0  0  0  0
 37 34  2  0  0  0  0
M  END
>  <minimizedAffinity>
-4.65688086

>  <minimizedRMSD>
0.948452294

$$$$
