
 OpenBabel03242511063D

 22 23  0  0  1  0  0  0  0  0999 V2000
   45.8760   32.5450   44.4000 C   0  0  1  0  0  0  0  0  0  0  0  0
   47.2270   32.1560   44.9190 C   0  0  0  0  0  0  0  0  0  0  0  0
   45.9510   32.0320   45.7720 C   0  0  2  0  0  0  0  0  0  0  0  0
   45.4520   31.8870   43.6140 H   0  0  0  0  0  0  0  0  0  0  0  0
   47.8920   33.0240   45.0800 H   0  0  0  0  0  0  0  0  0  0  0  0
   47.6540   31.2260   44.5210 H   0  0  0  0  0  0  0  0  0  0  0  0
   45.9340   32.8250   46.5830 H   0  0  0  0  0  0  0  0  0  0  0  0
   44.5860   35.9910   44.8690 C   0  0  0  0  0  0  0  0  0  0  0  0
   44.9860   36.6080   43.6330 C   0  0  0  0  0  0  0  0  0  0  0  0
   45.6970   35.8140   42.6780 C   0  0  0  0  0  0  0  0  0  0  0  0
   45.9630   34.5350   42.9640 N   0  0  0  0  0  0  0  0  0  0  0  0
   45.5660   33.9830   44.1550 C   0  0  0  0  0  0  0  0  0  0  0  0
   44.8870   34.7110   45.0890 N   0  0  0  0  0  0  0  0  0  0  0  0
   44.0580   36.5790   45.5790 H   0  0  0  0  0  0  0  0  0  0  0  0
   44.7250   37.6490   43.4890 H   0  0  0  0  0  0  0  0  0  0  0  0
   45.9760   36.3210   41.7640 H   0  0  0  0  0  0  0  0  0  0  0  0
   45.5520   30.7060   46.1090 N   0  0  0  0  0  0  0  0  0  0  0  0
   44.6500   30.4300   45.6990 H   0  0  0  0  0  0  0  0  0  0  0  0
   45.6210   30.2760   47.7480 S   0  0  0  0  0  0  0  0  0  0  0  0
   45.0780   28.6500   48.0980 C   0  0  0  0  0  1  0  0  0  0  0  0
   47.0030   30.4580   48.3490 O   0  0  0  0  0  0  0  0  0  0  0  0
   44.7180   31.2310   48.4920 O   0  0  0  0  0  0  0  0  0  0  0  0
  1  4  1  6  0  0  0
  1  2  1  0  0  0  0
  1  3  1  0  0  0  0
  2  5  1  0  0  0  0
  2  3  1  0  0  0  0
  3 17  1  0  0  0  0
  3  7  1  1  0  0  0
  6  2  1  0  0  0  0
  8 13  1  0  0  0  0
  8 14  1  0  0  0  0
  9  8  2  0  0  0  0
 10 11  2  0  0  0  0
 10  9  1  0  0  0  0
 11 12  1  0  0  0  0
 12  1  1  0  0  0  0
 12 13  2  0  0  0  0
 15  9  1  0  0  0  0
 16 10  1  0  0  0  0
 17 19  1  0  0  0  0
 18 17  1  0  0  0  0
 19 20  1  0  0  0  0
 19 21  2  0  0  0  0
 19 22  2  0  0  0  0
M  END
>  <minimizedAffinity>
-3.71098161

>  <minimizedRMSD>
2.08534861

$$$$
