
 OpenBabel03242511063D

 22 23  0  0  1  0  0  0  0  0999 V2000
   45.8540   32.4850   44.6720 C   0  0  1  0  0  0  0  0  0  0  0  0
   47.1870   32.1210   45.2530 C   0  0  0  0  0  0  0  0  0  0  0  0
   45.8920   32.0990   46.0870 C   0  0  2  0  0  0  0  0  0  0  0  0
   45.4320   31.7640   43.9410 H   0  0  0  0  0  0  0  0  0  0  0  0
   47.8660   32.9870   45.3480 H   0  0  0  0  0  0  0  0  0  0  0  0
   47.6030   31.1500   44.9510 H   0  0  0  0  0  0  0  0  0  0  0  0
   45.8750   32.9640   46.8210 H   0  0  0  0  0  0  0  0  0  0  0  0
   44.6110   35.9780   44.7890 C   0  0  0  0  0  0  0  0  0  0  0  0
   45.0610   36.4750   43.5160 C   0  0  0  0  0  0  0  0  0  0  0  0
   45.7870   35.5880   42.6600 C   0  0  0  0  0  0  0  0  0  0  0  0
   46.0220   34.3360   43.0680 N   0  0  0  0  0  0  0  0  0  0  0  0
   45.5780   33.8990   44.2900 C   0  0  0  0  0  0  0  0  0  0  0  0
   44.8820   34.7180   45.1320 N   0  0  0  0  0  0  0  0  0  0  0  0
   44.0720   36.6350   45.4260 H   0  0  0  0  0  0  0  0  0  0  0  0
   44.8240   37.5030   43.2720 H   0  0  0  0  0  0  0  0  0  0  0  0
   46.1040   36.0070   41.7140 H   0  0  0  0  0  0  0  0  0  0  0  0
   45.4600   30.8170   46.5350 N   0  0  0  0  0  0  0  0  0  0  0  0
   44.4850   30.6020   46.2920 H   0  0  0  0  0  0  0  0  0  0  0  0
   45.7730   30.4250   48.1550 S   0  0  0  0  0  0  0  0  0  0  0  0
   45.5400   31.7430   49.2820 C   0  0  0  0  0  1  0  0  0  0  0  0
   44.9670   29.2330   48.6400 O   0  0  0  0  0  0  0  0  0  0  0  0
   47.2210   30.0030   48.2340 O   0  0  0  0  0  0  0  0  0  0  0  0
  1  4  1  6  0  0  0
  1  2  1  0  0  0  0
  1  3  1  0  0  0  0
  2  5  1  0  0  0  0
  2  3  1  0  0  0  0
  3 17  1  0  0  0  0
  3  7  1  1  0  0  0
  6  2  1  0  0  0  0
  8 13  1  0  0  0  0
  8 14  1  0  0  0  0
  9  8  2  0  0  0  0
 10 11  2  0  0  0  0
 10  9  1  0  0  0  0
 11 12  1  0  0  0  0
 12  1  1  0  0  0  0
 12 13  2  0  0  0  0
 15  9  1  0  0  0  0
 16 10  1  0  0  0  0
 17 19  1  0  0  0  0
 18 17  1  0  0  0  0
 19 22  2  0  0  0  0
 19 21  2  0  0  0  0
 19 20  1  0  0  0  0
M  END
>  <minimizedAffinity>
-3.94923949

>  <minimizedRMSD>
2.03249907

$$$$
