
 OpenBabel03242511063D

 22 23  0  0  1  0  0  0  0  0999 V2000
   37.5220   27.3360   42.5920 C   0  0  1  0  0  0  0  0  0  0  0  0
   36.5060   27.5180   43.6790 C   0  0  0  0  0  0  0  0  0  0  0  0
   37.3430   28.6890   43.1320 C   0  0  2  0  0  0  0  0  0  0  0  0
   37.1170   27.1140   41.5830 H   0  0  0  0  0  0  0  0  0  0  0  0
   36.8070   27.0480   44.6330 H   0  0  0  0  0  0  0  0  0  0  0  0
   35.4510   27.4720   43.3740 H   0  0  0  0  0  0  0  0  0  0  0  0
   38.1220   29.0110   43.8910 H   0  0  0  0  0  0  0  0  0  0  0  0
   39.9480   24.5480   42.9110 C   0  0  0  0  0  0  0  0  0  0  0  0
   41.0910   25.2350   43.4500 C   0  0  0  0  0  0  0  0  0  0  0  0
   40.9890   26.6430   43.6800 C   0  0  0  0  0  0  0  0  0  0  0  0
   39.8430   27.2700   43.3880 N   0  0  0  0  0  0  0  0  0  0  0  0
   38.7750   26.5800   42.8740 C   0  0  0  0  0  0  0  0  0  0  0  0
   38.8380   25.2360   42.6410 N   0  0  0  0  0  0  0  0  0  0  0  0
   40.0220   23.5020   42.7400 H   0  0  0  0  0  0  0  0  0  0  0  0
   41.9740   24.6440   43.6560 H   0  0  0  0  0  0  0  0  0  0  0  0
   41.8730   27.1160   44.0860 H   0  0  0  0  0  0  0  0  0  0  0  0
   36.6210   29.6970   42.4280 N   0  0  0  0  0  0  0  0  0  0  0  0
   35.6680   29.4140   42.1660 H   0  0  0  0  0  0  0  0  0  0  0  0
   37.4080   30.4330   41.1200 S   0  0  0  0  0  0  0  0  0  0  0  0
   39.0600   30.9140   41.4380 C   0  0  0  0  0  1  0  0  0  0  0  0
   37.3930   29.5790   39.8650 O   0  0  0  0  0  0  0  0  0  0  0  0
   36.6250   31.6790   40.7800 O   0  0  0  0  0  0  0  0  0  0  0  0
  1  4  1  6  0  0  0
  1 12  1  0  0  0  0
  1  3  1  0  0  0  0
  1  2  1  0  0  0  0
  2  5  1  0  0  0  0
  3  2  1  0  0  0  0
  3  7  1  1  0  0  0
  6  2  1  0  0  0  0
  8  9  1  0  0  0  0
  9 15  1  0  0  0  0
  9 10  2  0  0  0  0
 10 16  1  0  0  0  0
 11 10  1  0  0  0  0
 12 11  2  0  0  0  0
 13 12  1  0  0  0  0
 13  8  2  0  0  0  0
 14  8  1  0  0  0  0
 17  3  1  0  0  0  0
 18 17  1  0  0  0  0
 19 20  1  0  0  0  0
 19 17  1  0  0  0  0
 21 19  2  0  0  0  0
 22 19  2  0  0  0  0
M  END
>  <minimizedAffinity>
-4.18174171

$$$$

 OpenBabel03242511063D

 22 23  0  0  1  0  0  0  0  0999 V2000
   36.7300   27.2510   42.2210 C   0  0  1  0  0  0  0  0  0  0  0  0
   36.6640   27.5870   43.6800 C   0  0  0  0  0  0  0  0  0  0  0  0
   37.4270   28.4620   42.6680 C   0  0  2  0  0  0  0  0  0  0  0  0
   35.7830   27.3670   41.6540 H   0  0  0  0  0  0  0  0  0  0  0  0
   37.2350   26.8810   44.3100 H   0  0  0  0  0  0  0  0  0  0  0  0
   35.7040   27.9720   44.0490 H   0  0  0  0  0  0  0  0  0  0  0  0
   38.5470   28.3490   42.8070 H   0  0  0  0  0  0  0  0  0  0  0  0
   39.4520   25.1630   40.8080 C   0  0  0  0  0  0  0  0  0  0  0  0
   38.8810   23.8480   40.9250 C   0  0  0  0  0  0  0  0  0  0  0  0
   37.5750   23.7240   41.4960 C   0  0  0  0  0  0  0  0  0  0  0  0
   36.9330   24.8260   41.8990 N   0  0  0  0  0  0  0  0  0  0  0  0
   37.5110   26.0630   41.7720 C   0  0  0  0  0  0  0  0  0  0  0  0
   38.7550   26.2180   41.2330 N   0  0  0  0  0  0  0  0  0  0  0  0
   40.4210   25.2570   40.3850 H   0  0  0  0  0  0  0  0  0  0  0  0
   39.4750   23.0150   40.5710 H   0  0  0  0  0  0  0  0  0  0  0  0
   37.1880   22.7160   41.5630 H   0  0  0  0  0  0  0  0  0  0  0  0
   36.8970   29.7670   42.4480 N   0  0  0  0  0  0  0  0  0  0  0  0
   36.0500   29.9660   42.9960 H   0  0  0  0  0  0  0  0  0  0  0  0
   36.6940   30.2510   40.8350 S   0  0  0  0  0  0  0  0  0  0  0  0
   37.9300   29.6760   39.7390 C   0  0  0  0  0  1  0  0  0  0  0  0
   35.3380   29.8690   40.2700 O   0  0  0  0  0  0  0  0  0  0  0  0
   36.7360   31.7610   40.8210 O   0  0  0  0  0  0  0  0  0  0  0  0
  1  4  1  6  0  0  0
  1  3  1  0  0  0  0
  1  2  1  0  0  0  0
  2  6  1  0  0  0  0
  2  5  1  0  0  0  0
  3  7  1  1  0  0  0
  3  2  1  0  0  0  0
  8  9  2  0  0  0  0
  8 13  1  0  0  0  0
  9 10  1  0  0  0  0
 10 16  1  0  0  0  0
 10 11  2  0  0  0  0
 12 11  1  0  0  0  0
 12  1  1  0  0  0  0
 13 12  2  0  0  0  0
 14  8  1  0  0  0  0
 15  9  1  0  0  0  0
 17  3  1  0  0  0  0
 17 18  1  0  0  0  0
 19 17  1  0  0  0  0
 20 19  1  0  0  0  0
 21 19  2  0  0  0  0
 22 19  2  0  0  0  0
M  END
>  <minimizedAffinity>
-4.12639999

$$$$

 OpenBabel03242511063D

 22 23  0  0  1  0  0  0  0  0999 V2000
   37.0250   29.5430   40.5680 C   0  0  1  0  0  0  0  0  0  0  0  0
   35.5380   29.7200   40.5300 C   0  0  0  0  0  0  0  0  0  0  0  0
   36.4750   30.7640   41.1660 C   0  0  2  0  0  0  0  0  0  0  0  0
   37.5480   29.6230   39.5930 H   0  0  0  0  0  0  0  0  0  0  0  0
   35.0030   29.0140   41.1900 H   0  0  0  0  0  0  0  0  0  0  0  0
   35.1000   29.9700   39.5540 H   0  0  0  0  0  0  0  0  0  0  0  0
   36.3830   30.7480   42.2960 H   0  0  0  0  0  0  0  0  0  0  0  0
   37.5340   26.3250   42.3430 C   0  0  0  0  0  0  0  0  0  0  0  0
   38.7340   26.6050   43.0860 C   0  0  0  0  0  0  0  0  0  0  0  0
   39.3330   27.8960   42.9440 C   0  0  0  0  0  0  0  0  0  0  0  0
   38.7630   28.7930   42.1320 N   0  0  0  0  0  0  0  0  0  0  0  0
   37.6200   28.4880   41.4380 C   0  0  0  0  0  0  0  0  0  0  0  0
   37.0210   27.2660   41.5500 N   0  0  0  0  0  0  0  0  0  0  0  0
   37.0880   25.3670   42.4470 H   0  0  0  0  0  0  0  0  0  0  0  0
   39.1220   25.8180   43.7190 H   0  0  0  0  0  0  0  0  0  0  0  0
   40.2330   28.0600   43.5220 H   0  0  0  0  0  0  0  0  0  0  0  0
   36.5400   32.0270   40.5070 N   0  0  0  0  0  0  0  0  0  0  0  0
   35.9420   32.0890   39.6740 H   0  0  0  0  0  0  0  0  0  0  0  0
   38.0860   32.6430   40.1810 S   0  0  0  0  0  0  0  0  0  0  0  0
   38.8080   32.0570   38.6990 C   0  0  0  0  0  1  0  0  0  0  0  0
   38.1250   34.1610   40.1630 O   0  0  0  0  0  0  0  0  0  0  0  0
   38.9780   32.2210   41.3240 O   0  0  0  0  0  0  0  0  0  0  0  0
  1  4  1  6  0  0  0
  1  3  1  0  0  0  0
  1 12  1  0  0  0  0
  2  1  1  0  0  0  0
  2  3  1  0  0  0  0
  2  5  1  0  0  0  0
  3  7  1  1  0  0  0
  6  2  1  0  0  0  0
  8 14  1  0  0  0  0
  8  9  1  0  0  0  0
  9 15  1  0  0  0  0
 10  9  2  0  0  0  0
 10 16  1  0  0  0  0
 11 10  1  0  0  0  0
 12 13  1  0  0  0  0
 12 11  2  0  0  0  0
 13  8  2  0  0  0  0
 17  3  1  0  0  0  0
 18 17  1  0  0  0  0
 19 17  1  0  0  0  0
 19 22  2  0  0  0  0
 20 19  1  0  0  0  0
 21 19  2  0  0  0  0
M  END
>  <minimizedAffinity>
-4.1076436

$$$$

 OpenBabel03242511063D

 22 23  0  0  1  0  0  0  0  0999 V2000
   38.0160   28.8070   43.2710 C   0  0  1  0  0  0  0  0  0  0  0  0
   36.9560   27.8010   43.6090 C   0  0  0  0  0  0  0  0  0  0  0  0
   38.2750   27.4060   42.9190 C   0  0  2  0  0  0  0  0  0  0  0  0
   38.5620   29.2420   44.1340 H   0  0  0  0  0  0  0  0  0  0  0  0
   36.0460   27.9130   42.9930 H   0  0  0  0  0  0  0  0  0  0  0  0
   36.8510   27.5410   44.6710 H   0  0  0  0  0  0  0  0  0  0  0  0
   38.0930   27.1430   41.8300 H   0  0  0  0  0  0  0  0  0  0  0  0
   38.5370   31.5700   40.8520 C   0  0  0  0  0  0  0  0  0  0  0  0
   37.2300   31.6690   40.2590 C   0  0  0  0  0  0  0  0  0  0  0  0
   36.2110   30.7710   40.7090 C   0  0  0  0  0  0  0  0  0  0  0  0
   36.5050   29.8760   41.6590 N   0  0  0  0  0  0  0  0  0  0  0  0
   37.7630   29.8120   42.2000 C   0  0  0  0  0  0  0  0  0  0  0  0
   38.7590   30.6530   41.7940 N   0  0  0  0  0  0  0  0  0  0  0  0
   39.2940   32.2360   40.5190 H   0  0  0  0  0  0  0  0  0  0  0  0
   37.0860   32.4240   39.4970 H   0  0  0  0  0  0  0  0  0  0  0  0
   35.2460   30.8830   40.2340 H   0  0  0  0  0  0  0  0  0  0  0  0
   39.1550   26.5830   43.6800 N   0  0  0  0  0  0  0  0  0  0  0  0
   39.7050   27.1010   44.3770 H   0  0  0  0  0  0  0  0  0  0  0  0
   40.1440   25.5110   42.8150 S   0  0  0  0  0  0  0  0  0  0  0  0
   41.8620   25.7630   43.0350 C   0  0  0  0  0  1  0  0  0  0  0  0
   39.8340   24.0540   43.1070 O   0  0  0  0  0  0  0  0  0  0  0  0
   39.8360   25.7130   41.3500 O   0  0  0  0  0  0  0  0  0  0  0  0
  1  2  1  0  0  0  0
  1  4  1  1  0  0  0
  2  6  1  0  0  0  0
  3  7  1  6  0  0  0
  3  1  1  0  0  0  0
  3  2  1  0  0  0  0
  3 17  1  0  0  0  0
  5  2  1  0  0  0  0
  8 13  1  0  0  0  0
  9 10  1  0  0  0  0
  9  8  2  0  0  0  0
 10 11  2  0  0  0  0
 11 12  1  0  0  0  0
 12  1  1  0  0  0  0
 13 12  2  0  0  0  0
 14  8  1  0  0  0  0
 15  9  1  0  0  0  0
 16 10  1  0  0  0  0
 17 18  1  0  0  0  0
 19 20  1  0  0  0  0
 19 21  2  0  0  0  0
 19 17  1  0  0  0  0
 22 19  2  0  0  0  0
M  END
>  <minimizedAffinity>
-4.01224852

$$$$

 OpenBabel03242511063D

 22 23  0  0  1  0  0  0  0  0999 V2000
   37.0890   27.2240   42.3660 C   0  0  1  0  0  0  0  0  0  0  0  0
   36.3850   27.3790   43.6790 C   0  0  0  0  0  0  0  0  0  0  0  0
   37.8050   27.9230   43.4390 C   0  0  2  0  0  0  0  0  0  0  0  0
   36.6840   27.8250   41.5250 H   0  0  0  0  0  0  0  0  0  0  0  0
   36.2660   26.4220   44.2190 H   0  0  0  0  0  0  0  0  0  0  0  0
   35.5670   28.1120   43.7110 H   0  0  0  0  0  0  0  0  0  0  0  0
   38.5720   27.2970   43.9930 H   0  0  0  0  0  0  0  0  0  0  0  0
   39.1380   24.1570   41.9740 C   0  0  0  0  0  0  0  0  0  0  0  0
   38.3370   23.4050   41.0460 C   0  0  0  0  0  0  0  0  0  0  0  0
   37.1080   23.9790   40.5910 C   0  0  0  0  0  0  0  0  0  0  0  0
   36.7480   25.1870   41.0390 N   0  0  0  0  0  0  0  0  0  0  0  0
   37.5390   25.8730   41.9250 C   0  0  0  0  0  0  0  0  0  0  0  0
   38.7180   25.3550   42.3800 N   0  0  0  0  0  0  0  0  0  0  0  0
   40.0510   23.7320   42.3130 H   0  0  0  0  0  0  0  0  0  0  0  0
   38.7090   22.4360   40.7390 H   0  0  0  0  0  0  0  0  0  0  0  0
   36.5400   23.3770   39.8950 H   0  0  0  0  0  0  0  0  0  0  0  0
   37.9410   29.3420   43.4610 N   0  0  0  0  0  0  0  0  0  0  0  0
   37.0440   29.8430   43.4380 H   0  0  0  0  0  0  0  0  0  0  0  0
   39.0370   30.0250   42.3610 S   0  0  0  0  0  0  0  0  0  0  0  0
   38.3170   30.5960   40.8720 C   0  0  0  0  0  1  0  0  0  0  0  0
   39.8490   31.1580   42.9630 O   0  0  0  0  0  0  0  0  0  0  0  0
   40.0330   28.9470   42.0050 O   0  0  0  0  0  0  0  0  0  0  0  0
  1  4  1  6  0  0  0
  1  3  1  0  0  0  0
  1  2  1  0  0  0  0
  2  6  1  0  0  0  0
  2  5  1  0  0  0  0
  3 17  1  0  0  0  0
  3  2  1  0  0  0  0
  3  7  1  1  0  0  0
  8 14  1  0  0  0  0
  8 13  1  0  0  0  0
  9  8  2  0  0  0  0
 10 11  2  0  0  0  0
 10  9  1  0  0  0  0
 11 12  1  0  0  0  0
 12  1  1  0  0  0  0
 12 13  2  0  0  0  0
 15  9  1  0  0  0  0
 16 10  1  0  0  0  0
 18 17  1  0  0  0  0
 19 21  2  0  0  0  0
 19 17  1  0  0  0  0
 20 19  1  0  0  0  0
 22 19  2  0  0  0  0
M  END
>  <minimizedAffinity>
-3.98247504

$$$$

 OpenBabel03242511063D

 22 23  0  0  1  0  0  0  0  0999 V2000
   38.8030   33.1000   40.0590 C   0  0  1  0  0  0  0  0  0  0  0  0
   37.7350   34.1440   39.9350 C   0  0  0  0  0  0  0  0  0  0  0  0
   37.4670   32.6550   39.6490 C   0  0  2  0  0  0  0  0  0  0  0  0
   39.1400   32.8720   41.0920 H   0  0  0  0  0  0  0  0  0  0  0  0
   37.9000   34.8290   39.0840 H   0  0  0  0  0  0  0  0  0  0  0  0
   37.3390   34.5510   40.8760 H   0  0  0  0  0  0  0  0  0  0  0  0
   37.3400   32.4800   38.5350 H   0  0  0  0  0  0  0  0  0  0  0  0
   41.0430   32.0380   37.3000 C   0  0  0  0  0  0  0  0  0  0  0  0
   42.0460   33.0680   37.3450 C   0  0  0  0  0  0  0  0  0  0  0  0
   41.9120   34.1030   38.3230 C   0  0  0  0  0  0  0  0  0  0  0  0
   40.8670   34.0780   39.1580 N   0  0  0  0  0  0  0  0  0  0  0  0
   39.9300   33.0790   39.0840 C   0  0  0  0  0  0  0  0  0  0  0  0
   40.0270   32.0760   38.1620 N   0  0  0  0  0  0  0  0  0  0  0  0
   41.1420   31.2690   36.5740 H   0  0  0  0  0  0  0  0  0  0  0  0
   42.8560   33.0040   36.6300 H   0  0  0  0  0  0  0  0  0  0  0  0
   42.6900   34.8550   38.3180 H   0  0  0  0  0  0  0  0  0  0  0  0
   36.5780   31.9970   40.5470 N   0  0  0  0  0  0  0  0  0  0  0  0
   36.5540   32.4160   41.4860 H   0  0  0  0  0  0  0  0  0  0  0  0
   36.6990   30.3080   40.6480 S   0  0  0  0  0  0  0  0  0  0  0  0
   35.2140   29.4480   40.3090 C   0  0  0  0  0  1  0  0  0  0  0  0
   37.7920   29.7410   39.7620 O   0  0  0  0  0  0  0  0  0  0  0  0
   37.1050   29.9800   42.0660 O   0  0  0  0  0  0  0  0  0  0  0  0
  1  4  1  1  0  0  0
  2  1  1  0  0  0  0
  2  6  1  0  0  0  0
  3  7  1  6  0  0  0
  3  2  1  0  0  0  0
  3  1  1  0  0  0  0
  3 17  1  0  0  0  0
  5  2  1  0  0  0  0
  8  9  2  0  0  0  0
  8 13  1  0  0  0  0
  9 10  1  0  0  0  0
 10 11  2  0  0  0  0
 12 11  1  0  0  0  0
 12  1  1  0  0  0  0
 13 12  2  0  0  0  0
 14  8  1  0  0  0  0
 15  9  1  0  0  0  0
 16 10  1  0  0  0  0
 17 19  1  0  0  0  0
 17 18  1  0  0  0  0
 19 22  2  0  0  0  0
 20 19  1  0  0  0  0
 21 19  2  0  0  0  0
M  END
>  <minimizedAffinity>
-3.96540284

$$$$

 OpenBabel03242511063D

 22 23  0  0  1  0  0  0  0  0999 V2000
   36.9250   29.2600   40.5750 C   0  0  1  0  0  0  0  0  0  0  0  0
   35.4460   29.5060   40.5890 C   0  0  0  0  0  0  0  0  0  0  0  0
   36.4540   30.5230   41.1550 C   0  0  2  0  0  0  0  0  0  0  0  0
   37.4110   29.2880   39.5780 H   0  0  0  0  0  0  0  0  0  0  0  0
   34.9070   28.8440   41.2900 H   0  0  0  0  0  0  0  0  0  0  0  0
   34.9820   29.7470   39.6220 H   0  0  0  0  0  0  0  0  0  0  0  0
   36.4060   30.5430   42.2880 H   0  0  0  0  0  0  0  0  0  0  0  0
   38.9200   27.5990   43.2250 C   0  0  0  0  0  0  0  0  0  0  0  0
   38.5730   26.2200   43.0080 C   0  0  0  0  0  0  0  0  0  0  0  0
   37.6540   25.9080   41.9570 C   0  0  0  0  0  0  0  0  0  0  0  0
   37.1520   26.9020   41.2160 N   0  0  0  0  0  0  0  0  0  0  0  0
   37.5050   28.2050   41.4530 C   0  0  0  0  0  0  0  0  0  0  0  0
   38.3780   28.5390   42.4480 N   0  0  0  0  0  0  0  0  0  0  0  0
   39.6010   27.8320   44.0050 H   0  0  0  0  0  0  0  0  0  0  0  0
   39.0310   25.4850   43.6580 H   0  0  0  0  0  0  0  0  0  0  0  0
   37.4250   24.8580   41.8330 H   0  0  0  0  0  0  0  0  0  0  0  0
   36.5500   31.7610   40.4560 N   0  0  0  0  0  0  0  0  0  0  0  0
   36.0420   31.7720   39.5620 H   0  0  0  0  0  0  0  0  0  0  0  0
   38.1020   32.4190   40.2690 S   0  0  0  0  0  0  0  0  0  0  0  0
   38.1400   34.1570   40.0720 C   0  0  0  0  0  1  0  0  0  0  0  0
   39.0410   32.0470   41.4020 O   0  0  0  0  0  0  0  0  0  0  0  0
   38.6940   31.8030   39.0240 O   0  0  0  0  0  0  0  0  0  0  0  0
  1  4  1  6  0  0  0
  1  2  1  0  0  0  0
  1  3  1  0  0  0  0
  1 12  1  0  0  0  0
  2  3  1  0  0  0  0
  2  5  1  0  0  0  0
  3  7  1  1  0  0  0
  6  2  1  0  0  0  0
  8 14  1  0  0  0  0
  9  8  1  0  0  0  0
  9 15  1  0  0  0  0
 10  9  2  0  0  0  0
 11 12  2  0  0  0  0
 11 10  1  0  0  0  0
 12 13  1  0  0  0  0
 13  8  2  0  0  0  0
 16 10  1  0  0  0  0
 17  3  1  0  0  0  0
 18 17  1  0  0  0  0
 19 17  1  0  0  0  0
 19 21  2  0  0  0  0
 20 19  1  0  0  0  0
 22 19  2  0  0  0  0
M  END
>  <minimizedAffinity>
-3.93565178

$$$$

 OpenBabel03242511063D

 22 23  0  0  1  0  0  0  0  0999 V2000
   38.3700   28.8760   42.7450 C   0  0  1  0  0  0  0  0  0  0  0  0
   37.3600   28.2830   43.6800 C   0  0  0  0  0  0  0  0  0  0  0  0
   37.8350   27.5520   42.4100 C   0  0  2  0  0  0  0  0  0  0  0  0
   39.4080   28.9430   43.1310 H   0  0  0  0  0  0  0  0  0  0  0  0
   36.3900   28.8120   43.6580 H   0  0  0  0  0  0  0  0  0  0  0  0
   37.7430   27.9140   44.6410 H   0  0  0  0  0  0  0  0  0  0  0  0
   37.0190   27.5470   41.6230 H   0  0  0  0  0  0  0  0  0  0  0  0
   36.3980   31.2460   40.6810 C   0  0  0  0  0  0  0  0  0  0  0  0
   37.3940   32.2350   40.3660 C   0  0  0  0  0  0  0  0  0  0  0  0
   38.7160   32.0540   40.8840 C   0  0  0  0  0  0  0  0  0  0  0  0
   38.9790   30.9810   41.6380 N   0  0  0  0  0  0  0  0  0  0  0  0
   38.0020   30.0610   41.9170 C   0  0  0  0  0  0  0  0  0  0  0  0
   36.7300   30.2010   41.4400 N   0  0  0  0  0  0  0  0  0  0  0  0
   35.4160   31.3790   40.2980 H   0  0  0  0  0  0  0  0  0  0  0  0
   37.0890   33.0690   39.7480 H   0  0  0  0  0  0  0  0  0  0  0  0
   39.4300   32.8230   40.6210 H   0  0  0  0  0  0  0  0  0  0  0  0
   38.5830   26.3570   42.6210 N   0  0  0  0  0  0  0  0  0  0  0  0
   39.5840   26.5210   42.7890 H   0  0  0  0  0  0  0  0  0  0  0  0
   38.3610   25.1040   41.5010 S   0  0  0  0  0  0  0  0  0  0  0  0
   37.4420   25.5490   40.0800 C   0  0  0  0  0  1  0  0  0  0  0  0
   39.6680   24.4780   41.0480 O   0  0  0  0  0  0  0  0  0  0  0  0
   37.6040   24.0070   42.2110 O   0  0  0  0  0  0  0  0  0  0  0  0
  1  4  1  1  0  0  0
  1  2  1  0  0  0  0
  2  6  1  0  0  0  0
  3  7  1  6  0  0  0
  3 17  1  0  0  0  0
  3  1  1  0  0  0  0
  3  2  1  0  0  0  0
  5  2  1  0  0  0  0
  8 13  1  0  0  0  0
  9  8  2  0  0  0  0
  9 10  1  0  0  0  0
 10 11  2  0  0  0  0
 11 12  1  0  0  0  0
 12  1  1  0  0  0  0
 13 12  2  0  0  0  0
 14  8  1  0  0  0  0
 15  9  1  0  0  0  0
 16 10  1  0  0  0  0
 17 18  1  0  0  0  0
 19 22  2  0  0  0  0
 19 17  1  0  0  0  0
 20 19  1  0  0  0  0
 21 19  2  0  0  0  0
M  END
>  <minimizedAffinity>
-3.84404993

$$$$

 OpenBabel03242511063D

 22 23  0  0  1  0  0  0  0  0999 V2000
   38.4650   30.5890   37.9970 C   0  0  1  0  0  0  0  0  0  0  0  0
   37.6050   31.3940   37.0700 C   0  0  0  0  0  0  0  0  0  0  0  0
   38.8880   31.9640   37.7040 C   0  0  2  0  0  0  0  0  0  0  0  0
   39.0290   29.7540   37.5320 H   0  0  0  0  0  0  0  0  0  0  0  0
   36.6290   31.6620   37.5130 H   0  0  0  0  0  0  0  0  0  0  0  0
   37.6500   31.1260   36.0060 H   0  0  0  0  0  0  0  0  0  0  0  0
   38.6340   32.7260   38.5040 H   0  0  0  0  0  0  0  0  0  0  0  0
   36.4660   30.6290   41.1220 C   0  0  0  0  0  0  0  0  0  0  0  0
   37.0990   29.5750   41.8690 C   0  0  0  0  0  0  0  0  0  0  0  0
   38.1930   28.8790   41.2650 C   0  0  0  0  0  0  0  0  0  0  0  0
   38.5880   29.2270   40.0360 N   0  0  0  0  0  0  0  0  0  0  0  0
   37.9590   30.2370   39.3540 C   0  0  0  0  0  0  0  0  0  0  0  0
   36.9120   30.9230   39.8990 N   0  0  0  0  0  0  0  0  0  0  0  0
   35.6540   31.1470   41.5680 H   0  0  0  0  0  0  0  0  0  0  0  0
   36.7100   29.3640   42.8570 H   0  0  0  0  0  0  0  0  0  0  0  0
   38.6360   28.0950   41.8650 H   0  0  0  0  0  0  0  0  0  0  0  0
   39.9540   32.2530   36.8030 N   0  0  0  0  0  0  0  0  0  0  0  0
   39.9240   31.7000   35.9370 H   0  0  0  0  0  0  0  0  0  0  0  0
   41.5220   32.2690   37.4480 S   0  0  0  0  0  0  0  0  0  0  0  0
   42.3190   33.8260   37.3910 C   0  0  0  0  0  1  0  0  0  0  0  0
   41.5790   31.7560   38.8750 O   0  0  0  0  0  0  0  0  0  0  0  0
   42.3450   31.3030   36.6290 O   0  0  0  0  0  0  0  0  0  0  0  0
  1  4  1  6  0  0  0
  1 12  1  0  0  0  0
  2  5  1  0  0  0  0
  2  3  1  0  0  0  0
  2  1  1  0  0  0  0
  3  1  1  0  0  0  0
  3  7  1  1  0  0  0
  6  2  1  0  0  0  0
  8 14  1  0  0  0  0
  8  9  1  0  0  0  0
  9 15  1  0  0  0  0
 10 16  1  0  0  0  0
 10  9  2  0  0  0  0
 11 10  1  0  0  0  0
 12 13  1  0  0  0  0
 12 11  2  0  0  0  0
 13  8  2  0  0  0  0
 17 19  1  0  0  0  0
 17  3  1  0  0  0  0
 18 17  1  0  0  0  0
 19 21  2  0  0  0  0
 20 19  1  0  0  0  0
 22 19  2  0  0  0  0
M  END
>  <minimizedAffinity>
-3.81476092

$$$$
