
 OpenBabel03242511063D

 22 23  0  0  1  0  0  0  0  0999 V2000
   45.8760   32.5430   44.4010 C   0  0  1  0  0  0  0  0  0  0  0  0
   47.2270   32.1540   44.9200 C   0  0  0  0  0  0  0  0  0  0  0  0
   45.9510   32.0300   45.7730 C   0  0  2  0  0  0  0  0  0  0  0  0
   45.4510   31.8840   43.6150 H   0  0  0  0  0  0  0  0  0  0  0  0
   47.8920   33.0220   45.0800 H   0  0  0  0  0  0  0  0  0  0  0  0
   47.6540   31.2240   44.5220 H   0  0  0  0  0  0  0  0  0  0  0  0
   45.9350   32.8230   46.5840 H   0  0  0  0  0  0  0  0  0  0  0  0
   44.5860   35.9890   44.8710 C   0  0  0  0  0  0  0  0  0  0  0  0
   44.9850   36.6060   43.6340 C   0  0  0  0  0  0  0  0  0  0  0  0
   45.6950   35.8110   42.6790 C   0  0  0  0  0  0  0  0  0  0  0  0
   45.9620   34.5320   42.9650 N   0  0  0  0  0  0  0  0  0  0  0  0
   45.5660   33.9800   44.1560 C   0  0  0  0  0  0  0  0  0  0  0  0
   44.8870   34.7090   45.0900 N   0  0  0  0  0  0  0  0  0  0  0  0
   44.0590   36.5770   45.5810 H   0  0  0  0  0  0  0  0  0  0  0  0
   44.7250   37.6460   43.4900 H   0  0  0  0  0  0  0  0  0  0  0  0
   45.9740   36.3180   41.7640 H   0  0  0  0  0  0  0  0  0  0  0  0
   45.5520   30.7040   46.1100 N   0  0  0  0  0  0  0  0  0  0  0  0
   44.6510   30.4280   45.7000 H   0  0  0  0  0  0  0  0  0  0  0  0
   45.6210   30.2750   47.7490 S   0  0  0  0  0  0  0  0  0  0  0  0
   45.0760   28.6490   48.1010 C   0  0  0  0  0  1  0  0  0  0  0  0
   47.0030   30.4560   48.3500 O   0  0  0  0  0  0  0  0  0  0  0  0
   44.7180   31.2310   48.4930 O   0  0  0  0  0  0  0  0  0  0  0  0
  1  4  1  6  0  0  0
  1  2  1  0  0  0  0
  1  3  1  0  0  0  0
  2  5  1  0  0  0  0
  2  3  1  0  0  0  0
  3 17  1  0  0  0  0
  3  7  1  1  0  0  0
  6  2  1  0  0  0  0
  8 13  1  0  0  0  0
  8 14  1  0  0  0  0
  9  8  2  0  0  0  0
 10 11  2  0  0  0  0
 10  9  1  0  0  0  0
 11 12  1  0  0  0  0
 12  1  1  0  0  0  0
 12 13  2  0  0  0  0
 15  9  1  0  0  0  0
 16 10  1  0  0  0  0
 17 19  1  0  0  0  0
 18 17  1  0  0  0  0
 19 20  1  0  0  0  0
 19 21  2  0  0  0  0
 19 22  2  0  0  0  0
M  END
>  <minimizedAffinity>
-3.71171308

>  <minimizedRMSD>
2.06278968

$$$$
