
 OpenBabel03252501583D

 28 29  0  0  0  0  0  0  0  0999 V2000
   44.9250   35.0490   45.2840 C   0  0  0  0  0  0  0  0  0  0  0  0
   45.5640   35.2960   44.0730 C   0  0  0  0  0  0  0  0  0  0  0  0
   46.5010   34.3730   43.6310 C   0  0  0  0  0  0  0  0  0  0  0  0
   46.7370   33.2820   44.4090 N   0  0  0  0  0  0  0  0  0  0  0  0
   46.0940   33.0790   45.5790 C   0  0  0  0  0  0  0  0  0  0  0  0
   45.1740   33.9670   46.0320 N   0  0  0  0  0  0  0  0  0  0  0  0
   44.1820   35.7310   45.6850 H   0  0  0  0  0  0  0  0  0  0  0  0
   46.2860   32.2060   46.1940 H   0  0  0  0  0  0  0  0  0  0  0  0
   47.1840   34.6030   42.3720 C   0  0  0  0  0  0  0  0  0  0  0  0
   48.2720   35.3990   42.1290 C   0  0  0  0  0  0  0  0  0  0  0  0
   48.7810   35.4860   40.8460 C   0  0  0  0  0  0  0  0  0  0  0  0
   48.1950   34.7740   39.8150 C   0  0  0  0  0  0  0  0  0  0  0  0
   47.1020   33.9720   40.0490 C   0  0  0  0  0  0  0  0  0  0  0  0
   46.6030   33.8940   41.3350 C   0  0  0  0  0  0  0  0  0  0  0  0
   48.6600   35.9140   42.9920 H   0  0  0  0  0  0  0  0  0  0  0  0
   49.6420   36.1240   40.6850 H   0  0  0  0  0  0  0  0  0  0  0  0
   48.5870   34.8360   38.7990 H   0  0  0  0  0  0  0  0  0  0  0  0
   46.6780   33.4350   39.2100 H   0  0  0  0  0  0  0  0  0  0  0  0
   45.7380   33.2320   41.4100 H   0  0  0  0  0  0  0  0  0  0  0  0
   45.2180   36.5230   43.3190 C   0  0  0  0  0  0  0  0  0  0  0  0
   44.3810   36.4030   42.6300 H   0  0  0  0  0  0  0  0  0  0  0  0
   46.1020   36.8950   42.7720 H   0  0  0  0  0  0  0  0  0  0  0  0
   44.9280   37.5270   44.3520 N   0  0  0  0  0  0  0  0  0  0  0  0
   45.3430   37.2800   45.2530 H   0  0  0  0  0  0  0  0  0  0  0  0
   45.5140   39.0820   43.8050 S   0  0  0  0  0  0  0  0  0  0  0  0
   47.2600   39.0530   43.6220 C   0  0  0  0  0  1  0  0  0  0  0  0
   45.0990   40.1340   44.8040 O   0  0  0  0  0  0  0  0  0  0  0  0
   44.8140   39.4110   42.5250 O   0  0  0  0  0  0  0  0  0  0  0  0
  1  7  1  0  0  0  0
  1  6  1  0  0  0  0
  2  1  2  0  0  0  0
  3  2  1  0  0  0  0
  3  4  2  0  0  0  0
  4  5  1  0  0  0  0
  5  6  2  0  0  0  0
  5  8  1  0  0  0  0
  9  3  1  0  0  0  0
 10  9  1  0  0  0  0
 10 15  1  0  0  0  0
 11 10  2  0  0  0  0
 12 13  2  0  0  0  0
 12 11  1  0  0  0  0
 13 14  1  0  0  0  0
 14 19  1  0  0  0  0
 14  9  2  0  0  0  0
 16 11  1  0  0  0  0
 17 12  1  0  0  0  0
 18 13  1  0  0  0  0
 20  2  1  0  0  0  0
 20 23  1  0  0  0  0
 21 20  1  0  0  0  0
 22 20  1  0  0  0  0
 23 24  1  0  0  0  0
 25 23  1  0  0  0  0
 25 27  2  0  0  0  0
 26 25  1  0  0  0  0
 28 25  2  0  0  0  0
M  END
>  <minimizedAffinity>
-2.72653818

>  <minimizedRMSD>
1.04051363

$$$$
