
 OpenBabel03242519033D

 27 28  0  0  1  0  0  0  0  0999 V2000
   47.6800   34.2060   42.4390 N   0  0  0  0  0  0  0  0  0  0  0  0
   48.0770   34.6590   41.1210 C   0  0  0  0  0  0  0  0  0  0  0  0
   48.3410   33.3210   40.4960 C   0  0  2  0  0  0  0  0  0  0  0  0
   49.2420   32.6830   41.5310 C   0  0  0  0  0  0  0  0  0  0  0  0
   48.6180   33.1590   42.8310 C   0  0  0  0  0  0  0  0  0  0  0  0
   47.2310   35.2130   40.6450 H   0  0  0  0  0  0  0  0  0  0  0  0
   48.9970   35.2290   41.2230 H   0  0  0  0  0  0  0  0  0  0  0  0
   47.4090   32.7270   40.4140 H   0  0  0  0  0  0  0  0  0  0  0  0
   49.2390   31.5750   41.4810 H   0  0  0  0  0  0  0  0  0  0  0  0
   50.2610   33.0970   41.4710 H   0  0  0  0  0  0  0  0  0  0  0  0
   49.3510   33.6270   43.5040 H   0  0  0  0  0  0  0  0  0  0  0  0
   48.0490   32.3450   43.3250 H   0  0  0  0  0  0  0  0  0  0  0  0
   44.7740   35.9830   43.9190 C   0  0  0  0  0  0  0  0  0  0  0  0
   45.7800   35.6890   43.0100 C   0  0  0  0  0  0  0  0  0  0  0  0
   46.6210   34.6170   43.2720 C   0  0  0  0  0  0  0  0  0  0  0  0
   46.4020   33.9110   44.4260 N   0  0  0  0  0  0  0  0  0  0  0  0
   45.4240   34.2090   45.2990 C   0  0  0  0  0  0  0  0  0  0  0  0
   44.5980   35.2650   45.0340 N   0  0  0  0  0  0  0  0  0  0  0  0
   44.1190   36.8260   43.7040 H   0  0  0  0  0  0  0  0  0  0  0  0
   45.9480   36.2570   42.0900 H   0  0  0  0  0  0  0  0  0  0  0  0
   45.3390   33.5850   46.1790 H   0  0  0  0  0  0  0  0  0  0  0  0
   49.0520   33.4150   39.2720 N   0  0  0  0  0  0  0  0  0  0  0  0
   49.8930   32.8460   39.1580 H   0  0  0  0  0  0  0  0  0  0  0  0
   48.0710   33.5660   37.8780 S   0  0  0  0  0  0  0  0  0  0  0  0
   48.5810   32.3030   36.7310 C   0  0  0  0  0  0  0  0  0  0  0  0
   46.6480   33.3000   38.2250 O   0  0  0  0  0  0  0  0  0  0  0  0
   48.2660   34.8700   37.1750 O   0  0  0  0  0  0  0  0  0  0  0  0
  1  5  1  0  0  0  0
  1 15  1  0  0  0  0
  2  7  1  0  0  0  0
  2  1  1  0  0  0  0
  3  8  1  6  0  0  0
  3  2  1  0  0  0  0
  3  4  1  0  0  0  0
  4  5  1  0  0  0  0
  5 12  1  0  0  0  0
  5 11  1  0  0  0  0
  6  2  1  0  0  0  0
  9  4  1  0  0  0  0
 10  4  1  0  0  0  0
 13 18  1  0  0  0  0
 14 15  1  0  0  0  0
 14 13  2  0  0  0  0
 15 16  2  0  0  0  0
 16 17  1  0  0  0  0
 17 21  1  0  0  0  0
 18 17  2  0  0  0  0
 19 13  1  0  0  0  0
 20 14  1  0  0  0  0
 22  3  1  0  0  0  0
 23 22  1  0  0  0  0
 24 26  2  0  0  0  0
 24 22  1  0  0  0  0
 25 24  1  0  0  0  0
 27 24  2  0  0  0  0
M  END
>  <minimizedAffinity>
-4.41223145

>  <minimizedRMSD>
1.24346304

$$$$
