
 OpenBabel03252501583D

 28 29  0  0  0  0  0  0  0  0999 V2000
   44.9880   34.8010   44.9730 C   0  0  0  0  0  0  0  0  0  0  0  0
   46.1190   34.1020   44.5620 C   0  0  0  0  0  0  0  0  0  0  0  0
   46.6970   34.4550   43.3510 C   0  0  0  0  0  0  0  0  0  0  0  0
   46.1230   35.4630   42.6400 N   0  0  0  0  0  0  0  0  0  0  0  0
   45.0250   36.1170   43.0750 C   0  0  0  0  0  0  0  0  0  0  0  0
   44.4420   35.7900   44.2560 N   0  0  0  0  0  0  0  0  0  0  0  0
   44.4890   34.5740   45.9090 H   0  0  0  0  0  0  0  0  0  0  0  0
   44.5720   36.9200   42.5040 H   0  0  0  0  0  0  0  0  0  0  0  0
   47.8770   33.7450   42.8950 C   0  0  0  0  0  0  0  0  0  0  0  0
   47.9910   32.4280   42.5380 C   0  0  0  0  0  0  0  0  0  0  0  0
   49.2160   31.9350   42.1250 C   0  0  0  0  0  0  0  0  0  0  0  0
   50.3190   32.7680   42.0750 C   0  0  0  0  0  0  0  0  0  0  0  0
   50.2150   34.0920   42.4310 C   0  0  0  0  0  0  0  0  0  0  0  0
   48.9860   34.5720   42.8410 C   0  0  0  0  0  0  0  0  0  0  0  0
   47.0790   31.8580   42.6090 H   0  0  0  0  0  0  0  0  0  0  0  0
   49.2750   30.8900   41.8500 H   0  0  0  0  0  0  0  0  0  0  0  0
   51.2910   32.3910   41.7520 H   0  0  0  0  0  0  0  0  0  0  0  0
   51.1060   34.7050   42.3750 H   0  0  0  0  0  0  0  0  0  0  0  0
   49.0140   35.6320   43.1000 H   0  0  0  0  0  0  0  0  0  0  0  0
   46.6470   33.0230   45.4280 C   0  0  0  0  0  0  0  0  0  0  0  0
   47.5820   33.2720   45.9320 H   0  0  0  0  0  0  0  0  0  0  0  0
   46.7750   32.0950   44.8430 H   0  0  0  0  0  0  0  0  0  0  0  0
   45.5690   32.7540   46.3890 N   0  0  0  0  0  0  0  0  0  0  0  0
   44.6890   32.5270   45.9220 H   0  0  0  0  0  0  0  0  0  0  0  0
   46.0690   31.4480   47.4410 S   0  0  0  0  0  0  0  0  0  0  0  0
   45.6580   31.8100   49.1110 C   0  0  0  0  0  1  0  0  0  0  0  0
   47.5570   31.2480   47.2890 O   0  0  0  0  0  0  0  0  0  0  0  0
   45.4180   30.1930   46.9550 O   0  0  0  0  0  0  0  0  0  0  0  0
  1  7  1  0  0  0  0
  2  1  1  0  0  0  0
  2 20  1  0  0  0  0
  3  2  2  0  0  0  0
  4  5  2  0  0  0  0
  4  3  1  0  0  0  0
  5  6  1  0  0  0  0
  6  1  2  0  0  0  0
  8  5  1  0  0  0  0
  9  3  1  0  0  0  0
 10 15  1  0  0  0  0
 10  9  2  0  0  0  0
 11 10  1  0  0  0  0
 12 11  2  0  0  0  0
 12 13  1  0  0  0  0
 13 14  2  0  0  0  0
 14  9  1  0  0  0  0
 14 19  1  0  0  0  0
 16 11  1  0  0  0  0
 17 12  1  0  0  0  0
 18 13  1  0  0  0  0
 20 21  1  0  0  0  0
 20 23  1  0  0  0  0
 22 20  1  0  0  0  0
 23 25  1  0  0  0  0
 24 23  1  0  0  0  0
 25 26  1  0  0  0  0
 27 25  2  0  0  0  0
 28 25  2  0  0  0  0
M  END
>  <minimizedAffinity>
-5.20721865

>  <minimizedRMSD>
5.50607729

$$$$
