
 OpenBabel03252501203D

 21 21  0  0  0  0  0  0  0  0999 V2000
   44.8820   35.2050   45.4080 C   0  0  0  0  0  0  0  0  0  0  0  0
   45.3020   35.5190   44.1140 C   0  0  0  0  0  0  0  0  0  0  0  0
   46.0070   34.5220   43.4240 C   0  0  0  0  0  0  0  0  0  0  0  0
   46.2420   33.3300   44.0350 N   0  0  0  0  0  0  0  0  0  0  0  0
   45.8180   33.0760   45.2830 C   0  0  0  0  0  0  0  0  0  0  0  0
   45.1370   34.0110   45.9760 N   0  0  0  0  0  0  0  0  0  0  0  0
   44.3320   35.9180   46.0090 H   0  0  0  0  0  0  0  0  0  0  0  0
   46.0610   32.0860   45.6800 H   0  0  0  0  0  0  0  0  0  0  0  0
   46.4230   34.8840   42.0680 C   0  0  0  0  0  0  0  0  0  0  0  0
   47.0580   33.7830   41.4970 F   0  0  0  0  0  0  0  0  0  0  0  0
   47.3630   35.8700   42.1900 F   0  0  0  0  0  0  0  0  0  0  0  0
   45.3760   35.1870   41.2570 F   0  0  0  0  0  0  0  0  0  0  0  0
   45.0150   36.8290   43.5310 C   0  0  0  0  0  0  0  0  0  0  0  0
   44.0870   36.7530   42.9630 H   0  0  0  0  0  0  0  0  0  0  0  0
   45.7940   37.3070   42.9610 H   0  0  0  0  0  0  0  0  0  0  0  0
   44.9190   37.8230   44.6070 N   0  0  0  0  0  0  0  0  0  0  0  0
   45.3380   37.4920   45.4780 H   0  0  0  0  0  0  0  0  0  0  0  0
   45.4670   39.3690   44.1110 S   0  0  0  0  0  0  0  0  0  0  0  0
   44.8860   40.6670   45.1320 C   0  0  0  0  0  1  0  0  0  0  0  0
   45.0050   39.6430   42.6960 O   0  0  0  0  0  0  0  0  0  0  0  0
   46.9510   39.3620   44.1120 O   0  0  0  0  0  0  0  0  0  0  0  0
  1  6  1  0  0  0  0
  1  7  1  0  0  0  0
  2  1  2  0  0  0  0
  3  4  2  0  0  0  0
  3  2  1  0  0  0  0
  4  5  1  0  0  0  0
  5  8  1  0  0  0  0
  5  6  2  0  0  0  0
  9 11  1  0  0  0  0
  9  3  1  0  0  0  0
 10  9  1  0  0  0  0
 12  9  1  0  0  0  0
 13  2  1  0  0  0  0
 13 16  1  0  0  0  0
 14 13  1  0  0  0  0
 15 13  1  0  0  0  0
 16 17  1  0  0  0  0
 18 21  2  0  0  0  0
 18 16  1  0  0  0  0
 18 19  1  0  0  0  0
 20 18  2  0  0  0  0
M  END
>  <minimizedAffinity>
-2.62061429

>  <minimizedRMSD>
1.30216706

$$$$
