
 OpenBabel03242522333D

 21 22  0  0  0  0  0  0  0  0999 V2000
   46.8520   32.6510   46.2460 C   0  0  0  0  0  0  0  0  0  0  0  0
   47.0640   33.1290   47.2480 H   0  0  0  0  0  0  0  0  0  0  0  0
   47.8430   32.4290   45.8250 H   0  0  0  0  0  0  0  0  0  0  0  0
   44.5620   35.3700   45.1000 C   0  0  0  0  0  0  0  0  0  0  0  0
   45.0160   35.5960   43.7980 C   0  0  0  0  0  0  0  0  0  0  0  0
   46.0800   34.8280   43.3430 C   0  0  0  0  0  0  0  0  0  0  0  0
   46.6350   33.8970   44.1630 N   0  0  0  0  0  0  0  0  0  0  0  0
   46.1640   33.7010   45.4380 C   0  0  0  0  0  0  0  0  0  0  0  0
   45.1340   34.4490   45.8700 N   0  0  0  0  0  0  0  0  0  0  0  0
   43.7290   35.9280   45.5400 H   0  0  0  0  0  0  0  0  0  0  0  0
   44.5200   36.3560   43.2070 H   0  0  0  0  0  0  0  0  0  0  0  0
   46.4470   34.9850   42.3440 H   0  0  0  0  0  0  0  0  0  0  0  0
   45.7970   31.8910   49.1260 Br  0  0  0  0  0  0  0  0  0  0  0  0
   45.5160   30.8890   47.5040 C   0  0  0  0  0  0  0  0  0  0  0  0
   46.0730   31.4160   46.3590 C   0  0  0  0  0  0  0  0  0  0  0  0
   45.8430   30.6540   45.2090 C   0  0  0  0  0  0  0  0  0  0  0  0
   46.2680   31.0310   44.2660 H   0  0  0  0  0  0  0  0  0  0  0  0
   45.1240   29.4770   45.2000 C   0  0  0  0  0  0  0  0  0  0  0  0
   45.0110   28.9760   44.2480 H   0  0  0  0  0  0  0  0  0  0  0  0
   44.5990   29.0200   46.3830 C   0  0  0  0  0  3  0  0  0  0  0  0
   44.7870   29.7210   47.5640 C   0  0  0  0  0  3  0  0  0  0  0  0
  1 15  1  0  0  0  0
  1  2  1  0  0  0  0
  3  1  1  0  0  0  0
  4 10  1  0  0  0  0
  4  9  1  0  0  0  0
  5  4  2  0  0  0  0
  6  5  1  0  0  0  0
  6  7  2  0  0  0  0
  7  8  1  0  0  0  0
  8  9  2  0  0  0  0
  8  1  1  0  0  0  0
 11  5  1  0  0  0  0
 12  6  1  0  0  0  0
 14 21  1  0  0  0  0
 14 13  1  0  0  0  0
 15 14  2  0  0  0  0
 16 15  1  0  0  0  0
 17 16  1  0  0  0  0
 18 16  2  0  0  0  0
 18 20  1  0  0  0  0
 19 18  1  0  0  0  0
 20 21  2  0  0  0  0
M  END
>  <minimizedAffinity>
-4.3897357

>  <minimizedRMSD>
1.12868452

$$$$
