
 OpenBabel03252508033D

 42 45  0  0  1  0  0  0  0  0999 V2000
   42.0510   33.2380   41.1590 C   0  0  0  0  0  0  0  0  0  0  0  0
   42.7880   34.3760   41.3240 C   0  0  0  0  0  0  0  0  0  0  0  0
   42.1090   35.6100   41.2730 C   0  0  0  0  0  0  0  0  0  0  0  0
   40.7550   35.7230   41.0680 C   0  0  0  0  0  0  0  0  0  0  0  0
   40.0240   34.5750   40.9040 C   0  0  0  0  0  0  0  0  0  0  0  0
   40.6750   33.3780   40.9520 C   0  0  0  0  0  0  0  0  0  0  0  0
   42.6090   36.5660   41.3850 H   0  0  0  0  0  0  0  0  0  0  0  0
   40.2500   36.6690   41.0310 H   0  0  0  0  0  0  0  0  0  0  0  0
   38.9570   34.5630   40.7380 H   0  0  0  0  0  0  0  0  0  0  0  0
   40.0820   32.4580   40.8200 H   0  0  0  0  0  0  0  0  0  0  0  0
   42.7190   31.6980   41.2880 S   0  0  0  0  0  0  0  0  0  0  0  0
   41.7180   30.8830   40.4070 O   0  0  0  0  0  0  0  0  0  0  0  0
   42.6420   31.1440   42.6620 O   0  0  0  0  0  0  0  0  0  0  0  0
   42.6330   32.4710   38.2600 Br  0  0  0  0  0  0  0  0  0  0  0  0
   43.9750   31.3120   39.0320 C   0  0  0  0  0  0  0  0  0  0  0  0
   43.9540   30.9620   40.4130 C   0  0  0  0  0  0  0  0  0  0  0  0
   45.0230   30.1260   40.7080 C   0  0  0  0  0  0  0  0  0  0  0  0
   45.0150   29.9100   41.7940 H   0  0  0  0  0  0  0  0  0  0  0  0
   46.0390   29.6030   39.9450 C   0  0  0  0  0  0  0  0  0  0  0  0
   46.7620   28.9720   40.3880 H   0  0  0  0  0  0  0  0  0  0  0  0
   45.8880   30.0490   38.6620 C   0  0  0  0  0  0  0  0  0  0  0  0
   44.9250   30.8710   38.1460 C   0  0  0  0  0  0  0  0  0  0  0  0
   44.2210   34.3680   41.5480 C   0  0  0  0  0  0  0  0  0  0  0  0
   45.0910   34.2970   40.6280 O   0  0  0  0  0  0  0  0  0  0  0  0
   44.5780   34.4500   42.9440 C   0  0  0  0  0  0  0  0  0  0  0  0
   44.3100   35.7130   43.5780 C   0  0  0  0  0  0  0  0  0  0  0  0
   44.6410   35.8160   44.9170 C   0  0  0  0  0  0  0  0  0  0  0  0
   45.1870   34.7380   45.5360 N   0  0  0  0  0  0  0  0  0  0  0  0
   45.4230   33.5540   44.8840 C   0  0  0  0  0  0  0  0  0  0  0  0
   45.1180   33.4500   43.6370 N   0  0  0  0  0  0  0  0  0  0  0  0
   43.8910   36.5900   43.1670 H   0  0  0  0  0  0  0  0  0  0  0  0
   44.4940   36.7040   45.5120 H   0  0  0  0  0  0  0  0  0  0  0  0
   46.0110   32.4330   45.6420 C   0  0  1  0  0  0  0  0  0  0  0  0
   46.9700   32.7330   46.7730 C   0  0  0  0  0  0  0  0  0  0  0  0
   45.5540   32.3240   47.0460 C   0  0  1  0  0  0  0  0  0  0  0  0
   46.1320   31.4870   45.0910 H   0  0  0  0  0  0  0  0  0  0  0  0
   47.2810   33.7880   46.8460 H   0  0  0  0  0  0  0  0  0  0  0  0
   47.7220   31.9320   46.9530 H   0  0  0  0  0  0  0  0  0  0  0  0
   45.3520   31.3290   47.4710 H   0  0  0  0  0  0  0  0  0  0  0  0
   44.7760   33.3960   47.6470 N   0  0  0  0  0  0  0  0  0  0  0  0
   45.2300   33.8000   48.4730 H   0  0  0  0  0  0  0  0  0  0  0  0
   43.7810   33.1120   47.7820 H   0  0  0  0  0  0  0  0  0  0  0  0
  1 11  1  0  0  0  0
  1  2  1  0  0  0  0
  2 23  1  0  0  0  0
  3  2  2  0  0  0  0
  3  7  1  0  0  0  0
  4  3  1  0  0  0  0
  5  6  1  0  0  0  0
  5  4  2  0  0  0  0
  6  1  2  0  0  0  0
  8  4  1  0  0  0  0
  9  5  1  0  0  0  0
 10  6  1  0  0  0  0
 11 13  2  0  0  0  0
 12 11  2  0  0  0  0
 14 15  1  0  0  0  0
 15 16  1  0  0  0  0
 16 17  2  0  0  0  0
 16 11  1  0  0  0  0
 17 18  1  0  0  0  0
 19 20  1  0  0  0  0
 19 17  1  0  0  0  0
 21 19  2  0  0  0  0
 22 21  1  0  0  0  0
 22 15  2  0  0  0  0
 23 25  1  0  0  0  0
 24 23  2  0  0  0  0
 25 26  2  0  0  0  0
 25 30  1  0  0  0  0
 26 27  1  0  0  0  0
 27 32  1  0  0  0  0
 27 28  2  0  0  0  0
 29 28  1  0  0  0  0
 29 33  1  0  0  0  0
 30 29  2  0  0  0  0
 31 26  1  0  0  0  0
 33 36  1  6  0  0  0
 33 34  1  0  0  0  0
 33 35  1  0  0  0  0
 34 37  1  0  0  0  0
 34 38  1  0  0  0  0
 34 35  1  0  0  0  0
 35 39  1  1  0  0  0
 35 40  1  0  0  0  0
 40 42  1  0  0  0  0
 40 41  1  0  0  0  0
M  END
>  <minimizedAffinity>
-5.87049723

>  <minimizedRMSD>
1.12951255

$$$$
