
 OpenBabel03242523343D

 37 40  0  0  0  0  0  0  0  0999 V2000
   45.5480   33.1570   46.4660 C   0  0  0  0  0  0  0  0  0  0  0  0
   44.5910   32.5610   46.5420 H   0  0  0  0  0  0  0  0  0  0  0  0
   45.7880   33.5400   47.4660 H   0  0  0  0  0  0  0  0  0  0  0  0
   44.3930   36.3000   44.8260 C   0  0  0  0  0  0  0  0  0  0  0  0
   45.0090   36.1680   43.5900 C   0  0  0  0  0  0  0  0  0  0  0  0
   45.7950   35.0560   43.3000 C   0  0  0  0  0  0  0  0  0  0  0  0
   45.9270   34.1100   44.2920 N   0  0  0  0  0  0  0  0  0  0  0  0
   45.3200   34.2550   45.4940 C   0  0  0  0  0  0  0  0  0  0  0  0
   44.5750   35.3400   45.7210 N   0  0  0  0  0  0  0  0  0  0  0  0
   43.7890   37.1830   45.0120 H   0  0  0  0  0  0  0  0  0  0  0  0
   44.8970   36.9300   42.8650 H   0  0  0  0  0  0  0  0  0  0  0  0
   44.5260   33.1420   41.0010 Br  0  0  0  0  0  0  0  0  0  0  0  0
   46.1970   34.0140   41.0070 C   0  0  0  0  0  0  0  0  0  0  0  0
   46.5240   34.7700   42.1000 C   0  0  0  0  0  0  0  0  0  0  0  0
   47.8040   35.3130   41.9740 C   0  0  0  0  0  0  0  0  0  0  0  0
   48.2680   35.9550   42.7380 H   0  0  0  0  0  0  0  0  0  0  0  0
   48.6320   35.1170   40.8920 C   0  0  0  0  0  0  0  0  0  0  0  0
   49.6140   35.5540   40.8290 H   0  0  0  0  0  0  0  0  0  0  0  0
   48.2200   34.3410   39.8340 C   0  0  0  0  0  0  0  0  0  0  0  0
   46.9790   33.7850   39.9040 C   0  0  0  0  0  0  0  0  0  0  0  0
   46.7740   32.0330   45.7740 S   0  0  0  0  0  0  0  0  0  0  0  0
   47.7090   31.2360   47.0580 C   0  0  0  0  0  0  0  0  0  0  0  0
   47.9310   31.9470   48.2120 C   0  0  0  0  0  0  0  0  0  0  0  0
   48.6530   31.3420   49.2170 C   0  0  0  0  0  0  0  0  0  0  0  0
   49.1570   30.0590   49.1070 C   0  0  0  0  0  0  0  0  0  0  0  0
   49.8580   29.4910   50.0950 N   0  0  0  0  0  0  0  0  0  0  0  0
   50.3540   28.2440   49.9950 C   0  0  0  0  0  0  0  0  0  0  0  0
   50.1310   27.5340   48.8360 C   0  0  0  0  0  0  0  0  0  0  0  0
   49.4070   28.1010   47.7960 C   0  0  0  0  0  0  0  0  0  0  0  0
   48.8920   29.4010   47.9070 C   0  0  0  0  0  0  0  0  0  0  0  0
   48.1750   29.9570   46.8680 C   0  0  0  0  0  0  0  0  0  0  0  0
   47.6140   32.9450   48.4570 H   0  0  0  0  0  0  0  0  0  0  0  0
   48.8760   31.8330   50.1650 H   0  0  0  0  0  0  0  0  0  0  0  0
   50.8930   27.9430   50.8820 H   0  0  0  0  0  0  0  0  0  0  0  0
   50.5550   26.5500   48.8280 H   0  0  0  0  0  0  0  0  0  0  0  0
   49.2550   27.5080   46.9060 H   0  0  0  0  0  0  0  0  0  0  0  0
   48.0020   29.4090   45.9720 H   0  0  0  0  0  0  0  0  0  0  0  0
  1  2  1  0  0  0  0
  1  3  1  0  0  0  0
  4 10  1  0  0  0  0
  4  9  1  0  0  0  0
  5  4  2  0  0  0  0
  6  5  1  0  0  0  0
  6  7  2  0  0  0  0
  7  8  1  0  0  0  0
  8  9  2  0  0  0  0
  8  1  1  0  0  0  0
 11  5  1  0  0  0  0
 12 13  1  0  0  0  0
 13 14  1  0  0  0  0
 14  6  1  0  0  0  0
 15 14  2  0  0  0  0
 15 16  1  0  0  0  0
 17 15  1  0  0  0  0
 18 17  1  0  0  0  0
 19 20  1  0  0  0  0
 19 17  2  0  0  0  0
 20 13  2  0  0  0  0
 21  1  1  0  0  0  0
 21 22  1  0  0  0  0
 22 23  1  0  0  0  0
 23 32  1  0  0  0  0
 23 24  2  0  0  0  0
 24 33  1  0  0  0  0
 25 24  1  0  0  0  0
 25 26  1  0  0  0  0
 27 26  2  0  0  0  0
 27 34  1  0  0  0  0
 28 27  1  0  0  0  0
 29 30  1  0  0  0  0
 29 28  2  0  0  0  0
 30 25  2  0  0  0  0
 31 22  2  0  0  0  0
 31 30  1  0  0  0  0
 35 28  1  0  0  0  0
 36 29  1  0  0  0  0
 37 31  1  0  0  0  0
M  END
>  <minimizedAffinity>
-6.54846096

>  <minimizedRMSD>
1.06559956

$$$$
