
 OpenBabel03252503153D

 36 39  0  0  0  0  0  0  0  0999 V2000
   45.5500   34.4700   41.3680 C   0  0  0  0  0  0  0  0  0  0  0  0
   46.7560   34.6580   40.9920 O   0  0  0  0  0  0  0  0  0  0  0  0
   44.4490   34.0420   40.4460 C   0  0  0  0  0  0  0  0  0  0  0  0
   43.1030   34.2680   40.6430 C   0  0  0  0  0  0  0  0  0  0  0  0
   42.4960   33.7160   39.5740 N   0  0  0  0  0  0  0  0  0  0  0  0
   43.4290   33.1790   38.7650 C   0  0  0  0  0  0  0  0  0  0  0  0
   44.6440   33.3780   39.3000 N   0  0  0  0  0  0  0  0  0  0  0  0
   43.2990   32.4850   37.5190 N   0  0  0  0  0  0  0  0  0  0  0  0
   42.6220   34.7680   41.4530 H   0  0  0  0  0  0  0  0  0  0  0  0
   43.8350   31.5970   37.3770 H   0  0  0  0  0  0  0  0  0  0  0  0
   42.6500   32.9440   36.8190 H   0  0  0  0  0  0  0  0  0  0  0  0
   41.4720   35.9990   37.7300 Br  0  0  0  0  0  0  0  0  0  0  0  0
   40.4390   34.5760   38.4540 C   0  0  0  0  0  0  0  0  0  0  0  0
   41.1040   33.6580   39.2600 C   0  0  0  0  0  0  0  0  0  0  0  0
   40.4130   32.6000   39.8180 C   0  0  0  0  0  0  0  0  0  0  0  0
   40.8730   31.8540   40.4520 H   0  0  0  0  0  0  0  0  0  0  0  0
   39.0630   32.4720   39.5630 C   0  0  0  0  0  0  0  0  0  0  0  0
   38.4540   31.6670   39.9680 H   0  0  0  0  0  0  0  0  0  0  0  0
   38.3610   33.3710   38.7620 C   0  0  0  0  0  3  0  0  0  0  0  0
   39.0850   34.4320   38.2100 C   0  0  0  0  0  3  0  0  0  0  0  0
   44.8810   35.9570   43.1920 C   0  0  0  0  0  0  0  0  0  0  0  0
   45.2960   34.6900   42.7440 C   0  0  0  0  0  0  0  0  0  0  0  0
   45.4210   33.7400   43.7300 C   0  0  0  0  0  0  0  0  0  0  0  0
   45.1640   34.0090   45.0250 N   0  0  0  0  0  0  0  0  0  0  0  0
   44.7670   35.2480   45.4040 C   0  0  0  0  0  0  0  0  0  0  0  0
   44.6290   36.2120   44.4850 N   0  0  0  0  0  0  0  0  0  0  0  0
   44.7490   36.7830   42.5020 H   0  0  0  0  0  0  0  0  0  0  0  0
   44.5760   35.4030   46.4550 H   0  0  0  0  0  0  0  0  0  0  0  0
   45.8360   32.4340   43.3720 C   0  0  0  0  0  0  0  0  0  0  0  0
   47.0340   31.8000   43.2620 C   0  0  0  0  0  0  0  0  0  0  0  0
   47.1210   30.5380   42.8960 C   0  0  0  0  0  0  0  0  0  0  0  0
   45.9700   29.8840   42.6270 C   0  0  0  0  0  0  0  0  0  0  0  0
   44.6900   31.1500   42.9180 S   0  0  0  0  0  0  0  0  0  0  0  0
   47.9080   32.4360   43.5060 H   0  0  0  0  0  0  0  0  0  0  0  0
   48.0320   29.9640   42.7850 H   0  0  0  0  0  0  0  0  0  0  0  0
   45.7490   28.8480   42.3070 H   0  0  0  0  0  0  0  0  0  0  0  0
  1 22  1  0  0  0  0
  2  1  2  0  0  0  0
  3  4  2  0  0  0  0
  3  1  1  0  0  0  0
  4  9  1  0  0  0  0
  5  4  1  0  0  0  0
  6  7  2  0  0  0  0
  6  5  1  0  0  0  0
  7  3  1  0  0  0  0
  8  6  1  0  0  0  0
 10  8  1  0  0  0  0
 11  8  1  0  0  0  0
 12 13  1  0  0  0  0
 13 14  1  0  0  0  0
 14  5  1  0  0  0  0
 14 15  2  0  0  0  0
 15 16  1  0  0  0  0
 17 15  1  0  0  0  0
 17 18  1  0  0  0  0
 19 17  2  0  0  0  0
 20 13  2  0  0  0  0
 20 19  1  0  0  0  0
 21 26  1  0  0  0  0
 22 21  2  0  0  0  0
 22 23  1  0  0  0  0
 23 24  2  0  0  0  0
 24 25  1  0  0  0  0
 25 28  1  0  0  0  0
 26 25  2  0  0  0  0
 27 21  1  0  0  0  0
 29 23  1  0  0  0  0
 30 29  2  0  0  0  0
 30 34  1  0  0  0  0
 31 30  1  0  0  0  0
 32 31  2  0  0  0  0
 32 33  1  0  0  0  0
 33 29  1  0  0  0  0
 35 31  1  0  0  0  0
 36 32  1  0  0  0  0
M  END
>  <minimizedAffinity>
-6.14164257

>  <minimizedRMSD>
1.65392172

$$$$
