
 OpenBabel03252503433D

 34 36  0  0  1  0  0  0  0  0999 V2000
   45.9750   33.5650   42.3330 C   0  0  0  0  0  0  0  0  0  0  0  0
   46.2080   34.9520   42.3110 C   0  0  0  0  0  0  0  0  0  0  0  0
   47.5150   35.3810   42.2330 C   0  0  0  0  0  0  0  0  0  0  0  0
   48.4930   34.4620   42.1820 N   0  0  0  0  0  0  0  0  0  0  0  0
   48.2620   33.1470   42.2050 C   0  0  0  0  0  0  0  0  0  0  0  0
   46.9880   32.6520   42.2810 N   0  0  0  0  0  0  0  0  0  0  0  0
   44.9910   33.1160   42.3910 H   0  0  0  0  0  0  0  0  0  0  0  0
   47.6530   36.4480   42.2100 H   0  0  0  0  0  0  0  0  0  0  0  0
   49.1900   31.0510   41.2050 C   0  0  2  0  0  0  0  0  0  0  0  0
   49.4280   32.2680   42.1270 C   0  0  1  0  0  0  0  0  0  0  0  0
   50.5270   32.8130   41.5180 O   0  0  0  0  0  0  0  0  0  0  0  0
   51.3930   31.8020   41.2300 C   0  0  0  0  0  0  0  0  0  0  0  0
   50.6240   30.4940   41.2520 C   0  0  2  0  0  0  0  0  0  0  0  0
   48.4640   30.3620   41.6290 H   0  0  0  0  0  0  0  0  0  0  0  0
   49.7170   31.8990   43.1350 H   0  0  0  0  0  0  0  0  0  0  0  0
   52.1780   31.7900   42.0160 H   0  0  0  0  0  0  0  0  0  0  0  0
   51.9040   31.8920   40.2570 H   0  0  0  0  0  0  0  0  0  0  0  0
   50.7210   29.9680   42.2140 H   0  0  0  0  0  0  0  0  0  0  0  0
   48.9870   31.4850   39.9360 O   0  0  0  0  0  0  0  0  0  0  0  0
   48.4330   30.8430   39.4240 H   0  0  0  0  0  0  0  0  0  0  0  0
   50.8940   29.6460   40.2110 O   0  0  0  0  0  0  0  0  0  0  0  0
   51.1350   28.7480   40.5340 H   0  0  0  0  0  0  0  0  0  0  0  0
   44.9600   35.7450   42.3630 C   0  0  0  0  0  0  0  0  0  0  0  0
   44.1360   35.0700   42.6630 H   0  0  0  0  0  0  0  0  0  0  0  0
   44.7190   36.1810   41.3450 H   0  0  0  0  0  0  0  0  0  0  0  0
   44.5510   35.2860   45.5320 Br  0  0  0  0  0  0  0  0  0  0  0  0
   44.8970   36.9330   44.6460 C   0  0  0  0  0  0  0  0  0  0  0  0
   45.0450   36.8670   43.2800 C   0  0  0  0  0  0  0  0  0  0  0  0
   45.3090   38.1340   42.7380 C   0  0  0  0  0  0  0  0  0  0  0  0
   45.4500   38.2110   41.6480 H   0  0  0  0  0  0  0  0  0  0  0  0
   45.4190   39.3230   43.4020 C   0  0  0  0  0  0  0  0  0  0  0  0
   45.6250   40.2470   42.8860 H   0  0  0  0  0  0  0  0  0  0  0  0
   45.2540   39.2880   44.7710 C   0  0  0  0  0  3  0  0  0  0  0  0
   44.9930   38.0890   45.3840 C   0  0  0  0  0  3  0  0  0  0  0  0
  1  7  1  0  0  0  0
  2  1  1  0  0  0  0
  2 23  1  0  0  0  0
  3  2  2  0  0  0  0
  4  5  2  0  0  0  0
  4  3  1  0  0  0  0
  5  6  1  0  0  0  0
  6  1  2  0  0  0  0
  8  3  1  0  0  0  0
  9 13  1  0  0  0  0
  9 14  1  1  0  0  0
  9 10  1  0  0  0  0
 10  5  1  0  0  0  0
 10 15  1  1  0  0  0
 11 10  1  0  0  0  0
 12 13  1  0  0  0  0
 12 11  1  0  0  0  0
 12 16  1  0  0  0  0
 13 18  1  1  0  0  0
 17 12  1  0  0  0  0
 19  9  1  0  0  0  0
 20 19  1  0  0  0  0
 21 22  1  0  0  0  0
 21 13  1  0  0  0  0
 23 24  1  0  0  0  0
 23 28  1  0  0  0  0
 25 23  1  0  0  0  0
 27 34  1  0  0  0  0
 27 26  1  0  0  0  0
 28 27  2  0  0  0  0
 29 28  1  0  0  0  0
 29 31  2  0  0  0  0
 30 29  1  0  0  0  0
 31 33  1  0  0  0  0
 32 31  1  0  0  0  0
 33 34  2  0  0  0  0
M  END
>  <minimizedAffinity>
-1.62035978

>  <minimizedRMSD>
5.35526657

$$$$
