
 OpenBabel03242515153D

 34 36  0  0  0  0  0  0  0  0999 V2000
   35.6770   28.7570   39.0970 C   0  0  0  0  0  0  0  0  0  0  0  0
   34.6630   28.7350   38.6170 H   0  0  0  0  0  0  0  0  0  0  0  0
   35.5020   28.8540   40.1970 H   0  0  0  0  0  0  0  0  0  0  0  0
   36.4770   29.8840   38.5730 C   0  0  0  0  0  0  0  0  0  0  0  0
   36.7900   30.2200   37.2830 C   0  0  0  0  0  0  0  0  0  0  0  0
   37.5560   31.3520   37.3270 C   0  0  0  0  0  0  0  0  0  0  0  0
   37.7100   31.7030   38.6100 N   0  0  0  0  0  0  0  0  0  0  0  0
   37.0460   30.7960   39.3490 N   0  0  0  0  0  0  0  0  0  0  0  0
   36.4880   29.6910   36.4090 H   0  0  0  0  0  0  0  0  0  0  0  0
   38.0030   31.9320   36.5300 H   0  0  0  0  0  0  0  0  0  0  0  0
   40.6180   30.9260   38.7800 Br  0  0  0  0  0  0  0  0  0  0  0  0
   39.7510   32.5200   39.4000 C   0  0  0  0  0  0  0  0  0  0  0  0
   38.3900   32.7670   39.2630 C   0  0  0  0  0  0  0  0  0  0  0  0
   37.8490   33.9440   39.7400 C   0  0  0  0  0  0  0  0  0  0  0  0
   36.7750   34.0460   39.5860 H   0  0  0  0  0  0  0  0  0  0  0  0
   38.6710   34.8750   40.3550 C   0  0  0  0  0  0  0  0  0  0  0  0
   38.1900   35.7770   40.7080 H   0  0  0  0  0  0  0  0  0  0  0  0
   40.0240   34.6170   40.4860 C   0  0  0  0  0  3  0  0  0  0  0  0
   40.5800   33.4420   40.0120 C   0  0  0  0  0  3  0  0  0  0  0  0
   36.3010   27.4400   38.7330 C   0  0  0  0  0  0  0  0  0  0  0  0
   35.6930   26.8100   38.0710 H   0  0  0  0  0  0  0  0  0  0  0  0
   37.2440   27.6790   38.1840 H   0  0  0  0  0  0  0  0  0  0  0  0
   37.0110   24.7640   41.2760 C   0  0  0  0  0  0  0  0  0  0  0  0
   37.1410   25.5620   42.4390 C   0  0  0  0  0  0  0  0  0  0  0  0
   36.9800   26.9390   42.2830 C   0  0  0  0  0  0  0  0  0  0  0  0
   36.7140   27.4050   41.0380 N   0  0  0  0  0  0  0  0  0  0  0  0
   36.5960   26.6180   39.9540 C   0  0  0  0  0  0  0  0  0  0  0  0
   36.7480   25.2900   40.0810 N   0  0  0  0  0  0  0  0  0  0  0  0
   37.1210   23.7080   41.3190 H   0  0  0  0  0  0  0  0  0  0  0  0
   37.3520   25.0170   43.3320 H   0  0  0  0  0  0  0  0  0  0  0  0
   37.1170   27.7450   43.4860 C   0  0  0  0  0  0  0  0  0  0  0  0
   38.2360   27.3220   44.2040 F   0  0  0  0  0  0  0  0  0  0  0  0
   36.0340   27.4350   44.2970 F   0  0  0  0  0  0  0  0  0  0  0  0
   37.2270   29.0860   43.2300 F   0  0  0  0  0  0  0  0  0  0  0  0
  1  3  1  0  0  0  0
  2  1  1  0  0  0  0
  4  1  1  0  0  0  0
  4  8  2  0  0  0  0
  5  6  2  0  0  0  0
  5  4  1  0  0  0  0
  6  7  1  0  0  0  0
  7 13  1  0  0  0  0
  7  8  1  0  0  0  0
  9  5  1  0  0  0  0
 10  6  1  0  0  0  0
 11 12  1  0  0  0  0
 12 19  1  0  0  0  0
 13 12  2  0  0  0  0
 13 14  1  0  0  0  0
 14 16  2  0  0  0  0
 15 14  1  0  0  0  0
 16 18  1  0  0  0  0
 16 17  1  0  0  0  0
 19 18  2  0  0  0  0
 20  1  1  0  0  0  0
 20 27  1  0  0  0  0
 21 20  1  0  0  0  0
 22 20  1  0  0  0  0
 23 29  1  0  0  0  0
 23 24  1  0  0  0  0
 24 30  1  0  0  0  0
 25 24  2  0  0  0  0
 25 31  1  0  0  0  0
 26 25  1  0  0  0  0
 27 28  1  0  0  0  0
 27 26  2  0  0  0  0
 28 23  2  0  0  0  0
 31 32  1  0  0  0  0
 31 33  1  0  0  0  0
 34 31  1  0  0  0  0
M  END
>  <minimizedAffinity>
-6.14531326

$$$$

 OpenBabel03242515153D

 34 36  0  0  0  0  0  0  0  0999 V2000
   39.2950   31.4570   41.2500 C   0  0  0  0  0  0  0  0  0  0  0  0
   39.5480   30.5690   40.6140 H   0  0  0  0  0  0  0  0  0  0  0  0
   38.1940   31.6170   41.1430 H   0  0  0  0  0  0  0  0  0  0  0  0
   40.0610   32.6460   40.8160 C   0  0  0  0  0  0  0  0  0  0  0  0
   39.6250   33.8810   40.4200 C   0  0  0  0  0  0  0  0  0  0  0  0
   40.7280   34.6300   40.1180 C   0  0  0  0  0  0  0  0  0  0  0  0
   41.8140   33.8750   40.3230 N   0  0  0  0  0  0  0  0  0  0  0  0
   41.3840   32.6730   40.7480 N   0  0  0  0  0  0  0  0  0  0  0  0
   38.6080   34.1950   40.3600 H   0  0  0  0  0  0  0  0  0  0  0  0
   40.8130   35.6510   39.7700 H   0  0  0  0  0  0  0  0  0  0  0  0
   42.4960   33.4580   37.4170 Br  0  0  0  0  0  0  0  0  0  0  0  0
   43.6450   33.9390   38.8750 C   0  0  0  0  0  0  0  0  0  0  0  0
   43.2100   34.1030   40.1840 C   0  0  0  0  0  0  0  0  0  0  0  0
   44.1090   34.4510   41.1730 C   0  0  0  0  0  0  0  0  0  0  0  0
   43.6740   34.5570   42.1670 H   0  0  0  0  0  0  0  0  0  0  0  0
   45.4450   34.6340   40.8510 C   0  0  0  0  0  0  0  0  0  0  0  0
   46.1000   34.9050   41.6670 H   0  0  0  0  0  0  0  0  0  0  0  0
   45.8650   34.4670   39.5430 C   0  0  0  0  0  3  0  0  0  0  0  0
   44.9760   34.1190   38.5420 C   0  0  0  0  0  3  0  0  0  0  0  0
   39.6790   31.0510   42.6450 C   0  0  0  0  0  0  0  0  0  0  0  0
   40.6850   31.3630   42.9540 H   0  0  0  0  0  0  0  0  0  0  0  0
   38.9540   31.5530   43.3310 H   0  0  0  0  0  0  0  0  0  0  0  0
   40.3340   27.3700   43.0390 C   0  0  0  0  0  0  0  0  0  0  0  0
   39.0040   26.8960   43.1420 C   0  0  0  0  0  0  0  0  0  0  0  0
   37.9860   27.8470   43.0710 C   0  0  0  0  0  0  0  0  0  0  0  0
   38.3450   29.1440   42.9100 N   0  0  0  0  0  0  0  0  0  0  0  0
   39.6210   29.5610   42.8150 C   0  0  0  0  0  0  0  0  0  0  0  0
   40.6160   28.6620   42.8820 N   0  0  0  0  0  0  0  0  0  0  0  0
   41.1610   26.7030   43.0850 H   0  0  0  0  0  0  0  0  0  0  0  0
   38.9160   25.8390   43.2660 H   0  0  0  0  0  0  0  0  0  0  0  0
   36.6250   27.3450   43.1780 C   0  0  0  0  0  0  0  0  0  0  0  0
   36.6000   25.9930   42.8320 F   0  0  0  0  0  0  0  0  0  0  0  0
   35.8880   27.9800   42.1890 F   0  0  0  0  0  0  0  0  0  0  0  0
   36.0870   27.4990   44.4290 F   0  0  0  0  0  0  0  0  0  0  0  0
  1 20  1  0  0  0  0
  2  1  1  0  0  0  0
  3  1  1  0  0  0  0
  4  1  1  0  0  0  0
  5  4  1  0  0  0  0
  6  7  1  0  0  0  0
  6  5  2  0  0  0  0
  7  8  1  0  0  0  0
  8  4  2  0  0  0  0
  9  5  1  0  0  0  0
 10  6  1  0  0  0  0
 11 12  1  0  0  0  0
 12 13  1  0  0  0  0
 13  7  1  0  0  0  0
 13 14  2  0  0  0  0
 14 15  1  0  0  0  0
 16 14  1  0  0  0  0
 16 17  1  0  0  0  0
 18 16  2  0  0  0  0
 19 12  2  0  0  0  0
 19 18  1  0  0  0  0
 20 27  1  0  0  0  0
 20 21  1  0  0  0  0
 20 22  1  0  0  0  0
 23 29  1  0  0  0  0
 23 24  1  0  0  0  0
 24 30  1  0  0  0  0
 25 24  2  0  0  0  0
 25 31  1  0  0  0  0
 26 25  1  0  0  0  0
 27 28  1  0  0  0  0
 27 26  2  0  0  0  0
 28 23  2  0  0  0  0
 31 34  1  0  0  0  0
 32 31  1  0  0  0  0
 33 31  1  0  0  0  0
M  END
>  <minimizedAffinity>
-6.05747557

$$$$

 OpenBabel03242515153D

 34 36  0  0  0  0  0  0  0  0999 V2000
   37.1070   28.9570   42.5020 C   0  0  0  0  0  0  0  0  0  0  0  0
   36.9610   27.9580   42.0110 H   0  0  0  0  0  0  0  0  0  0  0  0
   36.2570   29.0830   43.2170 H   0  0  0  0  0  0  0  0  0  0  0  0
   37.1330   30.0360   41.4920 C   0  0  0  0  0  0  0  0  0  0  0  0
   36.2260   30.3560   40.5180 C   0  0  0  0  0  0  0  0  0  0  0  0
   36.7120   31.4400   39.8420 C   0  0  0  0  0  0  0  0  0  0  0  0
   37.8880   31.7790   40.3860 N   0  0  0  0  0  0  0  0  0  0  0  0
   38.1230   30.9110   41.3870 N   0  0  0  0  0  0  0  0  0  0  0  0
   35.3090   29.8470   40.3270 H   0  0  0  0  0  0  0  0  0  0  0  0
   36.3000   31.9950   39.0090 H   0  0  0  0  0  0  0  0  0  0  0  0
   39.9290   30.6110   38.5010 Br  0  0  0  0  0  0  0  0  0  0  0  0
   39.8390   32.3740   39.2480 C   0  0  0  0  0  0  0  0  0  0  0  0
   38.8390   32.8000   40.1150 C   0  0  0  0  0  0  0  0  0  0  0  0
   38.8520   34.0900   40.6060 C   0  0  0  0  0  0  0  0  0  0  0  0
   38.0270   34.3300   41.2770 H   0  0  0  0  0  0  0  0  0  0  0  0
   39.8670   34.9560   40.2300 C   0  0  0  0  0  0  0  0  0  0  0  0
   39.8240   35.9530   40.6470 H   0  0  0  0  0  0  0  0  0  0  0  0
   40.8570   34.5200   39.3660 C   0  0  0  0  0  3  0  0  0  0  0  0
   40.8560   33.2300   38.8660 C   0  0  0  0  0  3  0  0  0  0  0  0
   38.4310   28.8460   43.2040 C   0  0  0  0  0  0  0  0  0  0  0  0
   39.2320   29.4620   42.7760 H   0  0  0  0  0  0  0  0  0  0  0  0
   38.2640   29.2040   44.2490 H   0  0  0  0  0  0  0  0  0  0  0  0
   40.2600   25.5980   43.6900 C   0  0  0  0  0  0  0  0  0  0  0  0
   39.4500   24.7430   42.9030 C   0  0  0  0  0  0  0  0  0  0  0  0
   38.3500   25.3200   42.2690 C   0  0  0  0  0  0  0  0  0  0  0  0
   38.1420   26.6470   42.4520 N   0  0  0  0  0  0  0  0  0  0  0  0
   38.9330   27.4310   43.2060 C   0  0  0  0  0  0  0  0  0  0  0  0
   39.9970   26.8960   43.8260 N   0  0  0  0  0  0  0  0  0  0  0  0
   41.1150   25.2280   44.2020 H   0  0  0  0  0  0  0  0  0  0  0  0
   39.7720   23.7250   42.8770 H   0  0  0  0  0  0  0  0  0  0  0  0
   37.5280   24.4290   41.4650 C   0  0  0  0  0  0  0  0  0  0  0  0
   38.1470   23.1810   41.3750 F   0  0  0  0  0  0  0  0  0  0  0  0
   37.5470   24.9300   40.1710 F   0  0  0  0  0  0  0  0  0  0  0  0
   36.2610   24.2680   41.9590 F   0  0  0  0  0  0  0  0  0  0  0  0
  1 20  1  0  0  0  0
  1  3  1  0  0  0  0
  2  1  1  0  0  0  0
  4  1  1  0  0  0  0
  5  4  1  0  0  0  0
  6  7  1  0  0  0  0
  6  5  2  0  0  0  0
  7  8  1  0  0  0  0
  8  4  2  0  0  0  0
  9  5  1  0  0  0  0
 10  6  1  0  0  0  0
 11 12  1  0  0  0  0
 12 13  1  0  0  0  0
 13  7  1  0  0  0  0
 13 14  2  0  0  0  0
 14 15  1  0  0  0  0
 16 14  1  0  0  0  0
 16 17  1  0  0  0  0
 18 16  2  0  0  0  0
 19 12  2  0  0  0  0
 19 18  1  0  0  0  0
 20 27  1  0  0  0  0
 20 22  1  0  0  0  0
 21 20  1  0  0  0  0
 23 28  1  0  0  0  0
 23 29  1  0  0  0  0
 24 23  2  0  0  0  0
 25 26  2  0  0  0  0
 25 24  1  0  0  0  0
 26 27  1  0  0  0  0
 27 28  2  0  0  0  0
 30 24  1  0  0  0  0
 31 34  1  0  0  0  0
 31 25  1  0  0  0  0
 32 31  1  0  0  0  0
 33 31  1  0  0  0  0
M  END
>  <minimizedAffinity>
-6.04029179

$$$$

 OpenBabel03242515153D

 34 36  0  0  0  0  0  0  0  0999 V2000
   35.9970   28.6820   39.3050 C   0  0  0  0  0  0  0  0  0  0  0  0
   36.7060   27.8160   39.3850 H   0  0  0  0  0  0  0  0  0  0  0  0
   35.1490   28.3360   38.6650 H   0  0  0  0  0  0  0  0  0  0  0  0
   36.6760   29.8590   38.7200 C   0  0  0  0  0  0  0  0  0  0  0  0
   36.8500   30.2170   37.4100 C   0  0  0  0  0  0  0  0  0  0  0  0
   37.5450   31.3930   37.3940 C   0  0  0  0  0  0  0  0  0  0  0  0
   37.7930   31.7510   38.6600 N   0  0  0  0  0  0  0  0  0  0  0  0
   37.2550   30.8020   39.4490 N   0  0  0  0  0  0  0  0  0  0  0  0
   36.5030   29.6720   36.5620 H   0  0  0  0  0  0  0  0  0  0  0  0
   37.8810   32.0030   36.5650 H   0  0  0  0  0  0  0  0  0  0  0  0
   40.7450   31.1460   38.5820 Br  0  0  0  0  0  0  0  0  0  0  0  0
   39.8410   32.6870   39.2790 C   0  0  0  0  0  0  0  0  0  0  0  0
   38.4620   32.8530   39.2580 C   0  0  0  0  0  0  0  0  0  0  0  0
   37.8940   33.9970   39.7840 C   0  0  0  0  0  0  0  0  0  0  0  0
   36.8070   34.0360   39.7210 H   0  0  0  0  0  0  0  0  0  0  0  0
   38.7090   34.9760   40.3310 C   0  0  0  0  0  0  0  0  0  0  0  0
   38.2080   35.8480   40.7270 H   0  0  0  0  0  0  0  0  0  0  0  0
   40.0820   34.7980   40.3460 C   0  0  0  0  0  3  0  0  0  0  0  0
   40.6630   33.6570   39.8230 C   0  0  0  0  0  3  0  0  0  0  0  0
   35.5700   28.9570   40.7190 C   0  0  0  0  0  0  0  0  0  0  0  0
   35.3990   30.0160   40.9510 H   0  0  0  0  0  0  0  0  0  0  0  0
   34.5950   28.4300   40.8620 H   0  0  0  0  0  0  0  0  0  0  0  0
   38.1200   28.4770   43.4390 C   0  0  0  0  0  0  0  0  0  0  0  0
   38.3790   27.0930   43.2880 C   0  0  0  0  0  0  0  0  0  0  0  0
   37.6780   26.4240   42.2840 C   0  0  0  0  0  0  0  0  0  0  0  0
   36.8080   27.1450   41.5350 N   0  0  0  0  0  0  0  0  0  0  0  0
   36.5870   28.4610   41.7050 C   0  0  0  0  0  0  0  0  0  0  0  0
   37.2500   29.1240   42.6650 N   0  0  0  0  0  0  0  0  0  0  0  0
   38.6170   29.0520   44.1820 H   0  0  0  0  0  0  0  0  0  0  0  0
   39.0970   26.6980   43.9710 H   0  0  0  0  0  0  0  0  0  0  0  0
   37.9540   25.0030   42.1420 C   0  0  0  0  0  0  0  0  0  0  0  0
   38.9320   24.6250   43.0650 F   0  0  0  0  0  0  0  0  0  0  0  0
   38.5530   24.8370   40.9010 F   0  0  0  0  0  0  0  0  0  0  0  0
   36.8470   24.2160   42.3120 F   0  0  0  0  0  0  0  0  0  0  0  0
  1  2  1  0  0  0  0
  1 20  1  0  0  0  0
  3  1  1  0  0  0  0
  4  1  1  0  0  0  0
  4  8  2  0  0  0  0
  5  4  1  0  0  0  0
  6  5  2  0  0  0  0
  6  7  1  0  0  0  0
  7 13  1  0  0  0  0
  7  8  1  0  0  0  0
  9  5  1  0  0  0  0
 10  6  1  0  0  0  0
 11 12  1  0  0  0  0
 12 19  1  0  0  0  0
 13 12  2  0  0  0  0
 13 14  1  0  0  0  0
 14 16  2  0  0  0  0
 15 14  1  0  0  0  0
 16 18  1  0  0  0  0
 16 17  1  0  0  0  0
 19 18  2  0  0  0  0
 20 22  1  0  0  0  0
 20 21  1  0  0  0  0
 20 27  1  0  0  0  0
 23 29  1  0  0  0  0
 24 23  1  0  0  0  0
 24 30  1  0  0  0  0
 25 24  2  0  0  0  0
 26 27  2  0  0  0  0
 26 25  1  0  0  0  0
 27 28  1  0  0  0  0
 28 23  2  0  0  0  0
 31 25  1  0  0  0  0
 31 34  1  0  0  0  0
 31 32  1  0  0  0  0
 33 31  1  0  0  0  0
M  END
>  <minimizedAffinity>
-5.98956203

$$$$

 OpenBabel03242515153D

 34 36  0  0  0  0  0  0  0  0999 V2000
   37.1790   31.9470   39.2470 C   0  0  0  0  0  0  0  0  0  0  0  0
   37.5370   31.0280   38.7120 H   0  0  0  0  0  0  0  0  0  0  0  0
   36.4160   32.4210   38.5820 H   0  0  0  0  0  0  0  0  0  0  0  0
   38.3070   32.8630   39.5210 C   0  0  0  0  0  0  0  0  0  0  0  0
   38.3540   34.0030   40.2760 C   0  0  0  0  0  0  0  0  0  0  0  0
   39.6310   34.4870   40.2120 C   0  0  0  0  0  0  0  0  0  0  0  0
   40.3510   33.6650   39.4370 N   0  0  0  0  0  0  0  0  0  0  0  0
   39.5240   32.6860   39.0280 N   0  0  0  0  0  0  0  0  0  0  0  0
   37.5400   34.4310   40.8150 H   0  0  0  0  0  0  0  0  0  0  0  0
   40.0780   35.3620   40.6660 H   0  0  0  0  0  0  0  0  0  0  0  0
   41.8960   32.0470   41.4560 Br  0  0  0  0  0  0  0  0  0  0  0  0
   42.5230   32.9280   39.8730 C   0  0  0  0  0  0  0  0  0  0  0  0
   41.7070   33.6520   39.0120 C   0  0  0  0  0  0  0  0  0  0  0  0
   42.2450   34.2560   37.8930 C   0  0  0  0  0  0  0  0  0  0  0  0
   41.5260   34.7990   37.2800 H   0  0  0  0  0  0  0  0  0  0  0  0
   43.6010   34.1350   37.6350 C   0  0  0  0  0  0  0  0  0  0  0  0
   43.9640   34.6300   36.7440 H   0  0  0  0  0  0  0  0  0  0  0  0
   44.4030   33.4120   38.5000 C   0  0  0  0  0  3  0  0  0  0  0  0
   43.8780   32.8020   39.6250 C   0  0  0  0  0  3  0  0  0  0  0  0
   36.5800   31.4350   40.5270 C   0  0  0  0  0  0  0  0  0  0  0  0
   37.0360   31.8350   41.4410 H   0  0  0  0  0  0  0  0  0  0  0  0
   35.5100   31.7590   40.5250 H   0  0  0  0  0  0  0  0  0  0  0  0
   36.7340   27.7230   39.9530 C   0  0  0  0  0  0  0  0  0  0  0  0
   36.9100   27.2780   41.2860 C   0  0  0  0  0  0  0  0  0  0  0  0
   36.9640   28.2570   42.2780 C   0  0  0  0  0  0  0  0  0  0  0  0
   36.8440   29.5520   41.8930 N   0  0  0  0  0  0  0  0  0  0  0  0
   36.6770   29.9400   40.6160 C   0  0  0  0  0  0  0  0  0  0  0  0
   36.6230   29.0140   39.6450 N   0  0  0  0  0  0  0  0  0  0  0  0
   36.6840   27.0340   39.1460 H   0  0  0  0  0  0  0  0  0  0  0  0
   36.9840   26.2190   41.3960 H   0  0  0  0  0  0  0  0  0  0  0  0
   37.1450   27.7850   43.6420 C   0  0  0  0  0  0  0  0  0  0  0  0
   35.9460   27.2440   44.1090 F   0  0  0  0  0  0  0  0  0  0  0  0
   37.3580   28.9090   44.4270 F   0  0  0  0  0  0  0  0  0  0  0  0
   38.1380   26.8500   43.7640 F   0  0  0  0  0  0  0  0  0  0  0  0
  1  4  1  0  0  0  0
  1 20  1  0  0  0  0
  2  1  1  0  0  0  0
  3  1  1  0  0  0  0
  4  5  1  0  0  0  0
  5  9  1  0  0  0  0
  6  5  2  0  0  0  0
  6 10  1  0  0  0  0
  7  6  1  0  0  0  0
  8  7  1  0  0  0  0
  8  4  2  0  0  0  0
 12 11  1  0  0  0  0
 13  7  1  0  0  0  0
 13 12  2  0  0  0  0
 14 13  1  0  0  0  0
 15 14  1  0  0  0  0
 16 14  2  0  0  0  0
 16 18  1  0  0  0  0
 17 16  1  0  0  0  0
 18 19  2  0  0  0  0
 19 12  1  0  0  0  0
 20 27  1  0  0  0  0
 20 21  1  0  0  0  0
 22 20  1  0  0  0  0
 23 24  1  0  0  0  0
 24 30  1  0  0  0  0
 24 25  2  0  0  0  0
 25 31  1  0  0  0  0
 26 25  1  0  0  0  0
 27 26  2  0  0  0  0
 28 23  2  0  0  0  0
 28 27  1  0  0  0  0
 29 23  1  0  0  0  0
 31 34  1  0  0  0  0
 31 32  1  0  0  0  0
 31 33  1  0  0  0  0
M  END
>  <minimizedAffinity>
-5.94138718

$$$$

 OpenBabel03242515153D

 34 36  0  0  0  0  0  0  0  0999 V2000
   36.9300   30.0570   38.4890 C   0  0  0  0  0  0  0  0  0  0  0  0
   37.6650   29.2180   38.3700 H   0  0  0  0  0  0  0  0  0  0  0  0
   36.5740   30.3110   37.4600 H   0  0  0  0  0  0  0  0  0  0  0  0
   37.5680   31.2190   39.1460 C   0  0  0  0  0  0  0  0  0  0  0  0
   37.0080   32.2570   39.8400 C   0  0  0  0  0  0  0  0  0  0  0  0
   38.0250   33.0750   40.2480 C   0  0  0  0  0  0  0  0  0  0  0  0
   39.1800   32.5530   39.8160 N   0  0  0  0  0  0  0  0  0  0  0  0
   38.8770   31.4250   39.1490 N   0  0  0  0  0  0  0  0  0  0  0  0
   35.9680   32.3970   40.0260 H   0  0  0  0  0  0  0  0  0  0  0  0
   38.0040   33.9950   40.8180 H   0  0  0  0  0  0  0  0  0  0  0  0
   40.3240   31.1140   42.2050 Br  0  0  0  0  0  0  0  0  0  0  0  0
   41.1780   32.3430   41.0060 C   0  0  0  0  0  0  0  0  0  0  0  0
   40.5410   32.9480   39.9310 C   0  0  0  0  0  0  0  0  0  0  0  0
   41.2340   33.8230   39.1170 C   0  0  0  0  0  0  0  0  0  0  0  0
   40.6490   34.2460   38.3010 H   0  0  0  0  0  0  0  0  0  0  0  0
   42.5680   34.0920   39.3820 C   0  0  0  0  0  0  0  0  0  0  0  0
   43.0570   34.7850   38.7120 H   0  0  0  0  0  0  0  0  0  0  0  0
   43.1910   33.4830   40.4570 C   0  0  0  0  0  3  0  0  0  0  0  0
   42.5090   32.6050   41.2800 C   0  0  0  0  0  3  0  0  0  0  0  0
   35.8360   29.4890   39.3470 C   0  0  0  0  0  0  0  0  0  0  0  0
   35.4300   30.1820   40.0940 H   0  0  0  0  0  0  0  0  0  0  0  0
   34.9990   29.2240   38.6560 H   0  0  0  0  0  0  0  0  0  0  0  0
   36.8870   26.0760   40.5230 C   0  0  0  0  0  0  0  0  0  0  0  0
   37.2110   26.3720   41.8700 C   0  0  0  0  0  0  0  0  0  0  0  0
   37.0530   27.6950   42.2830 C   0  0  0  0  0  0  0  0  0  0  0  0
   36.6040   28.5910   41.3690 N   0  0  0  0  0  0  0  0  0  0  0  0
   36.3040   28.2750   40.0970 C   0  0  0  0  0  0  0  0  0  0  0  0
   36.4490   27.0080   39.6780 N   0  0  0  0  0  0  0  0  0  0  0  0
   36.9820   25.0900   40.1390 H   0  0  0  0  0  0  0  0  0  0  0  0
   37.5490   25.5360   42.4410 H   0  0  0  0  0  0  0  0  0  0  0  0
   37.3900   27.9840   43.6680 C   0  0  0  0  0  0  0  0  0  0  0  0
   38.4140   27.1310   44.0840 F   0  0  0  0  0  0  0  0  0  0  0  0
   36.2890   27.6170   44.4300 F   0  0  0  0  0  0  0  0  0  0  0  0
   37.7740   29.2820   43.8730 F   0  0  0  0  0  0  0  0  0  0  0  0
  1  4  1  0  0  0  0
  1 20  1  0  0  0  0
  2  1  1  0  0  0  0
  3  1  1  0  0  0  0
  4  8  2  0  0  0  0
  4  5  1  0  0  0  0
  5  9  1  0  0  0  0
  5  6  2  0  0  0  0
  6 10  1  0  0  0  0
  7 13  1  0  0  0  0
  7  6  1  0  0  0  0
  8  7  1  0  0  0  0
 12 19  1  0  0  0  0
 12 11  1  0  0  0  0
 13 12  2  0  0  0  0
 14 16  2  0  0  0  0
 14 13  1  0  0  0  0
 15 14  1  0  0  0  0
 16 18  1  0  0  0  0
 17 16  1  0  0  0  0
 18 19  2  0  0  0  0
 20 21  1  0  0  0  0
 20 27  1  0  0  0  0
 22 20  1  0  0  0  0
 23 24  1  0  0  0  0
 24 25  2  0  0  0  0
 24 30  1  0  0  0  0
 25 31  1  0  0  0  0
 26 25  1  0  0  0  0
 27 26  2  0  0  0  0
 28 27  1  0  0  0  0
 28 23  2  0  0  0  0
 29 23  1  0  0  0  0
 31 34  1  0  0  0  0
 31 32  1  0  0  0  0
 31 33  1  0  0  0  0
M  END
>  <minimizedAffinity>
-5.81863642

$$$$

 OpenBabel03242515153D

 34 36  0  0  0  0  0  0  0  0999 V2000
   37.8600   27.6550   38.1410 C   0  0  0  0  0  0  0  0  0  0  0  0
   38.5980   27.3810   38.9400 H   0  0  0  0  0  0  0  0  0  0  0  0
   38.1270   27.0430   37.2440 H   0  0  0  0  0  0  0  0  0  0  0  0
   37.9200   29.1030   37.8480 C   0  0  0  0  0  0  0  0  0  0  0  0
   37.0180   29.9150   37.2160 C   0  0  0  0  0  0  0  0  0  0  0  0
   37.5420   31.1770   37.1960 C   0  0  0  0  0  0  0  0  0  0  0  0
   38.7360   31.1430   37.8010 N   0  0  0  0  0  0  0  0  0  0  0  0
   38.9450   29.8720   38.1890 N   0  0  0  0  0  0  0  0  0  0  0  0
   36.0780   29.6110   36.8140 H   0  0  0  0  0  0  0  0  0  0  0  0
   37.1460   32.0990   36.7920 H   0  0  0  0  0  0  0  0  0  0  0  0
   37.9350   32.5170   40.3610 Br  0  0  0  0  0  0  0  0  0  0  0  0
   39.4620   32.8290   39.2450 C   0  0  0  0  0  0  0  0  0  0  0  0
   39.7270   32.1240   38.0770 C   0  0  0  0  0  0  0  0  0  0  0  0
   40.8530   32.4160   37.3330 C   0  0  0  0  0  0  0  0  0  0  0  0
   40.9740   31.8110   36.4350 H   0  0  0  0  0  0  0  0  0  0  0  0
   41.7150   33.4150   37.7590 C   0  0  0  0  0  0  0  0  0  0  0  0
   42.5790   33.5980   37.1350 H   0  0  0  0  0  0  0  0  0  0  0  0
   41.4400   34.1100   38.9230 C   0  0  0  0  0  3  0  0  0  0  0  0
   40.3150   33.8270   39.6790 C   0  0  0  0  0  3  0  0  0  0  0  0
   36.5220   27.2780   38.7100 C   0  0  0  0  0  0  0  0  0  0  0  0
   35.8730   28.1260   38.9620 H   0  0  0  0  0  0  0  0  0  0  0  0
   35.9970   26.6870   37.9200 H   0  0  0  0  0  0  0  0  0  0  0  0
   36.8260   24.6150   41.3470 C   0  0  0  0  0  0  0  0  0  0  0  0
   36.9800   25.4280   42.4970 C   0  0  0  0  0  0  0  0  0  0  0  0
   36.9700   26.8090   42.3010 C   0  0  0  0  0  0  0  0  0  0  0  0
   36.8150   27.2650   41.0340 N   0  0  0  0  0  0  0  0  0  0  0  0
   36.6700   26.4640   39.9630 C   0  0  0  0  0  0  0  0  0  0  0  0
   36.6780   25.1320   40.1280 N   0  0  0  0  0  0  0  0  0  0  0  0
   36.8240   23.5550   41.4190 H   0  0  0  0  0  0  0  0  0  0  0  0
   37.0900   24.8890   43.4110 H   0  0  0  0  0  0  0  0  0  0  0  0
   37.1290   27.6300   43.4910 C   0  0  0  0  0  0  0  0  0  0  0  0
   36.0260   27.4530   44.3280 F   0  0  0  0  0  0  0  0  0  0  0  0
   37.0530   28.9520   43.0750 F   0  0  0  0  0  0  0  0  0  0  0  0
   38.2740   27.3540   44.1910 F   0  0  0  0  0  0  0  0  0  0  0  0
  1 20  1  0  0  0  0
  1  2  1  0  0  0  0
  3  1  1  0  0  0  0
  4  1  1  0  0  0  0
  4  8  2  0  0  0  0
  5  4  1  0  0  0  0
  6  5  2  0  0  0  0
  6  7  1  0  0  0  0
  7 13  1  0  0  0  0
  7  8  1  0  0  0  0
  9  5  1  0  0  0  0
 10  6  1  0  0  0  0
 12 19  1  0  0  0  0
 12 11  1  0  0  0  0
 13 12  2  0  0  0  0
 14 16  2  0  0  0  0
 14 13  1  0  0  0  0
 15 14  1  0  0  0  0
 16 18  1  0  0  0  0
 17 16  1  0  0  0  0
 18 19  2  0  0  0  0
 20 21  1  0  0  0  0
 20 27  1  0  0  0  0
 22 20  1  0  0  0  0
 23 29  1  0  0  0  0
 23 24  1  0  0  0  0
 24 30  1  0  0  0  0
 25 24  2  0  0  0  0
 25 31  1  0  0  0  0
 26 25  1  0  0  0  0
 27 28  1  0  0  0  0
 27 26  2  0  0  0  0
 28 23  2  0  0  0  0
 31 34  1  0  0  0  0
 31 32  1  0  0  0  0
 33 31  1  0  0  0  0
M  END
>  <minimizedAffinity>
-5.73509312

$$$$

 OpenBabel03242515153D

 34 36  0  0  0  0  0  0  0  0999 V2000
   36.2070   27.9960   40.7370 C   0  0  0  0  0  0  0  0  0  0  0  0
   35.2870   27.3600   40.8270 H   0  0  0  0  0  0  0  0  0  0  0  0
   36.7090   27.6890   39.7860 H   0  0  0  0  0  0  0  0  0  0  0  0
   37.0920   27.8000   41.9060 C   0  0  0  0  0  0  0  0  0  0  0  0
   36.7930   27.7470   43.2400 C   0  0  0  0  0  0  0  0  0  0  0  0
   37.9630   27.5480   43.9170 C   0  0  0  0  0  0  0  0  0  0  0  0
   38.9570   27.4790   43.0230 N   0  0  0  0  0  0  0  0  0  0  0  0
   38.4030   27.6350   41.8060 N   0  0  0  0  0  0  0  0  0  0  0  0
   35.8210   27.8450   43.6680 H   0  0  0  0  0  0  0  0  0  0  0  0
   38.1570   27.4500   44.9780 H   0  0  0  0  0  0  0  0  0  0  0  0
   39.4510   24.5060   43.0190 Br  0  0  0  0  0  0  0  0  0  0  0  0
   40.7140   25.9440   43.1340 C   0  0  0  0  0  0  0  0  0  0  0  0
   40.3620   27.2880   43.1260 C   0  0  0  0  0  0  0  0  0  0  0  0
   41.3390   28.2600   43.2140 C   0  0  0  0  0  0  0  0  0  0  0  0
   40.9650   29.2840   43.2000 H   0  0  0  0  0  0  0  0  0  0  0  0
   42.6700   27.8860   43.3100 C   0  0  0  0  0  0  0  0  0  0  0  0
   43.3890   28.6910   43.3760 H   0  0  0  0  0  0  0  0  0  0  0  0
   43.0070   26.5440   43.3170 C   0  0  0  0  0  3  0  0  0  0  0  0
   42.0390   25.5600   43.2290 C   0  0  0  0  0  3  0  0  0  0  0  0
   35.6940   29.4060   40.6820 C   0  0  0  0  0  0  0  0  0  0  0  0
   34.6210   29.4980   40.4700 H   0  0  0  0  0  0  0  0  0  0  0  0
   35.8670   29.8440   41.6950 H   0  0  0  0  0  0  0  0  0  0  0  0
   37.2150   30.8410   37.5580 C   0  0  0  0  0  0  0  0  0  0  0  0
   37.8390   31.9930   38.0980 C   0  0  0  0  0  0  0  0  0  0  0  0
   37.7020   32.2010   39.4700 C   0  0  0  0  0  0  0  0  0  0  0  0
   36.9870   31.2920   40.1780 N   0  0  0  0  0  0  0  0  0  0  0  0
   36.4080   30.2080   39.6330 C   0  0  0  0  0  0  0  0  0  0  0  0
   36.5260   29.9880   38.3140 N   0  0  0  0  0  0  0  0  0  0  0  0
   37.2760   30.6180   36.5210 H   0  0  0  0  0  0  0  0  0  0  0  0
   38.3580   32.5930   37.3840 H   0  0  0  0  0  0  0  0  0  0  0  0
   38.3480   33.3880   40.0100 C   0  0  0  0  0  0  0  0  0  0  0  0
   37.5390   34.5020   39.7780 F   0  0  0  0  0  0  0  0  0  0  0  0
   39.4840   33.6060   39.2420 F   0  0  0  0  0  0  0  0  0  0  0  0
   38.6160   33.2970   41.3490 F   0  0  0  0  0  0  0  0  0  0  0  0
  1  2  1  0  0  0  0
  1  4  1  0  0  0  0
  3  1  1  0  0  0  0
  4  5  1  0  0  0  0
  5  9  1  0  0  0  0
  5  6  2  0  0  0  0
  6 10  1  0  0  0  0
  7 13  1  0  0  0  0
  7  6  1  0  0  0  0
  8  4  2  0  0  0  0
  8  7  1  0  0  0  0
 11 12  1  0  0  0  0
 12 19  1  0  0  0  0
 13 12  2  0  0  0  0
 13 14  1  0  0  0  0
 14 16  2  0  0  0  0
 15 14  1  0  0  0  0
 16 18  1  0  0  0  0
 16 17  1  0  0  0  0
 19 18  2  0  0  0  0
 20  1  1  0  0  0  0
 20 22  1  0  0  0  0
 21 20  1  0  0  0  0
 23 24  2  0  0  0  0
 23 28  1  0  0  0  0
 24 25  1  0  0  0  0
 25 31  1  0  0  0  0
 25 26  2  0  0  0  0
 27 26  1  0  0  0  0
 27 20  1  0  0  0  0
 28 27  2  0  0  0  0
 29 23  1  0  0  0  0
 30 24  1  0  0  0  0
 31 34  1  0  0  0  0
 32 31  1  0  0  0  0
 33 31  1  0  0  0  0
M  END
>  <minimizedAffinity>
-5.69792128

$$$$

 OpenBabel03242515153D

 34 36  0  0  0  0  0  0  0  0999 V2000
   39.1570   30.6590   42.0470 C   0  0  0  0  0  0  0  0  0  0  0  0
   40.1830   30.4460   41.6470 H   0  0  0  0  0  0  0  0  0  0  0  0
   39.2930   31.3700   42.8990 H   0  0  0  0  0  0  0  0  0  0  0  0
   38.4970   29.4090   42.4830 C   0  0  0  0  0  0  0  0  0  0  0  0
   37.7500   29.1480   43.5990 C   0  0  0  0  0  0  0  0  0  0  0  0
   37.3650   27.8380   43.5400 C   0  0  0  0  0  0  0  0  0  0  0  0
   37.8620   27.3070   42.4160 N   0  0  0  0  0  0  0  0  0  0  0  0
   38.5470   28.2810   41.7890 N   0  0  0  0  0  0  0  0  0  0  0  0
   37.5140   29.8450   44.3710 H   0  0  0  0  0  0  0  0  0  0  0  0
   36.7690   27.2470   44.2230 H   0  0  0  0  0  0  0  0  0  0  0  0
   40.1560   25.7050   43.5370 Br  0  0  0  0  0  0  0  0  0  0  0  0
   38.8140   25.1790   42.2720 C   0  0  0  0  0  0  0  0  0  0  0  0
   37.7970   26.0150   41.8270 C   0  0  0  0  0  0  0  0  0  0  0  0
   36.8720   25.5530   40.9120 C   0  0  0  0  0  0  0  0  0  0  0  0
   36.1130   26.2810   40.6240 H   0  0  0  0  0  0  0  0  0  0  0  0
   36.9650   24.2520   40.4420 C   0  0  0  0  0  0  0  0  0  0  0  0
   36.2120   23.9470   39.7280 H   0  0  0  0  0  0  0  0  0  0  0  0
   37.9820   23.4300   40.8930 C   0  0  0  0  0  3  0  0  0  0  0  0
   38.9160   23.8800   41.8090 C   0  0  0  0  0  3  0  0  0  0  0  0
   38.4200   31.2830   40.8960 C   0  0  0  0  0  0  0  0  0  0  0  0
   38.5200   30.7490   39.9420 H   0  0  0  0  0  0  0  0  0  0  0  0
   37.3370   31.2660   41.1690 H   0  0  0  0  0  0  0  0  0  0  0  0
   38.7870   34.9560   40.1830 C   0  0  0  0  0  0  0  0  0  0  0  0
   40.1940   35.0830   40.2810 C   0  0  0  0  0  0  0  0  0  0  0  0
   40.9150   33.9260   40.5800 C   0  0  0  0  0  0  0  0  0  0  0  0
   40.2180   32.7760   40.7510 N   0  0  0  0  0  0  0  0  0  0  0  0
   38.8800   32.6900   40.6500 C   0  0  0  0  0  0  0  0  0  0  0  0
   38.1660   33.7910   40.3650 N   0  0  0  0  0  0  0  0  0  0  0  0
   38.1730   35.7940   39.9590 H   0  0  0  0  0  0  0  0  0  0  0  0
   40.5650   36.0700   40.1140 H   0  0  0  0  0  0  0  0  0  0  0  0
   42.3590   34.0730   40.6770 C   0  0  0  0  0  0  0  0  0  0  0  0
   42.9100   32.9050   41.2060 F   0  0  0  0  0  0  0  0  0  0  0  0
   42.5960   35.0460   41.6390 F   0  0  0  0  0  0  0  0  0  0  0  0
   42.9580   34.3500   39.4770 F   0  0  0  0  0  0  0  0  0  0  0  0
  1  4  1  0  0  0  0
  1  3  1  0  0  0  0
  2  1  1  0  0  0  0
  4  5  1  0  0  0  0
  5  9  1  0  0  0  0
  6  5  2  0  0  0  0
  6 10  1  0  0  0  0
  7  6  1  0  0  0  0
  8  7  1  0  0  0  0
  8  4  2  0  0  0  0
 12 11  1  0  0  0  0
 13 12  1  0  0  0  0
 13  7  1  0  0  0  0
 14 13  2  0  0  0  0
 15 14  1  0  0  0  0
 16 18  2  0  0  0  0
 16 14  1  0  0  0  0
 17 16  1  0  0  0  0
 18 19  1  0  0  0  0
 19 12  2  0  0  0  0
 20 22  1  0  0  0  0
 20  1  1  0  0  0  0
 21 20  1  0  0  0  0
 23 24  2  0  0  0  0
 23 28  1  0  0  0  0
 24 25  1  0  0  0  0
 25 31  1  0  0  0  0
 25 26  2  0  0  0  0
 27 26  1  0  0  0  0
 27 20  1  0  0  0  0
 28 27  2  0  0  0  0
 29 23  1  0  0  0  0
 30 24  1  0  0  0  0
 31 32  1  0  0  0  0
 31 33  1  0  0  0  0
 34 31  1  0  0  0  0
M  END
>  <minimizedAffinity>
-5.69766998

$$$$
