
 OpenBabel03252508053D

 42 45  0  0  1  0  0  0  0  0999 V2000
   36.7190   27.5230   39.5160 C   0  0  0  0  0  0  0  0  0  0  0  0
   36.2770   28.3230   40.5320 C   0  0  0  0  0  0  0  0  0  0  0  0
   35.0630   29.0130   40.3430 C   0  0  0  0  0  0  0  0  0  0  0  0
   34.3090   28.9220   39.1980 C   0  0  0  0  0  0  0  0  0  0  0  0
   34.7600   28.1170   38.1840 C   0  0  0  0  0  0  0  0  0  0  0  0
   35.9330   27.4460   38.3610 C   0  0  0  0  0  0  0  0  0  0  0  0
   34.6370   29.6760   41.0880 H   0  0  0  0  0  0  0  0  0  0  0  0
   33.3870   29.4540   39.0670 H   0  0  0  0  0  0  0  0  0  0  0  0
   34.2370   27.9830   37.2500 H   0  0  0  0  0  0  0  0  0  0  0  0
   36.2910   26.8000   37.5430 H   0  0  0  0  0  0  0  0  0  0  0  0
   38.1020   26.5730   39.6440 S   0  0  0  0  0  0  0  0  0  0  0  0
   39.2020   27.6300   39.3050 O   0  0  0  0  0  0  0  0  0  0  0  0
   38.1790   25.5150   38.6070 O   0  0  0  0  0  0  0  0  0  0  0  0
   36.7920   24.2880   41.3280 Br  0  0  0  0  0  0  0  0  0  0  0  0
   38.4890   25.1040   41.7670 C   0  0  0  0  0  0  0  0  0  0  0  0
   39.0310   26.1660   40.9870 C   0  0  0  0  0  0  0  0  0  0  0  0
   40.2530   26.5680   41.5130 C   0  0  0  0  0  0  0  0  0  0  0  0
   40.6780   27.3560   40.8620 H   0  0  0  0  0  0  0  0  0  0  0  0
   40.9880   26.1460   42.5950 C   0  0  0  0  0  0  0  0  0  0  0  0
   41.9140   26.6070   42.8160 H   0  0  0  0  0  0  0  0  0  0  0  0
   40.3080   25.1330   43.2100 C   0  0  0  0  0  3  0  0  0  0  0  0
   39.1060   24.5760   42.8730 C   0  0  0  0  0  3  0  0  0  0  0  0
   36.9960   28.4870   41.7810 C   0  0  0  0  0  0  0  0  0  0  0  0
   36.8200   27.7710   42.8120 O   0  0  0  0  0  0  0  0  0  0  0  0
   37.9560   29.5660   41.7450 C   0  0  0  0  0  0  0  0  0  0  0  0
   38.8890   29.6010   42.8390 C   0  0  0  0  0  0  0  0  0  0  0  0
   39.8200   30.6230   42.8260 C   0  0  0  0  0  0  0  0  0  0  0  0
   39.7940   31.5120   41.8000 N   0  0  0  0  0  0  0  0  0  0  0  0
   38.8820   31.4340   40.7790 C   0  0  0  0  0  0  0  0  0  0  0  0
   38.0100   30.4850   40.7840 N   0  0  0  0  0  0  0  0  0  0  0  0
   38.9710   28.9510   43.6670 H   0  0  0  0  0  0  0  0  0  0  0  0
   40.5750   30.7660   43.5830 H   0  0  0  0  0  0  0  0  0  0  0  0
   38.9370   32.4390   39.7010 C   0  0  1  0  0  0  0  0  0  0  0  0
   37.7400   33.3350   39.4680 C   0  0  0  0  0  0  0  0  0  0  0  0
   38.9660   33.8460   40.1630 C   0  0  1  0  0  0  0  0  0  0  0  0
   39.5810   32.1930   38.8410 H   0  0  0  0  0  0  0  0  0  0  0  0
   36.8380   33.0560   40.0380 H   0  0  0  0  0  0  0  0  0  0  0  0
   37.6320   33.6820   38.4160 H   0  0  0  0  0  0  0  0  0  0  0  0
   39.6170   34.5680   39.6480 H   0  0  0  0  0  0  0  0  0  0  0  0
   38.7180   34.1610   41.5610 N   0  0  0  0  0  0  0  0  0  0  0  0
   37.9110   34.7810   41.6900 H   0  0  0  0  0  0  0  0  0  0  0  0
   39.5920   34.4640   42.0420 H   0  0  0  0  0  0  0  0  0  0  0  0
  1 11  1  0  0  0  0
  1  2  1  0  0  0  0
  2 23  1  0  0  0  0
  3  2  2  0  0  0  0
  3  7  1  0  0  0  0
  4  3  1  0  0  0  0
  5  6  1  0  0  0  0
  5  4  2  0  0  0  0
  6  1  2  0  0  0  0
  8  4  1  0  0  0  0
  9  5  1  0  0  0  0
 10  6  1  0  0  0  0
 11 16  1  0  0  0  0
 12 11  2  0  0  0  0
 13 11  2  0  0  0  0
 14 15  1  0  0  0  0
 15 22  1  0  0  0  0
 16 17  1  0  0  0  0
 16 15  2  0  0  0  0
 17 19  2  0  0  0  0
 18 17  1  0  0  0  0
 19 20  1  0  0  0  0
 19 21  1  0  0  0  0
 22 21  2  0  0  0  0
 23 24  2  0  0  0  0
 25 23  1  0  0  0  0
 25 26  1  0  0  0  0
 26 31  1  0  0  0  0
 27 26  2  0  0  0  0
 27 32  1  0  0  0  0
 28 27  1  0  0  0  0
 29 30  1  0  0  0  0
 29 28  2  0  0  0  0
 30 25  2  0  0  0  0
 33 36  1  6  0  0  0
 33 35  1  0  0  0  0
 33 29  1  0  0  0  0
 34 33  1  0  0  0  0
 34 37  1  0  0  0  0
 34 35  1  0  0  0  0
 35 39  1  6  0  0  0
 35 40  1  0  0  0  0
 38 34  1  0  0  0  0
 40 41  1  0  0  0  0
 40 42  1  0  0  0  0
M  END
>  <minimizedAffinity>
-6.49924278

$$$$

 OpenBabel03252508053D

 42 45  0  0  1  0  0  0  0  0999 V2000
   38.9590   26.4930   42.4560 C   0  0  0  0  0  0  0  0  0  0  0  0
   39.5920   27.6330   42.8660 C   0  0  0  0  0  0  0  0  0  0  0  0
   40.8660   27.5000   43.4540 C   0  0  0  0  0  0  0  0  0  0  0  0
   41.4960   26.2920   43.6330 C   0  0  0  0  0  0  0  0  0  0  0  0
   40.8540   25.1550   43.2180 C   0  0  0  0  0  0  0  0  0  0  0  0
   39.6220   25.2760   42.6480 C   0  0  0  0  0  0  0  0  0  0  0  0
   41.4410   28.3440   43.8170 H   0  0  0  0  0  0  0  0  0  0  0  0
   42.4660   26.2050   44.0830 H   0  0  0  0  0  0  0  0  0  0  0  0
   41.2690   24.1630   43.3160 H   0  0  0  0  0  0  0  0  0  0  0  0
   39.1090   24.3590   42.3150 H   0  0  0  0  0  0  0  0  0  0  0  0
   37.4780   26.5160   41.6570 S   0  0  0  0  0  0  0  0  0  0  0  0
   36.5420   26.9920   42.8130 O   0  0  0  0  0  0  0  0  0  0  0  0
   37.0170   25.1660   41.2500 O   0  0  0  0  0  0  0  0  0  0  0  0
   38.7970   26.7030   38.8280 Br  0  0  0  0  0  0  0  0  0  0  0  0
   37.3110   27.8050   39.3930 C   0  0  0  0  0  0  0  0  0  0  0  0
   36.7640   27.7060   40.7040 C   0  0  0  0  0  0  0  0  0  0  0  0
   35.7110   28.6010   40.8500 C   0  0  0  0  0  0  0  0  0  0  0  0
   35.2710   28.4690   41.8580 H   0  0  0  0  0  0  0  0  0  0  0  0
   35.1390   29.5160   40.0000 C   0  0  0  0  0  0  0  0  0  0  0  0
   34.3270   30.1080   40.3300 H   0  0  0  0  0  0  0  0  0  0  0  0
   35.7960   29.4620   38.8030 C   0  0  0  0  0  3  0  0  0  0  0  0
   36.8460   28.6690   38.4340 C   0  0  0  0  0  3  0  0  0  0  0  0
   39.0150   28.9560   42.7220 C   0  0  0  0  0  0  0  0  0  0  0  0
   38.1920   29.4730   43.5350 O   0  0  0  0  0  0  0  0  0  0  0  0
   39.4740   29.6500   41.5420 C   0  0  0  0  0  0  0  0  0  0  0  0
   40.7500   29.2260   41.0310 C   0  0  0  0  0  0  0  0  0  0  0  0
   41.2100   29.8740   39.9000 C   0  0  0  0  0  0  0  0  0  0  0  0
   40.4420   30.8510   39.3530 N   0  0  0  0  0  0  0  0  0  0  0  0
   39.2300   31.2180   39.8800 C   0  0  0  0  0  0  0  0  0  0  0  0
   38.7940   30.6200   40.9340 N   0  0  0  0  0  0  0  0  0  0  0  0
   41.4010   28.4810   41.3980 H   0  0  0  0  0  0  0  0  0  0  0  0
   42.1490   29.6560   39.4150 H   0  0  0  0  0  0  0  0  0  0  0  0
   38.4600   32.2840   39.2110 C   0  0  1  0  0  0  0  0  0  0  0  0
   37.1610   32.7530   39.8300 C   0  0  0  0  0  0  0  0  0  0  0  0
   38.4130   33.5700   39.9430 C   0  0  1  0  0  0  0  0  0  0  0  0
   38.5700   32.3470   38.1160 H   0  0  0  0  0  0  0  0  0  0  0  0
   36.8050   32.1390   40.6740 H   0  0  0  0  0  0  0  0  0  0  0  0
   36.4240   33.1440   39.0930 H   0  0  0  0  0  0  0  0  0  0  0  0
   38.4950   34.5130   39.3810 H   0  0  0  0  0  0  0  0  0  0  0  0
   38.8990   33.6510   41.3120 N   0  0  0  0  0  0  0  0  0  0  0  0
   38.1750   33.9540   41.9720 H   0  0  0  0  0  0  0  0  0  0  0  0
   39.7970   34.1770   41.3650 H   0  0  0  0  0  0  0  0  0  0  0  0
  1  6  2  0  0  0  0
  1  2  1  0  0  0  0
  2  3  2  0  0  0  0
  3  4  1  0  0  0  0
  3  7  1  0  0  0  0
  4  8  1  0  0  0  0
  5  9  1  0  0  0  0
  5  4  2  0  0  0  0
  6  5  1  0  0  0  0
 10  6  1  0  0  0  0
 11  1  1  0  0  0  0
 11 12  2  0  0  0  0
 13 11  2  0  0  0  0
 14 15  1  0  0  0  0
 15 16  1  0  0  0  0
 16 17  2  0  0  0  0
 16 11  1  0  0  0  0
 17 18  1  0  0  0  0
 19 20  1  0  0  0  0
 19 17  1  0  0  0  0
 21 19  2  0  0  0  0
 22 21  1  0  0  0  0
 22 15  2  0  0  0  0
 23  2  1  0  0  0  0
 23 24  2  0  0  0  0
 25 23  1  0  0  0  0
 26 31  1  0  0  0  0
 26 25  1  0  0  0  0
 27 26  2  0  0  0  0
 28 29  2  0  0  0  0
 28 27  1  0  0  0  0
 29 30  1  0  0  0  0
 30 25  2  0  0  0  0
 32 27  1  0  0  0  0
 33 36  1  6  0  0  0
 33 34  1  0  0  0  0
 33 29  1  0  0  0  0
 33 35  1  0  0  0  0
 34 35  1  0  0  0  0
 34 37  1  0  0  0  0
 35 39  1  6  0  0  0
 35 40  1  0  0  0  0
 38 34  1  0  0  0  0
 40 42  1  0  0  0  0
 40 41  1  0  0  0  0
M  END
>  <minimizedAffinity>
-6.2240243

$$$$

 OpenBabel03252508053D

 42 45  0  0  1  0  0  0  0  0999 V2000
   37.5750   29.0710   38.9250 C   0  0  0  0  0  0  0  0  0  0  0  0
   37.4220   30.4130   38.7180 C   0  0  0  0  0  0  0  0  0  0  0  0
   37.0890   30.8420   37.4180 C   0  0  0  0  0  0  0  0  0  0  0  0
   36.9110   29.9860   36.3580 C   0  0  0  0  0  0  0  0  0  0  0  0
   37.0650   28.6410   36.5760 C   0  0  0  0  0  0  0  0  0  0  0  0
   37.3870   28.2190   37.8310 C   0  0  0  0  0  0  0  0  0  0  0  0
   36.9570   31.8860   37.1550 H   0  0  0  0  0  0  0  0  0  0  0  0
   36.6580   30.3260   35.3730 H   0  0  0  0  0  0  0  0  0  0  0  0
   36.9450   27.8930   35.8070 H   0  0  0  0  0  0  0  0  0  0  0  0
   37.5090   27.1360   38.0010 H   0  0  0  0  0  0  0  0  0  0  0  0
   37.8810   28.4160   40.4450 S   0  0  0  0  0  0  0  0  0  0  0  0
   36.4640   28.5330   41.0920 O   0  0  0  0  0  0  0  0  0  0  0  0
   38.8030   29.2440   41.2600 O   0  0  0  0  0  0  0  0  0  0  0  0
   40.4990   26.9270   39.6080 Br  0  0  0  0  0  0  0  0  0  0  0  0
   39.0820   26.1060   40.6380 C   0  0  0  0  0  0  0  0  0  0  0  0
   37.8920   26.8160   40.9670 C   0  0  0  0  0  0  0  0  0  0  0  0
   37.0430   26.0030   41.7080 C   0  0  0  0  0  0  0  0  0  0  0  0
   36.1500   26.5920   41.9960 H   0  0  0  0  0  0  0  0  0  0  0  0
   37.1430   24.7070   42.1520 C   0  0  0  0  0  0  0  0  0  0  0  0
   36.3560   24.2790   42.7140 H   0  0  0  0  0  0  0  0  0  0  0  0
   38.3430   24.2010   41.7390 C   0  0  0  0  0  3  0  0  0  0  0  0
   39.3270   24.8080   41.0100 C   0  0  0  0  0  3  0  0  0  0  0  0
   37.5870   31.4000   39.7670 C   0  0  0  0  0  0  0  0  0  0  0  0
   36.7430   31.6190   40.6880 O   0  0  0  0  0  0  0  0  0  0  0  0
   38.8290   32.1300   39.6700 C   0  0  0  0  0  0  0  0  0  0  0  0
   38.8230   33.4430   40.2570 C   0  0  0  0  0  0  0  0  0  0  0  0
   40.0030   34.1610   40.1790 C   0  0  0  0  0  0  0  0  0  0  0  0
   41.0710   33.5910   39.5650 N   0  0  0  0  0  0  0  0  0  0  0  0
   41.0240   32.3320   39.0200 C   0  0  0  0  0  0  0  0  0  0  0  0
   39.9290   31.6570   39.0880 N   0  0  0  0  0  0  0  0  0  0  0  0
   38.0390   33.9510   40.7470 H   0  0  0  0  0  0  0  0  0  0  0  0
   40.1350   35.1550   40.5770 H   0  0  0  0  0  0  0  0  0  0  0  0
   42.2390   31.7910   38.3810 C   0  0  1  0  0  0  0  0  0  0  0  0
   42.1900   31.4020   36.9200 C   0  0  0  0  0  0  0  0  0  0  0  0
   42.8500   32.6730   37.3610 C   0  0  1  0  0  0  0  0  0  0  0  0
   42.9350   31.2510   39.0440 H   0  0  0  0  0  0  0  0  0  0  0  0
   41.1820   31.4100   36.4740 H   0  0  0  0  0  0  0  0  0  0  0  0
   42.8990   30.5890   36.6450 H   0  0  0  0  0  0  0  0  0  0  0  0
   43.9460   32.7580   37.3110 H   0  0  0  0  0  0  0  0  0  0  0  0
   42.1410   33.8550   36.8960 N   0  0  0  0  0  0  0  0  0  0  0  0
   41.9640   33.8380   35.8860 H   0  0  0  0  0  0  0  0  0  0  0  0
   42.5830   34.7280   37.2550 H   0  0  0  0  0  0  0  0  0  0  0  0
  1 11  1  0  0  0  0
  2  1  1  0  0  0  0
  2 23  1  0  0  0  0
  3  2  2  0  0  0  0
  4  5  2  0  0  0  0
  4  3  1  0  0  0  0
  5  6  1  0  0  0  0
  6 10  1  0  0  0  0
  6  1  2  0  0  0  0
  7  3  1  0  0  0  0
  8  4  1  0  0  0  0
  9  5  1  0  0  0  0
 11 16  1  0  0  0  0
 11 12  2  0  0  0  0
 11 13  2  0  0  0  0
 14 15  1  0  0  0  0
 15 16  2  0  0  0  0
 15 22  1  0  0  0  0
 16 17  1  0  0  0  0
 17 18  1  0  0  0  0
 17 19  2  0  0  0  0
 19 20  1  0  0  0  0
 21 19  1  0  0  0  0
 22 21  2  0  0  0  0
 23 24  2  0  0  0  0
 25 23  1  0  0  0  0
 25 26  1  0  0  0  0
 26 31  1  0  0  0  0
 27 26  2  0  0  0  0
 27 32  1  0  0  0  0
 28 27  1  0  0  0  0
 29 30  1  0  0  0  0
 29 28  2  0  0  0  0
 30 25  2  0  0  0  0
 33 29  1  0  0  0  0
 33 36  1  1  0  0  0
 34 35  1  0  0  0  0
 34 33  1  0  0  0  0
 35 39  1  6  0  0  0
 35 33  1  0  0  0  0
 37 34  1  0  0  0  0
 38 34  1  0  0  0  0
 40 42  1  0  0  0  0
 40 35  1  0  0  0  0
 41 40  1  0  0  0  0
M  END
>  <minimizedAffinity>
-6.03582191

$$$$

 OpenBabel03252508053D

 42 45  0  0  1  0  0  0  0  0999 V2000
   39.3710   27.6270   41.2330 C   0  0  0  0  0  0  0  0  0  0  0  0
   39.2760   28.8030   41.9220 C   0  0  0  0  0  0  0  0  0  0  0  0
   40.3560   29.1670   42.7500 C   0  0  0  0  0  0  0  0  0  0  0  0
   41.4900   28.4050   42.8960 C   0  0  0  0  0  0  0  0  0  0  0  0
   41.5770   27.2270   42.2000 C   0  0  0  0  0  0  0  0  0  0  0  0
   40.5350   26.8690   41.3970 C   0  0  0  0  0  0  0  0  0  0  0  0
   40.3690   30.0760   43.3410 H   0  0  0  0  0  0  0  0  0  0  0  0
   42.3060   28.6940   43.5300 H   0  0  0  0  0  0  0  0  0  0  0  0
   42.4270   26.5630   42.2510 H   0  0  0  0  0  0  0  0  0  0  0  0
   40.6100   25.9210   40.8400 H   0  0  0  0  0  0  0  0  0  0  0  0
   38.1960   27.1170   40.1410 S   0  0  0  0  0  0  0  0  0  0  0  0
   37.0730   26.6620   41.1280 O   0  0  0  0  0  0  0  0  0  0  0  0
   38.6040   25.9220   39.3630 O   0  0  0  0  0  0  0  0  0  0  0  0
   39.3510   28.6670   37.6840 Br  0  0  0  0  0  0  0  0  0  0  0  0
   37.4810   28.6820   38.1780 C   0  0  0  0  0  0  0  0  0  0  0  0
   37.0070   27.9860   39.3260 C   0  0  0  0  0  0  0  0  0  0  0  0
   35.6340   28.1560   39.4520 C   0  0  0  0  0  0  0  0  0  0  0  0
   35.2810   27.5650   40.3200 H   0  0  0  0  0  0  0  0  0  0  0  0
   34.7050   28.8430   38.7070 C   0  0  0  0  0  0  0  0  0  0  0  0
   33.6880   28.8370   38.9960 H   0  0  0  0  0  0  0  0  0  0  0  0
   35.3480   29.4390   37.6600 C   0  0  0  0  0  3  0  0  0  0  0  0
   36.6760   29.4090   37.3370 C   0  0  0  0  0  3  0  0  0  0  0  0
   38.1240   29.6800   41.8370 C   0  0  0  0  0  0  0  0  0  0  0  0
   37.0420   29.5100   42.4760 O   0  0  0  0  0  0  0  0  0  0  0  0
   38.3240   30.7940   40.9400 C   0  0  0  0  0  0  0  0  0  0  0  0
   37.1360   31.5210   40.5810 C   0  0  0  0  0  0  0  0  0  0  0  0
   37.3030   32.5940   39.7250 C   0  0  0  0  0  0  0  0  0  0  0  0
   38.5530   32.8880   39.2860 N   0  0  0  0  0  0  0  0  0  0  0  0
   39.6550   32.1610   39.6600 C   0  0  0  0  0  0  0  0  0  0  0  0
   39.5090   31.1600   40.4560 N   0  0  0  0  0  0  0  0  0  0  0  0
   36.1370   31.3540   40.8790 H   0  0  0  0  0  0  0  0  0  0  0  0
   36.4970   33.2220   39.3770 H   0  0  0  0  0  0  0  0  0  0  0  0
   40.9770   32.5610   39.1400 C   0  0  1  0  0  0  0  0  0  0  0  0
   41.7750   31.5710   38.3190 C   0  0  0  0  0  0  0  0  0  0  0  0
   41.0470   32.7090   37.6680 C   0  0  1  0  0  0  0  0  0  0  0  0
   41.5250   33.3100   39.7340 H   0  0  0  0  0  0  0  0  0  0  0  0
   41.3630   30.5490   38.3020 H   0  0  0  0  0  0  0  0  0  0  0  0
   42.8770   31.7120   38.3880 H   0  0  0  0  0  0  0  0  0  0  0  0
   41.6230   33.5420   37.2380 H   0  0  0  0  0  0  0  0  0  0  0  0
   39.9460   32.2550   36.8340 N   0  0  0  0  0  0  0  0  0  0  0  0
   40.2300   31.5370   36.1590 H   0  0  0  0  0  0  0  0  0  0  0  0
   39.4190   33.0590   36.4310 H   0  0  0  0  0  0  0  0  0  0  0  0
  1  6  2  0  0  0  0
  1  2  1  0  0  0  0
  2  3  2  0  0  0  0
  3  4  1  0  0  0  0
  3  7  1  0  0  0  0
  4  8  1  0  0  0  0
  5  9  1  0  0  0  0
  5  4  2  0  0  0  0
  6  5  1  0  0  0  0
 10  6  1  0  0  0  0
 11 12  2  0  0  0  0
 11  1  1  0  0  0  0
 13 11  2  0  0  0  0
 14 15  1  0  0  0  0
 15 16  1  0  0  0  0
 16 17  2  0  0  0  0
 16 11  1  0  0  0  0
 17 18  1  0  0  0  0
 19 20  1  0  0  0  0
 19 17  1  0  0  0  0
 21 19  2  0  0  0  0
 22 21  1  0  0  0  0
 22 15  2  0  0  0  0
 23  2  1  0  0  0  0
 23 24  2  0  0  0  0
 25 23  1  0  0  0  0
 26 31  1  0  0  0  0
 26 25  1  0  0  0  0
 27 26  2  0  0  0  0
 28 29  2  0  0  0  0
 28 27  1  0  0  0  0
 29 30  1  0  0  0  0
 30 25  2  0  0  0  0
 32 27  1  0  0  0  0
 33 29  1  0  0  0  0
 33 36  1  1  0  0  0
 34 38  1  0  0  0  0
 34 33  1  0  0  0  0
 35 39  1  6  0  0  0
 35 34  1  0  0  0  0
 35 33  1  0  0  0  0
 37 34  1  0  0  0  0
 40 35  1  0  0  0  0
 41 40  1  0  0  0  0
 42 40  1  0  0  0  0
M  END
>  <minimizedAffinity>
-5.84518957

$$$$

 OpenBabel03252508053D

 42 45  0  0  1  0  0  0  0  0999 V2000
   36.5990   26.9200   39.8340 C   0  0  0  0  0  0  0  0  0  0  0  0
   36.4040   28.0120   40.6320 C   0  0  0  0  0  0  0  0  0  0  0  0
   36.6640   27.8730   42.0100 C   0  0  0  0  0  0  0  0  0  0  0  0
   37.1000   26.7040   42.5850 C   0  0  0  0  0  0  0  0  0  0  0  0
   37.2940   25.6140   41.7770 C   0  0  0  0  0  0  0  0  0  0  0  0
   37.0450   25.7420   40.4420 C   0  0  0  0  0  0  0  0  0  0  0  0
   36.5310   28.6800   42.7220 H   0  0  0  0  0  0  0  0  0  0  0  0
   37.2940   26.6110   43.6360 H   0  0  0  0  0  0  0  0  0  0  0  0
   37.6340   24.6550   42.1360 H   0  0  0  0  0  0  0  0  0  0  0  0
   37.2020   24.8620   39.7970 H   0  0  0  0  0  0  0  0  0  0  0  0
   36.4150   26.9730   38.1620 S   0  0  0  0  0  0  0  0  0  0  0  0
   36.1620   25.4620   37.8590 O   0  0  0  0  0  0  0  0  0  0  0  0
   37.6600   27.3580   37.4520 O   0  0  0  0  0  0  0  0  0  0  0  0
   36.7930   29.5390   36.4170 Br  0  0  0  0  0  0  0  0  0  0  0  0
   35.2000   28.4440   36.3800 C   0  0  0  0  0  0  0  0  0  0  0  0
   35.0600   27.3000   37.2180 C   0  0  0  0  0  0  0  0  0  0  0  0
   33.8310   26.6930   36.9950 C   0  0  0  0  0  0  0  0  0  0  0  0
   33.7680   25.7800   37.6190 H   0  0  0  0  0  0  0  0  0  0  0  0
   32.7830   26.9870   36.1560 C   0  0  0  0  0  0  0  0  0  0  0  0
   31.9210   26.3740   36.1530 H   0  0  0  0  0  0  0  0  0  0  0  0
   33.1030   28.1070   35.4420 C   0  0  0  0  0  3  0  0  0  0  0  0
   34.2410   28.8620   35.4910 C   0  0  0  0  0  3  0  0  0  0  0  0
   35.9470   29.2920   40.1250 C   0  0  0  0  0  0  0  0  0  0  0  0
   34.7470   29.5550   39.8120 O   0  0  0  0  0  0  0  0  0  0  0  0
   37.0060   30.2670   40.0080 C   0  0  0  0  0  0  0  0  0  0  0  0
   36.6840   31.5900   40.4690 C   0  0  0  0  0  0  0  0  0  0  0  0
   37.6830   32.5410   40.3690 C   0  0  0  0  0  0  0  0  0  0  0  0
   38.8820   32.1710   39.8520 N   0  0  0  0  0  0  0  0  0  0  0  0
   39.1390   30.8930   39.4260 C   0  0  0  0  0  0  0  0  0  0  0  0
   38.2140   30.0010   39.5140 N   0  0  0  0  0  0  0  0  0  0  0  0
   35.7810   31.9520   40.8790 H   0  0  0  0  0  0  0  0  0  0  0  0
   37.5750   33.5690   40.6770 H   0  0  0  0  0  0  0  0  0  0  0  0
   40.4770   30.5810   38.8860 C   0  0  1  0  0  0  0  0  0  0  0  0
   40.5860   29.8950   37.5420 C   0  0  0  0  0  0  0  0  0  0  0  0
   40.8610   31.3620   37.6880 C   0  0  1  0  0  0  0  0  0  0  0  0
   41.2700   30.4030   39.6310 H   0  0  0  0  0  0  0  0  0  0  0  0
   39.6300   29.5350   37.1300 H   0  0  0  0  0  0  0  0  0  0  0  0
   41.4990   29.2670   37.4280 H   0  0  0  0  0  0  0  0  0  0  0  0
   41.8940   31.7290   37.5940 H   0  0  0  0  0  0  0  0  0  0  0  0
   39.8750   32.1800   37.0010 N   0  0  0  0  0  0  0  0  0  0  0  0
   39.7450   31.9030   36.0210 H   0  0  0  0  0  0  0  0  0  0  0  0
   40.0510   33.1960   37.1560 H   0  0  0  0  0  0  0  0  0  0  0  0
  1  6  2  0  0  0  0
  1  2  1  0  0  0  0
  2  3  2  0  0  0  0
  3  4  1  0  0  0  0
  3  7  1  0  0  0  0
  4  8  1  0  0  0  0
  5  9  1  0  0  0  0
  5  4  2  0  0  0  0
  6  5  1  0  0  0  0
 10  6  1  0  0  0  0
 11  1  1  0  0  0  0
 12 11  2  0  0  0  0
 13 11  2  0  0  0  0
 15 14  1  0  0  0  0
 15 16  1  0  0  0  0
 16 11  1  0  0  0  0
 17 16  2  0  0  0  0
 17 18  1  0  0  0  0
 19 17  1  0  0  0  0
 20 19  1  0  0  0  0
 21 22  1  0  0  0  0
 21 19  2  0  0  0  0
 22 15  2  0  0  0  0
 23  2  1  0  0  0  0
 24 23  2  0  0  0  0
 25 23  1  0  0  0  0
 25 26  1  0  0  0  0
 26 31  1  0  0  0  0
 27 26  2  0  0  0  0
 27 32  1  0  0  0  0
 28 27  1  0  0  0  0
 29 30  1  0  0  0  0
 29 28  2  0  0  0  0
 30 25  2  0  0  0  0
 33 29  1  0  0  0  0
 33 36  1  1  0  0  0
 34 35  1  0  0  0  0
 34 33  1  0  0  0  0
 35 39  1  6  0  0  0
 35 33  1  0  0  0  0
 37 34  1  0  0  0  0
 38 34  1  0  0  0  0
 40 42  1  0  0  0  0
 40 35  1  0  0  0  0
 41 40  1  0  0  0  0
M  END
>  <minimizedAffinity>
-5.83596897

$$$$

 OpenBabel03252508053D

 42 45  0  0  1  0  0  0  0  0999 V2000
   36.3260   26.9220   38.8920 C   0  0  0  0  0  0  0  0  0  0  0  0
   35.4570   27.9730   38.8010 C   0  0  0  0  0  0  0  0  0  0  0  0
   34.4050   27.8750   37.8680 C   0  0  0  0  0  0  0  0  0  0  0  0
   34.2120   26.7850   37.0550 C   0  0  0  0  0  0  0  0  0  0  0  0
   35.0870   25.7350   37.1540 C   0  0  0  0  0  0  0  0  0  0  0  0
   36.1070   25.8230   38.0540 C   0  0  0  0  0  0  0  0  0  0  0  0
   33.6730   28.6610   37.7180 H   0  0  0  0  0  0  0  0  0  0  0  0
   33.4070   26.7240   36.3480 H   0  0  0  0  0  0  0  0  0  0  0  0
   35.0170   24.8380   36.5580 H   0  0  0  0  0  0  0  0  0  0  0  0
   36.8090   24.9760   38.1310 H   0  0  0  0  0  0  0  0  0  0  0  0
   37.5690   26.8680   40.0250 S   0  0  0  0  0  0  0  0  0  0  0  0
   38.8090   26.7930   39.0780 O   0  0  0  0  0  0  0  0  0  0  0  0
   37.5630   25.6250   40.8360 O   0  0  0  0  0  0  0  0  0  0  0  0
   36.5340   27.2200   42.9540 Br  0  0  0  0  0  0  0  0  0  0  0  0
   37.9550   28.2830   42.1850 C   0  0  0  0  0  0  0  0  0  0  0  0
   38.3700   28.1080   40.8340 C   0  0  0  0  0  0  0  0  0  0  0  0
   39.4010   28.9900   40.5340 C   0  0  0  0  0  0  0  0  0  0  0  0
   39.7410   28.7990   39.4980 H   0  0  0  0  0  0  0  0  0  0  0  0
   40.0520   29.9500   41.2710 C   0  0  0  0  0  0  0  0  0  0  0  0
   40.8260   30.5200   40.8300 H   0  0  0  0  0  0  0  0  0  0  0  0
   39.5160   29.9670   42.5270 C   0  0  0  0  0  3  0  0  0  0  0  0
   38.5100   29.1990   43.0430 C   0  0  0  0  0  3  0  0  0  0  0  0
   35.5720   29.1690   39.6140 C   0  0  0  0  0  0  0  0  0  0  0  0
   35.0420   29.3150   40.7560 O   0  0  0  0  0  0  0  0  0  0  0  0
   36.3640   30.2040   38.9920 C   0  0  0  0  0  0  0  0  0  0  0  0
   36.7120   29.9740   37.6160 C   0  0  0  0  0  0  0  0  0  0  0  0
   37.4680   30.9540   36.9970 C   0  0  0  0  0  0  0  0  0  0  0  0
   37.8260   32.0480   37.7150 N   0  0  0  0  0  0  0  0  0  0  0  0
   37.4680   32.2190   39.0290 C   0  0  0  0  0  0  0  0  0  0  0  0
   36.7640   31.3120   39.6130 N   0  0  0  0  0  0  0  0  0  0  0  0
   36.4720   29.1550   36.9950 H   0  0  0  0  0  0  0  0  0  0  0  0
   37.7970   30.9070   35.9710 H   0  0  0  0  0  0  0  0  0  0  0  0
   37.8950   33.4470   39.7260 C   0  0  1  0  0  0  0  0  0  0  0  0
   38.7440   33.3270   40.9730 C   0  0  0  0  0  0  0  0  0  0  0  0
   39.3480   33.7260   39.6590 C   0  0  1  0  0  0  0  0  0  0  0  0
   37.2240   34.3160   39.6310 H   0  0  0  0  0  0  0  0  0  0  0  0
   38.8530   32.3000   41.3590 H   0  0  0  0  0  0  0  0  0  0  0  0
   38.6140   34.1670   41.6910 H   0  0  0  0  0  0  0  0  0  0  0  0
   39.6910   34.7610   39.5150 H   0  0  0  0  0  0  0  0  0  0  0  0
   40.2630   32.7200   39.1440 N   0  0  0  0  0  0  0  0  0  0  0  0
   40.9730   32.4410   39.8300 H   0  0  0  0  0  0  0  0  0  0  0  0
   40.6330   32.9890   38.2070 H   0  0  0  0  0  0  0  0  0  0  0  0
  1 11  1  0  0  0  0
  2  1  1  0  0  0  0
  2 23  1  0  0  0  0
  3  2  2  0  0  0  0
  4  5  2  0  0  0  0
  4  3  1  0  0  0  0
  5  6  1  0  0  0  0
  6 10  1  0  0  0  0
  6  1  2  0  0  0  0
  7  3  1  0  0  0  0
  8  4  1  0  0  0  0
  9  5  1  0  0  0  0
 11 16  1  0  0  0  0
 11 13  2  0  0  0  0
 12 11  2  0  0  0  0
 15 14  1  0  0  0  0
 15 22  1  0  0  0  0
 16 15  2  0  0  0  0
 17 16  1  0  0  0  0
 17 19  2  0  0  0  0
 18 17  1  0  0  0  0
 19 21  1  0  0  0  0
 20 19  1  0  0  0  0
 21 22  2  0  0  0  0
 23 24  2  0  0  0  0
 25 30  1  0  0  0  0
 25 23  1  0  0  0  0
 26 25  2  0  0  0  0
 27 26  1  0  0  0  0
 27 28  2  0  0  0  0
 28 29  1  0  0  0  0
 29 30  2  0  0  0  0
 29 33  1  0  0  0  0
 31 26  1  0  0  0  0
 32 27  1  0  0  0  0
 33 36  1  6  0  0  0
 33 34  1  0  0  0  0
 34 37  1  0  0  0  0
 34 38  1  0  0  0  0
 35 39  1  6  0  0  0
 35 33  1  0  0  0  0
 35 34  1  0  0  0  0
 40 35  1  0  0  0  0
 40 41  1  0  0  0  0
 42 40  1  0  0  0  0
M  END
>  <minimizedAffinity>
-5.83072424

$$$$

 OpenBabel03252508053D

 42 45  0  0  1  0  0  0  0  0999 V2000
   36.9120   28.0340   39.5220 C   0  0  0  0  0  0  0  0  0  0  0  0
   36.3570   29.0450   40.2560 C   0  0  0  0  0  0  0  0  0  0  0  0
   35.0560   29.4640   39.9150 C   0  0  0  0  0  0  0  0  0  0  0  0
   34.3250   28.9120   38.8910 C   0  0  0  0  0  0  0  0  0  0  0  0
   34.8890   27.8980   38.1610 C   0  0  0  0  0  0  0  0  0  0  0  0
   36.1480   27.4870   38.4860 C   0  0  0  0  0  0  0  0  0  0  0  0
   34.5370   30.2630   40.4330 H   0  0  0  0  0  0  0  0  0  0  0  0
   33.3340   29.2410   38.6420 H   0  0  0  0  0  0  0  0  0  0  0  0
   34.3930   27.4030   37.3410 H   0  0  0  0  0  0  0  0  0  0  0  0
   36.5970   26.6710   37.8960 H   0  0  0  0  0  0  0  0  0  0  0  0
   38.4200   27.3760   39.8790 S   0  0  0  0  0  0  0  0  0  0  0  0
   39.3550   28.4620   39.2580 O   0  0  0  0  0  0  0  0  0  0  0  0
   38.6850   26.1070   39.1570 O   0  0  0  0  0  0  0  0  0  0  0  0
   37.3330   25.5540   42.1750 Br  0  0  0  0  0  0  0  0  0  0  0  0
   38.9230   26.6440   42.3330 C   0  0  0  0  0  0  0  0  0  0  0  0
   39.3610   27.4830   41.2700 C   0  0  0  0  0  0  0  0  0  0  0  0
   40.5220   28.1530   41.6380 C   0  0  0  0  0  0  0  0  0  0  0  0
   40.8710   28.7580   40.7790 H   0  0  0  0  0  0  0  0  0  0  0  0
   41.2770   28.1490   42.7860 C   0  0  0  0  0  0  0  0  0  0  0  0
   42.1430   28.7530   42.8500 H   0  0  0  0  0  0  0  0  0  0  0  0
   40.7000   27.2920   43.6800 C   0  0  0  0  0  3  0  0  0  0  0  0
   39.5720   26.5340   43.5370 C   0  0  0  0  0  3  0  0  0  0  0  0
   37.0430   29.6940   41.3560 C   0  0  0  0  0  0  0  0  0  0  0  0
   37.0410   29.2750   42.5530 O   0  0  0  0  0  0  0  0  0  0  0  0
   37.7480   30.8900   40.9590 C   0  0  0  0  0  0  0  0  0  0  0  0
   36.9490   31.8910   40.3050 C   0  0  0  0  0  0  0  0  0  0  0  0
   37.6020   33.0480   39.9180 C   0  0  0  0  0  0  0  0  0  0  0  0
   38.9300   33.1610   40.1740 N   0  0  0  0  0  0  0  0  0  0  0  0
   39.6470   32.1740   40.8010 C   0  0  0  0  0  0  0  0  0  0  0  0
   39.0480   31.0940   41.1650 N   0  0  0  0  0  0  0  0  0  0  0  0
   35.9200   31.8760   40.0720 H   0  0  0  0  0  0  0  0  0  0  0  0
   37.1230   33.8760   39.4190 H   0  0  0  0  0  0  0  0  0  0  0  0
   41.0860   32.3910   41.0460 C   0  0  1  0  0  0  0  0  0  0  0  0
   42.0860   31.4180   40.4630 C   0  0  0  0  0  0  0  0  0  0  0  0
   41.8710   32.7690   39.8490 C   0  0  1  0  0  0  0  0  0  0  0  0
   41.3450   32.9080   41.9850 H   0  0  0  0  0  0  0  0  0  0  0  0
   41.6420   30.5130   40.0160 H   0  0  0  0  0  0  0  0  0  0  0  0
   43.0260   31.3270   41.0530 H   0  0  0  0  0  0  0  0  0  0  0  0
   42.6560   33.5340   39.9390 H   0  0  0  0  0  0  0  0  0  0  0  0
   41.2720   32.6850   38.5260 N   0  0  0  0  0  0  0  0  0  0  0  0
   41.7800   32.0500   37.9010 H   0  0  0  0  0  0  0  0  0  0  0  0
   41.0810   33.6330   38.1360 H   0  0  0  0  0  0  0  0  0  0  0  0
  1 11  1  0  0  0  0
  1  2  1  0  0  0  0
  2 23  1  0  0  0  0
  3  2  2  0  0  0  0
  3  7  1  0  0  0  0
  4  3  1  0  0  0  0
  5  6  1  0  0  0  0
  5  4  2  0  0  0  0
  6  1  2  0  0  0  0
  8  4  1  0  0  0  0
  9  5  1  0  0  0  0
 10  6  1  0  0  0  0
 11 16  1  0  0  0  0
 12 11  2  0  0  0  0
 13 11  2  0  0  0  0
 14 15  1  0  0  0  0
 15 22  1  0  0  0  0
 16 17  1  0  0  0  0
 16 15  2  0  0  0  0
 17 19  2  0  0  0  0
 18 17  1  0  0  0  0
 19 20  1  0  0  0  0
 19 21  1  0  0  0  0
 22 21  2  0  0  0  0
 23 24  2  0  0  0  0
 25 30  1  0  0  0  0
 25 23  1  0  0  0  0
 26 25  2  0  0  0  0
 27 28  2  0  0  0  0
 27 26  1  0  0  0  0
 28 29  1  0  0  0  0
 29 33  1  0  0  0  0
 29 30  2  0  0  0  0
 31 26  1  0  0  0  0
 32 27  1  0  0  0  0
 33 36  1  1  0  0  0
 34 33  1  0  0  0  0
 34 38  1  0  0  0  0
 35 39  1  1  0  0  0
 35 34  1  0  0  0  0
 35 33  1  0  0  0  0
 37 34  1  0  0  0  0
 40 35  1  0  0  0  0
 41 40  1  0  0  0  0
 42 40  1  0  0  0  0
M  END
>  <minimizedAffinity>
-5.80466032

$$$$

 OpenBabel03252508053D

 42 45  0  0  1  0  0  0  0  0999 V2000
   37.1730   30.0380   38.4810 C   0  0  0  0  0  0  0  0  0  0  0  0
   36.2180   29.6930   39.3960 C   0  0  0  0  0  0  0  0  0  0  0  0
   35.0210   29.1280   38.9140 C   0  0  0  0  0  0  0  0  0  0  0  0
   34.7700   28.9070   37.5810 C   0  0  0  0  0  0  0  0  0  0  0  0
   35.7340   29.2550   36.6710 C   0  0  0  0  0  0  0  0  0  0  0  0
   36.8940   29.8020   37.1310 C   0  0  0  0  0  0  0  0  0  0  0  0
   34.2030   28.8310   39.5610 H   0  0  0  0  0  0  0  0  0  0  0  0
   33.8540   28.4750   37.2270 H   0  0  0  0  0  0  0  0  0  0  0  0
   35.6270   29.1200   35.6050 H   0  0  0  0  0  0  0  0  0  0  0  0
   37.6670   30.0800   36.3950 H   0  0  0  0  0  0  0  0  0  0  0  0
   38.6820   30.6370   38.9260 S   0  0  0  0  0  0  0  0  0  0  0  0
   38.2840   32.0660   39.4140 O   0  0  0  0  0  0  0  0  0  0  0  0
   39.6010   30.8080   37.7750 O   0  0  0  0  0  0  0  0  0  0  0  0
   39.9740   27.8050   39.2160 Br  0  0  0  0  0  0  0  0  0  0  0  0
   40.1790   29.2150   40.5240 C   0  0  0  0  0  0  0  0  0  0  0  0
   39.5430   30.4790   40.3640 C   0  0  0  0  0  0  0  0  0  0  0  0
   39.8520   31.3070   41.4360 C   0  0  0  0  0  0  0  0  0  0  0  0
   39.3900   32.2990   41.2630 H   0  0  0  0  0  0  0  0  0  0  0  0
   40.6180   31.1290   42.5630 C   0  0  0  0  0  0  0  0  0  0  0  0
   40.7160   31.9140   43.2640 H   0  0  0  0  0  0  0  0  0  0  0  0
   41.1370   29.8660   42.5360 C   0  0  0  0  0  3  0  0  0  0  0  0
   40.9740   28.8890   41.5940 C   0  0  0  0  0  3  0  0  0  0  0  0
   36.3840   29.8830   40.8250 C   0  0  0  0  0  0  0  0  0  0  0  0
   36.1810   30.9770   41.4330 O   0  0  0  0  0  0  0  0  0  0  0  0
   36.8090   28.6860   41.5110 C   0  0  0  0  0  0  0  0  0  0  0  0
   37.3470   28.8860   42.8290 C   0  0  0  0  0  0  0  0  0  0  0  0
   37.7580   27.7530   43.5080 C   0  0  0  0  0  0  0  0  0  0  0  0
   37.6300   26.5480   42.8980 N   0  0  0  0  0  0  0  0  0  0  0  0
   37.1090   26.4110   41.6360 C   0  0  0  0  0  0  0  0  0  0  0  0
   36.7240   27.4610   40.9970 N   0  0  0  0  0  0  0  0  0  0  0  0
   37.4780   29.7850   43.3670 H   0  0  0  0  0  0  0  0  0  0  0  0
   38.1790   27.7610   44.5010 H   0  0  0  0  0  0  0  0  0  0  0  0
   36.9990   25.0580   41.0580 C   0  0  1  0  0  0  0  0  0  0  0  0
   37.7150   24.7530   39.7600 C   0  0  0  0  0  0  0  0  0  0  0  0
   38.2530   24.2710   41.0740 C   0  0  1  0  0  0  0  0  0  0  0  0
   36.0710   24.5080   41.2860 H   0  0  0  0  0  0  0  0  0  0  0  0
   38.1500   25.6310   39.2560 H   0  0  0  0  0  0  0  0  0  0  0  0
   37.2250   23.9620   39.1480 H   0  0  0  0  0  0  0  0  0  0  0  0
   38.2110   23.1980   41.3140 H   0  0  0  0  0  0  0  0  0  0  0  0
   39.5120   24.9090   41.4230 N   0  0  0  0  0  0  0  0  0  0  0  0
   40.2080   24.8490   40.6720 H   0  0  0  0  0  0  0  0  0  0  0  0
   39.8450   24.6030   42.3620 H   0  0  0  0  0  0  0  0  0  0  0  0
  1 11  1  0  0  0  0
  1  2  1  0  0  0  0
  2 23  1  0  0  0  0
  3  2  2  0  0  0  0
  3  7  1  0  0  0  0
  4  3  1  0  0  0  0
  5  6  1  0  0  0  0
  5  4  2  0  0  0  0
  6  1  2  0  0  0  0
  8  4  1  0  0  0  0
  9  5  1  0  0  0  0
 10  6  1  0  0  0  0
 11 12  2  0  0  0  0
 11 16  1  0  0  0  0
 13 11  2  0  0  0  0
 14 15  1  0  0  0  0
 15 22  1  0  0  0  0
 16 15  2  0  0  0  0
 16 17  1  0  0  0  0
 17 19  2  0  0  0  0
 18 17  1  0  0  0  0
 19 20  1  0  0  0  0
 21 19  1  0  0  0  0
 22 21  2  0  0  0  0
 23 24  2  0  0  0  0
 23 25  1  0  0  0  0
 25 26  1  0  0  0  0
 26 31  1  0  0  0  0
 26 27  2  0  0  0  0
 27 32  1  0  0  0  0
 28 27  1  0  0  0  0
 29 28  2  0  0  0  0
 30 25  2  0  0  0  0
 30 29  1  0  0  0  0
 33 35  1  0  0  0  0
 33 36  1  1  0  0  0
 33 29  1  0  0  0  0
 34 33  1  0  0  0  0
 34 35  1  0  0  0  0
 35 39  1  1  0  0  0
 35 40  1  0  0  0  0
 37 34  1  0  0  0  0
 38 34  1  0  0  0  0
 40 42  1  0  0  0  0
 41 40  1  0  0  0  0
M  END
>  <minimizedAffinity>
-5.76472235

$$$$

 OpenBabel03252508053D

 42 45  0  0  1  0  0  0  0  0999 V2000
   38.7140   27.9310   41.4090 C   0  0  0  0  0  0  0  0  0  0  0  0
   39.2990   27.2940   40.3510 C   0  0  0  0  0  0  0  0  0  0  0  0
   40.2310   26.2750   40.6330 C   0  0  0  0  0  0  0  0  0  0  0  0
   40.5750   25.8930   41.9080 C   0  0  0  0  0  0  0  0  0  0  0  0
   39.9810   26.5370   42.9620 C   0  0  0  0  0  0  0  0  0  0  0  0
   39.0790   27.5240   42.6960 C   0  0  0  0  0  0  0  0  0  0  0  0
   40.7530   25.7200   39.8620 H   0  0  0  0  0  0  0  0  0  0  0  0
   41.2860   25.1160   42.1090 H   0  0  0  0  0  0  0  0  0  0  0  0
   40.1880   26.3070   43.9970 H   0  0  0  0  0  0  0  0  0  0  0  0
   38.6040   28.0380   43.5480 H   0  0  0  0  0  0  0  0  0  0  0  0
   37.5190   29.1010   41.2150 S   0  0  0  0  0  0  0  0  0  0  0  0
   37.3960   29.6220   42.6830 O   0  0  0  0  0  0  0  0  0  0  0  0
   36.2010   28.5300   40.8420 O   0  0  0  0  0  0  0  0  0  0  0  0
   40.0600   30.4940   42.3880 Br  0  0  0  0  0  0  0  0  0  0  0  0
   38.7920   31.3800   41.2280 C   0  0  0  0  0  0  0  0  0  0  0  0
   37.6300   30.7130   40.7440 C   0  0  0  0  0  0  0  0  0  0  0  0
   36.8920   31.5670   39.9340 C   0  0  0  0  0  0  0  0  0  0  0  0
   36.0240   31.0110   39.5290 H   0  0  0  0  0  0  0  0  0  0  0  0
   37.0750   32.8710   39.5420 C   0  0  0  0  0  0  0  0  0  0  0  0
   36.3680   33.3360   38.9060 H   0  0  0  0  0  0  0  0  0  0  0  0
   38.2310   33.3330   40.1040 C   0  0  0  0  0  3  0  0  0  0  0  0
   39.1090   32.6800   40.9230 C   0  0  0  0  0  3  0  0  0  0  0  0
   39.0060   27.6190   38.9690 C   0  0  0  0  0  0  0  0  0  0  0  0
   37.9310   27.3100   38.3700 O   0  0  0  0  0  0  0  0  0  0  0  0
   40.0710   28.3450   38.3180 C   0  0  0  0  0  0  0  0  0  0  0  0
   40.7630   27.6300   37.2790 C   0  0  0  0  0  0  0  0  0  0  0  0
   41.7860   28.3050   36.6390 C   0  0  0  0  0  0  0  0  0  0  0  0
   42.0660   29.5760   37.0240 N   0  0  0  0  0  0  0  0  0  0  0  0
   41.3740   30.2140   38.0220 C   0  0  0  0  0  0  0  0  0  0  0  0
   40.4210   29.5920   38.6250 N   0  0  0  0  0  0  0  0  0  0  0  0
   40.6040   26.6480   36.9260 H   0  0  0  0  0  0  0  0  0  0  0  0
   42.3840   27.8870   35.8440 H   0  0  0  0  0  0  0  0  0  0  0  0
   41.7440   31.6000   38.3660 C   0  0  1  0  0  0  0  0  0  0  0  0
   42.2790   32.5100   37.2820 C   0  0  0  0  0  0  0  0  0  0  0  0
   40.8710   32.6410   37.7780 C   0  0  1  0  0  0  0  0  0  0  0  0
   42.0780   31.7700   39.4030 H   0  0  0  0  0  0  0  0  0  0  0  0
   42.5010   32.0060   36.3270 H   0  0  0  0  0  0  0  0  0  0  0  0
   42.9710   33.2980   37.6540 H   0  0  0  0  0  0  0  0  0  0  0  0
   40.5910   33.5150   38.3840 H   0  0  0  0  0  0  0  0  0  0  0  0
   39.8920   32.2860   36.7620 N   0  0  0  0  0  0  0  0  0  0  0  0
   40.0410   32.7830   35.8770 H   0  0  0  0  0  0  0  0  0  0  0  0
   38.9210   32.3320   37.1390 H   0  0  0  0  0  0  0  0  0  0  0  0
  1  6  1  0  0  0  0
  2  3  1  0  0  0  0
  2  1  2  0  0  0  0
  3  4  2  0  0  0  0
  4  8  1  0  0  0  0
  4  5  1  0  0  0  0
  5  9  1  0  0  0  0
  6  5  2  0  0  0  0
  6 10  1  0  0  0  0
  7  3  1  0  0  0  0
 11  1  1  0  0  0  0
 11 12  2  0  0  0  0
 13 11  2  0  0  0  0
 15 14  1  0  0  0  0
 16 11  1  0  0  0  0
 16 15  2  0  0  0  0
 17 16  1  0  0  0  0
 18 17  1  0  0  0  0
 19 17  2  0  0  0  0
 19 21  1  0  0  0  0
 20 19  1  0  0  0  0
 21 22  2  0  0  0  0
 22 15  1  0  0  0  0
 23  2  1  0  0  0  0
 24 23  2  0  0  0  0
 25 30  1  0  0  0  0
 25 23  1  0  0  0  0
 26 25  2  0  0  0  0
 27 28  2  0  0  0  0
 27 26  1  0  0  0  0
 28 29  1  0  0  0  0
 29 33  1  0  0  0  0
 29 30  2  0  0  0  0
 31 26  1  0  0  0  0
 32 27  1  0  0  0  0
 33 36  1  1  0  0  0
 34 38  1  0  0  0  0
 34 35  1  0  0  0  0
 34 33  1  0  0  0  0
 35 33  1  0  0  0  0
 35 39  1  1  0  0  0
 37 34  1  0  0  0  0
 40 42  1  0  0  0  0
 40 35  1  0  0  0  0
 41 40  1  0  0  0  0
M  END
>  <minimizedAffinity>
-5.75703573

$$$$
