
 OpenBabel03242512173D

 33 35  0  0  0  0  0  0  0  0999 V2000
   48.3830   32.9620   41.5030 C   0  0  0  0  0  0  0  0  0  0  0  0
   48.0870   34.2590   41.8480 C   0  0  0  0  0  0  0  0  0  0  0  0
   49.0830   35.0440   42.3900 C   0  0  0  0  0  0  0  0  0  0  0  0
   50.3470   34.5140   42.5750 C   0  0  0  0  0  0  0  0  0  0  0  0
   50.6010   33.2100   42.2140 C   0  0  0  0  0  0  0  0  0  0  0  0
   49.6140   32.3940   41.6650 C   0  0  0  0  0  0  0  0  0  0  0  0
   48.8250   36.0410   42.6470 H   0  0  0  0  0  0  0  0  0  0  0  0
   51.0940   35.1640   43.0010 H   0  0  0  0  0  0  0  0  0  0  0  0
   51.6140   32.8740   42.3910 H   0  0  0  0  0  0  0  0  0  0  0  0
   46.6970   34.7030   41.6010 C   0  0  0  0  0  0  0  0  0  0  0  0
   46.1630   34.0630   40.9220 H   0  0  0  0  0  0  0  0  0  0  0  0
   46.7580   35.7100   41.1040 H   0  0  0  0  0  0  0  0  0  0  0  0
   45.9890   34.9050   42.9300 C   0  0  0  0  0  0  0  0  0  0  0  0
   46.0830   33.8900   43.8630 C   0  0  0  0  0  0  0  0  0  0  0  0
   45.4360   34.0860   45.0820 C   0  0  0  0  0  0  0  0  0  0  0  0
   44.7680   35.2330   45.2780 N   0  0  0  0  0  0  0  0  0  0  0  0
   44.6940   36.2120   44.3420 C   0  0  0  0  0  0  0  0  0  0  0  0
   45.3050   36.0470   43.1650 N   0  0  0  0  0  0  0  0  0  0  0  0
   46.6380   32.9890   43.6400 H   0  0  0  0  0  0  0  0  0  0  0  0
   45.5100   33.2970   45.8070 H   0  0  0  0  0  0  0  0  0  0  0  0
   44.1280   37.0920   44.6110 H   0  0  0  0  0  0  0  0  0  0  0  0
   47.4310   32.0770   40.9400 O   0  0  0  0  0  0  0  0  0  0  0  0
   46.7480   31.6100   41.5200 H   0  0  0  0  0  0  0  0  0  0  0  0
   49.9610   31.0890   41.3310 O   0  0  0  0  0  0  0  0  0  0  0  0
   48.3640   28.8380   39.8760 Br  0  0  0  0  0  0  0  0  0  0  0  0
   49.7550   29.9150   39.1750 C   0  0  0  0  0  0  0  0  0  0  0  0
   50.3210   30.8560   40.0090 C   0  0  0  0  0  0  0  0  0  0  0  0
   51.3360   31.6150   39.4350 C   0  0  0  0  0  0  0  0  0  0  0  0
   51.8050   32.3680   40.0660 H   0  0  0  0  0  0  0  0  0  0  0  0
   51.8090   31.5060   38.1360 C   0  0  0  0  0  0  0  0  0  0  0  0
   52.6070   32.1610   37.8130 H   0  0  0  0  0  0  0  0  0  0  0  0
   51.1930   30.5350   37.3460 C   0  0  0  0  0  3  0  0  0  0  0  0
   50.1720   29.7480   37.8690 C   0  0  0  0  0  3  0  0  0  0  0  0
  1  6  2  0  0  0  0
  1  2  1  0  0  0  0
  2  3  2  0  0  0  0
  3  4  1  0  0  0  0
  3  7  1  0  0  0  0
  4  8  1  0  0  0  0
  5  9  1  0  0  0  0
  5  4  2  0  0  0  0
  6  5  1  0  0  0  0
 10  2  1  0  0  0  0
 10 13  1  0  0  0  0
 11 10  1  0  0  0  0
 12 10  1  0  0  0  0
 13 18  2  0  0  0  0
 13 14  1  0  0  0  0
 14 15  2  0  0  0  0
 15 16  1  0  0  0  0
 15 20  1  0  0  0  0
 17 21  1  0  0  0  0
 17 16  2  0  0  0  0
 18 17  1  0  0  0  0
 19 14  1  0  0  0  0
 22  1  1  0  0  0  0
 22 23  1  0  0  0  0
 24  6  1  0  0  0  0
 26 25  1  0  0  0  0
 26 27  1  0  0  0  0
 27 24  1  0  0  0  0
 28 27  2  0  0  0  0
 28 29  1  0  0  0  0
 30 28  1  0  0  0  0
 31 30  1  0  0  0  0
 32 33  1  0  0  0  0
 32 30  2  0  0  0  0
 33 26  2  0  0  0  0
M  END
>  <minimizedAffinity>
-4.99531078

>  <minimizedRMSD>
0.604834139

$$$$
