
 OpenBabel03242519253D

 40 43  0  0  0  0  0  0  0  0999 V2000
   47.8940   33.7660   42.8810 C   0  0  0  0  0  0  0  0  0  0  0  0
   48.5840   34.9880   42.6800 C   0  0  0  0  0  0  0  0  0  0  0  0
   49.9490   34.9820   42.3600 C   0  0  0  0  0  0  0  0  0  0  0  0
   50.5390   33.7480   42.2600 N   0  0  0  0  0  0  0  0  0  0  0  0
   49.8450   32.5840   42.4600 C   0  0  0  0  0  0  0  0  0  0  0  0
   48.5550   32.6150   42.7630 N   0  0  0  0  0  0  0  0  0  0  0  0
   48.1940   35.9940   42.7400 H   0  0  0  0  0  0  0  0  0  0  0  0
   50.5270   35.8550   42.1960 H   0  0  0  0  0  0  0  0  0  0  0  0
   46.4700   33.9020   43.2170 C   0  0  0  0  0  0  0  0  0  0  0  0
   45.7610   34.9020   42.4210 C   0  0  0  0  0  0  0  0  0  0  0  0
   45.3170   36.0950   43.1860 C   0  0  0  0  0  0  0  0  0  0  0  0
   44.5330   35.7480   44.4480 C   0  0  0  0  0  0  0  0  0  0  0  0
   44.9830   34.4950   45.1310 C   0  0  0  0  0  0  0  0  0  0  0  0
   46.4060   34.1570   44.7330 C   0  0  0  0  0  0  0  0  0  0  0  0
   45.9900   32.8850   43.1050 H   0  0  0  0  0  0  0  0  0  0  0  0
   46.4240   35.2610   41.6140 H   0  0  0  0  0  0  0  0  0  0  0  0
   44.8850   34.4500   41.8930 H   0  0  0  0  0  0  0  0  0  0  0  0
   44.5440   36.6020   42.5330 H   0  0  0  0  0  0  0  0  0  0  0  0
   46.0580   36.8680   43.3820 H   0  0  0  0  0  0  0  0  0  0  0  0
   44.7080   36.5810   45.1750 H   0  0  0  0  0  0  0  0  0  0  0  0
   43.4440   35.7040   44.2840 H   0  0  0  0  0  0  0  0  0  0  0  0
   44.3440   33.6660   44.7580 H   0  0  0  0  0  0  0  0  0  0  0  0
   44.9120   34.5270   46.2190 H   0  0  0  0  0  0  0  0  0  0  0  0
   46.6970   33.2030   45.2220 H   0  0  0  0  0  0  0  0  0  0  0  0
   47.1250   34.9280   45.0520 H   0  0  0  0  0  0  0  0  0  0  0  0
   50.6260   31.3650   42.3220 C   0  0  0  0  0  0  0  0  0  0  0  0
   50.4250   30.6210   41.1980 N   0  0  0  0  0  0  0  0  0  0  0  0
   51.2340   29.5370   41.2470 C   0  0  0  0  0  0  0  0  0  0  0  0
   51.9450   29.6170   42.4200 N   0  0  0  0  0  0  0  0  0  0  0  0
   51.5650   30.7260   43.0560 N   0  0  0  0  0  0  0  0  0  0  0  0
   51.3530   28.7270   40.5400 H   0  0  0  0  0  0  0  0  0  0  0  0
   50.8520   27.3880   44.3300 Br  0  0  0  0  0  0  0  0  0  0  0  0
   52.6650   27.6950   43.8240 C   0  0  0  0  0  0  0  0  0  0  0  0
   52.9270   28.7420   42.9630 C   0  0  0  0  0  0  0  0  0  0  0  0
   54.2650   28.9430   42.6090 C   0  0  0  0  0  0  0  0  0  0  0  0
   54.5810   29.7410   41.9370 H   0  0  0  0  0  0  0  0  0  0  0  0
   55.2380   28.0940   43.1340 C   0  0  0  0  0  0  0  0  0  0  0  0
   56.2830   28.2400   42.8670 H   0  0  0  0  0  0  0  0  0  0  0  0
   54.9550   27.0690   43.9810 C   0  0  0  0  0  3  0  0  0  0  0  0
   53.6410   26.8720   44.3280 C   0  0  0  0  0  3  0  0  0  0  0  0
  1  9  1  0  0  0  0
  2  7  1  0  0  0  0
  2  1  2  0  0  0  0
  3  2  1  0  0  0  0
  4  3  2  0  0  0  0
  4  5  1  0  0  0  0
  5  6  2  0  0  0  0
  6  1  1  0  0  0  0
  8  3  1  0  0  0  0
  9 14  1  0  0  0  0
 10 11  1  0  0  0  0
 10  9  1  0  0  0  0
 11 19  1  0  0  0  0
 11 12  1  0  0  0  0
 12 13  1  0  0  0  0
 12 20  1  0  0  0  0
 13 23  1  0  0  0  0
 14 25  1  0  0  0  0
 14 13  1  0  0  0  0
 14 24  1  0  0  0  0
 15  9  1  0  0  0  0
 16 10  1  0  0  0  0
 17 10  1  0  0  0  0
 18 11  1  0  0  0  0
 21 12  1  0  0  0  0
 22 13  1  0  0  0  0
 26  5  1  0  0  0  0
 26 30  2  0  0  0  0
 27 28  2  0  0  0  0
 27 26  1  0  0  0  0
 28 29  1  0  0  0  0
 29 34  1  0  0  0  0
 29 30  1  0  0  0  0
 31 28  1  0  0  0  0
 33 40  1  0  0  0  0
 33 32  1  0  0  0  0
 34 33  2  0  0  0  0
 35 34  1  0  0  0  0
 35 37  2  0  0  0  0
 36 35  1  0  0  0  0
 37 39  1  0  0  0  0
 38 37  1  0  0  0  0
 39 40  2  0  0  0  0
M  END
>  <minimizedAffinity>
-4.31264544

>  <minimizedRMSD>
1.49136031

$$$$
