
 OpenBabel03252504543D

 21 22  0  0  0  0  0  0  0  0999 V2000
   46.4930   34.9510   41.9650 C   0  0  0  0  0  0  0  0  0  0  0  0
   47.5000   34.4610   42.0590 H   0  0  0  0  0  0  0  0  0  0  0  0
   46.5900   36.0000   41.6230 H   0  0  0  0  0  0  0  0  0  0  0  0
   44.4790   35.9780   44.9160 C   0  0  0  0  0  0  0  0  0  0  0  0
   45.0500   36.0120   43.6290 C   0  0  0  0  0  0  0  0  0  0  0  0
   45.8880   34.9440   43.2990 C   0  0  0  0  0  0  0  0  0  0  0  0
   46.1080   33.9510   44.2140 N   0  0  0  0  0  0  0  0  0  0  0  0
   45.5300   33.9760   45.4350 C   0  0  0  0  0  0  0  0  0  0  0  0
   44.7220   34.9850   45.7800 N   0  0  0  0  0  0  0  0  0  0  0  0
   43.8220   36.7970   45.1980 H   0  0  0  0  0  0  0  0  0  0  0  0
   44.8470   36.8210   42.9340 H   0  0  0  0  0  0  0  0  0  0  0  0
   45.8320   33.0990   46.0040 H   0  0  0  0  0  0  0  0  0  0  0  0
   48.2220   34.1140   39.4640 Br  0  0  0  0  0  0  0  0  0  0  0  0
   46.3750   33.7580   39.8490 C   0  0  0  0  0  0  0  0  0  0  0  0
   45.6860   34.1760   40.9840 C   0  0  0  0  0  0  0  0  0  0  0  0
   44.3620   33.8490   41.1210 C   0  0  0  0  0  0  0  0  0  0  0  0
   43.8560   34.1900   42.0170 H   0  0  0  0  0  0  0  0  0  0  0  0
   43.7560   33.1100   40.1150 C   0  0  0  0  0  0  0  0  0  0  0  0
   42.7040   32.8640   40.2510 H   0  0  0  0  0  0  0  0  0  0  0  0
   44.4090   32.6850   38.9870 C   0  0  0  0  0  3  0  0  0  0  0  0
   45.7550   33.0160   38.8470 C   0  0  0  0  0  3  0  0  0  0  0  0
  1  2  1  0  0  0  0
  1  6  1  0  0  0  0
  3  1  1  0  0  0  0
  4 10  1  0  0  0  0
  4  9  1  0  0  0  0
  5  4  2  0  0  0  0
  6  5  1  0  0  0  0
  6  7  2  0  0  0  0
  7  8  1  0  0  0  0
  8  9  2  0  0  0  0
  8 12  1  0  0  0  0
 11  5  1  0  0  0  0
 13 14  1  0  0  0  0
 14 15  1  0  0  0  0
 15 16  2  0  0  0  0
 15  1  1  0  0  0  0
 16 17  1  0  0  0  0
 18 19  1  0  0  0  0
 18 16  1  0  0  0  0
 20 18  2  0  0  0  0
 21 20  1  0  0  0  0
 21 14  2  0  0  0  0
M  END
>  <minimizedAffinity>
-4.13569736

>  <minimizedRMSD>
0.597194672

$$$$
