
 OpenBabel03242515463D

 41 44  0  0  1  0  0  0  0  0999 V2000
   40.3460   35.1390   40.2090 C   0  0  0  0  0  0  0  0  0  0  0  0
   41.3910   34.5280   40.9060 C   0  0  0  0  0  0  0  0  0  0  0  0
   41.2720   33.2420   41.3930 C   0  0  0  0  0  0  0  0  0  0  0  0
   40.1140   32.5330   41.1980 C   0  0  0  0  0  0  0  0  0  0  0  0
   39.0690   33.1170   40.5110 C   0  0  0  0  0  0  0  0  0  0  0  0
   39.1570   34.3930   40.0170 C   0  0  0  0  0  0  0  0  0  0  0  0
   38.0360   32.1580   40.4740 O   0  0  0  0  0  0  0  0  0  0  0  0
   38.3430   31.1610   41.3640 C   0  0  2  0  0  0  0  0  0  0  0  0
   39.7360   31.2410   41.5760 O   0  0  0  0  0  0  0  0  0  0  0  0
   40.3600   36.1390   39.7980 H   0  0  0  0  0  0  0  0  0  0  0  0
   42.1360   32.8630   41.9180 H   0  0  0  0  0  0  0  0  0  0  0  0
   38.3380   34.8530   39.4780 H   0  0  0  0  0  0  0  0  0  0  0  0
   37.8860   31.4460   42.3560 H   0  0  0  0  0  0  0  0  0  0  0  0
   39.5940   28.9130   43.1630 Br  0  0  0  0  0  0  0  0  0  0  0  0
   38.3400   28.6950   41.7280 C   0  0  0  0  0  0  0  0  0  0  0  0
   37.8780   29.8100   41.0220 C   0  0  0  0  0  0  0  0  0  0  0  0
   36.9780   29.5800   40.0020 C   0  0  0  0  0  0  0  0  0  0  0  0
   36.5770   30.3850   39.4110 H   0  0  0  0  0  0  0  0  0  0  0  0
   36.5420   28.2940   39.6820 C   0  0  0  0  0  0  0  0  0  0  0  0
   35.8320   28.1300   38.8770 H   0  0  0  0  0  0  0  0  0  0  0  0
   36.9950   27.2010   40.3770 C   0  0  0  0  0  3  0  0  0  0  0  0
   37.8950   27.4340   41.3960 C   0  0  0  0  0  3  0  0  0  0  0  0
   42.8260   35.5910   41.0460 S   0  0  0  0  0  0  0  0  0  0  0  0
   44.3400   34.6180   40.7430 C   0  0  0  0  0  0  0  0  0  0  0  0
   44.3370   33.8610   39.6300 C   0  0  0  0  0  0  0  0  0  0  0  0
   45.4910   33.1080   39.4190 C   0  0  0  0  0  0  0  0  0  0  0  0
   46.5270   33.1490   40.2780 N   0  0  0  0  0  0  0  0  0  0  0  0
   46.4810   33.9270   41.3790 C   0  0  0  0  0  0  0  0  0  0  0  0
   45.3740   34.6430   41.5750 N   0  0  0  0  0  0  0  0  0  0  0  0
   45.5940   32.2430   38.2680 N   0  0  0  0  0  0  0  0  0  0  0  0
   45.5800   32.5330   37.2450 H   0  0  0  0  0  0  0  0  0  0  0  0
   45.6900   31.2320   38.4780 H   0  0  0  0  0  0  0  0  0  0  0  0
   43.3700   33.6380   38.5100 C   0  0  0  0  0  0  0  0  0  0  0  0
   42.7140   34.5330   38.5150 H   0  0  0  0  0  0  0  0  0  0  0  0
   42.8200   32.7160   38.7210 H   0  0  0  0  0  0  0  0  0  0  0  0
   43.8790   33.6650   37.5220 H   0  0  0  0  0  0  0  0  0  0  0  0
   47.4890   34.0360   42.3130 O   0  0  0  0  0  0  0  0  0  0  0  0
   48.7260   34.5800   41.8840 C   0  0  0  0  0  0  0  0  0  0  0  0
   49.4910   33.6460   41.2540 F   0  0  0  0  0  0  0  0  0  0  0  0
   48.4170   35.6560   41.0350 F   0  0  0  0  0  0  0  0  0  0  0  0
   49.4190   35.0120   42.9950 F   0  0  0  0  0  0  0  0  0  0  0  0
  1  2  1  0  0  0  0
  2 23  1  0  0  0  0
  2  3  2  0  0  0  0
  3 11  1  0  0  0  0
  4  3  1  0  0  0  0
  4  9  1  0  0  0  0
  5  4  2  0  0  0  0
  6  1  2  0  0  0  0
  6  5  1  0  0  0  0
  7  5  1  0  0  0  0
  7  8  1  0  0  0  0
  8  9  1  0  0  0  0
  8 13  1  1  0  0  0
 10  1  1  0  0  0  0
 12  6  1  0  0  0  0
 15 14  1  0  0  0  0
 16  8  1  0  0  0  0
 16 15  2  0  0  0  0
 17 16  1  0  0  0  0
 18 17  1  0  0  0  0
 19 17  2  0  0  0  0
 19 21  1  0  0  0  0
 20 19  1  0  0  0  0
 21 22  2  0  0  0  0
 22 15  1  0  0  0  0
 24 23  1  0  0  0  0
 24 29  1  0  0  0  0
 25 24  2  0  0  0  0
 26 25  1  0  0  0  0
 26 27  2  0  0  0  0
 27 28  1  0  0  0  0
 28 29  2  0  0  0  0
 28 37  1  0  0  0  0
 30 32  1  0  0  0  0
 30 26  1  0  0  0  0
 31 30  1  0  0  0  0
 33 34  1  0  0  0  0
 33 35  1  0  0  0  0
 33 25  1  0  0  0  0
 36 33  1  0  0  0  0
 38 37  1  0  0  0  0
 38 41  1  0  0  0  0
 39 38  1  0  0  0  0
 40 38  1  0  0  0  0
M  END
>  <minimizedAffinity>
-6.30178738

>  <minimizedRMSD>
0.962170124

$$$$
