
 OpenBabel03252500393D

 21 22  0  0  0  0  0  0  0  0999 V2000
   45.3460   35.7630   42.7280 C   0  0  0  0  0  0  0  0  0  0  0  0
   45.1540   36.8390   42.9330 H   0  0  0  0  0  0  0  0  0  0  0  0
   46.3730   35.6870   42.3210 H   0  0  0  0  0  0  0  0  0  0  0  0
   45.3440   35.0670   44.0450 C   0  0  0  0  0  0  0  0  0  0  0  0
   46.1730   33.9470   44.1900 C   0  0  0  0  0  0  0  0  0  0  0  0
   46.1940   33.2670   45.4100 C   0  0  0  0  0  0  0  0  0  0  0  0
   45.3960   33.7400   46.3950 N   0  0  0  0  0  0  0  0  0  0  0  0
   44.5930   34.8330   46.2400 C   0  0  0  0  0  0  0  0  0  0  0  0
   44.5780   35.4830   45.0650 N   0  0  0  0  0  0  0  0  0  0  0  0
   46.7990   33.6140   43.3470 H   0  0  0  0  0  0  0  0  0  0  0  0
   46.8280   32.3940   45.5550 H   0  0  0  0  0  0  0  0  0  0  0  0
   43.9570   35.1990   47.0470 H   0  0  0  0  0  0  0  0  0  0  0  0
   46.7840   34.0100   40.5210 Br  0  0  0  0  0  0  0  0  0  0  0  0
   44.9180   34.3690   40.7710 C   0  0  0  0  0  0  0  0  0  0  0  0
   44.3910   35.1530   41.7770 C   0  0  0  0  0  0  0  0  0  0  0  0
   43.0040   35.3210   41.8290 C   0  0  0  0  0  0  0  0  0  0  0  0
   42.6300   35.9530   42.6460 H   0  0  0  0  0  0  0  0  0  0  0  0
   42.1440   34.7400   40.9240 C   0  0  0  0  0  0  0  0  0  0  0  0
   41.0620   34.8940   40.9970 H   0  0  0  0  0  0  0  0  0  0  0  0
   42.7210   33.9560   39.9270 C   0  0  0  0  0  0  0  0  0  0  0  0
   44.0850   33.7630   39.8360 C   0  0  0  0  0  0  0  0  0  0  0  0
  1  2  1  0  0  0  0
  1  4  1  0  0  0  0
  3  1  1  0  0  0  0
  4  5  2  0  0  0  0
  4  9  1  0  0  0  0
  5  6  1  0  0  0  0
  6 11  1  0  0  0  0
  6  7  2  0  0  0  0
  8  7  1  0  0  0  0
  8 12  1  0  0  0  0
  9  8  2  0  0  0  0
 10  5  1  0  0  0  0
 13 14  1  0  0  0  0
 14 15  1  0  0  0  0
 15 16  2  0  0  0  0
 15  1  1  0  0  0  0
 16 17  1  0  0  0  0
 18 19  1  0  0  0  0
 18 16  1  0  0  0  0
 20 18  2  0  0  0  0
 21 20  1  0  0  0  0
 21 14  2  0  0  0  0
M  END
>  <minimizedAffinity>
-4.21057796

>  <minimizedRMSD>
1.13913941

$$$$
