
 OpenBabel03242515463D

 41 44  0  0  1  0  0  0  0  0999 V2000
   40.4610   35.2860   40.4860 C   0  0  0  0  0  0  0  0  0  0  0  0
   41.5290   34.5980   41.0650 C   0  0  0  0  0  0  0  0  0  0  0  0
   41.4270   33.2620   41.3940 C   0  0  0  0  0  0  0  0  0  0  0  0
   40.2620   32.5770   41.1530 C   0  0  0  0  0  0  0  0  0  0  0  0
   39.1940   33.2380   40.5810 C   0  0  0  0  0  0  0  0  0  0  0  0
   39.2650   34.5650   40.2450 C   0  0  0  0  0  0  0  0  0  0  0  0
   38.1600   32.2860   40.4620 O   0  0  0  0  0  0  0  0  0  0  0  0
   38.4980   31.1880   41.2110 C   0  0  2  0  0  0  0  0  0  0  0  0
   39.8970   31.2470   41.3820 O   0  0  0  0  0  0  0  0  0  0  0  0
   40.4600   36.3290   40.2020 H   0  0  0  0  0  0  0  0  0  0  0  0
   42.3090   32.8240   41.8370 H   0  0  0  0  0  0  0  0  0  0  0  0
   38.4270   35.0840   39.7960 H   0  0  0  0  0  0  0  0  0  0  0  0
   38.0770   31.3470   42.2460 H   0  0  0  0  0  0  0  0  0  0  0  0
   38.7020   30.8740   38.0950 Br  0  0  0  0  0  0  0  0  0  0  0  0
   38.0440   29.5870   39.3570 C   0  0  0  0  0  0  0  0  0  0  0  0
   38.0210   29.8880   40.7220 C   0  0  0  0  0  0  0  0  0  0  0  0
   37.5350   28.9160   41.5710 C   0  0  0  0  0  0  0  0  0  0  0  0
   37.4850   29.0710   42.6360 H   0  0  0  0  0  0  0  0  0  0  0  0
   37.0840   27.6840   41.0980 C   0  0  0  0  0  0  0  0  0  0  0  0
   36.7050   26.9300   41.7810 H   0  0  0  0  0  0  0  0  0  0  0  0
   37.1070   27.3890   39.7580 C   0  0  0  0  0  3  0  0  0  0  0  0
   37.5940   28.3640   38.9110 C   0  0  0  0  0  3  0  0  0  0  0  0
   42.9690   35.6420   41.2850 S   0  0  0  0  0  0  0  0  0  0  0  0
   44.4800   34.6830   40.9230 C   0  0  0  0  0  0  0  0  0  0  0  0
   44.4540   33.9540   39.7920 C   0  0  0  0  0  0  0  0  0  0  0  0
   45.6060   33.2120   39.5360 C   0  0  0  0  0  0  0  0  0  0  0  0
   46.6610   33.2370   40.3720 N   0  0  0  0  0  0  0  0  0  0  0  0
   46.6370   33.9870   41.4930 C   0  0  0  0  0  0  0  0  0  0  0  0
   45.5320   34.6930   41.7310 N   0  0  0  0  0  0  0  0  0  0  0  0
   45.6860   32.3760   38.3630 N   0  0  0  0  0  0  0  0  0  0  0  0
   45.6470   32.6910   37.3480 H   0  0  0  0  0  0  0  0  0  0  0  0
   45.7910   31.3600   38.5450 H   0  0  0  0  0  0  0  0  0  0  0  0
   43.4620   33.7530   38.6890 C   0  0  0  0  0  0  0  0  0  0  0  0
   42.8020   34.6450   38.7320 H   0  0  0  0  0  0  0  0  0  0  0  0
   42.9210   32.8240   38.8910 H   0  0  0  0  0  0  0  0  0  0  0  0
   43.9480   33.8080   37.6910 H   0  0  0  0  0  0  0  0  0  0  0  0
   47.6670   34.0790   42.4060 O   0  0  0  0  0  0  0  0  0  0  0  0
   48.8930   34.6320   41.9590 C   0  0  0  0  0  0  0  0  0  0  0  0
   49.6610   33.7010   41.3290 F   0  0  0  0  0  0  0  0  0  0  0  0
   48.5650   35.6990   41.1060 F   0  0  0  0  0  0  0  0  0  0  0  0
   49.5930   35.0790   43.0600 F   0  0  0  0  0  0  0  0  0  0  0  0
  1  2  1  0  0  0  0
  2 23  1  0  0  0  0
  2  3  2  0  0  0  0
  3 11  1  0  0  0  0
  4  9  1  0  0  0  0
  4  3  1  0  0  0  0
  5  4  2  0  0  0  0
  6  1  2  0  0  0  0
  6  5  1  0  0  0  0
  7  5  1  0  0  0  0
  7  8  1  0  0  0  0
  8  9  1  0  0  0  0
  8 13  1  1  0  0  0
 10  1  1  0  0  0  0
 12  6  1  0  0  0  0
 14 15  1  0  0  0  0
 15 16  1  0  0  0  0
 16  8  1  0  0  0  0
 16 17  2  0  0  0  0
 17 18  1  0  0  0  0
 19 17  1  0  0  0  0
 19 20  1  0  0  0  0
 21 19  2  0  0  0  0
 22 15  2  0  0  0  0
 22 21  1  0  0  0  0
 24 23  1  0  0  0  0
 24 29  1  0  0  0  0
 25 24  2  0  0  0  0
 26 25  1  0  0  0  0
 26 27  2  0  0  0  0
 27 28  1  0  0  0  0
 28 29  2  0  0  0  0
 28 37  1  0  0  0  0
 30 32  1  0  0  0  0
 30 26  1  0  0  0  0
 31 30  1  0  0  0  0
 33 34  1  0  0  0  0
 33 35  1  0  0  0  0
 33 25  1  0  0  0  0
 36 33  1  0  0  0  0
 38 37  1  0  0  0  0
 38 41  1  0  0  0  0
 39 38  1  0  0  0  0
 40 38  1  0  0  0  0
M  END
>  <minimizedAffinity>
-6.38252163

>  <minimizedRMSD>
1.17195833

$$$$
