
 OpenBabel03242519243D

 40 43  0  0  0  0  0  0  0  0999 V2000
   47.9040   33.8710   42.8850 C   0  0  0  0  0  0  0  0  0  0  0  0
   48.5450   35.1110   42.6430 C   0  0  0  0  0  0  0  0  0  0  0  0
   49.9070   35.1480   42.3120 C   0  0  0  0  0  0  0  0  0  0  0  0
   50.5440   33.9350   42.2440 N   0  0  0  0  0  0  0  0  0  0  0  0
   49.8970   32.7520   42.4830 C   0  0  0  0  0  0  0  0  0  0  0  0
   48.6080   32.7420   42.7940 N   0  0  0  0  0  0  0  0  0  0  0  0
   48.1170   36.1030   42.6780 H   0  0  0  0  0  0  0  0  0  0  0  0
   50.4510   36.0370   42.1180 H   0  0  0  0  0  0  0  0  0  0  0  0
   46.4790   33.9610   43.2280 C   0  0  0  0  0  0  0  0  0  0  0  0
   45.7420   34.9630   42.4600 C   0  0  0  0  0  0  0  0  0  0  0  0
   45.2700   36.1250   43.2570 C   0  0  0  0  0  0  0  0  0  0  0  0
   44.5000   35.7260   44.5110 C   0  0  0  0  0  0  0  0  0  0  0  0
   44.9830   34.4670   45.1600 C   0  0  0  0  0  0  0  0  0  0  0  0
   46.4130   34.1760   44.7500 C   0  0  0  0  0  0  0  0  0  0  0  0
   46.0230   32.9360   43.0910 H   0  0  0  0  0  0  0  0  0  0  0  0
   46.3930   35.3590   41.6600 H   0  0  0  0  0  0  0  0  0  0  0  0
   44.8760   34.5030   41.9230 H   0  0  0  0  0  0  0  0  0  0  0  0
   44.4830   36.6290   42.6190 H   0  0  0  0  0  0  0  0  0  0  0  0
   45.9930   36.9110   43.4710 H   0  0  0  0  0  0  0  0  0  0  0  0
   44.6560   36.5430   45.2590 H   0  0  0  0  0  0  0  0  0  0  0  0
   43.4120   35.6580   44.3490 H   0  0  0  0  0  0  0  0  0  0  0  0
   44.3640   33.6320   44.7680 H   0  0  0  0  0  0  0  0  0  0  0  0
   44.9150   34.4690   46.2490 H   0  0  0  0  0  0  0  0  0  0  0  0
   46.7290   33.2170   45.2140 H   0  0  0  0  0  0  0  0  0  0  0  0
   47.1130   34.9560   45.0870 H   0  0  0  0  0  0  0  0  0  0  0  0
   50.7230   31.5600   42.3730 C   0  0  0  0  0  0  0  0  0  0  0  0
   51.5160   31.4510   41.2700 N   0  0  0  0  0  0  0  0  0  0  0  0
   52.2040   30.2880   41.3460 C   0  0  0  0  0  0  0  0  0  0  0  0
   51.8280   29.6720   42.5150 N   0  0  0  0  0  0  0  0  0  0  0  0
   50.9330   30.4530   43.1210 N   0  0  0  0  0  0  0  0  0  0  0  0
   52.9250   29.8620   40.6610 H   0  0  0  0  0  0  0  0  0  0  0  0
   50.1120   27.1810   41.7040 Br  0  0  0  0  0  0  0  0  0  0  0  0
   51.6320   27.2180   42.8540 C   0  0  0  0  0  0  0  0  0  0  0  0
   52.2440   28.4340   43.0790 C   0  0  0  0  0  0  0  0  0  0  0  0
   53.3570   28.4290   43.9280 C   0  0  0  0  0  0  0  0  0  0  0  0
   53.9120   29.3360   44.1710 H   0  0  0  0  0  0  0  0  0  0  0  0
   53.7750   27.2240   44.4860 C   0  0  0  0  0  0  0  0  0  0  0  0
   54.6400   27.2060   45.1490 H   0  0  0  0  0  0  0  0  0  0  0  0
   53.1550   26.0370   44.2500 C   0  0  0  0  0  3  0  0  0  0  0  0
   52.0650   26.0420   43.4180 C   0  0  0  0  0  3  0  0  0  0  0  0
  1  9  1  0  0  0  0
  2  7  1  0  0  0  0
  2  1  2  0  0  0  0
  3  2  1  0  0  0  0
  4  3  2  0  0  0  0
  4  5  1  0  0  0  0
  5  6  2  0  0  0  0
  6  1  1  0  0  0  0
  8  3  1  0  0  0  0
  9 14  1  0  0  0  0
 10  9  1  0  0  0  0
 10 11  1  0  0  0  0
 11 19  1  0  0  0  0
 11 12  1  0  0  0  0
 12 13  1  0  0  0  0
 12 20  1  0  0  0  0
 13 23  1  0  0  0  0
 14 25  1  0  0  0  0
 14 13  1  0  0  0  0
 14 24  1  0  0  0  0
 15  9  1  0  0  0  0
 16 10  1  0  0  0  0
 17 10  1  0  0  0  0
 18 11  1  0  0  0  0
 21 12  1  0  0  0  0
 22 13  1  0  0  0  0
 26  5  1  0  0  0  0
 26 30  2  0  0  0  0
 27 28  2  0  0  0  0
 27 26  1  0  0  0  0
 28 29  1  0  0  0  0
 29 34  1  0  0  0  0
 29 30  1  0  0  0  0
 31 28  1  0  0  0  0
 32 33  1  0  0  0  0
 33 34  2  0  0  0  0
 33 40  1  0  0  0  0
 34 35  1  0  0  0  0
 35 36  1  0  0  0  0
 35 37  2  0  0  0  0
 37 38  1  0  0  0  0
 39 37  1  0  0  0  0
 40 39  2  0  0  0  0
M  END
>  <minimizedAffinity>
-4.22572565

>  <minimizedRMSD>
1.06938982

$$$$
