
 OpenBabel03252505403D

 28 30  0  0  1  0  0  0  0  0999 V2000
   47.0740   31.8020   44.3450 C   0  0  1  0  0  0  0  0  0  0  0  0
   48.1570   30.9180   43.7060 C   0  0  0  0  0  0  0  0  0  0  0  0
   46.9550   31.3560   42.9510 C   0  0  2  0  0  0  0  0  0  0  0  0
   47.3610   32.8240   44.6090 H   0  0  0  0  0  0  0  0  0  0  0  0
   49.1150   31.4310   43.6600 H   0  0  0  0  0  0  0  0  0  0  0  0
   48.2410   29.8770   44.0850 H   0  0  0  0  0  0  0  0  0  0  0  0
   46.2670   30.4820   42.7160 H   0  0  0  0  0  0  0  0  0  0  0  0
   44.3820   33.0740   42.0360 Br  0  0  0  0  0  0  0  0  0  0  0  0
   46.1210   33.2670   41.3440 C   0  0  0  0  0  0  0  0  0  0  0  0
   47.0350   32.4190   41.9220 C   0  0  0  0  0  0  0  0  0  0  0  0
   48.3660   32.4970   41.4860 C   0  0  0  0  0  0  0  0  0  0  0  0
   49.2390   31.9250   41.8090 H   0  0  0  0  0  0  0  0  0  0  0  0
   48.7470   33.4100   40.4930 C   0  0  0  0  0  0  0  0  0  0  0  0
   49.7460   33.5280   40.1080 H   0  0  0  0  0  0  0  0  0  0  0  0
   47.8150   34.2500   39.9270 C   0  0  0  0  0  3  0  0  0  0  0  0
   46.5140   34.1510   40.3750 C   0  0  0  0  0  3  0  0  0  0  0  0
   46.3140   31.1330   45.4460 C   0  0  0  0  0  0  0  0  0  0  0  0
   45.5670   29.9650   45.1470 C   0  0  0  0  0  0  0  0  0  0  0  0
   44.8800   29.3680   46.1960 C   0  0  0  0  0  0  0  0  0  0  0  0
   44.9630   29.9280   47.4250 N   0  0  0  0  0  0  0  0  0  0  0  0
   45.6890   31.0470   47.6670 C   0  0  0  0  0  0  0  0  0  0  0  0
   46.3710   31.6530   46.6630 N   0  0  0  0  0  0  0  0  0  0  0  0
   45.5260   29.5510   44.1610 H   0  0  0  0  0  0  0  0  0  0  0  0
   44.2860   28.4830   46.0780 H   0  0  0  0  0  0  0  0  0  0  0  0
   45.6480   31.4960   49.0980 C   0  0  0  0  0  0  0  0  0  0  0  0
   45.8090   32.8530   49.2090 F   0  0  0  0  0  0  0  0  0  0  0  0
   46.6660   30.8690   49.8150 F   0  0  0  0  0  0  0  0  0  0  0  0
   44.4620   31.0500   49.6710 F   0  0  0  0  0  0  0  0  0  0  0  0
  1  4  1  1  0  0  0
  1 17  1  0  0  0  0
  2  6  1  0  0  0  0
  2  1  1  0  0  0  0
  3  7  1  6  0  0  0
  3  2  1  0  0  0  0
  3  1  1  0  0  0  0
  5  2  1  0  0  0  0
  9 10  1  0  0  0  0
  9  8  1  0  0  0  0
 10  3  1  0  0  0  0
 11 12  1  0  0  0  0
 11 10  2  0  0  0  0
 13 11  1  0  0  0  0
 14 13  1  0  0  0  0
 15 16  1  0  0  0  0
 15 13  2  0  0  0  0
 16  9  2  0  0  0  0
 17 22  1  0  0  0  0
 18 17  2  0  0  0  0
 18 19  1  0  0  0  0
 19 20  2  0  0  0  0
 20 21  1  0  0  0  0
 21 25  1  0  0  0  0
 22 21  2  0  0  0  0
 23 18  1  0  0  0  0
 24 19  1  0  0  0  0
 25 26  1  0  0  0  0
 25 28  1  0  0  0  0
 25 27  1  0  0  0  0
M  END
>  <minimizedAffinity>
-4.51404285

>  <minimizedRMSD>
4.63402462

$$$$
