
 OpenBabel03242512173D

 33 35  0  0  0  0  0  0  0  0999 V2000
   48.3920   33.0080   41.3300 C   0  0  0  0  0  0  0  0  0  0  0  0
   48.0600   34.2580   41.7960 C   0  0  0  0  0  0  0  0  0  0  0  0
   49.0270   35.0050   42.4350 C   0  0  0  0  0  0  0  0  0  0  0  0
   50.2990   34.4850   42.5940 C   0  0  0  0  0  0  0  0  0  0  0  0
   50.5890   33.2290   42.1120 C   0  0  0  0  0  0  0  0  0  0  0  0
   49.6320   32.4520   41.4620 C   0  0  0  0  0  0  0  0  0  0  0  0
   48.7410   35.9660   42.7840 H   0  0  0  0  0  0  0  0  0  0  0  0
   51.0220   35.1050   43.1000 H   0  0  0  0  0  0  0  0  0  0  0  0
   51.6060   32.8970   42.2770 H   0  0  0  0  0  0  0  0  0  0  0  0
   46.6660   34.6960   41.5630 C   0  0  0  0  0  0  0  0  0  0  0  0
   46.1260   34.0520   40.8920 H   0  0  0  0  0  0  0  0  0  0  0  0
   46.7170   35.7010   41.0620 H   0  0  0  0  0  0  0  0  0  0  0  0
   45.9710   34.8990   42.8990 C   0  0  0  0  0  0  0  0  0  0  0  0
   46.0610   33.8760   43.8260 C   0  0  0  0  0  0  0  0  0  0  0  0
   45.4280   34.0740   45.0520 C   0  0  0  0  0  0  0  0  0  0  0  0
   44.7760   35.2270   45.2600 N   0  0  0  0  0  0  0  0  0  0  0  0
   44.7060   36.2130   44.3300 C   0  0  0  0  0  0  0  0  0  0  0  0
   45.3040   36.0470   43.1470 N   0  0  0  0  0  0  0  0  0  0  0  0
   46.6030   32.9710   43.5920 H   0  0  0  0  0  0  0  0  0  0  0  0
   45.4980   33.2790   45.7710 H   0  0  0  0  0  0  0  0  0  0  0  0
   44.1530   37.0980   44.6100 H   0  0  0  0  0  0  0  0  0  0  0  0
   47.4720   32.1650   40.6610 O   0  0  0  0  0  0  0  0  0  0  0  0
   46.7880   31.6280   41.1770 H   0  0  0  0  0  0  0  0  0  0  0  0
   50.0150   31.1940   41.0080 O   0  0  0  0  0  0  0  0  0  0  0  0
   52.7230   29.9020   41.8620 Br  0  0  0  0  0  0  0  0  0  0  0  0
   52.2640   30.6340   40.1770 C   0  0  0  0  0  0  0  0  0  0  0  0
   50.9970   31.1550   40.0260 C   0  0  0  0  0  0  0  0  0  0  0  0
   50.7220   31.6760   38.7660 C   0  0  0  0  0  0  0  0  0  0  0  0
   49.7300   32.0970   38.6110 H   0  0  0  0  0  0  0  0  0  0  0  0
   51.5900   31.7140   37.6840 C   0  0  0  0  0  0  0  0  0  0  0  0
   51.2510   32.1490   36.7540 H   0  0  0  0  0  0  0  0  0  0  0  0
   52.8560   31.1700   37.9040 C   0  0  0  0  0  3  0  0  0  0  0  0
   53.1840   30.6340   39.1470 C   0  0  0  0  0  3  0  0  0  0  0  0
  1  6  2  0  0  0  0
  1  2  1  0  0  0  0
  2  3  2  0  0  0  0
  3  4  1  0  0  0  0
  3  7  1  0  0  0  0
  4  8  1  0  0  0  0
  5  9  1  0  0  0  0
  5  4  2  0  0  0  0
  6  5  1  0  0  0  0
 10  2  1  0  0  0  0
 10 13  1  0  0  0  0
 11 10  1  0  0  0  0
 12 10  1  0  0  0  0
 13 18  2  0  0  0  0
 13 14  1  0  0  0  0
 14 15  2  0  0  0  0
 15 16  1  0  0  0  0
 15 20  1  0  0  0  0
 17 21  1  0  0  0  0
 17 16  2  0  0  0  0
 18 17  1  0  0  0  0
 19 14  1  0  0  0  0
 22 23  1  0  0  0  0
 22  1  1  0  0  0  0
 24  6  1  0  0  0  0
 26 25  1  0  0  0  0
 27 26  1  0  0  0  0
 27 24  1  0  0  0  0
 28 27  2  0  0  0  0
 29 28  1  0  0  0  0
 30 32  2  0  0  0  0
 30 28  1  0  0  0  0
 31 30  1  0  0  0  0
 32 33  1  0  0  0  0
 33 26  2  0  0  0  0
M  END
>  <minimizedAffinity>
-5.31771374

>  <minimizedRMSD>
1.4425478

$$$$
