
 OpenBabel03242520033D

 25 27  0  0  0  0  0  0  0  0999 V2000
   37.5920   30.7060   40.5860 C   0  0  0  0  0  0  0  0  0  0  0  0
   36.1940   30.7760   40.5670 C   0  0  0  0  0  0  0  0  0  0  0  0
   35.7170   29.5080   40.6820 C   0  0  0  0  0  0  0  0  0  0  0  0
   36.7750   28.6880   40.7680 N   0  0  0  0  0  0  0  0  0  0  0  0
   37.9080   29.4160   40.7100 N   0  0  0  0  0  0  0  0  0  0  0  0
   35.6050   31.6800   40.4780 H   0  0  0  0  0  0  0  0  0  0  0  0
   34.7120   29.1360   40.7070 H   0  0  0  0  0  0  0  0  0  0  0  0
   38.7780   34.1610   40.2100 C   0  0  0  0  0  0  0  0  0  0  0  0
   40.1710   34.0200   40.3050 C   0  0  0  0  0  0  0  0  0  0  0  0
   40.6900   32.7230   40.5000 C   0  0  0  0  0  0  0  0  0  0  0  0
   39.8230   31.6770   40.5870 N   0  0  0  0  0  0  0  0  0  0  0  0
   38.4860   31.8530   40.4890 C   0  0  0  0  0  0  0  0  0  0  0  0
   37.9540   33.0890   40.3010 N   0  0  0  0  0  0  0  0  0  0  0  0
   38.2890   35.1060   40.0610 H   0  0  0  0  0  0  0  0  0  0  0  0
   40.7890   34.8920   40.2290 H   0  0  0  0  0  0  0  0  0  0  0  0
   41.7600   32.5950   40.5770 H   0  0  0  0  0  0  0  0  0  0  0  0
   37.1190   27.7780   43.6800 Br  0  0  0  0  0  0  0  0  0  0  0  0
   36.9960   26.6590   42.1240 C   0  0  0  0  0  0  0  0  0  0  0  0
   36.8420   27.2790   40.9000 C   0  0  0  0  0  0  0  0  0  0  0  0
   36.7530   26.4810   39.7810 C   0  0  0  0  0  0  0  0  0  0  0  0
   36.6320   26.8980   38.7890 H   0  0  0  0  0  0  0  0  0  0  0  0
   36.8200   25.1050   39.9180 C   0  0  0  0  0  0  0  0  0  0  0  0
   36.7480   24.4800   39.0340 H   0  0  0  0  0  0  0  0  0  0  0  0
   36.9710   24.4680   41.1260 C   0  0  0  0  0  3  0  0  0  0  0  0
   37.0590   25.2930   42.2400 C   0  0  0  0  0  3  0  0  0  0  0  0
  1  5  2  0  0  0  0
  2  1  1  0  0  0  0
  2  3  2  0  0  0  0
  3  7  1  0  0  0  0
  3  4  1  0  0  0  0
  4 19  1  0  0  0  0
  5  4  1  0  0  0  0
  6  2  1  0  0  0  0
  8 13  2  0  0  0  0
  8  9  1  0  0  0  0
  9 10  2  0  0  0  0
 10 16  1  0  0  0  0
 10 11  1  0  0  0  0
 12  1  1  0  0  0  0
 12 11  2  0  0  0  0
 13 12  1  0  0  0  0
 14  8  1  0  0  0  0
 15  9  1  0  0  0  0
 18 25  1  0  0  0  0
 18 17  1  0  0  0  0
 19 18  2  0  0  0  0
 20 22  2  0  0  0  0
 20 19  1  0  0  0  0
 21 20  1  0  0  0  0
 22 24  1  0  0  0  0
 23 22  1  0  0  0  0
 24 25  2  0  0  0  0
M  END
>  <minimizedAffinity>
-5.32422495

$$$$

 OpenBabel03242520033D

 25 27  0  0  0  0  0  0  0  0999 V2000
   38.3900   29.8920   41.6140 C   0  0  0  0  0  0  0  0  0  0  0  0
   38.8730   29.6990   42.9130 C   0  0  0  0  0  0  0  0  0  0  0  0
   38.8970   28.3600   43.1480 C   0  0  0  0  0  0  0  0  0  0  0  0
   38.4470   27.7500   42.0410 N   0  0  0  0  0  0  0  0  0  0  0  0
   38.1410   28.6800   41.1150 N   0  0  0  0  0  0  0  0  0  0  0  0
   39.1720   30.4780   43.6020 H   0  0  0  0  0  0  0  0  0  0  0  0
   39.1980   27.8050   44.0150 H   0  0  0  0  0  0  0  0  0  0  0  0
   37.0610   32.5420   39.4480 C   0  0  0  0  0  0  0  0  0  0  0  0
   37.8750   33.6400   39.7700 C   0  0  0  0  0  0  0  0  0  0  0  0
   38.8810   33.4510   40.7400 C   0  0  0  0  0  0  0  0  0  0  0  0
   39.0150   32.2240   41.3140 N   0  0  0  0  0  0  0  0  0  0  0  0
   38.2120   31.1900   40.9750 C   0  0  0  0  0  0  0  0  0  0  0  0
   37.2340   31.3390   40.0460 N   0  0  0  0  0  0  0  0  0  0  0  0
   36.2700   32.5870   38.7220 H   0  0  0  0  0  0  0  0  0  0  0  0
   37.7060   34.5750   39.2750 H   0  0  0  0  0  0  0  0  0  0  0  0
   39.5170   34.2850   41.0010 H   0  0  0  0  0  0  0  0  0  0  0  0
   40.9050   26.4860   40.7040 Br  0  0  0  0  0  0  0  0  0  0  0  0
   39.2530   25.6140   41.1510 C   0  0  0  0  0  0  0  0  0  0  0  0
   38.2700   26.3750   41.7520 C   0  0  0  0  0  0  0  0  0  0  0  0
   37.0830   25.7540   42.0750 C   0  0  0  0  0  0  0  0  0  0  0  0
   36.2680   26.2880   42.5470 H   0  0  0  0  0  0  0  0  0  0  0  0
   36.9180   24.4100   41.7890 C   0  0  0  0  0  0  0  0  0  0  0  0
   35.9810   23.9250   42.0450 H   0  0  0  0  0  0  0  0  0  0  0  0
   37.8830   23.6350   41.1910 C   0  0  0  0  0  3  0  0  0  0  0  0
   39.0710   24.2830   40.8760 C   0  0  0  0  0  3  0  0  0  0  0  0
  1  2  1  0  0  0  0
  2  3  2  0  0  0  0
  2  6  1  0  0  0  0
  3  7  1  0  0  0  0
  4  3  1  0  0  0  0
  5  1  2  0  0  0  0
  5  4  1  0  0  0  0
  8  9  2  0  0  0  0
  8 13  1  0  0  0  0
  9 10  1  0  0  0  0
 10 16  1  0  0  0  0
 10 11  2  0  0  0  0
 12 11  1  0  0  0  0
 12  1  1  0  0  0  0
 13 12  2  0  0  0  0
 14  8  1  0  0  0  0
 15  9  1  0  0  0  0
 17 18  1  0  0  0  0
 18 19  1  0  0  0  0
 19  4  1  0  0  0  0
 19 20  2  0  0  0  0
 20 21  1  0  0  0  0
 22 23  1  0  0  0  0
 22 20  1  0  0  0  0
 24 22  2  0  0  0  0
 25 18  2  0  0  0  0
 25 24  1  0  0  0  0
M  END
>  <minimizedAffinity>
-5.04800701

$$$$

 OpenBabel03242520033D

 25 27  0  0  0  0  0  0  0  0999 V2000
   37.5630   30.6590   40.6780 C   0  0  0  0  0  0  0  0  0  0  0  0
   36.1660   30.7350   40.7000 C   0  0  0  0  0  0  0  0  0  0  0  0
   35.6860   29.4680   40.8110 C   0  0  0  0  0  0  0  0  0  0  0  0
   36.7420   28.6420   40.8550 N   0  0  0  0  0  0  0  0  0  0  0  0
   37.8760   29.3650   40.7730 N   0  0  0  0  0  0  0  0  0  0  0  0
   35.5790   31.6420   40.6410 H   0  0  0  0  0  0  0  0  0  0  0  0
   34.6800   29.1000   40.8610 H   0  0  0  0  0  0  0  0  0  0  0  0
   40.6370   32.6650   40.5980 C   0  0  0  0  0  0  0  0  0  0  0  0
   40.1520   33.9620   40.3640 C   0  0  0  0  0  0  0  0  0  0  0  0
   38.7580   34.1300   40.2350 C   0  0  0  0  0  0  0  0  0  0  0  0
   37.9540   33.0360   40.3420 N   0  0  0  0  0  0  0  0  0  0  0  0
   38.4590   31.8030   40.5690 C   0  0  0  0  0  0  0  0  0  0  0  0
   39.7970   31.6070   40.6980 N   0  0  0  0  0  0  0  0  0  0  0  0
   41.6810   32.4370   40.7110 H   0  0  0  0  0  0  0  0  0  0  0  0
   40.8490   34.7720   40.2910 H   0  0  0  0  0  0  0  0  0  0  0  0
   38.3660   35.1200   40.0540 H   0  0  0  0  0  0  0  0  0  0  0  0
   36.2920   27.2160   38.1730 Br  0  0  0  0  0  0  0  0  0  0  0  0
   36.6310   26.3980   39.8770 C   0  0  0  0  0  0  0  0  0  0  0  0
   36.8060   27.2310   40.9640 C   0  0  0  0  0  0  0  0  0  0  0  0
   37.0500   26.6490   42.1880 C   0  0  0  0  0  0  0  0  0  0  0  0
   37.1960   27.2390   43.0840 H   0  0  0  0  0  0  0  0  0  0  0  0
   37.1100   25.2690   42.2870 C   0  0  0  0  0  0  0  0  0  0  0  0
   37.3030   24.8140   43.2530 H   0  0  0  0  0  0  0  0  0  0  0  0
   36.9400   24.4220   41.2180 C   0  0  0  0  0  3  0  0  0  0  0  0
   36.6950   25.0320   39.9940 C   0  0  0  0  0  3  0  0  0  0  0  0
  1  2  1  0  0  0  0
  1  5  2  0  0  0  0
  2  3  2  0  0  0  0
  3  4  1  0  0  0  0
  3  7  1  0  0  0  0
  4 19  1  0  0  0  0
  5  4  1  0  0  0  0
  6  2  1  0  0  0  0
  8 13  1  0  0  0  0
  8 14  1  0  0  0  0
  9  8  2  0  0  0  0
 10 11  2  0  0  0  0
 10  9  1  0  0  0  0
 11 12  1  0  0  0  0
 12  1  1  0  0  0  0
 12 13  2  0  0  0  0
 15  9  1  0  0  0  0
 16 10  1  0  0  0  0
 17 18  1  0  0  0  0
 18 25  2  0  0  0  0
 18 19  1  0  0  0  0
 19 20  2  0  0  0  0
 20 22  1  0  0  0  0
 20 21  1  0  0  0  0
 22 23  1  0  0  0  0
 24 22  2  0  0  0  0
 25 24  1  0  0  0  0
M  END
>  <minimizedAffinity>
-5.03996325

$$$$

 OpenBabel03242520033D

 25 27  0  0  0  0  0  0  0  0999 V2000
   37.8530   27.3840   41.9320 C   0  0  0  0  0  0  0  0  0  0  0  0
   37.6300   27.8730   43.2240 C   0  0  0  0  0  0  0  0  0  0  0  0
   37.6980   29.2290   43.1690 C   0  0  0  0  0  0  0  0  0  0  0  0
   37.9530   29.5660   41.8960 N   0  0  0  0  0  0  0  0  0  0  0  0
   38.0460   28.4480   41.1500 N   0  0  0  0  0  0  0  0  0  0  0  0
   37.4380   27.2730   44.1050 H   0  0  0  0  0  0  0  0  0  0  0  0
   37.5860   29.9690   43.9360 H   0  0  0  0  0  0  0  0  0  0  0  0
   38.9900   23.9240   41.4650 C   0  0  0  0  0  0  0  0  0  0  0  0
   37.8760   23.3120   40.8690 C   0  0  0  0  0  0  0  0  0  0  0  0
   36.7360   24.1070   40.6340 C   0  0  0  0  0  0  0  0  0  0  0  0
   36.7670   25.4200   40.9930 N   0  0  0  0  0  0  0  0  0  0  0  0
   37.8600   25.9740   41.5630 C   0  0  0  0  0  0  0  0  0  0  0  0
   38.9750   25.2360   41.8040 N   0  0  0  0  0  0  0  0  0  0  0  0
   39.9040   23.4020   41.6830 H   0  0  0  0  0  0  0  0  0  0  0  0
   37.9280   22.2720   40.6170 H   0  0  0  0  0  0  0  0  0  0  0  0
   35.8680   23.6530   40.1770 H   0  0  0  0  0  0  0  0  0  0  0  0
   40.7250   30.7750   42.4200 Br  0  0  0  0  0  0  0  0  0  0  0  0
   39.2950   31.5570   41.4050 C   0  0  0  0  0  0  0  0  0  0  0  0
   38.1210   30.8380   41.2930 C   0  0  0  0  0  0  0  0  0  0  0  0
   37.0920   31.3940   40.5670 C   0  0  0  0  0  0  0  0  0  0  0  0
   36.1440   30.8880   40.4370 H   0  0  0  0  0  0  0  0  0  0  0  0
   37.2650   32.6370   39.9820 C   0  0  0  0  0  0  0  0  0  0  0  0
   36.4520   33.0710   39.4100 H   0  0  0  0  0  0  0  0  0  0  0  0
   38.4240   33.3690   40.0800 C   0  0  0  0  0  3  0  0  0  0  0  0
   39.4480   32.7870   40.8180 C   0  0  0  0  0  3  0  0  0  0  0  0
  1  2  1  0  0  0  0
  2  6  1  0  0  0  0
  3  2  2  0  0  0  0
  3  7  1  0  0  0  0
  4  3  1  0  0  0  0
  5  4  1  0  0  0  0
  5  1  2  0  0  0  0
  8 14  1  0  0  0  0
  8 13  1  0  0  0  0
  9  8  2  0  0  0  0
 10  9  1  0  0  0  0
 10 11  2  0  0  0  0
 11 12  1  0  0  0  0
 12 13  2  0  0  0  0
 12  1  1  0  0  0  0
 15  9  1  0  0  0  0
 16 10  1  0  0  0  0
 18 17  1  0  0  0  0
 19 18  1  0  0  0  0
 19  4  1  0  0  0  0
 20 19  2  0  0  0  0
 21 20  1  0  0  0  0
 22 24  2  0  0  0  0
 22 20  1  0  0  0  0
 23 22  1  0  0  0  0
 24 25  1  0  0  0  0
 25 18  2  0  0  0  0
M  END
>  <minimizedAffinity>
-4.90186596

$$$$

 OpenBabel03242520033D

 25 27  0  0  0  0  0  0  0  0999 V2000
   38.1980   27.3690   41.9740 C   0  0  0  0  0  0  0  0  0  0  0  0
   38.0690   27.8410   43.2860 C   0  0  0  0  0  0  0  0  0  0  0  0
   38.1010   29.1990   43.2390 C   0  0  0  0  0  0  0  0  0  0  0  0
   38.2430   29.5530   41.9530 N   0  0  0  0  0  0  0  0  0  0  0  0
   38.3020   28.4440   41.1900 N   0  0  0  0  0  0  0  0  0  0  0  0
   37.9630   27.2300   44.1720 H   0  0  0  0  0  0  0  0  0  0  0  0
   38.0330   29.9300   44.0210 H   0  0  0  0  0  0  0  0  0  0  0  0
   39.3670   24.1200   40.7250 C   0  0  0  0  0  0  0  0  0  0  0  0
   38.2310   23.3080   40.8690 C   0  0  0  0  0  0  0  0  0  0  0  0
   37.0650   23.8960   41.4010 C   0  0  0  0  0  0  0  0  0  0  0  0
   37.0940   25.2130   41.7470 N   0  0  0  0  0  0  0  0  0  0  0  0
   38.2080   25.9630   41.5910 C   0  0  0  0  0  0  0  0  0  0  0  0
   39.3480   25.4270   41.0830 N   0  0  0  0  0  0  0  0  0  0  0  0
   40.3010   23.7640   40.3310 H   0  0  0  0  0  0  0  0  0  0  0  0
   38.2870   22.2790   40.5750 H   0  0  0  0  0  0  0  0  0  0  0  0
   36.1810   23.2870   41.5200 H   0  0  0  0  0  0  0  0  0  0  0  0
   35.7190   30.3110   40.3800 Br  0  0  0  0  0  0  0  0  0  0  0  0
   37.3070   31.3680   40.5990 C   0  0  0  0  0  0  0  0  0  0  0  0
   38.3330   30.8340   41.3530 C   0  0  0  0  0  0  0  0  0  0  0  0
   39.4740   31.5880   41.5140 C   0  0  0  0  0  0  0  0  0  0  0  0
   40.3180   31.2320   42.0910 H   0  0  0  0  0  0  0  0  0  0  0  0
   39.5530   32.8370   40.9240 C   0  0  0  0  0  0  0  0  0  0  0  0
   40.4540   33.4290   41.0540 H   0  0  0  0  0  0  0  0  0  0  0  0
   38.5440   33.3890   40.1710 C   0  0  0  0  0  3  0  0  0  0  0  0
   37.4040   32.6090   40.0230 C   0  0  0  0  0  3  0  0  0  0  0  0
  1  2  1  0  0  0  0
  2  6  1  0  0  0  0
  3  2  2  0  0  0  0
  3  7  1  0  0  0  0
  4  3  1  0  0  0  0
  5  4  1  0  0  0  0
  5  1  2  0  0  0  0
  8  9  2  0  0  0  0
  8 13  1  0  0  0  0
  9 10  1  0  0  0  0
 10 16  1  0  0  0  0
 10 11  2  0  0  0  0
 12 11  1  0  0  0  0
 12  1  1  0  0  0  0
 13 12  2  0  0  0  0
 14  8  1  0  0  0  0
 15  9  1  0  0  0  0
 17 18  1  0  0  0  0
 18 19  1  0  0  0  0
 19 20  2  0  0  0  0
 19  4  1  0  0  0  0
 20 21  1  0  0  0  0
 22 23  1  0  0  0  0
 22 20  1  0  0  0  0
 24 22  2  0  0  0  0
 25 24  1  0  0  0  0
 25 18  2  0  0  0  0
M  END
>  <minimizedAffinity>
-4.77486944

$$$$

 OpenBabel03242520033D

 25 27  0  0  0  0  0  0  0  0999 V2000
   39.9030   31.8980   39.6490 C   0  0  0  0  0  0  0  0  0  0  0  0
   38.8660   32.7980   39.9170 C   0  0  0  0  0  0  0  0  0  0  0  0
   37.9500   32.1530   40.6870 C   0  0  0  0  0  0  0  0  0  0  0  0
   38.4010   30.9060   40.8870 N   0  0  0  0  0  0  0  0  0  0  0  0
   39.5830   30.7550   40.2580 N   0  0  0  0  0  0  0  0  0  0  0  0
   38.8090   33.8220   39.5720 H   0  0  0  0  0  0  0  0  0  0  0  0
   37.0200   32.4900   41.1020 H   0  0  0  0  0  0  0  0  0  0  0  0
   42.2760   33.7030   37.5050 C   0  0  0  0  0  0  0  0  0  0  0  0
   43.3180   32.7760   37.3510 C   0  0  0  0  0  0  0  0  0  0  0  0
   43.1890   31.5280   37.9950 C   0  0  0  0  0  0  0  0  0  0  0  0
   42.0700   31.2820   38.7300 N   0  0  0  0  0  0  0  0  0  0  0  0
   41.0860   32.2010   38.8530 C   0  0  0  0  0  0  0  0  0  0  0  0
   41.1790   33.4130   38.2470 N   0  0  0  0  0  0  0  0  0  0  0  0
   42.2820   34.6790   37.0540 H   0  0  0  0  0  0  0  0  0  0  0  0
   44.1690   33.0440   36.7580 H   0  0  0  0  0  0  0  0  0  0  0  0
   43.9820   30.8020   37.8890 H   0  0  0  0  0  0  0  0  0  0  0  0
   36.1940   29.4470   39.3310 Br  0  0  0  0  0  0  0  0  0  0  0  0
   36.8300   29.0370   41.0960 C   0  0  0  0  0  0  0  0  0  0  0  0
   37.8390   29.8260   41.6120 C   0  0  0  0  0  0  0  0  0  0  0  0
   38.2990   29.5360   42.8770 C   0  0  0  0  0  0  0  0  0  0  0  0
   39.0870   30.1120   43.3460 H   0  0  0  0  0  0  0  0  0  0  0  0
   37.7440   28.4790   43.5780 C   0  0  0  0  0  0  0  0  0  0  0  0
   38.1100   28.2540   44.5750 H   0  0  0  0  0  0  0  0  0  0  0  0
   36.7410   27.6810   43.0830 C   0  0  0  0  0  3  0  0  0  0  0  0
   36.2930   27.9930   41.8060 C   0  0  0  0  0  3  0  0  0  0  0  0
  1  2  1  0  0  0  0
  1  5  2  0  0  0  0
  2  3  2  0  0  0  0
  3  4  1  0  0  0  0
  3  7  1  0  0  0  0
  4 19  1  0  0  0  0
  5  4  1  0  0  0  0
  6  2  1  0  0  0  0
  8 13  1  0  0  0  0
  9  8  2  0  0  0  0
  9 10  1  0  0  0  0
 10 11  2  0  0  0  0
 11 12  1  0  0  0  0
 12  1  1  0  0  0  0
 13 12  2  0  0  0  0
 14  8  1  0  0  0  0
 15  9  1  0  0  0  0
 16 10  1  0  0  0  0
 17 18  1  0  0  0  0
 18 19  2  0  0  0  0
 18 25  1  0  0  0  0
 19 20  1  0  0  0  0
 20 21  1  0  0  0  0
 20 22  2  0  0  0  0
 22 23  1  0  0  0  0
 24 22  1  0  0  0  0
 25 24  2  0  0  0  0
M  END
>  <minimizedAffinity>
-4.7471385

$$$$

 OpenBabel03242520033D

 25 27  0  0  0  0  0  0  0  0999 V2000
   38.4720   31.2110   39.6240 C   0  0  0  0  0  0  0  0  0  0  0  0
   37.1220   31.5370   39.7960 C   0  0  0  0  0  0  0  0  0  0  0  0
   36.4730   30.4100   40.1920 C   0  0  0  0  0  0  0  0  0  0  0  0
   37.3840   29.4270   40.2630 N   0  0  0  0  0  0  0  0  0  0  0  0
   38.5920   29.9150   39.9180 N   0  0  0  0  0  0  0  0  0  0  0  0
   36.6790   32.5120   39.6400 H   0  0  0  0  0  0  0  0  0  0  0  0
   35.4410   30.2390   40.4260 H   0  0  0  0  0  0  0  0  0  0  0  0
   40.7400   34.0990   39.6000 C   0  0  0  0  0  0  0  0  0  0  0  0
   41.4660   33.9100   38.4130 C   0  0  0  0  0  0  0  0  0  0  0  0
   41.1620   32.7780   37.6290 C   0  0  0  0  0  0  0  0  0  0  0  0
   40.1870   31.9280   38.0550 N   0  0  0  0  0  0  0  0  0  0  0  0
   39.5080   32.1450   39.2040 C   0  0  0  0  0  0  0  0  0  0  0  0
   39.7770   33.2250   39.9830 N   0  0  0  0  0  0  0  0  0  0  0  0
   40.8980   34.9290   40.2630 H   0  0  0  0  0  0  0  0  0  0  0  0
   42.2190   34.6220   38.1460 H   0  0  0  0  0  0  0  0  0  0  0  0
   41.7100   32.6150   36.7120 H   0  0  0  0  0  0  0  0  0  0  0  0
   38.0000   28.9040   43.2250 Br  0  0  0  0  0  0  0  0  0  0  0  0
   37.4750   27.6110   41.9050 C   0  0  0  0  0  0  0  0  0  0  0  0
   37.2450   28.0630   40.6210 C   0  0  0  0  0  0  0  0  0  0  0  0
   36.8680   27.1400   39.6720 C   0  0  0  0  0  0  0  0  0  0  0  0
   36.6710   27.4220   38.6450 H   0  0  0  0  0  0  0  0  0  0  0  0
   36.7340   25.8100   40.0300 C   0  0  0  0  0  0  0  0  0  0  0  0
   36.4360   25.0850   39.2790 H   0  0  0  0  0  0  0  0  0  0  0  0
   36.9570   25.3390   41.3020 C   0  0  0  0  0  3  0  0  0  0  0  0
   37.3360   26.2890   42.2420 C   0  0  0  0  0  3  0  0  0  0  0  0
  1  2  1  0  0  0  0
  1  5  2  0  0  0  0
  2  3  2  0  0  0  0
  3  4  1  0  0  0  0
  3  7  1  0  0  0  0
  4 19  1  0  0  0  0
  5  4  1  0  0  0  0
  6  2  1  0  0  0  0
  8 13  1  0  0  0  0
  8 14  1  0  0  0  0
  9  8  2  0  0  0  0
 10 11  2  0  0  0  0
 10  9  1  0  0  0  0
 11 12  1  0  0  0  0
 12  1  1  0  0  0  0
 12 13  2  0  0  0  0
 15  9  1  0  0  0  0
 16 10  1  0  0  0  0
 18 25  1  0  0  0  0
 18 17  1  0  0  0  0
 19 18  2  0  0  0  0
 20 22  2  0  0  0  0
 20 19  1  0  0  0  0
 21 20  1  0  0  0  0
 22 24  1  0  0  0  0
 23 22  1  0  0  0  0
 24 25  2  0  0  0  0
M  END
>  <minimizedAffinity>
-4.73613214

$$$$

 OpenBabel03242520033D

 25 27  0  0  0  0  0  0  0  0999 V2000
   37.3200   26.6310   41.5000 C   0  0  0  0  0  0  0  0  0  0  0  0
   36.9500   26.9680   42.8070 C   0  0  0  0  0  0  0  0  0  0  0  0
   37.0530   28.3170   42.9290 C   0  0  0  0  0  0  0  0  0  0  0  0
   37.4710   28.7960   41.7470 N   0  0  0  0  0  0  0  0  0  0  0  0
   37.6320   27.7730   40.8850 N   0  0  0  0  0  0  0  0  0  0  0  0
   36.6370   26.2740   43.5760 H   0  0  0  0  0  0  0  0  0  0  0  0
   36.8620   28.9630   43.7630 H   0  0  0  0  0  0  0  0  0  0  0  0
   36.3910   23.6390   39.5840 C   0  0  0  0  0  0  0  0  0  0  0  0
   37.3880   22.7200   39.9460 C   0  0  0  0  0  0  0  0  0  0  0  0
   38.3780   23.1470   40.8550 C   0  0  0  0  0  0  0  0  0  0  0  0
   38.3220   24.4200   41.3340 N   0  0  0  0  0  0  0  0  0  0  0  0
   37.3440   25.2760   40.9630 C   0  0  0  0  0  0  0  0  0  0  0  0
   36.3760   24.8970   40.0890 N   0  0  0  0  0  0  0  0  0  0  0  0
   35.5950   23.4080   38.9000 H   0  0  0  0  0  0  0  0  0  0  0  0
   37.3650   21.7350   39.5240 H   0  0  0  0  0  0  0  0  0  0  0  0
   39.1540   22.4540   41.1450 H   0  0  0  0  0  0  0  0  0  0  0  0
   40.3310   29.6940   42.4070 Br  0  0  0  0  0  0  0  0  0  0  0  0
   38.9670   30.7250   41.5330 C   0  0  0  0  0  0  0  0  0  0  0  0
   37.7400   30.1240   41.3330 C   0  0  0  0  0  0  0  0  0  0  0  0
   36.7580   30.8590   40.7060 C   0  0  0  0  0  0  0  0  0  0  0  0
   35.7720   30.4530   40.5160 H   0  0  0  0  0  0  0  0  0  0  0  0
   37.0300   32.1550   40.3040 C   0  0  0  0  0  0  0  0  0  0  0  0
   36.2530   32.7310   39.8100 H   0  0  0  0  0  0  0  0  0  0  0  0
   38.2430   32.7720   40.4930 C   0  0  0  0  0  3  0  0  0  0  0  0
   39.2170   32.0110   41.1270 C   0  0  0  0  0  3  0  0  0  0  0  0
  1  2  1  0  0  0  0
  2  3  2  0  0  0  0
  2  6  1  0  0  0  0
  3  7  1  0  0  0  0
  4  3  1  0  0  0  0
  5  1  2  0  0  0  0
  5  4  1  0  0  0  0
  8  9  2  0  0  0  0
  8 13  1  0  0  0  0
  9 10  1  0  0  0  0
 10 16  1  0  0  0  0
 10 11  2  0  0  0  0
 12 11  1  0  0  0  0
 12  1  1  0  0  0  0
 13 12  2  0  0  0  0
 14  8  1  0  0  0  0
 15  9  1  0  0  0  0
 18 17  1  0  0  0  0
 19 18  1  0  0  0  0
 19  4  1  0  0  0  0
 20 19  2  0  0  0  0
 21 20  1  0  0  0  0
 22 24  2  0  0  0  0
 22 20  1  0  0  0  0
 23 22  1  0  0  0  0
 24 25  1  0  0  0  0
 25 18  2  0  0  0  0
M  END
>  <minimizedAffinity>
-4.67222691

$$$$

 OpenBabel03242520033D

 25 27  0  0  0  0  0  0  0  0999 V2000
   39.9440   29.6040   41.3430 C   0  0  0  0  0  0  0  0  0  0  0  0
   40.5580   29.3100   42.5660 C   0  0  0  0  0  0  0  0  0  0  0  0
   40.2180   28.0380   42.9030 C   0  0  0  0  0  0  0  0  0  0  0  0
   39.4270   27.5630   41.9300 N   0  0  0  0  0  0  0  0  0  0  0  0
   39.2620   28.5130   40.9870 N   0  0  0  0  0  0  0  0  0  0  0  0
   41.1890   29.9800   43.1360 H   0  0  0  0  0  0  0  0  0  0  0  0
   40.4800   27.4440   43.7570 H   0  0  0  0  0  0  0  0  0  0  0  0
   39.6690   32.1450   38.7080 C   0  0  0  0  0  0  0  0  0  0  0  0
   40.2760   33.2660   39.2970 C   0  0  0  0  0  0  0  0  0  0  0  0
   40.7760   33.1300   40.6080 C   0  0  0  0  0  0  0  0  0  0  0  0
   40.6490   31.9290   41.2370 N   0  0  0  0  0  0  0  0  0  0  0  0
   40.0600   30.8720   40.6350 C   0  0  0  0  0  0  0  0  0  0  0  0
   39.5660   30.9690   39.3730 N   0  0  0  0  0  0  0  0  0  0  0  0
   39.2590   32.1500   37.7140 H   0  0  0  0  0  0  0  0  0  0  0  0
   40.3370   34.1780   38.7380 H   0  0  0  0  0  0  0  0  0  0  0  0
   41.2460   33.9820   41.0780 H   0  0  0  0  0  0  0  0  0  0  0  0
   36.6680   27.4440   43.2720 Br  0  0  0  0  0  0  0  0  0  0  0  0
   37.5510   26.0340   42.3120 C   0  0  0  0  0  0  0  0  0  0  0  0
   38.7980   26.3020   41.7840 C   0  0  0  0  0  0  0  0  0  0  0  0
   39.4350   25.2940   41.0950 C   0  0  0  0  0  0  0  0  0  0  0  0
   40.4140   25.4320   40.6540 H   0  0  0  0  0  0  0  0  0  0  0  0
   38.8140   24.0650   40.9580 C   0  0  0  0  0  0  0  0  0  0  0  0
   39.3200   23.2730   40.4130 H   0  0  0  0  0  0  0  0  0  0  0  0
   37.5730   23.7770   41.4750 C   0  0  0  0  0  3  0  0  0  0  0  0
   36.9510   24.8090   42.1650 C   0  0  0  0  0  3  0  0  0  0  0  0
  1  2  1  0  0  0  0
  2  3  2  0  0  0  0
  2  6  1  0  0  0  0
  3  7  1  0  0  0  0
  4  3  1  0  0  0  0
  5  1  2  0  0  0  0
  5  4  1  0  0  0  0
  8  9  2  0  0  0  0
  8 13  1  0  0  0  0
  9 10  1  0  0  0  0
 10 16  1  0  0  0  0
 10 11  2  0  0  0  0
 12 11  1  0  0  0  0
 12  1  1  0  0  0  0
 13 12  2  0  0  0  0
 14  8  1  0  0  0  0
 15  9  1  0  0  0  0
 18 17  1  0  0  0  0
 19  4  1  0  0  0  0
 19 18  2  0  0  0  0
 20 19  1  0  0  0  0
 21 20  1  0  0  0  0
 22 20  2  0  0  0  0
 22 24  1  0  0  0  0
 23 22  1  0  0  0  0
 24 25  2  0  0  0  0
 25 18  1  0  0  0  0
M  END
>  <minimizedAffinity>
-4.6230998

$$$$
