
 OpenBabel03242515103D

 36 38  0  0  0  0  0  0  0  0999 V2000
   45.7810   34.1010   44.9860 C   0  0  0  0  0  0  0  0  0  0  0  0
   44.8040   35.0370   45.2020 C   0  0  0  0  0  0  0  0  0  0  0  0
   44.4820   36.0490   44.3290 C   0  0  0  0  0  0  0  0  0  0  0  0
   45.1850   36.1330   43.1520 C   0  0  0  0  0  0  0  0  0  0  0  0
   46.1750   35.2130   42.8920 C   0  0  0  0  0  0  0  0  0  0  0  0
   46.4640   34.2080   43.8090 C   0  0  0  0  0  0  0  0  0  0  0  0
   44.2320   34.9990   46.1210 H   0  0  0  0  0  0  0  0  0  0  0  0
   43.7110   36.7870   44.5010 H   0  0  0  0  0  0  0  0  0  0  0  0
   44.9570   36.9210   42.4340 H   0  0  0  0  0  0  0  0  0  0  0  0
   46.6950   35.3290   41.9500 H   0  0  0  0  0  0  0  0  0  0  0  0
   47.2930   31.1180   46.4680 C   0  0  0  0  0  0  0  0  0  0  0  0
   46.6880   31.0350   47.7210 C   0  0  0  0  0  0  0  0  0  0  0  0
   45.7490   32.0150   48.0650 C   0  0  0  0  0  0  0  0  0  0  0  0
   45.4520   33.0110   47.1790 N   0  0  0  0  0  0  0  0  0  0  0  0
   46.0670   33.0600   45.9560 C   0  0  0  0  0  0  0  0  0  0  0  0
   46.9680   32.1110   45.6400 N   0  0  0  0  0  0  0  0  0  0  0  0
   48.0270   30.3860   46.1520 H   0  0  0  0  0  0  0  0  0  0  0  0
   46.9390   30.2340   48.4100 H   0  0  0  0  0  0  0  0  0  0  0  0
   45.2530   31.9910   49.0290 H   0  0  0  0  0  0  0  0  0  0  0  0
   47.4990   33.3460   43.4040 N   0  0  0  0  0  0  0  0  0  0  0  0
   47.2870   32.3470   43.6550 H   0  0  0  0  0  0  0  0  0  0  0  0
   48.9870   33.5980   42.6090 S   0  0  0  0  0  0  0  0  0  0  0  0
   48.7040   33.9890   41.1660 O   0  0  0  0  0  0  0  0  0  0  0  0
   49.3040   34.4540   40.5540 H   0  0  0  0  0  0  0  0  0  0  0  0
   49.8350   34.6660   43.2160 O   0  0  0  0  0  0  0  0  0  0  0  0
   49.5890   34.9900   44.1420 H   0  0  0  0  0  0  0  0  0  0  0  0
   49.7840   32.1150   42.5390 O   0  0  0  0  0  0  0  0  0  0  0  0
   47.7270   30.4400   40.8980 Br  0  0  0  0  0  0  0  0  0  0  0  0
   49.5240   30.8150   40.4150 C   0  0  0  0  0  0  0  0  0  0  0  0
   50.2080   31.5840   41.3340 C   0  0  0  0  0  0  0  0  0  0  0  0
   51.5390   31.9300   41.0990 C   0  0  0  0  0  0  0  0  0  0  0  0
   52.1880   32.5210   41.7260 H   0  0  0  0  0  0  0  0  0  0  0  0
   52.1980   31.5100   39.9400 C   0  0  0  0  0  0  0  0  0  0  0  0
   53.2170   31.7380   39.6940 H   0  0  0  0  0  0  0  0  0  0  0  0
   51.4880   30.7360   39.0280 C   0  0  0  0  0  3  0  0  0  0  0  0
   50.1740   30.4000   39.2710 C   0  0  0  0  0  3  0  0  0  0  0  0
  1  2  1  0  0  0  0
  1 15  1  0  0  0  0
  2  7  1  0  0  0  0
  3  8  1  0  0  0  0
  3  2  2  0  0  0  0
  4  3  1  0  0  0  0
  5  4  2  0  0  0  0
  5  6  1  0  0  0  0
  6  1  2  0  0  0  0
  9  4  1  0  0  0  0
 10  5  1  0  0  0  0
 11 12  1  0  0  0  0
 12 13  2  0  0  0  0
 12 18  1  0  0  0  0
 13 19  1  0  0  0  0
 14 13  1  0  0  0  0
 15 14  2  0  0  0  0
 16 15  1  0  0  0  0
 16 11  2  0  0  0  0
 17 11  1  0  0  0  0
 20 21  1  0  0  0  0
 20  6  1  0  0  0  0
 22 25  1  0  0  0  0
 22 20  1  0  0  0  0
 23 22  1  0  0  0  0
 24 23  1  0  0  0  0
 25 26  1  0  0  0  0
 27 22  1  0  0  0  0
 29 28  1  0  0  0  0
 29 30  1  0  0  0  0
 30 27  1  0  0  0  0
 31 30  2  0  0  0  0
 31 32  1  0  0  0  0
 33 31  1  0  0  0  0
 34 33  1  0  0  0  0
 35 36  1  0  0  0  0
 35 33  2  0  0  0  0
 36 29  2  0  0  0  0
M  END
>  <minimizedAffinity>
-5.76585674

>  <minimizedRMSD>
1.85207927

$$$$
