
 OpenBabel03252504543D

 21 22  0  0  0  0  0  0  0  0999 V2000
   46.6090   34.9690   42.0100 C   0  0  0  0  0  0  0  0  0  0  0  0
   47.5460   34.3560   42.1050 H   0  0  0  0  0  0  0  0  0  0  0  0
   46.8420   36.0160   41.7390 H   0  0  0  0  0  0  0  0  0  0  0  0
   44.4960   35.9890   44.8940 C   0  0  0  0  0  0  0  0  0  0  0  0
   45.1140   36.0290   43.6290 C   0  0  0  0  0  0  0  0  0  0  0  0
   45.9540   34.9560   43.3210 C   0  0  0  0  0  0  0  0  0  0  0  0
   46.1310   33.9530   44.2340 N   0  0  0  0  0  0  0  0  0  0  0  0
   45.5080   33.9730   45.4330 C   0  0  0  0  0  0  0  0  0  0  0  0
   44.6970   34.9870   45.7570 N   0  0  0  0  0  0  0  0  0  0  0  0
   43.8370   36.8130   45.1590 H   0  0  0  0  0  0  0  0  0  0  0  0
   44.9450   36.8470   42.9350 H   0  0  0  0  0  0  0  0  0  0  0  0
   45.7800   33.0880   46.0050 H   0  0  0  0  0  0  0  0  0  0  0  0
   48.3400   33.3640   39.9200 Br  0  0  0  0  0  0  0  0  0  0  0  0
   46.4390   33.6200   39.9930 C   0  0  0  0  0  0  0  0  0  0  0  0
   45.7550   34.3560   40.9560 C   0  0  0  0  0  0  0  0  0  0  0  0
   44.3900   34.4560   40.8770 C   0  0  0  0  0  0  0  0  0  0  0  0
   43.8890   35.0360   41.6440 H   0  0  0  0  0  0  0  0  0  0  0  0
   43.7400   33.8150   39.8330 C   0  0  0  0  0  0  0  0  0  0  0  0
   42.6560   33.9090   39.7950 H   0  0  0  0  0  0  0  0  0  0  0  0
   44.3880   33.0830   38.8700 C   0  0  0  0  0  3  0  0  0  0  0  0
   45.7740   32.9820   38.9490 C   0  0  0  0  0  3  0  0  0  0  0  0
  1  2  1  0  0  0  0
  1  6  1  0  0  0  0
  3  1  1  0  0  0  0
  4 10  1  0  0  0  0
  4  9  1  0  0  0  0
  5  4  2  0  0  0  0
  6  5  1  0  0  0  0
  6  7  2  0  0  0  0
  7  8  1  0  0  0  0
  8  9  2  0  0  0  0
  8 12  1  0  0  0  0
 11  5  1  0  0  0  0
 13 14  1  0  0  0  0
 14 15  1  0  0  0  0
 15  1  1  0  0  0  0
 16 15  2  0  0  0  0
 16 17  1  0  0  0  0
 18 16  1  0  0  0  0
 19 18  1  0  0  0  0
 20 21  1  0  0  0  0
 20 18  2  0  0  0  0
 21 14  2  0  0  0  0
M  END
>  <minimizedAffinity>
-4.28252077

>  <minimizedRMSD>
0.663432598

$$$$
