
 OpenBabel03242523293D

 21 22  0  0  0  0  0  0  0  0999 V2000
   36.2050   30.7590   40.9280 C   0  0  0  0  0  0  0  0  0  0  0  0
   36.4320   31.7360   41.4490 H   0  0  0  0  0  0  0  0  0  0  0  0
   35.1160   30.6360   41.0210 H   0  0  0  0  0  0  0  0  0  0  0  0
   37.0970   27.6130   42.7330 C   0  0  0  0  0  0  0  0  0  0  0  0
   38.3890   27.8980   43.1830 C   0  0  0  0  0  0  0  0  0  0  0  0
   38.9240   29.1400   42.8660 C   0  0  0  0  0  0  0  0  0  0  0  0
   38.1860   30.0230   42.1430 N   0  0  0  0  0  0  0  0  0  0  0  0
   36.9190   29.7100   41.7160 C   0  0  0  0  0  0  0  0  0  0  0  0
   36.4100   28.5050   42.0260 N   0  0  0  0  0  0  0  0  0  0  0  0
   36.5980   26.6600   42.9360 H   0  0  0  0  0  0  0  0  0  0  0  0
   38.9110   27.1410   43.7550 H   0  0  0  0  0  0  0  0  0  0  0  0
   39.9160   29.3820   43.2010 H   0  0  0  0  0  0  0  0  0  0  0  0
   37.8410   33.2620   39.9080 Br  0  0  0  0  0  0  0  0  0  0  0  0
   37.2960   31.7450   38.8520 C   0  0  0  0  0  0  0  0  0  0  0  0
   36.5850   30.7680   39.5140 C   0  0  0  0  0  0  0  0  0  0  0  0
   36.2110   29.6880   38.7060 C   0  0  0  0  0  0  0  0  0  0  0  0
   35.6430   28.8780   39.1860 H   0  0  0  0  0  0  0  0  0  0  0  0
   36.5170   29.5910   37.3650 C   0  0  0  0  0  0  0  0  0  0  0  0
   36.1760   28.7060   36.8430 H   0  0  0  0  0  0  0  0  0  0  0  0
   37.2290   30.6080   36.7790 C   0  0  0  0  0  3  0  0  0  0  0  0
   37.6330   31.7110   37.5170 C   0  0  0  0  0  3  0  0  0  0  0  0
  1  3  1  0  0  0  0
  1  2  1  0  0  0  0
  1  8  1  0  0  0  0
  4 10  1  0  0  0  0
  4  5  1  0  0  0  0
  5 11  1  0  0  0  0
  6  5  2  0  0  0  0
  6 12  1  0  0  0  0
  7  6  1  0  0  0  0
  8  9  1  0  0  0  0
  8  7  2  0  0  0  0
  9  4  2  0  0  0  0
 14 15  1  0  0  0  0
 14 13  1  0  0  0  0
 15  1  1  0  0  0  0
 16 17  1  0  0  0  0
 16 15  2  0  0  0  0
 18 16  1  0  0  0  0
 19 18  1  0  0  0  0
 20 18  2  0  0  0  0
 20 21  1  0  0  0  0
 21 14  2  0  0  0  0
M  END
>  <minimizedAffinity>
-4.59618282

$$$$

 OpenBabel03242523293D

 21 22  0  0  0  0  0  0  0  0999 V2000
   36.7460   27.3520   42.8610 C   0  0  0  0  0  0  0  0  0  0  0  0
   35.8870   26.6310   42.7130 H   0  0  0  0  0  0  0  0  0  0  0  0
   36.5300   27.8550   43.8140 H   0  0  0  0  0  0  0  0  0  0  0  0
   36.2560   28.9050   39.4990 C   0  0  0  0  0  0  0  0  0  0  0  0
   36.5460   30.2480   39.7590 C   0  0  0  0  0  0  0  0  0  0  0  0
   36.8970   30.5920   41.0590 C   0  0  0  0  0  0  0  0  0  0  0  0
   36.9480   29.6290   42.0170 N   0  0  0  0  0  0  0  0  0  0  0  0
   36.6560   28.3190   41.7260 C   0  0  0  0  0  0  0  0  0  0  0  0
   36.3170   27.9960   40.4670 N   0  0  0  0  0  0  0  0  0  0  0  0
   35.9710   28.5450   38.5050 H   0  0  0  0  0  0  0  0  0  0  0  0
   36.4830   30.9530   38.9410 H   0  0  0  0  0  0  0  0  0  0  0  0
   37.1230   31.6190   41.2830 H   0  0  0  0  0  0  0  0  0  0  0  0
   36.9340   24.4650   41.5900 Br  0  0  0  0  0  0  0  0  0  0  0  0
   38.3620   25.4290   42.4530 C   0  0  0  0  0  0  0  0  0  0  0  0
   38.0450   26.6800   42.9360 C   0  0  0  0  0  0  0  0  0  0  0  0
   39.1120   27.3400   43.5540 C   0  0  0  0  0  0  0  0  0  0  0  0
   38.9130   28.3450   43.9570 H   0  0  0  0  0  0  0  0  0  0  0  0
   40.3770   26.8050   43.6800 C   0  0  0  0  0  0  0  0  0  0  0  0
   41.1230   27.4110   44.1760 H   0  0  0  0  0  0  0  0  0  0  0  0
   40.6120   25.5510   43.1720 C   0  0  0  0  0  3  0  0  0  0  0  0
   39.6010   24.8360   42.5460 C   0  0  0  0  0  3  0  0  0  0  0  0
  1 15  1  0  0  0  0
  1  3  1  0  0  0  0
  2  1  1  0  0  0  0
  4  5  2  0  0  0  0
  4  9  1  0  0  0  0
  5  6  1  0  0  0  0
  6 12  1  0  0  0  0
  6  7  2  0  0  0  0
  8  7  1  0  0  0  0
  8  1  1  0  0  0  0
  9  8  2  0  0  0  0
 10  4  1  0  0  0  0
 11  5  1  0  0  0  0
 13 14  1  0  0  0  0
 14 21  2  0  0  0  0
 14 15  1  0  0  0  0
 15 16  2  0  0  0  0
 16 18  1  0  0  0  0
 16 17  1  0  0  0  0
 18 19  1  0  0  0  0
 20 18  2  0  0  0  0
 21 20  1  0  0  0  0
M  END
>  <minimizedAffinity>
-4.51346588

$$$$

 OpenBabel03242523293D

 21 22  0  0  0  0  0  0  0  0999 V2000
   35.5860   28.9090   40.8350 C   0  0  0  0  0  0  0  0  0  0  0  0
   35.0120   28.3890   40.0110 H   0  0  0  0  0  0  0  0  0  0  0  0
   34.8190   29.2290   41.5540 H   0  0  0  0  0  0  0  0  0  0  0  0
   37.1310   32.2500   40.2000 C   0  0  0  0  0  0  0  0  0  0  0  0
   37.3980   32.1870   38.8300 C   0  0  0  0  0  0  0  0  0  0  0  0
   37.0510   31.0210   38.1580 C   0  0  0  0  0  0  0  0  0  0  0  0
   36.4720   29.9990   38.8430 N   0  0  0  0  0  0  0  0  0  0  0  0
   36.2250   30.0960   40.1900 C   0  0  0  0  0  0  0  0  0  0  0  0
   36.5650   31.2270   40.8320 N   0  0  0  0  0  0  0  0  0  0  0  0
   37.3710   33.1290   40.8080 H   0  0  0  0  0  0  0  0  0  0  0  0
   37.8600   33.0440   38.3570 H   0  0  0  0  0  0  0  0  0  0  0  0
   37.2470   30.9490   37.1040 H   0  0  0  0  0  0  0  0  0  0  0  0
   36.5060   26.3440   39.2360 Br  0  0  0  0  0  0  0  0  0  0  0  0
   37.0930   26.8660   40.9950 C   0  0  0  0  0  0  0  0  0  0  0  0
   36.5520   28.0300   41.4960 C   0  0  0  0  0  0  0  0  0  0  0  0
   37.0080   28.3670   42.7760 C   0  0  0  0  0  0  0  0  0  0  0  0
   36.6080   29.2900   43.2220 H   0  0  0  0  0  0  0  0  0  0  0  0
   37.9170   27.6160   43.4890 C   0  0  0  0  0  0  0  0  0  0  0  0
   38.1970   27.9780   44.4700 H   0  0  0  0  0  0  0  0  0  0  0  0
   38.4090   26.4670   42.9200 C   0  0  0  0  0  3  0  0  0  0  0  0
   38.0030   26.0690   41.6550 C   0  0  0  0  0  3  0  0  0  0  0  0
  1 15  1  0  0  0  0
  1  3  1  0  0  0  0
  2  1  1  0  0  0  0
  4 10  1  0  0  0  0
  4  9  1  0  0  0  0
  5  4  2  0  0  0  0
  6  5  1  0  0  0  0
  6  7  2  0  0  0  0
  7  8  1  0  0  0  0
  8  9  2  0  0  0  0
  8  1  1  0  0  0  0
 11  5  1  0  0  0  0
 12  6  1  0  0  0  0
 13 14  1  0  0  0  0
 14 15  2  0  0  0  0
 14 21  1  0  0  0  0
 15 16  1  0  0  0  0
 16 17  1  0  0  0  0
 16 18  2  0  0  0  0
 18 19  1  0  0  0  0
 20 18  1  0  0  0  0
 21 20  2  0  0  0  0
M  END
>  <minimizedAffinity>
-4.50729799

$$$$

 OpenBabel03242523293D

 21 22  0  0  0  0  0  0  0  0999 V2000
   35.3180   29.1700   40.4110 C   0  0  0  0  0  0  0  0  0  0  0  0
   34.5860   29.5290   41.1940 H   0  0  0  0  0  0  0  0  0  0  0  0
   34.6910   28.7370   39.6180 H   0  0  0  0  0  0  0  0  0  0  0  0
   37.1570   27.1020   42.9190 C   0  0  0  0  0  0  0  0  0  0  0  0
   37.6410   26.0560   42.1280 C   0  0  0  0  0  0  0  0  0  0  0  0
   37.3340   26.0770   40.7740 C   0  0  0  0  0  0  0  0  0  0  0  0
   36.5880   27.0950   40.2700 N   0  0  0  0  0  0  0  0  0  0  0  0
   36.1280   28.1060   41.0760 C   0  0  0  0  0  0  0  0  0  0  0  0
   36.4290   28.0780   42.3860 N   0  0  0  0  0  0  0  0  0  0  0  0
   37.3510   27.1670   43.9950 H   0  0  0  0  0  0  0  0  0  0  0  0
   38.2290   25.2830   42.6050 H   0  0  0  0  0  0  0  0  0  0  0  0
   37.6950   25.2820   40.1450 H   0  0  0  0  0  0  0  0  0  0  0  0
   35.8460   29.1160   37.2960 Br  0  0  0  0  0  0  0  0  0  0  0  0
   36.4950   30.4340   38.5420 C   0  0  0  0  0  0  0  0  0  0  0  0
   36.1380   30.2520   39.8610 C   0  0  0  0  0  0  0  0  0  0  0  0
   36.6330   31.2320   40.7280 C   0  0  0  0  0  0  0  0  0  0  0  0
   36.3750   31.1350   41.7930 H   0  0  0  0  0  0  0  0  0  0  0  0
   37.4110   32.2950   40.3200 C   0  0  0  0  0  0  0  0  0  0  0  0
   37.7350   32.9910   41.0810 H   0  0  0  0  0  0  0  0  0  0  0  0
   37.7250   32.4050   38.9870 C   0  0  0  0  0  3  0  0  0  0  0  0
   37.2690   31.4710   38.0690 C   0  0  0  0  0  3  0  0  0  0  0  0
  1  8  1  0  0  0  0
  1  2  1  0  0  0  0
  3  1  1  0  0  0  0
  4 10  1  0  0  0  0
  5 11  1  0  0  0  0
  5  4  2  0  0  0  0
  6  5  1  0  0  0  0
  7  6  2  0  0  0  0
  7  8  1  0  0  0  0
  8  9  2  0  0  0  0
  9  4  1  0  0  0  0
 12  6  1  0  0  0  0
 13 14  1  0  0  0  0
 14 15  1  0  0  0  0
 15  1  1  0  0  0  0
 15 16  2  0  0  0  0
 16 17  1  0  0  0  0
 18 16  1  0  0  0  0
 18 19  1  0  0  0  0
 20 18  2  0  0  0  0
 21 14  2  0  0  0  0
 21 20  1  0  0  0  0
M  END
>  <minimizedAffinity>
-4.46934462

$$$$

 OpenBabel03242523293D

 21 22  0  0  0  0  0  0  0  0999 V2000
   35.9500   30.3590   40.8970 C   0  0  0  0  0  0  0  0  0  0  0  0
   35.7980   31.2930   41.5150 H   0  0  0  0  0  0  0  0  0  0  0  0
   34.9430   29.9360   40.7730 H   0  0  0  0  0  0  0  0  0  0  0  0
   38.6710   28.9600   43.0400 C   0  0  0  0  0  0  0  0  0  0  0  0
   38.2270   27.6510   43.2480 C   0  0  0  0  0  0  0  0  0  0  0  0
   37.0240   27.2770   42.6620 C   0  0  0  0  0  0  0  0  0  0  0  0
   36.3310   28.1790   41.9170 N   0  0  0  0  0  0  0  0  0  0  0  0
   36.7970   29.4570   41.7340 C   0  0  0  0  0  0  0  0  0  0  0  0
   37.9620   29.8110   42.3050 N   0  0  0  0  0  0  0  0  0  0  0  0
   39.6060   29.3400   43.4630 H   0  0  0  0  0  0  0  0  0  0  0  0
   38.8370   26.9930   43.8530 H   0  0  0  0  0  0  0  0  0  0  0  0
   36.6620   26.2750   42.8090 H   0  0  0  0  0  0  0  0  0  0  0  0
   34.9730   28.5610   38.4900 Br  0  0  0  0  0  0  0  0  0  0  0  0
   36.2640   29.9880   38.3990 C   0  0  0  0  0  0  0  0  0  0  0  0
   36.5370   30.6370   39.5840 C   0  0  0  0  0  0  0  0  0  0  0  0
   37.4800   31.6640   39.4680 C   0  0  0  0  0  0  0  0  0  0  0  0
   37.7340   32.2160   40.3860 H   0  0  0  0  0  0  0  0  0  0  0  0
   38.0940   32.0120   38.2840 C   0  0  0  0  0  0  0  0  0  0  0  0
   38.8060   32.8260   38.3170 H   0  0  0  0  0  0  0  0  0  0  0  0
   37.7670   31.3160   37.1460 C   0  0  0  0  0  3  0  0  0  0  0  0
   36.8410   30.2850   37.1840 C   0  0  0  0  0  3  0  0  0  0  0  0
  1  2  1  0  0  0  0
  1  8  1  0  0  0  0
  3  1  1  0  0  0  0
  4  5  1  0  0  0  0
  4 10  1  0  0  0  0
  5 11  1  0  0  0  0
  6 12  1  0  0  0  0
  6  5  2  0  0  0  0
  7  6  1  0  0  0  0
  8  7  2  0  0  0  0
  8  9  1  0  0  0  0
  9  4  2  0  0  0  0
 14 13  1  0  0  0  0
 14 15  1  0  0  0  0
 15  1  1  0  0  0  0
 16 15  2  0  0  0  0
 16 17  1  0  0  0  0
 18 19  1  0  0  0  0
 18 16  1  0  0  0  0
 20 21  1  0  0  0  0
 20 18  2  0  0  0  0
 21 14  2  0  0  0  0
M  END
>  <minimizedAffinity>
-4.44939566

$$$$

 OpenBabel03242523293D

 21 22  0  0  0  0  0  0  0  0999 V2000
   38.0110   28.4320   43.2100 C   0  0  0  0  0  0  0  0  0  0  0  0
   37.1670   28.6630   43.9260 H   0  0  0  0  0  0  0  0  0  0  0  0
   38.9200   28.7720   43.7270 H   0  0  0  0  0  0  0  0  0  0  0  0
   36.4670   30.7210   40.6930 C   0  0  0  0  0  0  0  0  0  0  0  0
   37.4520   30.7630   39.7030 C   0  0  0  0  0  0  0  0  0  0  0  0
   38.6080   30.0200   39.9100 C   0  0  0  0  0  0  0  0  0  0  0  0
   38.7410   29.2890   41.0480 N   0  0  0  0  0  0  0  0  0  0  0  0
   37.7530   29.2710   42.0010 C   0  0  0  0  0  0  0  0  0  0  0  0
   36.6380   29.9930   41.7930 N   0  0  0  0  0  0  0  0  0  0  0  0
   35.5260   31.2740   40.6130 H   0  0  0  0  0  0  0  0  0  0  0  0
   37.2700   31.3680   38.8240 H   0  0  0  0  0  0  0  0  0  0  0  0
   39.3800   30.0370   39.1610 H   0  0  0  0  0  0  0  0  0  0  0  0
   40.8290   27.0830   43.6780 Br  0  0  0  0  0  0  0  0  0  0  0  0
   39.2390   26.2110   43.0280 C   0  0  0  0  0  0  0  0  0  0  0  0
   38.1190   27.0050   42.9010 C   0  0  0  0  0  0  0  0  0  0  0  0
   36.9910   26.3290   42.4250 C   0  0  0  0  0  0  0  0  0  0  0  0
   36.0680   26.9160   42.3070 H   0  0  0  0  0  0  0  0  0  0  0  0
   36.9780   24.9870   42.1050 C   0  0  0  0  0  0  0  0  0  0  0  0
   36.0450   24.5730   41.7480 H   0  0  0  0  0  0  0  0  0  0  0  0
   38.1360   24.2650   42.2590 C   0  0  0  0  0  3  0  0  0  0  0  0
   39.2940   24.8680   42.7260 C   0  0  0  0  0  3  0  0  0  0  0  0
  1  3  1  0  0  0  0
  1  2  1  0  0  0  0
  4  9  1  0  0  0  0
  5  6  1  0  0  0  0
  5  4  2  0  0  0  0
  6  7  2  0  0  0  0
  7  8  1  0  0  0  0
  8  1  1  0  0  0  0
  9  8  2  0  0  0  0
 10  4  1  0  0  0  0
 11  5  1  0  0  0  0
 12  6  1  0  0  0  0
 14 13  1  0  0  0  0
 15 14  1  0  0  0  0
 15  1  1  0  0  0  0
 16 15  2  0  0  0  0
 17 16  1  0  0  0  0
 18 20  2  0  0  0  0
 18 16  1  0  0  0  0
 19 18  1  0  0  0  0
 20 21  1  0  0  0  0
 21 14  2  0  0  0  0
M  END
>  <minimizedAffinity>
-4.40966988

$$$$

 OpenBabel03242523293D

 21 22  0  0  0  0  0  0  0  0999 V2000
   39.3950   29.8170   40.9220 C   0  0  0  0  0  0  0  0  0  0  0  0
   40.2620   30.1520   41.5660 H   0  0  0  0  0  0  0  0  0  0  0  0
   39.8610   29.3100   40.0650 H   0  0  0  0  0  0  0  0  0  0  0  0
   37.1110   32.2730   39.2780 C   0  0  0  0  0  0  0  0  0  0  0  0
   37.5900   33.4880   39.7780 C   0  0  0  0  0  0  0  0  0  0  0  0
   38.6670   33.4450   40.6540 C   0  0  0  0  0  0  0  0  0  0  0  0
   39.2120   32.2470   40.9900 N   0  0  0  0  0  0  0  0  0  0  0  0
   38.7160   31.0720   40.4800 C   0  0  0  0  0  0  0  0  0  0  0  0
   37.6730   31.1220   39.6340 N   0  0  0  0  0  0  0  0  0  0  0  0
   36.2680   32.2130   38.5830 H   0  0  0  0  0  0  0  0  0  0  0  0
   37.1020   34.4000   39.4610 H   0  0  0  0  0  0  0  0  0  0  0  0
   39.0520   34.3670   41.0520 H   0  0  0  0  0  0  0  0  0  0  0  0
   38.4360   27.2770   39.3060 Br  0  0  0  0  0  0  0  0  0  0  0  0
   37.9540   27.7290   41.1160 C   0  0  0  0  0  0  0  0  0  0  0  0
   38.4950   28.8940   41.6160 C   0  0  0  0  0  0  0  0  0  0  0  0
   38.1150   29.1810   42.9320 C   0  0  0  0  0  0  0  0  0  0  0  0
   38.5210   30.1000   43.3800 H   0  0  0  0  0  0  0  0  0  0  0  0
   37.2760   28.3830   43.6800 C   0  0  0  0  0  0  0  0  0  0  0  0
   37.0550   28.7070   44.6880 H   0  0  0  0  0  0  0  0  0  0  0  0
   36.7770   27.2380   43.1080 C   0  0  0  0  0  3  0  0  0  0  0  0
   37.1100   26.8890   41.8080 C   0  0  0  0  0  3  0  0  0  0  0  0
  1  2  1  0  0  0  0
  1 15  1  0  0  0  0
  3  1  1  0  0  0  0
  4  9  2  0  0  0  0
  4  5  1  0  0  0  0
  5  6  2  0  0  0  0
  6  7  1  0  0  0  0
  6 12  1  0  0  0  0
  8  1  1  0  0  0  0
  8  7  2  0  0  0  0
  9  8  1  0  0  0  0
 10  4  1  0  0  0  0
 11  5  1  0  0  0  0
 13 14  1  0  0  0  0
 14 15  2  0  0  0  0
 14 21  1  0  0  0  0
 15 16  1  0  0  0  0
 16 17  1  0  0  0  0
 16 18  2  0  0  0  0
 18 19  1  0  0  0  0
 20 18  1  0  0  0  0
 21 20  2  0  0  0  0
M  END
>  <minimizedAffinity>
-4.29646444

$$$$

 OpenBabel03242523293D

 21 22  0  0  0  0  0  0  0  0999 V2000
   39.4680   31.0070   42.0050 C   0  0  0  0  0  0  0  0  0  0  0  0
   39.1220   31.8450   42.6810 H   0  0  0  0  0  0  0  0  0  0  0  0
   40.5500   31.1640   41.8930 H   0  0  0  0  0  0  0  0  0  0  0  0
   38.3000   30.7310   38.4680 C   0  0  0  0  0  0  0  0  0  0  0  0
   37.3880   31.7870   38.3850 C   0  0  0  0  0  0  0  0  0  0  0  0
   37.1920   32.5620   39.5210 C   0  0  0  0  0  0  0  0  0  0  0  0
   37.8810   32.2740   40.6570 N   0  0  0  0  0  0  0  0  0  0  0  0
   38.7700   31.2270   40.7040 C   0  0  0  0  0  0  0  0  0  0  0  0
   38.9520   30.4830   39.5990 N   0  0  0  0  0  0  0  0  0  0  0  0
   38.5160   30.0710   37.6220 H   0  0  0  0  0  0  0  0  0  0  0  0
   36.8800   31.9530   37.4440 H   0  0  0  0  0  0  0  0  0  0  0  0
   36.4950   33.3800   39.4810 H   0  0  0  0  0  0  0  0  0  0  0  0
   41.9670   29.1050   42.3490 Br  0  0  0  0  0  0  0  0  0  0  0  0
   40.1430   28.6900   42.8130 C   0  0  0  0  0  0  0  0  0  0  0  0
   39.2150   29.6800   42.5710 C   0  0  0  0  0  0  0  0  0  0  0  0
   37.9060   29.3330   42.9220 C   0  0  0  0  0  0  0  0  0  0  0  0
   37.1250   30.0890   42.7510 H   0  0  0  0  0  0  0  0  0  0  0  0
   37.5540   28.1150   43.4640 C   0  0  0  0  0  0  0  0  0  0  0  0
   36.5090   27.9610   43.6970 H   0  0  0  0  0  0  0  0  0  0  0  0
   38.5380   27.1810   43.6730 C   0  0  0  0  0  3  0  0  0  0  0  0
   39.8590   27.4540   43.3490 C   0  0  0  0  0  3  0  0  0  0  0  0
  1 15  1  0  0  0  0
  1  2  1  0  0  0  0
  3  1  1  0  0  0  0
  4  9  1  0  0  0  0
  5  4  2  0  0  0  0
  5  6  1  0  0  0  0
  6  7  2  0  0  0  0
  7  8  1  0  0  0  0
  8  1  1  0  0  0  0
  9  8  2  0  0  0  0
 10  4  1  0  0  0  0
 11  5  1  0  0  0  0
 12  6  1  0  0  0  0
 13 14  1  0  0  0  0
 14 21  1  0  0  0  0
 15 14  2  0  0  0  0
 15 16  1  0  0  0  0
 16 18  2  0  0  0  0
 17 16  1  0  0  0  0
 18 20  1  0  0  0  0
 18 19  1  0  0  0  0
 21 20  2  0  0  0  0
M  END
>  <minimizedAffinity>
-4.26328516

$$$$

 OpenBabel03242523293D

 21 22  0  0  0  0  0  0  0  0999 V2000
   39.1960   29.6320   40.4410 C   0  0  0  0  0  0  0  0  0  0  0  0
   40.2650   29.7380   40.7930 H   0  0  0  0  0  0  0  0  0  0  0  0
   39.2690   29.1240   39.4690 H   0  0  0  0  0  0  0  0  0  0  0  0
   38.6420   33.3130   40.7500 C   0  0  0  0  0  0  0  0  0  0  0  0
   37.6380   33.5320   39.8020 C   0  0  0  0  0  0  0  0  0  0  0  0
   37.1770   32.4350   39.0860 C   0  0  0  0  0  0  0  0  0  0  0  0
   37.7060   31.2060   39.3260 N   0  0  0  0  0  0  0  0  0  0  0  0
   38.6920   31.0270   40.2650 C   0  0  0  0  0  0  0  0  0  0  0  0
   39.1320   32.0950   40.9530 N   0  0  0  0  0  0  0  0  0  0  0  0
   39.0630   34.1190   41.3590 H   0  0  0  0  0  0  0  0  0  0  0  0
   37.2680   34.5410   39.6710 H   0  0  0  0  0  0  0  0  0  0  0  0
   36.4060   32.5790   38.3510 H   0  0  0  0  0  0  0  0  0  0  0  0
   37.7650   27.0890   39.2300 Br  0  0  0  0  0  0  0  0  0  0  0  0
   37.6620   27.6980   41.0550 C   0  0  0  0  0  0  0  0  0  0  0  0
   38.3730   28.8400   41.3560 C   0  0  0  0  0  0  0  0  0  0  0  0
   38.2670   29.2420   42.6920 C   0  0  0  0  0  0  0  0  0  0  0  0
   38.8170   30.1490   42.9860 H   0  0  0  0  0  0  0  0  0  0  0  0
   37.5230   28.5710   43.6390 C   0  0  0  0  0  0  0  0  0  0  0  0
   37.5180   28.9770   44.6420 H   0  0  0  0  0  0  0  0  0  0  0  0
   36.8420   27.4410   43.2590 C   0  0  0  0  0  3  0  0  0  0  0  0
   36.9000   26.9820   41.9520 C   0  0  0  0  0  3  0  0  0  0  0  0
  1  2  1  0  0  0  0
  1 15  1  0  0  0  0
  3  1  1  0  0  0  0
  4  9  1  0  0  0  0
  4 10  1  0  0  0  0
  5  4  2  0  0  0  0
  6  7  2  0  0  0  0
  6  5  1  0  0  0  0
  7  8  1  0  0  0  0
  8  1  1  0  0  0  0
  8  9  2  0  0  0  0
 11  5  1  0  0  0  0
 12  6  1  0  0  0  0
 13 14  1  0  0  0  0
 14 15  2  0  0  0  0
 14 21  1  0  0  0  0
 15 16  1  0  0  0  0
 16 17  1  0  0  0  0
 16 18  2  0  0  0  0
 18 19  1  0  0  0  0
 20 18  1  0  0  0  0
 21 20  2  0  0  0  0
M  END
>  <minimizedAffinity>
-4.24771643

$$$$
