
 OpenBabel03242510573D

 36 38  0  0  0  0  0  0  0  0999 V2000
   45.7390   31.7110   47.0570 C   0  0  0  0  0  0  0  0  0  0  0  0
   45.6070   32.1650   48.3760 C   0  0  0  0  0  0  0  0  0  0  0  0
   45.4030   31.3250   49.4500 C   0  0  0  0  0  0  0  0  0  0  0  0
   45.3280   29.9750   49.1930 C   0  0  0  0  0  0  0  0  0  0  0  0
   45.4590   29.5190   47.8780 C   0  0  0  0  0  0  0  0  0  0  0  0
   45.6540   30.3920   46.8940 N   0  0  0  0  0  0  0  0  0  0  0  0
   45.6740   33.2380   48.5300 H   0  0  0  0  0  0  0  0  0  0  0  0
   45.3170   31.7740   50.4100 H   0  0  0  0  0  0  0  0  0  0  0  0
   45.1660   29.3480   50.0590 H   0  0  0  0  0  0  0  0  0  0  0  0
   44.7350   36.6960   43.8000 C   0  0  0  0  0  0  0  0  0  0  0  0
   45.6250   36.4160   42.7540 C   0  0  0  0  0  0  0  0  0  0  0  0
   46.3000   35.1950   42.7730 C   0  0  0  0  0  0  0  0  0  0  0  0
   46.0750   34.3250   43.7970 N   0  0  0  0  0  0  0  0  0  0  0  0
   45.2040   34.6370   44.7880 C   0  0  0  0  0  0  0  0  0  0  0  0
   44.5300   35.8280   44.7930 N   0  0  0  0  0  0  0  0  0  0  0  0
   45.9530   32.6640   45.9780 C   0  0  0  0  0  0  0  0  0  0  0  0
   46.9570   32.5190   45.2340 O   0  0  0  0  0  0  0  0  0  0  0  0
   44.9910   33.7140   45.8390 N   0  0  0  0  0  0  0  0  0  0  0  0
   44.2480   37.6660   43.7160 H   0  0  0  0  0  0  0  0  0  0  0  0
   45.8640   37.0360   41.9110 H   0  0  0  0  0  0  0  0  0  0  0  0
   47.0170   34.8870   41.9990 H   0  0  0  0  0  0  0  0  0  0  0  0
   44.1880   33.7680   46.4920 H   0  0  0  0  0  0  0  0  0  0  0  0
   45.3920   28.0970   47.6350 C   0  0  0  0  0  0  0  0  0  0  0  0
   44.2550   27.4510   47.7400 C   0  0  0  0  0  0  0  0  0  0  0  0
   43.9920   26.0030   47.5470 C   0  0  0  0  0  0  0  0  0  0  0  0
   43.0260   25.6800   47.9790 H   0  0  0  0  0  0  0  0  0  0  0  0
   44.0820   25.7470   46.4630 H   0  0  0  0  0  0  0  0  0  0  0  0
   43.6300   26.0820   50.6020 Br  0  0  0  0  0  0  0  0  0  0  0  0
   45.0470   25.2450   49.6190 C   0  0  0  0  0  0  0  0  0  0  0  0
   45.1010   25.2750   48.2230 C   0  0  0  0  0  0  0  0  0  0  0  0
   46.1750   24.6330   47.5930 C   0  0  0  0  0  0  0  0  0  0  0  0
   46.1620   24.6890   46.5110 H   0  0  0  0  0  0  0  0  0  0  0  0
   47.1250   24.0050   48.3730 C   0  0  0  0  0  0  0  0  0  0  0  0
   47.9530   23.5110   47.8370 H   0  0  0  0  0  0  0  0  0  0  0  0
   47.0510   23.9890   49.7500 C   0  0  0  0  0  0  0  0  0  0  0  0
   45.9930   24.6190   50.3980 C   0  0  0  0  0  0  0  0  0  0  0  0
  1  2  1  0  0  0  0
  2  7  1  0  0  0  0
  2  3  2  0  0  0  0
  3  8  1  0  0  0  0
  4  3  1  0  0  0  0
  4  9  1  0  0  0  0
  5  4  2  0  0  0  0
  6  1  2  0  0  0  0
  6  5  1  0  0  0  0
 10 15  1  0  0  0  0
 11 12  1  0  0  0  0
 11 10  2  0  0  0  0
 12 13  2  0  0  0  0
 13 14  1  0  0  0  0
 14 15  2  0  0  0  0
 14 18  1  0  0  0  0
 16  1  1  0  0  0  0
 17 16  2  0  0  0  0
 18 16  1  0  0  0  0
 18 22  1  0  0  0  0
 19 10  1  0  0  0  0
 20 11  1  0  0  0  0
 21 12  1  0  0  0  0
 23 24  2  0  0  0  0
 23  5  1  0  0  0  0
 25 24  1  0  0  0  0
 25 26  1  0  0  0  0
 25 30  1  0  0  0  0
 27 25  1  0  0  0  0
 29 36  1  0  0  0  0
 29 28  1  0  0  0  0
 30 29  2  0  0  0  0
 31 30  1  0  0  0  0
 31 33  2  0  0  0  0
 32 31  1  0  0  0  0
 33 35  1  0  0  0  0
 34 33  1  0  0  0  0
 35 36  2  0  0  0  0
M  END
>  <minimizedAffinity>
-5.82392788

>  <minimizedRMSD>
1.29157567

$$$$
