
 OpenBabel03252504533D

 21 22  0  0  0  0  0  0  0  0999 V2000
   46.9200   35.0290   41.9670 C   0  0  0  0  0  0  0  0  0  0  0  0
   48.0000   34.8280   42.2040 H   0  0  0  0  0  0  0  0  0  0  0  0
   46.7870   36.0390   41.5340 H   0  0  0  0  0  0  0  0  0  0  0  0
   44.5420   35.8610   44.7010 C   0  0  0  0  0  0  0  0  0  0  0  0
   45.2370   35.9560   43.4800 C   0  0  0  0  0  0  0  0  0  0  0  0
   46.1830   34.9590   43.2320 C   0  0  0  0  0  0  0  0  0  0  0  0
   46.3820   33.9710   44.1570 N   0  0  0  0  0  0  0  0  0  0  0  0
   45.6820   33.9360   45.3120 C   0  0  0  0  0  0  0  0  0  0  0  0
   44.7690   34.8770   45.5780 N   0  0  0  0  0  0  0  0  0  0  0  0
   43.8000   36.6260   44.9190 H   0  0  0  0  0  0  0  0  0  0  0  0
   45.0460   36.7580   42.7730 H   0  0  0  0  0  0  0  0  0  0  0  0
   45.9880   33.0750   45.9040 H   0  0  0  0  0  0  0  0  0  0  0  0
   49.1970   32.9410   41.3340 Br  0  0  0  0  0  0  0  0  0  0  0  0
   47.4000   33.0320   40.6650 C   0  0  0  0  0  0  0  0  0  0  0  0
   46.4560   34.0010   40.9950 C   0  0  0  0  0  0  0  0  0  0  0  0
   45.2090   33.9400   40.4310 C   0  0  0  0  0  0  0  0  0  0  0  0
   44.4990   34.7100   40.7120 H   0  0  0  0  0  0  0  0  0  0  0  0
   44.9330   32.9080   39.5470 C   0  0  0  0  0  0  0  0  0  0  0  0
   43.9330   32.8840   39.1140 H   0  0  0  0  0  0  0  0  0  0  0  0
   45.8420   31.9400   39.2020 C   0  0  0  0  0  3  0  0  0  0  0  0
   47.1090   32.0010   39.7740 C   0  0  0  0  0  3  0  0  0  0  0  0
  1  2  1  0  0  0  0
  1  6  1  0  0  0  0
  3  1  1  0  0  0  0
  4 10  1  0  0  0  0
  4  9  1  0  0  0  0
  5  4  2  0  0  0  0
  6  5  1  0  0  0  0
  6  7  2  0  0  0  0
  7  8  1  0  0  0  0
  8  9  2  0  0  0  0
  8 12  1  0  0  0  0
 11  5  1  0  0  0  0
 14 15  1  0  0  0  0
 14 13  1  0  0  0  0
 15  1  1  0  0  0  0
 16 17  1  0  0  0  0
 16 15  2  0  0  0  0
 18 16  1  0  0  0  0
 19 18  1  0  0  0  0
 20 18  2  0  0  0  0
 20 21  1  0  0  0  0
 21 14  2  0  0  0  0
M  END
>  <minimizedAffinity>
-3.94983983

>  <minimizedRMSD>
0.57174015

$$$$
