
 OpenBabel03252508443D

 39 41  0  0  0  0  0  0  0  0999 V2000
   43.4880   35.2850   42.0790 C   0  0  0  0  0  0  0  0  0  0  0  0
   43.8640   34.2310   42.2000 H   0  0  0  0  0  0  0  0  0  0  0  0
   44.3200   35.8320   41.5890 H   0  0  0  0  0  0  0  0  0  0  0  0
   42.1780   34.1780   40.2620 C   0  0  0  0  0  0  0  0  0  0  0  0
   42.2800   35.1700   41.2310 C   0  0  0  0  0  0  0  0  0  0  0  0
   41.2270   36.0370   41.3770 C   0  0  0  0  0  0  0  0  0  0  0  0
   40.1160   35.9320   40.5970 C   0  0  0  0  0  0  0  0  0  0  0  0
   39.9930   34.9650   39.6370 C   0  0  0  0  0  0  0  0  0  0  0  0
   41.0770   34.0960   39.5110 C   0  0  0  0  0  0  0  0  0  0  0  0
   41.2210   36.8340   42.1020 H   0  0  0  0  0  0  0  0  0  0  0  0
   39.2720   36.6050   40.6950 H   0  0  0  0  0  0  0  0  0  0  0  0
   39.1670   34.7790   38.9610 H   0  0  0  0  0  0  0  0  0  0  0  0
   41.0840   33.2890   38.7770 H   0  0  0  0  0  0  0  0  0  0  0  0
   44.6270   31.3290   40.6600 C   0  0  0  0  0  0  0  0  0  0  0  0
   43.4710   32.1130   40.8700 C   0  0  0  0  0  0  0  0  0  0  0  0
   43.3270   33.2730   40.1410 C   0  0  0  0  0  0  0  0  0  0  0  0
   44.3060   33.5930   39.2650 N   0  0  0  0  0  0  0  0  0  0  0  0
   45.4050   32.8330   39.0750 C   0  0  0  0  0  0  0  0  0  0  0  0
   45.5600   31.6980   39.7780 N   0  0  0  0  0  0  0  0  0  0  0  0
   44.6630   30.4220   41.2810 H   0  0  0  0  0  0  0  0  0  0  0  0
   42.6770   31.8740   41.5660 H   0  0  0  0  0  0  0  0  0  0  0  0
   46.1880   33.0940   38.3700 H   0  0  0  0  0  0  0  0  0  0  0  0
   43.2530   35.7680   43.4100 N   0  0  0  0  0  0  0  0  0  0  0  0
   42.8310   36.7210   43.3380 H   0  0  0  0  0  0  0  0  0  0  0  0
   44.7220   35.9940   44.2940 S   0  0  0  0  0  0  0  0  0  0  0  0
   45.7310   34.9570   43.9270 O   0  0  0  0  0  0  0  0  0  0  0  0
   46.4390   35.0360   43.2140 H   0  0  0  0  0  0  0  0  0  0  0  0
   44.4690   35.9890   45.7600 O   0  0  0  0  0  0  0  0  0  0  0  0
   44.7690   35.1950   46.3060 H   0  0  0  0  0  0  0  0  0  0  0  0
   45.3160   37.5090   43.8370 O   0  0  0  0  0  0  0  0  0  0  0  0
   45.4610   40.0490   42.1450 Br  0  0  0  0  0  0  0  0  0  0  0  0
   45.1750   39.9310   44.0050 C   0  0  0  0  0  0  0  0  0  0  0  0
   45.1480   38.6610   44.5600 C   0  0  0  0  0  0  0  0  0  0  0  0
   44.9360   38.5790   45.9390 C   0  0  0  0  0  0  0  0  0  0  0  0
   44.9150   37.5860   46.3760 H   0  0  0  0  0  0  0  0  0  0  0  0
   44.7600   39.7050   46.7280 C   0  0  0  0  0  0  0  0  0  0  0  0
   44.5960   39.6020   47.8000 H   0  0  0  0  0  0  0  0  0  0  0  0
   44.7870   40.9690   46.1730 C   0  0  0  0  0  3  0  0  0  0  0  0
   44.9990   41.0310   44.7990 C   0  0  0  0  0  3  0  0  0  0  0  0
  1  2  1  0  0  0  0
  1 23  1  0  0  0  0
  3  1  1  0  0  0  0
  4  5  1  0  0  0  0
  5  6  2  0  0  0  0
  5  1  1  0  0  0  0
  6 10  1  0  0  0  0
  7 11  1  0  0  0  0
  7  6  1  0  0  0  0
  8  7  2  0  0  0  0
  9  8  1  0  0  0  0
  9  4  2  0  0  0  0
 12  8  1  0  0  0  0
 13  9  1  0  0  0  0
 14 15  1  0  0  0  0
 14 20  1  0  0  0  0
 15 21  1  0  0  0  0
 16  4  1  0  0  0  0
 16 15  2  0  0  0  0
 17 16  1  0  0  0  0
 18 17  2  0  0  0  0
 18 19  1  0  0  0  0
 19 14  2  0  0  0  0
 22 18  1  0  0  0  0
 23 25  1  0  0  0  0
 24 23  1  0  0  0  0
 25 28  1  0  0  0  0
 26 25  1  0  0  0  0
 27 26  1  0  0  0  0
 28 29  1  0  0  0  0
 30 25  1  0  0  0  0
 30 33  1  0  0  0  0
 31 32  1  0  0  0  0
 32 33  2  0  0  0  0
 32 39  1  0  0  0  0
 33 34  1  0  0  0  0
 34 35  1  0  0  0  0
 34 36  2  0  0  0  0
 36 37  1  0  0  0  0
 38 36  1  0  0  0  0
 39 38  2  0  0  0  0
M  END
>  <minimizedAffinity>
-1.73214233

>  <minimizedRMSD>
1.15254736

$$$$
