
 OpenBabel03242512193D

 33 35  0  0  0  0  0  0  0  0999 V2000
   36.6640   29.4730   41.2270 C   0  0  0  0  0  0  0  0  0  0  0  0
   36.7180   30.3010   40.1320 C   0  0  0  0  0  0  0  0  0  0  0  0
   36.7960   29.7340   38.8760 C   0  0  0  0  0  0  0  0  0  0  0  0
   36.8210   28.3580   38.7480 C   0  0  0  0  0  0  0  0  0  0  0  0
   36.7650   27.5650   39.8720 C   0  0  0  0  0  0  0  0  0  0  0  0
   36.6850   28.1100   41.1520 C   0  0  0  0  0  0  0  0  0  0  0  0
   36.8370   30.3990   38.0500 H   0  0  0  0  0  0  0  0  0  0  0  0
   36.8830   27.9600   37.7480 H   0  0  0  0  0  0  0  0  0  0  0  0
   36.7890   26.4990   39.6840 H   0  0  0  0  0  0  0  0  0  0  0  0
   36.6850   31.7540   40.4050 C   0  0  0  0  0  0  0  0  0  0  0  0
   36.0820   32.0110   41.2580 H   0  0  0  0  0  0  0  0  0  0  0  0
   36.2000   32.2450   39.5170 H   0  0  0  0  0  0  0  0  0  0  0  0
   38.1070   32.2850   40.4860 C   0  0  0  0  0  0  0  0  0  0  0  0
   38.3450   33.5480   39.9770 C   0  0  0  0  0  0  0  0  0  0  0  0
   39.6500   34.0300   40.0620 C   0  0  0  0  0  0  0  0  0  0  0  0
   40.5870   33.2530   40.6230 N   0  0  0  0  0  0  0  0  0  0  0  0
   40.3220   32.0160   41.1140 C   0  0  0  0  0  0  0  0  0  0  0  0
   39.0790   31.5310   41.0450 N   0  0  0  0  0  0  0  0  0  0  0  0
   37.5420   34.1220   39.5360 H   0  0  0  0  0  0  0  0  0  0  0  0
   39.8350   35.0120   39.6670 H   0  0  0  0  0  0  0  0  0  0  0  0
   41.1570   31.4810   41.5440 H   0  0  0  0  0  0  0  0  0  0  0  0
   36.5810   29.9560   42.5560 O   0  0  0  0  0  0  0  0  0  0  0  0
   37.4030   30.2950   43.0380 H   0  0  0  0  0  0  0  0  0  0  0  0
   36.6320   27.2320   42.2300 O   0  0  0  0  0  0  0  0  0  0  0  0
   36.8710   24.2290   41.4190 Br  0  0  0  0  0  0  0  0  0  0  0  0
   38.1450   25.2920   42.3320 C   0  0  0  0  0  0  0  0  0  0  0  0
   37.8210   26.6070   42.5860 C   0  0  0  0  0  0  0  0  0  0  0  0
   38.7990   27.3340   43.2580 C   0  0  0  0  0  0  0  0  0  0  0  0
   38.5760   28.3780   43.4760 H   0  0  0  0  0  0  0  0  0  0  0  0
   40.0320   26.8590   43.6800 C   0  0  0  0  0  0  0  0  0  0  0  0
   40.7040   27.5320   44.1950 H   0  0  0  0  0  0  0  0  0  0  0  0
   40.2970   25.5220   43.3910 C   0  0  0  0  0  3  0  0  0  0  0  0
   39.3540   24.7470   42.7200 C   0  0  0  0  0  3  0  0  0  0  0  0
  1 22  1  0  0  0  0
  2 10  1  0  0  0  0
  2  1  2  0  0  0  0
  3  2  1  0  0  0  0
  4  3  2  0  0  0  0
  4  5  1  0  0  0  0
  5  6  2  0  0  0  0
  6  1  1  0  0  0  0
  6 24  1  0  0  0  0
  7  3  1  0  0  0  0
  8  4  1  0  0  0  0
  9  5  1  0  0  0  0
 10 13  1  0  0  0  0
 10 11  1  0  0  0  0
 12 10  1  0  0  0  0
 13 18  1  0  0  0  0
 14 15  1  0  0  0  0
 14 13  2  0  0  0  0
 15 16  2  0  0  0  0
 16 17  1  0  0  0  0
 17 21  1  0  0  0  0
 18 17  2  0  0  0  0
 19 14  1  0  0  0  0
 20 15  1  0  0  0  0
 22 23  1  0  0  0  0
 24 27  1  0  0  0  0
 25 26  1  0  0  0  0
 26 27  2  0  0  0  0
 26 33  1  0  0  0  0
 27 28  1  0  0  0  0
 28 29  1  0  0  0  0
 28 30  2  0  0  0  0
 30 31  1  0  0  0  0
 32 30  1  0  0  0  0
 33 32  2  0  0  0  0
M  END
>  <minimizedAffinity>
-6.05969238

$$$$

 OpenBabel03242512193D

 33 35  0  0  0  0  0  0  0  0999 V2000
   36.5120   31.1060   39.6650 C   0  0  0  0  0  0  0  0  0  0  0  0
   37.2570   32.0460   38.9950 C   0  0  0  0  0  0  0  0  0  0  0  0
   37.6230   31.7920   37.6890 C   0  0  0  0  0  0  0  0  0  0  0  0
   37.2380   30.6080   37.0880 C   0  0  0  0  0  0  0  0  0  0  0  0
   36.4910   29.6940   37.7960 C   0  0  0  0  0  0  0  0  0  0  0  0
   36.1060   29.9230   39.1160 C   0  0  0  0  0  0  0  0  0  0  0  0
   38.1990   32.5370   37.1980 H   0  0  0  0  0  0  0  0  0  0  0  0
   37.5470   30.4540   36.0670 H   0  0  0  0  0  0  0  0  0  0  0  0
   36.2310   28.7940   37.2530 H   0  0  0  0  0  0  0  0  0  0  0  0
   37.6050   33.2690   39.7510 C   0  0  0  0  0  0  0  0  0  0  0  0
   36.9000   33.5000   40.5290 H   0  0  0  0  0  0  0  0  0  0  0  0
   37.5650   34.1260   39.0250 H   0  0  0  0  0  0  0  0  0  0  0  0
   39.0390   33.1670   40.2430 C   0  0  0  0  0  0  0  0  0  0  0  0
   39.9180   34.1610   39.8540 C   0  0  0  0  0  0  0  0  0  0  0  0
   41.2290   34.0650   40.3150 C   0  0  0  0  0  0  0  0  0  0  0  0
   41.5610   33.0280   41.0980 N   0  0  0  0  0  0  0  0  0  0  0  0
   40.6750   32.0670   41.4640 C   0  0  0  0  0  0  0  0  0  0  0  0
   39.4110   32.1370   41.0340 N   0  0  0  0  0  0  0  0  0  0  0  0
   39.5840   34.9700   39.2190 H   0  0  0  0  0  0  0  0  0  0  0  0
   41.9120   34.8380   40.0130 H   0  0  0  0  0  0  0  0  0  0  0  0
   41.0550   31.2790   42.0980 H   0  0  0  0  0  0  0  0  0  0  0  0
   36.0860   31.2720   41.0060 O   0  0  0  0  0  0  0  0  0  0  0  0
   36.7180   31.1040   41.7770 H   0  0  0  0  0  0  0  0  0  0  0  0
   35.3520   28.9430   39.7530 O   0  0  0  0  0  0  0  0  0  0  0  0
   35.8480   26.3410   38.1050 Br  0  0  0  0  0  0  0  0  0  0  0  0
   36.3890   26.7130   39.8810 C   0  0  0  0  0  0  0  0  0  0  0  0
   36.0560   27.9420   40.4100 C   0  0  0  0  0  0  0  0  0  0  0  0
   36.4830   28.1530   41.7180 C   0  0  0  0  0  0  0  0  0  0  0  0
   36.2370   29.1150   42.1680 H   0  0  0  0  0  0  0  0  0  0  0  0
   37.1920   27.2600   42.5060 C   0  0  0  0  0  0  0  0  0  0  0  0
   37.4640   27.5490   43.5120 H   0  0  0  0  0  0  0  0  0  0  0  0
   37.4960   26.0360   41.9110 C   0  0  0  0  0  3  0  0  0  0  0  0
   37.0940   25.7700   40.6040 C   0  0  0  0  0  3  0  0  0  0  0  0
  1 22  1  0  0  0  0
  2  1  2  0  0  0  0
  2 10  1  0  0  0  0
  3  2  1  0  0  0  0
  4  3  2  0  0  0  0
  4  5  1  0  0  0  0
  5  6  2  0  0  0  0
  6  1  1  0  0  0  0
  6 24  1  0  0  0  0
  7  3  1  0  0  0  0
  8  4  1  0  0  0  0
  9  5  1  0  0  0  0
 10 13  1  0  0  0  0
 10 11  1  0  0  0  0
 12 10  1  0  0  0  0
 13 18  1  0  0  0  0
 14 13  2  0  0  0  0
 14 15  1  0  0  0  0
 15 16  2  0  0  0  0
 16 17  1  0  0  0  0
 17 21  1  0  0  0  0
 18 17  2  0  0  0  0
 19 14  1  0  0  0  0
 20 15  1  0  0  0  0
 22 23  1  0  0  0  0
 24 27  1  0  0  0  0
 25 26  1  0  0  0  0
 26 27  2  0  0  0  0
 26 33  1  0  0  0  0
 27 28  1  0  0  0  0
 28 29  1  0  0  0  0
 28 30  2  0  0  0  0
 30 31  1  0  0  0  0
 32 30  1  0  0  0  0
 33 32  2  0  0  0  0
M  END
>  <minimizedAffinity>
-5.91896343

$$$$

 OpenBabel03242512193D

 33 35  0  0  0  0  0  0  0  0999 V2000
   37.6470   31.1840   41.0700 C   0  0  0  0  0  0  0  0  0  0  0  0
   38.7810   31.9590   41.0850 C   0  0  0  0  0  0  0  0  0  0  0  0
   39.8690   31.5270   41.8150 C   0  0  0  0  0  0  0  0  0  0  0  0
   39.7960   30.3340   42.5100 C   0  0  0  0  0  0  0  0  0  0  0  0
   38.6400   29.5870   42.4670 C   0  0  0  0  0  0  0  0  0  0  0  0
   37.5260   29.9990   41.7380 C   0  0  0  0  0  0  0  0  0  0  0  0
   40.7300   32.1480   41.8080 H   0  0  0  0  0  0  0  0  0  0  0  0
   40.6700   30.0370   43.0660 H   0  0  0  0  0  0  0  0  0  0  0  0
   38.6660   28.6680   43.0380 H   0  0  0  0  0  0  0  0  0  0  0  0
   38.7300   33.2130   40.3020 C   0  0  0  0  0  0  0  0  0  0  0  0
   38.7080   34.0960   40.9160 H   0  0  0  0  0  0  0  0  0  0  0  0
   37.7610   33.2040   39.7300 H   0  0  0  0  0  0  0  0  0  0  0  0
   39.8510   33.2140   39.2760 C   0  0  0  0  0  0  0  0  0  0  0  0
   39.8250   32.2330   38.3030 C   0  0  0  0  0  0  0  0  0  0  0  0
   40.8530   32.2460   37.3610 C   0  0  0  0  0  0  0  0  0  0  0  0
   41.7960   33.1950   37.4530 N   0  0  0  0  0  0  0  0  0  0  0  0
   41.7940   34.1450   38.4210 C   0  0  0  0  0  0  0  0  0  0  0  0
   40.8190   34.1540   39.3350 N   0  0  0  0  0  0  0  0  0  0  0  0
   39.0340   31.4960   38.2880 H   0  0  0  0  0  0  0  0  0  0  0  0
   40.8320   31.4830   36.6050 H   0  0  0  0  0  0  0  0  0  0  0  0
   42.6050   34.8590   38.3940 H   0  0  0  0  0  0  0  0  0  0  0  0
   36.4790   31.5390   40.3520 O   0  0  0  0  0  0  0  0  0  0  0  0
   35.8290   32.2200   40.7200 H   0  0  0  0  0  0  0  0  0  0  0  0
   36.4010   29.1810   41.7520 O   0  0  0  0  0  0  0  0  0  0  0  0
   36.1460   28.4510   38.7300 Br  0  0  0  0  0  0  0  0  0  0  0  0
   36.5350   27.2930   40.1770 C   0  0  0  0  0  0  0  0  0  0  0  0
   36.5980   27.8420   41.4400 C   0  0  0  0  0  0  0  0  0  0  0  0
   36.8880   26.9390   42.4590 C   0  0  0  0  0  0  0  0  0  0  0  0
   36.9460   27.3390   43.4710 H   0  0  0  0  0  0  0  0  0  0  0  0
   37.1110   25.5780   42.3120 C   0  0  0  0  0  0  0  0  0  0  0  0
   37.3270   24.9860   43.1910 H   0  0  0  0  0  0  0  0  0  0  0  0
   37.0310   25.0880   41.0100 C   0  0  0  0  0  3  0  0  0  0  0  0
   36.7450   25.9460   39.9510 C   0  0  0  0  0  3  0  0  0  0  0  0
  1  2  2  0  0  0  0
  1  6  1  0  0  0  0
  2  3  1  0  0  0  0
  3  4  2  0  0  0  0
  4  8  1  0  0  0  0
  5  4  1  0  0  0  0
  5  9  1  0  0  0  0
  6 24  1  0  0  0  0
  6  5  2  0  0  0  0
  7  3  1  0  0  0  0
 10 11  1  0  0  0  0
 10  2  1  0  0  0  0
 12 10  1  0  0  0  0
 13 18  1  0  0  0  0
 13 10  1  0  0  0  0
 14 13  2  0  0  0  0
 15 16  2  0  0  0  0
 15 14  1  0  0  0  0
 16 17  1  0  0  0  0
 17 18  2  0  0  0  0
 19 14  1  0  0  0  0
 20 15  1  0  0  0  0
 21 17  1  0  0  0  0
 22 23  1  0  0  0  0
 22  1  1  0  0  0  0
 25 26  1  0  0  0  0
 26 27  1  0  0  0  0
 27 24  1  0  0  0  0
 27 28  2  0  0  0  0
 28 29  1  0  0  0  0
 30 28  1  0  0  0  0
 30 31  1  0  0  0  0
 32 30  2  0  0  0  0
 33 26  2  0  0  0  0
 33 32  1  0  0  0  0
M  END
>  <minimizedAffinity>
-5.77167606

$$$$

 OpenBabel03242512193D

 33 35  0  0  0  0  0  0  0  0999 V2000
   36.6350   29.5710   41.1800 C   0  0  0  0  0  0  0  0  0  0  0  0
   36.5340   30.3440   40.0480 C   0  0  0  0  0  0  0  0  0  0  0  0
   36.2700   29.7250   38.8440 C   0  0  0  0  0  0  0  0  0  0  0  0
   36.1150   28.3510   38.8010 C   0  0  0  0  0  0  0  0  0  0  0  0
   36.2240   27.6150   39.9590 C   0  0  0  0  0  0  0  0  0  0  0  0
   36.4890   28.2130   41.1890 C   0  0  0  0  0  0  0  0  0  0  0  0
   36.1980   30.3480   37.9880 H   0  0  0  0  0  0  0  0  0  0  0  0
   35.9100   27.9110   37.8390 H   0  0  0  0  0  0  0  0  0  0  0  0
   36.0890   26.5470   39.8380 H   0  0  0  0  0  0  0  0  0  0  0  0
   36.7220   31.8000   40.2290 C   0  0  0  0  0  0  0  0  0  0  0  0
   36.3820   32.1550   41.1860 H   0  0  0  0  0  0  0  0  0  0  0  0
   36.0840   32.3120   39.4580 H   0  0  0  0  0  0  0  0  0  0  0  0
   38.1660   32.1650   39.9250 C   0  0  0  0  0  0  0  0  0  0  0  0
   38.9300   32.6620   40.9650 C   0  0  0  0  0  0  0  0  0  0  0  0
   40.2550   32.9860   40.6790 C   0  0  0  0  0  0  0  0  0  0  0  0
   40.7070   32.8010   39.4300 N   0  0  0  0  0  0  0  0  0  0  0  0
   39.9320   32.3100   38.4310 C   0  0  0  0  0  0  0  0  0  0  0  0
   38.6580   31.9920   38.6790 N   0  0  0  0  0  0  0  0  0  0  0  0
   38.5010   32.7870   41.9490 H   0  0  0  0  0  0  0  0  0  0  0  0
   40.8480   33.3730   41.4870 H   0  0  0  0  0  0  0  0  0  0  0  0
   40.4050   32.2040   37.4650 H   0  0  0  0  0  0  0  0  0  0  0  0
   36.9030   30.1110   42.4620 O   0  0  0  0  0  0  0  0  0  0  0  0
   37.8430   30.3670   42.7320 H   0  0  0  0  0  0  0  0  0  0  0  0
   36.5820   27.3900   42.3070 O   0  0  0  0  0  0  0  0  0  0  0  0
   39.5560   27.9310   43.0790 Br  0  0  0  0  0  0  0  0  0  0  0  0
   38.7830   26.3030   42.4980 C   0  0  0  0  0  0  0  0  0  0  0  0
   37.4360   26.2980   42.2100 C   0  0  0  0  0  0  0  0  0  0  0  0
   36.9290   25.0720   41.7900 C   0  0  0  0  0  0  0  0  0  0  0  0
   35.8660   25.0320   41.5530 H   0  0  0  0  0  0  0  0  0  0  0  0
   37.6450   23.8940   41.6420 C   0  0  0  0  0  0  0  0  0  0  0  0
   37.1280   23.0050   41.3050 H   0  0  0  0  0  0  0  0  0  0  0  0
   39.0020   23.9670   41.9500 C   0  0  0  0  0  3  0  0  0  0  0  0
   39.5630   25.1690   42.3760 C   0  0  0  0  0  3  0  0  0  0  0  0
  1  6  1  0  0  0  0
  1 22  1  0  0  0  0
  2 10  1  0  0  0  0
  2  1  2  0  0  0  0
  3  2  1  0  0  0  0
  4  3  2  0  0  0  0
  4  5  1  0  0  0  0
  5  6  2  0  0  0  0
  6 24  1  0  0  0  0
  7  3  1  0  0  0  0
  8  4  1  0  0  0  0
  9  5  1  0  0  0  0
 10 11  1  0  0  0  0
 12 10  1  0  0  0  0
 13 10  1  0  0  0  0
 13 14  1  0  0  0  0
 14 19  1  0  0  0  0
 15 14  2  0  0  0  0
 15 20  1  0  0  0  0
 16 15  1  0  0  0  0
 17 18  1  0  0  0  0
 17 16  2  0  0  0  0
 18 13  2  0  0  0  0
 21 17  1  0  0  0  0
 22 23  1  0  0  0  0
 26 25  1  0  0  0  0
 27 24  1  0  0  0  0
 27 26  2  0  0  0  0
 28 27  1  0  0  0  0
 29 28  1  0  0  0  0
 30 28  2  0  0  0  0
 30 32  1  0  0  0  0
 31 30  1  0  0  0  0
 32 33  2  0  0  0  0
 33 26  1  0  0  0  0
M  END
>  <minimizedAffinity>
-5.69767046

$$$$

 OpenBabel03242512193D

 33 35  0  0  0  0  0  0  0  0999 V2000
   36.8900   28.8350   41.9550 C   0  0  0  0  0  0  0  0  0  0  0  0
   37.6490   27.9460   42.6770 C   0  0  0  0  0  0  0  0  0  0  0  0
   38.9300   28.3100   43.0400 C   0  0  0  0  0  0  0  0  0  0  0  0
   39.4180   29.5500   42.6720 C   0  0  0  0  0  0  0  0  0  0  0  0
   38.6240   30.4100   41.9490 C   0  0  0  0  0  0  0  0  0  0  0  0
   37.3270   30.0700   41.5690 C   0  0  0  0  0  0  0  0  0  0  0  0
   39.4910   27.6020   43.5970 H   0  0  0  0  0  0  0  0  0  0  0  0
   40.4240   29.7910   42.9780 H   0  0  0  0  0  0  0  0  0  0  0  0
   39.0820   31.3600   41.7020 H   0  0  0  0  0  0  0  0  0  0  0  0
   37.0100   26.6530   43.0060 C   0  0  0  0  0  0  0  0  0  0  0  0
   35.9540   26.7370   43.1890 H   0  0  0  0  0  0  0  0  0  0  0  0
   37.4690   26.2950   43.9680 H   0  0  0  0  0  0  0  0  0  0  0  0
   37.3610   25.6300   41.9380 C   0  0  0  0  0  0  0  0  0  0  0  0
   38.2650   24.6400   42.2760 C   0  0  0  0  0  0  0  0  0  0  0  0
   38.5750   23.7020   41.2940 C   0  0  0  0  0  0  0  0  0  0  0  0
   37.9890   23.8110   40.0930 N   0  0  0  0  0  0  0  0  0  0  0  0
   37.1050   24.7940   39.7910 C   0  0  0  0  0  0  0  0  0  0  0  0
   36.7910   25.7070   40.7160 N   0  0  0  0  0  0  0  0  0  0  0  0
   38.7020   24.6120   43.2650 H   0  0  0  0  0  0  0  0  0  0  0  0
   39.2780   22.9330   41.5570 H   0  0  0  0  0  0  0  0  0  0  0  0
   36.6960   24.7820   38.7910 H   0  0  0  0  0  0  0  0  0  0  0  0
   35.5660   28.5560   41.5350 O   0  0  0  0  0  0  0  0  0  0  0  0
   35.3880   27.9760   40.7270 H   0  0  0  0  0  0  0  0  0  0  0  0
   36.5970   31.0020   40.8390 O   0  0  0  0  0  0  0  0  0  0  0  0
   38.0760   33.5880   39.9110 Br  0  0  0  0  0  0  0  0  0  0  0  0
   37.5090   32.1270   38.8480 C   0  0  0  0  0  0  0  0  0  0  0  0
   36.8680   31.0830   39.4790 C   0  0  0  0  0  0  0  0  0  0  0  0
   36.4780   30.0410   38.6430 C   0  0  0  0  0  0  0  0  0  0  0  0
   35.9690   29.1980   39.1090 H   0  0  0  0  0  0  0  0  0  0  0  0
   36.6740   29.9700   37.2720 C   0  0  0  0  0  0  0  0  0  0  0  0
   36.3200   29.1000   36.7370 H   0  0  0  0  0  0  0  0  0  0  0  0
   37.3280   31.0580   36.6960 C   0  0  0  0  0  3  0  0  0  0  0  0
   37.7410   32.1290   37.4860 C   0  0  0  0  0  3  0  0  0  0  0  0
  1  2  1  0  0  0  0
  2 10  1  0  0  0  0
  2  3  2  0  0  0  0
  3  7  1  0  0  0  0
  4  8  1  0  0  0  0
  4  3  1  0  0  0  0
  5  4  2  0  0  0  0
  6  5  1  0  0  0  0
  6  1  2  0  0  0  0
  9  5  1  0  0  0  0
 10 11  1  0  0  0  0
 10 12  1  0  0  0  0
 13 14  1  0  0  0  0
 13 10  1  0  0  0  0
 14 19  1  0  0  0  0
 15 20  1  0  0  0  0
 15 14  2  0  0  0  0
 16 15  1  0  0  0  0
 17 16  2  0  0  0  0
 17 18  1  0  0  0  0
 18 13  2  0  0  0  0
 21 17  1  0  0  0  0
 22  1  1  0  0  0  0
 23 22  1  0  0  0  0
 24  6  1  0  0  0  0
 26 27  1  0  0  0  0
 26 25  1  0  0  0  0
 27 24  1  0  0  0  0
 28 29  1  0  0  0  0
 28 27  2  0  0  0  0
 30 28  1  0  0  0  0
 31 30  1  0  0  0  0
 32 30  2  0  0  0  0
 32 33  1  0  0  0  0
 33 26  2  0  0  0  0
M  END
>  <minimizedAffinity>
-5.67808151

$$$$

 OpenBabel03242512193D

 33 35  0  0  0  0  0  0  0  0999 V2000
   37.0630   29.3590   41.8370 C   0  0  0  0  0  0  0  0  0  0  0  0
   38.0620   28.9990   42.7090 C   0  0  0  0  0  0  0  0  0  0  0  0
   39.2800   29.6420   42.6240 C   0  0  0  0  0  0  0  0  0  0  0  0
   39.4680   30.6260   41.6710 C   0  0  0  0  0  0  0  0  0  0  0  0
   38.4400   30.9560   40.8160 C   0  0  0  0  0  0  0  0  0  0  0  0
   37.2000   30.3240   40.8800 C   0  0  0  0  0  0  0  0  0  0  0  0
   40.0320   29.3420   43.3100 H   0  0  0  0  0  0  0  0  0  0  0  0
   40.4350   31.1010   41.6410 H   0  0  0  0  0  0  0  0  0  0  0  0
   38.6700   31.7350   40.1010 H   0  0  0  0  0  0  0  0  0  0  0  0
   37.7330   27.9320   43.6790 C   0  0  0  0  0  0  0  0  0  0  0  0
   36.6780   27.8440   43.8700 H   0  0  0  0  0  0  0  0  0  0  0  0
   38.2070   28.2200   44.6570 H   0  0  0  0  0  0  0  0  0  0  0  0
   38.3800   26.6300   43.2370 C   0  0  0  0  0  0  0  0  0  0  0  0
   37.6620   25.8210   42.3760 C   0  0  0  0  0  0  0  0  0  0  0  0
   38.2660   24.6330   41.9690 C   0  0  0  0  0  0  0  0  0  0  0  0
   39.4920   24.3450   42.4300 N   0  0  0  0  0  0  0  0  0  0  0  0
   40.1730   25.1600   43.2750 C   0  0  0  0  0  0  0  0  0  0  0  0
   39.6150   26.3050   43.6800 N   0  0  0  0  0  0  0  0  0  0  0  0
   36.6760   26.1140   42.0440 H   0  0  0  0  0  0  0  0  0  0  0  0
   37.7070   24.0050   41.3010 H   0  0  0  0  0  0  0  0  0  0  0  0
   41.1540   24.8240   43.5790 H   0  0  0  0  0  0  0  0  0  0  0  0
   35.7800   28.7600   41.8430 O   0  0  0  0  0  0  0  0  0  0  0  0
   35.6250   27.8570   41.4150 H   0  0  0  0  0  0  0  0  0  0  0  0
   36.2200   30.7220   39.9760 O   0  0  0  0  0  0  0  0  0  0  0  0
   37.8510   31.8480   37.5680 Br  0  0  0  0  0  0  0  0  0  0  0  0
   36.7560   30.3030   37.6100 C   0  0  0  0  0  0  0  0  0  0  0  0
   36.1250   29.9960   38.7960 C   0  0  0  0  0  0  0  0  0  0  0  0
   35.3360   28.8490   38.7620 C   0  0  0  0  0  0  0  0  0  0  0  0
   34.8230   28.5760   39.6830 H   0  0  0  0  0  0  0  0  0  0  0  0
   35.1390   28.0200   37.6690 C   0  0  0  0  0  0  0  0  0  0  0  0
   34.4980   27.1560   37.7760 H   0  0  0  0  0  0  0  0  0  0  0  0
   35.8060   28.3880   36.5010 C   0  0  0  0  0  3  0  0  0  0  0  0
   36.6090   29.5250   36.4780 C   0  0  0  0  0  3  0  0  0  0  0  0
  1 22  1  0  0  0  0
  1  2  1  0  0  0  0
  2 10  1  0  0  0  0
  3  2  2  0  0  0  0
  3  7  1  0  0  0  0
  4  3  1  0  0  0  0
  5  6  1  0  0  0  0
  5  4  2  0  0  0  0
  6  1  2  0  0  0  0
  8  4  1  0  0  0  0
  9  5  1  0  0  0  0
 10 11  1  0  0  0  0
 10 12  1  0  0  0  0
 13 10  1  0  0  0  0
 13 18  1  0  0  0  0
 14 13  2  0  0  0  0
 15 14  1  0  0  0  0
 15 16  2  0  0  0  0
 16 17  1  0  0  0  0
 17 21  1  0  0  0  0
 17 18  2  0  0  0  0
 19 14  1  0  0  0  0
 20 15  1  0  0  0  0
 23 22  1  0  0  0  0
 24  6  1  0  0  0  0
 25 26  1  0  0  0  0
 26 27  1  0  0  0  0
 27 24  1  0  0  0  0
 28 27  2  0  0  0  0
 28 29  1  0  0  0  0
 30 31  1  0  0  0  0
 30 28  1  0  0  0  0
 32 30  2  0  0  0  0
 33 32  1  0  0  0  0
 33 26  2  0  0  0  0
M  END
>  <minimizedAffinity>
-5.57828474

$$$$

 OpenBabel03242512193D

 33 35  0  0  0  0  0  0  0  0999 V2000
   36.6110   30.3580   40.3150 C   0  0  0  0  0  0  0  0  0  0  0  0
   37.0400   31.4460   39.5940 C   0  0  0  0  0  0  0  0  0  0  0  0
   37.1680   31.3260   38.2260 C   0  0  0  0  0  0  0  0  0  0  0  0
   36.8660   30.1230   37.6140 C   0  0  0  0  0  0  0  0  0  0  0  0
   36.4390   29.0570   38.3750 C   0  0  0  0  0  0  0  0  0  0  0  0
   36.3000   29.1510   39.7580 C   0  0  0  0  0  0  0  0  0  0  0  0
   37.5020   32.1830   37.6960 H   0  0  0  0  0  0  0  0  0  0  0  0
   36.9810   30.0750   36.5440 H   0  0  0  0  0  0  0  0  0  0  0  0
   36.2230   28.1540   37.8190 H   0  0  0  0  0  0  0  0  0  0  0  0
   37.3320   32.6730   40.3680 C   0  0  0  0  0  0  0  0  0  0  0  0
   36.8750   32.6770   41.3420 H   0  0  0  0  0  0  0  0  0  0  0  0
   36.8770   33.5330   39.8040 H   0  0  0  0  0  0  0  0  0  0  0  0
   38.8330   32.9050   40.4000 C   0  0  0  0  0  0  0  0  0  0  0  0
   39.6050   31.9850   41.0860 C   0  0  0  0  0  0  0  0  0  0  0  0
   40.9820   32.2010   41.1040 C   0  0  0  0  0  0  0  0  0  0  0  0
   41.4730   33.2730   40.4650 N   0  0  0  0  0  0  0  0  0  0  0  0
   40.6890   34.1580   39.8000 C   0  0  0  0  0  0  0  0  0  0  0  0
   39.3650   33.9730   39.7680 N   0  0  0  0  0  0  0  0  0  0  0  0
   39.1430   31.1430   41.5810 H   0  0  0  0  0  0  0  0  0  0  0  0
   41.5810   31.4860   41.6370 H   0  0  0  0  0  0  0  0  0  0  0  0
   41.1960   34.9840   39.3220 H   0  0  0  0  0  0  0  0  0  0  0  0
   36.4470   30.3810   41.7220 O   0  0  0  0  0  0  0  0  0  0  0  0
   37.2420   30.2900   42.3400 H   0  0  0  0  0  0  0  0  0  0  0  0
   35.8620   28.0230   40.4450 O   0  0  0  0  0  0  0  0  0  0  0  0
   36.5970   27.5520   43.4400 Br  0  0  0  0  0  0  0  0  0  0  0  0
   37.2780   26.6520   41.9200 C   0  0  0  0  0  0  0  0  0  0  0  0
   36.8040   27.0310   40.6830 C   0  0  0  0  0  0  0  0  0  0  0  0
   37.3440   26.3310   39.6070 C   0  0  0  0  0  0  0  0  0  0  0  0
   36.9910   26.6050   38.6130 H   0  0  0  0  0  0  0  0  0  0  0  0
   38.2870   25.3180   39.6770 C   0  0  0  0  0  0  0  0  0  0  0  0
   38.6250   24.8530   38.7600 H   0  0  0  0  0  0  0  0  0  0  0  0
   38.7250   24.9830   40.9570 C   0  0  0  0  0  3  0  0  0  0  0  0
   38.2190   25.6510   42.0700 C   0  0  0  0  0  3  0  0  0  0  0  0
  1 22  1  0  0  0  0
  2  1  2  0  0  0  0
  2 10  1  0  0  0  0
  3  2  1  0  0  0  0
  4  3  2  0  0  0  0
  4  5  1  0  0  0  0
  5  6  2  0  0  0  0
  6  1  1  0  0  0  0
  6 24  1  0  0  0  0
  7  3  1  0  0  0  0
  8  4  1  0  0  0  0
  9  5  1  0  0  0  0
 10 13  1  0  0  0  0
 10 11  1  0  0  0  0
 12 10  1  0  0  0  0
 13 14  1  0  0  0  0
 14 15  2  0  0  0  0
 14 19  1  0  0  0  0
 15 20  1  0  0  0  0
 16 15  1  0  0  0  0
 17 16  2  0  0  0  0
 18 17  1  0  0  0  0
 18 13  2  0  0  0  0
 21 17  1  0  0  0  0
 22 23  1  0  0  0  0
 24 27  1  0  0  0  0
 26 33  1  0  0  0  0
 26 25  1  0  0  0  0
 27 26  2  0  0  0  0
 28 30  2  0  0  0  0
 28 27  1  0  0  0  0
 29 28  1  0  0  0  0
 30 32  1  0  0  0  0
 31 30  1  0  0  0  0
 32 33  2  0  0  0  0
M  END
>  <minimizedAffinity>
-5.44278717

$$$$

 OpenBabel03242512193D

 33 35  0  0  0  0  0  0  0  0999 V2000
   37.2190   28.5330   42.1340 C   0  0  0  0  0  0  0  0  0  0  0  0
   37.7210   27.3810   42.6900 C   0  0  0  0  0  0  0  0  0  0  0  0
   39.0210   27.3790   43.1520 C   0  0  0  0  0  0  0  0  0  0  0  0
   39.7860   28.5260   43.0460 C   0  0  0  0  0  0  0  0  0  0  0  0
   39.2430   29.6600   42.4820 C   0  0  0  0  0  0  0  0  0  0  0  0
   37.9340   29.6900   42.0080 C   0  0  0  0  0  0  0  0  0  0  0  0
   39.3800   26.4750   43.5760 H   0  0  0  0  0  0  0  0  0  0  0  0
   40.7950   28.4790   43.4190 H   0  0  0  0  0  0  0  0  0  0  0  0
   39.9080   30.5130   42.4370 H   0  0  0  0  0  0  0  0  0  0  0  0
   36.8010   26.2230   42.7430 C   0  0  0  0  0  0  0  0  0  0  0  0
   35.7670   26.5080   42.8230 H   0  0  0  0  0  0  0  0  0  0  0  0
   37.0440   25.6540   43.6820 H   0  0  0  0  0  0  0  0  0  0  0  0
   37.0880   25.2970   41.5740 C   0  0  0  0  0  0  0  0  0  0  0  0
   37.7010   24.0900   41.8530 C   0  0  0  0  0  0  0  0  0  0  0  0
   37.9530   23.2420   40.7760 C   0  0  0  0  0  0  0  0  0  0  0  0
   37.5920   23.6390   39.5470 N   0  0  0  0  0  0  0  0  0  0  0  0
   36.9900   24.8310   39.3050 C   0  0  0  0  0  0  0  0  0  0  0  0
   36.7380   25.6620   40.3210 N   0  0  0  0  0  0  0  0  0  0  0  0
   37.9680   23.8320   42.8680 H   0  0  0  0  0  0  0  0  0  0  0  0
   38.4310   22.3040   40.9930 H   0  0  0  0  0  0  0  0  0  0  0  0
   36.7450   25.0440   38.2740 H   0  0  0  0  0  0  0  0  0  0  0  0
   35.8990   28.6360   41.6320 O   0  0  0  0  0  0  0  0  0  0  0  0
   35.6590   28.2690   40.7220 H   0  0  0  0  0  0  0  0  0  0  0  0
   37.4700   30.8790   41.4530 O   0  0  0  0  0  0  0  0  0  0  0  0
   37.3390   29.9450   38.4800 Br  0  0  0  0  0  0  0  0  0  0  0  0
   38.4390   31.2920   39.2280 C   0  0  0  0  0  0  0  0  0  0  0  0
   38.3260   31.5370   40.5790 C   0  0  0  0  0  0  0  0  0  0  0  0
   39.1610   32.5390   41.0670 C   0  0  0  0  0  0  0  0  0  0  0  0
   39.0970   32.7590   42.1320 H   0  0  0  0  0  0  0  0  0  0  0  0
   40.0660   33.2860   40.3290 C   0  0  0  0  0  0  0  0  0  0  0  0
   40.6580   34.0380   40.8320 H   0  0  0  0  0  0  0  0  0  0  0  0
   40.1310   32.9880   38.9690 C   0  0  0  0  0  3  0  0  0  0  0  0
   39.3180   31.9950   38.4260 C   0  0  0  0  0  3  0  0  0  0  0  0
  1  2  1  0  0  0  0
  2 10  1  0  0  0  0
  2  3  2  0  0  0  0
  3  7  1  0  0  0  0
  4  3  1  0  0  0  0
  4  8  1  0  0  0  0
  5  4  2  0  0  0  0
  6  1  2  0  0  0  0
  6  5  1  0  0  0  0
  9  5  1  0  0  0  0
 10 11  1  0  0  0  0
 10 12  1  0  0  0  0
 13 14  1  0  0  0  0
 13 10  1  0  0  0  0
 14 19  1  0  0  0  0
 15 20  1  0  0  0  0
 15 14  2  0  0  0  0
 16 15  1  0  0  0  0
 17 16  2  0  0  0  0
 17 18  1  0  0  0  0
 18 13  2  0  0  0  0
 21 17  1  0  0  0  0
 22  1  1  0  0  0  0
 23 22  1  0  0  0  0
 24  6  1  0  0  0  0
 25 26  1  0  0  0  0
 26 27  1  0  0  0  0
 27 28  2  0  0  0  0
 27 24  1  0  0  0  0
 28 29  1  0  0  0  0
 30 31  1  0  0  0  0
 30 28  1  0  0  0  0
 32 30  2  0  0  0  0
 33 32  1  0  0  0  0
 33 26  2  0  0  0  0
M  END
>  <minimizedAffinity>
-5.38426256

$$$$

 OpenBabel03242512193D

 33 35  0  0  0  0  0  0  0  0999 V2000
   37.0410   29.7980   39.5550 C   0  0  0  0  0  0  0  0  0  0  0  0
   37.0460   30.3080   38.2800 C   0  0  0  0  0  0  0  0  0  0  0  0
   37.1690   31.6720   38.1120 C   0  0  0  0  0  0  0  0  0  0  0  0
   37.2820   32.4900   39.2220 C   0  0  0  0  0  0  0  0  0  0  0  0
   37.2730   31.9360   40.4820 C   0  0  0  0  0  0  0  0  0  0  0  0
   37.1510   30.5630   40.6810 C   0  0  0  0  0  0  0  0  0  0  0  0
   37.1690   32.0370   37.1150 H   0  0  0  0  0  0  0  0  0  0  0  0
   37.3760   33.5480   39.0430 H   0  0  0  0  0  0  0  0  0  0  0  0
   37.3670   32.6450   41.2950 H   0  0  0  0  0  0  0  0  0  0  0  0
   36.9160   29.3280   37.1800 C   0  0  0  0  0  0  0  0  0  0  0  0
   37.3770   28.3810   37.3990 H   0  0  0  0  0  0  0  0  0  0  0  0
   37.4690   29.7500   36.2960 H   0  0  0  0  0  0  0  0  0  0  0  0
   35.4550   29.2110   36.7770 C   0  0  0  0  0  0  0  0  0  0  0  0
   35.1590   29.2810   35.4280 C   0  0  0  0  0  0  0  0  0  0  0  0
   33.8180   29.1650   35.0670 C   0  0  0  0  0  0  0  0  0  0  0  0
   32.9040   28.9970   36.0330 N   0  0  0  0  0  0  0  0  0  0  0  0
   33.2260   28.9320   37.3500 C   0  0  0  0  0  0  0  0  0  0  0  0
   34.5050   29.0400   37.7220 N   0  0  0  0  0  0  0  0  0  0  0  0
   35.9460   29.4190   34.7000 H   0  0  0  0  0  0  0  0  0  0  0  0
   33.5880   29.2190   34.0190 H   0  0  0  0  0  0  0  0  0  0  0  0
   32.4050   28.7940   38.0390 H   0  0  0  0  0  0  0  0  0  0  0  0
   36.9200   28.4140   39.8320 O   0  0  0  0  0  0  0  0  0  0  0  0
   36.0200   27.9550   39.8040 H   0  0  0  0  0  0  0  0  0  0  0  0
   37.1510   30.0920   41.9910 O   0  0  0  0  0  0  0  0  0  0  0  0
   36.6150   27.3320   43.3410 Br  0  0  0  0  0  0  0  0  0  0  0  0
   38.2850   28.1660   43.0220 C   0  0  0  0  0  0  0  0  0  0  0  0
   38.2810   29.3980   42.4050 C   0  0  0  0  0  0  0  0  0  0  0  0
   39.5390   29.9570   42.1990 C   0  0  0  0  0  0  0  0  0  0  0  0
   39.5720   30.9320   41.7130 H   0  0  0  0  0  0  0  0  0  0  0  0
   40.7550   29.3940   42.5520 C   0  0  0  0  0  0  0  0  0  0  0  0
   41.6660   29.9360   42.3350 H   0  0  0  0  0  0  0  0  0  0  0  0
   40.6900   28.1480   43.1730 C   0  0  0  0  0  3  0  0  0  0  0  0
   39.4570   27.5410   43.4040 C   0  0  0  0  0  3  0  0  0  0  0  0
  1 22  1  0  0  0  0
  1  6  1  0  0  0  0
  2  1  2  0  0  0  0
  3  2  1  0  0  0  0
  3  4  2  0  0  0  0
  4  5  1  0  0  0  0
  5  6  2  0  0  0  0
  5  9  1  0  0  0  0
  6 24  1  0  0  0  0
  7  3  1  0  0  0  0
  8  4  1  0  0  0  0
 10 11  1  0  0  0  0
 10  2  1  0  0  0  0
 12 10  1  0  0  0  0
 13 10  1  0  0  0  0
 13 18  1  0  0  0  0
 14 13  2  0  0  0  0
 15 14  1  0  0  0  0
 15 16  2  0  0  0  0
 16 17  1  0  0  0  0
 17 18  2  0  0  0  0
 17 21  1  0  0  0  0
 19 14  1  0  0  0  0
 20 15  1  0  0  0  0
 23 22  1  0  0  0  0
 24 27  1  0  0  0  0
 26 25  1  0  0  0  0
 26 33  1  0  0  0  0
 27 26  2  0  0  0  0
 28 27  1  0  0  0  0
 28 30  2  0  0  0  0
 29 28  1  0  0  0  0
 30 32  1  0  0  0  0
 31 30  1  0  0  0  0
 32 33  2  0  0  0  0
M  END
>  <minimizedAffinity>
-5.38175106

$$$$
