
 OpenBabel03252509263D

 30 32  0  0  1  0  0  0  0  0999 V2000
   46.8070   35.1500   41.8910 C   0  0  1  0  0  0  0  0  0  0  0  0
   48.3150   35.5110   41.9530 C   0  0  0  0  0  0  0  0  0  0  0  0
   47.6980   34.2750   41.2490 C   0  0  2  0  0  0  0  0  0  0  0  0
   46.1920   35.9040   41.3560 H   0  0  0  0  0  0  0  0  0  0  0  0
   48.5940   36.3530   41.2890 H   0  0  0  0  0  0  0  0  0  0  0  0
   48.8600   35.3490   42.8900 H   0  0  0  0  0  0  0  0  0  0  0  0
   48.0390   33.3110   41.7410 H   0  0  0  0  0  0  0  0  0  0  0  0
   44.8200   35.1410   45.0740 C   0  0  0  0  0  0  0  0  0  0  0  0
   45.2870   35.5740   43.8000 C   0  0  0  0  0  0  0  0  0  0  0  0
   46.2850   34.8250   43.2720 C   0  0  0  0  0  0  0  0  0  0  0  0
   46.8140   33.7200   43.9260 N   0  0  0  0  0  0  0  0  0  0  0  0
   46.3260   33.3590   45.1390 C   0  0  0  0  0  0  0  0  0  0  0  0
   45.3240   34.0800   45.7060 N   0  0  0  0  0  0  0  0  0  0  0  0
   44.0210   35.7040   45.5400 H   0  0  0  0  0  0  0  0  0  0  0  0
   46.8420   32.4840   45.5110 H   0  0  0  0  0  0  0  0  0  0  0  0
   44.7800   36.7120   43.1490 N   0  0  0  0  0  0  0  0  0  0  0  0
   44.1900   36.3960   42.3530 H   0  0  0  0  0  0  0  0  0  0  0  0
   45.0160   37.6880   43.4860 H   0  0  0  0  0  0  0  0  0  0  0  0
   47.7790   34.1750   39.7440 C   0  0  0  0  0  0  0  0  0  0  0  0
   47.5100   35.1460   39.2600 H   0  0  0  0  0  0  0  0  0  0  0  0
   48.8220   33.9490   39.4750 H   0  0  0  0  0  0  0  0  0  0  0  0
   49.5230   31.7970   38.9510 Br  0  0  0  0  0  0  0  0  0  0  0  0
   47.6290   31.9350   38.8530 C   0  0  0  0  0  0  0  0  0  0  0  0
   46.9360   33.0770   39.2470 C   0  0  0  0  0  0  0  0  0  0  0  0
   45.5670   33.1010   39.1450 C   0  0  0  0  0  0  0  0  0  0  0  0
   45.1020   34.0280   39.4720 H   0  0  0  0  0  0  0  0  0  0  0  0
   44.7920   32.0630   38.6750 C   0  0  0  0  0  0  0  0  0  0  0  0
   43.7330   32.1140   38.6090 H   0  0  0  0  0  0  0  0  0  0  0  0
   45.5090   30.9330   38.2880 C   0  0  0  0  0  3  0  0  0  0  0  0
   46.8790   30.8650   38.3720 C   0  0  0  0  0  3  0  0  0  0  0  0
  1  4  1  6  0  0  0
  1  2  1  0  0  0  0
  1 10  1  0  0  0  0
  2  6  1  0  0  0  0
  3  7  1  1  0  0  0
  3  1  1  0  0  0  0
  3  2  1  0  0  0  0
  5  2  1  0  0  0  0
  8 14  1  0  0  0  0
  8 13  1  0  0  0  0
  9  8  2  0  0  0  0
 10  9  1  0  0  0  0
 10 11  2  0  0  0  0
 11 12  1  0  0  0  0
 12 15  1  0  0  0  0
 12 13  2  0  0  0  0
 16 18  1  0  0  0  0
 16  9  1  0  0  0  0
 17 16  1  0  0  0  0
 19  3  1  0  0  0  0
 20 19  1  0  0  0  0
 21 19  1  0  0  0  0
 23 22  1  0  0  0  0
 23 24  1  0  0  0  0
 24 19  1  0  0  0  0
 25 24  2  0  0  0  0
 25 26  1  0  0  0  0
 27 25  1  0  0  0  0
 28 27  1  0  0  0  0
 29 30  1  0  0  0  0
 29 27  2  0  0  0  0
 30 23  2  0  0  0  0
M  END
>  <minimizedAffinity>
-4.65323448

>  <minimizedRMSD>
2.15406466

$$$$
