
 OpenBabel03242515463D

 41 44  0  0  1  0  0  0  0  0999 V2000
   40.1230   34.9900   40.5450 C   0  0  0  0  0  0  0  0  0  0  0  0
   41.1950   34.2470   41.0400 C   0  0  0  0  0  0  0  0  0  0  0  0
   41.1810   32.8670   41.0180 C   0  0  0  0  0  0  0  0  0  0  0  0
   40.1020   32.1940   40.5020 C   0  0  0  0  0  0  0  0  0  0  0  0
   39.0310   32.9100   40.0060 C   0  0  0  0  0  0  0  0  0  0  0  0
   39.0160   34.2820   40.0160 C   0  0  0  0  0  0  0  0  0  0  0  0
   38.0950   31.9570   39.5540 O   0  0  0  0  0  0  0  0  0  0  0  0
   38.4630   30.7290   40.0400 C   0  0  2  0  0  0  0  0  0  0  0  0
   39.8340   30.8290   40.3590 O   0  0  0  0  0  0  0  0  0  0  0  0
   40.0570   36.0700   40.5270 H   0  0  0  0  0  0  0  0  0  0  0  0
   42.0580   32.3870   41.4260 H   0  0  0  0  0  0  0  0  0  0  0  0
   38.1770   34.8440   39.6270 H   0  0  0  0  0  0  0  0  0  0  0  0
   37.9480   30.5950   41.0350 H   0  0  0  0  0  0  0  0  0  0  0  0
   37.5950   28.1990   41.6820 Br  0  0  0  0  0  0  0  0  0  0  0  0
   37.7360   28.3600   39.7770 C   0  0  0  0  0  0  0  0  0  0  0  0
   38.1400   29.5680   39.2010 C   0  0  0  0  0  0  0  0  0  0  0  0
   38.2190   29.6120   37.8240 C   0  0  0  0  0  0  0  0  0  0  0  0
   38.5230   30.5050   37.3050 H   0  0  0  0  0  0  0  0  0  0  0  0
   37.9110   28.5050   37.0330 C   0  0  0  0  0  0  0  0  0  0  0  0
   37.9780   28.5580   35.9510 H   0  0  0  0  0  0  0  0  0  0  0  0
   37.5130   27.3200   37.6000 C   0  0  0  0  0  3  0  0  0  0  0  0
   37.4360   27.2790   38.9760 C   0  0  0  0  0  3  0  0  0  0  0  0
   42.5190   35.2880   41.6530 S   0  0  0  0  0  0  0  0  0  0  0  0
   44.1250   34.6380   41.0770 C   0  0  0  0  0  0  0  0  0  0  0  0
   44.1590   34.2050   39.8030 C   0  0  0  0  0  0  0  0  0  0  0  0
   45.3860   33.6940   39.3810 C   0  0  0  0  0  0  0  0  0  0  0  0
   46.4500   33.6450   40.2040 N   0  0  0  0  0  0  0  0  0  0  0  0
   46.3630   34.0930   41.4730 C   0  0  0  0  0  0  0  0  0  0  0  0
   45.1880   34.5800   41.8700 N   0  0  0  0  0  0  0  0  0  0  0  0
   45.5360   33.1830   38.0400 N   0  0  0  0  0  0  0  0  0  0  0  0
   45.4360   33.7270   37.1320 H   0  0  0  0  0  0  0  0  0  0  0  0
   45.7670   32.1750   37.9700 H   0  0  0  0  0  0  0  0  0  0  0  0
   43.1720   34.1580   38.6790 C   0  0  0  0  0  0  0  0  0  0  0  0
   42.4110   34.9260   38.9320 H   0  0  0  0  0  0  0  0  0  0  0  0
   42.7520   33.1490   38.6450 H   0  0  0  0  0  0  0  0  0  0  0  0
   43.6240   34.5110   37.7260 H   0  0  0  0  0  0  0  0  0  0  0  0
   47.3960   34.0870   42.3870 O   0  0  0  0  0  0  0  0  0  0  0  0
   48.6400   34.6270   41.9760 C   0  0  0  0  0  0  0  0  0  0  0  0
   49.3410   33.7430   41.2110 F   0  0  0  0  0  0  0  0  0  0  0  0
   48.3510   35.8080   41.2720 F   0  0  0  0  0  0  0  0  0  0  0  0
   49.3900   34.8950   43.1020 F   0  0  0  0  0  0  0  0  0  0  0  0
  1  2  1  0  0  0  0
  2 23  1  0  0  0  0
  3  2  2  0  0  0  0
  3 11  1  0  0  0  0
  4  3  1  0  0  0  0
  5  6  1  0  0  0  0
  5  4  2  0  0  0  0
  6  1  2  0  0  0  0
  7  5  1  0  0  0  0
  7  8  1  0  0  0  0
  8  9  1  0  0  0  0
  8 13  1  1  0  0  0
  9  4  1  0  0  0  0
 10  1  1  0  0  0  0
 12  6  1  0  0  0  0
 15 14  1  0  0  0  0
 16 15  1  0  0  0  0
 16  8  1  0  0  0  0
 17 16  2  0  0  0  0
 18 17  1  0  0  0  0
 19 21  2  0  0  0  0
 19 17  1  0  0  0  0
 20 19  1  0  0  0  0
 21 22  1  0  0  0  0
 22 15  2  0  0  0  0
 24 23  1  0  0  0  0
 24 29  1  0  0  0  0
 25 24  2  0  0  0  0
 26 25  1  0  0  0  0
 26 27  2  0  0  0  0
 27 28  1  0  0  0  0
 28 29  2  0  0  0  0
 28 37  1  0  0  0  0
 30 26  1  0  0  0  0
 31 30  1  0  0  0  0
 32 30  1  0  0  0  0
 33 34  1  0  0  0  0
 33 25  1  0  0  0  0
 35 33  1  0  0  0  0
 36 33  1  0  0  0  0
 38 37  1  0  0  0  0
 38 41  1  0  0  0  0
 39 38  1  0  0  0  0
 40 38  1  0  0  0  0
M  END
>  <minimizedAffinity>
-5.73621893

>  <minimizedRMSD>
1.71733499

$$$$
