
 OpenBabel03252504253D

 21 22  0  0  0  0  0  0  0  0999 V2000
   35.5590   28.8290   40.7150 C   0  0  0  0  0  0  0  0  0  0  0  0
   35.1380   28.1820   39.9170 H   0  0  0  0  0  0  0  0  0  0  0  0
   34.7220   29.0870   41.3950 H   0  0  0  0  0  0  0  0  0  0  0  0
   36.4310   30.0770   38.8040 C   0  0  0  0  0  0  0  0  0  0  0  0
   36.1740   30.0580   40.1860 C   0  0  0  0  0  0  0  0  0  0  0  0
   36.5200   31.1870   40.9120 C   0  0  0  0  0  0  0  0  0  0  0  0
   37.0830   32.2400   40.2560 N   0  0  0  0  0  0  0  0  0  0  0  0
   37.3130   32.2130   38.9250 C   0  0  0  0  0  0  0  0  0  0  0  0
   36.9910   31.1260   38.1610 N   0  0  0  0  0  0  0  0  0  0  0  0
   36.1830   29.2290   38.1930 H   0  0  0  0  0  0  0  0  0  0  0  0
   36.3200   31.1570   41.9490 H   0  0  0  0  0  0  0  0  0  0  0  0
   37.7590   33.0340   38.3780 H   0  0  0  0  0  0  0  0  0  0  0  0
   36.4330   26.3650   39.1640 Br  0  0  0  0  0  0  0  0  0  0  0  0
   37.0540   26.8600   40.9020 C   0  0  0  0  0  0  0  0  0  0  0  0
   36.5550   28.0170   41.4720 C   0  0  0  0  0  0  0  0  0  0  0  0
   36.9640   28.4350   42.7330 C   0  0  0  0  0  0  0  0  0  0  0  0
   36.5530   29.3540   43.1600 H   0  0  0  0  0  0  0  0  0  0  0  0
   37.8950   27.6630   43.4220 C   0  0  0  0  0  0  0  0  0  0  0  0
   38.2080   27.9940   44.4010 H   0  0  0  0  0  0  0  0  0  0  0  0
   38.4010   26.4950   42.8520 C   0  0  0  0  0  3  0  0  0  0  0  0
   37.9770   26.0960   41.5890 C   0  0  0  0  0  3  0  0  0  0  0  0
  1  3  1  0  0  0  0
  1 15  1  0  0  0  0
  2  1  1  0  0  0  0
  4  5  1  0  0  0  0
  5  1  1  0  0  0  0
  5  6  2  0  0  0  0
  6 11  1  0  0  0  0
  7  6  1  0  0  0  0
  8  7  2  0  0  0  0
  9  4  2  0  0  0  0
  9  8  1  0  0  0  0
 10  4  1  0  0  0  0
 12  8  1  0  0  0  0
 13 14  1  0  0  0  0
 14 15  2  0  0  0  0
 14 21  1  0  0  0  0
 15 16  1  0  0  0  0
 16 17  1  0  0  0  0
 16 18  2  0  0  0  0
 18 19  1  0  0  0  0
 20 18  1  0  0  0  0
 21 20  2  0  0  0  0
M  END
>  <minimizedAffinity>
-4.47413635

$$$$

 OpenBabel03252504253D

 21 22  0  0  0  0  0  0  0  0999 V2000
   36.2230   30.6570   40.9480 C   0  0  0  0  0  0  0  0  0  0  0  0
   36.4900   31.6700   41.3140 H   0  0  0  0  0  0  0  0  0  0  0  0
   35.1260   30.5490   41.0700 H   0  0  0  0  0  0  0  0  0  0  0  0
   38.1960   29.9000   42.1740 C   0  0  0  0  0  0  0  0  0  0  0  0
   36.9180   29.5850   41.6810 C   0  0  0  0  0  0  0  0  0  0  0  0
   36.4380   28.3080   41.9290 C   0  0  0  0  0  0  0  0  0  0  0  0
   37.2200   27.4390   42.6270 N   0  0  0  0  0  0  0  0  0  0  0  0
   38.4440   27.7870   43.0830 C   0  0  0  0  0  0  0  0  0  0  0  0
   38.9660   29.0310   42.8670 N   0  0  0  0  0  0  0  0  0  0  0  0
   38.6170   30.8750   42.0110 H   0  0  0  0  0  0  0  0  0  0  0  0
   35.4760   28.0880   41.5510 H   0  0  0  0  0  0  0  0  0  0  0  0
   39.0870   27.1170   43.6400 H   0  0  0  0  0  0  0  0  0  0  0  0
   37.8580   33.0610   40.0600 Br  0  0  0  0  0  0  0  0  0  0  0  0
   37.2890   31.6290   38.9300 C   0  0  0  0  0  0  0  0  0  0  0  0
   36.5480   30.6050   39.4930 C   0  0  0  0  0  0  0  0  0  0  0  0
   36.1020   29.5330   38.7280 C   0  0  0  0  0  0  0  0  0  0  0  0
   35.5180   28.7370   39.1980 H   0  0  0  0  0  0  0  0  0  0  0  0
   36.4170   29.5040   37.3730 C   0  0  0  0  0  0  0  0  0  0  0  0
   36.0670   28.6680   36.7860 H   0  0  0  0  0  0  0  0  0  0  0  0
   37.1630   30.5340   36.8000 C   0  0  0  0  0  3  0  0  0  0  0  0
   37.5980   31.5970   37.5850 C   0  0  0  0  0  3  0  0  0  0  0  0
  1  3  1  0  0  0  0
  1  2  1  0  0  0  0
  1  5  1  0  0  0  0
  4  9  1  0  0  0  0
  5  6  1  0  0  0  0
  5  4  2  0  0  0  0
  6  7  2  0  0  0  0
  7  8  1  0  0  0  0
  8 12  1  0  0  0  0
  9  8  2  0  0  0  0
 10  4  1  0  0  0  0
 11  6  1  0  0  0  0
 14 15  1  0  0  0  0
 14 13  1  0  0  0  0
 15  1  1  0  0  0  0
 16 17  1  0  0  0  0
 16 15  2  0  0  0  0
 18 16  1  0  0  0  0
 19 18  1  0  0  0  0
 20 18  2  0  0  0  0
 20 21  1  0  0  0  0
 21 14  2  0  0  0  0
M  END
>  <minimizedAffinity>
-4.41209173

$$$$

 OpenBabel03252504253D

 21 22  0  0  0  0  0  0  0  0999 V2000
   37.6550   28.3040   43.3920 C   0  0  0  0  0  0  0  0  0  0  0  0
   38.3640   28.9830   43.9080 H   0  0  0  0  0  0  0  0  0  0  0  0
   36.7730   28.1940   44.0560 H   0  0  0  0  0  0  0  0  0  0  0  0
   39.5260   26.7500   43.6190 C   0  0  0  0  0  0  0  0  0  0  0  0
   38.2380   26.9810   43.1080 C   0  0  0  0  0  0  0  0  0  0  0  0
   37.6440   25.9530   42.3920 C   0  0  0  0  0  0  0  0  0  0  0  0
   38.3330   24.7900   42.2240 N   0  0  0  0  0  0  0  0  0  0  0  0
   39.5710   24.6120   42.7350 C   0  0  0  0  0  0  0  0  0  0  0  0
   40.2030   25.5920   43.4480 N   0  0  0  0  0  0  0  0  0  0  0  0
   40.0330   27.5120   44.1820 H   0  0  0  0  0  0  0  0  0  0  0  0
   36.6760   26.1430   42.0140 H   0  0  0  0  0  0  0  0  0  0  0  0
   40.1410   23.6990   42.6170 H   0  0  0  0  0  0  0  0  0  0  0  0
   39.5990   30.4800   42.5410 Br  0  0  0  0  0  0  0  0  0  0  0  0
   38.0010   29.9940   41.6110 C   0  0  0  0  0  0  0  0  0  0  0  0
   37.2220   28.9780   42.1340 C   0  0  0  0  0  0  0  0  0  0  0  0
   36.0470   28.5750   41.5090 C   0  0  0  0  0  0  0  0  0  0  0  0
   35.4500   27.7680   41.9430 H   0  0  0  0  0  0  0  0  0  0  0  0
   35.6630   29.2160   40.3350 C   0  0  0  0  0  0  0  0  0  0  0  0
   34.7490   28.8970   39.8550 H   0  0  0  0  0  0  0  0  0  0  0  0
   36.4440   30.2420   39.8040 C   0  0  0  0  0  3  0  0  0  0  0  0
   37.6150   30.6280   40.4470 C   0  0  0  0  0  3  0  0  0  0  0  0
  1  2  1  0  0  0  0
  1  3  1  0  0  0  0
  4 10  1  0  0  0  0
  5  1  1  0  0  0  0
  5  4  2  0  0  0  0
  6  5  1  0  0  0  0
  7  6  2  0  0  0  0
  7  8  1  0  0  0  0
  8  9  2  0  0  0  0
  9  4  1  0  0  0  0
 11  6  1  0  0  0  0
 12  8  1  0  0  0  0
 14 15  1  0  0  0  0
 14 13  1  0  0  0  0
 15  1  1  0  0  0  0
 16 17  1  0  0  0  0
 16 15  2  0  0  0  0
 18 16  1  0  0  0  0
 19 18  1  0  0  0  0
 20 18  2  0  0  0  0
 20 21  1  0  0  0  0
 21 14  2  0  0  0  0
M  END
>  <minimizedAffinity>
-4.35848904

$$$$

 OpenBabel03252504253D

 21 22  0  0  0  0  0  0  0  0999 V2000
   36.9410   27.3340   42.5890 C   0  0  0  0  0  0  0  0  0  0  0  0
   36.2000   26.5390   42.3650 H   0  0  0  0  0  0  0  0  0  0  0  0
   36.6100   27.8270   43.5260 H   0  0  0  0  0  0  0  0  0  0  0  0
   36.9190   29.6760   41.8930 C   0  0  0  0  0  0  0  0  0  0  0  0
   37.0510   28.3300   41.5100 C   0  0  0  0  0  0  0  0  0  0  0  0
   37.2710   28.0710   40.1650 C   0  0  0  0  0  0  0  0  0  0  0  0
   37.3460   29.1200   39.3000 N   0  0  0  0  0  0  0  0  0  0  0  0
   37.2130   30.4000   39.7150 C   0  0  0  0  0  0  0  0  0  0  0  0
   36.9940   30.7120   41.0270 N   0  0  0  0  0  0  0  0  0  0  0  0
   36.7480   29.9350   42.9210 H   0  0  0  0  0  0  0  0  0  0  0  0
   37.3680   27.0550   39.8950 H   0  0  0  0  0  0  0  0  0  0  0  0
   37.2670   31.2520   39.0490 H   0  0  0  0  0  0  0  0  0  0  0  0
   36.9630   24.4580   41.6060 Br  0  0  0  0  0  0  0  0  0  0  0  0
   38.4270   25.3540   42.4480 C   0  0  0  0  0  0  0  0  0  0  0  0
   38.2520   26.6700   42.8380 C   0  0  0  0  0  0  0  0  0  0  0  0
   39.2750   27.3810   43.4570 C   0  0  0  0  0  0  0  0  0  0  0  0
   39.1110   28.4190   43.7540 H   0  0  0  0  0  0  0  0  0  0  0  0
   40.4910   26.7410   43.6780 C   0  0  0  0  0  0  0  0  0  0  0  0
   41.2810   27.3000   44.1590 H   0  0  0  0  0  0  0  0  0  0  0  0
   40.6720   25.4150   43.2880 C   0  0  0  0  0  3  0  0  0  0  0  0
   39.6340   24.7240   42.6710 C   0  0  0  0  0  3  0  0  0  0  0  0
  1 15  1  0  0  0  0
  1  3  1  0  0  0  0
  2  1  1  0  0  0  0
  4 10  1  0  0  0  0
  5  4  1  0  0  0  0
  5  1  1  0  0  0  0
  6  5  2  0  0  0  0
  7  8  2  0  0  0  0
  7  6  1  0  0  0  0
  8  9  1  0  0  0  0
  9  4  2  0  0  0  0
 11  6  1  0  0  0  0
 12  8  1  0  0  0  0
 13 14  1  0  0  0  0
 14 21  2  0  0  0  0
 14 15  1  0  0  0  0
 15 16  2  0  0  0  0
 16 18  1  0  0  0  0
 16 17  1  0  0  0  0
 18 19  1  0  0  0  0
 20 18  2  0  0  0  0
 21 20  1  0  0  0  0
M  END
>  <minimizedAffinity>
-4.33458328

$$$$

 OpenBabel03252504253D

 21 22  0  0  0  0  0  0  0  0999 V2000
   38.1300   28.3140   43.1730 C   0  0  0  0  0  0  0  0  0  0  0  0
   37.2770   28.5010   43.8570 H   0  0  0  0  0  0  0  0  0  0  0  0
   39.0550   28.5330   43.7440 H   0  0  0  0  0  0  0  0  0  0  0  0
   36.9300   29.9410   41.8000 C   0  0  0  0  0  0  0  0  0  0  0  0
   38.0800   29.1480   41.9590 C   0  0  0  0  0  0  0  0  0  0  0  0
   39.0470   29.2250   40.9690 C   0  0  0  0  0  0  0  0  0  0  0  0
   38.8350   30.0530   39.9090 N   0  0  0  0  0  0  0  0  0  0  0  0
   37.7130   30.7990   39.7980 C   0  0  0  0  0  0  0  0  0  0  0  0
   36.7270   30.7610   40.7440 N   0  0  0  0  0  0  0  0  0  0  0  0
   36.1490   29.9210   42.5370 H   0  0  0  0  0  0  0  0  0  0  0  0
   39.9040   28.6220   41.1040 H   0  0  0  0  0  0  0  0  0  0  0  0
   37.5170   31.4650   38.9670 H   0  0  0  0  0  0  0  0  0  0  0  0
   40.8230   26.9980   43.6800 Br  0  0  0  0  0  0  0  0  0  0  0  0
   39.2690   26.1180   42.9980 C   0  0  0  0  0  0  0  0  0  0  0  0
   38.1170   26.8640   42.8250 C   0  0  0  0  0  0  0  0  0  0  0  0
   36.9510   26.2880   42.3330 C   0  0  0  0  0  0  0  0  0  0  0  0
   36.0540   26.9000   42.2060 H   0  0  0  0  0  0  0  0  0  0  0  0
   36.9600   24.9320   42.0160 C   0  0  0  0  0  0  0  0  0  0  0  0
   36.0510   24.4920   41.6340 H   0  0  0  0  0  0  0  0  0  0  0  0
   38.1190   24.1760   42.1880 C   0  0  0  0  0  3  0  0  0  0  0  0
   39.2740   24.7750   42.6810 C   0  0  0  0  0  3  0  0  0  0  0  0
  1  3  1  0  0  0  0
  1  2  1  0  0  0  0
  4  5  1  0  0  0  0
  4 10  1  0  0  0  0
  5  1  1  0  0  0  0
  6 11  1  0  0  0  0
  6  5  2  0  0  0  0
  7  6  1  0  0  0  0
  8  7  2  0  0  0  0
  8  9  1  0  0  0  0
  9  4  2  0  0  0  0
 12  8  1  0  0  0  0
 14 13  1  0  0  0  0
 15 14  1  0  0  0  0
 15  1  1  0  0  0  0
 16 15  2  0  0  0  0
 17 16  1  0  0  0  0
 18 20  2  0  0  0  0
 18 16  1  0  0  0  0
 19 18  1  0  0  0  0
 20 21  1  0  0  0  0
 21 14  2  0  0  0  0
M  END
>  <minimizedAffinity>
-4.29063177

$$$$

 OpenBabel03252504253D

 21 22  0  0  0  0  0  0  0  0999 V2000
   35.6920   28.7330   40.9090 C   0  0  0  0  0  0  0  0  0  0  0  0
   34.8330   29.0780   41.5200 H   0  0  0  0  0  0  0  0  0  0  0  0
   35.2900   28.0200   40.1610 H   0  0  0  0  0  0  0  0  0  0  0  0
   37.7250   27.3810   40.9980 C   0  0  0  0  0  0  0  0  0  0  0  0
   36.7380   28.0790   41.7140 C   0  0  0  0  0  0  0  0  0  0  0  0
   36.8410   28.0860   43.0970 C   0  0  0  0  0  0  0  0  0  0  0  0
   37.8790   27.4250   43.6790 N   0  0  0  0  0  0  0  0  0  0  0  0
   38.8070   26.7660   42.9490 C   0  0  0  0  0  0  0  0  0  0  0  0
   38.7540   26.7270   41.5840 N   0  0  0  0  0  0  0  0  0  0  0  0
   37.6950   27.3440   39.9250 H   0  0  0  0  0  0  0  0  0  0  0  0
   36.0910   28.6150   43.6200 H   0  0  0  0  0  0  0  0  0  0  0  0
   39.6420   26.2320   43.3850 H   0  0  0  0  0  0  0  0  0  0  0  0
   35.7460   28.3140   37.8990 Br  0  0  0  0  0  0  0  0  0  0  0  0
   36.3280   29.8900   38.8100 C   0  0  0  0  0  0  0  0  0  0  0  0
   36.2370   29.9200   40.1890 C   0  0  0  0  0  0  0  0  0  0  0  0
   36.6430   31.0350   40.9150 C   0  0  0  0  0  0  0  0  0  0  0  0
   36.5600   31.0330   42.0050 H   0  0  0  0  0  0  0  0  0  0  0  0
   37.1470   32.1330   40.2240 C   0  0  0  0  0  0  0  0  0  0  0  0
   37.4610   32.9940   40.7940 H   0  0  0  0  0  0  0  0  0  0  0  0
   37.2420   32.1070   38.8320 C   0  0  0  0  0  3  0  0  0  0  0  0
   36.8300   30.9800   38.1280 C   0  0  0  0  0  3  0  0  0  0  0  0
  1  2  1  0  0  0  0
  1  5  1  0  0  0  0
  3  1  1  0  0  0  0
  4  9  2  0  0  0  0
  4  5  1  0  0  0  0
  5  6  2  0  0  0  0
  6 11  1  0  0  0  0
  6  7  1  0  0  0  0
  8 12  1  0  0  0  0
  8  7  2  0  0  0  0
  9  8  1  0  0  0  0
 10  4  1  0  0  0  0
 13 14  1  0  0  0  0
 14 15  1  0  0  0  0
 15  1  1  0  0  0  0
 15 16  2  0  0  0  0
 16 17  1  0  0  0  0
 18 19  1  0  0  0  0
 18 16  1  0  0  0  0
 20 18  2  0  0  0  0
 21 14  2  0  0  0  0
 21 20  1  0  0  0  0
M  END
>  <minimizedAffinity>
-4.26399708

$$$$

 OpenBabel03252504253D

 21 22  0  0  0  0  0  0  0  0999 V2000
   36.7850   31.2320   41.0010 C   0  0  0  0  0  0  0  0  0  0  0  0
   35.8690   31.1430   40.3820 H   0  0  0  0  0  0  0  0  0  0  0  0
   36.5540   31.9460   41.8170 H   0  0  0  0  0  0  0  0  0  0  0  0
   38.5420   32.8980   40.6810 C   0  0  0  0  0  0  0  0  0  0  0  0
   37.9490   31.7060   40.2330 C   0  0  0  0  0  0  0  0  0  0  0  0
   38.5100   31.0950   39.1210 C   0  0  0  0  0  0  0  0  0  0  0  0
   39.5910   31.6760   38.5310 N   0  0  0  0  0  0  0  0  0  0  0  0
   40.1290   32.8250   38.9970 C   0  0  0  0  0  0  0  0  0  0  0  0
   39.6160   33.4690   40.0890 N   0  0  0  0  0  0  0  0  0  0  0  0
   38.1490   33.4130   41.5370 H   0  0  0  0  0  0  0  0  0  0  0  0
   38.0510   30.2000   38.7980 H   0  0  0  0  0  0  0  0  0  0  0  0
   40.9870   33.3090   38.5480 H   0  0  0  0  0  0  0  0  0  0  0  0
   34.9500   29.0890   39.8690 Br  0  0  0  0  0  0  0  0  0  0  0  0
   36.3000   28.8070   41.1920 C   0  0  0  0  0  0  0  0  0  0  0  0
   37.0520   29.8930   41.6020 C   0  0  0  0  0  0  0  0  0  0  0  0
   38.0490   29.7590   42.5620 C   0  0  0  0  0  0  0  0  0  0  0  0
   38.6300   30.6330   42.8680 H   0  0  0  0  0  0  0  0  0  0  0  0
   38.2830   28.5000   43.1090 C   0  0  0  0  0  0  0  0  0  0  0  0
   39.0590   28.4040   43.8530 H   0  0  0  0  0  0  0  0  0  0  0  0
   37.5260   27.4020   42.6990 C   0  0  0  0  0  3  0  0  0  0  0  0
   36.5340   27.5610   41.7380 C   0  0  0  0  0  3  0  0  0  0  0  0
  1 15  1  0  0  0  0
  1  3  1  0  0  0  0
  2  1  1  0  0  0  0
  4 10  1  0  0  0  0
  5  4  1  0  0  0  0
  5  1  1  0  0  0  0
  6  5  2  0  0  0  0
  7  8  2  0  0  0  0
  7  6  1  0  0  0  0
  8  9  1  0  0  0  0
  9  4  2  0  0  0  0
 11  6  1  0  0  0  0
 12  8  1  0  0  0  0
 13 14  1  0  0  0  0
 14 15  2  0  0  0  0
 14 21  1  0  0  0  0
 15 16  1  0  0  0  0
 16 17  1  0  0  0  0
 16 18  2  0  0  0  0
 18 19  1  0  0  0  0
 20 18  1  0  0  0  0
 21 20  2  0  0  0  0
M  END
>  <minimizedAffinity>
-4.24522591

$$$$

 OpenBabel03252504253D

 21 22  0  0  0  0  0  0  0  0999 V2000
   39.4190   29.6730   40.8160 C   0  0  0  0  0  0  0  0  0  0  0  0
   40.3820   29.7400   41.3640 H   0  0  0  0  0  0  0  0  0  0  0  0
   39.6250   29.1420   39.8650 H   0  0  0  0  0  0  0  0  0  0  0  0
   37.7420   31.0110   39.6470 C   0  0  0  0  0  0  0  0  0  0  0  0
   38.8310   30.9940   40.5370 C   0  0  0  0  0  0  0  0  0  0  0  0
   39.2420   32.2100   41.0600 C   0  0  0  0  0  0  0  0  0  0  0  0
   38.5800   33.3410   40.6900 N   0  0  0  0  0  0  0  0  0  0  0  0
   37.5370   33.3090   39.8300 C   0  0  0  0  0  0  0  0  0  0  0  0
   37.0890   32.1390   39.2850 N   0  0  0  0  0  0  0  0  0  0  0  0
   37.3810   30.0990   39.2120 H   0  0  0  0  0  0  0  0  0  0  0  0
   40.0620   32.1800   41.7260 H   0  0  0  0  0  0  0  0  0  0  0  0
   36.9920   34.1910   39.5190 H   0  0  0  0  0  0  0  0  0  0  0  0
   38.4520   27.2220   39.3010 Br  0  0  0  0  0  0  0  0  0  0  0  0
   37.9630   27.6850   41.0900 C   0  0  0  0  0  0  0  0  0  0  0  0
   38.4930   28.8400   41.6360 C   0  0  0  0  0  0  0  0  0  0  0  0
   38.1790   29.2360   42.9310 C   0  0  0  0  0  0  0  0  0  0  0  0
   38.6120   30.1530   43.3390 H   0  0  0  0  0  0  0  0  0  0  0  0
   37.3130   28.4420   43.6790 C   0  0  0  0  0  0  0  0  0  0  0  0
   37.0740   28.7560   44.6840 H   0  0  0  0  0  0  0  0  0  0  0  0
   36.7750   27.2770   43.1330 C   0  0  0  0  0  3  0  0  0  0  0  0
   37.1040   26.9020   41.8350 C   0  0  0  0  0  3  0  0  0  0  0  0
  1  2  1  0  0  0  0
  1 15  1  0  0  0  0
  3  1  1  0  0  0  0
  4  5  1  0  0  0  0
  5  1  1  0  0  0  0
  5  6  2  0  0  0  0
  6 11  1  0  0  0  0
  7  6  1  0  0  0  0
  8  7  2  0  0  0  0
  9  4  2  0  0  0  0
  9  8  1  0  0  0  0
 10  4  1  0  0  0  0
 12  8  1  0  0  0  0
 13 14  1  0  0  0  0
 14 15  2  0  0  0  0
 14 21  1  0  0  0  0
 15 16  1  0  0  0  0
 16 17  1  0  0  0  0
 16 18  2  0  0  0  0
 18 19  1  0  0  0  0
 20 18  1  0  0  0  0
 21 20  2  0  0  0  0
M  END
>  <minimizedAffinity>
-4.14687204

$$$$

 OpenBabel03252504253D

 21 22  0  0  0  0  0  0  0  0999 V2000
   39.4900   29.6690   40.9480 C   0  0  0  0  0  0  0  0  0  0  0  0
   40.3700   29.8690   41.5930 H   0  0  0  0  0  0  0  0  0  0  0  0
   39.8600   29.1190   40.0590 H   0  0  0  0  0  0  0  0  0  0  0  0
   39.3040   32.1020   41.0530 C   0  0  0  0  0  0  0  0  0  0  0  0
   38.8010   30.9000   40.5270 C   0  0  0  0  0  0  0  0  0  0  0  0
   37.7140   30.9880   39.6710 C   0  0  0  0  0  0  0  0  0  0  0  0
   37.2000   32.2170   39.3890 N   0  0  0  0  0  0  0  0  0  0  0  0
   37.7180   33.3470   39.9180 C   0  0  0  0  0  0  0  0  0  0  0  0
   38.7880   33.3190   40.7680 N   0  0  0  0  0  0  0  0  0  0  0  0
   40.1450   32.0940   41.7210 H   0  0  0  0  0  0  0  0  0  0  0  0
   37.3480   30.0750   39.2850 H   0  0  0  0  0  0  0  0  0  0  0  0
   37.3290   34.3370   39.7120 H   0  0  0  0  0  0  0  0  0  0  0  0
   38.7870   27.1570   39.3870 Br  0  0  0  0  0  0  0  0  0  0  0  0
   38.1530   27.5890   41.1370 C   0  0  0  0  0  0  0  0  0  0  0  0
   38.5690   28.7770   41.7110 C   0  0  0  0  0  0  0  0  0  0  0  0
   38.1460   29.1520   42.9810 C   0  0  0  0  0  0  0  0  0  0  0  0
   38.4900   30.0960   43.4110 H   0  0  0  0  0  0  0  0  0  0  0  0
   37.2880   28.3040   43.6750 C   0  0  0  0  0  0  0  0  0  0  0  0
   36.9640   28.6020   44.6610 H   0  0  0  0  0  0  0  0  0  0  0  0
   36.8650   27.1050   43.1010 C   0  0  0  0  0  3  0  0  0  0  0  0
   37.3020   26.7510   41.8290 C   0  0  0  0  0  3  0  0  0  0  0  0
  1  2  1  0  0  0  0
  1 15  1  0  0  0  0
  3  1  1  0  0  0  0
  4 10  1  0  0  0  0
  5  1  1  0  0  0  0
  5  4  2  0  0  0  0
  6  5  1  0  0  0  0
  7  6  2  0  0  0  0
  7  8  1  0  0  0  0
  8  9  2  0  0  0  0
  9  4  1  0  0  0  0
 11  6  1  0  0  0  0
 12  8  1  0  0  0  0
 13 14  1  0  0  0  0
 14 15  2  0  0  0  0
 14 21  1  0  0  0  0
 15 16  1  0  0  0  0
 16 17  1  0  0  0  0
 16 18  2  0  0  0  0
 18 19  1  0  0  0  0
 20 18  1  0  0  0  0
 21 20  2  0  0  0  0
M  END
>  <minimizedAffinity>
-4.1074276

$$$$
