
 OpenBabel03242515463D

 41 44  0  0  1  0  0  0  0  0999 V2000
   40.4620   35.2860   40.4840 C   0  0  0  0  0  0  0  0  0  0  0  0
   41.5290   34.5990   41.0640 C   0  0  0  0  0  0  0  0  0  0  0  0
   41.4260   33.2620   41.3930 C   0  0  0  0  0  0  0  0  0  0  0  0
   40.2620   32.5780   41.1530 C   0  0  0  0  0  0  0  0  0  0  0  0
   39.1940   33.2380   40.5790 C   0  0  0  0  0  0  0  0  0  0  0  0
   39.2660   34.5650   40.2420 C   0  0  0  0  0  0  0  0  0  0  0  0
   38.1610   32.2860   40.4600 O   0  0  0  0  0  0  0  0  0  0  0  0
   38.4970   31.1890   41.2100 C   0  0  2  0  0  0  0  0  0  0  0  0
   39.8960   31.2480   41.3820 O   0  0  0  0  0  0  0  0  0  0  0  0
   40.4610   36.3290   40.1980 H   0  0  0  0  0  0  0  0  0  0  0  0
   42.3080   32.8250   41.8380 H   0  0  0  0  0  0  0  0  0  0  0  0
   38.4290   35.0840   39.7920 H   0  0  0  0  0  0  0  0  0  0  0  0
   38.0750   31.3490   42.2450 H   0  0  0  0  0  0  0  0  0  0  0  0
   38.7010   30.8730   38.0950 Br  0  0  0  0  0  0  0  0  0  0  0  0
   38.0440   29.5870   39.3560 C   0  0  0  0  0  0  0  0  0  0  0  0
   38.0210   29.8890   40.7210 C   0  0  0  0  0  0  0  0  0  0  0  0
   37.5350   28.9170   41.5710 C   0  0  0  0  0  0  0  0  0  0  0  0
   37.4850   29.0720   42.6360 H   0  0  0  0  0  0  0  0  0  0  0  0
   37.0840   27.6850   41.0990 C   0  0  0  0  0  0  0  0  0  0  0  0
   36.7040   26.9310   41.7820 H   0  0  0  0  0  0  0  0  0  0  0  0
   37.1060   27.3900   39.7590 C   0  0  0  0  0  3  0  0  0  0  0  0
   37.5930   28.3630   38.9110 C   0  0  0  0  0  3  0  0  0  0  0  0
   42.9690   35.6420   41.2840 S   0  0  0  0  0  0  0  0  0  0  0  0
   44.4800   34.6840   40.9220 C   0  0  0  0  0  0  0  0  0  0  0  0
   44.4540   33.9530   39.7920 C   0  0  0  0  0  0  0  0  0  0  0  0
   45.6060   33.2110   39.5360 C   0  0  0  0  0  0  0  0  0  0  0  0
   46.6610   33.2370   40.3720 N   0  0  0  0  0  0  0  0  0  0  0  0
   46.6380   33.9870   41.4920 C   0  0  0  0  0  0  0  0  0  0  0  0
   45.5330   34.6940   41.7310 N   0  0  0  0  0  0  0  0  0  0  0  0
   45.6860   32.3750   38.3630 N   0  0  0  0  0  0  0  0  0  0  0  0
   45.6470   32.6900   37.3480 H   0  0  0  0  0  0  0  0  0  0  0  0
   45.7920   31.3600   38.5450 H   0  0  0  0  0  0  0  0  0  0  0  0
   43.4620   33.7530   38.6890 C   0  0  0  0  0  0  0  0  0  0  0  0
   42.8030   34.6440   38.7310 H   0  0  0  0  0  0  0  0  0  0  0  0
   42.9210   32.8230   38.8910 H   0  0  0  0  0  0  0  0  0  0  0  0
   43.9480   33.8070   37.6910 H   0  0  0  0  0  0  0  0  0  0  0  0
   47.6670   34.0800   42.4060 O   0  0  0  0  0  0  0  0  0  0  0  0
   48.8940   34.6320   41.9590 C   0  0  0  0  0  0  0  0  0  0  0  0
   49.6620   33.6990   41.3290 F   0  0  0  0  0  0  0  0  0  0  0  0
   48.5660   35.6970   41.1040 F   0  0  0  0  0  0  0  0  0  0  0  0
   49.5940   35.0800   43.0590 F   0  0  0  0  0  0  0  0  0  0  0  0
  1  2  1  0  0  0  0
  2 23  1  0  0  0  0
  2  3  2  0  0  0  0
  3 11  1  0  0  0  0
  4  9  1  0  0  0  0
  4  3  1  0  0  0  0
  5  4  2  0  0  0  0
  6  1  2  0  0  0  0
  6  5  1  0  0  0  0
  7  5  1  0  0  0  0
  7  8  1  0  0  0  0
  8  9  1  0  0  0  0
  8 13  1  1  0  0  0
 10  1  1  0  0  0  0
 12  6  1  0  0  0  0
 14 15  1  0  0  0  0
 15 16  1  0  0  0  0
 16  8  1  0  0  0  0
 16 17  2  0  0  0  0
 17 18  1  0  0  0  0
 19 17  1  0  0  0  0
 19 20  1  0  0  0  0
 21 19  2  0  0  0  0
 22 15  2  0  0  0  0
 22 21  1  0  0  0  0
 24 23  1  0  0  0  0
 24 29  1  0  0  0  0
 25 24  2  0  0  0  0
 26 25  1  0  0  0  0
 26 27  2  0  0  0  0
 27 28  1  0  0  0  0
 28 29  2  0  0  0  0
 28 37  1  0  0  0  0
 30 32  1  0  0  0  0
 30 26  1  0  0  0  0
 31 30  1  0  0  0  0
 33 34  1  0  0  0  0
 33 35  1  0  0  0  0
 33 25  1  0  0  0  0
 36 33  1  0  0  0  0
 38 37  1  0  0  0  0
 38 41  1  0  0  0  0
 39 38  1  0  0  0  0
 40 38  1  0  0  0  0
M  END
>  <minimizedAffinity>
-6.38334322

>  <minimizedRMSD>
1.25373566

$$$$
