
 OpenBabel03242523403D

 37 41  0  0  1  0  0  0  0  0999 V2000
   36.9770   31.6650   40.0790 C   0  0  2  0  0  0  0  0  0  0  0  0
   37.0540   32.9400   40.1110 N   0  0  2  0  0  4  0  0  0  0  0  0
   37.2600   34.0480   39.5580 C   0  0  0  0  0  0  0  0  0  0  0  0
   38.3150   34.1610   40.4190 N   0  0  0  0  0  0  0  0  0  0  0  0
   39.0610   33.0100   40.4570 C   0  0  2  0  0  3  0  0  0  0  0  0
   40.4560   33.1950   40.6850 C   0  0  0  0  0  0  0  0  0  0  0  0
   41.2190   32.0940   40.6780 C   0  0  0  0  0  0  0  0  0  0  0  0
   40.7550   30.8370   40.4720 C   0  0  0  0  0  0  0  0  0  0  0  0
   39.3780   30.8090   40.2660 C   0  0  0  0  0  0  0  0  0  0  0  0
   38.3890   31.7920   40.2280 C   0  0  1  0  0  0  0  0  0  0  0  0
   36.7320   31.3850   41.2230 H   0  0  0  0  0  0  0  0  0  0  0  0
   36.0810   33.2070   40.5750 H   0  0  0  0  0  0  0  0  0  0  0  0
   36.6210   34.9860   39.6110 H   0  0  0  0  0  0  0  0  0  0  0  0
   37.5700   34.0600   38.4910 H   0  0  0  0  0  0  0  0  0  0  0  0
   38.5230   35.0490   40.9830 H   0  0  0  0  0  0  0  0  0  0  0  0
   40.8990   34.1540   40.8600 H   0  0  0  0  0  0  0  0  0  0  0  0
   42.2990   32.2490   40.8570 H   0  0  0  0  0  0  0  0  0  0  0  0
   41.4180   30.0230   40.4810 H   0  0  0  0  0  0  0  0  0  0  0  0
   39.1620   29.7450   40.1280 H   0  0  0  0  0  0  0  0  0  0  0  0
   36.7030   28.2720   38.6140 C   0  0  0  0  0  0  0  0  0  0  0  0
   36.6300   27.5820   39.8330 C   0  0  0  0  0  0  0  0  0  0  0  0
   36.6650   28.3390   40.9910 C   0  0  0  0  0  0  0  0  0  0  0  0
   36.7670   29.6830   40.8410 N   0  0  0  0  0  0  0  0  0  0  0  0
   36.8380   30.3350   39.6540 C   0  0  0  0  0  0  0  0  0  0  0  0
   36.7980   29.5610   38.6600 N   0  0  0  0  0  0  0  0  0  0  0  0
   36.6830   27.7710   37.6540 H   0  0  0  0  0  0  0  0  0  0  0  0
   36.5510   26.5110   39.8330 H   0  0  0  0  0  0  0  0  0  0  0  0
   36.5730   27.4920   42.5380 S   0  0  0  0  0  0  0  0  0  0  0  0
   36.9930   24.4220   41.8420 Br  0  0  0  0  0  0  0  0  0  0  0  0
   38.3900   25.4970   42.6050 C   0  0  0  0  0  0  0  0  0  0  0  0
   38.1970   26.8480   42.9090 C   0  0  0  0  0  0  0  0  0  0  0  0
   39.2670   27.5570   43.4630 C   0  0  0  0  0  0  0  0  0  0  0  0
   39.0480   28.5750   43.6670 H   0  0  0  0  0  0  0  0  0  0  0  0
   40.4440   26.8910   43.6770 C   0  0  0  0  0  0  0  0  0  0  0  0
   41.2530   27.4840   44.1110 H   0  0  0  0  0  0  0  0  0  0  0  0
   40.6310   25.5580   43.3760 C   0  0  0  0  0  3  0  0  0  0  0  0
   39.5790   24.8630   42.8320 C   0  0  0  0  0  3  0  0  0  0  0  0
  1  2  1  0  0  0  0
  1 10  1  0  0  0  0
  1 11  1  1  0  0  0
  2 10  1  0  0  0  0
  2 12  1  1  0  0  0
  3 13  1  0  0  0  0
  3  2  1  0  0  0  0
  3  4  1  0  0  0  0
  4  5  1  0  0  0  0
  4 15  1  0  0  0  0
  5  6  1  6  0  0  0
  6 16  1  0  0  0  0
  7  6  2  0  0  0  0
  7 17  1  0  0  0  0
  8 18  1  0  0  0  0
  8  7  1  0  0  0  0
  9  8  2  0  0  0  0
 10  9  1  6  0  0  0
 10  5  1  0  0  0  0
 14  3  1  0  0  0  0
 19  9  1  0  0  0  0
 20 25  2  0  0  0  0
 20 21  1  0  0  0  0
 21 22  2  0  0  0  0
 22 28  1  0  0  0  0
 23 22  1  0  0  0  0
 24  1  1  0  0  0  0
 24 23  2  0  0  0  0
 25 24  1  0  0  0  0
 26 20  1  0  0  0  0
 27 21  1  0  0  0  0
 28 31  1  0  0  0  0
 29 30  1  0  0  0  0
 30 37  2  0  0  0  0
 30 31  1  0  0  0  0
 31 32  2  0  0  0  0
 32 33  1  0  0  0  0
 32 34  1  0  0  0  0
 34 35  1  0  0  0  0
 36 34  2  0  0  0  0
 37 36  1  0  0  0  0
M  END
>  <minimizedAffinity>
-6.505826

$$$$

 OpenBabel03242523403D

 37 41  0  0  1  0  0  0  0  0999 V2000
   35.6060   29.6600   39.4190 C   0  0  2  0  0  0  0  0  0  0  0  0
   35.8550   30.2000   40.5510 N   0  0  2  0  0  4  0  0  0  0  0  0
   36.6380   30.7490   41.3640 C   0  0  0  0  0  0  0  0  0  0  0  0
   36.4060   29.6600   42.1580 N   0  0  0  0  0  0  0  0  0  0  0  0
   36.5030   28.4890   41.4500 C   0  0  2  0  0  3  0  0  0  0  0  0
   36.9890   27.3700   42.1870 C   0  0  0  0  0  0  0  0  0  0  0  0
   37.1420   26.2230   41.5110 C   0  0  0  0  0  0  0  0  0  0  0  0
   36.8670   26.0650   40.1930 C   0  0  0  0  0  0  0  0  0  0  0  0
   36.3990   27.2370   39.6040 C   0  0  0  0  0  0  0  0  0  0  0  0
   36.1580   28.5250   40.0830 C   0  0  1  0  0  0  0  0  0  0  0  0
   34.4500   29.3450   39.5250 H   0  0  0  0  0  0  0  0  0  0  0  0
   35.0520   30.9640   40.6110 H   0  0  0  0  0  0  0  0  0  0  0  0
   36.4720   31.7000   41.9630 H   0  0  0  0  0  0  0  0  0  0  0  0
   37.7080   30.8570   41.0830 H   0  0  0  0  0  0  0  0  0  0  0  0
   36.1820   29.7310   43.2050 H   0  0  0  0  0  0  0  0  0  0  0  0
   37.2250   27.4130   43.2300 H   0  0  0  0  0  0  0  0  0  0  0  0
   37.5200   25.3620   42.0920 H   0  0  0  0  0  0  0  0  0  0  0  0
   37.0140   25.1330   39.7330 H   0  0  0  0  0  0  0  0  0  0  0  0
   36.2180   26.9470   38.5650 H   0  0  0  0  0  0  0  0  0  0  0  0
   36.1100   28.5890   35.9090 C   0  0  0  0  0  0  0  0  0  0  0  0
   34.7520   28.4420   35.5950 C   0  0  0  0  0  0  0  0  0  0  0  0
   33.8370   28.7350   36.5910 C   0  0  0  0  0  0  0  0  0  0  0  0
   34.3400   29.1390   37.7840 N   0  0  0  0  0  0  0  0  0  0  0  0
   35.6580   29.2750   38.0720 C   0  0  0  0  0  0  0  0  0  0  0  0
   36.4100   28.9860   37.1020 N   0  0  0  0  0  0  0  0  0  0  0  0
   36.9030   28.3850   35.1990 H   0  0  0  0  0  0  0  0  0  0  0  0
   34.4660   28.1130   34.6120 H   0  0  0  0  0  0  0  0  0  0  0  0
   32.1200   28.5580   36.2180 S   0  0  0  0  0  0  0  0  0  0  0  0
   30.4150   30.1390   38.3810 Br  0  0  0  0  0  0  0  0  0  0  0  0
   30.7550   30.8500   36.6300 C   0  0  0  0  0  0  0  0  0  0  0  0
   31.5060   30.1480   35.6830 C   0  0  0  0  0  0  0  0  0  0  0  0
   31.7060   30.7390   34.4320 C   0  0  0  0  0  0  0  0  0  0  0  0
   32.2850   30.1490   33.7660 H   0  0  0  0  0  0  0  0  0  0  0  0
   31.1560   31.9720   34.2030 C   0  0  0  0  0  0  0  0  0  0  0  0
   31.3380   32.3960   33.2120 H   0  0  0  0  0  0  0  0  0  0  0  0
   30.4160   32.6620   35.1390 C   0  0  0  0  0  3  0  0  0  0  0  0
   30.2210   32.0800   36.3670 C   0  0  0  0  0  3  0  0  0  0  0  0
  1 11  1  1  0  0  0
  1 10  1  0  0  0  0
  1  2  1  0  0  0  0
  2 12  1  1  0  0  0
  2  3  1  0  0  0  0
  3 13  1  0  0  0  0
  3  4  1  0  0  0  0
  4 15  1  0  0  0  0
  5  4  1  0  0  0  0
  5  6  1  6  0  0  0
  6 16  1  0  0  0  0
  7 17  1  0  0  0  0
  7  6  2  0  0  0  0
  8  7  1  0  0  0  0
  9  8  2  0  0  0  0
 10  9  1  6  0  0  0
 10  2  1  0  0  0  0
 10  5  1  0  0  0  0
 14  3  1  0  0  0  0
 18  8  1  0  0  0  0
 19  9  1  0  0  0  0
 20 25  1  0  0  0  0
 21 20  2  0  0  0  0
 21 22  1  0  0  0  0
 22 23  2  0  0  0  0
 23 24  1  0  0  0  0
 24  1  1  0  0  0  0
 25 24  2  0  0  0  0
 26 20  1  0  0  0  0
 27 21  1  0  0  0  0
 28 22  1  0  0  0  0
 30 29  1  0  0  0  0
 31 28  1  0  0  0  0
 31 30  2  0  0  0  0
 32 31  1  0  0  0  0
 33 32  1  0  0  0  0
 34 32  2  0  0  0  0
 34 36  1  0  0  0  0
 35 34  1  0  0  0  0
 36 37  2  0  0  0  0
 37 30  1  0  0  0  0
M  END
>  <minimizedAffinity>
-6.41427422

$$$$

 OpenBabel03242523403D

 37 41  0  0  1  0  0  0  0  0999 V2000
   36.2170   28.7390   41.5080 C   0  0  2  0  0  0  0  0  0  0  0  0
   36.9400   28.9090   42.5490 N   0  0  2  0  0  4  0  0  0  0  0  0
   38.0240   29.2160   43.1020 C   0  0  0  0  0  0  0  0  0  0  0  0
   38.0420   27.9230   43.5440 N   0  0  0  0  0  0  0  0  0  0  0  0
   37.7530   27.0400   42.5340 C   0  0  2  0  0  3  0  0  0  0  0  0
   38.4020   25.7740   42.6270 C   0  0  0  0  0  0  0  0  0  0  0  0
   38.1790   24.9080   41.6300 C   0  0  0  0  0  0  0  0  0  0  0  0
   37.3890   25.1560   40.5570 C   0  0  0  0  0  0  0  0  0  0  0  0
   36.8210   26.4270   40.6010 C   0  0  0  0  0  0  0  0  0  0  0  0
   36.8950   27.4850   41.5070 C   0  0  1  0  0  0  0  0  0  0  0  0
   35.1780   28.3450   41.9690 H   0  0  0  0  0  0  0  0  0  0  0  0
   36.2920   29.5710   43.1600 H   0  0  0  0  0  0  0  0  0  0  0  0
   38.1880   29.9210   43.9780 H   0  0  0  0  0  0  0  0  0  0  0  0
   38.8970   29.4640   42.4600 H   0  0  0  0  0  0  0  0  0  0  0  0
   38.2610   27.6490   44.5580 H   0  0  0  0  0  0  0  0  0  0  0  0
   39.0380   25.5000   43.4440 H   0  0  0  0  0  0  0  0  0  0  0  0
   38.6860   23.9290   41.7130 H   0  0  0  0  0  0  0  0  0  0  0  0
   37.2640   24.4250   39.8140 H   0  0  0  0  0  0  0  0  0  0  0  0
   36.2160   26.4690   39.6890 H   0  0  0  0  0  0  0  0  0  0  0  0
   34.5160   28.7680   38.2170 C   0  0  0  0  0  0  0  0  0  0  0  0
   35.4880   29.5230   37.5460 C   0  0  0  0  0  0  0  0  0  0  0  0
   36.5990   29.9140   38.2740 C   0  0  0  0  0  0  0  0  0  0  0  0
   36.6450   29.5300   39.5740 N   0  0  0  0  0  0  0  0  0  0  0  0
   35.6950   28.8000   40.2080 C   0  0  0  0  0  0  0  0  0  0  0  0
   34.7250   28.4920   39.4630 N   0  0  0  0  0  0  0  0  0  0  0  0
   33.6120   28.4140   37.7360 H   0  0  0  0  0  0  0  0  0  0  0  0
   35.3470   29.7700   36.5100 H   0  0  0  0  0  0  0  0  0  0  0  0
   37.8380   30.8650   37.4490 S   0  0  0  0  0  0  0  0  0  0  0  0
   40.9770   31.2770   37.7020 Br  0  0  0  0  0  0  0  0  0  0  0  0
   39.7230   32.3680   38.6630 C   0  0  0  0  0  0  0  0  0  0  0  0
   38.3420   32.1810   38.5470 C   0  0  0  0  0  0  0  0  0  0  0  0
   37.5000   33.0200   39.2820 C   0  0  0  0  0  0  0  0  0  0  0  0
   36.4670   32.8190   39.1450 H   0  0  0  0  0  0  0  0  0  0  0  0
   38.0720   33.9790   40.0750 C   0  0  0  0  0  0  0  0  0  0  0  0
   37.3760   34.6120   40.6310 H   0  0  0  0  0  0  0  0  0  0  0  0
   39.4350   34.1610   40.1870 C   0  0  0  0  0  3  0  0  0  0  0  0
   40.2600   33.3360   39.4640 C   0  0  0  0  0  3  0  0  0  0  0  0
  1 11  1  1  0  0  0
  1  2  1  0  0  0  0
  2  3  1  0  0  0  0
  2 12  1  1  0  0  0
  3  4  1  0  0  0  0
  3 13  1  0  0  0  0
  4 15  1  0  0  0  0
  5  6  1  6  0  0  0
  5  4  1  0  0  0  0
  6 16  1  0  0  0  0
  7 17  1  0  0  0  0
  7  6  2  0  0  0  0
  8  9  2  0  0  0  0
  8  7  1  0  0  0  0
 10  9  1  6  0  0  0
 10  1  1  0  0  0  0
 10  5  1  0  0  0  0
 10  2  1  0  0  0  0
 14  3  1  0  0  0  0
 18  8  1  0  0  0  0
 19  9  1  0  0  0  0
 20 25  1  0  0  0  0
 21 20  2  0  0  0  0
 21 22  1  0  0  0  0
 22 23  2  0  0  0  0
 23 24  1  0  0  0  0
 24  1  1  0  0  0  0
 25 24  2  0  0  0  0
 26 20  1  0  0  0  0
 27 21  1  0  0  0  0
 28 22  1  0  0  0  0
 28 31  1  0  0  0  0
 29 30  1  0  0  0  0
 30 37  1  0  0  0  0
 31 30  2  0  0  0  0
 31 32  1  0  0  0  0
 32 34  2  0  0  0  0
 33 32  1  0  0  0  0
 34 36  1  0  0  0  0
 34 35  1  0  0  0  0
 37 36  2  0  0  0  0
M  END
>  <minimizedAffinity>
-6.20826054

$$$$

 OpenBabel03242523403D

 37 41  0  0  1  0  0  0  0  0999 V2000
   38.0310   30.5560   37.6640 C   0  0  2  0  0  0  0  0  0  0  0  0
   37.4450   30.0970   36.6240 N   0  0  2  0  0  4  0  0  0  0  0  0
   36.6240   30.2070   35.6810 C   0  0  0  0  0  0  0  0  0  0  0  0
   35.9760   29.1550   36.2660 N   0  0  0  0  0  0  0  0  0  0  0  0
   35.8380   29.3350   37.6190 C   0  0  2  0  0  3  0  0  0  0  0  0
   34.6600   28.7740   38.1920 C   0  0  0  0  0  0  0  0  0  0  0  0
   34.4720   28.9760   39.5030 C   0  0  0  0  0  0  0  0  0  0  0  0
   35.3170   29.6700   40.3040 C   0  0  0  0  0  0  0  0  0  0  0  0
   36.4230   30.1580   39.6110 C   0  0  0  0  0  0  0  0  0  0  0  0
   36.8360   30.0820   38.2800 C   0  0  1  0  0  0  0  0  0  0  0  0
   38.7390   29.6410   37.9930 H   0  0  0  0  0  0  0  0  0  0  0  0
   38.3120   29.7870   36.0040 H   0  0  0  0  0  0  0  0  0  0  0  0
   36.7900   29.9870   34.5790 H   0  0  0  0  0  0  0  0  0  0  0  0
   35.9960   31.1220   35.6250 H   0  0  0  0  0  0  0  0  0  0  0  0
   35.6210   28.3030   35.7190 H   0  0  0  0  0  0  0  0  0  0  0  0
   33.9460   28.2100   37.6290 H   0  0  0  0  0  0  0  0  0  0  0  0
   33.5560   28.5350   39.9380 H   0  0  0  0  0  0  0  0  0  0  0  0
   35.1000   29.7860   41.3240 H   0  0  0  0  0  0  0  0  0  0  0  0
   37.0010   30.6740   40.3830 H   0  0  0  0  0  0  0  0  0  0  0  0
   39.2490   33.0850   40.0820 C   0  0  0  0  0  0  0  0  0  0  0  0
   39.7220   32.1720   41.0360 C   0  0  0  0  0  0  0  0  0  0  0  0
   39.5890   30.8260   40.7440 C   0  0  0  0  0  0  0  0  0  0  0  0
   39.0110   30.5110   39.5580 N   0  0  0  0  0  0  0  0  0  0  0  0
   38.5580   31.4070   38.6460 C   0  0  0  0  0  0  0  0  0  0  0  0
   38.7250   32.6050   39.0020 N   0  0  0  0  0  0  0  0  0  0  0  0
   39.3080   34.1580   40.2160 H   0  0  0  0  0  0  0  0  0  0  0  0
   40.1640   32.5360   41.9460 H   0  0  0  0  0  0  0  0  0  0  0  0
   40.1780   29.6580   41.9300 S   0  0  0  0  0  0  0  0  0  0  0  0
   39.8130   27.0090   40.2170 Br  0  0  0  0  0  0  0  0  0  0  0  0
   38.6360   27.4580   41.6660 C   0  0  0  0  0  0  0  0  0  0  0  0
   38.8020   28.6260   42.4160 C   0  0  0  0  0  0  0  0  0  0  0  0
   37.9000   28.8760   43.4530 C   0  0  0  0  0  0  0  0  0  0  0  0
   38.0880   29.7800   43.9780 H   0  0  0  0  0  0  0  0  0  0  0  0
   36.9030   27.9650   43.6800 C   0  0  0  0  0  0  0  0  0  0  0  0
   36.2220   28.2010   44.5000 H   0  0  0  0  0  0  0  0  0  0  0  0
   36.7420   26.8130   42.9380 C   0  0  0  0  0  3  0  0  0  0  0  0
   37.6290   26.5690   41.9190 C   0  0  0  0  0  3  0  0  0  0  0  0
  1 11  1  1  0  0  0
  1 10  1  0  0  0  0
  1 24  1  0  0  0  0
  2 12  1  6  0  0  0
  2  1  1  0  0  0  0
  2 10  1  0  0  0  0
  3  4  1  0  0  0  0
  3  2  1  0  0  0  0
  4  5  1  0  0  0  0
  5  6  1  6  0  0  0
  5 10  1  0  0  0  0
  6  7  2  0  0  0  0
  7 17  1  0  0  0  0
  7  8  1  0  0  0  0
  8 18  1  0  0  0  0
  9  8  2  0  0  0  0
  9 19  1  0  0  0  0
 10  9  1  6  0  0  0
 13  3  1  0  0  0  0
 14  3  1  0  0  0  0
 15  4  1  0  0  0  0
 16  6  1  0  0  0  0
 20 26  1  0  0  0  0
 20 21  1  0  0  0  0
 21 27  1  0  0  0  0
 22 21  2  0  0  0  0
 22 28  1  0  0  0  0
 23 22  1  0  0  0  0
 24 25  1  0  0  0  0
 24 23  2  0  0  0  0
 25 20  2  0  0  0  0
 28 31  1  0  0  0  0
 29 30  1  0  0  0  0
 30 37  2  0  0  0  0
 30 31  1  0  0  0  0
 31 32  2  0  0  0  0
 32 34  1  0  0  0  0
 32 33  1  0  0  0  0
 34 35  1  0  0  0  0
 36 34  2  0  0  0  0
 37 36  1  0  0  0  0
M  END
>  <minimizedAffinity>
-6.112885

$$$$

 OpenBabel03242523403D

 37 41  0  0  1  0  0  0  0  0999 V2000
   36.9610   28.4270   42.3410 C   0  0  2  0  0  0  0  0  0  0  0  0
   35.9430   28.8720   41.7090 N   0  0  2  0  0  4  0  0  0  0  0  0
   35.2800   29.0300   40.6540 C   0  0  0  0  0  0  0  0  0  0  0  0
   35.4960   30.3660   40.8460 N   0  0  0  0  0  0  0  0  0  0  0  0
   36.8100   30.6280   41.1450 C   0  0  2  0  0  3  0  0  0  0  0  0
   37.3030   31.8800   40.6760 C   0  0  0  0  0  0  0  0  0  0  0  0
   38.5960   32.1440   40.9080 C   0  0  0  0  0  0  0  0  0  0  0  0
   39.4490   31.3080   41.5500 C   0  0  0  0  0  0  0  0  0  0  0  0
   38.8300   30.1260   41.9520 C   0  0  0  0  0  0  0  0  0  0  0  0
   37.5320   29.6300   41.8330 C   0  0  1  0  0  0  0  0  0  0  0  0
   36.7680   28.8170   43.4620 H   0  0  0  0  0  0  0  0  0  0  0  0
   35.1100   28.4700   42.3240 H   0  0  0  0  0  0  0  0  0  0  0  0
   34.1720   28.8420   40.4890 H   0  0  0  0  0  0  0  0  0  0  0  0
   35.7060   28.6580   39.6980 H   0  0  0  0  0  0  0  0  0  0  0  0
   34.7230   31.1050   40.7650 H   0  0  0  0  0  0  0  0  0  0  0  0
   36.6930   32.5960   40.1640 H   0  0  0  0  0  0  0  0  0  0  0  0
   38.9680   33.1180   40.5400 H   0  0  0  0  0  0  0  0  0  0  0  0
   40.4510   31.5860   41.6930 H   0  0  0  0  0  0  0  0  0  0  0  0
   39.6320   29.5750   42.4530 H   0  0  0  0  0  0  0  0  0  0  0  0
   39.9260   26.6530   43.6790 C   0  0  0  0  0  0  0  0  0  0  0  0
   40.0410   25.7300   42.6300 C   0  0  0  0  0  0  0  0  0  0  0  0
   39.1230   25.8260   41.5990 C   0  0  0  0  0  0  0  0  0  0  0  0
   38.1930   26.8080   41.6980 N   0  0  0  0  0  0  0  0  0  0  0  0
   38.0950   27.6930   42.7200 C   0  0  0  0  0  0  0  0  0  0  0  0
   38.9740   27.5250   43.6080 N   0  0  0  0  0  0  0  0  0  0  0  0
   40.5960   26.6620   44.5300 H   0  0  0  0  0  0  0  0  0  0  0  0
   40.8210   24.9910   42.6560 H   0  0  0  0  0  0  0  0  0  0  0  0
   39.2480   24.6740   40.2670 S   0  0  0  0  0  0  0  0  0  0  0  0
   38.3650   26.4660   37.7980 Br  0  0  0  0  0  0  0  0  0  0  0  0
   37.2040   25.1450   38.5680 C   0  0  0  0  0  0  0  0  0  0  0  0
   37.6000   24.3590   39.6550 C   0  0  0  0  0  0  0  0  0  0  0  0
   36.6920   23.4200   40.1530 C   0  0  0  0  0  0  0  0  0  0  0  0
   37.0610   22.8610   40.9770 H   0  0  0  0  0  0  0  0  0  0  0  0
   35.4670   23.3200   39.5500 C   0  0  0  0  0  0  0  0  0  0  0  0
   34.7900   22.5730   39.9720 H   0  0  0  0  0  0  0  0  0  0  0  0
   35.0800   24.0960   38.4780 C   0  0  0  0  0  3  0  0  0  0  0  0
   35.9720   25.0180   37.9900 C   0  0  0  0  0  3  0  0  0  0  0  0
  1 24  1  0  0  0  0
  1 11  1  1  0  0  0
  2 10  1  0  0  0  0
  2 12  1  1  0  0  0
  2  1  1  0  0  0  0
  3  4  1  0  0  0  0
  3  2  1  0  0  0  0
  4  5  1  0  0  0  0
  5  6  1  6  0  0  0
  5 10  1  0  0  0  0
  6  7  2  0  0  0  0
  7  8  1  0  0  0  0
  8 18  1  0  0  0  0
  8  9  2  0  0  0  0
  9 19  1  0  0  0  0
 10  9  1  6  0  0  0
 10  1  1  0  0  0  0
 13  3  1  0  0  0  0
 14  3  1  0  0  0  0
 15  4  1  0  0  0  0
 16  6  1  0  0  0  0
 17  7  1  0  0  0  0
 20 26  1  0  0  0  0
 21 27  1  0  0  0  0
 21 20  2  0  0  0  0
 22 23  2  0  0  0  0
 22 21  1  0  0  0  0
 23 24  1  0  0  0  0
 24 25  2  0  0  0  0
 25 20  1  0  0  0  0
 28 22  1  0  0  0  0
 29 30  1  0  0  0  0
 30 31  1  0  0  0  0
 31 32  2  0  0  0  0
 31 28  1  0  0  0  0
 32 33  1  0  0  0  0
 34 35  1  0  0  0  0
 34 32  1  0  0  0  0
 36 34  2  0  0  0  0
 37 36  1  0  0  0  0
 37 30  2  0  0  0  0
M  END
>  <minimizedAffinity>
-6.11178303

$$$$

 OpenBabel03242523403D

 37 41  0  0  1  0  0  0  0  0999 V2000
   36.3420   28.9720   41.2550 C   0  0  2  0  0  0  0  0  0  0  0  0
   36.6570   28.7730   42.4780 N   0  0  2  0  0  4  0  0  0  0  0  0
   37.5080   28.6490   43.3930 C   0  0  0  0  0  0  0  0  0  0  0  0
   37.0320   27.3740   43.5150 N   0  0  0  0  0  0  0  0  0  0  0  0
   36.9110   26.7600   42.2940 C   0  0  2  0  0  3  0  0  0  0  0  0
   37.1340   25.3520   42.2950 C   0  0  0  0  0  0  0  0  0  0  0  0
   37.0730   24.7310   41.1090 C   0  0  0  0  0  0  0  0  0  0  0  0
   36.8170   25.3480   39.9300 C   0  0  0  0  0  0  0  0  0  0  0  0
   36.6180   26.7180   40.0810 C   0  0  0  0  0  0  0  0  0  0  0  0
   36.6280   27.5780   41.1800 C   0  0  1  0  0  0  0  0  0  0  0  0
   35.1430   28.8760   41.2720 H   0  0  0  0  0  0  0  0  0  0  0  0
   36.0250   29.5280   42.9920 H   0  0  0  0  0  0  0  0  0  0  0  0
   37.5190   29.1520   44.4110 H   0  0  0  0  0  0  0  0  0  0  0  0
   38.5860   28.6830   43.1250 H   0  0  0  0  0  0  0  0  0  0  0  0
   36.7910   26.9220   44.4580 H   0  0  0  0  0  0  0  0  0  0  0  0
   37.3390   24.7910   43.1840 H   0  0  0  0  0  0  0  0  0  0  0  0
   37.2470   23.6390   41.1220 H   0  0  0  0  0  0  0  0  0  0  0  0
   36.7860   24.7920   39.0400 H   0  0  0  0  0  0  0  0  0  0  0  0
   36.4170   27.0620   39.0620 H   0  0  0  0  0  0  0  0  0  0  0  0
   36.0310   29.8710   37.6740 C   0  0  0  0  0  0  0  0  0  0  0  0
   37.2220   30.6070   37.5950 C   0  0  0  0  0  0  0  0  0  0  0  0
   37.9880   30.6970   38.7440 C   0  0  0  0  0  0  0  0  0  0  0  0
   37.5150   30.0630   39.8460 N   0  0  0  0  0  0  0  0  0  0  0  0
   36.3600   29.3560   39.9060 C   0  0  0  0  0  0  0  0  0  0  0  0
   35.7350   29.3310   38.8110 N   0  0  0  0  0  0  0  0  0  0  0  0
   35.3640   29.7410   36.8310 H   0  0  0  0  0  0  0  0  0  0  0  0
   37.5000   31.0700   36.6650 H   0  0  0  0  0  0  0  0  0  0  0  0
   39.4930   31.6180   38.6680 S   0  0  0  0  0  0  0  0  0  0  0  0
   41.9360   33.2890   37.5150 Br  0  0  0  0  0  0  0  0  0  0  0  0
   41.7450   31.4050   37.1940 C   0  0  0  0  0  0  0  0  0  0  0  0
   40.6660   30.6760   37.7050 C   0  0  0  0  0  0  0  0  0  0  0  0
   40.6040   29.3090   37.4240 C   0  0  0  0  0  0  0  0  0  0  0  0
   39.7590   28.8220   37.8440 H   0  0  0  0  0  0  0  0  0  0  0  0
   41.6020   28.7570   36.6650 C   0  0  0  0  0  0  0  0  0  0  0  0
   41.5130   27.6850   36.4710 H   0  0  0  0  0  0  0  0  0  0  0  0
   42.6640   29.4790   36.1630 C   0  0  0  0  0  3  0  0  0  0  0  0
   42.7240   30.8220   36.4400 C   0  0  0  0  0  3  0  0  0  0  0  0
  1 11  1  1  0  0  0
  1  2  1  0  0  0  0
  2 12  1  1  0  0  0
  2  3  1  0  0  0  0
  3  4  1  0  0  0  0
  3 13  1  0  0  0  0
  4 15  1  0  0  0  0
  5  6  1  6  0  0  0
  5  4  1  0  0  0  0
  6 16  1  0  0  0  0
  7 17  1  0  0  0  0
  7  6  2  0  0  0  0
  8  9  2  0  0  0  0
  8  7  1  0  0  0  0
 10  9  1  6  0  0  0
 10  1  1  0  0  0  0
 10  5  1  0  0  0  0
 10  2  1  0  0  0  0
 14  3  1  0  0  0  0
 18  8  1  0  0  0  0
 19  9  1  0  0  0  0
 20 25  1  0  0  0  0
 21 20  2  0  0  0  0
 21 22  1  0  0  0  0
 22 23  2  0  0  0  0
 23 24  1  0  0  0  0
 24  1  1  0  0  0  0
 25 24  2  0  0  0  0
 26 20  1  0  0  0  0
 27 21  1  0  0  0  0
 28 22  1  0  0  0  0
 30 29  1  0  0  0  0
 30 31  1  0  0  0  0
 31 28  1  0  0  0  0
 32 31  2  0  0  0  0
 32 33  1  0  0  0  0
 34 32  1  0  0  0  0
 35 34  1  0  0  0  0
 36 37  1  0  0  0  0
 36 34  2  0  0  0  0
 37 30  2  0  0  0  0
M  END
>  <minimizedAffinity>
-6.07552767

$$$$

 OpenBabel03242523403D

 37 41  0  0  1  0  0  0  0  0999 V2000
   37.8410   30.8820   37.7730 C   0  0  2  0  0  0  0  0  0  0  0  0
   37.4490   30.2530   36.7310 N   0  0  2  0  0  4  0  0  0  0  0  0
   36.7050   30.1370   35.7270 C   0  0  0  0  0  0  0  0  0  0  0  0
   36.2350   29.0090   36.3400 N   0  0  0  0  0  0  0  0  0  0  0  0
   35.9500   29.2350   37.6630 C   0  0  2  0  0  3  0  0  0  0  0  0
   34.8650   28.4770   38.1910 C   0  0  0  0  0  0  0  0  0  0  0  0
   34.5300   28.7110   39.4670 C   0  0  0  0  0  0  0  0  0  0  0  0
   35.1480   29.6090   40.2730 C   0  0  0  0  0  0  0  0  0  0  0  0
   36.1870   30.2730   39.6250 C   0  0  0  0  0  0  0  0  0  0  0  0
   36.7180   30.2080   38.3370 C   0  0  1  0  0  0  0  0  0  0  0  0
   38.6880   30.1530   38.2190 H   0  0  0  0  0  0  0  0  0  0  0  0
   38.4100   30.0930   36.1980 H   0  0  0  0  0  0  0  0  0  0  0  0
   37.0050   29.8930   34.6580 H   0  0  0  0  0  0  0  0  0  0  0  0
   35.9140   30.8990   35.5600 H   0  0  0  0  0  0  0  0  0  0  0  0
   36.1060   28.0730   35.8330 H   0  0  0  0  0  0  0  0  0  0  0  0
   34.3280   27.7460   37.6210 H   0  0  0  0  0  0  0  0  0  0  0  0
   33.6870   28.1170   39.8670 H   0  0  0  0  0  0  0  0  0  0  0  0
   34.8260   29.7370   41.2640 H   0  0  0  0  0  0  0  0  0  0  0  0
   36.5830   30.9420   40.3960 H   0  0  0  0  0  0  0  0  0  0  0  0
   38.2510   33.7090   40.1330 C   0  0  0  0  0  0  0  0  0  0  0  0
   39.1040   33.0440   41.0260 C   0  0  0  0  0  0  0  0  0  0  0  0
   39.4480   31.7390   40.7180 C   0  0  0  0  0  0  0  0  0  0  0  0
   38.9270   31.2210   39.5780 N   0  0  0  0  0  0  0  0  0  0  0  0
   38.1020   31.8780   38.7260 C   0  0  0  0  0  0  0  0  0  0  0  0
   37.8490   33.0580   39.0910 N   0  0  0  0  0  0  0  0  0  0  0  0
   37.9240   34.7310   40.2840 H   0  0  0  0  0  0  0  0  0  0  0  0
   39.4580   33.5550   41.9020 H   0  0  0  0  0  0  0  0  0  0  0  0
   40.5220   30.8810   41.8270 S   0  0  0  0  0  0  0  0  0  0  0  0
   42.2870   28.3960   42.7180 Br  0  0  0  0  0  0  0  0  0  0  0  0
   40.3790   28.4210   42.9280 C   0  0  0  0  0  0  0  0  0  0  0  0
   39.6080   29.5190   42.5340 C   0  0  0  0  0  0  0  0  0  0  0  0
   38.2250   29.4530   42.7230 C   0  0  0  0  0  0  0  0  0  0  0  0
   37.7060   30.3220   42.4000 H   0  0  0  0  0  0  0  0  0  0  0  0
   37.7000   28.3200   43.2840 C   0  0  0  0  0  0  0  0  0  0  0  0
   36.6150   28.3130   43.4140 H   0  0  0  0  0  0  0  0  0  0  0  0
   38.4630   27.2390   43.6730 C   0  0  0  0  0  3  0  0  0  0  0  0
   39.8220   27.3050   43.4860 C   0  0  0  0  0  3  0  0  0  0  0  0
  1 11  1  1  0  0  0
  1 10  1  0  0  0  0
  1 24  1  0  0  0  0
  2 12  1  6  0  0  0
  2  1  1  0  0  0  0
  2 10  1  0  0  0  0
  3  4  1  0  0  0  0
  3  2  1  0  0  0  0
  4  5  1  0  0  0  0
  5  6  1  6  0  0  0
  5 10  1  0  0  0  0
  6  7  2  0  0  0  0
  7 17  1  0  0  0  0
  7  8  1  0  0  0  0
  8 18  1  0  0  0  0
  9  8  2  0  0  0  0
  9 19  1  0  0  0  0
 10  9  1  6  0  0  0
 13  3  1  0  0  0  0
 14  3  1  0  0  0  0
 15  4  1  0  0  0  0
 16  6  1  0  0  0  0
 20 26  1  0  0  0  0
 20 21  1  0  0  0  0
 21 27  1  0  0  0  0
 22 21  2  0  0  0  0
 22 28  1  0  0  0  0
 23 22  1  0  0  0  0
 24 25  1  0  0  0  0
 24 23  2  0  0  0  0
 25 20  2  0  0  0  0
 28 31  1  0  0  0  0
 29 30  1  0  0  0  0
 30 37  1  0  0  0  0
 31 32  1  0  0  0  0
 31 30  2  0  0  0  0
 32 34  2  0  0  0  0
 33 32  1  0  0  0  0
 34 35  1  0  0  0  0
 34 36  1  0  0  0  0
 37 36  2  0  0  0  0
M  END
>  <minimizedAffinity>
-6.04174709

$$$$

 OpenBabel03242523403D

 37 41  0  0  1  0  0  0  0  0999 V2000
   37.6680   29.8000   37.1330 C   0  0  2  0  0  0  0  0  0  0  0  0
   38.3270   30.8920   37.2140 N   0  0  2  0  0  4  0  0  0  0  0  0
   39.3140   31.5590   37.6110 C   0  0  0  0  0  0  0  0  0  0  0  0
   38.3990   32.2910   38.3160 N   0  0  0  0  0  0  0  0  0  0  0  0
   37.5160   31.4840   38.9880 C   0  0  2  0  0  3  0  0  0  0  0  0
   37.0380   32.0020   40.2260 C   0  0  0  0  0  0  0  0  0  0  0  0
   36.2120   31.2160   40.9300 C   0  0  0  0  0  0  0  0  0  0  0  0
   35.8110   29.9800   40.5440 C   0  0  0  0  0  0  0  0  0  0  0  0
   36.3540   29.6070   39.3170 C   0  0  0  0  0  0  0  0  0  0  0  0
   37.2140   30.2320   38.4140 C   0  0  1  0  0  0  0  0  0  0  0  0
   36.6910   30.1260   36.5120 H   0  0  0  0  0  0  0  0  0  0  0  0
   38.3950   31.1870   36.1460 H   0  0  0  0  0  0  0  0  0  0  0  0
   39.9760   32.2570   37.0070 H   0  0  0  0  0  0  0  0  0  0  0  0
   40.0640   31.0630   38.2640 H   0  0  0  0  0  0  0  0  0  0  0  0
   38.3910   33.3640   38.3340 H   0  0  0  0  0  0  0  0  0  0  0  0
   37.3040   32.9700   40.5990 H   0  0  0  0  0  0  0  0  0  0  0  0
   35.8470   31.6280   41.8890 H   0  0  0  0  0  0  0  0  0  0  0  0
   35.1610   29.4230   41.1520 H   0  0  0  0  0  0  0  0  0  0  0  0
   35.9350   28.6110   39.1440 H   0  0  0  0  0  0  0  0  0  0  0  0
   36.5710   26.2800   36.7660 C   0  0  0  0  0  0  0  0  0  0  0  0
   37.2510   25.7880   37.8900 C   0  0  0  0  0  0  0  0  0  0  0  0
   37.9770   26.6970   38.6380 C   0  0  0  0  0  0  0  0  0  0  0  0
   37.9660   27.9860   38.2160 N   0  0  0  0  0  0  0  0  0  0  0  0
   37.3030   28.4460   37.1250 C   0  0  0  0  0  0  0  0  0  0  0  0
   36.6710   27.5440   36.5110 N   0  0  0  0  0  0  0  0  0  0  0  0
   35.9750   25.6500   36.1180 H   0  0  0  0  0  0  0  0  0  0  0  0
   37.1890   24.7420   38.1320 H   0  0  0  0  0  0  0  0  0  0  0  0
   38.8410   26.1000   40.0580 S   0  0  0  0  0  0  0  0  0  0  0  0
   40.3980   28.7680   40.7960 Br  0  0  0  0  0  0  0  0  0  0  0  0
   38.8970   28.1460   41.8190 C   0  0  0  0  0  0  0  0  0  0  0  0
   38.2160   26.9700   41.4880 C   0  0  0  0  0  0  0  0  0  0  0  0
   37.1330   26.5900   42.2860 C   0  0  0  0  0  0  0  0  0  0  0  0
   36.6660   25.6890   41.9750 H   0  0  0  0  0  0  0  0  0  0  0  0
   36.7980   27.3880   43.3470 C   0  0  0  0  0  0  0  0  0  0  0  0
   35.9450   27.0530   43.9430 H   0  0  0  0  0  0  0  0  0  0  0  0
   37.4710   28.5480   43.6700 C   0  0  0  0  0  3  0  0  0  0  0  0
   38.5340   28.9200   42.8850 C   0  0  0  0  0  3  0  0  0  0  0  0
  1 11  1  6  0  0  0
  1  2  1  0  0  0  0
  1 10  1  0  0  0  0
  2 12  1  6  0  0  0
  2  3  1  0  0  0  0
  2 10  1  0  0  0  0
  3 14  1  0  0  0  0
  3  4  1  0  0  0  0
  4 15  1  0  0  0  0
  4  5  1  0  0  0  0
  5  6  1  1  0  0  0
  6 16  1  0  0  0  0
  6  7  2  0  0  0  0
  7 17  1  0  0  0  0
  8  7  1  0  0  0  0
  8 18  1  0  0  0  0
  9  8  2  0  0  0  0
 10  5  1  0  0  0  0
 10  9  1  1  0  0  0
 13  3  1  0  0  0  0
 19  9  1  0  0  0  0
 20 21  1  0  0  0  0
 21 27  1  0  0  0  0
 21 22  2  0  0  0  0
 22 28  1  0  0  0  0
 23 22  1  0  0  0  0
 24  1  1  0  0  0  0
 24 23  2  0  0  0  0
 25 20  2  0  0  0  0
 25 24  1  0  0  0  0
 26 20  1  0  0  0  0
 28 31  1  0  0  0  0
 29 30  1  0  0  0  0
 30 37  1  0  0  0  0
 31 30  2  0  0  0  0
 31 32  1  0  0  0  0
 32 34  2  0  0  0  0
 33 32  1  0  0  0  0
 34 36  1  0  0  0  0
 34 35  1  0  0  0  0
 37 36  2  0  0  0  0
M  END
>  <minimizedAffinity>
-5.82156086

$$$$

 OpenBabel03242523403D

 37 41  0  0  1  0  0  0  0  0999 V2000
   38.5790   30.3030   37.5340 C   0  0  2  0  0  0  0  0  0  0  0  0
   39.8370   30.4670   37.6910 N   0  0  2  0  0  4  0  0  0  0  0  0
   40.8960   30.3220   38.3500 C   0  0  0  0  0  0  0  0  0  0  0  0
   40.9100   31.6870   38.4250 N   0  0  0  0  0  0  0  0  0  0  0  0
   39.6800   32.1860   38.7750 C   0  0  2  0  0  3  0  0  0  0  0  0
   39.7060   33.3810   39.5520 C   0  0  0  0  0  0  0  0  0  0  0  0
   38.5230   33.8660   39.9520 C   0  0  0  0  0  0  0  0  0  0  0  0
   37.3240   33.3010   39.6680 C   0  0  0  0  0  0  0  0  0  0  0  0
   37.4520   32.1440   38.9030 C   0  0  0  0  0  0  0  0  0  0  0  0
   38.5430   31.4540   38.3740 C   0  0  1  0  0  0  0  0  0  0  0  0
   38.3660   30.8720   36.4950 H   0  0  0  0  0  0  0  0  0  0  0  0
   40.2310   30.0780   36.7290 H   0  0  0  0  0  0  0  0  0  0  0  0
   41.9040   29.9500   37.9820 H   0  0  0  0  0  0  0  0  0  0  0  0
   40.8390   29.8360   39.3480 H   0  0  0  0  0  0  0  0  0  0  0  0
   41.7840   32.2780   38.2360 H   0  0  0  0  0  0  0  0  0  0  0  0
   40.6110   33.8900   39.8150 H   0  0  0  0  0  0  0  0  0  0  0  0
   38.5550   34.7930   40.5530 H   0  0  0  0  0  0  0  0  0  0  0  0
   36.4380   33.7410   40.0190 H   0  0  0  0  0  0  0  0  0  0  0  0
   36.4170   31.8200   38.7540 H   0  0  0  0  0  0  0  0  0  0  0  0
   35.0160   29.2880   37.4910 C   0  0  0  0  0  0  0  0  0  0  0  0
   35.1740   28.1340   38.2710 C   0  0  0  0  0  0  0  0  0  0  0  0
   36.4490   27.8490   38.7270 C   0  0  0  0  0  0  0  0  0  0  0  0
   37.4330   28.7140   38.3770 N   0  0  0  0  0  0  0  0  0  0  0  0
   37.2630   29.8260   37.6200 C   0  0  0  0  0  0  0  0  0  0  0  0
   36.0690   30.0010   37.2540 N   0  0  0  0  0  0  0  0  0  0  0  0
   34.0600   29.5990   37.0880 H   0  0  0  0  0  0  0  0  0  0  0  0
   34.3200   27.5180   38.4880 H   0  0  0  0  0  0  0  0  0  0  0  0
   36.6720   26.4000   39.7130 S   0  0  0  0  0  0  0  0  0  0  0  0
   39.8000   26.0050   40.0970 Br  0  0  0  0  0  0  0  0  0  0  0  0
   38.6860   26.7380   41.4790 C   0  0  0  0  0  0  0  0  0  0  0  0
   37.3090   26.9090   41.3020 C   0  0  0  0  0  0  0  0  0  0  0  0
   36.5730   27.4500   42.3600 C   0  0  0  0  0  0  0  0  0  0  0  0
   35.5360   27.5500   42.1540 H   0  0  0  0  0  0  0  0  0  0  0  0
   37.2380   27.7830   43.5090 C   0  0  0  0  0  0  0  0  0  0  0  0
   36.6230   28.2030   44.3090 H   0  0  0  0  0  0  0  0  0  0  0  0
   38.5960   27.6140   43.6800 C   0  0  0  0  0  3  0  0  0  0  0  0
   39.3180   27.0830   42.6400 C   0  0  0  0  0  3  0  0  0  0  0  0
  1 11  1  6  0  0  0
  1 24  1  0  0  0  0
  1  2  1  0  0  0  0
  1 10  1  0  0  0  0
  2 12  1  6  0  0  0
  2  3  1  0  0  0  0
  2 10  1  0  0  0  0
  3  4  1  0  0  0  0
  3 14  1  0  0  0  0
  4  5  1  0  0  0  0
  5  6  1  1  0  0  0
  6 16  1  0  0  0  0
  6  7  2  0  0  0  0
  7 17  1  0  0  0  0
  8  7  1  0  0  0  0
  8 18  1  0  0  0  0
  9  8  2  0  0  0  0
 10  5  1  0  0  0  0
 10  9  1  1  0  0  0
 13  3  1  0  0  0  0
 15  4  1  0  0  0  0
 19  9  1  0  0  0  0
 20 21  1  0  0  0  0
 21 27  1  0  0  0  0
 21 22  2  0  0  0  0
 22 28  1  0  0  0  0
 23 22  1  0  0  0  0
 24 23  2  0  0  0  0
 25 20  2  0  0  0  0
 25 24  1  0  0  0  0
 26 20  1  0  0  0  0
 28 31  1  0  0  0  0
 29 30  1  0  0  0  0
 30 37  1  0  0  0  0
 31 30  2  0  0  0  0
 31 32  1  0  0  0  0
 32 34  2  0  0  0  0
 33 32  1  0  0  0  0
 34 36  1  0  0  0  0
 34 35  1  0  0  0  0
 37 36  2  0  0  0  0
M  END
>  <minimizedAffinity>
-5.79325533

$$$$
