
 OpenBabel03252509263D

 30 32  0  0  1  0  0  0  0  0999 V2000
   46.5540   35.0280   41.9420 C   0  0  1  0  0  0  0  0  0  0  0  0
   48.0650   35.3850   41.9560 C   0  0  0  0  0  0  0  0  0  0  0  0
   47.4370   34.0820   41.3970 C   0  0  2  0  0  0  0  0  0  0  0  0
   45.9410   35.7220   41.3300 H   0  0  0  0  0  0  0  0  0  0  0  0
   48.3440   36.1460   41.2000 H   0  0  0  0  0  0  0  0  0  0  0  0
   48.6150   35.3250   42.9020 H   0  0  0  0  0  0  0  0  0  0  0  0
   47.7760   33.1770   41.9910 H   0  0  0  0  0  0  0  0  0  0  0  0
   44.6400   35.4380   45.1430 C   0  0  0  0  0  0  0  0  0  0  0  0
   45.1100   35.7250   43.8300 C   0  0  0  0  0  0  0  0  0  0  0  0
   46.0390   34.8610   43.3540 C   0  0  0  0  0  0  0  0  0  0  0  0
   46.5000   33.7790   44.0930 N   0  0  0  0  0  0  0  0  0  0  0  0
   46.0130   33.5600   45.3400 C   0  0  0  0  0  0  0  0  0  0  0  0
   45.0780   34.4000   45.8570 N   0  0  0  0  0  0  0  0  0  0  0  0
   43.8940   36.0970   45.5710 H   0  0  0  0  0  0  0  0  0  0  0  0
   46.4700   32.6840   45.7780 H   0  0  0  0  0  0  0  0  0  0  0  0
   44.6750   36.8380   43.0900 N   0  0  0  0  0  0  0  0  0  0  0  0
   44.0460   36.5010   42.3340 H   0  0  0  0  0  0  0  0  0  0  0  0
   44.9880   37.8190   43.3380 H   0  0  0  0  0  0  0  0  0  0  0  0
   47.5090   33.8150   39.9110 C   0  0  0  0  0  0  0  0  0  0  0  0
   46.4890   33.8000   39.4540 H   0  0  0  0  0  0  0  0  0  0  0  0
   48.0680   34.6410   39.4450 H   0  0  0  0  0  0  0  0  0  0  0  0
   45.8080   31.9790   38.1630 Br  0  0  0  0  0  0  0  0  0  0  0  0
   47.5500   31.6480   38.8460 C   0  0  0  0  0  0  0  0  0  0  0  0
   48.2350   32.5650   39.6390 C   0  0  0  0  0  0  0  0  0  0  0  0
   49.4920   32.2530   40.0960 C   0  0  0  0  0  0  0  0  0  0  0  0
   49.9570   33.0220   40.7080 H   0  0  0  0  0  0  0  0  0  0  0  0
   50.1570   31.0760   39.8320 C   0  0  0  0  0  0  0  0  0  0  0  0
   51.1320   30.8660   40.2030 H   0  0  0  0  0  0  0  0  0  0  0  0
   49.4520   30.1750   39.0380 C   0  0  0  0  0  3  0  0  0  0  0  0
   48.1920   30.4470   38.5590 C   0  0  0  0  0  3  0  0  0  0  0  0
  1  4  1  6  0  0  0
  1  2  1  0  0  0  0
  1 10  1  0  0  0  0
  2  6  1  0  0  0  0
  3  1  1  0  0  0  0
  3  2  1  0  0  0  0
  3  7  1  1  0  0  0
  5  2  1  0  0  0  0
  8 14  1  0  0  0  0
  8 13  1  0  0  0  0
  9  8  2  0  0  0  0
 10  9  1  0  0  0  0
 10 11  2  0  0  0  0
 11 12  1  0  0  0  0
 12 15  1  0  0  0  0
 12 13  2  0  0  0  0
 16 18  1  0  0  0  0
 16  9  1  0  0  0  0
 17 16  1  0  0  0  0
 19  3  1  0  0  0  0
 20 19  1  0  0  0  0
 21 19  1  0  0  0  0
 22 23  1  0  0  0  0
 23 24  1  0  0  0  0
 24 19  1  0  0  0  0
 24 25  2  0  0  0  0
 25 26  1  0  0  0  0
 27 25  1  0  0  0  0
 27 28  1  0  0  0  0
 29 27  2  0  0  0  0
 30 23  2  0  0  0  0
 30 29  1  0  0  0  0
M  END
>  <minimizedAffinity>
-4.63736248

>  <minimizedRMSD>
0.351014286

$$$$
