
 OpenBabel03252504243D

 21 22  0  0  0  0  0  0  0  0999 V2000
   44.0680   35.5300   41.5870 C   0  0  0  0  0  0  0  0  0  0  0  0
   44.7990   35.2970   40.7850 H   0  0  0  0  0  0  0  0  0  0  0  0
   43.9700   36.6340   41.6220 H   0  0  0  0  0  0  0  0  0  0  0  0
   44.3380   35.9050   43.9850 C   0  0  0  0  0  0  0  0  0  0  0  0
   44.4850   35.0200   42.9040 C   0  0  0  0  0  0  0  0  0  0  0  0
   45.0040   33.7640   43.1770 C   0  0  0  0  0  0  0  0  0  0  0  0
   45.3390   33.4590   44.4610 N   0  0  0  0  0  0  0  0  0  0  0  0
   45.1790   34.3430   45.4710 C   0  0  0  0  0  0  0  0  0  0  0  0
   44.6730   35.5950   45.2580 N   0  0  0  0  0  0  0  0  0  0  0  0
   43.9400   36.8910   43.8320 H   0  0  0  0  0  0  0  0  0  0  0  0
   45.1090   33.1110   42.3530 H   0  0  0  0  0  0  0  0  0  0  0  0
   45.4370   34.1280   46.5000 H   0  0  0  0  0  0  0  0  0  0  0  0
   44.3890   33.3600   39.4840 Br  0  0  0  0  0  0  0  0  0  0  0  0
   42.7290   33.9470   40.2290 C   0  0  0  0  0  0  0  0  0  0  0  0
   42.7560   34.9490   41.1810 C   0  0  0  0  0  0  0  0  0  0  0  0
   41.5860   35.4220   41.7640 C   0  0  0  0  0  0  0  0  0  0  0  0
   41.6350   36.2150   42.5120 H   0  0  0  0  0  0  0  0  0  0  0  0
   40.3720   34.8650   41.3700 C   0  0  0  0  0  0  0  0  0  0  0  0
   39.4680   35.2380   41.8260 H   0  0  0  0  0  0  0  0  0  0  0  0
   40.3390   33.8540   40.4100 C   0  0  0  0  0  3  0  0  0  0  0  0
   41.5240   33.3960   39.8410 C   0  0  0  0  0  3  0  0  0  0  0  0
  1  3  1  0  0  0  0
  1  5  1  0  0  0  0
  2  1  1  0  0  0  0
  4  9  1  0  0  0  0
  5  6  1  0  0  0  0
  5  4  2  0  0  0  0
  6  7  2  0  0  0  0
  7  8  1  0  0  0  0
  8 12  1  0  0  0  0
  9  8  2  0  0  0  0
 10  4  1  0  0  0  0
 11  6  1  0  0  0  0
 13 14  1  0  0  0  0
 14 15  1  0  0  0  0
 15  1  1  0  0  0  0
 15 16  2  0  0  0  0
 16 17  1  0  0  0  0
 18 16  1  0  0  0  0
 18 19  1  0  0  0  0
 20 18  2  0  0  0  0
 21 14  2  0  0  0  0
 21 20  1  0  0  0  0
M  END
>  <minimizedAffinity>
-4.2532115

>  <minimizedRMSD>
1.54661286

$$$$
