
 OpenBabel03242512173D

 33 35  0  0  0  0  0  0  0  0999 V2000
   48.3910   33.0100   41.3300 C   0  0  0  0  0  0  0  0  0  0  0  0
   48.0620   34.2600   41.7980 C   0  0  0  0  0  0  0  0  0  0  0  0
   49.0320   35.0040   42.4380 C   0  0  0  0  0  0  0  0  0  0  0  0
   50.3020   34.4810   42.5950 C   0  0  0  0  0  0  0  0  0  0  0  0
   50.5900   33.2250   42.1100 C   0  0  0  0  0  0  0  0  0  0  0  0
   49.6310   32.4520   41.4590 C   0  0  0  0  0  0  0  0  0  0  0  0
   48.7480   35.9650   42.7890 H   0  0  0  0  0  0  0  0  0  0  0  0
   51.0270   35.0980   43.1010 H   0  0  0  0  0  0  0  0  0  0  0  0
   51.6060   32.8920   42.2740 H   0  0  0  0  0  0  0  0  0  0  0  0
   46.6690   34.7010   41.5680 C   0  0  0  0  0  0  0  0  0  0  0  0
   46.1290   34.0610   40.8930 H   0  0  0  0  0  0  0  0  0  0  0  0
   46.7220   35.7090   41.0710 H   0  0  0  0  0  0  0  0  0  0  0  0
   45.9750   34.8990   42.9040 C   0  0  0  0  0  0  0  0  0  0  0  0
   46.0720   33.8770   43.8300 C   0  0  0  0  0  0  0  0  0  0  0  0
   45.4390   34.0690   45.0570 C   0  0  0  0  0  0  0  0  0  0  0  0
   44.7800   35.2180   45.2670 N   0  0  0  0  0  0  0  0  0  0  0  0
   44.7030   36.2040   44.3370 C   0  0  0  0  0  0  0  0  0  0  0  0
   45.3010   36.0430   43.1530 N   0  0  0  0  0  0  0  0  0  0  0  0
   46.6190   32.9740   43.5950 H   0  0  0  0  0  0  0  0  0  0  0  0
   45.5140   33.2750   45.7760 H   0  0  0  0  0  0  0  0  0  0  0  0
   44.1450   37.0860   44.6180 H   0  0  0  0  0  0  0  0  0  0  0  0
   47.4690   32.1700   40.6590 O   0  0  0  0  0  0  0  0  0  0  0  0
   46.7850   31.6340   41.1750 H   0  0  0  0  0  0  0  0  0  0  0  0
   50.0110   31.1940   41.0020 O   0  0  0  0  0  0  0  0  0  0  0  0
   52.7160   29.9060   41.8700 Br  0  0  0  0  0  0  0  0  0  0  0  0
   52.2640   30.6350   40.1810 C   0  0  0  0  0  0  0  0  0  0  0  0
   50.9970   31.1550   40.0250 C   0  0  0  0  0  0  0  0  0  0  0  0
   50.7270   31.6760   38.7630 C   0  0  0  0  0  0  0  0  0  0  0  0
   49.7350   32.0950   38.6030 H   0  0  0  0  0  0  0  0  0  0  0  0
   51.5990   31.7130   37.6850 C   0  0  0  0  0  0  0  0  0  0  0  0
   51.2640   32.1480   36.7540 H   0  0  0  0  0  0  0  0  0  0  0  0
   52.8640   31.1700   37.9110 C   0  0  0  0  0  3  0  0  0  0  0  0
   53.1880   30.6360   39.1550 C   0  0  0  0  0  3  0  0  0  0  0  0
  1  6  2  0  0  0  0
  1  2  1  0  0  0  0
  2  3  2  0  0  0  0
  3  4  1  0  0  0  0
  3  7  1  0  0  0  0
  4  8  1  0  0  0  0
  5  9  1  0  0  0  0
  5  4  2  0  0  0  0
  6  5  1  0  0  0  0
 10  2  1  0  0  0  0
 10 13  1  0  0  0  0
 11 10  1  0  0  0  0
 12 10  1  0  0  0  0
 13 18  2  0  0  0  0
 13 14  1  0  0  0  0
 14 15  2  0  0  0  0
 15 16  1  0  0  0  0
 15 20  1  0  0  0  0
 17 21  1  0  0  0  0
 17 16  2  0  0  0  0
 18 17  1  0  0  0  0
 19 14  1  0  0  0  0
 22 23  1  0  0  0  0
 22  1  1  0  0  0  0
 24  6  1  0  0  0  0
 26 25  1  0  0  0  0
 27 26  1  0  0  0  0
 27 24  1  0  0  0  0
 28 27  2  0  0  0  0
 29 28  1  0  0  0  0
 30 32  2  0  0  0  0
 30 28  1  0  0  0  0
 31 30  1  0  0  0  0
 32 33  1  0  0  0  0
 33 26  2  0  0  0  0
M  END
>  <minimizedAffinity>
-5.32110977

>  <minimizedRMSD>
1.618541

$$$$
