
 OpenBabel03252504543D

 21 22  0  0  0  0  0  0  0  0999 V2000
   47.6450   34.4480   42.6650 C   0  0  0  0  0  0  0  0  0  0  0  0
   48.1950   34.2860   41.6980 H   0  0  0  0  0  0  0  0  0  0  0  0
   48.1370   35.2270   43.2780 H   0  0  0  0  0  0  0  0  0  0  0  0
   47.0230   31.8760   45.2760 C   0  0  0  0  0  0  0  0  0  0  0  0
   46.9700   33.1070   44.5950 C   0  0  0  0  0  0  0  0  0  0  0  0
   47.6850   33.1790   43.3970 C   0  0  0  0  0  0  0  0  0  0  0  0
   48.3790   32.0850   42.9580 N   0  0  0  0  0  0  0  0  0  0  0  0
   48.3900   30.9290   43.6590 C   0  0  0  0  0  0  0  0  0  0  0  0
   47.7150   30.8300   44.8090 N   0  0  0  0  0  0  0  0  0  0  0  0
   46.4750   31.7930   46.2120 H   0  0  0  0  0  0  0  0  0  0  0  0
   46.4050   33.9510   44.9810 H   0  0  0  0  0  0  0  0  0  0  0  0
   48.9950   30.1890   43.1390 H   0  0  0  0  0  0  0  0  0  0  0  0
   46.6790   33.2160   39.9270 Br  0  0  0  0  0  0  0  0  0  0  0  0
   45.7410   34.3580   41.1550 C   0  0  0  0  0  0  0  0  0  0  0  0
   46.2520   34.8630   42.3460 C   0  0  0  0  0  0  0  0  0  0  0  0
   45.4640   35.6740   43.1220 C   0  0  0  0  0  0  0  0  0  0  0  0
   45.8940   36.0500   44.0440 H   0  0  0  0  0  0  0  0  0  0  0  0
   44.1790   35.9600   42.6850 C   0  0  0  0  0  0  0  0  0  0  0  0
   43.5740   36.6050   43.3220 H   0  0  0  0  0  0  0  0  0  0  0  0
   43.6490   35.4760   41.5170 C   0  0  0  0  0  3  0  0  0  0  0  0
   44.4480   34.6530   40.7290 C   0  0  0  0  0  3  0  0  0  0  0  0
  1  3  1  0  0  0  0
  1  6  1  0  0  0  0
  2  1  1  0  0  0  0
  4 10  1  0  0  0  0
  5 11  1  0  0  0  0
  5  4  2  0  0  0  0
  6  5  1  0  0  0  0
  7  6  2  0  0  0  0
  7  8  1  0  0  0  0
  8  9  2  0  0  0  0
  9  4  1  0  0  0  0
 12  8  1  0  0  0  0
 13 14  1  0  0  0  0
 14 15  1  0  0  0  0
 15  1  1  0  0  0  0
 15 16  2  0  0  0  0
 16 17  1  0  0  0  0
 18 16  1  0  0  0  0
 18 19  1  0  0  0  0
 20 18  2  0  0  0  0
 21 14  2  0  0  0  0
 21 20  1  0  0  0  0
M  END
>  <minimizedAffinity>
-3.77784538

>  <minimizedRMSD>
3.51967454

$$$$
