
 OpenBabel03252505403D

 28 30  0  0  1  0  0  0  0  0999 V2000
   44.1380   34.7740   42.7090 C   0  0  1  0  0  0  0  0  0  0  0  0
   44.5080   36.1660   42.1710 C   0  0  0  0  0  0  0  0  0  0  0  0
   44.1670   35.0400   41.2650 C   0  0  2  0  0  0  0  0  0  0  0  0
   43.2020   34.6930   43.2700 H   0  0  0  0  0  0  0  0  0  0  0  0
   43.7910   36.9200   42.4880 H   0  0  0  0  0  0  0  0  0  0  0  0
   45.5630   36.4890   42.3030 H   0  0  0  0  0  0  0  0  0  0  0  0
   45.0700   34.6960   40.6660 H   0  0  0  0  0  0  0  0  0  0  0  0
   43.7420   33.3910   38.5240 Br  0  0  0  0  0  0  0  0  0  0  0  0
   42.4140   34.3850   39.4120 C   0  0  0  0  0  0  0  0  0  0  0  0
   42.8600   34.9770   40.5690 C   0  0  0  0  0  0  0  0  0  0  0  0
   41.9410   35.7300   41.3150 C   0  0  0  0  0  0  0  0  0  0  0  0
   42.0820   36.2760   42.2500 H   0  0  0  0  0  0  0  0  0  0  0  0
   40.6120   35.8710   40.8900 C   0  0  0  0  0  0  0  0  0  0  0  0
   39.8490   36.4300   41.4070 H   0  0  0  0  0  0  0  0  0  0  0  0
   40.1860   35.2690   39.7270 C   0  0  0  0  0  3  0  0  0  0  0  0
   41.1130   34.5350   39.0150 C   0  0  0  0  0  3  0  0  0  0  0  0
   45.2640   34.0670   43.3940 C   0  0  0  0  0  0  0  0  0  0  0  0
   46.4430   33.7860   42.6580 C   0  0  0  0  0  0  0  0  0  0  0  0
   47.4680   33.1350   43.3300 C   0  0  0  0  0  0  0  0  0  0  0  0
   47.2860   32.8120   44.6320 N   0  0  0  0  0  0  0  0  0  0  0  0
   46.1410   33.1000   45.2990 C   0  0  0  0  0  0  0  0  0  0  0  0
   45.1210   33.7360   44.6690 N   0  0  0  0  0  0  0  0  0  0  0  0
   46.5500   34.0580   41.6280 H   0  0  0  0  0  0  0  0  0  0  0  0
   48.4000   32.8760   42.8670 H   0  0  0  0  0  0  0  0  0  0  0  0
   46.1500   32.6580   46.7320 C   0  0  0  0  0  0  0  0  0  0  0  0
   45.1510   33.2570   47.4540 F   0  0  0  0  0  0  0  0  0  0  0  0
   47.3750   32.9850   47.3160 F   0  0  0  0  0  0  0  0  0  0  0  0
   46.0810   31.2700   46.7710 F   0  0  0  0  0  0  0  0  0  0  0  0
  1  4  1  1  0  0  0
  1 17  1  0  0  0  0
  2  6  1  0  0  0  0
  2  5  1  0  0  0  0
  2  1  1  0  0  0  0
  3  7  1  6  0  0  0
  3  2  1  0  0  0  0
  3  1  1  0  0  0  0
  8  9  1  0  0  0  0
  9 10  1  0  0  0  0
 10  3  1  0  0  0  0
 10 11  2  0  0  0  0
 11 12  1  0  0  0  0
 13 11  1  0  0  0  0
 13 14  1  0  0  0  0
 15 13  2  0  0  0  0
 16  9  2  0  0  0  0
 16 15  1  0  0  0  0
 17 22  1  0  0  0  0
 18 19  1  0  0  0  0
 18 17  2  0  0  0  0
 19 20  2  0  0  0  0
 20 21  1  0  0  0  0
 21 25  1  0  0  0  0
 22 21  2  0  0  0  0
 23 18  1  0  0  0  0
 24 19  1  0  0  0  0
 25 28  1  0  0  0  0
 25 27  1  0  0  0  0
 25 26  1  0  0  0  0
M  END
>  <minimizedAffinity>
-5.42626619

>  <minimizedRMSD>
1.84208775

$$$$
