
 OpenBabel03242520533D

 27 28  0  0  0  0  0  0  0  0999 V2000
   36.6440   29.9180   38.7320 C   0  0  0  0  0  3  0  0  0  0  0  0
   36.0300   30.0870   39.8580 C   0  0  0  0  0  3  0  0  0  0  0  0
   34.0030   28.6960   36.4810 C   0  0  0  0  0  0  0  0  0  0  0  0
   34.5480   28.9740   35.2240 C   0  0  0  0  0  0  0  0  0  0  0  0
   35.8070   29.5710   35.1480 C   0  0  0  0  0  0  0  0  0  0  0  0
   36.4490   29.8580   36.3120 N   0  0  0  0  0  0  0  0  0  0  0  0
   35.8950   29.5780   37.5060 C   0  0  0  0  0  0  0  0  0  0  0  0
   34.6860   29.0040   37.5890 N   0  0  0  0  0  0  0  0  0  0  0  0
   33.0410   28.2400   36.5230 H   0  0  0  0  0  0  0  0  0  0  0  0
   34.0810   28.7650   34.2960 H   0  0  0  0  0  0  0  0  0  0  0  0
   36.4760   29.9060   33.9880 O   0  0  0  0  0  0  0  0  0  0  0  0
   36.2890   31.2270   33.4900 C   0  0  0  0  0  0  0  0  0  0  0  0
   37.0460   32.1060   34.2660 F   0  0  0  0  0  0  0  0  0  0  0  0
   36.7840   31.2370   32.1750 F   0  0  0  0  0  0  0  0  0  0  0  0
   34.9540   31.5840   33.4800 F   0  0  0  0  0  0  0  0  0  0  0  0
   36.6800   30.4370   41.1440 C   0  0  0  0  0  0  0  0  0  0  0  0
   36.0130   31.0740   41.7540 H   0  0  0  0  0  0  0  0  0  0  0  0
   37.5870   31.0400   40.8860 H   0  0  0  0  0  0  0  0  0  0  0  0
   39.5190   30.9070   42.0970 Br  0  0  0  0  0  0  0  0  0  0  0  0
   38.3940   29.3770   42.3690 C   0  0  0  0  0  0  0  0  0  0  0  0
   37.0990   29.2300   41.9000 C   0  0  0  0  0  0  0  0  0  0  0  0
   36.3960   28.0740   42.1660 C   0  0  0  0  0  0  0  0  0  0  0  0
   35.3910   28.0900   41.7410 H   0  0  0  0  0  0  0  0  0  0  0  0
   36.9990   27.0710   42.9040 C   0  0  0  0  0  0  0  0  0  0  0  0
   36.3900   26.2000   43.0720 H   0  0  0  0  0  0  0  0  0  0  0  0
   38.2860   27.2180   43.3690 C   0  0  0  0  0  3  0  0  0  0  0  0
   39.0220   28.3790   43.1140 C   0  0  0  0  0  3  0  0  0  0  0  0
  1  2  2  0  0  0  0
  2 16  1  0  0  0  0
  3  9  1  0  0  0  0
  3  8  1  0  0  0  0
  4  3  2  0  0  0  0
  5  4  1  0  0  0  0
  5  6  2  0  0  0  0
  6  7  1  0  0  0  0
  7  8  2  0  0  0  0
  7  1  1  0  0  0  0
 10  4  1  0  0  0  0
 11  5  1  0  0  0  0
 12 11  1  0  0  0  0
 12 13  1  0  0  0  0
 14 12  1  0  0  0  0
 15 12  1  0  0  0  0
 16 17  1  0  0  0  0
 16 21  1  0  0  0  0
 18 16  1  0  0  0  0
 19 20  1  0  0  0  0
 20 27  1  0  0  0  0
 21 22  1  0  0  0  0
 21 20  2  0  0  0  0
 22 24  2  0  0  0  0
 23 22  1  0  0  0  0
 24 25  1  0  0  0  0
 24 26  1  0  0  0  0
 27 26  2  0  0  0  0
M  END
>  <minimizedAffinity>
-5.55755043

$$$$

 OpenBabel03242520533D

 27 28  0  0  0  0  0  0  0  0999 V2000
   33.5930   28.9190   38.4750 C   0  0  0  0  0  3  0  0  0  0  0  0
   33.3380   28.9200   37.2060 C   0  0  0  0  0  3  0  0  0  0  0  0
   37.2480   29.3220   38.5520 C   0  0  0  0  0  0  0  0  0  0  0  0
   37.5200   29.2030   39.9180 C   0  0  0  0  0  0  0  0  0  0  0  0
   36.4630   28.9850   40.8030 C   0  0  0  0  0  0  0  0  0  0  0  0
   35.2070   28.9000   40.2880 N   0  0  0  0  0  0  0  0  0  0  0  0
   34.9810   29.0200   38.9680 C   0  0  0  0  0  0  0  0  0  0  0  0
   35.9900   29.2280   38.1100 N   0  0  0  0  0  0  0  0  0  0  0  0
   38.0660   29.4870   37.8890 H   0  0  0  0  0  0  0  0  0  0  0  0
   38.4830   29.2630   40.3580 H   0  0  0  0  0  0  0  0  0  0  0  0
   36.5680   28.8470   42.1720 O   0  0  0  0  0  0  0  0  0  0  0  0
   36.8790   27.5500   42.6710 C   0  0  0  0  0  0  0  0  0  0  0  0
   38.1530   27.5860   43.2400 F   0  0  0  0  0  0  0  0  0  0  0  0
   35.9390   27.2670   43.6770 F   0  0  0  0  0  0  0  0  0  0  0  0
   36.7950   26.5890   41.6820 F   0  0  0  0  0  0  0  0  0  0  0  0
   31.9870   28.8320   36.6030 C   0  0  0  0  0  0  0  0  0  0  0  0
   31.2410   28.5380   37.3650 H   0  0  0  0  0  0  0  0  0  0  0  0
   32.0340   28.0160   35.8380 H   0  0  0  0  0  0  0  0  0  0  0  0
   30.0150   30.2380   38.4270 Br  0  0  0  0  0  0  0  0  0  0  0  0
   30.6900   30.7990   36.7210 C   0  0  0  0  0  0  0  0  0  0  0  0
   31.5940   30.1000   35.9370 C   0  0  0  0  0  0  0  0  0  0  0  0
   32.0000   30.6170   34.7260 C   0  0  0  0  0  0  0  0  0  0  0  0
   32.7120   29.9680   34.2140 H   0  0  0  0  0  0  0  0  0  0  0  0
   31.4950   31.8350   34.3070 C   0  0  0  0  0  0  0  0  0  0  0  0
   31.8570   32.1740   33.3520 H   0  0  0  0  0  0  0  0  0  0  0  0
   30.5960   32.5280   35.0860 C   0  0  0  0  0  3  0  0  0  0  0  0
   30.1670   32.0280   36.3190 C   0  0  0  0  0  3  0  0  0  0  0  0
  1  7  1  0  0  0  0
  2  1  2  0  0  0  0
  3  4  1  0  0  0  0
  4 10  1  0  0  0  0
  4  5  2  0  0  0  0
  5 11  1  0  0  0  0
  6  5  1  0  0  0  0
  7  6  2  0  0  0  0
  8  3  2  0  0  0  0
  8  7  1  0  0  0  0
  9  3  1  0  0  0  0
 11 12  1  0  0  0  0
 12 13  1  0  0  0  0
 12 14  1  0  0  0  0
 15 12  1  0  0  0  0
 16  2  1  0  0  0  0
 16 17  1  0  0  0  0
 18 16  1  0  0  0  0
 20 19  1  0  0  0  0
 21 16  1  0  0  0  0
 21 20  2  0  0  0  0
 22 21  1  0  0  0  0
 23 22  1  0  0  0  0
 24 22  2  0  0  0  0
 24 26  1  0  0  0  0
 25 24  1  0  0  0  0
 26 27  2  0  0  0  0
 27 20  1  0  0  0  0
M  END
>  <minimizedAffinity>
-5.49703455

$$$$

 OpenBabel03242520533D

 27 28  0  0  0  0  0  0  0  0999 V2000
   37.1670   27.7830   39.8440 C   0  0  0  0  0  3  0  0  0  0  0  0
   36.9390   27.9690   41.1040 C   0  0  0  0  0  3  0  0  0  0  0  0
   36.9510   29.8550   36.8120 C   0  0  0  0  0  0  0  0  0  0  0  0
   37.5040   31.0620   37.2500 C   0  0  0  0  0  0  0  0  0  0  0  0
   37.9470   31.1650   38.5700 C   0  0  0  0  0  0  0  0  0  0  0  0
   37.8180   30.0750   39.3730 N   0  0  0  0  0  0  0  0  0  0  0  0
   37.2800   28.9280   38.9180 C   0  0  0  0  0  0  0  0  0  0  0  0
   36.8520   28.8200   37.6520 N   0  0  0  0  0  0  0  0  0  0  0  0
   36.6180   29.7920   35.8010 H   0  0  0  0  0  0  0  0  0  0  0  0
   37.6220   31.9320   36.6570 H   0  0  0  0  0  0  0  0  0  0  0  0
   38.5120   32.2820   39.1500 O   0  0  0  0  0  0  0  0  0  0  0  0
   37.6590   33.1050   39.9390 C   0  0  0  0  0  0  0  0  0  0  0  0
   38.4520   33.9380   40.7300 F   0  0  0  0  0  0  0  0  0  0  0  0
   36.9190   33.8960   39.0440 F   0  0  0  0  0  0  0  0  0  0  0  0
   36.7930   32.3520   40.7090 F   0  0  0  0  0  0  0  0  0  0  0  0
   36.8150   26.8960   42.1190 C   0  0  0  0  0  0  0  0  0  0  0  0
   36.2240   26.0510   41.7200 H   0  0  0  0  0  0  0  0  0  0  0  0
   36.2450   27.3370   42.9760 H   0  0  0  0  0  0  0  0  0  0  0  0
   37.1740   24.0350   41.1870 Br  0  0  0  0  0  0  0  0  0  0  0  0
   38.3730   25.1290   42.2090 C   0  0  0  0  0  0  0  0  0  0  0  0
   38.1410   26.4360   42.6030 C   0  0  0  0  0  0  0  0  0  0  0  0
   39.0900   27.1130   43.3380 C   0  0  0  0  0  0  0  0  0  0  0  0
   38.7810   28.1320   43.5800 H   0  0  0  0  0  0  0  0  0  0  0  0
   40.2690   26.4720   43.6750 C   0  0  0  0  0  0  0  0  0  0  0  0
   40.9610   27.0640   44.2490 H   0  0  0  0  0  0  0  0  0  0  0  0
   40.4980   25.1730   43.2830 C   0  0  0  0  0  3  0  0  0  0  0  0
   39.5540   24.4620   42.5370 C   0  0  0  0  0  3  0  0  0  0  0  0
  1  2  2  0  0  0  0
  2 16  1  0  0  0  0
  3  4  2  0  0  0  0
  3  8  1  0  0  0  0
  4  5  1  0  0  0  0
  5 11  1  0  0  0  0
  5  6  2  0  0  0  0
  7  6  1  0  0  0  0
  7  1  1  0  0  0  0
  8  7  2  0  0  0  0
  9  3  1  0  0  0  0
 10  4  1  0  0  0  0
 11 12  1  0  0  0  0
 12 15  1  0  0  0  0
 12 13  1  0  0  0  0
 14 12  1  0  0  0  0
 16 21  1  0  0  0  0
 16 18  1  0  0  0  0
 17 16  1  0  0  0  0
 19 20  1  0  0  0  0
 20 27  2  0  0  0  0
 20 21  1  0  0  0  0
 21 22  2  0  0  0  0
 22 23  1  0  0  0  0
 22 24  1  0  0  0  0
 24 25  1  0  0  0  0
 26 24  2  0  0  0  0
 27 26  1  0  0  0  0
M  END
>  <minimizedAffinity>
-5.37674904

$$$$

 OpenBabel03242520533D

 27 28  0  0  0  0  0  0  0  0999 V2000
   37.7580   28.7340   41.3620 C   0  0  0  0  0  3  0  0  0  0  0  0
   36.7350   28.2100   41.9570 C   0  0  0  0  0  3  0  0  0  0  0  0
   37.2410   32.1790   40.1790 C   0  0  0  0  0  0  0  0  0  0  0  0
   37.3150   32.0190   38.7930 C   0  0  0  0  0  0  0  0  0  0  0  0
   37.5370   30.7450   38.2680 C   0  0  0  0  0  0  0  0  0  0  0  0
   37.6740   29.7100   39.1400 N   0  0  0  0  0  0  0  0  0  0  0  0
   37.5980   29.9000   40.4700 C   0  0  0  0  0  0  0  0  0  0  0  0
   37.3850   31.1200   40.9830 N   0  0  0  0  0  0  0  0  0  0  0  0
   37.0710   33.1580   40.5650 H   0  0  0  0  0  0  0  0  0  0  0  0
   37.2130   32.7980   38.0810 H   0  0  0  0  0  0  0  0  0  0  0  0
   37.6350   30.4250   36.9290 O   0  0  0  0  0  0  0  0  0  0  0  0
   36.5740   29.6600   36.3660 C   0  0  0  0  0  0  0  0  0  0  0  0
   36.2790   30.1730   35.1010 F   0  0  0  0  0  0  0  0  0  0  0  0
   37.0530   28.3470   36.2250 F   0  0  0  0  0  0  0  0  0  0  0  0
   35.4580   29.6570   37.1810 F   0  0  0  0  0  0  0  0  0  0  0  0
   36.7810   27.0480   42.8760 C   0  0  0  0  0  0  0  0  0  0  0  0
   36.0790   26.2610   42.5420 H   0  0  0  0  0  0  0  0  0  0  0  0
   36.4300   27.4190   43.8720 H   0  0  0  0  0  0  0  0  0  0  0  0
   36.8730   24.4110   41.3850 Br  0  0  0  0  0  0  0  0  0  0  0  0
   38.2720   25.2970   42.3540 C   0  0  0  0  0  0  0  0  0  0  0  0
   38.1570   26.5070   43.0170 C   0  0  0  0  0  0  0  0  0  0  0  0
   39.2440   27.0370   43.6790 C   0  0  0  0  0  0  0  0  0  0  0  0
   39.0170   27.9920   44.1560 H   0  0  0  0  0  0  0  0  0  0  0  0
   40.4430   26.3460   43.6710 C   0  0  0  0  0  0  0  0  0  0  0  0
   41.2450   26.8210   44.2080 H   0  0  0  0  0  0  0  0  0  0  0  0
   40.5550   25.1430   43.0120 C   0  0  0  0  0  3  0  0  0  0  0  0
   39.4700   24.5820   42.3340 C   0  0  0  0  0  3  0  0  0  0  0  0
  1  2  2  0  0  0  0
  2 16  1  0  0  0  0
  3  9  1  0  0  0  0
  3  8  1  0  0  0  0
  4  3  2  0  0  0  0
  5  4  1  0  0  0  0
  5  6  2  0  0  0  0
  6  7  1  0  0  0  0
  7  8  2  0  0  0  0
  7  1  1  0  0  0  0
 10  4  1  0  0  0  0
 11  5  1  0  0  0  0
 12 11  1  0  0  0  0
 12 15  1  0  0  0  0
 13 12  1  0  0  0  0
 14 12  1  0  0  0  0
 16 21  1  0  0  0  0
 16 18  1  0  0  0  0
 17 16  1  0  0  0  0
 19 20  1  0  0  0  0
 20 21  1  0  0  0  0
 21 22  2  0  0  0  0
 22 23  1  0  0  0  0
 24 22  1  0  0  0  0
 24 25  1  0  0  0  0
 26 24  2  0  0  0  0
 27 20  2  0  0  0  0
 27 26  1  0  0  0  0
M  END
>  <minimizedAffinity>
-5.28775644

$$$$

 OpenBabel03242520533D

 27 28  0  0  0  0  0  0  0  0999 V2000
   39.0500   29.6010   41.9540 C   0  0  0  0  0  3  0  0  0  0  0  0
   38.2160   28.9910   42.7330 C   0  0  0  0  0  3  0  0  0  0  0  0
   38.5790   33.0290   40.7040 C   0  0  0  0  0  0  0  0  0  0  0  0
   37.7920   32.8130   39.5690 C   0  0  0  0  0  0  0  0  0  0  0  0
   37.4250   31.5090   39.2360 C   0  0  0  0  0  0  0  0  0  0  0  0
   37.8560   30.5000   40.0400 N   0  0  0  0  0  0  0  0  0  0  0  0
   38.6130   30.7420   41.1250 C   0  0  0  0  0  0  0  0  0  0  0  0
   38.9700   31.9930   41.4530 N   0  0  0  0  0  0  0  0  0  0  0  0
   38.8500   34.0310   40.9450 H   0  0  0  0  0  0  0  0  0  0  0  0
   37.4360   33.5710   38.9180 H   0  0  0  0  0  0  0  0  0  0  0  0
   36.6560   31.1340   38.1530 O   0  0  0  0  0  0  0  0  0  0  0  0
   37.3400   30.8680   36.9320 C   0  0  0  0  0  0  0  0  0  0  0  0
   38.4590   30.0820   37.2130 F   0  0  0  0  0  0  0  0  0  0  0  0
   36.4560   30.1330   36.1250 F   0  0  0  0  0  0  0  0  0  0  0  0
   37.6940   32.0340   36.2810 F   0  0  0  0  0  0  0  0  0  0  0  0
   38.5470   27.8440   43.6120 C   0  0  0  0  0  0  0  0  0  0  0  0
   38.0240   27.9360   44.5820 H   0  0  0  0  0  0  0  0  0  0  0  0
   39.6470   27.9050   43.8090 H   0  0  0  0  0  0  0  0  0  0  0  0
   41.0800   26.1810   43.6800 Br  0  0  0  0  0  0  0  0  0  0  0  0
   39.3600   25.7280   42.9620 C   0  0  0  0  0  0  0  0  0  0  0  0
   38.2400   26.5440   42.9650 C   0  0  0  0  0  0  0  0  0  0  0  0
   37.0590   26.0940   42.4140 C   0  0  0  0  0  0  0  0  0  0  0  0
   36.2600   26.8340   42.4830 H   0  0  0  0  0  0  0  0  0  0  0  0
   37.0090   24.8270   41.8620 C   0  0  0  0  0  0  0  0  0  0  0  0
   36.0550   24.5460   41.4520 H   0  0  0  0  0  0  0  0  0  0  0  0
   38.1230   24.0170   41.8600 C   0  0  0  0  0  3  0  0  0  0  0  0
   39.3330   24.4460   42.4120 C   0  0  0  0  0  3  0  0  0  0  0  0
  1  2  2  0  0  0  0
  2 16  1  0  0  0  0
  3  9  1  0  0  0  0
  3  8  1  0  0  0  0
  4  3  2  0  0  0  0
  5  4  1  0  0  0  0
  5  6  2  0  0  0  0
  6  7  1  0  0  0  0
  7  8  2  0  0  0  0
  7  1  1  0  0  0  0
 10  4  1  0  0  0  0
 11  5  1  0  0  0  0
 12 13  1  0  0  0  0
 12 11  1  0  0  0  0
 14 12  1  0  0  0  0
 15 12  1  0  0  0  0
 16 18  1  0  0  0  0
 16 17  1  0  0  0  0
 20 21  1  0  0  0  0
 20 19  1  0  0  0  0
 21 16  1  0  0  0  0
 22 23  1  0  0  0  0
 22 21  2  0  0  0  0
 24 22  1  0  0  0  0
 25 24  1  0  0  0  0
 26 24  2  0  0  0  0
 26 27  1  0  0  0  0
 27 20  2  0  0  0  0
M  END
>  <minimizedAffinity>
-5.28541708

$$$$

 OpenBabel03242520533D

 27 28  0  0  0  0  0  0  0  0999 V2000
   36.7620   27.6850   42.3170 C   0  0  0  0  0  3  0  0  0  0  0  0
   36.5060   28.0520   41.1030 C   0  0  0  0  0  3  0  0  0  0  0  0
   39.6820   25.9110   43.6790 C   0  0  0  0  0  0  0  0  0  0  0  0
   39.5590   24.6540   43.0790 C   0  0  0  0  0  0  0  0  0  0  0  0
   38.4890   24.4170   42.2160 C   0  0  0  0  0  0  0  0  0  0  0  0
   37.6080   25.4310   41.9990 N   0  0  0  0  0  0  0  0  0  0  0  0
   37.7560   26.6280   42.5940 C   0  0  0  0  0  0  0  0  0  0  0  0
   38.7810   26.8650   43.4250 N   0  0  0  0  0  0  0  0  0  0  0  0
   40.5050   26.0760   44.3360 H   0  0  0  0  0  0  0  0  0  0  0  0
   40.2230   23.8410   43.2210 H   0  0  0  0  0  0  0  0  0  0  0  0
   38.2300   23.2370   41.5490 O   0  0  0  0  0  0  0  0  0  0  0  0
   38.5330   23.1980   40.1580 C   0  0  0  0  0  0  0  0  0  0  0  0
   39.6600   23.9890   39.9270 F   0  0  0  0  0  0  0  0  0  0  0  0
   38.8430   21.8620   39.8490 F   0  0  0  0  0  0  0  0  0  0  0  0
   37.4610   23.6100   39.3910 F   0  0  0  0  0  0  0  0  0  0  0  0
   35.5370   29.1040   40.7120 C   0  0  0  0  0  0  0  0  0  0  0  0
   34.8840   29.3660   41.5660 H   0  0  0  0  0  0  0  0  0  0  0  0
   34.8930   28.6590   39.9130 H   0  0  0  0  0  0  0  0  0  0  0  0
   35.6910   28.7850   37.7020 Br  0  0  0  0  0  0  0  0  0  0  0  0
   36.3190   30.2320   38.7950 C   0  0  0  0  0  0  0  0  0  0  0  0
   36.2160   30.3100   40.1740 C   0  0  0  0  0  0  0  0  0  0  0  0
   36.7110   31.4100   40.8410 C   0  0  0  0  0  0  0  0  0  0  0  0
   36.5640   31.3440   41.9200 H   0  0  0  0  0  0  0  0  0  0  0  0
   37.3090   32.4270   40.1180 C   0  0  0  0  0  0  0  0  0  0  0  0
   37.6710   33.2510   40.7060 H   0  0  0  0  0  0  0  0  0  0  0  0
   37.4110   32.3470   38.7470 C   0  0  0  0  0  3  0  0  0  0  0  0
   36.9180   31.2440   38.0450 C   0  0  0  0  0  3  0  0  0  0  0  0
  1  7  1  0  0  0  0
  2  1  2  0  0  0  0
  3  9  1  0  0  0  0
  4 10  1  0  0  0  0
  4  3  2  0  0  0  0
  5  4  1  0  0  0  0
  6  5  2  0  0  0  0
  6  7  1  0  0  0  0
  7  8  2  0  0  0  0
  8  3  1  0  0  0  0
 11  5  1  0  0  0  0
 12 11  1  0  0  0  0
 13 12  1  0  0  0  0
 14 12  1  0  0  0  0
 15 12  1  0  0  0  0
 16  2  1  0  0  0  0
 16 17  1  0  0  0  0
 18 16  1  0  0  0  0
 19 20  1  0  0  0  0
 20 21  1  0  0  0  0
 21 16  1  0  0  0  0
 21 22  2  0  0  0  0
 22 23  1  0  0  0  0
 24 25  1  0  0  0  0
 24 22  1  0  0  0  0
 26 24  2  0  0  0  0
 27 26  1  0  0  0  0
 27 20  2  0  0  0  0
M  END
>  <minimizedAffinity>
-5.26061106

$$$$

 OpenBabel03242520533D

 27 28  0  0  0  0  0  0  0  0999 V2000
   37.2440   28.3820   40.7340 C   0  0  0  0  0  3  0  0  0  0  0  0
   36.9540   28.3140   41.9930 C   0  0  0  0  0  3  0  0  0  0  0  0
   36.8080   31.0240   38.2110 C   0  0  0  0  0  0  0  0  0  0  0  0
   37.4640   32.1030   38.8110 C   0  0  0  0  0  0  0  0  0  0  0  0
   38.0510   31.9280   40.0650 C   0  0  0  0  0  0  0  0  0  0  0  0
   37.9540   30.7030   40.6490 N   0  0  0  0  0  0  0  0  0  0  0  0
   37.3140   29.6860   40.0440 C   0  0  0  0  0  0  0  0  0  0  0  0
   36.7480   29.8450   38.8390 N   0  0  0  0  0  0  0  0  0  0  0  0
   36.3660   31.1730   37.2530 H   0  0  0  0  0  0  0  0  0  0  0  0
   37.5620   33.0700   38.3890 H   0  0  0  0  0  0  0  0  0  0  0  0
   38.7300   32.8900   40.7840 O   0  0  0  0  0  0  0  0  0  0  0  0
   40.1510   32.8830   40.6940 C   0  0  0  0  0  0  0  0  0  0  0  0
   40.6560   32.0650   41.7070 F   0  0  0  0  0  0  0  0  0  0  0  0
   40.4750   32.3200   39.4480 F   0  0  0  0  0  0  0  0  0  0  0  0
   40.6730   34.1610   40.7710 F   0  0  0  0  0  0  0  0  0  0  0  0
   36.8640   27.0640   42.7850 C   0  0  0  0  0  0  0  0  0  0  0  0
   36.1490   26.3610   42.3190 H   0  0  0  0  0  0  0  0  0  0  0  0
   36.4560   27.3530   43.7870 H   0  0  0  0  0  0  0  0  0  0  0  0
   36.7950   24.3990   41.3430 Br  0  0  0  0  0  0  0  0  0  0  0  0
   38.2330   25.1990   42.3290 C   0  0  0  0  0  0  0  0  0  0  0  0
   38.1930   26.4270   42.9680 C   0  0  0  0  0  0  0  0  0  0  0  0
   39.3020   26.8890   43.6450 C   0  0  0  0  0  0  0  0  0  0  0  0
   39.1350   27.8670   44.0990 H   0  0  0  0  0  0  0  0  0  0  0  0
   40.4460   26.1130   43.6770 C   0  0  0  0  0  0  0  0  0  0  0  0
   41.2690   26.5380   44.2240 H   0  0  0  0  0  0  0  0  0  0  0  0
   40.4850   24.8920   43.0420 C   0  0  0  0  0  3  0  0  0  0  0  0
   39.3760   24.3990   42.3480 C   0  0  0  0  0  3  0  0  0  0  0  0
  1  2  2  0  0  0  0
  2 16  1  0  0  0  0
  3  4  2  0  0  0  0
  3  8  1  0  0  0  0
  4  5  1  0  0  0  0
  5  6  2  0  0  0  0
  5 11  1  0  0  0  0
  7  6  1  0  0  0  0
  7  1  1  0  0  0  0
  8  7  2  0  0  0  0
  9  3  1  0  0  0  0
 10  4  1  0  0  0  0
 12 15  1  0  0  0  0
 12 11  1  0  0  0  0
 12 13  1  0  0  0  0
 14 12  1  0  0  0  0
 16 21  1  0  0  0  0
 16 18  1  0  0  0  0
 17 16  1  0  0  0  0
 19 20  1  0  0  0  0
 20 27  2  0  0  0  0
 20 21  1  0  0  0  0
 21 22  2  0  0  0  0
 22 24  1  0  0  0  0
 22 23  1  0  0  0  0
 24 25  1  0  0  0  0
 26 24  2  0  0  0  0
 27 26  1  0  0  0  0
M  END
>  <minimizedAffinity>
-5.1765275

$$$$

 OpenBabel03242520533D

 27 28  0  0  0  0  0  0  0  0999 V2000
   39.8470   29.9730   42.3470 C   0  0  0  0  0  3  0  0  0  0  0  0
   39.0060   28.9930   42.2720 C   0  0  0  0  0  3  0  0  0  0  0  0
   40.8740   32.9010   40.3710 C   0  0  0  0  0  0  0  0  0  0  0  0
   40.2670   32.6420   39.1390 C   0  0  0  0  0  0  0  0  0  0  0  0
   39.5130   31.4780   38.9860 C   0  0  0  0  0  0  0  0  0  0  0  0
   39.4050   30.6430   40.0550 N   0  0  0  0  0  0  0  0  0  0  0  0
   40.0030   30.9230   41.2270 C   0  0  0  0  0  0  0  0  0  0  0  0
   40.7290   32.0390   41.3830 N   0  0  0  0  0  0  0  0  0  0  0  0
   41.4460   33.7950   40.4720 H   0  0  0  0  0  0  0  0  0  0  0  0
   40.3270   33.2660   38.2840 H   0  0  0  0  0  0  0  0  0  0  0  0
   38.8560   31.0820   37.8390 O   0  0  0  0  0  0  0  0  0  0  0  0
   37.5210   31.5460   37.6640 C   0  0  0  0  0  0  0  0  0  0  0  0
   37.3250   32.6550   38.4890 F   0  0  0  0  0  0  0  0  0  0  0  0
   37.4060   31.9500   36.3220 F   0  0  0  0  0  0  0  0  0  0  0  0
   36.5970   30.5530   37.9250 F   0  0  0  0  0  0  0  0  0  0  0  0
   38.7630   27.9890   43.3360 C   0  0  0  0  0  0  0  0  0  0  0  0
   38.0260   28.3710   44.0670 H   0  0  0  0  0  0  0  0  0  0  0  0
   39.7370   27.8540   43.8710 H   0  0  0  0  0  0  0  0  0  0  0  0
   41.0680   26.0510   43.6800 Br  0  0  0  0  0  0  0  0  0  0  0  0
   39.3410   25.7440   42.9030 C   0  0  0  0  0  0  0  0  0  0  0  0
   38.3300   26.6830   42.7770 C   0  0  0  0  0  0  0  0  0  0  0  0
   37.1300   26.3310   42.1970 C   0  0  0  0  0  0  0  0  0  0  0  0
   36.4250   27.1630   42.1620 H   0  0  0  0  0  0  0  0  0  0  0  0
   36.9520   25.0360   41.7460 C   0  0  0  0  0  0  0  0  0  0  0  0
   35.9910   24.8360   41.3050 H   0  0  0  0  0  0  0  0  0  0  0  0
   37.9570   24.1040   41.8720 C   0  0  0  0  0  3  0  0  0  0  0  0
   39.1830   24.4320   42.4550 C   0  0  0  0  0  3  0  0  0  0  0  0
  2  1  2  0  0  0  0
  2 16  1  0  0  0  0
  3  9  1  0  0  0  0
  3  8  1  0  0  0  0
  4  3  2  0  0  0  0
  5  4  1  0  0  0  0
  5  6  2  0  0  0  0
  6  7  1  0  0  0  0
  7  8  2  0  0  0  0
  7  1  1  0  0  0  0
 10  4  1  0  0  0  0
 11  5  1  0  0  0  0
 12 11  1  0  0  0  0
 12 15  1  0  0  0  0
 12 13  1  0  0  0  0
 14 12  1  0  0  0  0
 16 18  1  0  0  0  0
 16 17  1  0  0  0  0
 20 19  1  0  0  0  0
 21 20  1  0  0  0  0
 21 16  1  0  0  0  0
 22 21  2  0  0  0  0
 23 22  1  0  0  0  0
 24 26  2  0  0  0  0
 24 22  1  0  0  0  0
 25 24  1  0  0  0  0
 26 27  1  0  0  0  0
 27 20  2  0  0  0  0
M  END
>  <minimizedAffinity>
-5.11437941

$$$$

 OpenBabel03242520533D

 27 28  0  0  0  0  0  0  0  0999 V2000
   34.2440   29.0440   37.4570 C   0  0  0  0  0  3  0  0  0  0  0  0
   33.1720   28.5400   36.9370 C   0  0  0  0  0  3  0  0  0  0  0  0
   36.4300   26.3530   38.6870 C   0  0  0  0  0  0  0  0  0  0  0  0
   36.6990   26.7760   39.9920 C   0  0  0  0  0  0  0  0  0  0  0  0
   36.1370   27.9700   40.4460 C   0  0  0  0  0  0  0  0  0  0  0  0
   35.3470   28.6700   39.5880 N   0  0  0  0  0  0  0  0  0  0  0  0
   35.1090   28.2340   38.3380 C   0  0  0  0  0  0  0  0  0  0  0  0
   35.6450   27.0880   37.8930 N   0  0  0  0  0  0  0  0  0  0  0  0
   36.8660   25.4390   38.3550 H   0  0  0  0  0  0  0  0  0  0  0  0
   37.3070   26.2600   40.6890 H   0  0  0  0  0  0  0  0  0  0  0  0
   36.3060   28.5200   41.7000 O   0  0  0  0  0  0  0  0  0  0  0  0
   37.1640   29.6520   41.8020 C   0  0  0  0  0  0  0  0  0  0  0  0
   36.3910   30.8080   41.6850 F   0  0  0  0  0  0  0  0  0  0  0  0
   37.7350   29.6130   43.0860 F   0  0  0  0  0  0  0  0  0  0  0  0
   38.1670   29.6180   40.8520 F   0  0  0  0  0  0  0  0  0  0  0  0
   32.2390   29.2570   36.0350 C   0  0  0  0  0  0  0  0  0  0  0  0
   31.7150   28.5430   35.3730 H   0  0  0  0  0  0  0  0  0  0  0  0
   32.8690   29.9210   35.3910 H   0  0  0  0  0  0  0  0  0  0  0  0
   31.5110   31.6150   34.2750 Br  0  0  0  0  0  0  0  0  0  0  0  0
   30.8900   31.1920   36.0400 C   0  0  0  0  0  0  0  0  0  0  0  0
   31.2700   30.0910   36.7900 C   0  0  0  0  0  0  0  0  0  0  0  0
   30.7460   29.9030   38.0520 C   0  0  0  0  0  0  0  0  0  0  0  0
   31.1270   29.0000   38.5300 H   0  0  0  0  0  0  0  0  0  0  0  0
   29.8440   30.8240   38.5540 C   0  0  0  0  0  0  0  0  0  0  0  0
   29.4790   30.6110   39.5430 H   0  0  0  0  0  0  0  0  0  0  0  0
   29.4680   31.9180   37.8070 C   0  0  0  0  0  3  0  0  0  0  0  0
   29.9830   32.1340   36.5260 C   0  0  0  0  0  3  0  0  0  0  0  0
  1  7  1  0  0  0  0
  2  1  2  0  0  0  0
  3  4  1  0  0  0  0
  4  5  2  0  0  0  0
  4 10  1  0  0  0  0
  5 11  1  0  0  0  0
  6  5  1  0  0  0  0
  7  6  2  0  0  0  0
  8  7  1  0  0  0  0
  8  3  2  0  0  0  0
  9  3  1  0  0  0  0
 11 12  1  0  0  0  0
 12 14  1  0  0  0  0
 13 12  1  0  0  0  0
 15 12  1  0  0  0  0
 16 21  1  0  0  0  0
 16  2  1  0  0  0  0
 17 16  1  0  0  0  0
 18 16  1  0  0  0  0
 19 20  1  0  0  0  0
 20 27  2  0  0  0  0
 20 21  1  0  0  0  0
 21 22  2  0  0  0  0
 22 23  1  0  0  0  0
 22 24  1  0  0  0  0
 24 25  1  0  0  0  0
 26 24  2  0  0  0  0
 27 26  1  0  0  0  0
M  END
>  <minimizedAffinity>
-5.1031332

$$$$
