
 OpenBabel03252503433D

 34 36  0  0  1  0  0  0  0  0999 V2000
   44.7590   33.6880   43.1410 C   0  0  0  0  0  0  0  0  0  0  0  0
   45.6130   34.7920   42.9680 C   0  0  0  0  0  0  0  0  0  0  0  0
   46.9490   34.6200   43.2580 C   0  0  0  0  0  0  0  0  0  0  0  0
   47.3660   33.4180   43.6880 N   0  0  0  0  0  0  0  0  0  0  0  0
   46.5470   32.3760   43.8510 C   0  0  0  0  0  0  0  0  0  0  0  0
   45.2090   32.4760   43.5810 N   0  0  0  0  0  0  0  0  0  0  0  0
   43.6940   33.7080   42.9440 H   0  0  0  0  0  0  0  0  0  0  0  0
   47.5720   35.4830   43.1050 H   0  0  0  0  0  0  0  0  0  0  0  0
   46.8850   30.8610   45.8120 C   0  0  2  0  0  0  0  0  0  0  0  0
   47.1490   31.1250   44.3130 C   0  0  1  0  0  0  0  0  0  0  0  0
   46.6080   29.9880   43.7750 O   0  0  0  0  0  0  0  0  0  0  0  0
   47.0280   28.9290   44.5230 C   0  0  0  0  0  0  0  0  0  0  0  0
   47.4990   29.4510   45.8680 C   0  0  2  0  0  0  0  0  0  0  0  0
   47.4150   31.5690   46.4440 H   0  0  0  0  0  0  0  0  0  0  0  0
   48.2470   31.1240   44.1390 H   0  0  0  0  0  0  0  0  0  0  0  0
   47.8750   28.4470   43.9890 H   0  0  0  0  0  0  0  0  0  0  0  0
   46.2650   28.1520   44.6960 H   0  0  0  0  0  0  0  0  0  0  0  0
   48.5900   29.5890   45.9040 H   0  0  0  0  0  0  0  0  0  0  0  0
   45.5520   30.7090   46.0110 O   0  0  0  0  0  0  0  0  0  0  0  0
   45.2980   30.9620   46.9340 H   0  0  0  0  0  0  0  0  0  0  0  0
   47.0690   28.7320   46.9500 O   0  0  0  0  0  0  0  0  0  0  0  0
   47.8210   28.4720   47.5290 H   0  0  0  0  0  0  0  0  0  0  0  0
   44.9060   35.9920   42.4710 C   0  0  0  0  0  0  0  0  0  0  0  0
   43.8410   35.7300   42.3290 H   0  0  0  0  0  0  0  0  0  0  0  0
   45.3330   36.3250   41.4740 H   0  0  0  0  0  0  0  0  0  0  0  0
   44.4100   35.6170   45.6370 Br  0  0  0  0  0  0  0  0  0  0  0  0
   44.8550   37.2270   44.7280 C   0  0  0  0  0  0  0  0  0  0  0  0
   45.0270   37.1270   43.3670 C   0  0  0  0  0  0  0  0  0  0  0  0
   45.3640   38.3680   42.8070 C   0  0  0  0  0  0  0  0  0  0  0  0
   45.5310   38.4180   41.7190 H   0  0  0  0  0  0  0  0  0  0  0  0
   45.5180   39.5640   43.4510 C   0  0  0  0  0  0  0  0  0  0  0  0
   45.7800   40.4680   42.9220 H   0  0  0  0  0  0  0  0  0  0  0  0
   45.3230   39.5650   44.8160 C   0  0  0  0  0  3  0  0  0  0  0  0
   44.9920   38.3920   45.4460 C   0  0  0  0  0  3  0  0  0  0  0  0
  1  6  1  0  0  0  0
  2  1  2  0  0  0  0
  2  3  1  0  0  0  0
  3  4  2  0  0  0  0
  4  5  1  0  0  0  0
  5 10  1  0  0  0  0
  6  5  2  0  0  0  0
  7  1  1  0  0  0  0
  8  3  1  0  0  0  0
  9 13  1  0  0  0  0
  9 19  1  0  0  0  0
  9 14  1  1  0  0  0
 10 15  1  6  0  0  0
 10  9  1  0  0  0  0
 11 10  1  0  0  0  0
 11 12  1  0  0  0  0
 12 17  1  0  0  0  0
 12 13  1  0  0  0  0
 13 18  1  1  0  0  0
 13 21  1  0  0  0  0
 16 12  1  0  0  0  0
 19 20  1  0  0  0  0
 21 22  1  0  0  0  0
 23  2  1  0  0  0  0
 23 28  1  0  0  0  0
 24 23  1  0  0  0  0
 25 23  1  0  0  0  0
 27 34  1  0  0  0  0
 27 26  1  0  0  0  0
 28 27  2  0  0  0  0
 29 28  1  0  0  0  0
 29 31  2  0  0  0  0
 30 29  1  0  0  0  0
 31 33  1  0  0  0  0
 32 31  1  0  0  0  0
 33 34  2  0  0  0  0
M  END
>  <minimizedAffinity>
-1.6579293

>  <minimizedRMSD>
2.92826104

$$$$
