
 OpenBabel03242515143D

 34 36  0  0  0  0  0  0  0  0999 V2000
   42.4020   31.2950   42.1690 C   0  0  0  0  0  0  0  0  0  0  0  0
   41.5350   31.6180   42.8040 H   0  0  0  0  0  0  0  0  0  0  0  0
   43.1070   30.7590   42.8510 H   0  0  0  0  0  0  0  0  0  0  0  0
   43.0460   32.4640   41.5310 C   0  0  0  0  0  0  0  0  0  0  0  0
   42.4900   33.5900   40.9880 C   0  0  0  0  0  0  0  0  0  0  0  0
   43.5120   34.3710   40.5260 C   0  0  0  0  0  0  0  0  0  0  0  0
   44.6660   33.7420   40.7780 N   0  0  0  0  0  0  0  0  0  0  0  0
   44.3580   32.5850   41.3900 N   0  0  0  0  0  0  0  0  0  0  0  0
   41.4480   33.8120   40.9380 H   0  0  0  0  0  0  0  0  0  0  0  0
   43.4950   35.3350   40.0330 H   0  0  0  0  0  0  0  0  0  0  0  0
   45.6870   35.2080   43.2060 Br  0  0  0  0  0  0  0  0  0  0  0  0
   46.6140   34.7400   41.5950 C   0  0  0  0  0  0  0  0  0  0  0  0
   46.0310   34.0570   40.5350 C   0  0  0  0  0  0  0  0  0  0  0  0
   46.7750   33.7600   39.4100 C   0  0  0  0  0  0  0  0  0  0  0  0
   46.2310   33.2230   38.6320 H   0  0  0  0  0  0  0  0  0  0  0  0
   48.1040   34.1490   39.3460 C   0  0  0  0  0  0  0  0  0  0  0  0
   48.6340   33.8890   38.4400 H   0  0  0  0  0  0  0  0  0  0  0  0
   48.6730   34.8280   40.4090 C   0  0  0  0  0  3  0  0  0  0  0  0
   47.9380   35.1310   41.5420 C   0  0  0  0  0  3  0  0  0  0  0  0
   41.8010   30.3830   41.1380 C   0  0  0  0  0  0  0  0  0  0  0  0
   40.9330   30.7960   40.6090 H   0  0  0  0  0  0  0  0  0  0  0  0
   42.5960   30.2040   40.3740 H   0  0  0  0  0  0  0  0  0  0  0  0
   40.6640   26.8820   41.9020 C   0  0  0  0  0  0  0  0  0  0  0  0
   40.5810   26.9560   43.3140 C   0  0  0  0  0  0  0  0  0  0  0  0
   40.9130   28.1760   43.9040 C   0  0  0  0  0  0  0  0  0  0  0  0
   41.2870   29.1910   43.0870 N   0  0  0  0  0  0  0  0  0  0  0  0
   41.3540   29.0860   41.7480 C   0  0  0  0  0  0  0  0  0  0  0  0
   41.0400   27.9210   41.1590 N   0  0  0  0  0  0  0  0  0  0  0  0
   40.4270   25.9850   41.3840 H   0  0  0  0  0  0  0  0  0  0  0  0
   40.2670   26.0540   43.7890 H   0  0  0  0  0  0  0  0  0  0  0  0
   40.8230   28.2360   45.3550 C   0  0  0  0  0  0  0  0  0  0  0  0
   41.9630   28.8590   45.8650 F   0  0  0  0  0  0  0  0  0  0  0  0
   40.8960   26.9280   45.8130 F   0  0  0  0  0  0  0  0  0  0  0  0
   39.7100   28.8980   45.8010 F   0  0  0  0  0  0  0  0  0  0  0  0
  1  2  1  0  0  0  0
  1  3  1  0  0  0  0
  4  1  1  0  0  0  0
  5  4  1  0  0  0  0
  6  7  1  0  0  0  0
  6  5  2  0  0  0  0
  7  8  1  0  0  0  0
  8  4  2  0  0  0  0
  9  5  1  0  0  0  0
 10  6  1  0  0  0  0
 12 11  1  0  0  0  0
 13  7  1  0  0  0  0
 13 12  2  0  0  0  0
 14 13  1  0  0  0  0
 15 14  1  0  0  0  0
 16 14  2  0  0  0  0
 16 18  1  0  0  0  0
 17 16  1  0  0  0  0
 18 19  2  0  0  0  0
 19 12  1  0  0  0  0
 20 27  1  0  0  0  0
 20  1  1  0  0  0  0
 21 20  1  0  0  0  0
 22 20  1  0  0  0  0
 23 24  1  0  0  0  0
 24 30  1  0  0  0  0
 24 25  2  0  0  0  0
 25 31  1  0  0  0  0
 26 25  1  0  0  0  0
 27 26  2  0  0  0  0
 28 27  1  0  0  0  0
 28 23  2  0  0  0  0
 29 23  1  0  0  0  0
 31 34  1  0  0  0  0
 31 33  1  0  0  0  0
 31 32  1  0  0  0  0
M  END
>  <minimizedAffinity>
-4.5797534

>  <minimizedRMSD>
10.1174545

$$$$
