
 OpenBabel03252509293D

 21 22  0  0  0  0  0  0  0  0999 V2000
   46.3460   33.5880   45.0930 C   0  0  0  0  0  0  0  0  0  0  0  0
   46.9010   34.1410   45.8990 H   0  0  0  0  0  0  0  0  0  0  0  0
   45.2940   33.9260   45.0280 H   0  0  0  0  0  0  0  0  0  0  0  0
   47.0440   30.4450   46.9520 C   0  0  0  0  0  0  0  0  0  0  0  0
   47.0490   31.8140   46.6220 C   0  0  0  0  0  0  0  0  0  0  0  0
   46.3620   32.1690   45.4590 C   0  0  0  0  0  0  0  0  0  0  0  0
   45.7390   31.2010   44.7210 N   0  0  0  0  0  0  0  0  0  0  0  0
   45.7710   29.9010   45.0910 C   0  0  0  0  0  0  0  0  0  0  0  0
   46.4210   29.5310   46.2000 N   0  0  0  0  0  0  0  0  0  0  0  0
   47.5730   30.1410   47.8530 H   0  0  0  0  0  0  0  0  0  0  0  0
   47.5570   32.5490   47.2390 H   0  0  0  0  0  0  0  0  0  0  0  0
   45.2170   29.2990   44.3730 H   0  0  0  0  0  0  0  0  0  0  0  0
   44.8520   35.7940   43.4060 Br  0  0  0  0  0  0  0  0  0  0  0  0
   46.4430   34.8040   42.9900 C   0  0  0  0  0  0  0  0  0  0  0  0
   47.0340   33.8360   43.7970 C   0  0  0  0  0  0  0  0  0  0  0  0
   48.1700   33.2060   43.3630 C   0  0  0  0  0  0  0  0  0  0  0  0
   48.6040   32.4580   44.0180 H   0  0  0  0  0  0  0  0  0  0  0  0
   48.6910   33.5600   42.1270 C   0  0  0  0  0  0  0  0  0  0  0  0
   49.5980   33.0450   41.8090 H   0  0  0  0  0  0  0  0  0  0  0  0
   48.1330   34.5090   41.3110 C   0  0  0  0  0  3  0  0  0  0  0  0
   46.9780   35.1500   41.7510 C   0  0  0  0  0  3  0  0  0  0  0  0
  1  6  1  0  0  0  0
  1  2  1  0  0  0  0
  3  1  1  0  0  0  0
  4 10  1  0  0  0  0
  5  4  1  0  0  0  0
  5 11  1  0  0  0  0
  6  5  2  0  0  0  0
  7  8  2  0  0  0  0
  7  6  1  0  0  0  0
  8  9  1  0  0  0  0
  9  4  2  0  0  0  0
 12  8  1  0  0  0  0
 14 13  1  0  0  0  0
 14 15  1  0  0  0  0
 15  1  1  0  0  0  0
 16 15  2  0  0  0  0
 16 17  1  0  0  0  0
 18 16  1  0  0  0  0
 19 18  1  0  0  0  0
 20 21  1  0  0  0  0
 20 18  2  0  0  0  0
 21 14  2  0  0  0  0
M  END
>  <minimizedAffinity>
-3.73895073

>  <minimizedRMSD>
4.37782764

$$$$
