
 OpenBabel03242521433D

 34 36  0  0  1  0  0  0  0  0999 V2000
   36.8340   28.4340   42.2140 C   0  0  0  0  0  0  0  0  0  0  0  0
   37.7490   29.5040   42.1650 C   0  0  0  0  0  0  0  0  0  0  0  0
   37.5570   30.5010   41.2070 C   0  0  0  0  0  0  0  0  0  0  0  0
   36.5060   30.3910   40.3780 N   0  0  0  0  0  0  0  0  0  0  0  0
   35.6380   29.3480   40.4470 C   0  0  0  0  0  0  0  0  0  0  0  0
   35.8150   28.3760   41.3710 N   0  0  0  0  0  0  0  0  0  0  0  0
   38.5450   29.4730   42.8860 H   0  0  0  0  0  0  0  0  0  0  0  0
   34.7980   29.3090   39.7460 H   0  0  0  0  0  0  0  0  0  0  0  0
   38.2680   32.6320   40.1410 C   0  0  2  0  0  0  0  0  0  0  0  0
   38.5220   31.5870   41.1890 C   0  0  2  0  0  0  0  0  0  0  0  0
   39.8320   31.1970   40.8510 O   0  0  0  0  0  0  0  0  0  0  0  0
   40.5110   32.3900   40.7430 C   0  0  0  0  0  0  0  0  0  0  0  0
   39.5430   33.4740   40.3400 C   0  0  1  0  0  0  0  0  0  0  0  0
   38.3580   32.2170   39.1190 H   0  0  0  0  0  0  0  0  0  0  0  0
   38.5890   32.1090   42.1880 H   0  0  0  0  0  0  0  0  0  0  0  0
   41.2590   32.2870   39.9290 H   0  0  0  0  0  0  0  0  0  0  0  0
   41.0580   32.6640   41.6710 H   0  0  0  0  0  0  0  0  0  0  0  0
   39.3430   34.1920   41.1520 H   0  0  0  0  0  0  0  0  0  0  0  0
   37.1090   33.3400   40.3430 O   0  0  0  0  0  0  0  0  0  0  0  0
   36.5300   33.3510   39.5360 H   0  0  0  0  0  0  0  0  0  0  0  0
   39.8700   34.1030   39.1520 O   0  0  0  0  0  0  0  0  0  0  0  0
   39.0450   34.5070   38.7880 H   0  0  0  0  0  0  0  0  0  0  0  0
   37.0500   27.3550   43.2400 C   0  0  0  0  0  0  0  0  0  0  0  0
   36.0570   27.1460   43.6760 H   0  0  0  0  0  0  0  0  0  0  0  0
   37.7200   27.7490   44.0510 H   0  0  0  0  0  0  0  0  0  0  0  0
   40.1560   27.0010   43.6540 Br  0  0  0  0  0  0  0  0  0  0  0  0
   38.9930   25.8350   42.7040 C   0  0  0  0  0  0  0  0  0  0  0  0
   37.6560   26.1460   42.6240 C   0  0  0  0  0  0  0  0  0  0  0  0
   36.8400   25.2590   41.9160 C   0  0  0  0  0  0  0  0  0  0  0  0
   35.7700   25.4410   41.8130 H   0  0  0  0  0  0  0  0  0  0  0  0
   37.3310   24.1170   41.3150 C   0  0  0  0  0  0  0  0  0  0  0  0
   36.6370   23.4610   40.7730 H   0  0  0  0  0  0  0  0  0  0  0  0
   38.6940   23.8320   41.4170 C   0  0  0  0  0  3  0  0  0  0  0  0
   39.5240   24.7080   42.1200 C   0  0  0  0  0  3  0  0  0  0  0  0
  1 23  1  0  0  0  0
  2  1  1  0  0  0  0
  2  7  1  0  0  0  0
  3  2  2  0  0  0  0
  4  5  2  0  0  0  0
  4  3  1  0  0  0  0
  5  6  1  0  0  0  0
  6  1  2  0  0  0  0
  8  5  1  0  0  0  0
  9 14  1  6  0  0  0
  9 13  1  0  0  0  0
  9 19  1  0  0  0  0
  9 10  1  0  0  0  0
 10  3  1  0  0  0  0
 10 15  1  1  0  0  0
 11 10  1  0  0  0  0
 12 11  1  0  0  0  0
 12 17  1  0  0  0  0
 13 12  1  0  0  0  0
 13 18  1  1  0  0  0
 16 12  1  0  0  0  0
 20 19  1  0  0  0  0
 21 13  1  0  0  0  0
 22 21  1  0  0  0  0
 23 24  1  0  0  0  0
 23 25  1  0  0  0  0
 27 26  1  0  0  0  0
 28 27  1  0  0  0  0
 28 23  1  0  0  0  0
 29 28  2  0  0  0  0
 30 29  1  0  0  0  0
 31 33  2  0  0  0  0
 31 29  1  0  0  0  0
 32 31  1  0  0  0  0
 33 34  1  0  0  0  0
 34 27  2  0  0  0  0
M  END
>  <minimizedAffinity>
-6.40919113

$$$$

 OpenBabel03242521433D

 34 36  0  0  1  0  0  0  0  0999 V2000
   36.8020   28.3900   42.1970 C   0  0  0  0  0  0  0  0  0  0  0  0
   37.6870   29.4860   42.1760 C   0  0  0  0  0  0  0  0  0  0  0  0
   37.5310   30.4490   41.1780 C   0  0  0  0  0  0  0  0  0  0  0  0
   36.5430   30.2830   40.2850 N   0  0  0  0  0  0  0  0  0  0  0  0
   35.7010   29.2160   40.3270 C   0  0  0  0  0  0  0  0  0  0  0  0
   35.8440   28.2770   41.2900 N   0  0  0  0  0  0  0  0  0  0  0  0
   38.4340   29.4990   42.9490 H   0  0  0  0  0  0  0  0  0  0  0  0
   34.9120   29.1320   39.5740 H   0  0  0  0  0  0  0  0  0  0  0  0
   38.2150   32.6000   40.1340 C   0  0  2  0  0  0  0  0  0  0  0  0
   38.4640   31.5630   41.1920 C   0  0  2  0  0  0  0  0  0  0  0  0
   39.7960   31.2120   40.8980 O   0  0  0  0  0  0  0  0  0  0  0  0
   40.4420   32.4240   40.8120 C   0  0  0  0  0  0  0  0  0  0  0  0
   39.4570   33.4790   40.3740 C   0  0  1  0  0  0  0  0  0  0  0  0
   38.3520   32.1870   39.1150 H   0  0  0  0  0  0  0  0  0  0  0  0
   38.4820   32.0870   42.1910 H   0  0  0  0  0  0  0  0  0  0  0  0
   41.2210   32.3430   40.0240 H   0  0  0  0  0  0  0  0  0  0  0  0
   40.9500   32.7150   41.7570 H   0  0  0  0  0  0  0  0  0  0  0  0
   39.2090   34.1920   41.1780 H   0  0  0  0  0  0  0  0  0  0  0  0
   37.0300   33.2730   40.2960 O   0  0  0  0  0  0  0  0  0  0  0  0
   36.4780   33.2670   39.4700 H   0  0  0  0  0  0  0  0  0  0  0  0
   39.8060   34.1170   39.1970 O   0  0  0  0  0  0  0  0  0  0  0  0
   38.9820   34.4970   38.8050 H   0  0  0  0  0  0  0  0  0  0  0  0
   36.9800   27.3480   43.2670 C   0  0  0  0  0  0  0  0  0  0  0  0
   36.1060   26.6760   43.1850 H   0  0  0  0  0  0  0  0  0  0  0  0
   36.9520   27.8470   44.2730 H   0  0  0  0  0  0  0  0  0  0  0  0
   36.8490   24.6900   41.5750 Br  0  0  0  0  0  0  0  0  0  0  0  0
   38.3900   25.4460   42.3920 C   0  0  0  0  0  0  0  0  0  0  0  0
   38.2630   26.6200   43.0970 C   0  0  0  0  0  0  0  0  0  0  0  0
   39.4240   27.1380   43.6790 C   0  0  0  0  0  0  0  0  0  0  0  0
   39.3990   28.0650   44.2520 H   0  0  0  0  0  0  0  0  0  0  0  0
   40.6520   26.5170   43.5670 C   0  0  0  0  0  0  0  0  0  0  0  0
   41.5260   26.9750   44.0490 H   0  0  0  0  0  0  0  0  0  0  0  0
   40.7430   25.3260   42.8420 C   0  0  0  0  0  3  0  0  0  0  0  0
   39.5930   24.7940   42.2540 C   0  0  0  0  0  3  0  0  0  0  0  0
  1 23  1  0  0  0  0
  2  1  1  0  0  0  0
  2  7  1  0  0  0  0
  3 10  1  0  0  0  0
  3  2  2  0  0  0  0
  4  5  2  0  0  0  0
  4  3  1  0  0  0  0
  5  6  1  0  0  0  0
  6  1  2  0  0  0  0
  8  5  1  0  0  0  0
  9 14  1  6  0  0  0
  9 19  1  0  0  0  0
  9 13  1  0  0  0  0
  9 10  1  0  0  0  0
 10 15  1  1  0  0  0
 11 10  1  0  0  0  0
 12 11  1  0  0  0  0
 12 17  1  0  0  0  0
 13 12  1  0  0  0  0
 13 18  1  1  0  0  0
 16 12  1  0  0  0  0
 20 19  1  0  0  0  0
 21 13  1  0  0  0  0
 22 21  1  0  0  0  0
 23 25  1  0  0  0  0
 24 23  1  0  0  0  0
 26 27  1  0  0  0  0
 27 28  1  0  0  0  0
 28 23  1  0  0  0  0
 28 29  2  0  0  0  0
 29 30  1  0  0  0  0
 31 29  1  0  0  0  0
 31 32  1  0  0  0  0
 33 31  2  0  0  0  0
 34 27  2  0  0  0  0
 34 33  1  0  0  0  0
M  END
>  <minimizedAffinity>
-6.37723207

$$$$

 OpenBabel03242521433D

 34 36  0  0  1  0  0  0  0  0999 V2000
   38.8000   30.9380   41.4490 C   0  0  0  0  0  0  0  0  0  0  0  0
   39.7880   31.6710   40.7630 C   0  0  0  0  0  0  0  0  0  0  0  0
   39.3980   32.4710   39.6880 C   0  0  0  0  0  0  0  0  0  0  0  0
   38.0970   32.5020   39.3600 N   0  0  0  0  0  0  0  0  0  0  0  0
   37.1620   31.7850   40.0380 C   0  0  0  0  0  0  0  0  0  0  0  0
   37.5300   31.0070   41.0820 N   0  0  0  0  0  0  0  0  0  0  0  0
   40.7920   31.5570   41.1290 H   0  0  0  0  0  0  0  0  0  0  0  0
   36.1150   31.8490   39.7270 H   0  0  0  0  0  0  0  0  0  0  0  0
   40.9630   32.5580   37.7580 C   0  0  2  0  0  0  0  0  0  0  0  0
   40.4480   33.2110   39.0080 C   0  0  2  0  0  0  0  0  0  0  0  0
   41.6420   33.3360   39.7440 O   0  0  0  0  0  0  0  0  0  0  0  0
   42.5160   33.9160   38.8510 C   0  0  0  0  0  0  0  0  0  0  0  0
   42.1180   33.5290   37.4490 C   0  0  1  0  0  0  0  0  0  0  0  0
   41.4550   31.5900   37.9740 H   0  0  0  0  0  0  0  0  0  0  0  0
   40.1220   34.2590   38.7420 H   0  0  0  0  0  0  0  0  0  0  0  0
   43.5280   33.4990   39.0410 H   0  0  0  0  0  0  0  0  0  0  0  0
   42.5810   35.0190   38.9610 H   0  0  0  0  0  0  0  0  0  0  0  0
   41.6990   34.3720   36.8750 H   0  0  0  0  0  0  0  0  0  0  0  0
   40.0290   32.4830   36.7540 O   0  0  0  0  0  0  0  0  0  0  0  0
   39.9370   31.5620   36.3940 H   0  0  0  0  0  0  0  0  0  0  0  0
   43.1080   32.8610   36.7500 O   0  0  0  0  0  0  0  0  0  0  0  0
   42.6720   32.3430   36.0300 H   0  0  0  0  0  0  0  0  0  0  0  0
   39.2240   30.0670   42.6010 C   0  0  0  0  0  0  0  0  0  0  0  0
   39.0150   30.6500   43.5160 H   0  0  0  0  0  0  0  0  0  0  0  0
   40.3310   29.8890   42.5370 H   0  0  0  0  0  0  0  0  0  0  0  0
   40.3930   27.8530   40.6840 Br  0  0  0  0  0  0  0  0  0  0  0  0
   38.8690   27.6970   41.8100 C   0  0  0  0  0  0  0  0  0  0  0  0
   38.5000   28.7710   42.5860 C   0  0  0  0  0  0  0  0  0  0  0  0
   37.3740   28.6080   43.3980 C   0  0  0  0  0  0  0  0  0  0  0  0
   37.0240   29.4170   44.0400 H   0  0  0  0  0  0  0  0  0  0  0  0
   36.6490   27.4350   43.4360 C   0  0  0  0  0  0  0  0  0  0  0  0
   35.7720   27.3710   44.0950 H   0  0  0  0  0  0  0  0  0  0  0  0
   37.0530   26.3640   42.6340 C   0  0  0  0  0  3  0  0  0  0  0  0
   38.1750   26.5090   41.8160 C   0  0  0  0  0  3  0  0  0  0  0  0
  1 23  1  0  0  0  0
  2  7  1  0  0  0  0
  2  1  2  0  0  0  0
  3  2  1  0  0  0  0
  4  3  2  0  0  0  0
  4  5  1  0  0  0  0
  5  6  2  0  0  0  0
  6  1  1  0  0  0  0
  8  5  1  0  0  0  0
  9 14  1  1  0  0  0
  9 10  1  0  0  0  0
 10 15  1  6  0  0  0
 10  3  1  0  0  0  0
 10 11  1  0  0  0  0
 12 17  1  0  0  0  0
 12 16  1  0  0  0  0
 12 11  1  0  0  0  0
 13 18  1  6  0  0  0
 13  9  1  0  0  0  0
 13 12  1  0  0  0  0
 19  9  1  0  0  0  0
 20 19  1  0  0  0  0
 21 13  1  0  0  0  0
 22 21  1  0  0  0  0
 23 24  1  0  0  0  0
 25 23  1  0  0  0  0
 26 27  1  0  0  0  0
 27 34  2  0  0  0  0
 27 28  1  0  0  0  0
 28 23  1  0  0  0  0
 28 29  2  0  0  0  0
 29 31  1  0  0  0  0
 29 30  1  0  0  0  0
 31 32  1  0  0  0  0
 33 31  2  0  0  0  0
 34 33  1  0  0  0  0
M  END
>  <minimizedAffinity>
-6.30398369

$$$$

 OpenBabel03242521433D

 34 36  0  0  1  0  0  0  0  0999 V2000
   36.8810   28.3730   41.5710 C   0  0  0  0  0  0  0  0  0  0  0  0
   37.0690   27.8600   40.2730 C   0  0  0  0  0  0  0  0  0  0  0  0
   37.1260   28.7560   39.2040 C   0  0  0  0  0  0  0  0  0  0  0  0
   36.9990   30.0660   39.4680 N   0  0  0  0  0  0  0  0  0  0  0  0
   36.8190   30.5360   40.7300 C   0  0  0  0  0  0  0  0  0  0  0  0
   36.7620   29.6770   41.7730 N   0  0  0  0  0  0  0  0  0  0  0  0
   37.1560   26.7920   40.2010 H   0  0  0  0  0  0  0  0  0  0  0  0
   36.7230   31.6160   40.8860 H   0  0  0  0  0  0  0  0  0  0  0  0
   37.6450   29.1880   36.8110 C   0  0  2  0  0  0  0  0  0  0  0  0
   37.3200   28.1860   37.8820 C   0  0  2  0  0  0  0  0  0  0  0  0
   36.1720   27.5850   37.3320 O   0  0  0  0  0  0  0  0  0  0  0  0
   36.5510   27.2730   36.0450 C   0  0  0  0  0  0  0  0  0  0  0  0
   37.6120   28.2440   35.5940 C   0  0  1  0  0  0  0  0  0  0  0  0
   36.8090   29.8950   36.6450 H   0  0  0  0  0  0  0  0  0  0  0  0
   38.1300   27.3990   37.8750 H   0  0  0  0  0  0  0  0  0  0  0  0
   35.6690   27.4070   35.3850 H   0  0  0  0  0  0  0  0  0  0  0  0
   36.8950   26.2220   35.9370 H   0  0  0  0  0  0  0  0  0  0  0  0
   38.6080   27.7790   35.5070 H   0  0  0  0  0  0  0  0  0  0  0  0
   38.8570   29.8070   36.9900 O   0  0  0  0  0  0  0  0  0  0  0  0
   38.7820   30.7970   36.9550 H   0  0  0  0  0  0  0  0  0  0  0  0
   37.2690   28.9630   34.4620 O   0  0  0  0  0  0  0  0  0  0  0  0
   37.8130   29.7880   34.4520 H   0  0  0  0  0  0  0  0  0  0  0  0
   36.8080   27.4050   42.7210 C   0  0  0  0  0  0  0  0  0  0  0  0
   35.9830   26.7110   42.4810 H   0  0  0  0  0  0  0  0  0  0  0  0
   36.5420   27.9660   43.6560 H   0  0  0  0  0  0  0  0  0  0  0  0
   36.8860   24.4000   41.7670 Br  0  0  0  0  0  0  0  0  0  0  0  0
   38.3120   25.3850   42.5480 C   0  0  0  0  0  0  0  0  0  0  0  0
   38.1010   26.6960   42.9050 C   0  0  0  0  0  0  0  0  0  0  0  0
   39.1780   27.3800   43.4750 C   0  0  0  0  0  0  0  0  0  0  0  0
   39.0830   28.4220   43.7820 H   0  0  0  0  0  0  0  0  0  0  0  0
   40.4080   26.7880   43.6800 C   0  0  0  0  0  0  0  0  0  0  0  0
   41.2150   27.3800   44.1330 H   0  0  0  0  0  0  0  0  0  0  0  0
   40.5880   25.4550   43.3030 C   0  0  0  0  0  3  0  0  0  0  0  0
   39.5210   24.7560   42.7340 C   0  0  0  0  0  3  0  0  0  0  0  0
  1  6  1  0  0  0  0
  1 23  1  0  0  0  0
  2  1  2  0  0  0  0
  3  4  2  0  0  0  0
  3  2  1  0  0  0  0
  4  5  1  0  0  0  0
  5  8  1  0  0  0  0
  5  6  2  0  0  0  0
  7  2  1  0  0  0  0
  9 14  1  6  0  0  0
  9 19  1  0  0  0  0
  9 10  1  0  0  0  0
 10 15  1  1  0  0  0
 10  3  1  0  0  0  0
 11 10  1  0  0  0  0
 12 11  1  0  0  0  0
 13 18  1  6  0  0  0
 13 12  1  0  0  0  0
 13  9  1  0  0  0  0
 16 12  1  0  0  0  0
 17 12  1  0  0  0  0
 20 19  1  0  0  0  0
 21 13  1  0  0  0  0
 22 21  1  0  0  0  0
 23 28  1  0  0  0  0
 23 25  1  0  0  0  0
 24 23  1  0  0  0  0
 26 27  1  0  0  0  0
 27 34  2  0  0  0  0
 27 28  1  0  0  0  0
 28 29  2  0  0  0  0
 29 31  1  0  0  0  0
 29 30  1  0  0  0  0
 31 32  1  0  0  0  0
 33 31  2  0  0  0  0
 34 33  1  0  0  0  0
M  END
>  <minimizedAffinity>
-5.73741484

$$$$

 OpenBabel03242521433D

 34 36  0  0  1  0  0  0  0  0999 V2000
   38.8470   28.5960   38.8230 C   0  0  0  0  0  0  0  0  0  0  0  0
   39.3150   29.9240   38.8650 C   0  0  0  0  0  0  0  0  0  0  0  0
   40.6420   30.1740   38.5090 C   0  0  0  0  0  0  0  0  0  0  0  0
   41.4070   29.1340   38.1430 N   0  0  0  0  0  0  0  0  0  0  0  0
   40.9310   27.8620   38.1110 C   0  0  0  0  0  0  0  0  0  0  0  0
   39.6470   27.6080   38.4530 N   0  0  0  0  0  0  0  0  0  0  0  0
   38.5990   30.6630   39.1740 H   0  0  0  0  0  0  0  0  0  0  0  0
   41.6000   27.0520   37.8040 H   0  0  0  0  0  0  0  0  0  0  0  0
   41.1300   32.2530   37.2360 C   0  0  2  0  0  0  0  0  0  0  0  0
   41.0850   31.5570   38.5660 C   0  0  2  0  0  0  0  0  0  0  0  0
   42.4170   31.7240   38.9900 O   0  0  0  0  0  0  0  0  0  0  0  0
   42.6510   33.0700   38.8090 C   0  0  0  0  0  0  0  0  0  0  0  0
   41.7760   33.5760   37.6900 C   0  0  1  0  0  0  0  0  0  0  0  0
   41.8740   31.7920   36.5570 H   0  0  0  0  0  0  0  0  0  0  0  0
   40.4460   32.1780   39.2600 H   0  0  0  0  0  0  0  0  0  0  0  0
   43.7080   33.1960   38.4930 H   0  0  0  0  0  0  0  0  0  0  0  0
   42.5040   33.6650   39.7360 H   0  0  0  0  0  0  0  0  0  0  0  0
   40.9670   34.2360   38.0450 H   0  0  0  0  0  0  0  0  0  0  0  0
   39.8940   32.4180   36.6620 O   0  0  0  0  0  0  0  0  0  0  0  0
   39.8660   32.0790   35.7290 H   0  0  0  0  0  0  0  0  0  0  0  0
   42.4800   34.1320   36.6360 O   0  0  0  0  0  0  0  0  0  0  0  0
   41.9020   34.0960   35.8350 H   0  0  0  0  0  0  0  0  0  0  0  0
   37.4200   28.3270   39.2170 C   0  0  0  0  0  0  0  0  0  0  0  0
   37.0750   27.5040   38.5670 H   0  0  0  0  0  0  0  0  0  0  0  0
   36.8010   29.2390   38.9970 H   0  0  0  0  0  0  0  0  0  0  0  0
   36.9210   25.2850   39.8800 Br  0  0  0  0  0  0  0  0  0  0  0  0
   37.1040   26.7080   41.1270 C   0  0  0  0  0  0  0  0  0  0  0  0
   37.3200   27.9820   40.6590 C   0  0  0  0  0  0  0  0  0  0  0  0
   37.4480   28.9950   41.6130 C   0  0  0  0  0  0  0  0  0  0  0  0
   37.6220   30.0300   41.3150 H   0  0  0  0  0  0  0  0  0  0  0  0
   37.3650   28.7520   42.9690 C   0  0  0  0  0  0  0  0  0  0  0  0
   37.4740   29.5930   43.6680 H   0  0  0  0  0  0  0  0  0  0  0  0
   37.1450   27.4450   43.4100 C   0  0  0  0  0  3  0  0  0  0  0  0
   37.0140   26.4210   42.4690 C   0  0  0  0  0  3  0  0  0  0  0  0
  1  2  1  0  0  0  0
  1 23  1  0  0  0  0
  2  7  1  0  0  0  0
  3 10  1  0  0  0  0
  3  2  2  0  0  0  0
  4  3  1  0  0  0  0
  5  4  2  0  0  0  0
  5  6  1  0  0  0  0
  6  1  2  0  0  0  0
  8  5  1  0  0  0  0
  9 14  1  6  0  0  0
  9 13  1  0  0  0  0
  9 10  1  0  0  0  0
 10 11  1  0  0  0  0
 10 15  1  1  0  0  0
 12 11  1  0  0  0  0
 12 17  1  0  0  0  0
 13 18  1  1  0  0  0
 13 12  1  0  0  0  0
 16 12  1  0  0  0  0
 19  9  1  0  0  0  0
 20 19  1  0  0  0  0
 21 13  1  0  0  0  0
 22 21  1  0  0  0  0
 23 28  1  0  0  0  0
 24 23  1  0  0  0  0
 25 23  1  0  0  0  0
 26 27  1  0  0  0  0
 27 34  1  0  0  0  0
 28 27  2  0  0  0  0
 28 29  1  0  0  0  0
 29 31  2  0  0  0  0
 30 29  1  0  0  0  0
 31 33  1  0  0  0  0
 31 32  1  0  0  0  0
 34 33  2  0  0  0  0
M  END
>  <minimizedAffinity>
-5.69693851

$$$$

 OpenBabel03242521433D

 34 36  0  0  1  0  0  0  0  0999 V2000
   37.8180   29.2940   40.6470 C   0  0  0  0  0  0  0  0  0  0  0  0
   38.7150   30.3550   40.4100 C   0  0  0  0  0  0  0  0  0  0  0  0
   38.8950   30.7930   39.0970 C   0  0  0  0  0  0  0  0  0  0  0  0
   38.2030   30.1820   38.1230 N   0  0  0  0  0  0  0  0  0  0  0  0
   37.3430   29.1610   38.3780 C   0  0  0  0  0  0  0  0  0  0  0  0
   37.1610   28.7280   39.6470 N   0  0  0  0  0  0  0  0  0  0  0  0
   39.2040   30.7560   41.2780 H   0  0  0  0  0  0  0  0  0  0  0  0
   36.8050   28.6990   37.5450 H   0  0  0  0  0  0  0  0  0  0  0  0
   40.3110   32.0460   37.4830 C   0  0  2  0  0  0  0  0  0  0  0  0
   39.8280   31.8890   38.8960 C   0  0  2  0  0  0  0  0  0  0  0  0
   41.0550   31.7400   39.5710 O   0  0  0  0  0  0  0  0  0  0  0  0
   41.8130   32.7930   39.1070 C   0  0  0  0  0  0  0  0  0  0  0  0
   41.3550   33.1550   37.7170 C   0  0  1  0  0  0  0  0  0  0  0  0
   40.8990   31.1690   37.1500 H   0  0  0  0  0  0  0  0  0  0  0  0
   39.3970   32.8780   39.2260 H   0  0  0  0  0  0  0  0  0  0  0  0
   42.8670   32.4520   39.0360 H   0  0  0  0  0  0  0  0  0  0  0  0
   41.7900   33.6760   39.7810 H   0  0  0  0  0  0  0  0  0  0  0  0
   40.8260   34.1220   37.6790 H   0  0  0  0  0  0  0  0  0  0  0  0
   39.3200   32.4060   36.6020 O   0  0  0  0  0  0  0  0  0  0  0  0
   39.2840   31.8050   35.8120 H   0  0  0  0  0  0  0  0  0  0  0  0
   42.3480   33.0640   36.7580 O   0  0  0  0  0  0  0  0  0  0  0  0
   41.9100   32.9550   35.8790 H   0  0  0  0  0  0  0  0  0  0  0  0
   37.6340   28.8160   42.0620 C   0  0  0  0  0  0  0  0  0  0  0  0
   36.5790   29.0210   42.3170 H   0  0  0  0  0  0  0  0  0  0  0  0
   38.2900   29.4220   42.7420 H   0  0  0  0  0  0  0  0  0  0  0  0
   40.6070   28.1520   42.8760 Br  0  0  0  0  0  0  0  0  0  0  0  0
   39.2150   26.9050   42.5300 C   0  0  0  0  0  0  0  0  0  0  0  0
   37.9690   27.3740   42.1860 C   0  0  0  0  0  0  0  0  0  0  0  0
   36.9770   26.4190   41.9410 C   0  0  0  0  0  0  0  0  0  0  0  0
   35.9660   26.7180   41.6640 H   0  0  0  0  0  0  0  0  0  0  0  0
   37.2140   25.0620   42.0340 C   0  0  0  0  0  0  0  0  0  0  0  0
   36.3920   24.3640   41.8290 H   0  0  0  0  0  0  0  0  0  0  0  0
   38.4910   24.6210   42.3880 C   0  0  0  0  0  3  0  0  0  0  0  0
   39.4940   25.5620   42.6340 C   0  0  0  0  0  3  0  0  0  0  0  0
  1 23  1  0  0  0  0
  2  1  1  0  0  0  0
  2  7  1  0  0  0  0
  3  2  2  0  0  0  0
  4  5  2  0  0  0  0
  4  3  1  0  0  0  0
  5  6  1  0  0  0  0
  6  1  2  0  0  0  0
  8  5  1  0  0  0  0
  9 14  1  6  0  0  0
  9 13  1  0  0  0  0
  9 10  1  0  0  0  0
 10  3  1  0  0  0  0
 10 15  1  1  0  0  0
 10 11  1  0  0  0  0
 12 11  1  0  0  0  0
 12 17  1  0  0  0  0
 13 18  1  6  0  0  0
 13 12  1  0  0  0  0
 16 12  1  0  0  0  0
 19  9  1  0  0  0  0
 20 19  1  0  0  0  0
 21 13  1  0  0  0  0
 22 21  1  0  0  0  0
 23 28  1  0  0  0  0
 23 24  1  0  0  0  0
 23 25  1  0  0  0  0
 27 34  1  0  0  0  0
 27 26  1  0  0  0  0
 28 27  2  0  0  0  0
 29 31  2  0  0  0  0
 29 28  1  0  0  0  0
 30 29  1  0  0  0  0
 31 33  1  0  0  0  0
 32 31  1  0  0  0  0
 33 34  2  0  0  0  0
M  END
>  <minimizedAffinity>
-5.65616608

$$$$

 OpenBabel03242521433D

 34 36  0  0  1  0  0  0  0  0999 V2000
   36.2560   29.6090   39.3970 C   0  0  0  0  0  0  0  0  0  0  0  0
   37.0340   30.7360   39.7270 C   0  0  0  0  0  0  0  0  0  0  0  0
   37.6480   31.4460   38.6940 C   0  0  0  0  0  0  0  0  0  0  0  0
   37.4660   31.0200   37.4340 N   0  0  0  0  0  0  0  0  0  0  0  0
   36.7100   29.9290   37.1430 C   0  0  0  0  0  0  0  0  0  0  0  0
   36.1110   29.2330   38.1360 N   0  0  0  0  0  0  0  0  0  0  0  0
   37.0980   30.9700   40.7730 H   0  0  0  0  0  0  0  0  0  0  0  0
   36.5950   29.6260   36.0970 H   0  0  0  0  0  0  0  0  0  0  0  0
   39.8820   32.5380   38.6570 C   0  0  2  0  0  0  0  0  0  0  0  0
   38.4410   32.6030   39.0760 C   0  0  2  0  0  0  0  0  0  0  0  0
   38.5850   32.7760   40.4660 O   0  0  0  0  0  0  0  0  0  0  0  0
   39.4870   33.8110   40.5740 C   0  0  0  0  0  0  0  0  0  0  0  0
   40.3850   33.8120   39.3630 C   0  0  1  0  0  0  0  0  0  0  0  0
   40.4170   31.7060   39.1550 H   0  0  0  0  0  0  0  0  0  0  0  0
   38.0070   33.5650   38.6750 H   0  0  0  0  0  0  0  0  0  0  0  0
   40.1240   33.6200   41.4640 H   0  0  0  0  0  0  0  0  0  0  0  0
   39.0000   34.7990   40.7150 H   0  0  0  0  0  0  0  0  0  0  0  0
   40.1930   34.6630   38.6890 H   0  0  0  0  0  0  0  0  0  0  0  0
   40.0570   32.5630   37.2960 O   0  0  0  0  0  0  0  0  0  0  0  0
   40.6280   31.8150   36.9770 H   0  0  0  0  0  0  0  0  0  0  0  0
   41.7290   33.6730   39.6610 O   0  0  0  0  0  0  0  0  0  0  0  0
   42.1830   33.3250   38.8550 H   0  0  0  0  0  0  0  0  0  0  0  0
   35.6050   28.8370   40.5130 C   0  0  0  0  0  0  0  0  0  0  0  0
   34.9700   28.0760   40.0260 H   0  0  0  0  0  0  0  0  0  0  0  0
   34.9440   29.5300   41.1000 H   0  0  0  0  0  0  0  0  0  0  0  0
   36.6590   25.9870   39.6680 Br  0  0  0  0  0  0  0  0  0  0  0  0
   37.1890   26.9930   41.1920 C   0  0  0  0  0  0  0  0  0  0  0  0
   36.6230   28.2280   41.4070 C   0  0  0  0  0  0  0  0  0  0  0  0
   37.0450   28.9300   42.5390 C   0  0  0  0  0  0  0  0  0  0  0  0
   36.6390   29.9160   42.7720 H   0  0  0  0  0  0  0  0  0  0  0  0
   37.9840   28.4290   43.4170 C   0  0  0  0  0  0  0  0  0  0  0  0
   38.2730   29.0310   44.2890 H   0  0  0  0  0  0  0  0  0  0  0  0
   38.5390   27.1710   43.1670 C   0  0  0  0  0  3  0  0  0  0  0  0
   38.1290   26.4550   42.0400 C   0  0  0  0  0  3  0  0  0  0  0  0
  1  2  1  0  0  0  0
  1 23  1  0  0  0  0
  2  7  1  0  0  0  0
  3 10  1  0  0  0  0
  3  2  2  0  0  0  0
  4  3  1  0  0  0  0
  5  4  2  0  0  0  0
  5  6  1  0  0  0  0
  6  1  2  0  0  0  0
  8  5  1  0  0  0  0
  9 10  1  0  0  0  0
  9 14  1  1  0  0  0
  9 13  1  0  0  0  0
 10 15  1  6  0  0  0
 10 11  1  0  0  0  0
 11 12  1  0  0  0  0
 12 17  1  0  0  0  0
 12 16  1  0  0  0  0
 13 18  1  6  0  0  0
 13 21  1  0  0  0  0
 13 12  1  0  0  0  0
 19  9  1  0  0  0  0
 20 19  1  0  0  0  0
 22 21  1  0  0  0  0
 23 25  1  0  0  0  0
 23 28  1  0  0  0  0
 24 23  1  0  0  0  0
 26 27  1  0  0  0  0
 27 28  2  0  0  0  0
 27 34  1  0  0  0  0
 28 29  1  0  0  0  0
 29 30  1  0  0  0  0
 29 31  2  0  0  0  0
 31 32  1  0  0  0  0
 33 31  1  0  0  0  0
 34 33  2  0  0  0  0
M  END
>  <minimizedAffinity>
-5.6519742

$$$$

 OpenBabel03242521433D

 34 36  0  0  1  0  0  0  0  0999 V2000
   37.6640   29.2600   41.6560 C   0  0  0  0  0  0  0  0  0  0  0  0
   38.3350   29.7940   40.5390 C   0  0  0  0  0  0  0  0  0  0  0  0
   39.4950   30.5400   40.7520 C   0  0  0  0  0  0  0  0  0  0  0  0
   39.9150   30.7130   42.0150 N   0  0  0  0  0  0  0  0  0  0  0  0
   39.2490   30.1870   43.0770 C   0  0  0  0  0  0  0  0  0  0  0  0
   38.1240   29.4630   42.8810 N   0  0  0  0  0  0  0  0  0  0  0  0
   37.8930   29.5810   39.5830 H   0  0  0  0  0  0  0  0  0  0  0  0
   39.6380   30.3590   44.0860 H   0  0  0  0  0  0  0  0  0  0  0  0
   39.2950   31.9570   38.7190 C   0  0  2  0  0  0  0  0  0  0  0  0
   40.1570   31.0720   39.5730 C   0  0  2  0  0  0  0  0  0  0  0  0
   40.5390   30.0990   38.6300 O   0  0  0  0  0  0  0  0  0  0  0  0
   40.9840   30.8390   37.5580 C   0  0  0  0  0  0  0  0  0  0  0  0
   40.2710   32.1670   37.5450 C   0  0  1  0  0  0  0  0  0  0  0  0
   38.4420   31.4010   38.2830 H   0  0  0  0  0  0  0  0  0  0  0  0
   41.0910   31.6500   39.8360 H   0  0  0  0  0  0  0  0  0  0  0  0
   40.7060   30.2990   36.6280 H   0  0  0  0  0  0  0  0  0  0  0  0
   42.0870   30.9740   37.5510 H   0  0  0  0  0  0  0  0  0  0  0  0
   40.9310   33.0100   37.8090 H   0  0  0  0  0  0  0  0  0  0  0  0
   38.9260   33.1260   39.3380 O   0  0  0  0  0  0  0  0  0  0  0  0
   37.9450   33.2740   39.3060 H   0  0  0  0  0  0  0  0  0  0  0  0
   39.5540   32.4070   36.3860 O   0  0  0  0  0  0  0  0  0  0  0  0
   38.8580   33.0770   36.5950 H   0  0  0  0  0  0  0  0  0  0  0  0
   36.4070   28.4660   41.4250 C   0  0  0  0  0  0  0  0  0  0  0  0
   35.9150   28.9240   40.5490 H   0  0  0  0  0  0  0  0  0  0  0  0
   35.7310   28.5830   42.3150 H   0  0  0  0  0  0  0  0  0  0  0  0
   36.1460   27.4300   38.4580 Br  0  0  0  0  0  0  0  0  0  0  0  0
   36.6520   26.4110   39.9810 C   0  0  0  0  0  0  0  0  0  0  0  0
   36.7150   27.0290   41.2070 C   0  0  0  0  0  0  0  0  0  0  0  0
   37.0930   26.2390   42.2960 C   0  0  0  0  0  0  0  0  0  0  0  0
   37.1650   26.6630   43.2990 H   0  0  0  0  0  0  0  0  0  0  0  0
   37.3920   24.8980   42.1730 C   0  0  0  0  0  0  0  0  0  0  0  0
   37.6820   24.3320   43.0690 H   0  0  0  0  0  0  0  0  0  0  0  0
   37.3180   24.3020   40.9110 C   0  0  0  0  0  3  0  0  0  0  0  0
   36.9420   25.0770   39.8110 C   0  0  0  0  0  3  0  0  0  0  0  0
  1  6  1  0  0  0  0
  2  3  1  0  0  0  0
  2  1  2  0  0  0  0
  3  4  2  0  0  0  0
  4  5  1  0  0  0  0
  5  8  1  0  0  0  0
  6  5  2  0  0  0  0
  7  2  1  0  0  0  0
  9 14  1  6  0  0  0
  9 19  1  0  0  0  0
  9 10  1  0  0  0  0
 10 15  1  1  0  0  0
 10  3  1  0  0  0  0
 11 10  1  0  0  0  0
 12 11  1  0  0  0  0
 13 12  1  0  0  0  0
 13 18  1  1  0  0  0
 13  9  1  0  0  0  0
 16 12  1  0  0  0  0
 17 12  1  0  0  0  0
 20 19  1  0  0  0  0
 21 22  1  0  0  0  0
 21 13  1  0  0  0  0
 23  1  1  0  0  0  0
 23 25  1  0  0  0  0
 24 23  1  0  0  0  0
 26 27  1  0  0  0  0
 27 28  1  0  0  0  0
 28 23  1  0  0  0  0
 28 29  2  0  0  0  0
 29 30  1  0  0  0  0
 31 29  1  0  0  0  0
 31 32  1  0  0  0  0
 33 31  2  0  0  0  0
 34 27  2  0  0  0  0
 34 33  1  0  0  0  0
M  END
>  <minimizedAffinity>
-5.52977657

$$$$

 OpenBabel03242521433D

 34 36  0  0  1  0  0  0  0  0999 V2000
   37.8530   26.6190   41.4660 C   0  0  0  0  0  0  0  0  0  0  0  0
   38.0500   27.9640   41.0970 C   0  0  0  0  0  0  0  0  0  0  0  0
   37.6300   28.9640   41.9760 C   0  0  0  0  0  0  0  0  0  0  0  0
   37.0580   28.5930   43.1320 N   0  0  0  0  0  0  0  0  0  0  0  0
   36.8790   27.2880   43.4650 C   0  0  0  0  0  0  0  0  0  0  0  0
   37.2820   26.3110   42.6200 N   0  0  0  0  0  0  0  0  0  0  0  0
   38.5210   28.1230   40.1440 H   0  0  0  0  0  0  0  0  0  0  0  0
   36.4070   27.0430   44.4220 H   0  0  0  0  0  0  0  0  0  0  0  0
   36.7230   30.9430   40.7740 C   0  0  2  0  0  0  0  0  0  0  0  0
   37.8520   30.3380   41.5580 C   0  0  2  0  0  0  0  0  0  0  0  0
   38.9140   30.5060   40.6490 O   0  0  0  0  0  0  0  0  0  0  0  0
   38.8260   31.8300   40.2840 C   0  0  0  0  0  0  0  0  0  0  0  0
   37.3910   32.2790   40.4000 C   0  0  1  0  0  0  0  0  0  0  0  0
   36.5680   30.4220   39.8090 H   0  0  0  0  0  0  0  0  0  0  0  0
   38.0680   31.0170   42.4340 H   0  0  0  0  0  0  0  0  0  0  0  0
   39.1190   31.9130   39.2160 H   0  0  0  0  0  0  0  0  0  0  0  0
   39.5020   32.4890   40.8700 H   0  0  0  0  0  0  0  0  0  0  0  0
   37.2280   32.9780   41.2370 H   0  0  0  0  0  0  0  0  0  0  0  0
   35.5700   31.0940   41.5040 O   0  0  0  0  0  0  0  0  0  0  0  0
   34.7820   30.6950   41.0490 H   0  0  0  0  0  0  0  0  0  0  0  0
   36.8530   32.7480   39.2140 O   0  0  0  0  0  0  0  0  0  0  0  0
   35.8700   32.6710   39.2780 H   0  0  0  0  0  0  0  0  0  0  0  0
   38.2960   25.5430   40.5120 C   0  0  0  0  0  0  0  0  0  0  0  0
   38.8180   24.7880   41.1260 H   0  0  0  0  0  0  0  0  0  0  0  0
   39.0300   25.9790   39.7820 H   0  0  0  0  0  0  0  0  0  0  0  0
   37.7680   26.6930   37.6240 Br  0  0  0  0  0  0  0  0  0  0  0  0
   36.7620   25.3500   38.5170 C   0  0  0  0  0  0  0  0  0  0  0  0
   37.1370   24.9660   39.7820 C   0  0  0  0  0  0  0  0  0  0  0  0
   36.3680   23.9740   40.3980 C   0  0  0  0  0  0  0  0  0  0  0  0
   36.6080   23.6200   41.4010 H   0  0  0  0  0  0  0  0  0  0  0  0
   35.2770   23.3930   39.7850 C   0  0  0  0  0  0  0  0  0  0  0  0
   34.7130   22.6190   40.3230 H   0  0  0  0  0  0  0  0  0  0  0  0
   34.9250   23.8070   38.4980 C   0  0  0  0  0  3  0  0  0  0  0  0
   35.6820   24.7970   37.8680 C   0  0  0  0  0  3  0  0  0  0  0  0
  1  6  1  0  0  0  0
  2  1  2  0  0  0  0
  2  3  1  0  0  0  0
  3  4  2  0  0  0  0
  4  5  1  0  0  0  0
  5  8  1  0  0  0  0
  6  5  2  0  0  0  0
  7  2  1  0  0  0  0
  9 14  1  6  0  0  0
  9 19  1  0  0  0  0
  9 10  1  0  0  0  0
 10  3  1  0  0  0  0
 10 15  1  1  0  0  0
 11 10  1  0  0  0  0
 12 13  1  0  0  0  0
 12 11  1  0  0  0  0
 12 17  1  0  0  0  0
 13  9  1  0  0  0  0
 13 18  1  1  0  0  0
 16 12  1  0  0  0  0
 20 19  1  0  0  0  0
 21 22  1  0  0  0  0
 21 13  1  0  0  0  0
 23 24  1  0  0  0  0
 23  1  1  0  0  0  0
 25 23  1  0  0  0  0
 26 27  1  0  0  0  0
 27 28  1  0  0  0  0
 28 29  2  0  0  0  0
 28 23  1  0  0  0  0
 29 30  1  0  0  0  0
 31 32  1  0  0  0  0
 31 29  1  0  0  0  0
 33 31  2  0  0  0  0
 34 33  1  0  0  0  0
 34 27  2  0  0  0  0
M  END
>  <minimizedAffinity>
-5.52097321

$$$$
