
 OpenBabel03252504533D

 21 22  0  0  0  0  0  0  0  0999 V2000
   47.8390   35.1850   41.8450 C   0  0  0  0  0  0  0  0  0  0  0  0
   48.8440   35.2910   42.3350 H   0  0  0  0  0  0  0  0  0  0  0  0
   47.5420   36.1210   41.3340 H   0  0  0  0  0  0  0  0  0  0  0  0
   44.7900   35.3760   43.9640 C   0  0  0  0  0  0  0  0  0  0  0  0
   45.7040   35.6710   42.9340 C   0  0  0  0  0  0  0  0  0  0  0  0
   46.8710   34.9030   42.9080 C   0  0  0  0  0  0  0  0  0  0  0  0
   47.0630   33.9350   43.8550 N   0  0  0  0  0  0  0  0  0  0  0  0
   46.1460   33.7000   44.8200 C   0  0  0  0  0  0  0  0  0  0  0  0
   45.0190   34.4190   44.8710 N   0  0  0  0  0  0  0  0  0  0  0  0
   43.8730   35.9590   44.0080 H   0  0  0  0  0  0  0  0  0  0  0  0
   45.5100   36.4490   42.2020 H   0  0  0  0  0  0  0  0  0  0  0  0
   46.4890   32.8940   45.4660 H   0  0  0  0  0  0  0  0  0  0  0  0
   50.4330   33.4440   42.2740 Br  0  0  0  0  0  0  0  0  0  0  0  0
   49.0310   33.2510   40.9770 C   0  0  0  0  0  0  0  0  0  0  0  0
   47.9160   34.0760   40.8550 C   0  0  0  0  0  0  0  0  0  0  0  0
   46.9960   33.8170   39.8730 C   0  0  0  0  0  0  0  0  0  0  0  0
   46.1420   34.4800   39.8070 H   0  0  0  0  0  0  0  0  0  0  0  0
   47.2140   32.7350   39.0320 C   0  0  0  0  0  0  0  0  0  0  0  0
   46.4650   32.5510   38.2620 H   0  0  0  0  0  0  0  0  0  0  0  0
   48.3000   31.9040   39.1300 C   0  0  0  0  0  3  0  0  0  0  0  0
   49.2360   32.1660   40.1270 C   0  0  0  0  0  3  0  0  0  0  0  0
  1  2  1  0  0  0  0
  1  6  1  0  0  0  0
  3  1  1  0  0  0  0
  4 10  1  0  0  0  0
  4  9  1  0  0  0  0
  5  4  2  0  0  0  0
  6  5  1  0  0  0  0
  6  7  2  0  0  0  0
  7  8  1  0  0  0  0
  8  9  2  0  0  0  0
  8 12  1  0  0  0  0
 11  5  1  0  0  0  0
 14 13  1  0  0  0  0
 15 14  1  0  0  0  0
 15  1  1  0  0  0  0
 16 15  2  0  0  0  0
 17 16  1  0  0  0  0
 18 20  2  0  0  0  0
 18 16  1  0  0  0  0
 19 18  1  0  0  0  0
 20 21  1  0  0  0  0
 21 14  2  0  0  0  0
M  END
>  <minimizedAffinity>
-4.10403538

>  <minimizedRMSD>
2.7023263

$$$$
