
 OpenBabel03252500593D

 38 40  0  0  0  0  0  0  0  0999 V2000
   36.6060   28.9080   40.3120 O   0  0  0  0  0  0  0  0  0  0  0  0
   36.9980   30.3000   40.8000 P   0  0  1  0  0  0  0  0  0  0  0  0
   35.6040   31.0890   41.3310 O   0  0  0  0  0  0  0  0  0  0  0  0
   34.7810   30.7080   40.9450 H   0  0  0  0  0  0  0  0  0  0  0  0
   38.0470   30.1580   42.1130 O   0  0  0  0  0  0  0  0  0  0  0  0
   38.6250   28.2090   43.2930 C   0  0  0  0  0  0  0  0  0  0  0  0
   38.9700   29.1390   42.3380 C   0  0  0  0  0  0  0  0  0  0  0  0
   40.1960   28.9960   41.6810 C   0  0  0  0  0  0  0  0  0  0  0  0
   40.9750   27.9490   42.0180 N   0  0  0  0  0  0  0  0  0  0  0  0
   40.6190   27.0510   42.9530 C   0  0  0  0  0  0  0  0  0  0  0  0
   39.4520   27.1830   43.5830 N   0  0  0  0  0  0  0  0  0  0  0  0
   40.4200   29.7440   40.9470 H   0  0  0  0  0  0  0  0  0  0  0  0
   41.3290   26.2580   43.1350 H   0  0  0  0  0  0  0  0  0  0  0  0
   37.3620   28.2980   44.0150 C   0  0  0  0  0  0  0  0  0  0  0  0
   36.9440   29.3180   43.8950 H   0  0  0  0  0  0  0  0  0  0  0  0
   37.4680   28.1290   45.0930 H   0  0  0  0  0  0  0  0  0  0  0  0
   36.4030   27.2910   43.4620 C   0  0  0  0  0  0  0  0  0  0  0  0
   35.5250   27.7980   43.0190 H   0  0  0  0  0  0  0  0  0  0  0  0
   36.8710   26.6850   42.6570 H   0  0  0  0  0  0  0  0  0  0  0  0
   36.0900   26.5330   44.2280 H   0  0  0  0  0  0  0  0  0  0  0  0
   37.6510   31.1960   39.5150 O   0  0  0  0  0  0  0  0  0  0  0  0
   38.4910   32.2620   39.8240 C   0  0  0  0  0  0  0  0  0  0  0  0
   37.8960   33.5080   39.9630 C   0  0  0  0  0  0  0  0  0  0  0  0
   38.6520   34.6460   40.2730 C   0  0  0  0  0  0  0  0  0  0  0  0
   39.9990   34.4960   40.4350 N   0  0  0  0  0  0  0  0  0  0  0  0
   40.5530   33.2980   40.2990 C   0  0  0  0  0  0  0  0  0  0  0  0
   39.8190   32.2130   40.0020 N   0  0  0  0  0  0  0  0  0  0  0  0
   36.8180   33.6250   39.8320 H   0  0  0  0  0  0  0  0  0  0  0  0
   38.1570   35.5830   40.3710 H   0  0  0  0  0  0  0  0  0  0  0  0
   42.1090   33.8040   37.7470 Br  0  0  0  0  0  0  0  0  0  0  0  0
   42.8770   33.2800   39.4080 C   0  0  0  0  0  0  0  0  0  0  0  0
   41.9880   33.0980   40.4650 C   0  0  0  0  0  0  0  0  0  0  0  0
   42.5610   32.7140   41.6800 C   0  0  0  0  0  0  0  0  0  0  0  0
   41.9100   32.5570   42.5410 H   0  0  0  0  0  0  0  0  0  0  0  0
   43.9100   32.5430   41.7720 C   0  0  0  0  0  0  0  0  0  0  0  0
   44.4060   32.2460   42.6920 H   0  0  0  0  0  0  0  0  0  0  0  0
   44.7580   32.7300   40.7170 C   0  0  0  0  0  3  0  0  0  0  0  0
   44.2440   33.1130   39.4810 C   0  0  0  0  0  3  0  0  0  0  0  0
  2  1  2  6  0  0  0
  2  3  1  0  0  0  0
  2  5  1  0  0  0  0
  4  3  1  0  0  0  0
  5  7  1  0  0  0  0
  6 11  1  0  0  0  0
  6 14  1  0  0  0  0
  7  6  2  0  0  0  0
  8  9  2  0  0  0  0
  8  7  1  0  0  0  0
  9 10  1  0  0  0  0
 10 13  1  0  0  0  0
 10 11  2  0  0  0  0
 12  8  1  0  0  0  0
 14 16  1  0  0  0  0
 15 14  1  0  0  0  0
 17 14  1  0  0  0  0
 17 20  1  0  0  0  0
 18 17  1  0  0  0  0
 19 17  1  0  0  0  0
 21 22  1  0  0  0  0
 21  2  1  0  0  0  0
 22 23  2  0  0  0  0
 22 27  1  0  0  0  0
 23 24  1  0  0  0  0
 24 29  1  0  0  0  0
 24 25  2  0  0  0  0
 26 25  1  0  0  0  0
 26 32  1  0  0  0  0
 27 26  2  0  0  0  0
 28 23  1  0  0  0  0
 30 31  1  0  0  0  0
 31 38  2  0  0  0  0
 31 32  1  0  0  0  0
 32 33  2  0  0  0  0
 33 35  1  0  0  0  0
 33 34  1  0  0  0  0
 35 36  1  0  0  0  0
 37 35  2  0  0  0  0
 38 37  1  0  0  0  0
M  END
>  <minimizedAffinity>
-5.98871183

$$$$

 OpenBabel03252500593D

 38 40  0  0  0  0  0  0  0  0999 V2000
   40.0480   30.0780   37.5820 O   0  0  0  0  0  0  0  0  0  0  0  0
   39.6370   31.5020   37.9420 P   0  0  1  0  0  0  0  0  0  0  0  0
   40.1970   32.5390   36.7340 O   0  0  0  0  0  0  0  0  0  0  0  0
   40.9440   32.1530   36.2190 H   0  0  0  0  0  0  0  0  0  0  0  0
   37.9540   31.6080   37.9780 O   0  0  0  0  0  0  0  0  0  0  0  0
   36.4800   29.8350   38.4340 C   0  0  0  0  0  0  0  0  0  0  0  0
   37.0970   30.9820   38.8800 C   0  0  0  0  0  0  0  0  0  0  0  0
   36.8230   31.4240   40.1780 C   0  0  0  0  0  0  0  0  0  0  0  0
   35.9660   30.6990   40.9250 N   0  0  0  0  0  0  0  0  0  0  0  0
   35.3740   29.5810   40.4710 C   0  0  0  0  0  0  0  0  0  0  0  0
   35.6310   29.1550   39.2340 N   0  0  0  0  0  0  0  0  0  0  0  0
   37.3270   32.3210   40.4810 H   0  0  0  0  0  0  0  0  0  0  0  0
   34.7080   29.0900   41.1630 H   0  0  0  0  0  0  0  0  0  0  0  0
   36.7210   29.3190   37.0930 C   0  0  0  0  0  0  0  0  0  0  0  0
   37.2470   28.3450   37.1650 H   0  0  0  0  0  0  0  0  0  0  0  0
   37.3570   29.9730   36.4860 H   0  0  0  0  0  0  0  0  0  0  0  0
   35.4110   29.1350   36.3910 C   0  0  0  0  0  0  0  0  0  0  0  0
   35.2500   28.0660   36.1510 H   0  0  0  0  0  0  0  0  0  0  0  0
   34.5610   29.4590   37.0270 H   0  0  0  0  0  0  0  0  0  0  0  0
   35.3270   29.7740   35.4720 H   0  0  0  0  0  0  0  0  0  0  0  0
   40.3680   31.9580   39.4050 O   0  0  0  0  0  0  0  0  0  0  0  0
   40.5420   30.9800   40.3800 C   0  0  0  0  0  0  0  0  0  0  0  0
   41.8350   30.7760   40.8390 C   0  0  0  0  0  0  0  0  0  0  0  0
   42.1180   29.8160   41.8190 C   0  0  0  0  0  0  0  0  0  0  0  0
   41.0800   29.0800   42.3130 N   0  0  0  0  0  0  0  0  0  0  0  0
   39.8490   29.2860   41.8640 C   0  0  0  0  0  0  0  0  0  0  0  0
   39.5880   30.2110   40.9240 N   0  0  0  0  0  0  0  0  0  0  0  0
   42.6640   31.3670   40.4410 H   0  0  0  0  0  0  0  0  0  0  0  0
   43.1240   29.6910   42.1430 H   0  0  0  0  0  0  0  0  0  0  0  0
   39.0350   27.0360   40.0020 Br  0  0  0  0  0  0  0  0  0  0  0  0
   38.1890   27.4440   41.6580 C   0  0  0  0  0  0  0  0  0  0  0  0
   38.7140   28.5200   42.3680 C   0  0  0  0  0  0  0  0  0  0  0  0
   38.0870   28.8120   43.5810 C   0  0  0  0  0  0  0  0  0  0  0  0
   38.4590   29.6460   44.1780 H   0  0  0  0  0  0  0  0  0  0  0  0
   37.0310   28.0590   43.9980 C   0  0  0  0  0  0  0  0  0  0  0  0
   36.5070   28.2420   44.9330 H   0  0  0  0  0  0  0  0  0  0  0  0
   36.5360   27.0060   43.2800 C   0  0  0  0  0  3  0  0  0  0  0  0
   37.1210   26.6700   42.0630 C   0  0  0  0  0  3  0  0  0  0  0  0
  2  1  2  6  0  0  0
  2  5  1  0  0  0  0
  2 21  1  0  0  0  0
  3  2  1  0  0  0  0
  4  3  1  0  0  0  0
  5  7  1  0  0  0  0
  6  7  2  0  0  0  0
  6 11  1  0  0  0  0
  7  8  1  0  0  0  0
  8 12  1  0  0  0  0
  8  9  2  0  0  0  0
 10  9  1  0  0  0  0
 10 13  1  0  0  0  0
 11 10  2  0  0  0  0
 14 15  1  0  0  0  0
 14  6  1  0  0  0  0
 16 14  1  0  0  0  0
 17 19  1  0  0  0  0
 17 14  1  0  0  0  0
 18 17  1  0  0  0  0
 20 17  1  0  0  0  0
 21 22  1  0  0  0  0
 22 23  2  0  0  0  0
 22 27  1  0  0  0  0
 23 24  1  0  0  0  0
 24 29  1  0  0  0  0
 24 25  2  0  0  0  0
 26 25  1  0  0  0  0
 26 32  1  0  0  0  0
 27 26  2  0  0  0  0
 28 23  1  0  0  0  0
 30 31  1  0  0  0  0
 31 38  2  0  0  0  0
 31 32  1  0  0  0  0
 32 33  2  0  0  0  0
 33 35  1  0  0  0  0
 33 34  1  0  0  0  0
 35 36  1  0  0  0  0
 37 35  2  0  0  0  0
 38 37  1  0  0  0  0
M  END
>  <minimizedAffinity>
-5.82023764

$$$$

 OpenBabel03252500593D

 38 40  0  0  0  0  0  0  0  0999 V2000
   41.1530   29.2540   41.8010 O   0  0  0  0  0  0  0  0  0  0  0  0
   40.5060   30.6300   41.9270 P   0  0  1  0  0  0  0  0  0  0  0  0
   41.6290   31.6840   42.6170 O   0  0  0  0  0  0  0  0  0  0  0  0
   42.3340   31.2120   43.1190 H   0  0  0  0  0  0  0  0  0  0  0  0
   40.1220   31.2120   40.3910 O   0  0  0  0  0  0  0  0  0  0  0  0
   38.2470   31.8300   39.1170 C   0  0  0  0  0  0  0  0  0  0  0  0
   39.1690   32.1780   40.0780 C   0  0  0  0  0  0  0  0  0  0  0  0
   39.0820   33.4480   40.6560 C   0  0  0  0  0  0  0  0  0  0  0  0
   38.0950   34.2650   40.2390 N   0  0  0  0  0  0  0  0  0  0  0  0
   37.2030   33.9070   39.2990 C   0  0  0  0  0  0  0  0  0  0  0  0
   37.2820   32.6970   38.7440 N   0  0  0  0  0  0  0  0  0  0  0  0
   39.8220   33.6730   41.3990 H   0  0  0  0  0  0  0  0  0  0  0  0
   36.4610   34.6490   39.0490 H   0  0  0  0  0  0  0  0  0  0  0  0
   38.2790   30.5220   38.4750 C   0  0  0  0  0  0  0  0  0  0  0  0
   37.9520   29.7500   39.2010 H   0  0  0  0  0  0  0  0  0  0  0  0
   39.2810   30.2300   38.1390 H   0  0  0  0  0  0  0  0  0  0  0  0
   37.3590   30.5280   37.2940 C   0  0  0  0  0  0  0  0  0  0  0  0
   36.5410   29.7980   37.4400 H   0  0  0  0  0  0  0  0  0  0  0  0
   36.8880   31.5240   37.1520 H   0  0  0  0  0  0  0  0  0  0  0  0
   37.9020   30.3410   36.3300 H   0  0  0  0  0  0  0  0  0  0  0  0
   39.1640   30.5400   42.9640 O   0  0  0  0  0  0  0  0  0  0  0  0
   38.2260   29.5390   42.7310 C   0  0  0  0  0  0  0  0  0  0  0  0
   38.0400   28.6080   43.7420 C   0  0  0  0  0  0  0  0  0  0  0  0
   37.1190   27.5610   43.6080 C   0  0  0  0  0  0  0  0  0  0  0  0
   36.4050   27.4800   42.4480 N   0  0  0  0  0  0  0  0  0  0  0  0
   36.5940   28.3790   41.4900 C   0  0  0  0  0  0  0  0  0  0  0  0
   37.4800   29.3790   41.6290 N   0  0  0  0  0  0  0  0  0  0  0  0
   38.6130   28.6750   44.6700 H   0  0  0  0  0  0  0  0  0  0  0  0
   37.0070   26.8670   44.4070 H   0  0  0  0  0  0  0  0  0  0  0  0
   37.6890   26.3090   39.5640 Br  0  0  0  0  0  0  0  0  0  0  0  0
   36.1970   27.4390   39.2200 C   0  0  0  0  0  0  0  0  0  0  0  0
   35.8490   28.3250   40.2360 C   0  0  0  0  0  0  0  0  0  0  0  0
   34.7530   29.1500   39.9740 C   0  0  0  0  0  0  0  0  0  0  0  0
   34.4400   29.8640   40.7370 H   0  0  0  0  0  0  0  0  0  0  0  0
   34.0990   29.0530   38.7830 C   0  0  0  0  0  0  0  0  0  0  0  0
   33.2410   29.6700   38.5290 H   0  0  0  0  0  0  0  0  0  0  0  0
   34.4620   28.1730   37.8030 C   0  0  0  0  0  3  0  0  0  0  0  0
   35.5470   27.3250   38.0080 C   0  0  0  0  0  3  0  0  0  0  0  0
  2  1  2  6  0  0  0
  2  3  1  0  0  0  0
  2 21  1  0  0  0  0
  3  4  1  0  0  0  0
  5  2  1  0  0  0  0
  6  7  1  0  0  0  0
  7  5  1  0  0  0  0
  7  8  2  0  0  0  0
  8 12  1  0  0  0  0
  9  8  1  0  0  0  0
 10  9  2  0  0  0  0
 11  6  2  0  0  0  0
 11 10  1  0  0  0  0
 13 10  1  0  0  0  0
 14  6  1  0  0  0  0
 14 15  1  0  0  0  0
 16 14  1  0  0  0  0
 17 18  1  0  0  0  0
 17 14  1  0  0  0  0
 19 17  1  0  0  0  0
 20 17  1  0  0  0  0
 22 21  1  0  0  0  0
 22 23  1  0  0  0  0
 23 28  1  0  0  0  0
 24 23  2  0  0  0  0
 24 29  1  0  0  0  0
 25 24  1  0  0  0  0
 26 27  1  0  0  0  0
 26 25  2  0  0  0  0
 27 22  2  0  0  0  0
 31 30  1  0  0  0  0
 31 32  1  0  0  0  0
 32 26  1  0  0  0  0
 33 32  2  0  0  0  0
 33 34  1  0  0  0  0
 35 33  1  0  0  0  0
 36 35  1  0  0  0  0
 37 38  1  0  0  0  0
 37 35  2  0  0  0  0
 38 31  2  0  0  0  0
M  END
>  <minimizedAffinity>
-5.63430452

$$$$

 OpenBabel03252500593D

 38 40  0  0  0  0  0  0  0  0999 V2000
   37.9270   32.4390   38.9910 O   0  0  0  0  0  0  0  0  0  0  0  0
   38.6880   31.4860   38.0750 P   0  0  1  0  0  0  0  0  0  0  0  0
   38.7790   32.1830   36.5400 O   0  0  0  0  0  0  0  0  0  0  0  0
   38.0810   32.8640   36.3910 H   0  0  0  0  0  0  0  0  0  0  0  0
   40.2610   31.2920   38.6510 O   0  0  0  0  0  0  0  0  0  0  0  0
   41.3200   32.0430   40.6090 C   0  0  0  0  0  0  0  0  0  0  0  0
   41.0460   32.2570   39.2780 C   0  0  0  0  0  0  0  0  0  0  0  0
   41.5620   33.4040   38.6670 C   0  0  0  0  0  0  0  0  0  0  0  0
   42.3060   34.2400   39.4190 N   0  0  0  0  0  0  0  0  0  0  0  0
   42.5630   34.0120   40.7180 C   0  0  0  0  0  0  0  0  0  0  0  0
   42.0730   32.9220   41.3060 N   0  0  0  0  0  0  0  0  0  0  0  0
   41.3210   33.5280   37.6290 H   0  0  0  0  0  0  0  0  0  0  0  0
   43.1700   34.7560   41.2130 H   0  0  0  0  0  0  0  0  0  0  0  0
   40.8140   30.8680   41.3070 C   0  0  0  0  0  0  0  0  0  0  0  0
   41.6060   30.4690   41.9730 H   0  0  0  0  0  0  0  0  0  0  0  0
   40.5320   30.0530   40.6320 H   0  0  0  0  0  0  0  0  0  0  0  0
   39.6180   31.2550   42.1210 C   0  0  0  0  0  0  0  0  0  0  0  0
   39.8180   31.0980   43.1980 H   0  0  0  0  0  0  0  0  0  0  0  0
   39.3660   32.3280   41.9870 H   0  0  0  0  0  0  0  0  0  0  0  0
   38.6890   30.7130   41.7980 H   0  0  0  0  0  0  0  0  0  0  0  0
   37.8390   30.0220   37.9360 O   0  0  0  0  0  0  0  0  0  0  0  0
   37.3240   29.4550   39.0980 C   0  0  0  0  0  0  0  0  0  0  0  0
   35.9970   29.7310   39.3950 C   0  0  0  0  0  0  0  0  0  0  0  0
   35.3830   29.2090   40.5410 C   0  0  0  0  0  0  0  0  0  0  0  0
   36.1290   28.4160   41.3640 N   0  0  0  0  0  0  0  0  0  0  0  0
   37.3970   28.1610   41.0660 C   0  0  0  0  0  0  0  0  0  0  0  0
   37.9770   28.6670   39.9640 N   0  0  0  0  0  0  0  0  0  0  0  0
   35.4020   30.3670   38.7350 H   0  0  0  0  0  0  0  0  0  0  0  0
   34.3630   29.4450   40.7330 H   0  0  0  0  0  0  0  0  0  0  0  0
   37.1460   25.2140   40.4000 Br  0  0  0  0  0  0  0  0  0  0  0  0
   38.2510   25.9330   41.7740 C   0  0  0  0  0  0  0  0  0  0  0  0
   38.2270   27.3180   41.9200 C   0  0  0  0  0  0  0  0  0  0  0  0
   39.0400   27.8360   42.9300 C   0  0  0  0  0  0  0  0  0  0  0  0
   39.0580   28.9150   43.0880 H   0  0  0  0  0  0  0  0  0  0  0  0
   39.7920   26.9960   43.6950 C   0  0  0  0  0  0  0  0  0  0  0  0
   40.4420   27.3460   44.4930 H   0  0  0  0  0  0  0  0  0  0  0  0
   39.7970   25.6400   43.5290 C   0  0  0  0  0  3  0  0  0  0  0  0
   39.0050   25.0670   42.5370 C   0  0  0  0  0  3  0  0  0  0  0  0
  2  5  1  0  0  0  0
  2  1  2  1  0  0  0
  3  2  1  0  0  0  0
  4  3  1  0  0  0  0
  5  7  1  0  0  0  0
  6 11  1  0  0  0  0
  6 14  1  0  0  0  0
  7  6  2  0  0  0  0
  8  7  1  0  0  0  0
  8  9  2  0  0  0  0
  9 10  1  0  0  0  0
 10 13  1  0  0  0  0
 10 11  2  0  0  0  0
 12  8  1  0  0  0  0
 14 15  1  0  0  0  0
 14 17  1  0  0  0  0
 16 14  1  0  0  0  0
 17 18  1  0  0  0  0
 19 17  1  0  0  0  0
 20 17  1  0  0  0  0
 21  2  1  0  0  0  0
 21 22  1  0  0  0  0
 22 23  2  0  0  0  0
 22 27  1  0  0  0  0
 23 24  1  0  0  0  0
 24 29  1  0  0  0  0
 24 25  2  0  0  0  0
 26 25  1  0  0  0  0
 26 32  1  0  0  0  0
 27 26  2  0  0  0  0
 28 23  1  0  0  0  0
 30 31  1  0  0  0  0
 31 32  2  0  0  0  0
 31 38  1  0  0  0  0
 32 33  1  0  0  0  0
 33 34  1  0  0  0  0
 33 35  2  0  0  0  0
 35 36  1  0  0  0  0
 37 35  1  0  0  0  0
 38 37  2  0  0  0  0
M  END
>  <minimizedAffinity>
-5.63356733

$$$$

 OpenBabel03252500593D

 38 40  0  0  0  0  0  0  0  0999 V2000
   39.2970   34.7240   39.6060 O   0  0  0  0  0  0  0  0  0  0  0  0
   39.0010   33.3120   40.1020 P   0  0  1  0  0  0  0  0  0  0  0  0
   38.8940   33.3510   41.7860 O   0  0  0  0  0  0  0  0  0  0  0  0
   39.3550   34.1300   42.1770 H   0  0  0  0  0  0  0  0  0  0  0  0
   37.5080   32.8080   39.4990 O   0  0  0  0  0  0  0  0  0  0  0  0
   36.5900   30.6940   39.0390 C   0  0  0  0  0  0  0  0  0  0  0  0
   37.2810   31.7900   38.5750 C   0  0  0  0  0  0  0  0  0  0  0  0
   37.6970   31.7990   37.2400 C   0  0  0  0  0  0  0  0  0  0  0  0
   37.3950   30.7300   36.4770 N   0  0  0  0  0  0  0  0  0  0  0  0
   36.7180   29.6690   36.9490 C   0  0  0  0  0  0  0  0  0  0  0  0
   36.3200   29.6540   38.2210 N   0  0  0  0  0  0  0  0  0  0  0  0
   38.2320   32.6730   36.9250 H   0  0  0  0  0  0  0  0  0  0  0  0
   36.5390   28.8740   36.2410 H   0  0  0  0  0  0  0  0  0  0  0  0
   36.1270   30.6190   40.4190 C   0  0  0  0  0  0  0  0  0  0  0  0
   35.5400   31.5290   40.6570 H   0  0  0  0  0  0  0  0  0  0  0  0
   36.9450   30.5760   41.1470 H   0  0  0  0  0  0  0  0  0  0  0  0
   35.2690   29.4040   40.5880 C   0  0  0  0  0  0  0  0  0  0  0  0
   34.2380   29.6970   40.8620 H   0  0  0  0  0  0  0  0  0  0  0  0
   35.2030   28.8200   39.6460 H   0  0  0  0  0  0  0  0  0  0  0  0
   35.6970   28.6800   41.3310 H   0  0  0  0  0  0  0  0  0  0  0  0
   40.2780   32.2750   39.6810 O   0  0  0  0  0  0  0  0  0  0  0  0
   40.4950   31.1530   40.4750 C   0  0  0  0  0  0  0  0  0  0  0  0
   41.8160   30.8160   40.7340 C   0  0  0  0  0  0  0  0  0  0  0  0
   42.1430   29.7050   41.5220 C   0  0  0  0  0  0  0  0  0  0  0  0
   41.1210   28.9570   42.0310 N   0  0  0  0  0  0  0  0  0  0  0  0
   39.8630   29.2920   41.7740 C   0  0  0  0  0  0  0  0  0  0  0  0
   39.5600   30.3600   41.0170 N   0  0  0  0  0  0  0  0  0  0  0  0
   42.6320   31.4160   40.3250 H   0  0  0  0  0  0  0  0  0  0  0  0
   43.1690   29.4800   41.6960 H   0  0  0  0  0  0  0  0  0  0  0  0
   39.0530   27.0130   39.9460 Br  0  0  0  0  0  0  0  0  0  0  0  0
   38.2230   27.4280   41.6080 C   0  0  0  0  0  0  0  0  0  0  0  0
   38.7450   28.5180   42.3010 C   0  0  0  0  0  0  0  0  0  0  0  0
   38.1290   28.8150   43.5190 C   0  0  0  0  0  0  0  0  0  0  0  0
   38.4990   29.6590   44.1020 H   0  0  0  0  0  0  0  0  0  0  0  0
   37.0880   28.0530   43.9570 C   0  0  0  0  0  0  0  0  0  0  0  0
   36.5740   28.2400   44.8970 H   0  0  0  0  0  0  0  0  0  0  0  0
   36.5960   26.9880   43.2560 C   0  0  0  0  0  3  0  0  0  0  0  0
   37.1700   26.6460   42.0350 C   0  0  0  0  0  3  0  0  0  0  0  0
  2  1  2  6  0  0  0
  2  3  1  0  0  0  0
  3  4  1  0  0  0  0
  5  2  1  0  0  0  0
  6 14  1  0  0  0  0
  7  6  1  0  0  0  0
  7  5  1  0  0  0  0
  8  7  2  0  0  0  0
  9 10  2  0  0  0  0
  9  8  1  0  0  0  0
 10 11  1  0  0  0  0
 11  6  2  0  0  0  0
 12  8  1  0  0  0  0
 13 10  1  0  0  0  0
 14 17  1  0  0  0  0
 14 15  1  0  0  0  0
 14 16  1  0  0  0  0
 17 18  1  0  0  0  0
 17 20  1  0  0  0  0
 19 17  1  0  0  0  0
 21  2  1  0  0  0  0
 21 22  1  0  0  0  0
 22 23  2  0  0  0  0
 22 27  1  0  0  0  0
 23 24  1  0  0  0  0
 24 29  1  0  0  0  0
 24 25  2  0  0  0  0
 26 25  1  0  0  0  0
 26 32  1  0  0  0  0
 27 26  2  0  0  0  0
 28 23  1  0  0  0  0
 30 31  1  0  0  0  0
 31 38  2  0  0  0  0
 31 32  1  0  0  0  0
 32 33  2  0  0  0  0
 33 35  1  0  0  0  0
 33 34  1  0  0  0  0
 35 36  1  0  0  0  0
 37 35  2  0  0  0  0
 38 37  1  0  0  0  0
M  END
>  <minimizedAffinity>
-5.58669567

$$$$

 OpenBabel03252500593D

 38 40  0  0  0  0  0  0  0  0999 V2000
   42.5960   30.1010   42.2830 O   0  0  0  0  0  0  0  0  0  0  0  0
   41.1530   30.2090   41.7990 P   0  0  1  0  0  0  0  0  0  0  0  0
   41.0770   29.6230   40.2180 O   0  0  0  0  0  0  0  0  0  0  0  0
   41.9530   29.6400   39.7650 H   0  0  0  0  0  0  0  0  0  0  0  0
   40.1660   29.2360   42.7610 O   0  0  0  0  0  0  0  0  0  0  0  0
   38.7190   27.3860   42.8380 C   0  0  0  0  0  0  0  0  0  0  0  0
   40.0010   27.8560   42.6590 C   0  0  0  0  0  0  0  0  0  0  0  0
   41.0190   26.9350   42.3970 C   0  0  0  0  0  0  0  0  0  0  0  0
   40.6870   25.6300   42.3310 N   0  0  0  0  0  0  0  0  0  0  0  0
   39.4300   25.1900   42.5070 C   0  0  0  0  0  0  0  0  0  0  0  0
   38.4550   26.0640   42.7590 N   0  0  0  0  0  0  0  0  0  0  0  0
   41.9990   27.3480   42.2660 H   0  0  0  0  0  0  0  0  0  0  0  0
   39.2910   24.1220   42.4310 H   0  0  0  0  0  0  0  0  0  0  0  0
   37.6120   28.2920   43.1140 C   0  0  0  0  0  0  0  0  0  0  0  0
   37.3820   28.8770   42.2010 H   0  0  0  0  0  0  0  0  0  0  0  0
   37.8350   29.0190   43.9030 H   0  0  0  0  0  0  0  0  0  0  0  0
   36.4110   27.4950   43.5200 C   0  0  0  0  0  0  0  0  0  0  0  0
   35.5910   27.6360   42.7900 H   0  0  0  0  0  0  0  0  0  0  0  0
   36.6370   26.4080   43.5510 H   0  0  0  0  0  0  0  0  0  0  0  0
   36.0720   27.7350   44.5620 H   0  0  0  0  0  0  0  0  0  0  0  0
   40.6740   31.8370   41.7790 O   0  0  0  0  0  0  0  0  0  0  0  0
   39.5040   32.1640   41.0990 C   0  0  0  0  0  0  0  0  0  0  0  0
   39.2910   33.5090   40.8310 C   0  0  0  0  0  0  0  0  0  0  0  0
   38.1450   33.9430   40.1520 C   0  0  0  0  0  0  0  0  0  0  0  0
   37.2380   33.0030   39.7590 N   0  0  0  0  0  0  0  0  0  0  0  0
   37.4560   31.7200   40.0230 C   0  0  0  0  0  0  0  0  0  0  0  0
   38.5590   31.3140   40.6750 N   0  0  0  0  0  0  0  0  0  0  0  0
   40.0190   34.2590   41.1480 H   0  0  0  0  0  0  0  0  0  0  0  0
   38.0190   34.9840   39.9670 H   0  0  0  0  0  0  0  0  0  0  0  0
   37.6660   31.0290   37.0780 Br  0  0  0  0  0  0  0  0  0  0  0  0
   36.4490   30.2290   38.3040 C   0  0  0  0  0  0  0  0  0  0  0  0
   36.5100   30.6870   39.6180 C   0  0  0  0  0  0  0  0  0  0  0  0
   35.6130   30.0940   40.5090 C   0  0  0  0  0  0  0  0  0  0  0  0
   35.6190   30.4160   41.5520 H   0  0  0  0  0  0  0  0  0  0  0  0
   34.7530   29.1330   40.0700 C   0  0  0  0  0  0  0  0  0  0  0  0
   34.0360   28.6400   40.7210 H   0  0  0  0  0  0  0  0  0  0  0  0
   34.7150   28.7030   38.7730 C   0  0  0  0  0  3  0  0  0  0  0  0
   35.5860   29.2580   37.8400 C   0  0  0  0  0  3  0  0  0  0  0  0
  2  1  2  1  0  0  0
  2  5  1  0  0  0  0
  3  2  1  0  0  0  0
  4  3  1  0  0  0  0
  6 14  1  0  0  0  0
  7  5  1  0  0  0  0
  7  6  2  0  0  0  0
  8  7  1  0  0  0  0
  9  8  2  0  0  0  0
  9 10  1  0  0  0  0
 10 11  2  0  0  0  0
 11  6  1  0  0  0  0
 12  8  1  0  0  0  0
 13 10  1  0  0  0  0
 14 17  1  0  0  0  0
 14 16  1  0  0  0  0
 15 14  1  0  0  0  0
 17 19  1  0  0  0  0
 17 20  1  0  0  0  0
 18 17  1  0  0  0  0
 21  2  1  0  0  0  0
 22 21  1  0  0  0  0
 23 22  1  0  0  0  0
 23 28  1  0  0  0  0
 24 23  2  0  0  0  0
 25 26  2  0  0  0  0
 25 24  1  0  0  0  0
 26 27  1  0  0  0  0
 27 22  2  0  0  0  0
 29 24  1  0  0  0  0
 30 31  1  0  0  0  0
 31 32  1  0  0  0  0
 32 26  1  0  0  0  0
 32 33  2  0  0  0  0
 33 34  1  0  0  0  0
 35 33  1  0  0  0  0
 35 36  1  0  0  0  0
 37 35  2  0  0  0  0
 38 31  2  0  0  0  0
 38 37  1  0  0  0  0
M  END
>  <minimizedAffinity>
-5.57995129

$$$$

 OpenBabel03252500593D

 38 40  0  0  0  0  0  0  0  0999 V2000
   37.1310   32.5160   38.2650 O   0  0  0  0  0  0  0  0  0  0  0  0
   37.2090   31.3940   39.2960 P   0  0  1  0  0  0  0  0  0  0  0  0
   36.6280   31.9810   40.7670 O   0  0  0  0  0  0  0  0  0  0  0  0
   36.6640   32.9650   40.8240 H   0  0  0  0  0  0  0  0  0  0  0  0
   36.2130   30.1200   38.8150 O   0  0  0  0  0  0  0  0  0  0  0  0
   35.1540   28.7440   37.2310 C   0  0  0  0  0  0  0  0  0  0  0  0
   36.3010   29.3930   37.6300 C   0  0  0  0  0  0  0  0  0  0  0  0
   37.4440   29.2760   36.8340 C   0  0  0  0  0  0  0  0  0  0  0  0
   37.3600   28.5310   35.7130 N   0  0  0  0  0  0  0  0  0  0  0  0
   36.2310   27.9050   35.3410 C   0  0  0  0  0  0  0  0  0  0  0  0
   35.1380   28.0120   36.0970 N   0  0  0  0  0  0  0  0  0  0  0  0
   38.3120   29.7990   37.1850 H   0  0  0  0  0  0  0  0  0  0  0  0
   36.2890   27.3380   34.4240 H   0  0  0  0  0  0  0  0  0  0  0  0
   33.9280   28.8240   38.0140 C   0  0  0  0  0  0  0  0  0  0  0  0
   34.0230   29.6380   38.7610 H   0  0  0  0  0  0  0  0  0  0  0  0
   33.7130   27.9080   38.5760 H   0  0  0  0  0  0  0  0  0  0  0  0
   32.7760   29.1090   37.1010 C   0  0  0  0  0  0  0  0  0  0  0  0
   32.3200   30.0850   37.3510 H   0  0  0  0  0  0  0  0  0  0  0  0
   33.1030   29.1620   36.0410 H   0  0  0  0  0  0  0  0  0  0  0  0
   32.0110   28.2880   37.1110 H   0  0  0  0  0  0  0  0  0  0  0  0
   38.8270   30.9310   39.5190 O   0  0  0  0  0  0  0  0  0  0  0  0
   39.1100   30.0090   40.5230 C   0  0  0  0  0  0  0  0  0  0  0  0
   39.8650   30.4630   41.5950 C   0  0  0  0  0  0  0  0  0  0  0  0
   40.2040   29.6150   42.6580 C   0  0  0  0  0  0  0  0  0  0  0  0
   39.7690   28.3230   42.6100 N   0  0  0  0  0  0  0  0  0  0  0  0
   39.0470   27.9040   41.5780 C   0  0  0  0  0  0  0  0  0  0  0  0
   38.7280   28.7250   40.5640 N   0  0  0  0  0  0  0  0  0  0  0  0
   40.2120   31.4980   41.6290 H   0  0  0  0  0  0  0  0  0  0  0  0
   40.7850   30.0020   43.4610 H   0  0  0  0  0  0  0  0  0  0  0  0
   36.5870   27.4190   43.2830 Br  0  0  0  0  0  0  0  0  0  0  0  0
   37.4440   26.1060   42.2030 C   0  0  0  0  0  0  0  0  0  0  0  0
   38.5640   26.5300   41.4930 C   0  0  0  0  0  0  0  0  0  0  0  0
   39.1860   25.5600   40.7040 C   0  0  0  0  0  0  0  0  0  0  0  0
   40.0690   25.8390   40.1270 H   0  0  0  0  0  0  0  0  0  0  0  0
   38.6870   24.2920   40.6660 C   0  0  0  0  0  0  0  0  0  0  0  0
   39.1310   23.5000   40.0690 H   0  0  0  0  0  0  0  0  0  0  0  0
   37.5840   23.9040   41.3740 C   0  0  0  0  0  3  0  0  0  0  0  0
   36.9230   24.8290   42.1780 C   0  0  0  0  0  3  0  0  0  0  0  0
  2  1  2  6  0  0  0
  2 21  1  0  0  0  0
  2  3  1  0  0  0  0
  3  4  1  0  0  0  0
  5  2  1  0  0  0  0
  6  7  1  0  0  0  0
  6 14  1  0  0  0  0
  7  5  1  0  0  0  0
  8 12  1  0  0  0  0
  8  7  2  0  0  0  0
  9  8  1  0  0  0  0
 10  9  2  0  0  0  0
 10 11  1  0  0  0  0
 11  6  2  0  0  0  0
 13 10  1  0  0  0  0
 14 16  1  0  0  0  0
 14 15  1  0  0  0  0
 17 20  1  0  0  0  0
 17 18  1  0  0  0  0
 17 14  1  0  0  0  0
 19 17  1  0  0  0  0
 21 22  1  0  0  0  0
 22 27  2  0  0  0  0
 22 23  1  0  0  0  0
 23 28  1  0  0  0  0
 23 24  2  0  0  0  0
 24 29  1  0  0  0  0
 25 24  1  0  0  0  0
 26 25  2  0  0  0  0
 27 26  1  0  0  0  0
 31 30  1  0  0  0  0
 32 26  1  0  0  0  0
 32 31  2  0  0  0  0
 33 32  1  0  0  0  0
 34 33  1  0  0  0  0
 35 33  2  0  0  0  0
 35 37  1  0  0  0  0
 36 35  1  0  0  0  0
 37 38  2  0  0  0  0
 38 31  1  0  0  0  0
M  END
>  <minimizedAffinity>
-5.50445366

$$$$

 OpenBabel03252500593D

 38 40  0  0  0  0  0  0  0  0999 V2000
   38.0700   27.5680   41.2220 O   0  0  0  0  0  0  0  0  0  0  0  0
   37.9990   28.1070   42.6470 P   0  0  1  0  0  0  0  0  0  0  0  0
   36.4150   27.9320   43.2030 O   0  0  0  0  0  0  0  0  0  0  0  0
   35.7610   27.8540   42.4690 H   0  0  0  0  0  0  0  0  0  0  0  0
   39.0030   27.1890   43.6440 O   0  0  0  0  0  0  0  0  0  0  0  0
   40.6230   25.5440   43.2030 C   0  0  0  0  0  0  0  0  0  0  0  0
   40.3410   26.8740   43.4180 C   0  0  0  0  0  0  0  0  0  0  0  0
   41.3970   27.7900   43.3960 C   0  0  0  0  0  0  0  0  0  0  0  0
   42.6380   27.3190   43.1620 N   0  0  0  0  0  0  0  0  0  0  0  0
   42.8920   26.0160   42.9540 C   0  0  0  0  0  0  0  0  0  0  0  0
   41.8900   25.1370   42.9740 N   0  0  0  0  0  0  0  0  0  0  0  0
   41.1290   28.8140   43.5690 H   0  0  0  0  0  0  0  0  0  0  0  0
   43.9270   25.7620   42.7790 H   0  0  0  0  0  0  0  0  0  0  0  0
   39.5700   24.5360   43.2120 C   0  0  0  0  0  0  0  0  0  0  0  0
   38.6850   24.9370   43.7470 H   0  0  0  0  0  0  0  0  0  0  0  0
   39.8580   23.6150   43.7300 H   0  0  0  0  0  0  0  0  0  0  0  0
   39.1970   24.1980   41.8020 C   0  0  0  0  0  0  0  0  0  0  0  0
   38.1420   24.4710   41.6070 H   0  0  0  0  0  0  0  0  0  0  0  0
   39.8200   24.7580   41.0720 H   0  0  0  0  0  0  0  0  0  0  0  0
   39.3890   23.1200   41.5570 H   0  0  0  0  0  0  0  0  0  0  0  0
   38.3780   29.7620   42.6550 O   0  0  0  0  0  0  0  0  0  0  0  0
   38.2040   30.4770   41.4740 C   0  0  0  0  0  0  0  0  0  0  0  0
   36.8970   30.7390   41.0870 C   0  0  0  0  0  0  0  0  0  0  0  0
   36.6130   31.4510   39.9150 C   0  0  0  0  0  0  0  0  0  0  0  0
   37.6630   31.8830   39.1570 N   0  0  0  0  0  0  0  0  0  0  0  0
   38.9070   31.6240   39.5400 C   0  0  0  0  0  0  0  0  0  0  0  0
   39.1680   30.9400   40.6670 N   0  0  0  0  0  0  0  0  0  0  0  0
   36.0590   30.3910   41.6960 H   0  0  0  0  0  0  0  0  0  0  0  0
   35.5970   31.6310   39.6540 H   0  0  0  0  0  0  0  0  0  0  0  0
   39.7980   34.4310   40.2620 Br  0  0  0  0  0  0  0  0  0  0  0  0
   40.6140   33.3320   38.9390 C   0  0  0  0  0  0  0  0  0  0  0  0
   40.0540   32.0700   38.7570 C   0  0  0  0  0  0  0  0  0  0  0  0
   40.6600   31.2710   37.7840 C   0  0  0  0  0  0  0  0  0  0  0  0
   40.2600   30.2730   37.6010 H   0  0  0  0  0  0  0  0  0  0  0  0
   41.7290   31.7450   37.0850 C   0  0  0  0  0  0  0  0  0  0  0  0
   42.2370   31.1650   36.3190 H   0  0  0  0  0  0  0  0  0  0  0  0
   42.2590   32.9890   37.2850 C   0  0  0  0  0  3  0  0  0  0  0  0
   41.6960   33.8290   38.2420 C   0  0  0  0  0  3  0  0  0  0  0  0
  2  1  2  6  0  0  0
  2 21  1  0  0  0  0
  2  3  1  0  0  0  0
  2  5  1  0  0  0  0
  4  3  1  0  0  0  0
  6 14  1  0  0  0  0
  6  7  1  0  0  0  0
  7  5  1  0  0  0  0
  8  7  2  0  0  0  0
  8 12  1  0  0  0  0
  9  8  1  0  0  0  0
 10 11  1  0  0  0  0
 10  9  2  0  0  0  0
 11  6  2  0  0  0  0
 13 10  1  0  0  0  0
 14 16  1  0  0  0  0
 14 15  1  0  0  0  0
 17 14  1  0  0  0  0
 18 17  1  0  0  0  0
 19 17  1  0  0  0  0
 20 17  1  0  0  0  0
 22 21  1  0  0  0  0
 23 22  1  0  0  0  0
 23 28  1  0  0  0  0
 24 23  2  0  0  0  0
 25 26  2  0  0  0  0
 25 24  1  0  0  0  0
 26 27  1  0  0  0  0
 27 22  2  0  0  0  0
 29 24  1  0  0  0  0
 31 30  1  0  0  0  0
 32 31  1  0  0  0  0
 32 26  1  0  0  0  0
 33 32  2  0  0  0  0
 34 33  1  0  0  0  0
 35 37  2  0  0  0  0
 35 33  1  0  0  0  0
 36 35  1  0  0  0  0
 37 38  1  0  0  0  0
 38 31  2  0  0  0  0
M  END
>  <minimizedAffinity>
-5.50125456

$$$$

 OpenBabel03252500593D

 38 40  0  0  0  0  0  0  0  0999 V2000
   35.4300   29.3780   36.0050 O   0  0  0  0  0  0  0  0  0  0  0  0
   36.8550   28.9730   36.3680 P   0  0  1  0  0  0  0  0  0  0  0  0
   37.6380   28.4660   34.9620 O   0  0  0  0  0  0  0  0  0  0  0  0
   37.0080   28.1900   34.2550 H   0  0  0  0  0  0  0  0  0  0  0  0
   37.6830   30.3150   36.9680 O   0  0  0  0  0  0  0  0  0  0  0  0
   38.7640   31.1530   38.8790 C   0  0  0  0  0  0  0  0  0  0  0  0
   38.8020   30.3030   37.7970 C   0  0  0  0  0  0  0  0  0  0  0  0
   39.9380   29.5090   37.6140 C   0  0  0  0  0  0  0  0  0  0  0  0
   40.9370   29.6190   38.5120 N   0  0  0  0  0  0  0  0  0  0  0  0
   40.8800   30.4550   39.5630 C   0  0  0  0  0  0  0  0  0  0  0  0
   39.8000   31.2150   39.7420 N   0  0  0  0  0  0  0  0  0  0  0  0
   39.9220   28.8630   36.7580 H   0  0  0  0  0  0  0  0  0  0  0  0
   41.7440   30.4530   40.2110 H   0  0  0  0  0  0  0  0  0  0  0  0
   37.6110   32.0080   39.1290 C   0  0  0  0  0  0  0  0  0  0  0  0
   36.7540   31.6540   38.5210 H   0  0  0  0  0  0  0  0  0  0  0  0
   37.7800   33.0550   38.8500 H   0  0  0  0  0  0  0  0  0  0  0  0
   37.2570   31.9490   40.5830 C   0  0  0  0  0  0  0  0  0  0  0  0
   36.2450   31.5210   40.7160 H   0  0  0  0  0  0  0  0  0  0  0  0
   37.9630   31.3020   41.1460 H   0  0  0  0  0  0  0  0  0  0  0  0
   37.3440   32.9500   41.0840 H   0  0  0  0  0  0  0  0  0  0  0  0
   36.8230   27.6660   37.4510 O   0  0  0  0  0  0  0  0  0  0  0  0
   36.7050   27.9470   38.8090 C   0  0  0  0  0  0  0  0  0  0  0  0
   35.5360   28.5710   39.2200 C   0  0  0  0  0  0  0  0  0  0  0  0
   35.3190   28.8980   40.5650 C   0  0  0  0  0  0  0  0  0  0  0  0
   36.2940   28.5840   41.4670 N   0  0  0  0  0  0  0  0  0  0  0  0
   37.4060   27.9860   41.0580 C   0  0  0  0  0  0  0  0  0  0  0  0
   37.6050   27.6780   39.7650 N   0  0  0  0  0  0  0  0  0  0  0  0
   34.7580   28.8220   38.4960 H   0  0  0  0  0  0  0  0  0  0  0  0
   34.4080   29.3760   40.8390 H   0  0  0  0  0  0  0  0  0  0  0  0
   37.1530   25.1530   42.1080 Br  0  0  0  0  0  0  0  0  0  0  0  0
   38.5320   26.3770   42.5860 C   0  0  0  0  0  0  0  0  0  0  0  0
   38.4700   27.6350   41.9920 C   0  0  0  0  0  0  0  0  0  0  0  0
   39.4850   28.5250   42.3490 C   0  0  0  0  0  0  0  0  0  0  0  0
   39.4840   29.5250   41.9130 H   0  0  0  0  0  0  0  0  0  0  0  0
   40.4520   28.1370   43.2270 C   0  0  0  0  0  0  0  0  0  0  0  0
   41.2640   28.7890   43.5380 H   0  0  0  0  0  0  0  0  0  0  0  0
   40.4870   26.8940   43.7950 C   0  0  0  0  0  3  0  0  0  0  0  0
   39.5010   25.9650   43.4760 C   0  0  0  0  0  3  0  0  0  0  0  0
  2  1  2  6  0  0  0
  2  5  1  0  0  0  0
  2 21  1  0  0  0  0
  3  2  1  0  0  0  0
  4  3  1  0  0  0  0
  5  7  1  0  0  0  0
  6 14  1  0  0  0  0
  6 11  1  0  0  0  0
  7  6  2  0  0  0  0
  8  7  1  0  0  0  0
  8  9  2  0  0  0  0
  9 10  1  0  0  0  0
 10 11  2  0  0  0  0
 10 13  1  0  0  0  0
 12  8  1  0  0  0  0
 14 17  1  0  0  0  0
 15 14  1  0  0  0  0
 16 14  1  0  0  0  0
 17 18  1  0  0  0  0
 17 20  1  0  0  0  0
 17 19  1  0  0  0  0
 21 22  1  0  0  0  0
 22 23  2  0  0  0  0
 22 27  1  0  0  0  0
 23 24  1  0  0  0  0
 24 29  1  0  0  0  0
 24 25  2  0  0  0  0
 26 25  1  0  0  0  0
 26 32  1  0  0  0  0
 27 26  2  0  0  0  0
 28 23  1  0  0  0  0
 30 31  1  0  0  0  0
 31 38  1  0  0  0  0
 32 33  1  0  0  0  0
 32 31  2  0  0  0  0
 33 35  2  0  0  0  0
 34 33  1  0  0  0  0
 35 36  1  0  0  0  0
 35 37  1  0  0  0  0
 38 37  2  0  0  0  0
M  END
>  <minimizedAffinity>
-5.39764023

$$$$
