
 OpenBabel03252501553D

 21 22  0  0  0  0  0  0  0  0999 V2000
   44.6270   35.4110   45.1110 C   0  0  0  0  0  0  0  0  0  0  0  0
   45.2710   35.4360   43.8570 C   0  0  0  0  0  0  0  0  0  0  0  0
   46.2530   34.4560   43.6240 C   0  0  0  0  0  0  0  0  0  0  0  0
   46.5070   33.5640   44.6130 N   0  0  0  0  0  0  0  0  0  0  0  0
   45.8760   33.5660   45.7960 C   0  0  0  0  0  0  0  0  0  0  0  0
   44.9150   34.4960   46.0730 N   0  0  0  0  0  0  0  0  0  0  0  0
   43.8560   36.0960   45.4350 H   0  0  0  0  0  0  0  0  0  0  0  0
   46.1790   32.7930   46.4970 H   0  0  0  0  0  0  0  0  0  0  0  0
   44.8710   32.6900   41.4560 Br  0  0  0  0  0  0  0  0  0  0  0  0
   46.4250   33.7810   41.2310 C   0  0  0  0  0  0  0  0  0  0  0  0
   46.8990   34.5080   42.3290 C   0  0  0  0  0  0  0  0  0  0  0  0
   48.0400   35.2990   42.1240 C   0  0  0  0  0  0  0  0  0  0  0  0
   48.3820   35.8510   43.0050 H   0  0  0  0  0  0  0  0  0  0  0  0
   48.7290   35.4070   40.9120 C   0  0  0  0  0  0  0  0  0  0  0  0
   49.6010   36.0240   40.7920 H   0  0  0  0  0  0  0  0  0  0  0  0
   48.1340   34.6340   39.9490 C   0  0  0  0  0  3  0  0  0  0  0  0
   47.0400   33.8210   39.9740 C   0  0  0  0  0  3  0  0  0  0  0  0
   44.8280   36.4990   42.9340 C   0  0  0  0  0  0  0  0  0  0  0  0
   45.0340   36.2420   41.8710 H   0  0  0  0  0  0  0  0  0  0  0  0
   45.3110   37.4920   43.1250 H   0  0  0  0  0  0  0  0  0  0  0  0
   43.7060   36.6010   43.0360 H   0  0  0  0  0  0  0  0  0  0  0  0
  1  7  1  0  0  0  0
  1  6  1  0  0  0  0
  2  1  2  0  0  0  0
  3  2  1  0  0  0  0
  3  4  2  0  0  0  0
  4  5  1  0  0  0  0
  5  6  2  0  0  0  0
  5  8  1  0  0  0  0
 10  9  1  0  0  0  0
 10 11  1  0  0  0  0
 11  3  1  0  0  0  0
 12 11  2  0  0  0  0
 12 13  1  0  0  0  0
 14 12  1  0  0  0  0
 15 14  1  0  0  0  0
 16 17  1  0  0  0  0
 16 14  2  0  0  0  0
 17 10  2  0  0  0  0
 18 21  1  0  0  0  0
 18 20  1  0  0  0  0
 18  2  1  0  0  0  0
 19 18  1  0  0  0  0
M  END
>  <minimizedAffinity>
-5.10868549

>  <minimizedRMSD>
2.11115551

$$$$
