
 OpenBabel03242513323D

 37 40  0  0  0  0  0  0  0  0999 V2000
   39.8970   32.8600   40.1030 C   0  0  0  0  0  0  0  0  0  0  0  0
   41.2060   33.1330   39.7170 C   0  0  0  0  0  0  0  0  0  0  0  0
   41.5620   32.8220   38.4520 C   0  0  0  0  0  0  0  0  0  0  0  0
   40.6790   32.2530   37.5560 C   0  0  0  0  0  0  0  0  0  0  0  0
   39.3860   31.9840   37.9450 C   0  0  0  0  0  0  0  0  0  0  0  0
   38.9690   32.2870   39.2430 C   0  0  0  0  0  0  0  0  0  0  0  0
   42.5940   33.0500   38.1820 H   0  0  0  0  0  0  0  0  0  0  0  0
   41.0730   32.0470   36.5750 H   0  0  0  0  0  0  0  0  0  0  0  0
   38.6960   31.5350   37.2320 H   0  0  0  0  0  0  0  0  0  0  0  0
   43.8920   33.6720   42.3100 C   0  0  0  0  0  0  0  0  0  0  0  0
   43.0680   33.0530   41.3640 C   0  0  0  0  0  0  0  0  0  0  0  0
   42.0820   33.7300   40.7020 C   0  0  0  0  0  0  0  0  0  0  0  0
   41.9760   35.0510   41.0440 N   0  0  0  0  0  0  0  0  0  0  0  0
   42.7640   35.6610   41.9540 C   0  0  0  0  0  0  0  0  0  0  0  0
   43.7250   34.9620   42.5880 N   0  0  0  0  0  0  0  0  0  0  0  0
   44.6650   33.1070   42.8200 H   0  0  0  0  0  0  0  0  0  0  0  0
   43.1980   31.9980   41.1340 H   0  0  0  0  0  0  0  0  0  0  0  0
   42.5090   36.7190   42.0750 H   0  0  0  0  0  0  0  0  0  0  0  0
   39.4700   33.1560   41.3850 O   0  0  0  0  0  0  0  0  0  0  0  0
   38.5390   33.5530   41.5220 H   0  0  0  0  0  0  0  0  0  0  0  0
   37.6930   32.0350   39.6640 O   0  0  0  0  0  0  0  0  0  0  0  0
   37.1810   30.8220   39.9910 C   0  0  0  0  0  0  0  0  0  0  0  0
   35.8870   30.4480   40.2760 C   0  0  0  0  0  0  0  0  0  0  0  0
   35.6230   29.1520   40.5790 C   0  0  0  0  0  0  0  0  0  0  0  0
   36.7280   28.2610   40.5800 C   0  0  0  0  0  0  0  0  0  0  0  0
   38.1300   29.3110   40.1410 S   0  0  0  0  0  0  0  0  0  0  0  0
   35.1170   31.1960   40.2490 H   0  0  0  0  0  0  0  0  0  0  0  0
   34.6660   28.7310   40.8180 H   0  0  0  0  0  0  0  0  0  0  0  0
   37.1720   27.7490   43.5900 Br  0  0  0  0  0  0  0  0  0  0  0  0
   36.9960   26.4940   42.1750 C   0  0  0  0  0  0  0  0  0  0  0  0
   36.7990   26.8340   40.8560 C   0  0  0  0  0  0  0  0  0  0  0  0
   36.6650   26.0130   39.7880 C   0  0  0  0  0  0  0  0  0  0  0  0
   36.5110   26.3530   38.7790 H   0  0  0  0  0  0  0  0  0  0  0  0
   36.7340   24.6400   40.0520 C   0  0  0  0  0  0  0  0  0  0  0  0
   36.6380   23.9160   39.2830 H   0  0  0  0  0  0  0  0  0  0  0  0
   36.9320   24.2070   41.3680 C   0  0  0  0  0  3  0  0  0  0  0  0
   37.0630   25.1170   42.4230 C   0  0  0  0  0  3  0  0  0  0  0  0
  1 19  1  0  0  0  0
  2  1  1  0  0  0  0
  2 12  1  0  0  0  0
  3  2  2  0  0  0  0
  4  5  2  0  0  0  0
  4  3  1  0  0  0  0
  5  6  1  0  0  0  0
  6 21  1  0  0  0  0
  6  1  2  0  0  0  0
  7  3  1  0  0  0  0
  8  4  1  0  0  0  0
  9  5  1  0  0  0  0
 10 15  1  0  0  0  0
 10 16  1  0  0  0  0
 11 10  2  0  0  0  0
 12 13  2  0  0  0  0
 12 11  1  0  0  0  0
 13 14  1  0  0  0  0
 14 18  1  0  0  0  0
 14 15  2  0  0  0  0
 17 11  1  0  0  0  0
 19 20  1  0  0  0  0
 21 22  1  0  0  0  0
 22 26  1  0  0  0  0
 22 23  2  0  0  0  0
 23 24  1  0  0  0  0
 24 25  2  0  0  0  0
 24 28  1  0  0  0  0
 25 31  1  0  0  0  0
 26 25  1  0  0  0  0
 27 23  1  0  0  0  0
 30 37  1  0  0  0  0
 30 29  1  0  0  0  0
 31 30  2  0  0  0  0
 32 34  2  0  0  0  0
 32 31  1  0  0  0  0
 33 32  1  0  0  0  0
 34 36  1  0  0  0  0
 35 34  1  0  0  0  0
 36 37  2  0  0  0  0
M  END
>  <minimizedAffinity>
-6.6000123

$$$$

 OpenBabel03242513323D

 37 40  0  0  0  0  0  0  0  0999 V2000
   37.6090   26.9320   41.4720 C   0  0  0  0  0  0  0  0  0  0  0  0
   38.4090   25.8620   41.8620 C   0  0  0  0  0  0  0  0  0  0  0  0
   39.0600   25.9670   43.0400 C   0  0  0  0  0  0  0  0  0  0  0  0
   38.9530   27.0830   43.8460 C   0  0  0  0  0  0  0  0  0  0  0  0
   38.1600   28.1380   43.4540 C   0  0  0  0  0  0  0  0  0  0  0  0
   37.4650   28.0780   42.2430 C   0  0  0  0  0  0  0  0  0  0  0  0
   39.6780   25.1120   43.3160 H   0  0  0  0  0  0  0  0  0  0  0  0
   39.5170   27.0560   44.7630 H   0  0  0  0  0  0  0  0  0  0  0  0
   38.0800   29.0130   44.0950 H   0  0  0  0  0  0  0  0  0  0  0  0
   37.9860   22.4380   40.3360 C   0  0  0  0  0  0  0  0  0  0  0  0
   37.8900   23.5140   41.2250 C   0  0  0  0  0  0  0  0  0  0  0  0
   38.4800   24.7220   40.9740 C   0  0  0  0  0  0  0  0  0  0  0  0
   39.1650   24.7820   39.7910 N   0  0  0  0  0  0  0  0  0  0  0  0
   39.2650   23.7510   38.9240 C   0  0  0  0  0  0  0  0  0  0  0  0
   38.6710   22.5760   39.2040 N   0  0  0  0  0  0  0  0  0  0  0  0
   37.5070   21.4920   40.5640 H   0  0  0  0  0  0  0  0  0  0  0  0
   37.3330   23.4080   42.1530 H   0  0  0  0  0  0  0  0  0  0  0  0
   39.8570   24.0150   38.0410 H   0  0  0  0  0  0  0  0  0  0  0  0
   36.9150   26.8850   40.2770 O   0  0  0  0  0  0  0  0  0  0  0  0
   35.9590   27.2440   40.2390 H   0  0  0  0  0  0  0  0  0  0  0  0
   36.6680   29.1050   41.8210 O   0  0  0  0  0  0  0  0  0  0  0  0
   37.0840   30.2460   41.2170 C   0  0  0  0  0  0  0  0  0  0  0  0
   36.4330   31.0720   40.3280 C   0  0  0  0  0  0  0  0  0  0  0  0
   37.0700   32.1740   39.8580 C   0  0  0  0  0  0  0  0  0  0  0  0
   38.3900   32.3950   40.3300 C   0  0  0  0  0  0  0  0  0  0  0  0
   38.6880   31.0070   41.4460 S   0  0  0  0  0  0  0  0  0  0  0  0
   35.4320   30.8220   40.0310 H   0  0  0  0  0  0  0  0  0  0  0  0
   36.6800   32.8950   39.1670 H   0  0  0  0  0  0  0  0  0  0  0  0
   40.5420   31.4190   38.3440 Br  0  0  0  0  0  0  0  0  0  0  0  0
   40.3470   33.1250   39.1550 C   0  0  0  0  0  0  0  0  0  0  0  0
   39.3410   33.4560   40.0350 C   0  0  0  0  0  0  0  0  0  0  0  0
   39.1260   34.6390   40.6580 C   0  0  0  0  0  0  0  0  0  0  0  0
   38.3120   34.8250   41.3360 H   0  0  0  0  0  0  0  0  0  0  0  0
   40.0390   35.6610   40.3760 C   0  0  0  0  0  0  0  0  0  0  0  0
   39.9560   36.6240   40.8120 H   0  0  0  0  0  0  0  0  0  0  0  0
   41.0940   35.4100   39.4900 C   0  0  0  0  0  3  0  0  0  0  0  0
   41.2520   34.1580   38.8830 C   0  0  0  0  0  3  0  0  0  0  0  0
  1  2  2  0  0  0  0
  1  6  1  0  0  0  0
  2  3  1  0  0  0  0
  3  7  1  0  0  0  0
  3  4  2  0  0  0  0
  4  8  1  0  0  0  0
  5  4  1  0  0  0  0
  5  9  1  0  0  0  0
  6  5  2  0  0  0  0
 10 16  1  0  0  0  0
 10 11  1  0  0  0  0
 11 17  1  0  0  0  0
 12 11  2  0  0  0  0
 12  2  1  0  0  0  0
 13 12  1  0  0  0  0
 14 15  1  0  0  0  0
 14 13  2  0  0  0  0
 15 10  2  0  0  0  0
 18 14  1  0  0  0  0
 19  1  1  0  0  0  0
 20 19  1  0  0  0  0
 21  6  1  0  0  0  0
 22 26  1  0  0  0  0
 22 21  1  0  0  0  0
 23 22  2  0  0  0  0
 24 23  1  0  0  0  0
 24 25  2  0  0  0  0
 25 26  1  0  0  0  0
 27 23  1  0  0  0  0
 28 24  1  0  0  0  0
 29 30  1  0  0  0  0
 30 31  1  0  0  0  0
 31 25  1  0  0  0  0
 31 32  2  0  0  0  0
 32 33  1  0  0  0  0
 34 32  1  0  0  0  0
 34 35  1  0  0  0  0
 36 34  2  0  0  0  0
 37 30  2  0  0  0  0
 37 36  1  0  0  0  0
M  END
>  <minimizedAffinity>
-6.55560493

$$$$

 OpenBabel03242513323D

 37 40  0  0  0  0  0  0  0  0999 V2000
   36.9990   27.9270   41.2720 C   0  0  0  0  0  0  0  0  0  0  0  0
   37.4100   26.6580   41.6670 C   0  0  0  0  0  0  0  0  0  0  0  0
   37.9610   26.5330   42.8930 C   0  0  0  0  0  0  0  0  0  0  0  0
   38.1220   27.6090   43.7430 C   0  0  0  0  0  0  0  0  0  0  0  0
   37.7140   28.8620   43.3460 C   0  0  0  0  0  0  0  0  0  0  0  0
   37.1370   29.0440   42.0870 C   0  0  0  0  0  0  0  0  0  0  0  0
   38.2720   25.5250   43.1700 H   0  0  0  0  0  0  0  0  0  0  0  0
   38.5740   27.3910   44.6960 H   0  0  0  0  0  0  0  0  0  0  0  0
   37.8440   29.7050   44.0220 H   0  0  0  0  0  0  0  0  0  0  0  0
   36.4180   23.3720   40.1000 C   0  0  0  0  0  0  0  0  0  0  0  0
   36.5840   24.3960   41.0380 C   0  0  0  0  0  0  0  0  0  0  0  0
   37.2140   25.5710   40.7310 C   0  0  0  0  0  0  0  0  0  0  0  0
   37.6610   25.6530   39.4400 N   0  0  0  0  0  0  0  0  0  0  0  0
   37.5070   24.6720   38.5250 C   0  0  0  0  0  0  0  0  0  0  0  0
   36.8820   23.5280   38.8630 N   0  0  0  0  0  0  0  0  0  0  0  0
   35.9150   22.4520   40.3740 H   0  0  0  0  0  0  0  0  0  0  0  0
   36.2090   24.2750   42.0510 H   0  0  0  0  0  0  0  0  0  0  0  0
   37.9380   24.9440   37.5560 H   0  0  0  0  0  0  0  0  0  0  0  0
   36.4260   28.1210   40.0290 O   0  0  0  0  0  0  0  0  0  0  0  0
   35.6260   28.7500   39.9390 H   0  0  0  0  0  0  0  0  0  0  0  0
   36.7200   30.2730   41.6590 O   0  0  0  0  0  0  0  0  0  0  0  0
   37.3750   31.0860   40.7940 C   0  0  0  0  0  0  0  0  0  0  0  0
   36.9020   31.8250   39.7320 C   0  0  0  0  0  0  0  0  0  0  0  0
   37.7700   32.5730   39.0050 C   0  0  0  0  0  0  0  0  0  0  0  0
   39.1320   32.5350   39.4050 C   0  0  0  0  0  0  0  0  0  0  0  0
   39.1340   31.4200   40.8250 S   0  0  0  0  0  0  0  0  0  0  0  0
   35.8530   31.7900   39.5070 H   0  0  0  0  0  0  0  0  0  0  0  0
   37.5340   33.1900   38.1600 H   0  0  0  0  0  0  0  0  0  0  0  0
   39.5510   35.2840   40.7440 Br  0  0  0  0  0  0  0  0  0  0  0  0
   40.5810   34.4430   39.3880 C   0  0  0  0  0  0  0  0  0  0  0  0
   40.3030   33.2030   38.8580 C   0  0  0  0  0  0  0  0  0  0  0  0
   40.9770   32.5310   37.8960 C   0  0  0  0  0  0  0  0  0  0  0  0
   40.6990   31.5590   37.5300 H   0  0  0  0  0  0  0  0  0  0  0  0
   42.1030   33.1720   37.3680 C   0  0  0  0  0  0  0  0  0  0  0  0
   42.6990   32.7270   36.6110 H   0  0  0  0  0  0  0  0  0  0  0  0
   42.4590   34.4370   37.8520 C   0  0  0  0  0  3  0  0  0  0  0  0
   41.7110   35.0710   38.8500 C   0  0  0  0  0  3  0  0  0  0  0  0
  1  2  2  0  0  0  0
  1  6  1  0  0  0  0
  2  3  1  0  0  0  0
  3  7  1  0  0  0  0
  3  4  2  0  0  0  0
  4  8  1  0  0  0  0
  5  4  1  0  0  0  0
  5  9  1  0  0  0  0
  6  5  2  0  0  0  0
 10 16  1  0  0  0  0
 10 11  1  0  0  0  0
 11 17  1  0  0  0  0
 12 11  2  0  0  0  0
 12  2  1  0  0  0  0
 13 12  1  0  0  0  0
 14 15  1  0  0  0  0
 14 13  2  0  0  0  0
 15 10  2  0  0  0  0
 18 14  1  0  0  0  0
 19  1  1  0  0  0  0
 20 19  1  0  0  0  0
 21  6  1  0  0  0  0
 22 26  1  0  0  0  0
 22 21  1  0  0  0  0
 23 22  2  0  0  0  0
 24 25  2  0  0  0  0
 24 23  1  0  0  0  0
 25 26  1  0  0  0  0
 27 23  1  0  0  0  0
 28 24  1  0  0  0  0
 30 29  1  0  0  0  0
 31 30  1  0  0  0  0
 31 25  1  0  0  0  0
 32 31  2  0  0  0  0
 33 32  1  0  0  0  0
 34 36  2  0  0  0  0
 34 32  1  0  0  0  0
 35 34  1  0  0  0  0
 36 37  1  0  0  0  0
 37 30  2  0  0  0  0
M  END
>  <minimizedAffinity>
-6.5290904

$$$$

 OpenBabel03242513323D

 37 40  0  0  0  0  0  0  0  0999 V2000
   40.0180   32.9850   39.1010 C   0  0  0  0  0  0  0  0  0  0  0  0
   40.7820   33.9830   39.6980 C   0  0  0  0  0  0  0  0  0  0  0  0
   40.1330   34.9110   40.4330 C   0  0  0  0  0  0  0  0  0  0  0  0
   38.7620   34.8920   40.6020 C   0  0  0  0  0  0  0  0  0  0  0  0
   38.0120   33.9020   40.0080 C   0  0  0  0  0  0  0  0  0  0  0  0
   38.6370   32.9190   39.2370 C   0  0  0  0  0  0  0  0  0  0  0  0
   40.7610   35.6780   40.8870 H   0  0  0  0  0  0  0  0  0  0  0  0
   38.3530   35.6820   41.2090 H   0  0  0  0  0  0  0  0  0  0  0  0
   36.9330   33.8950   40.1460 H   0  0  0  0  0  0  0  0  0  0  0  0
   44.5160   33.9230   40.2330 C   0  0  0  0  0  0  0  0  0  0  0  0
   43.1410   33.9580   40.4880 C   0  0  0  0  0  0  0  0  0  0  0  0
   42.2130   33.9480   39.4830 C   0  0  0  0  0  0  0  0  0  0  0  0
   42.7430   33.9010   38.2230 N   0  0  0  0  0  0  0  0  0  0  0  0
   44.0680   33.8660   37.9630 C   0  0  0  0  0  0  0  0  0  0  0  0
   44.9540   33.8780   38.9770 N   0  0  0  0  0  0  0  0  0  0  0  0
   45.2280   33.9330   41.0510 H   0  0  0  0  0  0  0  0  0  0  0  0
   42.7770   33.9950   41.5110 H   0  0  0  0  0  0  0  0  0  0  0  0
   44.2740   33.8310   36.8880 H   0  0  0  0  0  0  0  0  0  0  0  0
   40.6230   32.0050   38.3360 O   0  0  0  0  0  0  0  0  0  0  0  0
   40.3010   31.0380   38.4150 H   0  0  0  0  0  0  0  0  0  0  0  0
   37.9250   31.9210   38.6330 O   0  0  0  0  0  0  0  0  0  0  0  0
   37.4020   30.8280   39.2410 C   0  0  0  0  0  0  0  0  0  0  0  0
   36.1860   30.6500   39.8640 C   0  0  0  0  0  0  0  0  0  0  0  0
   35.8890   29.4420   40.4050 C   0  0  0  0  0  0  0  0  0  0  0  0
   36.8780   28.4300   40.2860 C   0  0  0  0  0  0  0  0  0  0  0  0
   38.2200   29.2420   39.3910 S   0  0  0  0  0  0  0  0  0  0  0  0
   35.5020   31.4770   39.9040 H   0  0  0  0  0  0  0  0  0  0  0  0
   34.9850   29.1720   40.9150 H   0  0  0  0  0  0  0  0  0  0  0  0
   37.5450   28.2790   43.2950 Br  0  0  0  0  0  0  0  0  0  0  0  0
   37.1740   26.8690   42.0780 C   0  0  0  0  0  0  0  0  0  0  0  0
   36.8860   27.0500   40.7440 C   0  0  0  0  0  0  0  0  0  0  0  0
   36.6120   26.1100   39.8090 C   0  0  0  0  0  0  0  0  0  0  0  0
   36.3940   26.3270   38.7790 H   0  0  0  0  0  0  0  0  0  0  0  0
   36.6200   24.7810   40.2480 C   0  0  0  0  0  0  0  0  0  0  0  0
   36.4160   23.9720   39.5930 H   0  0  0  0  0  0  0  0  0  0  0  0
   36.9030   24.5070   41.5920 C   0  0  0  0  0  3  0  0  0  0  0  0
   37.1790   25.5340   42.5020 C   0  0  0  0  0  3  0  0  0  0  0  0
  1  6  2  0  0  0  0
  1  2  1  0  0  0  0
  2  3  2  0  0  0  0
  3  4  1  0  0  0  0
  3  7  1  0  0  0  0
  4  8  1  0  0  0  0
  5  9  1  0  0  0  0
  5  4  2  0  0  0  0
  6  5  1  0  0  0  0
 10 11  1  0  0  0  0
 10 16  1  0  0  0  0
 11 17  1  0  0  0  0
 12  2  1  0  0  0  0
 12 11  2  0  0  0  0
 13 12  1  0  0  0  0
 14 13  2  0  0  0  0
 14 15  1  0  0  0  0
 15 10  2  0  0  0  0
 18 14  1  0  0  0  0
 19 20  1  0  0  0  0
 19  1  1  0  0  0  0
 21  6  1  0  0  0  0
 21 22  1  0  0  0  0
 22 26  1  0  0  0  0
 22 23  2  0  0  0  0
 23 27  1  0  0  0  0
 23 24  1  0  0  0  0
 24 28  1  0  0  0  0
 25 24  2  0  0  0  0
 25 31  1  0  0  0  0
 26 25  1  0  0  0  0
 30 37  1  0  0  0  0
 30 29  1  0  0  0  0
 31 30  2  0  0  0  0
 32 34  2  0  0  0  0
 32 31  1  0  0  0  0
 33 32  1  0  0  0  0
 34 36  1  0  0  0  0
 35 34  1  0  0  0  0
 36 37  2  0  0  0  0
M  END
>  <minimizedAffinity>
-6.40588903

$$$$

 OpenBabel03242513323D

 37 40  0  0  0  0  0  0  0  0999 V2000
   38.8080   31.2160   41.4890 C   0  0  0  0  0  0  0  0  0  0  0  0
   38.2620   32.1850   40.6530 C   0  0  0  0  0  0  0  0  0  0  0  0
   36.9810   32.0200   40.2580 C   0  0  0  0  0  0  0  0  0  0  0  0
   36.2210   30.9370   40.6550 C   0  0  0  0  0  0  0  0  0  0  0  0
   36.7690   29.9810   41.4810 C   0  0  0  0  0  0  0  0  0  0  0  0
   38.0900   30.1080   41.9170 C   0  0  0  0  0  0  0  0  0  0  0  0
   36.5840   32.7970   39.6050 H   0  0  0  0  0  0  0  0  0  0  0  0
   35.2130   30.9080   40.2790 H   0  0  0  0  0  0  0  0  0  0  0  0
   36.1630   29.1320   41.7900 H   0  0  0  0  0  0  0  0  0  0  0  0
   39.6670   35.6490   40.1370 C   0  0  0  0  0  0  0  0  0  0  0  0
   38.8170   34.6070   40.5240 C   0  0  0  0  0  0  0  0  0  0  0  0
   39.1090   33.2950   40.2720 C   0  0  0  0  0  0  0  0  0  0  0  0
   40.2930   33.0960   39.6160 N   0  0  0  0  0  0  0  0  0  0  0  0
   41.1230   34.0910   39.2370 C   0  0  0  0  0  0  0  0  0  0  0  0
   40.8020   35.3720   39.5010 N   0  0  0  0  0  0  0  0  0  0  0  0
   39.4070   36.6790   40.3500 H   0  0  0  0  0  0  0  0  0  0  0  0
   37.8860   34.8260   41.0430 H   0  0  0  0  0  0  0  0  0  0  0  0
   42.0140   33.7100   38.7270 H   0  0  0  0  0  0  0  0  0  0  0  0
   40.1150   31.3290   41.9280 O   0  0  0  0  0  0  0  0  0  0  0  0
   40.3390   31.0900   42.8960 H   0  0  0  0  0  0  0  0  0  0  0  0
   38.6670   29.1800   42.7380 O   0  0  0  0  0  0  0  0  0  0  0  0
   38.8680   27.8700   42.4510 C   0  0  0  0  0  0  0  0  0  0  0  0
   39.5290   26.8920   43.1610 C   0  0  0  0  0  0  0  0  0  0  0  0
   39.5940   25.6350   42.6560 C   0  0  0  0  0  0  0  0  0  0  0  0
   38.9620   25.4190   41.4030 C   0  0  0  0  0  0  0  0  0  0  0  0
   38.2820   27.0370   40.9780 S   0  0  0  0  0  0  0  0  0  0  0  0
   39.9760   27.1520   44.1020 H   0  0  0  0  0  0  0  0  0  0  0  0
   40.0740   24.7870   43.1040 H   0  0  0  0  0  0  0  0  0  0  0  0
   41.0650   25.4110   39.1450 Br  0  0  0  0  0  0  0  0  0  0  0  0
   39.7400   24.1130   39.5510 C   0  0  0  0  0  0  0  0  0  0  0  0
   38.8440   24.2170   40.5920 C   0  0  0  0  0  0  0  0  0  0  0  0
   37.8710   23.3470   40.9530 C   0  0  0  0  0  0  0  0  0  0  0  0
   37.2050   23.4960   41.7830 H   0  0  0  0  0  0  0  0  0  0  0  0
   37.7560   22.1910   40.1730 C   0  0  0  0  0  0  0  0  0  0  0  0
   37.0270   21.4470   40.3750 H   0  0  0  0  0  0  0  0  0  0  0  0
   38.6290   22.0040   39.0940 C   0  0  0  0  0  3  0  0  0  0  0  0
   39.6110   22.9500   38.7810 C   0  0  0  0  0  3  0  0  0  0  0  0
  1  6  1  0  0  0  0
  1 19  1  0  0  0  0
  2  1  2  0  0  0  0
  3  2  1  0  0  0  0
  3  4  2  0  0  0  0
  4  5  1  0  0  0  0
  5  9  1  0  0  0  0
  5  6  2  0  0  0  0
  6 21  1  0  0  0  0
  7  3  1  0  0  0  0
  8  4  1  0  0  0  0
 10 16  1  0  0  0  0
 10 11  1  0  0  0  0
 11 17  1  0  0  0  0
 12 11  2  0  0  0  0
 12  2  1  0  0  0  0
 13 12  1  0  0  0  0
 14 15  1  0  0  0  0
 14 13  2  0  0  0  0
 15 10  2  0  0  0  0
 18 14  1  0  0  0  0
 19 20  1  0  0  0  0
 22 21  1  0  0  0  0
 22 23  2  0  0  0  0
 23 27  1  0  0  0  0
 24 28  1  0  0  0  0
 24 23  1  0  0  0  0
 25 24  2  0  0  0  0
 26 25  1  0  0  0  0
 26 22  1  0  0  0  0
 29 30  1  0  0  0  0
 30 31  1  0  0  0  0
 31 32  2  0  0  0  0
 31 25  1  0  0  0  0
 32 33  1  0  0  0  0
 34 35  1  0  0  0  0
 34 32  1  0  0  0  0
 36 34  2  0  0  0  0
 37 36  1  0  0  0  0
 37 30  2  0  0  0  0
M  END
>  <minimizedAffinity>
-6.23463488

$$$$

 OpenBabel03242513323D

 37 40  0  0  0  0  0  0  0  0999 V2000
   39.2840   31.6100   40.7430 C   0  0  0  0  0  0  0  0  0  0  0  0
   39.2880   32.5300   39.6990 C   0  0  0  0  0  0  0  0  0  0  0  0
   38.1010   32.8430   39.1370 C   0  0  0  0  0  0  0  0  0  0  0  0
   36.9130   32.2850   39.5650 C   0  0  0  0  0  0  0  0  0  0  0  0
   36.9150   31.3750   40.5980 C   0  0  0  0  0  0  0  0  0  0  0  0
   38.1180   31.0180   41.2120 C   0  0  0  0  0  0  0  0  0  0  0  0
   38.1400   33.5660   38.3220 H   0  0  0  0  0  0  0  0  0  0  0  0
   36.0280   32.6080   39.0440 H   0  0  0  0  0  0  0  0  0  0  0  0
   35.9740   30.9400   40.9290 H   0  0  0  0  0  0  0  0  0  0  0  0
   42.2960   33.5790   37.6770 C   0  0  0  0  0  0  0  0  0  0  0  0
   41.0530   33.0360   38.0190 C   0  0  0  0  0  0  0  0  0  0  0  0
   40.5660   33.0780   39.2970 C   0  0  0  0  0  0  0  0  0  0  0  0
   41.3930   33.6920   40.1970 N   0  0  0  0  0  0  0  0  0  0  0  0
   42.5940   34.2210   39.8800 C   0  0  0  0  0  0  0  0  0  0  0  0
   43.0420   34.1610   38.6120 N   0  0  0  0  0  0  0  0  0  0  0  0
   42.6550   33.5300   36.6550 H   0  0  0  0  0  0  0  0  0  0  0  0
   40.4380   32.5580   37.2600 H   0  0  0  0  0  0  0  0  0  0  0  0
   43.0900   34.6640   40.7500 H   0  0  0  0  0  0  0  0  0  0  0  0
   40.4670   31.2480   41.3610 O   0  0  0  0  0  0  0  0  0  0  0  0
   40.4880   31.1360   42.3760 H   0  0  0  0  0  0  0  0  0  0  0  0
   38.1600   30.1190   42.2410 O   0  0  0  0  0  0  0  0  0  0  0  0
   37.8080   28.8110   42.1770 C   0  0  0  0  0  0  0  0  0  0  0  0
   37.0750   28.0410   43.0530 C   0  0  0  0  0  0  0  0  0  0  0  0
   36.8540   26.7340   42.7620 C   0  0  0  0  0  0  0  0  0  0  0  0
   37.4090   26.2500   41.5480 C   0  0  0  0  0  0  0  0  0  0  0  0
   38.2400   27.6920   40.8480 S   0  0  0  0  0  0  0  0  0  0  0  0
   36.6950   28.4980   43.9470 H   0  0  0  0  0  0  0  0  0  0  0  0
   36.3040   26.0290   43.3540 H   0  0  0  0  0  0  0  0  0  0  0  0
   39.6330   24.4450   42.6960 Br  0  0  0  0  0  0  0  0  0  0  0  0
   38.3190   24.0390   41.3870 C   0  0  0  0  0  0  0  0  0  0  0  0
   37.3650   24.9270   40.9430 C   0  0  0  0  0  0  0  0  0  0  0  0
   36.3960   24.7260   40.0190 C   0  0  0  0  0  0  0  0  0  0  0  0
   35.6810   25.4720   39.7220 H   0  0  0  0  0  0  0  0  0  0  0  0
   36.3530   23.4550   39.4360 C   0  0  0  0  0  0  0  0  0  0  0  0
   35.6300   23.1980   38.7030 H   0  0  0  0  0  0  0  0  0  0  0  0
   37.2870   22.4900   39.8300 C   0  0  0  0  0  3  0  0  0  0  0  0
   38.2620   22.7720   40.7930 C   0  0  0  0  0  3  0  0  0  0  0  0
  1  6  1  0  0  0  0
  1 19  1  0  0  0  0
  2  1  2  0  0  0  0
  3  4  2  0  0  0  0
  3  2  1  0  0  0  0
  4  5  1  0  0  0  0
  5  9  1  0  0  0  0
  5  6  2  0  0  0  0
  6 21  1  0  0  0  0
  7  3  1  0  0  0  0
  8  4  1  0  0  0  0
 10 11  2  0  0  0  0
 10 15  1  0  0  0  0
 11 12  1  0  0  0  0
 12  2  1  0  0  0  0
 12 13  2  0  0  0  0
 14 13  1  0  0  0  0
 14 18  1  0  0  0  0
 15 14  2  0  0  0  0
 16 10  1  0  0  0  0
 17 11  1  0  0  0  0
 19 20  1  0  0  0  0
 22 21  1  0  0  0  0
 22 23  2  0  0  0  0
 23 27  1  0  0  0  0
 24 23  1  0  0  0  0
 24 28  1  0  0  0  0
 25 24  2  0  0  0  0
 26 25  1  0  0  0  0
 26 22  1  0  0  0  0
 30 29  1  0  0  0  0
 31 30  1  0  0  0  0
 31 25  1  0  0  0  0
 32 31  2  0  0  0  0
 33 32  1  0  0  0  0
 34 36  2  0  0  0  0
 34 32  1  0  0  0  0
 35 34  1  0  0  0  0
 36 37  1  0  0  0  0
 37 30  2  0  0  0  0
M  END
>  <minimizedAffinity>
-6.21043396

$$$$

 OpenBabel03242513323D

 37 40  0  0  0  0  0  0  0  0999 V2000
   41.3350   32.2620   41.7470 C   0  0  0  0  0  0  0  0  0  0  0  0
   41.7600   33.1860   40.7960 C   0  0  0  0  0  0  0  0  0  0  0  0
   40.9770   33.3730   39.7130 C   0  0  0  0  0  0  0  0  0  0  0  0
   39.7920   32.6860   39.5310 C   0  0  0  0  0  0  0  0  0  0  0  0
   39.3780   31.7730   40.4750 C   0  0  0  0  0  0  0  0  0  0  0  0
   40.1540   31.5440   41.6140 C   0  0  0  0  0  0  0  0  0  0  0  0
   41.3390   34.1030   38.9880 H   0  0  0  0  0  0  0  0  0  0  0  0
   39.2500   32.9160   38.6300 H   0  0  0  0  0  0  0  0  0  0  0  0
   38.4430   31.2370   40.3250 H   0  0  0  0  0  0  0  0  0  0  0  0
   45.3380   34.3640   40.5940 C   0  0  0  0  0  0  0  0  0  0  0  0
   44.1520   33.6770   40.3170 C   0  0  0  0  0  0  0  0  0  0  0  0
   43.0100   33.8730   41.0440 C   0  0  0  0  0  0  0  0  0  0  0  0
   43.1310   34.7890   42.0530 N   0  0  0  0  0  0  0  0  0  0  0  0
   44.2700   35.4590   42.3300 C   0  0  0  0  0  0  0  0  0  0  0  0
   45.3760   35.2410   41.5940 N   0  0  0  0  0  0  0  0  0  0  0  0
   46.2280   34.1870   40.0000 H   0  0  0  0  0  0  0  0  0  0  0  0
   44.1140   32.9580   39.5020 H   0  0  0  0  0  0  0  0  0  0  0  0
   44.1480   36.1430   43.1770 H   0  0  0  0  0  0  0  0  0  0  0  0
   42.0930   32.0260   42.8790 O   0  0  0  0  0  0  0  0  0  0  0  0
   41.6240   31.9090   43.7790 H   0  0  0  0  0  0  0  0  0  0  0  0
   39.7740   30.6460   42.5720 O   0  0  0  0  0  0  0  0  0  0  0  0
   38.9430   29.5890   42.3970 C   0  0  0  0  0  0  0  0  0  0  0  0
   37.7030   29.3290   42.9370 C   0  0  0  0  0  0  0  0  0  0  0  0
   37.0600   28.1830   42.6010 C   0  0  0  0  0  0  0  0  0  0  0  0
   37.7310   27.3180   41.6970 C   0  0  0  0  0  0  0  0  0  0  0  0
   39.2810   28.1780   41.3470 S   0  0  0  0  0  0  0  0  0  0  0  0
   37.2760   30.0460   43.6130 H   0  0  0  0  0  0  0  0  0  0  0  0
   36.0970   27.8620   42.9480 H   0  0  0  0  0  0  0  0  0  0  0  0
   36.2350   27.7000   39.0250 Br  0  0  0  0  0  0  0  0  0  0  0  0
   36.6590   26.0910   39.9410 C   0  0  0  0  0  0  0  0  0  0  0  0
   37.3370   26.0340   41.1380 C   0  0  0  0  0  0  0  0  0  0  0  0
   37.6800   24.9400   41.8580 C   0  0  0  0  0  0  0  0  0  0  0  0
   38.2140   24.9740   42.7910 H   0  0  0  0  0  0  0  0  0  0  0  0
   37.3010   23.7040   41.3220 C   0  0  0  0  0  0  0  0  0  0  0  0
   37.5240   22.7890   41.8090 H   0  0  0  0  0  0  0  0  0  0  0  0
   36.6080   23.6710   40.1050 C   0  0  0  0  0  3  0  0  0  0  0  0
   36.2870   24.8460   39.4180 C   0  0  0  0  0  3  0  0  0  0  0  0
  1 19  1  0  0  0  0
  2 12  1  0  0  0  0
  2  1  2  0  0  0  0
  3  2  1  0  0  0  0
  4  3  2  0  0  0  0
  4  5  1  0  0  0  0
  5  6  2  0  0  0  0
  6  1  1  0  0  0  0
  6 21  1  0  0  0  0
  7  3  1  0  0  0  0
  8  4  1  0  0  0  0
  9  5  1  0  0  0  0
 10 15  1  0  0  0  0
 11 10  2  0  0  0  0
 11 12  1  0  0  0  0
 12 13  2  0  0  0  0
 13 14  1  0  0  0  0
 14 18  1  0  0  0  0
 15 14  2  0  0  0  0
 16 10  1  0  0  0  0
 17 11  1  0  0  0  0
 19 20  1  0  0  0  0
 22 21  1  0  0  0  0
 22 23  2  0  0  0  0
 23 27  1  0  0  0  0
 24 23  1  0  0  0  0
 24 28  1  0  0  0  0
 25 24  2  0  0  0  0
 26 25  1  0  0  0  0
 26 22  1  0  0  0  0
 29 30  1  0  0  0  0
 30 31  1  0  0  0  0
 31 25  1  0  0  0  0
 31 32  2  0  0  0  0
 32 33  1  0  0  0  0
 34 35  1  0  0  0  0
 34 32  1  0  0  0  0
 36 34  2  0  0  0  0
 37 30  2  0  0  0  0
 37 36  1  0  0  0  0
M  END
>  <minimizedAffinity>
-6.04611588

$$$$

 OpenBabel03242513323D

 37 40  0  0  0  0  0  0  0  0999 V2000
   37.8240   30.1740   40.7850 C   0  0  0  0  0  0  0  0  0  0  0  0
   37.4620   28.9700   40.1890 C   0  0  0  0  0  0  0  0  0  0  0  0
   36.8380   29.0290   38.9930 C   0  0  0  0  0  0  0  0  0  0  0  0
   36.5590   30.2270   38.3640 C   0  0  0  0  0  0  0  0  0  0  0  0
   36.9200   31.4140   38.9600 C   0  0  0  0  0  0  0  0  0  0  0  0
   37.5680   31.4060   40.1980 C   0  0  0  0  0  0  0  0  0  0  0  0
   36.5680   28.0680   38.5530 H   0  0  0  0  0  0  0  0  0  0  0  0
   36.0590   30.1520   37.4130 H   0  0  0  0  0  0  0  0  0  0  0  0
   36.6980   32.3530   38.4580 H   0  0  0  0  0  0  0  0  0  0  0  0
   37.2040   25.7350   42.1120 C   0  0  0  0  0  0  0  0  0  0  0  0
   36.8490   26.9050   41.4330 C   0  0  0  0  0  0  0  0  0  0  0  0
   37.7810   27.7500   40.8980 C   0  0  0  0  0  0  0  0  0  0  0  0
   39.0770   27.3520   41.0840 N   0  0  0  0  0  0  0  0  0  0  0  0
   39.4340   26.2260   41.7360 C   0  0  0  0  0  0  0  0  0  0  0  0
   38.4880   25.4170   42.2510 N   0  0  0  0  0  0  0  0  0  0  0  0
   36.4410   25.0860   42.5260 H   0  0  0  0  0  0  0  0  0  0  0  0
   35.8010   27.1720   41.3170 H   0  0  0  0  0  0  0  0  0  0  0  0
   40.5220   26.0980   41.7700 H   0  0  0  0  0  0  0  0  0  0  0  0
   38.4660   30.1820   42.0100 O   0  0  0  0  0  0  0  0  0  0  0  0
   39.2330   30.8380   42.1690 H   0  0  0  0  0  0  0  0  0  0  0  0
   37.9410   32.5650   40.8190 O   0  0  0  0  0  0  0  0  0  0  0  0
   39.0940   33.2490   40.6150 C   0  0  0  0  0  0  0  0  0  0  0  0
   39.3030   34.5820   40.3370 C   0  0  0  0  0  0  0  0  0  0  0  0
   40.5710   35.0340   40.1720 C   0  0  0  0  0  0  0  0  0  0  0  0
   41.6100   34.0760   40.3010 C   0  0  0  0  0  0  0  0  0  0  0  0
   40.7360   32.5370   40.6600 S   0  0  0  0  0  0  0  0  0  0  0  0
   38.4510   35.2310   40.2590 H   0  0  0  0  0  0  0  0  0  0  0  0
   40.8700   36.0410   39.9530 H   0  0  0  0  0  0  0  0  0  0  0  0
   42.5350   33.5670   37.4010 Br  0  0  0  0  0  0  0  0  0  0  0  0
   43.5730   34.0090   38.9280 C   0  0  0  0  0  0  0  0  0  0  0  0
   43.0540   34.2160   40.1870 C   0  0  0  0  0  0  0  0  0  0  0  0
   43.7140   34.5320   41.3250 C   0  0  0  0  0  0  0  0  0  0  0  0
   43.2380   34.6800   42.2780 H   0  0  0  0  0  0  0  0  0  0  0  0
   45.1030   34.6670   41.2180 C   0  0  0  0  0  0  0  0  0  0  0  0
   45.7090   34.9140   42.0520 H   0  0  0  0  0  0  0  0  0  0  0  0
   45.7130   34.4740   39.9720 C   0  0  0  0  0  3  0  0  0  0  0  0
   44.9640   34.1480   38.8370 C   0  0  0  0  0  3  0  0  0  0  0  0
  1 19  1  0  0  0  0
  2  1  2  0  0  0  0
  2 12  1  0  0  0  0
  3  2  1  0  0  0  0
  4  5  1  0  0  0  0
  4  3  2  0  0  0  0
  5  6  2  0  0  0  0
  6  1  1  0  0  0  0
  6 21  1  0  0  0  0
  7  3  1  0  0  0  0
  8  4  1  0  0  0  0
  9  5  1  0  0  0  0
 10 15  1  0  0  0  0
 10 16  1  0  0  0  0
 11 10  2  0  0  0  0
 12 13  2  0  0  0  0
 12 11  1  0  0  0  0
 13 14  1  0  0  0  0
 14 18  1  0  0  0  0
 14 15  2  0  0  0  0
 17 11  1  0  0  0  0
 19 20  1  0  0  0  0
 22 26  1  0  0  0  0
 22 21  1  0  0  0  0
 23 22  2  0  0  0  0
 24 25  2  0  0  0  0
 24 23  1  0  0  0  0
 25 26  1  0  0  0  0
 27 23  1  0  0  0  0
 28 24  1  0  0  0  0
 29 30  1  0  0  0  0
 30 31  1  0  0  0  0
 31 25  1  0  0  0  0
 31 32  2  0  0  0  0
 32 33  1  0  0  0  0
 34 32  1  0  0  0  0
 34 35  1  0  0  0  0
 36 34  2  0  0  0  0
 37 30  2  0  0  0  0
 37 36  1  0  0  0  0
M  END
>  <minimizedAffinity>
-5.98235369

$$$$

 OpenBabel03242513323D

 37 40  0  0  0  0  0  0  0  0999 V2000
   36.4290   29.8880   39.5360 C   0  0  0  0  0  0  0  0  0  0  0  0
   36.5680   30.4500   38.2700 C   0  0  0  0  0  0  0  0  0  0  0  0
   37.0760   31.6980   38.1930 C   0  0  0  0  0  0  0  0  0  0  0  0
   37.4530   32.4120   39.3140 C   0  0  0  0  0  0  0  0  0  0  0  0
   37.3130   31.8500   40.5630 C   0  0  0  0  0  0  0  0  0  0  0  0
   36.7910   30.5610   40.6960 C   0  0  0  0  0  0  0  0  0  0  0  0
   37.1720   32.1090   37.1880 H   0  0  0  0  0  0  0  0  0  0  0  0
   37.8460   33.3980   39.1330 H   0  0  0  0  0  0  0  0  0  0  0  0
   37.6120   32.4180   41.4410 H   0  0  0  0  0  0  0  0  0  0  0  0
   36.5260   28.5580   35.0060 C   0  0  0  0  0  0  0  0  0  0  0  0
   36.9690   29.3330   36.0830 C   0  0  0  0  0  0  0  0  0  0  0  0
   36.1550   29.6520   37.1360 C   0  0  0  0  0  0  0  0  0  0  0  0
   34.8850   29.1500   37.0410 N   0  0  0  0  0  0  0  0  0  0  0  0
   34.4450   28.4010   36.0070 C   0  0  0  0  0  0  0  0  0  0  0  0
   35.2740   28.1070   34.9880 N   0  0  0  0  0  0  0  0  0  0  0  0
   37.1950   28.3230   34.1860 H   0  0  0  0  0  0  0  0  0  0  0  0
   37.9900   29.7060   36.1040 H   0  0  0  0  0  0  0  0  0  0  0  0
   33.3980   28.1050   36.1330 H   0  0  0  0  0  0  0  0  0  0  0  0
   35.9150   28.6120   39.6810 O   0  0  0  0  0  0  0  0  0  0  0  0
   36.3340   27.9790   40.3650 H   0  0  0  0  0  0  0  0  0  0  0  0
   36.6380   29.9700   41.9190 O   0  0  0  0  0  0  0  0  0  0  0  0
   37.4890   29.0860   42.4950 C   0  0  0  0  0  0  0  0  0  0  0  0
   37.3020   28.2320   43.5590 C   0  0  0  0  0  0  0  0  0  0  0  0
   38.3230   27.4310   43.9540 C   0  0  0  0  0  0  0  0  0  0  0  0
   39.5360   27.5380   43.2220 C   0  0  0  0  0  0  0  0  0  0  0  0
   39.1770   28.7940   41.9750 S   0  0  0  0  0  0  0  0  0  0  0  0
   36.3470   28.2220   44.0500 H   0  0  0  0  0  0  0  0  0  0  0  0
   38.3110   26.7250   44.7620 H   0  0  0  0  0  0  0  0  0  0  0  0
   39.6650   25.0770   41.3640 Br  0  0  0  0  0  0  0  0  0  0  0  0
   40.9660   25.7230   42.5870 C   0  0  0  0  0  0  0  0  0  0  0  0
   40.8040   26.8410   43.3750 C   0  0  0  0  0  0  0  0  0  0  0  0
   41.6710   27.3710   44.2690 C   0  0  0  0  0  0  0  0  0  0  0  0
   41.4740   28.2540   44.8510 H   0  0  0  0  0  0  0  0  0  0  0  0
   42.8910   26.7020   44.4180 C   0  0  0  0  0  0  0  0  0  0  0  0
   43.6380   27.0390   45.0920 H   0  0  0  0  0  0  0  0  0  0  0  0
   43.1390   25.5550   43.6540 C   0  0  0  0  0  3  0  0  0  0  0  0
   42.1920   25.0650   42.7480 C   0  0  0  0  0  3  0  0  0  0  0  0
  1 19  1  0  0  0  0
  1  6  1  0  0  0  0
  2  1  2  0  0  0  0
  3  2  1  0  0  0  0
  3  4  2  0  0  0  0
  4  5  1  0  0  0  0
  5  6  2  0  0  0  0
  5  9  1  0  0  0  0
  6 21  1  0  0  0  0
  7  3  1  0  0  0  0
  8  4  1  0  0  0  0
 10 11  1  0  0  0  0
 11 17  1  0  0  0  0
 11 12  2  0  0  0  0
 12  2  1  0  0  0  0
 13 12  1  0  0  0  0
 14 18  1  0  0  0  0
 14 13  2  0  0  0  0
 15 10  2  0  0  0  0
 15 14  1  0  0  0  0
 16 10  1  0  0  0  0
 19 20  1  0  0  0  0
 21 22  1  0  0  0  0
 22 23  2  0  0  0  0
 23 24  1  0  0  0  0
 23 27  1  0  0  0  0
 24 28  1  0  0  0  0
 25 31  1  0  0  0  0
 25 24  2  0  0  0  0
 26 22  1  0  0  0  0
 26 25  1  0  0  0  0
 29 30  1  0  0  0  0
 30 37  2  0  0  0  0
 30 31  1  0  0  0  0
 31 32  2  0  0  0  0
 32 34  1  0  0  0  0
 32 33  1  0  0  0  0
 34 35  1  0  0  0  0
 36 34  2  0  0  0  0
 37 36  1  0  0  0  0
M  END
>  <minimizedAffinity>
-5.97546768

$$$$
