
 OpenBabel03242510283D

 18 19  0  0  0  0  0  0  0  0999 V2000
   37.8420   31.0050   38.0150 C   0  0  0  0  0  0  0  0  0  0  0  0
   37.8170   30.0690   39.0570 C   0  0  0  0  0  0  0  0  0  0  0  0
   37.4030   30.4190   40.3430 C   0  0  0  0  0  0  0  0  0  0  0  0
   37.0330   31.7140   40.5050 N   0  0  0  0  0  0  0  0  0  0  0  0
   37.0590   32.6100   39.5020 C   0  0  0  0  0  0  0  0  0  0  0  0
   37.4590   32.2590   38.2720 N   0  0  0  0  0  0  0  0  0  0  0  0
   38.1760   30.6560   37.0430 H   0  0  0  0  0  0  0  0  0  0  0  0
   38.1280   29.0610   38.8380 H   0  0  0  0  0  0  0  0  0  0  0  0
   36.7360   33.6290   39.7550 H   0  0  0  0  0  0  0  0  0  0  0  0
   39.7850   30.8260   42.2920 Br  0  0  0  0  0  0  0  0  0  0  0  0
   38.3790   29.5360   42.3810 C   0  0  0  0  0  0  0  0  0  0  0  0
   37.3690   29.4570   41.4420 C   0  0  0  0  0  0  0  0  0  0  0  0
   36.4050   28.4860   41.6040 C   0  0  0  0  0  0  0  0  0  0  0  0
   35.6170   28.4130   40.8860 H   0  0  0  0  0  0  0  0  0  0  0  0
   36.4130   27.5970   42.6610 C   0  0  0  0  0  0  0  0  0  0  0  0
   35.6270   26.8440   42.7480 H   0  0  0  0  0  0  0  0  0  0  0  0
   37.4230   27.6640   43.6120 C   0  0  0  0  0  3  0  0  0  0  0  0
   38.3830   28.6440   43.4370 C   0  0  0  0  0  3  0  0  0  0  0  0
  1  6  2  0  0  0  0
  1  2  1  0  0  0  0
  2  3  2  0  0  0  0
  3  4  1  0  0  0  0
  3 12  1  0  0  0  0
  5  9  1  0  0  0  0
  5  4  2  0  0  0  0
  6  5  1  0  0  0  0
  7  1  1  0  0  0  0
  8  2  1  0  0  0  0
 10 11  1  0  0  0  0
 11 18  1  0  0  0  0
 12 13  1  0  0  0  0
 12 11  2  0  0  0  0
 13 15  2  0  0  0  0
 14 13  1  0  0  0  0
 15 16  1  0  0  0  0
 15 17  1  0  0  0  0
 18 17  2  0  0  0  0
M  END
>  <minimizedAffinity>
-4.30830193

$$$$

 OpenBabel03242510283D

 18 19  0  0  0  0  0  0  0  0999 V2000
   37.1520   32.2950   38.8840 C   0  0  0  0  0  0  0  0  0  0  0  0
   36.9810   31.4900   40.0170 C   0  0  0  0  0  0  0  0  0  0  0  0
   37.6380   30.2660   40.1480 C   0  0  0  0  0  0  0  0  0  0  0  0
   38.4430   29.9210   39.1120 N   0  0  0  0  0  0  0  0  0  0  0  0
   38.6040   30.6970   38.0240 C   0  0  0  0  0  0  0  0  0  0  0  0
   37.9660   31.8700   37.9130 N   0  0  0  0  0  0  0  0  0  0  0  0
   36.6060   33.2340   38.8550 H   0  0  0  0  0  0  0  0  0  0  0  0
   36.3220   31.8440   40.7930 H   0  0  0  0  0  0  0  0  0  0  0  0
   39.2810   30.3110   37.2510 H   0  0  0  0  0  0  0  0  0  0  0  0
   39.7620   30.8940   42.3250 Br  0  0  0  0  0  0  0  0  0  0  0  0
   38.3600   29.5960   42.3650 C   0  0  0  0  0  0  0  0  0  0  0  0
   37.4740   29.4130   41.3220 C   0  0  0  0  0  0  0  0  0  0  0  0
   36.5010   28.4460   41.4590 C   0  0  0  0  0  0  0  0  0  0  0  0
   35.8070   28.2930   40.6600 H   0  0  0  0  0  0  0  0  0  0  0  0
   36.3820   27.6620   42.5890 C   0  0  0  0  0  0  0  0  0  0  0  0
   35.5950   26.9080   42.6510 H   0  0  0  0  0  0  0  0  0  0  0  0
   37.2680   27.8340   43.6440 C   0  0  0  0  0  3  0  0  0  0  0  0
   38.2390   28.8080   43.4940 C   0  0  0  0  0  3  0  0  0  0  0  0
  1  2  1  0  0  0  0
  2  3  2  0  0  0  0
  2  8  1  0  0  0  0
  3 12  1  0  0  0  0
  4  3  1  0  0  0  0
  5  4  2  0  0  0  0
  6  5  1  0  0  0  0
  6  1  2  0  0  0  0
  7  1  1  0  0  0  0
  9  5  1  0  0  0  0
 10 11  1  0  0  0  0
 11 18  1  0  0  0  0
 12 13  1  0  0  0  0
 12 11  2  0  0  0  0
 13 15  2  0  0  0  0
 14 13  1  0  0  0  0
 15 16  1  0  0  0  0
 15 17  1  0  0  0  0
 18 17  2  0  0  0  0
M  END
>  <minimizedAffinity>
-4.25556135

$$$$

 OpenBabel03242510283D

 18 19  0  0  0  0  0  0  0  0999 V2000
   36.1990   30.7870   40.9660 C   0  0  0  0  0  0  0  0  0  0  0  0
   36.0460   29.3960   41.0250 C   0  0  0  0  0  0  0  0  0  0  0  0
   37.1190   28.5330   40.7970 C   0  0  0  0  0  0  0  0  0  0  0  0
   38.3030   29.1350   40.5200 N   0  0  0  0  0  0  0  0  0  0  0  0
   38.4460   30.4710   40.4640 C   0  0  0  0  0  0  0  0  0  0  0  0
   37.4060   31.2870   40.6840 N   0  0  0  0  0  0  0  0  0  0  0  0
   35.3170   31.3920   41.1550 H   0  0  0  0  0  0  0  0  0  0  0  0
   35.0680   29.0050   41.2520 H   0  0  0  0  0  0  0  0  0  0  0  0
   39.4540   30.8400   40.2300 H   0  0  0  0  0  0  0  0  0  0  0  0
   37.5380   27.4570   43.6790 Br  0  0  0  0  0  0  0  0  0  0  0  0
   37.1430   26.4780   42.0860 C   0  0  0  0  0  0  0  0  0  0  0  0
   36.9790   27.0800   40.8540 C   0  0  0  0  0  0  0  0  0  0  0  0
   36.6960   26.2770   39.7710 C   0  0  0  0  0  0  0  0  0  0  0  0
   36.5660   26.7290   38.8110 H   0  0  0  0  0  0  0  0  0  0  0  0
   36.5720   24.9050   39.8720 C   0  0  0  0  0  0  0  0  0  0  0  0
   36.3470   24.3100   38.9850 H   0  0  0  0  0  0  0  0  0  0  0  0
   36.7360   24.2870   41.1040 C   0  0  0  0  0  3  0  0  0  0  0  0
   37.0190   25.1050   42.1830 C   0  0  0  0  0  3  0  0  0  0  0  0
  1  2  1  0  0  0  0
  1  7  1  0  0  0  0
  2  8  1  0  0  0  0
  3 12  1  0  0  0  0
  3  2  2  0  0  0  0
  4  3  1  0  0  0  0
  5  4  2  0  0  0  0
  5  6  1  0  0  0  0
  6  1  2  0  0  0  0
  9  5  1  0  0  0  0
 11 18  1  0  0  0  0
 11 10  1  0  0  0  0
 12 11  2  0  0  0  0
 13 15  2  0  0  0  0
 13 12  1  0  0  0  0
 14 13  1  0  0  0  0
 15 17  1  0  0  0  0
 16 15  1  0  0  0  0
 17 18  2  0  0  0  0
M  END
>  <minimizedAffinity>
-4.22933197

$$$$

 OpenBabel03242510283D

 18 19  0  0  0  0  0  0  0  0999 V2000
   36.5180   27.5170   42.0060 C   0  0  0  0  0  0  0  0  0  0  0  0
   36.7290   28.7220   41.3230 C   0  0  0  0  0  0  0  0  0  0  0  0
   37.5660   29.7140   41.8350 C   0  0  0  0  0  0  0  0  0  0  0  0
   38.1490   29.4280   43.0260 N   0  0  0  0  0  0  0  0  0  0  0  0
   37.9430   28.2700   43.6790 C   0  0  0  0  0  0  0  0  0  0  0  0
   37.1370   27.3260   43.1750 N   0  0  0  0  0  0  0  0  0  0  0  0
   35.8530   26.7950   41.5420 H   0  0  0  0  0  0  0  0  0  0  0  0
   36.2240   28.8640   40.3810 H   0  0  0  0  0  0  0  0  0  0  0  0
   38.4710   28.1540   44.6350 H   0  0  0  0  0  0  0  0  0  0  0  0
   40.4460   30.7690   42.3150 Br  0  0  0  0  0  0  0  0  0  0  0  0
   39.0480   31.5500   41.2720 C   0  0  0  0  0  0  0  0  0  0  0  0
   37.7990   30.9760   41.1380 C   0  0  0  0  0  0  0  0  0  0  0  0
   36.8650   31.6270   40.3600 C   0  0  0  0  0  0  0  0  0  0  0  0
   35.8940   31.1940   40.2460 H   0  0  0  0  0  0  0  0  0  0  0  0
   37.1320   32.8200   39.7180 C   0  0  0  0  0  0  0  0  0  0  0  0
   36.3590   33.2980   39.1120 H   0  0  0  0  0  0  0  0  0  0  0  0
   38.3820   33.4080   39.8450 C   0  0  0  0  0  3  0  0  0  0  0  0
   39.3100   32.7450   40.6280 C   0  0  0  0  0  3  0  0  0  0  0  0
  1  6  1  0  0  0  0
  2  3  1  0  0  0  0
  2  1  2  0  0  0  0
  3  4  2  0  0  0  0
  4  5  1  0  0  0  0
  5  9  1  0  0  0  0
  6  5  2  0  0  0  0
  7  1  1  0  0  0  0
  8  2  1  0  0  0  0
 11 10  1  0  0  0  0
 12 11  1  0  0  0  0
 12  3  1  0  0  0  0
 13 12  2  0  0  0  0
 14 13  1  0  0  0  0
 15 17  2  0  0  0  0
 15 13  1  0  0  0  0
 16 15  1  0  0  0  0
 17 18  1  0  0  0  0
 18 11  2  0  0  0  0
M  END
>  <minimizedAffinity>
-4.15309906

$$$$

 OpenBabel03242510283D

 18 19  0  0  0  0  0  0  0  0999 V2000
   37.3260   32.7280   39.9110 C   0  0  0  0  0  0  0  0  0  0  0  0
   36.9840   31.5500   40.5870 C   0  0  0  0  0  0  0  0  0  0  0  0
   37.9530   30.6260   40.9800 C   0  0  0  0  0  0  0  0  0  0  0  0
   39.2320   30.9510   40.6630 N   0  0  0  0  0  0  0  0  0  0  0  0
   39.5560   32.0840   40.0130 C   0  0  0  0  0  0  0  0  0  0  0  0
   38.6140   32.9610   39.6420 N   0  0  0  0  0  0  0  0  0  0  0  0
   36.5150   33.3970   39.6380 H   0  0  0  0  0  0  0  0  0  0  0  0
   35.9420   31.3730   40.7980 H   0  0  0  0  0  0  0  0  0  0  0  0
   40.6250   32.2360   39.8130 H   0  0  0  0  0  0  0  0  0  0  0  0
   37.1110   28.3760   39.0120 Br  0  0  0  0  0  0  0  0  0  0  0  0
   37.2260   28.3130   40.9190 C   0  0  0  0  0  0  0  0  0  0  0  0
   37.6160   29.3920   41.6860 C   0  0  0  0  0  0  0  0  0  0  0  0
   37.6630   29.2350   43.0550 C   0  0  0  0  0  0  0  0  0  0  0  0
   37.9640   30.0620   43.6610 H   0  0  0  0  0  0  0  0  0  0  0  0
   37.3360   28.0470   43.6790 C   0  0  0  0  0  0  0  0  0  0  0  0
   37.3880   27.9700   44.7670 H   0  0  0  0  0  0  0  0  0  0  0  0
   36.9410   26.9540   42.9200 C   0  0  0  0  0  3  0  0  0  0  0  0
   36.8990   27.1270   41.5480 C   0  0  0  0  0  3  0  0  0  0  0  0
  1  2  1  0  0  0  0
  2  8  1  0  0  0  0
  2  3  2  0  0  0  0
  3 12  1  0  0  0  0
  4  3  1  0  0  0  0
  5  4  2  0  0  0  0
  6  1  2  0  0  0  0
  6  5  1  0  0  0  0
  7  1  1  0  0  0  0
  9  5  1  0  0  0  0
 10 11  1  0  0  0  0
 11 18  2  0  0  0  0
 11 12  1  0  0  0  0
 12 13  2  0  0  0  0
 13 14  1  0  0  0  0
 13 15  1  0  0  0  0
 15 16  1  0  0  0  0
 17 15  2  0  0  0  0
 18 17  1  0  0  0  0
M  END
>  <minimizedAffinity>
-4.15257549

$$$$

 OpenBabel03242510283D

 18 19  0  0  0  0  0  0  0  0999 V2000
   38.8060   26.9320   41.8220 C   0  0  0  0  0  0  0  0  0  0  0  0
   38.7670   28.1950   41.2190 C   0  0  0  0  0  0  0  0  0  0  0  0
   38.2010   29.2950   41.8640 C   0  0  0  0  0  0  0  0  0  0  0  0
   37.6990   29.0520   43.1000 N   0  0  0  0  0  0  0  0  0  0  0  0
   37.7370   27.8370   43.6770 C   0  0  0  0  0  0  0  0  0  0  0  0
   38.2840   26.7900   43.0450 N   0  0  0  0  0  0  0  0  0  0  0  0
   39.2630   26.1260   41.2560 H   0  0  0  0  0  0  0  0  0  0  0  0
   39.1900   28.2970   40.2330 H   0  0  0  0  0  0  0  0  0  0  0  0
   37.2990   27.7640   44.6810 H   0  0  0  0  0  0  0  0  0  0  0  0
   35.6260   29.6770   40.1700 Br  0  0  0  0  0  0  0  0  0  0  0  0
   37.0510   30.9150   40.4710 C   0  0  0  0  0  0  0  0  0  0  0  0
   38.1510   30.6210   41.2510 C   0  0  0  0  0  0  0  0  0  0  0  0
   39.1200   31.5890   41.4000 C   0  0  0  0  0  0  0  0  0  0  0  0
   39.9780   31.3760   42.0020 H   0  0  0  0  0  0  0  0  0  0  0  0
   39.0310   32.8310   40.8020 C   0  0  0  0  0  0  0  0  0  0  0  0
   39.8240   33.5660   40.9480 H   0  0  0  0  0  0  0  0  0  0  0  0
   37.9310   33.1390   40.0130 C   0  0  0  0  0  3  0  0  0  0  0  0
   36.9660   32.1580   39.8730 C   0  0  0  0  0  3  0  0  0  0  0  0
  1  6  1  0  0  0  0
  2  1  2  0  0  0  0
  2  3  1  0  0  0  0
  3  4  2  0  0  0  0
  4  5  1  0  0  0  0
  5  9  1  0  0  0  0
  6  5  2  0  0  0  0
  7  1  1  0  0  0  0
  8  2  1  0  0  0  0
 10 11  1  0  0  0  0
 11 12  1  0  0  0  0
 12 13  2  0  0  0  0
 12  3  1  0  0  0  0
 13 14  1  0  0  0  0
 15 16  1  0  0  0  0
 15 13  1  0  0  0  0
 17 15  2  0  0  0  0
 18 17  1  0  0  0  0
 18 11  2  0  0  0  0
M  END
>  <minimizedAffinity>
-4.00934029

$$$$

 OpenBabel03242510283D

 18 19  0  0  0  0  0  0  0  0999 V2000
   40.6460   32.3690   39.4380 C   0  0  0  0  0  0  0  0  0  0  0  0
   40.0430   31.2760   40.0720 C   0  0  0  0  0  0  0  0  0  0  0  0
   38.9070   31.4290   40.8680 C   0  0  0  0  0  0  0  0  0  0  0  0
   38.4390   32.6970   40.9790 N   0  0  0  0  0  0  0  0  0  0  0  0
   39.0220   33.7460   40.3700 C   0  0  0  0  0  0  0  0  0  0  0  0
   40.1120   33.5830   39.6080 N   0  0  0  0  0  0  0  0  0  0  0  0
   41.5270   32.1690   38.8350 H   0  0  0  0  0  0  0  0  0  0  0  0
   40.4830   30.3030   39.9270 H   0  0  0  0  0  0  0  0  0  0  0  0
   38.5510   34.7230   40.5350 H   0  0  0  0  0  0  0  0  0  0  0  0
   36.5560   30.2940   39.1870 Br  0  0  0  0  0  0  0  0  0  0  0  0
   37.2000   29.7050   40.8880 C   0  0  0  0  0  0  0  0  0  0  0  0
   38.2630   30.3010   41.5370 C   0  0  0  0  0  0  0  0  0  0  0  0
   38.6440   29.7940   42.7610 C   0  0  0  0  0  0  0  0  0  0  0  0
   39.4660   30.2440   43.2750 H   0  0  0  0  0  0  0  0  0  0  0  0
   38.0050   28.7230   43.3550 C   0  0  0  0  0  0  0  0  0  0  0  0
   38.3430   28.3570   44.3270 H   0  0  0  0  0  0  0  0  0  0  0  0
   36.9340   28.1170   42.7150 C   0  0  0  0  0  3  0  0  0  0  0  0
   36.5630   28.6350   41.4870 C   0  0  0  0  0  3  0  0  0  0  0  0
  1  6  2  0  0  0  0
  1  2  1  0  0  0  0
  2  3  2  0  0  0  0
  3  4  1  0  0  0  0
  3 12  1  0  0  0  0
  5  9  1  0  0  0  0
  5  4  2  0  0  0  0
  6  5  1  0  0  0  0
  7  1  1  0  0  0  0
  8  2  1  0  0  0  0
 10 11  1  0  0  0  0
 11 18  2  0  0  0  0
 11 12  1  0  0  0  0
 12 13  2  0  0  0  0
 13 14  1  0  0  0  0
 13 15  1  0  0  0  0
 15 16  1  0  0  0  0
 17 15  2  0  0  0  0
 18 17  1  0  0  0  0
M  END
>  <minimizedAffinity>
-3.97855473

$$$$

 OpenBabel03242510283D

 18 19  0  0  0  0  0  0  0  0999 V2000
   38.4550   30.2870   40.4410 C   0  0  0  0  0  0  0  0  0  0  0  0
   38.3310   28.8940   40.5130 C   0  0  0  0  0  0  0  0  0  0  0  0
   37.1340   28.2860   40.8920 C   0  0  0  0  0  0  0  0  0  0  0  0
   36.1150   29.1340   41.1800 N   0  0  0  0  0  0  0  0  0  0  0  0
   36.2380   30.4720   41.1110 C   0  0  0  0  0  0  0  0  0  0  0  0
   37.3940   31.0410   40.7460 N   0  0  0  0  0  0  0  0  0  0  0  0
   39.4190   30.6850   40.1390 H   0  0  0  0  0  0  0  0  0  0  0  0
   39.1940   28.2970   40.2650 H   0  0  0  0  0  0  0  0  0  0  0  0
   35.3430   31.0530   41.3690 H   0  0  0  0  0  0  0  0  0  0  0  0
   36.3090   27.0690   38.1570 Br  0  0  0  0  0  0  0  0  0  0  0  0
   36.6200   26.1730   39.8160 C   0  0  0  0  0  0  0  0  0  0  0  0
   36.9850   26.8350   40.9720 C   0  0  0  0  0  0  0  0  0  0  0  0
   37.1840   26.0880   42.1130 C   0  0  0  0  0  0  0  0  0  0  0  0
   37.4670   26.5870   43.0150 H   0  0  0  0  0  0  0  0  0  0  0  0
   37.0320   24.7160   42.1420 C   0  0  0  0  0  0  0  0  0  0  0  0
   37.2000   24.1680   43.0700 H   0  0  0  0  0  0  0  0  0  0  0  0
   36.6640   24.0380   40.9870 C   0  0  0  0  0  3  0  0  0  0  0  0
   36.4680   24.8000   39.8490 C   0  0  0  0  0  3  0  0  0  0  0  0
  1  2  2  0  0  0  0
  1  6  1  0  0  0  0
  2  3  1  0  0  0  0
  3 12  1  0  0  0  0
  3  4  2  0  0  0  0
  5  4  1  0  0  0  0
  5  9  1  0  0  0  0
  6  5  2  0  0  0  0
  7  1  1  0  0  0  0
  8  2  1  0  0  0  0
 10 11  1  0  0  0  0
 11 18  2  0  0  0  0
 11 12  1  0  0  0  0
 12 13  2  0  0  0  0
 13 15  1  0  0  0  0
 13 14  1  0  0  0  0
 15 16  1  0  0  0  0
 17 15  2  0  0  0  0
 18 17  1  0  0  0  0
M  END
>  <minimizedAffinity>
-3.91798806

$$$$

 OpenBabel03242510283D

 18 19  0  0  0  0  0  0  0  0999 V2000
   38.9120   23.8160   38.8120 C   0  0  0  0  0  0  0  0  0  0  0  0
   38.7450   24.9050   39.6760 C   0  0  0  0  0  0  0  0  0  0  0  0
   38.1680   24.7550   40.9380 C   0  0  0  0  0  0  0  0  0  0  0  0
   37.7890   23.4920   41.2600 N   0  0  0  0  0  0  0  0  0  0  0  0
   37.9500   22.4480   40.4270 C   0  0  0  0  0  0  0  0  0  0  0  0
   38.5060   22.6080   39.2180 N   0  0  0  0  0  0  0  0  0  0  0  0
   39.3680   24.0130   37.8470 H   0  0  0  0  0  0  0  0  0  0  0  0
   39.0760   25.8730   39.3380 H   0  0  0  0  0  0  0  0  0  0  0  0
   37.6040   21.4750   40.7990 H   0  0  0  0  0  0  0  0  0  0  0  0
   40.5330   24.9990   42.9350 Br  0  0  0  0  0  0  0  0  0  0  0  0
   38.9740   26.0940   42.7930 C   0  0  0  0  0  0  0  0  0  0  0  0
   37.9860   25.8780   41.8530 C   0  0  0  0  0  0  0  0  0  0  0  0
   36.9030   26.7310   41.8410 C   0  0  0  0  0  0  0  0  0  0  0  0
   36.1300   26.5770   41.1190 H   0  0  0  0  0  0  0  0  0  0  0  0
   36.7730   27.7830   42.7270 C   0  0  0  0  0  0  0  0  0  0  0  0
   35.8960   28.4320   42.6780 H   0  0  0  0  0  0  0  0  0  0  0  0
   37.7580   28.0100   43.6770 C   0  0  0  0  0  3  0  0  0  0  0  0
   38.8390   27.1470   43.6780 C   0  0  0  0  0  3  0  0  0  0  0  0
  1  6  2  0  0  0  0
  1  2  1  0  0  0  0
  2  3  2  0  0  0  0
  3  4  1  0  0  0  0
  3 12  1  0  0  0  0
  5  9  1  0  0  0  0
  5  4  2  0  0  0  0
  6  5  1  0  0  0  0
  7  1  1  0  0  0  0
  8  2  1  0  0  0  0
 11 10  1  0  0  0  0
 11 18  1  0  0  0  0
 12 11  2  0  0  0  0
 13 12  1  0  0  0  0
 13 15  2  0  0  0  0
 14 13  1  0  0  0  0
 15 17  1  0  0  0  0
 16 15  1  0  0  0  0
 17 18  2  0  0  0  0
M  END
>  <minimizedAffinity>
-3.90066147

$$$$
