
 OpenBabel03252502533D

 31 33  0  0  0  0  0  0  0  0999 V2000
   45.5930   33.2790   43.3040 Br  0  0  0  0  0  0  0  0  0  0  0  0
   47.0310   32.0010   43.4920 C   0  0  0  0  0  0  0  0  0  0  0  0
   47.0890   31.3310   44.6940 C   0  0  0  0  0  0  0  0  0  0  0  0
   48.1460   30.4120   44.7920 C   0  0  0  0  0  0  0  0  0  0  0  0
   49.0520   30.1970   43.7730 C   0  0  0  0  0  0  0  0  0  0  0  0
   48.9290   30.9010   42.6090 C   0  0  0  0  0  0  0  0  0  0  0  0
   47.9010   31.8310   42.4440 C   0  0  0  0  0  0  0  0  0  0  0  0
   48.2850   29.8320   45.6940 H   0  0  0  0  0  0  0  0  0  0  0  0
   49.8480   29.4750   43.9060 H   0  0  0  0  0  0  0  0  0  0  0  0
   49.6230   30.7580   41.7860 H   0  0  0  0  0  0  0  0  0  0  0  0
   49.4860   34.4070   42.6310 Br  0  0  0  0  0  0  0  0  0  0  0  0
   48.4370   33.7880   41.1370 C   0  0  0  0  0  0  0  0  0  0  0  0
   47.7670   32.5810   41.2050 C   0  0  0  0  0  0  0  0  0  0  0  0
   47.0040   32.1250   40.1250 C   0  0  0  0  0  0  0  0  0  0  0  0
   46.4900   31.1760   40.2060 H   0  0  0  0  0  0  0  0  0  0  0  0
   46.9560   32.9300   39.0050 C   0  0  0  0  0  0  0  0  0  0  0  0
   46.3520   32.5600   38.1620 H   0  0  0  0  0  0  0  0  0  0  0  0
   47.6260   34.1340   38.9390 C   0  0  0  0  0  3  0  0  0  0  0  0
   48.3810   34.5920   39.9980 C   0  0  0  0  0  3  0  0  0  0  0  0
   46.1780   31.4870   45.8360 C   0  0  0  0  0  0  0  0  0  0  0  0
   45.3200   32.1150   45.4700 H   0  0  0  0  0  0  0  0  0  0  0  0
   46.6550   31.9390   46.7300 H   0  0  0  0  0  0  0  0  0  0  0  0
   45.2000   28.5330   47.8930 C   0  0  0  0  0  0  0  0  0  0  0  0
   44.4360   27.7960   46.9740 C   0  0  0  0  0  0  0  0  0  0  0  0
   44.2730   28.3070   45.7040 C   0  0  0  0  0  0  0  0  0  0  0  0
   44.8530   29.5010   45.3780 N   0  0  0  0  0  0  0  0  0  0  0  0
   45.5920   30.1960   46.2980 C   0  0  0  0  0  0  0  0  0  0  0  0
   45.7450   29.6910   47.5310 N   0  0  0  0  0  0  0  0  0  0  0  0
   45.4120   28.2570   48.9250 H   0  0  0  0  0  0  0  0  0  0  0  0
   44.0290   26.8700   47.3460 H   0  0  0  0  0  0  0  0  0  0  0  0
   43.6880   27.7380   45.0070 H   0  0  0  0  0  0  0  0  0  0  0  0
  1  2  1  0  0  0  0
  2  3  1  0  0  0  0
  3  4  2  0  0  0  0
  3 20  1  0  0  0  0
  4  8  1  0  0  0  0
  5  9  1  0  0  0  0
  5  4  1  0  0  0  0
  6  5  2  0  0  0  0
  7  6  1  0  0  0  0
  7  2  2  0  0  0  0
 10  6  1  0  0  0  0
 12 13  1  0  0  0  0
 12 11  1  0  0  0  0
 13  7  1  0  0  0  0
 14 15  1  0  0  0  0
 14 13  2  0  0  0  0
 16 14  1  0  0  0  0
 17 16  1  0  0  0  0
 18 16  2  0  0  0  0
 18 19  1  0  0  0  0
 19 12  2  0  0  0  0
 20 27  1  0  0  0  0
 20 22  1  0  0  0  0
 21 20  1  0  0  0  0
 23 29  1  0  0  0  0
 24 30  1  0  0  0  0
 24 23  2  0  0  0  0
 25 24  1  0  0  0  0
 26 25  2  0  0  0  0
 26 27  1  0  0  0  0
 27 28  2  0  0  0  0
 28 23  1  0  0  0  0
 31 25  1  0  0  0  0
M  END
>  <minimizedAffinity>
-3.99735665

>  <minimizedRMSD>
7.70254993

$$$$
