
 OpenBabel03242518193D

 30 32  0  0  0  0  0  0  0  0999 V2000
   46.6480   33.9240   43.3010 C   0  0  0  0  0  0  0  0  0  0  0  0
   46.8750   35.1200   42.6680 C   0  0  0  0  0  0  0  0  0  0  0  0
   47.9420   34.9330   41.7850 C   0  0  0  0  0  0  0  0  0  0  0  0
   48.3030   33.6010   41.9430 C   0  0  0  0  0  0  0  0  0  0  0  0
   47.5250   33.0820   42.8230 O   0  0  0  0  0  0  0  0  0  0  0  0
   46.3870   36.0710   42.7590 H   0  0  0  0  0  0  0  0  0  0  0  0
   48.4230   35.6220   41.1080 H   0  0  0  0  0  0  0  0  0  0  0  0
   47.3760   32.4840   39.2330 Br  0  0  0  0  0  0  0  0  0  0  0  0
   49.1010   32.3070   40.0540 C   0  0  0  0  0  0  0  0  0  0  0  0
   49.3510   32.8690   41.2740 C   0  0  0  0  0  0  0  0  0  0  0  0
   50.6190   32.7200   41.8400 C   0  0  0  0  0  0  0  0  0  0  0  0
   50.8400   33.1570   42.8050 H   0  0  0  0  0  0  0  0  0  0  0  0
   51.5730   32.0160   41.1590 C   0  0  0  0  0  0  0  0  0  0  0  0
   52.5750   31.8530   41.5260 H   0  0  0  0  0  0  0  0  0  0  0  0
   51.3070   31.4500   39.9260 C   0  0  0  0  0  0  0  0  0  0  0  0
   50.0510   31.5800   39.3310 C   0  0  0  0  0  0  0  0  0  0  0  0
   45.5760   33.7300   44.3250 C   0  0  0  0  0  0  0  0  0  0  0  0
   44.6530   33.3140   43.8680 H   0  0  0  0  0  0  0  0  0  0  0  0
   45.3250   34.7030   44.7920 H   0  0  0  0  0  0  0  0  0  0  0  0
   46.2030   30.6030   46.1310 C   0  0  0  0  0  0  0  0  0  0  0  0
   46.8600   31.0150   47.2920 C   0  0  0  0  0  0  0  0  0  0  0  0
   47.0910   32.3620   47.4590 C   0  0  0  0  0  0  0  0  0  0  0  0
   46.6750   33.2110   46.5030 N   0  0  0  0  0  0  0  0  0  0  0  0
   46.0380   32.7800   45.3860 C   0  0  0  0  0  0  0  0  0  0  0  0
   45.8030   31.4570   45.2050 N   0  0  0  0  0  0  0  0  0  0  0  0
   45.9840   29.5640   45.9250 H   0  0  0  0  0  0  0  0  0  0  0  0
   47.5970   32.6740   48.3530 H   0  0  0  0  0  0  0  0  0  0  0  0
   47.2400   30.0010   48.2130 N   0  0  0  0  0  0  0  0  0  0  0  0
   46.8760   30.0190   49.1920 H   0  0  0  0  0  0  0  0  0  0  0  0
   47.8550   29.1730   48.1140 H   0  0  0  0  0  0  0  0  0  0  0  0
  1 17  1  0  0  0  0
  2  6  1  0  0  0  0
  2  1  2  0  0  0  0
  3  4  2  0  0  0  0
  3  2  1  0  0  0  0
  4  5  1  0  0  0  0
  5  1  1  0  0  0  0
  7  3  1  0  0  0  0
  8  9  1  0  0  0  0
  9 10  1  0  0  0  0
 10 11  2  0  0  0  0
 10  4  1  0  0  0  0
 11 12  1  0  0  0  0
 13 14  1  0  0  0  0
 13 11  1  0  0  0  0
 15 13  2  0  0  0  0
 16 15  1  0  0  0  0
 16  9  2  0  0  0  0
 17 19  1  0  0  0  0
 17 24  1  0  0  0  0
 18 17  1  0  0  0  0
 20 21  1  0  0  0  0
 21 22  2  0  0  0  0
 21 28  1  0  0  0  0
 22 27  1  0  0  0  0
 23 22  1  0  0  0  0
 24 23  2  0  0  0  0
 25 24  1  0  0  0  0
 25 20  2  0  0  0  0
 26 20  1  0  0  0  0
 28 29  1  0  0  0  0
 30 28  1  0  0  0  0
M  END
>  <minimizedAffinity>
-4.73624277

>  <minimizedRMSD>
8.40552235

$$$$
