
 OpenBabel03242512583D

 28 30  0  0  0  0  0  0  0  0999 V2000
   45.0800   33.5260   41.2120 F   0  0  0  0  0  0  0  0  0  0  0  0
   46.3150   34.1130   41.1300 C   0  0  0  0  0  0  0  0  0  0  0  0
   46.8560   34.8000   42.1820 C   0  0  0  0  0  0  0  0  0  0  0  0
   48.0990   35.3510   41.9970 C   0  0  0  0  0  0  0  0  0  0  0  0
   48.8080   35.2440   40.8300 C   0  0  0  0  0  0  0  0  0  0  0  0
   48.2230   34.5440   39.8020 C   0  0  0  0  0  0  0  0  0  0  0  0
   46.9800   33.9710   39.9310 C   0  0  0  0  0  0  0  0  0  0  0  0
   48.5170   35.8960   42.8460 H   0  0  0  0  0  0  0  0  0  0  0  0
   49.7850   35.6940   40.7290 H   0  0  0  0  0  0  0  0  0  0  0  0
   48.7610   34.4430   38.8650 H   0  0  0  0  0  0  0  0  0  0  0  0
   44.4300   35.9770   44.8450 C   0  0  0  0  0  0  0  0  0  0  0  0
   45.1610   35.9210   43.6460 C   0  0  0  0  0  0  0  0  0  0  0  0
   46.0740   34.8970   43.4160 C   0  0  0  0  0  0  0  0  0  0  0  0
   46.2030   33.9750   44.4110 N   0  0  0  0  0  0  0  0  0  0  0  0
   45.4960   34.0440   45.5480 C   0  0  0  0  0  0  0  0  0  0  0  0
   44.6240   35.0240   45.7670 N   0  0  0  0  0  0  0  0  0  0  0  0
   43.7390   36.7850   44.9760 H   0  0  0  0  0  0  0  0  0  0  0  0
   45.0720   36.6440   42.8440 H   0  0  0  0  0  0  0  0  0  0  0  0
   45.7510   33.2150   46.2030 H   0  0  0  0  0  0  0  0  0  0  0  0
   48.2620   34.3540   37.0850 Br  0  0  0  0  0  0  0  0  0  0  0  0
   46.7640   33.2460   37.5040 C   0  0  0  0  0  0  0  0  0  0  0  0
   46.3620   33.2230   38.8230 C   0  0  0  0  0  0  0  0  0  0  0  0
   45.2930   32.4630   39.2560 C   0  0  0  0  0  0  0  0  0  0  0  0
   44.9250   32.3970   40.2680 H   0  0  0  0  0  0  0  0  0  0  0  0
   44.5870   31.6880   38.3450 C   0  0  0  0  0  0  0  0  0  0  0  0
   43.7370   31.0730   38.6440 H   0  0  0  0  0  0  0  0  0  0  0  0
   44.9980   31.7200   37.0290 C   0  0  0  0  0  0  0  0  0  0  0  0
   46.0650   32.4760   36.5870 C   0  0  0  0  0  0  0  0  0  0  0  0
  2  1  1  0  0  0  0
  2  3  1  0  0  0  0
  3 13  1  0  0  0  0
  4  3  2  0  0  0  0
  4  8  1  0  0  0  0
  5  4  1  0  0  0  0
  6  7  1  0  0  0  0
  6  5  2  0  0  0  0
  7  2  2  0  0  0  0
  9  5  1  0  0  0  0
 10  6  1  0  0  0  0
 11 17  1  0  0  0  0
 11 16  1  0  0  0  0
 12 11  2  0  0  0  0
 13 12  1  0  0  0  0
 13 14  2  0  0  0  0
 14 15  1  0  0  0  0
 15 16  2  0  0  0  0
 15 19  1  0  0  0  0
 18 12  1  0  0  0  0
 20 21  1  0  0  0  0
 21 22  1  0  0  0  0
 22 23  2  0  0  0  0
 22  7  1  0  0  0  0
 23 24  1  0  0  0  0
 25 26  1  0  0  0  0
 25 23  1  0  0  0  0
 27 25  2  0  0  0  0
 28 27  1  0  0  0  0
 28 21  2  0  0  0  0
M  END
>  <minimizedAffinity>
-6.04344702

>  <minimizedRMSD>
0.294498086

$$$$
