
 OpenBabel03242518203D

 30 32  0  0  0  0  0  0  0  0999 V2000
   38.4690   28.5990   42.5700 C   0  0  0  0  0  0  0  0  0  0  0  0
   37.4890   28.3170   43.4870 C   0  0  0  0  0  0  0  0  0  0  0  0
   36.9570   27.0650   43.1630 C   0  0  0  0  0  0  0  0  0  0  0  0
   37.6670   26.6590   42.0420 C   0  0  0  0  0  0  0  0  0  0  0  0
   38.5150   27.5790   41.7540 O   0  0  0  0  0  0  0  0  0  0  0  0
   37.1250   28.8770   44.3250 H   0  0  0  0  0  0  0  0  0  0  0  0
   36.1750   26.4910   43.6360 H   0  0  0  0  0  0  0  0  0  0  0  0
   39.6310   24.4910   42.9900 Br  0  0  0  0  0  0  0  0  0  0  0  0
   38.3320   24.3710   41.5840 C   0  0  0  0  0  0  0  0  0  0  0  0
   37.5290   25.4360   41.2860 C   0  0  0  0  0  0  0  0  0  0  0  0
   36.5950   25.3120   40.2560 C   0  0  0  0  0  0  0  0  0  0  0  0
   35.9480   26.1420   40.0030 H   0  0  0  0  0  0  0  0  0  0  0  0
   36.5090   24.1290   39.5750 C   0  0  0  0  0  0  0  0  0  0  0  0
   35.8160   23.9510   38.7670 H   0  0  0  0  0  0  0  0  0  0  0  0
   37.3280   23.0590   39.8850 C   0  0  0  0  0  3  0  0  0  0  0  0
   38.2720   23.1490   40.9080 C   0  0  0  0  0  3  0  0  0  0  0  0
   39.2720   29.8600   42.5890 C   0  0  0  0  0  0  0  0  0  0  0  0
   40.3090   29.6830   42.2340 H   0  0  0  0  0  0  0  0  0  0  0  0
   39.3210   30.2550   43.6240 H   0  0  0  0  0  0  0  0  0  0  0  0
   38.7900   32.9600   40.6950 C   0  0  0  0  0  0  0  0  0  0  0  0
   37.5430   32.7910   40.0900 C   0  0  0  0  0  0  0  0  0  0  0  0
   36.8650   31.6150   40.3270 C   0  0  0  0  0  0  0  0  0  0  0  0
   37.4320   30.6940   41.1260 N   0  0  0  0  0  0  0  0  0  0  0  0
   38.6450   30.8890   41.7000 C   0  0  0  0  0  0  0  0  0  0  0  0
   39.3270   32.0400   41.4770 N   0  0  0  0  0  0  0  0  0  0  0  0
   39.3850   33.8540   40.5590 H   0  0  0  0  0  0  0  0  0  0  0  0
   35.9070   31.4890   39.8590 H   0  0  0  0  0  0  0  0  0  0  0  0
   37.0730   33.8530   39.2710 N   0  0  0  0  0  0  0  0  0  0  0  0
   36.1720   34.3310   39.4980 H   0  0  0  0  0  0  0  0  0  0  0  0
   37.4670   34.2970   38.4220 H   0  0  0  0  0  0  0  0  0  0  0  0
  1 17  1  0  0  0  0
  1  2  2  0  0  0  0
  2  6  1  0  0  0  0
  3  2  1  0  0  0  0
  3  7  1  0  0  0  0
  4  3  2  0  0  0  0
  5  4  1  0  0  0  0
  5  1  1  0  0  0  0
  9  8  1  0  0  0  0
 10  9  1  0  0  0  0
 10  4  1  0  0  0  0
 11 10  2  0  0  0  0
 12 11  1  0  0  0  0
 13 15  2  0  0  0  0
 13 11  1  0  0  0  0
 14 13  1  0  0  0  0
 15 16  1  0  0  0  0
 16  9  2  0  0  0  0
 17 19  1  0  0  0  0
 18 17  1  0  0  0  0
 20 25  1  0  0  0  0
 21 22  1  0  0  0  0
 21 20  2  0  0  0  0
 22 23  2  0  0  0  0
 23 24  1  0  0  0  0
 24 17  1  0  0  0  0
 25 24  2  0  0  0  0
 26 20  1  0  0  0  0
 27 22  1  0  0  0  0
 28 29  1  0  0  0  0
 28 21  1  0  0  0  0
 30 28  1  0  0  0  0
M  END
>  <minimizedAffinity>
-6.0229435

$$$$

 OpenBabel03242518203D

 30 32  0  0  0  0  0  0  0  0999 V2000
   38.5000   28.8170   42.5830 C   0  0  0  0  0  0  0  0  0  0  0  0
   37.5500   28.5800   43.5440 C   0  0  0  0  0  0  0  0  0  0  0  0
   36.9270   27.3680   43.2310 C   0  0  0  0  0  0  0  0  0  0  0  0
   37.5550   26.9380   42.0700 C   0  0  0  0  0  0  0  0  0  0  0  0
   38.4420   27.8090   41.7520 O   0  0  0  0  0  0  0  0  0  0  0  0
   37.2640   29.1470   44.4080 H   0  0  0  0  0  0  0  0  0  0  0  0
   36.1360   26.8350   43.7350 H   0  0  0  0  0  0  0  0  0  0  0  0
   36.1910   27.5480   39.3820 Br  0  0  0  0  0  0  0  0  0  0  0  0
   36.7030   25.8370   40.0830 C   0  0  0  0  0  0  0  0  0  0  0  0
   37.3050   25.7390   41.3060 C   0  0  0  0  0  0  0  0  0  0  0  0
   37.6640   24.4770   41.7840 C   0  0  0  0  0  0  0  0  0  0  0  0
   38.1420   24.3750   42.7480 H   0  0  0  0  0  0  0  0  0  0  0  0
   37.4020   23.3760   41.0150 C   0  0  0  0  0  0  0  0  0  0  0  0
   37.6460   22.3670   41.3100 H   0  0  0  0  0  0  0  0  0  0  0  0
   36.7910   23.4890   39.7800 C   0  0  0  0  0  3  0  0  0  0  0  0
   36.4200   24.7350   39.2730 C   0  0  0  0  0  3  0  0  0  0  0  0
   39.3780   30.0270   42.5790 C   0  0  0  0  0  0  0  0  0  0  0  0
   40.3960   29.7840   42.2040 H   0  0  0  0  0  0  0  0  0  0  0  0
   39.4730   30.4220   43.6110 H   0  0  0  0  0  0  0  0  0  0  0  0
   37.0520   31.7860   40.3600 C   0  0  0  0  0  0  0  0  0  0  0  0
   37.7010   32.9910   40.0850 C   0  0  0  0  0  0  0  0  0  0  0  0
   38.9350   33.2050   40.6580 C   0  0  0  0  0  0  0  0  0  0  0  0
   39.4530   32.2490   41.4500 N   0  0  0  0  0  0  0  0  0  0  0  0
   38.7980   31.0880   41.6980 C   0  0  0  0  0  0  0  0  0  0  0  0
   37.5810   30.8610   41.1410 N   0  0  0  0  0  0  0  0  0  0  0  0
   36.0810   31.5410   39.9490 H   0  0  0  0  0  0  0  0  0  0  0  0
   39.4300   34.1330   40.4440 H   0  0  0  0  0  0  0  0  0  0  0  0
   37.0290   33.9050   39.2290 N   0  0  0  0  0  0  0  0  0  0  0  0
   37.4750   34.2120   38.3360 H   0  0  0  0  0  0  0  0  0  0  0  0
   36.1080   34.3750   39.3060 H   0  0  0  0  0  0  0  0  0  0  0  0
  1  2  2  0  0  0  0
  2  6  1  0  0  0  0
  3  2  1  0  0  0  0
  3  7  1  0  0  0  0
  4  3  2  0  0  0  0
  5  4  1  0  0  0  0
  5  1  1  0  0  0  0
  8  9  1  0  0  0  0
  9 10  1  0  0  0  0
 10 11  2  0  0  0  0
 10  4  1  0  0  0  0
 11 12  1  0  0  0  0
 13 14  1  0  0  0  0
 13 11  1  0  0  0  0
 15 13  2  0  0  0  0
 16 15  1  0  0  0  0
 16  9  2  0  0  0  0
 17  1  1  0  0  0  0
 17 19  1  0  0  0  0
 18 17  1  0  0  0  0
 20 25  1  0  0  0  0
 21 20  2  0  0  0  0
 21 22  1  0  0  0  0
 22 23  2  0  0  0  0
 23 24  1  0  0  0  0
 24 17  1  0  0  0  0
 25 24  2  0  0  0  0
 26 20  1  0  0  0  0
 27 22  1  0  0  0  0
 28 30  1  0  0  0  0
 28 21  1  0  0  0  0
 29 28  1  0  0  0  0
M  END
>  <minimizedAffinity>
-5.97497082

$$$$

 OpenBabel03242518203D

 30 32  0  0  0  0  0  0  0  0999 V2000
   36.8880   29.3730   37.8430 C   0  0  0  0  0  0  0  0  0  0  0  0
   35.6260   28.9780   37.4760 C   0  0  0  0  0  0  0  0  0  0  0  0
   35.3000   27.8500   38.2330 C   0  0  0  0  0  0  0  0  0  0  0  0
   36.4140   27.6260   39.0310 C   0  0  0  0  0  0  0  0  0  0  0  0
   37.2850   28.5300   38.7600 O   0  0  0  0  0  0  0  0  0  0  0  0
   34.9390   29.3870   36.7610 H   0  0  0  0  0  0  0  0  0  0  0  0
   34.4060   27.2450   38.2440 H   0  0  0  0  0  0  0  0  0  0  0  0
   36.9810   28.7710   41.8280 Br  0  0  0  0  0  0  0  0  0  0  0  0
   36.8880   26.9280   41.3050 C   0  0  0  0  0  0  0  0  0  0  0  0
   36.6240   26.5850   40.0090 C   0  0  0  0  0  0  0  0  0  0  0  0
   36.5640   25.2330   39.6660 C   0  0  0  0  0  0  0  0  0  0  0  0
   36.3560   24.9380   38.6460 H   0  0  0  0  0  0  0  0  0  0  0  0
   36.7700   24.2910   40.6350 C   0  0  0  0  0  0  0  0  0  0  0  0
   36.7420   23.2270   40.4540 H   0  0  0  0  0  0  0  0  0  0  0  0
   37.0380   24.6500   41.9430 C   0  0  0  0  0  3  0  0  0  0  0  0
   37.1050   25.9920   42.3210 C   0  0  0  0  0  3  0  0  0  0  0  0
   37.5840   30.5530   37.2460 C   0  0  0  0  0  0  0  0  0  0  0  0
   36.9230   31.0940   36.5360 H   0  0  0  0  0  0  0  0  0  0  0  0
   38.4840   30.2160   36.6940 H   0  0  0  0  0  0  0  0  0  0  0  0
   37.3960   32.7720   40.1570 C   0  0  0  0  0  0  0  0  0  0  0  0
   38.6990   33.2550   40.2930 C   0  0  0  0  0  0  0  0  0  0  0  0
   39.6450   32.8220   39.3890 C   0  0  0  0  0  0  0  0  0  0  0  0
   39.2700   31.9610   38.4260 N   0  0  0  0  0  0  0  0  0  0  0  0
   37.9960   31.5110   38.3200 C   0  0  0  0  0  0  0  0  0  0  0  0
   37.0520   31.9270   39.2020 N   0  0  0  0  0  0  0  0  0  0  0  0
   36.5960   33.0630   40.8250 H   0  0  0  0  0  0  0  0  0  0  0  0
   40.6450   33.1950   39.4970 H   0  0  0  0  0  0  0  0  0  0  0  0
   38.9450   34.1600   41.3600 N   0  0  0  0  0  0  0  0  0  0  0  0
   39.3040   35.1200   41.1610 H   0  0  0  0  0  0  0  0  0  0  0  0
   38.8330   34.0650   42.3860 H   0  0  0  0  0  0  0  0  0  0  0  0
  1  5  1  0  0  0  0
  2  1  2  0  0  0  0
  2  3  1  0  0  0  0
  3  7  1  0  0  0  0
  3  4  2  0  0  0  0
  4 10  1  0  0  0  0
  5  4  1  0  0  0  0
  6  2  1  0  0  0  0
  9  8  1  0  0  0  0
  9 16  1  0  0  0  0
 10  9  2  0  0  0  0
 11 10  1  0  0  0  0
 11 13  2  0  0  0  0
 12 11  1  0  0  0  0
 13 15  1  0  0  0  0
 14 13  1  0  0  0  0
 15 16  2  0  0  0  0
 17  1  1  0  0  0  0
 17 24  1  0  0  0  0
 18 17  1  0  0  0  0
 19 17  1  0  0  0  0
 20 21  1  0  0  0  0
 20 26  1  0  0  0  0
 21 28  1  0  0  0  0
 22 27  1  0  0  0  0
 22 21  2  0  0  0  0
 23 22  1  0  0  0  0
 24 23  2  0  0  0  0
 24 25  1  0  0  0  0
 25 20  2  0  0  0  0
 28 30  1  0  0  0  0
 29 28  1  0  0  0  0
M  END
>  <minimizedAffinity>
-5.58294487

$$$$

 OpenBabel03242518203D

 30 32  0  0  0  0  0  0  0  0999 V2000
   38.6830   29.2610   42.4230 C   0  0  0  0  0  0  0  0  0  0  0  0
   37.7030   29.0840   43.3660 C   0  0  0  0  0  0  0  0  0  0  0  0
   37.1880   27.7950   43.2030 C   0  0  0  0  0  0  0  0  0  0  0  0
   37.9070   27.2590   42.1430 C   0  0  0  0  0  0  0  0  0  0  0  0
   38.7440   28.1460   41.7430 O   0  0  0  0  0  0  0  0  0  0  0  0
   37.3290   29.7420   44.1260 H   0  0  0  0  0  0  0  0  0  0  0  0
   36.4120   27.2750   43.7430 H   0  0  0  0  0  0  0  0  0  0  0  0
   39.9500   25.2750   43.3050 Br  0  0  0  0  0  0  0  0  0  0  0  0
   38.6250   24.9490   41.9560 C   0  0  0  0  0  0  0  0  0  0  0  0
   37.7880   25.9490   41.5480 C   0  0  0  0  0  0  0  0  0  0  0  0
   36.8360   25.6750   40.5640 C   0  0  0  0  0  0  0  0  0  0  0  0
   36.1610   26.4500   40.2260 H   0  0  0  0  0  0  0  0  0  0  0  0
   36.7680   24.4140   40.0370 C   0  0  0  0  0  0  0  0  0  0  0  0
   36.0640   24.1200   39.2740 H   0  0  0  0  0  0  0  0  0  0  0  0
   37.6230   23.4120   40.4570 C   0  0  0  0  0  3  0  0  0  0  0  0
   38.5850   23.6520   41.4380 C   0  0  0  0  0  3  0  0  0  0  0  0
   39.4700   30.5240   42.2840 C   0  0  0  0  0  0  0  0  0  0  0  0
   40.5280   30.3750   42.5870 H   0  0  0  0  0  0  0  0  0  0  0  0
   39.0300   31.3100   42.9310 H   0  0  0  0  0  0  0  0  0  0  0  0
   40.6500   31.5880   38.9810 C   0  0  0  0  0  0  0  0  0  0  0  0
   39.4740   31.8450   38.2740 C   0  0  0  0  0  0  0  0  0  0  0  0
   38.2750   31.6540   38.9240 C   0  0  0  0  0  0  0  0  0  0  0  0
   38.2940   31.2330   40.2010 N   0  0  0  0  0  0  0  0  0  0  0  0
   39.4540   30.9930   40.8620 C   0  0  0  0  0  0  0  0  0  0  0  0
   40.6430   31.1750   40.2360 N   0  0  0  0  0  0  0  0  0  0  0  0
   41.6310   31.7140   38.5430 H   0  0  0  0  0  0  0  0  0  0  0  0
   37.3730   31.8520   38.3760 H   0  0  0  0  0  0  0  0  0  0  0  0
   39.6120   32.2860   36.9300 N   0  0  0  0  0  0  0  0  0  0  0  0
   39.2200   33.2090   36.6380 H   0  0  0  0  0  0  0  0  0  0  0  0
   40.0600   31.8500   36.1020 H   0  0  0  0  0  0  0  0  0  0  0  0
  1  2  2  0  0  0  0
  2  6  1  0  0  0  0
  3  2  1  0  0  0  0
  3  7  1  0  0  0  0
  4  3  2  0  0  0  0
  5  4  1  0  0  0  0
  5  1  1  0  0  0  0
  9  8  1  0  0  0  0
 10  9  1  0  0  0  0
 10  4  1  0  0  0  0
 11 10  2  0  0  0  0
 12 11  1  0  0  0  0
 13 15  2  0  0  0  0
 13 11  1  0  0  0  0
 14 13  1  0  0  0  0
 15 16  1  0  0  0  0
 16  9  2  0  0  0  0
 17  1  1  0  0  0  0
 17 18  1  0  0  0  0
 17 19  1  0  0  0  0
 20 25  1  0  0  0  0
 21 22  1  0  0  0  0
 21 20  2  0  0  0  0
 22 23  2  0  0  0  0
 23 24  1  0  0  0  0
 24 17  1  0  0  0  0
 25 24  2  0  0  0  0
 26 20  1  0  0  0  0
 27 22  1  0  0  0  0
 28 21  1  0  0  0  0
 29 28  1  0  0  0  0
 30 28  1  0  0  0  0
M  END
>  <minimizedAffinity>
-5.52576447

$$$$

 OpenBabel03242518203D

 30 32  0  0  0  0  0  0  0  0999 V2000
   36.2000   28.5330   40.9050 C   0  0  0  0  0  0  0  0  0  0  0  0
   36.5290   28.3890   42.2290 C   0  0  0  0  0  0  0  0  0  0  0  0
   37.1100   27.1280   42.3840 C   0  0  0  0  0  0  0  0  0  0  0  0
   37.0950   26.5730   41.1120 C   0  0  0  0  0  0  0  0  0  0  0  0
   36.5630   27.4250   40.3140 O   0  0  0  0  0  0  0  0  0  0  0  0
   36.4080   29.0540   43.0630 H   0  0  0  0  0  0  0  0  0  0  0  0
   37.5010   26.6370   43.2630 H   0  0  0  0  0  0  0  0  0  0  0  0
   39.9800   26.7000   40.0560 Br  0  0  0  0  0  0  0  0  0  0  0  0
   38.8430   25.1620   40.1950 C   0  0  0  0  0  0  0  0  0  0  0  0
   37.5750   25.2780   40.6910 C   0  0  0  0  0  0  0  0  0  0  0  0
   36.7750   24.1360   40.7780 C   0  0  0  0  0  0  0  0  0  0  0  0
   35.7690   24.2030   41.1680 H   0  0  0  0  0  0  0  0  0  0  0  0
   37.2830   22.9350   40.3650 C   0  0  0  0  0  0  0  0  0  0  0  0
   36.7330   22.0080   40.3970 H   0  0  0  0  0  0  0  0  0  0  0  0
   38.5680   22.8320   39.8630 C   0  0  0  0  0  3  0  0  0  0  0  0
   39.3930   23.9520   39.7630 C   0  0  0  0  0  3  0  0  0  0  0  0
   35.5530   29.7610   40.3500 C   0  0  0  0  0  0  0  0  0  0  0  0
   35.2900   30.4780   41.1570 H   0  0  0  0  0  0  0  0  0  0  0  0
   34.6220   29.4830   39.8150 H   0  0  0  0  0  0  0  0  0  0  0  0
   37.2470   30.6880   37.2350 C   0  0  0  0  0  0  0  0  0  0  0  0
   38.1490   31.6780   37.6270 C   0  0  0  0  0  0  0  0  0  0  0  0
   38.1790   32.0320   38.9590 C   0  0  0  0  0  0  0  0  0  0  0  0
   37.3450   31.4100   39.8100 N   0  0  0  0  0  0  0  0  0  0  0  0
   36.4800   30.4510   39.3980 C   0  0  0  0  0  0  0  0  0  0  0  0
   36.4370   30.0910   38.0910 N   0  0  0  0  0  0  0  0  0  0  0  0
   37.1610   30.3530   36.2090 H   0  0  0  0  0  0  0  0  0  0  0  0
   38.8740   32.7940   39.2560 H   0  0  0  0  0  0  0  0  0  0  0  0
   38.9680   32.2450   36.6140 N   0  0  0  0  0  0  0  0  0  0  0  0
   40.0080   32.1830   36.6840 H   0  0  0  0  0  0  0  0  0  0  0  0
   38.7340   32.7510   35.7400 H   0  0  0  0  0  0  0  0  0  0  0  0
  1  2  2  0  0  0  0
  2  3  1  0  0  0  0
  2  6  1  0  0  0  0
  3  7  1  0  0  0  0
  4  3  2  0  0  0  0
  5  1  1  0  0  0  0
  5  4  1  0  0  0  0
  8  9  1  0  0  0  0
  9 10  1  0  0  0  0
 10 11  2  0  0  0  0
 10  4  1  0  0  0  0
 11 12  1  0  0  0  0
 13 14  1  0  0  0  0
 13 11  1  0  0  0  0
 15 13  2  0  0  0  0
 16 15  1  0  0  0  0
 16  9  2  0  0  0  0
 17  1  1  0  0  0  0
 17 18  1  0  0  0  0
 19 17  1  0  0  0  0
 20 21  2  0  0  0  0
 20 25  1  0  0  0  0
 21 22  1  0  0  0  0
 22 27  1  0  0  0  0
 22 23  2  0  0  0  0
 24 23  1  0  0  0  0
 24 17  1  0  0  0  0
 25 24  2  0  0  0  0
 26 20  1  0  0  0  0
 28 29  1  0  0  0  0
 28 21  1  0  0  0  0
 30 28  1  0  0  0  0
M  END
>  <minimizedAffinity>
-5.34005451

$$$$

 OpenBabel03242518203D

 30 32  0  0  0  0  0  0  0  0999 V2000
   36.8260   30.0160   39.1360 C   0  0  0  0  0  0  0  0  0  0  0  0
   35.5970   30.0790   39.7420 C   0  0  0  0  0  0  0  0  0  0  0  0
   35.4170   28.8910   40.4540 C   0  0  0  0  0  0  0  0  0  0  0  0
   36.5790   28.1640   40.2290 C   0  0  0  0  0  0  0  0  0  0  0  0
   37.3420   28.8620   39.4690 O   0  0  0  0  0  0  0  0  0  0  0  0
   34.8450   30.8440   39.7340 H   0  0  0  0  0  0  0  0  0  0  0  0
   34.5900   28.5530   41.0600 H   0  0  0  0  0  0  0  0  0  0  0  0
   37.9560   28.3100   42.9740 Br  0  0  0  0  0  0  0  0  0  0  0  0
   37.5520   26.7460   41.9400 C   0  0  0  0  0  0  0  0  0  0  0  0
   36.9300   26.8560   40.7280 C   0  0  0  0  0  0  0  0  0  0  0  0
   36.6510   25.6960   40.0030 C   0  0  0  0  0  0  0  0  0  0  0  0
   36.1600   25.7580   39.0420 H   0  0  0  0  0  0  0  0  0  0  0  0
   37.0080   24.4830   40.5260 C   0  0  0  0  0  0  0  0  0  0  0  0
   36.8300   23.5410   40.0310 H   0  0  0  0  0  0  0  0  0  0  0  0
   37.6380   24.3850   41.7530 C   0  0  0  0  0  3  0  0  0  0  0  0
   37.9310   25.5250   42.5030 C   0  0  0  0  0  3  0  0  0  0  0  0
   37.3760   31.1120   38.2800 C   0  0  0  0  0  0  0  0  0  0  0  0
   36.5680   31.7790   37.9100 H   0  0  0  0  0  0  0  0  0  0  0  0
   37.8940   30.6750   37.4020 H   0  0  0  0  0  0  0  0  0  0  0  0
   40.5380   32.5520   39.4450 C   0  0  0  0  0  0  0  0  0  0  0  0
   40.1500   33.4370   40.4530 C   0  0  0  0  0  0  0  0  0  0  0  0
   38.8050   33.5440   40.7360 C   0  0  0  0  0  0  0  0  0  0  0  0
   37.9370   32.7950   40.0330 N   0  0  0  0  0  0  0  0  0  0  0  0
   38.3460   31.9430   39.0590 C   0  0  0  0  0  0  0  0  0  0  0  0
   39.6660   31.8260   38.7680 N   0  0  0  0  0  0  0  0  0  0  0  0
   41.5730   32.4100   39.1630 H   0  0  0  0  0  0  0  0  0  0  0  0
   38.5120   34.2250   41.5110 H   0  0  0  0  0  0  0  0  0  0  0  0
   41.1820   34.1610   41.1100 N   0  0  0  0  0  0  0  0  0  0  0  0
   41.3140   34.0660   42.1410 H   0  0  0  0  0  0  0  0  0  0  0  0
   41.8960   34.8210   40.7530 H   0  0  0  0  0  0  0  0  0  0  0  0
  1  5  1  0  0  0  0
  1  2  2  0  0  0  0
  2  3  1  0  0  0  0
  3  7  1  0  0  0  0
  4  3  2  0  0  0  0
  4 10  1  0  0  0  0
  5  4  1  0  0  0  0
  6  2  1  0  0  0  0
  9 16  1  0  0  0  0
  9  8  1  0  0  0  0
 10  9  2  0  0  0  0
 11 13  2  0  0  0  0
 11 10  1  0  0  0  0
 12 11  1  0  0  0  0
 13 15  1  0  0  0  0
 14 13  1  0  0  0  0
 15 16  2  0  0  0  0
 17 24  1  0  0  0  0
 17  1  1  0  0  0  0
 18 17  1  0  0  0  0
 19 17  1  0  0  0  0
 20 21  1  0  0  0  0
 21 22  2  0  0  0  0
 21 28  1  0  0  0  0
 22 27  1  0  0  0  0
 23 22  1  0  0  0  0
 24 23  2  0  0  0  0
 25 24  1  0  0  0  0
 25 20  2  0  0  0  0
 26 20  1  0  0  0  0
 28 29  1  0  0  0  0
 30 28  1  0  0  0  0
M  END
>  <minimizedAffinity>
-5.32587147

$$$$

 OpenBabel03242518203D

 30 32  0  0  0  0  0  0  0  0999 V2000
   36.6870   28.6710   41.7950 C   0  0  0  0  0  0  0  0  0  0  0  0
   35.8340   28.7380   40.7220 C   0  0  0  0  0  0  0  0  0  0  0  0
   36.2130   29.8400   39.9510 C   0  0  0  0  0  0  0  0  0  0  0  0
   37.3000   30.3850   40.6220 C   0  0  0  0  0  0  0  0  0  0  0  0
   37.5190   29.6710   41.6660 O   0  0  0  0  0  0  0  0  0  0  0  0
   35.0070   28.1170   40.4390 H   0  0  0  0  0  0  0  0  0  0  0  0
   35.7990   30.2310   39.0340 H   0  0  0  0  0  0  0  0  0  0  0  0
   40.0560   29.6040   39.5050 Br  0  0  0  0  0  0  0  0  0  0  0  0
   39.3410   31.3670   39.7540 C   0  0  0  0  0  0  0  0  0  0  0  0
   38.0860   31.5420   40.2670 C   0  0  0  0  0  0  0  0  0  0  0  0
   37.5990   32.8390   40.4340 C   0  0  0  0  0  0  0  0  0  0  0  0
   36.6080   33.0020   40.8380 H   0  0  0  0  0  0  0  0  0  0  0  0
   38.3890   33.8980   40.0800 C   0  0  0  0  0  0  0  0  0  0  0  0
   38.0900   34.9300   40.1770 H   0  0  0  0  0  0  0  0  0  0  0  0
   39.6570   33.7080   39.5630 C   0  0  0  0  0  3  0  0  0  0  0  0
   40.1750   32.4240   39.3830 C   0  0  0  0  0  3  0  0  0  0  0  0
   36.5960   27.6160   42.8500 C   0  0  0  0  0  0  0  0  0  0  0  0
   35.7410   26.9320   42.6640 H   0  0  0  0  0  0  0  0  0  0  0  0
   36.4510   28.0920   43.8410 H   0  0  0  0  0  0  0  0  0  0  0  0
   39.9970   26.5280   43.6770 C   0  0  0  0  0  0  0  0  0  0  0  0
   40.1520   25.3430   42.9560 C   0  0  0  0  0  0  0  0  0  0  0  0
   39.0940   24.9120   42.1860 C   0  0  0  0  0  0  0  0  0  0  0  0
   37.9700   25.6500   42.1660 N   0  0  0  0  0  0  0  0  0  0  0  0
   37.8500   26.7980   42.8770 C   0  0  0  0  0  0  0  0  0  0  0  0
   38.8820   27.2360   43.6410 N   0  0  0  0  0  0  0  0  0  0  0  0
   40.7800   26.9330   44.3050 H   0  0  0  0  0  0  0  0  0  0  0  0
   39.2180   24.0000   41.6340 H   0  0  0  0  0  0  0  0  0  0  0  0
   41.3990   24.6720   43.0770 N   0  0  0  0  0  0  0  0  0  0  0  0
   41.9870   24.5000   42.2310 H   0  0  0  0  0  0  0  0  0  0  0  0
   41.8970   24.2820   43.8980 H   0  0  0  0  0  0  0  0  0  0  0  0
  1 17  1  0  0  0  0
  2  1  2  0  0  0  0
  3  4  2  0  0  0  0
  3  2  1  0  0  0  0
  4  5  1  0  0  0  0
  5  1  1  0  0  0  0
  6  2  1  0  0  0  0
  7  3  1  0  0  0  0
  8  9  1  0  0  0  0
  9 10  1  0  0  0  0
 10 11  2  0  0  0  0
 10  4  1  0  0  0  0
 11 12  1  0  0  0  0
 13 14  1  0  0  0  0
 13 11  1  0  0  0  0
 15 13  2  0  0  0  0
 16 15  1  0  0  0  0
 16  9  2  0  0  0  0
 17 24  1  0  0  0  0
 17 19  1  0  0  0  0
 18 17  1  0  0  0  0
 20 26  1  0  0  0  0
 21 28  1  0  0  0  0
 21 20  2  0  0  0  0
 22 21  1  0  0  0  0
 23 22  2  0  0  0  0
 23 24  1  0  0  0  0
 24 25  2  0  0  0  0
 25 20  1  0  0  0  0
 27 22  1  0  0  0  0
 28 30  1  0  0  0  0
 29 28  1  0  0  0  0
M  END
>  <minimizedAffinity>
-5.32228708

$$$$

 OpenBabel03242518203D

 30 32  0  0  0  0  0  0  0  0999 V2000
   36.8430   28.3170   41.6490 C   0  0  0  0  0  0  0  0  0  0  0  0
   36.5130   27.8490   42.8960 C   0  0  0  0  0  0  0  0  0  0  0  0
   37.7010   27.6960   43.6170 C   0  0  0  0  0  0  0  0  0  0  0  0
   38.7010   28.0920   42.7380 C   0  0  0  0  0  0  0  0  0  0  0  0
   38.1450   28.4340   41.6330 O   0  0  0  0  0  0  0  0  0  0  0  0
   35.5620   27.6150   43.3320 H   0  0  0  0  0  0  0  0  0  0  0  0
   37.8700   27.3550   44.6260 H   0  0  0  0  0  0  0  0  0  0  0  0
   39.8380   30.9250   42.3740 Br  0  0  0  0  0  0  0  0  0  0  0  0
   40.7880   29.3240   42.8380 C   0  0  0  0  0  0  0  0  0  0  0  0
   40.1260   28.1340   42.9610 C   0  0  0  0  0  0  0  0  0  0  0  0
   40.8500   26.9900   43.3000 C   0  0  0  0  0  0  0  0  0  0  0  0
   40.3480   26.0370   43.4040 H   0  0  0  0  0  0  0  0  0  0  0  0
   42.1990   27.0910   43.5000 C   0  0  0  0  0  0  0  0  0  0  0  0
   42.8310   26.2570   43.7630 H   0  0  0  0  0  0  0  0  0  0  0  0
   42.8570   28.3000   43.3710 C   0  0  0  0  0  3  0  0  0  0  0  0
   42.1640   29.4640   43.0340 C   0  0  0  0  0  3  0  0  0  0  0  0
   35.8310   28.6060   40.5870 C   0  0  0  0  0  0  0  0  0  0  0  0
   34.9510   29.1400   41.0040 H   0  0  0  0  0  0  0  0  0  0  0  0
   35.4800   27.6550   40.1380 H   0  0  0  0  0  0  0  0  0  0  0  0
   37.0400   31.5720   38.8070 C   0  0  0  0  0  0  0  0  0  0  0  0
   37.5160   31.0640   37.5970 C   0  0  0  0  0  0  0  0  0  0  0  0
   37.4260   29.7050   37.3880 C   0  0  0  0  0  0  0  0  0  0  0  0
   36.8860   28.9390   38.3520 N   0  0  0  0  0  0  0  0  0  0  0  0
   36.4310   29.4630   39.5170 C   0  0  0  0  0  0  0  0  0  0  0  0
   36.5140   30.7990   39.7400 N   0  0  0  0  0  0  0  0  0  0  0  0
   37.0750   32.6270   39.0480 H   0  0  0  0  0  0  0  0  0  0  0  0
   37.7930   29.3190   36.4560 H   0  0  0  0  0  0  0  0  0  0  0  0
   38.0600   31.9970   36.6730 N   0  0  0  0  0  0  0  0  0  0  0  0
   37.6430   32.0950   35.7200 H   0  0  0  0  0  0  0  0  0  0  0  0
   38.8510   32.6630   36.7480 H   0  0  0  0  0  0  0  0  0  0  0  0
  1  2  2  0  0  0  0
  2  6  1  0  0  0  0
  2  3  1  0  0  0  0
  3  7  1  0  0  0  0
  4 10  1  0  0  0  0
  4  3  2  0  0  0  0
  5  1  1  0  0  0  0
  5  4  1  0  0  0  0
  8  9  1  0  0  0  0
  9 10  2  0  0  0  0
  9 16  1  0  0  0  0
 10 11  1  0  0  0  0
 11 12  1  0  0  0  0
 11 13  2  0  0  0  0
 13 14  1  0  0  0  0
 15 13  1  0  0  0  0
 16 15  2  0  0  0  0
 17 18  1  0  0  0  0
 17  1  1  0  0  0  0
 19 17  1  0  0  0  0
 20 26  1  0  0  0  0
 20 25  1  0  0  0  0
 21 20  2  0  0  0  0
 22 21  1  0  0  0  0
 22 23  2  0  0  0  0
 23 24  1  0  0  0  0
 24 25  2  0  0  0  0
 24 17  1  0  0  0  0
 27 22  1  0  0  0  0
 28 30  1  0  0  0  0
 28 21  1  0  0  0  0
 29 28  1  0  0  0  0
M  END
>  <minimizedAffinity>
-5.30903339

$$$$

 OpenBabel03242518203D

 30 32  0  0  0  0  0  0  0  0999 V2000
   36.9230   30.0400   38.1790 C   0  0  0  0  0  0  0  0  0  0  0  0
   35.6200   29.6890   37.9310 C   0  0  0  0  0  0  0  0  0  0  0  0
   35.2810   28.6690   38.8230 C   0  0  0  0  0  0  0  0  0  0  0  0
   36.4290   28.4600   39.5750 C   0  0  0  0  0  0  0  0  0  0  0  0
   37.3300   29.2750   39.1580 O   0  0  0  0  0  0  0  0  0  0  0  0
   34.9140   30.0630   37.2150 H   0  0  0  0  0  0  0  0  0  0  0  0
   34.3570   28.1260   38.9510 H   0  0  0  0  0  0  0  0  0  0  0  0
   37.1640   25.6670   38.5210 Br  0  0  0  0  0  0  0  0  0  0  0  0
   36.9770   26.2270   40.3470 C   0  0  0  0  0  0  0  0  0  0  0  0
   36.6420   27.5170   40.6470 C   0  0  0  0  0  0  0  0  0  0  0  0
   36.5150   27.8890   41.9870 C   0  0  0  0  0  0  0  0  0  0  0  0
   36.2510   28.9040   42.2490 H   0  0  0  0  0  0  0  0  0  0  0  0
   36.7290   26.9510   42.9600 C   0  0  0  0  0  0  0  0  0  0  0  0
   36.6500   27.1550   44.0170 H   0  0  0  0  0  0  0  0  0  0  0  0
   37.0660   25.6480   42.6430 C   0  0  0  0  0  3  0  0  0  0  0  0
   37.2010   25.2440   41.3140 C   0  0  0  0  0  3  0  0  0  0  0  0
   37.6450   31.1060   37.4190 C   0  0  0  0  0  0  0  0  0  0  0  0
   36.9330   31.8090   36.9370 H   0  0  0  0  0  0  0  0  0  0  0  0
   38.2670   30.6430   36.6260 H   0  0  0  0  0  0  0  0  0  0  0  0
   38.7000   33.4640   40.0190 C   0  0  0  0  0  0  0  0  0  0  0  0
   40.0910   33.3480   40.0300 C   0  0  0  0  0  0  0  0  0  0  0  0
   40.6710   32.4620   39.1480 C   0  0  0  0  0  0  0  0  0  0  0  0
   39.8750   31.7570   38.3250 N   0  0  0  0  0  0  0  0  0  0  0  0
   38.5260   31.8930   38.3380 C   0  0  0  0  0  0  0  0  0  0  0  0
   37.9380   32.7600   39.2000 N   0  0  0  0  0  0  0  0  0  0  0  0
   38.1670   34.1360   40.6790 H   0  0  0  0  0  0  0  0  0  0  0  0
   41.7410   32.3760   39.1600 H   0  0  0  0  0  0  0  0  0  0  0  0
   40.7990   34.1600   40.9560 N   0  0  0  0  0  0  0  0  0  0  0  0
   41.5090   34.8460   40.6170 H   0  0  0  0  0  0  0  0  0  0  0  0
   40.7590   34.2230   41.9900 H   0  0  0  0  0  0  0  0  0  0  0  0
  1  5  1  0  0  0  0
  2  1  2  0  0  0  0
  2  3  1  0  0  0  0
  3  7  1  0  0  0  0
  3  4  2  0  0  0  0
  4 10  1  0  0  0  0
  5  4  1  0  0  0  0
  6  2  1  0  0  0  0
  8  9  1  0  0  0  0
  9 10  2  0  0  0  0
  9 16  1  0  0  0  0
 10 11  1  0  0  0  0
 11 12  1  0  0  0  0
 11 13  2  0  0  0  0
 13 14  1  0  0  0  0
 15 13  1  0  0  0  0
 16 15  2  0  0  0  0
 17  1  1  0  0  0  0
 17 24  1  0  0  0  0
 18 17  1  0  0  0  0
 19 17  1  0  0  0  0
 20 21  1  0  0  0  0
 20 26  1  0  0  0  0
 21 28  1  0  0  0  0
 22 27  1  0  0  0  0
 22 21  2  0  0  0  0
 23 24  2  0  0  0  0
 23 22  1  0  0  0  0
 24 25  1  0  0  0  0
 25 20  2  0  0  0  0
 28 30  1  0  0  0  0
 29 28  1  0  0  0  0
M  END
>  <minimizedAffinity>
-5.2028079

$$$$
