
 OpenBabel03252503543D

 36 38  0  0  1  0  0  0  0  0999 V2000
   46.6660   32.6330   45.3790 N   0  0  0  0  0  0  0  0  0  0  0  0
   46.5190   33.0590   46.7780 C   0  0  0  0  0  0  0  0  0  0  0  0
   47.1700   31.9670   47.6240 C   0  0  0  0  0  0  0  0  0  0  0  0
   46.2660   30.7640   47.5530 C   0  0  0  0  0  0  0  0  0  0  0  0
   46.0630   30.4090   46.1130 C   0  0  0  0  0  0  0  0  0  0  0  0
   46.7940   31.2560   45.1400 C   0  0  1  0  0  0  0  0  0  0  0  0
   47.1310   33.9730   46.8890 H   0  0  0  0  0  0  0  0  0  0  0  0
   45.4730   33.1690   47.0810 H   0  0  0  0  0  0  0  0  0  0  0  0
   48.1930   31.7530   47.2580 H   0  0  0  0  0  0  0  0  0  0  0  0
   47.1470   32.3570   48.6590 H   0  0  0  0  0  0  0  0  0  0  0  0
   46.7630   29.9310   48.0970 H   0  0  0  0  0  0  0  0  0  0  0  0
   45.3250   31.0190   48.0780 H   0  0  0  0  0  0  0  0  0  0  0  0
   46.4270   29.3520   45.9440 H   0  0  0  0  0  0  0  0  0  0  0  0
   44.9720   30.3390   45.9370 H   0  0  0  0  0  0  0  0  0  0  0  0
   47.8720   30.9900   45.2180 H   0  0  0  0  0  0  0  0  0  0  0  0
   49.0100   30.2980   43.0120 Br  0  0  0  0  0  0  0  0  0  0  0  0
   47.1260   30.2560   42.8030 C   0  0  0  0  0  0  0  0  0  0  0  0
   46.3280   30.7220   43.8200 C   0  0  0  0  0  0  0  0  0  0  0  0
   44.9550   30.6810   43.5080 C   0  0  0  0  0  0  0  0  0  0  0  0
   44.2700   31.0400   44.2770 H   0  0  0  0  0  0  0  0  0  0  0  0
   44.4110   30.2330   42.3350 C   0  0  0  0  0  0  0  0  0  0  0  0
   43.3360   30.2500   42.2120 H   0  0  0  0  0  0  0  0  0  0  0  0
   45.2840   29.7830   41.3740 C   0  0  0  0  0  3  0  0  0  0  0  0
   46.6420   29.7910   41.6010 C   0  0  0  0  0  3  0  0  0  0  0  0
   47.7660   34.7330   42.5470 C   0  0  0  0  0  0  0  0  0  0  0  0
   47.8000   33.8130   43.5930 C   0  0  0  0  0  0  0  0  0  0  0  0
   46.6680   33.5920   44.3560 C   0  0  0  0  0  0  0  0  0  0  0  0
   45.5550   34.2980   44.0450 N   0  0  0  0  0  0  0  0  0  0  0  0
   45.5220   35.1900   43.0340 C   0  0  0  0  0  0  0  0  0  0  0  0
   46.6290   35.4080   42.2820 N   0  0  0  0  0  0  0  0  0  0  0  0
   48.7510   33.3660   43.7450 H   0  0  0  0  0  0  0  0  0  0  0  0
   44.6140   35.7370   42.8170 H   0  0  0  0  0  0  0  0  0  0  0  0
   49.0060   34.9010   41.7210 C   0  0  0  0  0  0  0  0  0  0  0  0
   49.4250   33.6890   41.1760 F   0  0  0  0  0  0  0  0  0  0  0  0
   48.7200   35.8280   40.7410 F   0  0  0  0  0  0  0  0  0  0  0  0
   50.0250   35.4160   42.5130 F   0  0  0  0  0  0  0  0  0  0  0  0
  1  2  1  0  0  0  0
  2  7  1  0  0  0  0
  2  8  1  0  0  0  0
  2  3  1  0  0  0  0
  3 10  1  0  0  0  0
  4  3  1  0  0  0  0
  4 12  1  0  0  0  0
  4 11  1  0  0  0  0
  5  4  1  0  0  0  0
  6 15  1  1  0  0  0
  6  1  1  0  0  0  0
  6  5  1  0  0  0  0
  9  3  1  0  0  0  0
 13  5  1  0  0  0  0
 14  5  1  0  0  0  0
 17 16  1  0  0  0  0
 17 18  1  0  0  0  0
 18  6  1  0  0  0  0
 19 18  2  0  0  0  0
 19 20  1  0  0  0  0
 21 19  1  0  0  0  0
 22 21  1  0  0  0  0
 23 24  1  0  0  0  0
 23 21  2  0  0  0  0
 24 17  2  0  0  0  0
 25 26  1  0  0  0  0
 26 31  1  0  0  0  0
 26 27  2  0  0  0  0
 27  1  1  0  0  0  0
 28 27  1  0  0  0  0
 29 28  2  0  0  0  0
 30 25  2  0  0  0  0
 30 29  1  0  0  0  0
 32 29  1  0  0  0  0
 33 36  1  0  0  0  0
 33 25  1  0  0  0  0
 34 33  1  0  0  0  0
 35 33  1  0  0  0  0
M  END
>  <minimizedAffinity>
-5.02333641

>  <minimizedRMSD>
1.90991592

$$$$
