
 OpenBabel03252502033D

 34 37  0  0  0  0  0  0  0  0999 V2000
   37.0860   32.2780   39.8270 C   0  0  0  0  0  0  0  0  0  0  0  0
   36.8660   31.1660   40.6430 C   0  0  0  0  0  0  0  0  0  0  0  0
   37.8860   30.2690   40.7650 C   0  0  0  0  0  0  0  0  0  0  0  0
   39.0440   30.4920   40.1030 N   0  0  0  0  0  0  0  0  0  0  0  0
   39.2500   31.5530   39.3270 C   0  0  0  0  0  0  0  0  0  0  0  0
   38.2550   32.4190   39.2120 N   0  0  0  0  0  0  0  0  0  0  0  0
   36.2580   32.9860   39.7400 H   0  0  0  0  0  0  0  0  0  0  0  0
   40.4180   31.9610   38.5440 C   0  0  0  0  0  0  0  0  0  0  0  0
   40.9230   33.2190   38.5220 N   0  0  0  0  0  0  0  0  0  0  0  0
   41.9750   33.6280   37.8320 C   0  0  0  0  0  0  0  0  0  0  0  0
   42.6440   32.7340   37.0560 N   0  0  0  0  0  0  0  0  0  0  0  0
   42.2510   31.4510   36.9830 C   0  0  0  0  0  0  0  0  0  0  0  0
   42.9420   30.5630   36.1930 C   0  0  0  0  0  0  0  0  0  0  0  0
   42.5530   29.2550   36.1100 C   0  0  0  0  0  0  0  0  0  0  0  0
   41.4490   28.8590   36.8450 C   0  0  0  0  0  0  0  0  0  0  0  0
   40.7920   29.7860   37.6210 C   0  0  0  0  0  0  0  0  0  0  0  0
   41.1440   31.1090   37.7360 C   0  0  0  0  0  0  0  0  0  0  0  0
   42.3200   34.6520   37.8660 H   0  0  0  0  0  0  0  0  0  0  0  0
   43.7900   30.8880   35.6350 H   0  0  0  0  0  0  0  0  0  0  0  0
   43.0320   28.4860   35.5180 H   0  0  0  0  0  0  0  0  0  0  0  0
   41.0910   27.8390   36.8230 H   0  0  0  0  0  0  0  0  0  0  0  0
   39.9230   29.4340   38.1860 H   0  0  0  0  0  0  0  0  0  0  0  0
   36.8030   27.8320   39.1560 Br  0  0  0  0  0  0  0  0  0  0  0  0
   37.3910   27.8870   40.9920 C   0  0  0  0  0  0  0  0  0  0  0  0
   37.8480   29.0580   41.5630 C   0  0  0  0  0  0  0  0  0  0  0  0
   38.2080   28.8670   42.8590 C   0  0  0  0  0  0  0  0  0  0  0  0
   38.5770   29.7180   43.3940 H   0  0  0  0  0  0  0  0  0  0  0  0
   38.1560   27.6990   43.5800 C   0  0  0  0  0  0  0  0  0  0  0  0
   38.4620   27.6490   44.5980 H   0  0  0  0  0  0  0  0  0  0  0  0
   37.6900   26.5700   42.9500 C   0  0  0  0  0  3  0  0  0  0  0  0
   37.3050   26.6750   41.6370 C   0  0  0  0  0  3  0  0  0  0  0  0
   35.6340   31.0180   41.2950 N   0  0  0  0  0  0  0  0  0  0  0  0
   35.1220   30.4840   40.5510 H   0  0  0  0  0  0  0  0  0  0  0  0
   35.8700   31.5270   42.1980 H   0  0  0  0  0  0  0  0  0  0  0  0
  1  2  1  0  0  0  0
  2  3  2  0  0  0  0
  2 32  1  0  0  0  0
  3 25  1  0  0  0  0
  4  3  1  0  0  0  0
  5  4  2  0  0  0  0
  6  5  1  0  0  0  0
  6  1  2  0  0  0  0
  7  1  1  0  0  0  0
  8  5  1  0  0  0  0
  9  8  1  0  0  0  0
 10 18  1  0  0  0  0
 10  9  2  0  0  0  0
 11 10  1  0  0  0  0
 12 11  2  0  0  0  0
 12 17  1  0  0  0  0
 13 12  1  0  0  0  0
 14 13  2  0  0  0  0
 14 15  1  0  0  0  0
 15 16  2  0  0  0  0
 16 17  1  0  0  0  0
 16 22  1  0  0  0  0
 17  8  2  0  0  0  0
 19 13  1  0  0  0  0
 20 14  1  0  0  0  0
 21 15  1  0  0  0  0
 23 24  1  0  0  0  0
 24 25  2  0  0  0  0
 24 31  1  0  0  0  0
 25 26  1  0  0  0  0
 26 27  1  0  0  0  0
 26 28  2  0  0  0  0
 28 29  1  0  0  0  0
 30 28  1  0  0  0  0
 31 30  2  0  0  0  0
 32 34  1  0  0  0  0
 33 32  1  0  0  0  0
M  END
>  <minimizedAffinity>
-6.83927631

$$$$

 OpenBabel03252502033D

 34 37  0  0  0  0  0  0  0  0999 V2000
   37.2540   32.3470   39.9430 C   0  0  0  0  0  0  0  0  0  0  0  0
   36.9370   31.2290   40.7180 C   0  0  0  0  0  0  0  0  0  0  0  0
   37.9110   30.2890   40.8850 C   0  0  0  0  0  0  0  0  0  0  0  0
   39.1170   30.4770   40.3030 N   0  0  0  0  0  0  0  0  0  0  0  0
   39.4150   31.5440   39.5650 C   0  0  0  0  0  0  0  0  0  0  0  0
   38.4650   32.4520   39.4070 N   0  0  0  0  0  0  0  0  0  0  0  0
   36.4620   33.0910   39.8190 H   0  0  0  0  0  0  0  0  0  0  0  0
   40.6470   31.9190   38.8680 C   0  0  0  0  0  0  0  0  0  0  0  0
   40.8970   31.6590   37.5620 N   0  0  0  0  0  0  0  0  0  0  0  0
   41.9920   31.9820   36.8950 C   0  0  0  0  0  0  0  0  0  0  0  0
   42.9910   32.6380   37.5440 N   0  0  0  0  0  0  0  0  0  0  0  0
   42.8770   32.9600   38.8430 C   0  0  0  0  0  0  0  0  0  0  0  0
   43.8980   33.6240   39.4810 C   0  0  0  0  0  0  0  0  0  0  0  0
   43.7950   33.9580   40.8030 C   0  0  0  0  0  0  0  0  0  0  0  0
   42.6340   33.6060   41.4710 C   0  0  0  0  0  0  0  0  0  0  0  0
   41.6420   32.9420   40.7880 C   0  0  0  0  0  0  0  0  0  0  0  0
   41.7000   32.5850   39.4620 C   0  0  0  0  0  0  0  0  0  0  0  0
   42.1200   31.7400   35.8490 H   0  0  0  0  0  0  0  0  0  0  0  0
   44.7830   33.8870   38.9480 H   0  0  0  0  0  0  0  0  0  0  0  0
   44.5420   34.4780   41.3870 H   0  0  0  0  0  0  0  0  0  0  0  0
   42.4910   33.8410   42.5170 H   0  0  0  0  0  0  0  0  0  0  0  0
   40.7410   32.6810   41.3530 H   0  0  0  0  0  0  0  0  0  0  0  0
   36.8390   27.9310   39.1550 Br  0  0  0  0  0  0  0  0  0  0  0  0
   37.3070   27.9250   41.0250 C   0  0  0  0  0  0  0  0  0  0  0  0
   37.7730   29.0650   41.6510 C   0  0  0  0  0  0  0  0  0  0  0  0
   38.0400   28.8330   42.9630 C   0  0  0  0  0  0  0  0  0  0  0  0
   38.4070   29.6580   43.5390 H   0  0  0  0  0  0  0  0  0  0  0  0
   37.8950   27.6540   43.6520 C   0  0  0  0  0  0  0  0  0  0  0  0
   38.1320   27.5710   44.6860 H   0  0  0  0  0  0  0  0  0  0  0  0
   37.4260   26.5580   42.9680 C   0  0  0  0  0  3  0  0  0  0  0  0
   37.1320   26.7050   41.6360 C   0  0  0  0  0  3  0  0  0  0  0  0
   35.6610   31.1200   41.2870 N   0  0  0  0  0  0  0  0  0  0  0  0
   35.1780   30.6210   40.5000 H   0  0  0  0  0  0  0  0  0  0  0  0
   35.8590   31.6000   42.2130 H   0  0  0  0  0  0  0  0  0  0  0  0
  1  2  1  0  0  0  0
  2  3  2  0  0  0  0
  2 32  1  0  0  0  0
  3 25  1  0  0  0  0
  4  3  1  0  0  0  0
  5  4  2  0  0  0  0
  6  5  1  0  0  0  0
  6  1  2  0  0  0  0
  7  1  1  0  0  0  0
  8 17  1  0  0  0  0
  8  5  1  0  0  0  0
  9  8  2  0  0  0  0
 10 11  2  0  0  0  0
 10  9  1  0  0  0  0
 11 12  1  0  0  0  0
 12 17  2  0  0  0  0
 12 13  1  0  0  0  0
 13 14  2  0  0  0  0
 14 20  1  0  0  0  0
 14 15  1  0  0  0  0
 15 21  1  0  0  0  0
 16 22  1  0  0  0  0
 16 15  2  0  0  0  0
 17 16  1  0  0  0  0
 18 10  1  0  0  0  0
 19 13  1  0  0  0  0
 23 24  1  0  0  0  0
 24 31  2  0  0  0  0
 24 25  1  0  0  0  0
 25 26  2  0  0  0  0
 26 27  1  0  0  0  0
 26 28  1  0  0  0  0
 28 29  1  0  0  0  0
 30 28  2  0  0  0  0
 31 30  1  0  0  0  0
 32 34  1  0  0  0  0
 33 32  1  0  0  0  0
M  END
>  <minimizedAffinity>
-6.50548363

$$$$

 OpenBabel03252502033D

 34 37  0  0  0  0  0  0  0  0999 V2000
   36.5960   30.4470   41.5030 C   0  0  0  0  0  0  0  0  0  0  0  0
   37.3570   31.3200   40.7230 C   0  0  0  0  0  0  0  0  0  0  0  0
   38.6160   30.9200   40.3850 C   0  0  0  0  0  0  0  0  0  0  0  0
   39.0630   29.7170   40.8120 N   0  0  0  0  0  0  0  0  0  0  0  0
   38.3350   28.8880   41.5550 C   0  0  0  0  0  0  0  0  0  0  0  0
   37.1140   29.2830   41.8800 N   0  0  0  0  0  0  0  0  0  0  0  0
   35.5890   30.7830   41.7660 H   0  0  0  0  0  0  0  0  0  0  0  0
   38.6410   27.5640   42.1030 C   0  0  0  0  0  0  0  0  0  0  0  0
   39.4820   27.3420   43.1420 N   0  0  0  0  0  0  0  0  0  0  0  0
   39.7840   26.1660   43.6670 C   0  0  0  0  0  0  0  0  0  0  0  0
   39.2180   25.0450   43.1440 N   0  0  0  0  0  0  0  0  0  0  0  0
   38.3650   25.1190   42.1100 C   0  0  0  0  0  0  0  0  0  0  0  0
   37.8030   23.9730   41.5970 C   0  0  0  0  0  0  0  0  0  0  0  0
   36.9320   24.0350   40.5440 C   0  0  0  0  0  0  0  0  0  0  0  0
   36.6380   25.2810   40.0180 C   0  0  0  0  0  0  0  0  0  0  0  0
   37.2260   26.3970   40.5680 C   0  0  0  0  0  0  0  0  0  0  0  0
   38.1050   26.3860   41.6230 C   0  0  0  0  0  0  0  0  0  0  0  0
   40.4670   26.0670   44.5000 H   0  0  0  0  0  0  0  0  0  0  0  0
   38.0430   23.0230   42.0160 H   0  0  0  0  0  0  0  0  0  0  0  0
   36.4430   23.1920   40.0750 H   0  0  0  0  0  0  0  0  0  0  0  0
   35.9570   25.3970   39.1870 H   0  0  0  0  0  0  0  0  0  0  0  0
   36.9670   27.3640   40.1230 H   0  0  0  0  0  0  0  0  0  0  0  0
   38.3390   30.3120   37.3420 Br  0  0  0  0  0  0  0  0  0  0  0  0
   39.5570   31.5280   38.2130 C   0  0  0  0  0  0  0  0  0  0  0  0
   39.5540   31.6850   39.5850 C   0  0  0  0  0  0  0  0  0  0  0  0
   40.4890   32.5870   39.9800 C   0  0  0  0  0  0  0  0  0  0  0  0
   40.5680   32.7810   41.0300 H   0  0  0  0  0  0  0  0  0  0  0  0
   41.3610   33.2930   39.1860 C   0  0  0  0  0  0  0  0  0  0  0  0
   42.0630   33.9820   39.5930 H   0  0  0  0  0  0  0  0  0  0  0  0
   41.3100   33.0880   37.8290 C   0  0  0  0  0  3  0  0  0  0  0  0
   40.3920   32.1910   37.3440 C   0  0  0  0  0  3  0  0  0  0  0  0
   36.8090   32.5460   40.3210 N   0  0  0  0  0  0  0  0  0  0  0  0
   37.1090   33.1300   41.1400 H   0  0  0  0  0  0  0  0  0  0  0  0
   36.3800   32.2340   39.4010 H   0  0  0  0  0  0  0  0  0  0  0  0
  1  7  1  0  0  0  0
  1  6  1  0  0  0  0
  2  1  2  0  0  0  0
  3  2  1  0  0  0  0
  3  4  2  0  0  0  0
  4  5  1  0  0  0  0
  5  6  2  0  0  0  0
  5  8  1  0  0  0  0
  8  9  1  0  0  0  0
  9 10  2  0  0  0  0
 10 18  1  0  0  0  0
 11 10  1  0  0  0  0
 12 11  2  0  0  0  0
 13 19  1  0  0  0  0
 13 12  1  0  0  0  0
 14 13  2  0  0  0  0
 15 14  1  0  0  0  0
 15 16  2  0  0  0  0
 16 17  1  0  0  0  0
 17  8  2  0  0  0  0
 17 12  1  0  0  0  0
 20 14  1  0  0  0  0
 21 15  1  0  0  0  0
 22 16  1  0  0  0  0
 23 24  1  0  0  0  0
 24 25  1  0  0  0  0
 25 26  2  0  0  0  0
 25  3  1  0  0  0  0
 26 27  1  0  0  0  0
 28 29  1  0  0  0  0
 28 26  1  0  0  0  0
 30 28  2  0  0  0  0
 31 30  1  0  0  0  0
 31 24  2  0  0  0  0
 32  2  1  0  0  0  0
 32 33  1  0  0  0  0
 34 32  1  0  0  0  0
M  END
>  <minimizedAffinity>
-6.28793526

$$$$

 OpenBabel03252502033D

 34 37  0  0  0  0  0  0  0  0999 V2000
   36.2250   31.1720   40.4130 C   0  0  0  0  0  0  0  0  0  0  0  0
   35.9970   29.8060   40.5990 C   0  0  0  0  0  0  0  0  0  0  0  0
   37.0850   28.9850   40.5880 C   0  0  0  0  0  0  0  0  0  0  0  0
   38.3130   29.5180   40.4020 N   0  0  0  0  0  0  0  0  0  0  0  0
   38.5270   30.8190   40.2260 C   0  0  0  0  0  0  0  0  0  0  0  0
   37.4660   31.6120   40.2370 N   0  0  0  0  0  0  0  0  0  0  0  0
   35.3420   31.8170   40.4250 H   0  0  0  0  0  0  0  0  0  0  0  0
   39.7650   31.5730   40.0150 C   0  0  0  0  0  0  0  0  0  0  0  0
   40.0540   32.2710   38.8900 N   0  0  0  0  0  0  0  0  0  0  0  0
   41.1570   32.9640   38.6610 C   0  0  0  0  0  0  0  0  0  0  0  0
   42.1200   33.0080   39.6200 N   0  0  0  0  0  0  0  0  0  0  0  0
   41.9650   32.3610   40.7860 C   0  0  0  0  0  0  0  0  0  0  0  0
   42.9510   32.4190   41.7430 C   0  0  0  0  0  0  0  0  0  0  0  0
   42.8060   31.7650   42.9350 C   0  0  0  0  0  0  0  0  0  0  0  0
   41.6390   31.0480   43.1430 C   0  0  0  0  0  0  0  0  0  0  0  0
   40.6830   31.0220   42.1550 C   0  0  0  0  0  0  0  0  0  0  0  0
   40.7830   31.6610   40.9430 C   0  0  0  0  0  0  0  0  0  0  0  0
   41.3170   33.4980   37.7340 H   0  0  0  0  0  0  0  0  0  0  0  0
   43.8410   32.9770   41.5640 H   0  0  0  0  0  0  0  0  0  0  0  0
   43.5230   31.7530   43.7440 H   0  0  0  0  0  0  0  0  0  0  0  0
   41.4630   30.5100   44.0640 H   0  0  0  0  0  0  0  0  0  0  0  0
   39.7750   30.4440   42.3570 H   0  0  0  0  0  0  0  0  0  0  0  0
   37.4730   28.1480   43.5630 Br  0  0  0  0  0  0  0  0  0  0  0  0
   37.2090   27.0130   42.0270 C   0  0  0  0  0  0  0  0  0  0  0  0
   37.0510   27.5440   40.7620 C   0  0  0  0  0  0  0  0  0  0  0  0
   36.8790   26.5670   39.8350 C   0  0  0  0  0  0  0  0  0  0  0  0
   36.7480   26.8770   38.8170 H   0  0  0  0  0  0  0  0  0  0  0  0
   36.8540   25.2090   40.0420 C   0  0  0  0  0  0  0  0  0  0  0  0
   36.7120   24.5190   39.2450 H   0  0  0  0  0  0  0  0  0  0  0  0
   37.0170   24.7490   41.3260 C   0  0  0  0  0  3  0  0  0  0  0  0
   37.1960   25.6700   42.3260 C   0  0  0  0  0  3  0  0  0  0  0  0
   34.6880   29.3420   40.7890 N   0  0  0  0  0  0  0  0  0  0  0  0
   34.4300   29.1760   39.7860 H   0  0  0  0  0  0  0  0  0  0  0  0
   34.6500   29.4060   41.8490 H   0  0  0  0  0  0  0  0  0  0  0  0
  1  7  1  0  0  0  0
  1  2  1  0  0  0  0
  2 32  1  0  0  0  0
  3  2  2  0  0  0  0
  3 25  1  0  0  0  0
  4  3  1  0  0  0  0
  5  6  1  0  0  0  0
  5  4  2  0  0  0  0
  6  1  2  0  0  0  0
  8  5  1  0  0  0  0
  8 17  1  0  0  0  0
  9  8  2  0  0  0  0
 10  9  1  0  0  0  0
 10 11  2  0  0  0  0
 11 12  1  0  0  0  0
 12 17  2  0  0  0  0
 12 13  1  0  0  0  0
 13 14  2  0  0  0  0
 14 15  1  0  0  0  0
 14 20  1  0  0  0  0
 15 21  1  0  0  0  0
 16 22  1  0  0  0  0
 16 15  2  0  0  0  0
 17 16  1  0  0  0  0
 18 10  1  0  0  0  0
 19 13  1  0  0  0  0
 24 31  1  0  0  0  0
 24 23  1  0  0  0  0
 25 24  2  0  0  0  0
 26 28  2  0  0  0  0
 26 25  1  0  0  0  0
 27 26  1  0  0  0  0
 28 30  1  0  0  0  0
 29 28  1  0  0  0  0
 30 31  2  0  0  0  0
 32 34  1  0  0  0  0
 33 32  1  0  0  0  0
M  END
>  <minimizedAffinity>
-6.20825863

$$$$

 OpenBabel03252502033D

 34 37  0  0  0  0  0  0  0  0999 V2000
   36.1970   30.4330   41.0050 C   0  0  0  0  0  0  0  0  0  0  0  0
   37.1600   31.2740   40.4430 C   0  0  0  0  0  0  0  0  0  0  0  0
   38.3030   30.6920   39.9800 C   0  0  0  0  0  0  0  0  0  0  0  0
   38.4510   29.3520   40.0840 N   0  0  0  0  0  0  0  0  0  0  0  0
   37.5310   28.5540   40.6200 C   0  0  0  0  0  0  0  0  0  0  0  0
   36.4240   29.1250   41.0680 N   0  0  0  0  0  0  0  0  0  0  0  0
   35.2870   30.9150   41.3710 H   0  0  0  0  0  0  0  0  0  0  0  0
   37.5100   27.1030   40.8150 C   0  0  0  0  0  0  0  0  0  0  0  0
   36.7060   26.2510   40.1340 N   0  0  0  0  0  0  0  0  0  0  0  0
   36.6570   24.9370   40.2770 C   0  0  0  0  0  0  0  0  0  0  0  0
   37.4750   24.3410   41.1860 N   0  0  0  0  0  0  0  0  0  0  0  0
   38.3240   25.0670   41.9310 C   0  0  0  0  0  0  0  0  0  0  0  0
   39.1440   24.4450   42.8440 C   0  0  0  0  0  0  0  0  0  0  0  0
   40.0130   25.1710   43.6100 C   0  0  0  0  0  0  0  0  0  0  0  0
   40.0400   26.5450   43.4340 C   0  0  0  0  0  0  0  0  0  0  0  0
   39.2000   27.1190   42.5080 C   0  0  0  0  0  0  0  0  0  0  0  0
   38.3100   26.4320   41.7170 C   0  0  0  0  0  0  0  0  0  0  0  0
   35.9860   24.3200   39.6950 H   0  0  0  0  0  0  0  0  0  0  0  0
   39.1090   23.3860   42.9630 H   0  0  0  0  0  0  0  0  0  0  0  0
   40.6940   24.7730   44.3500 H   0  0  0  0  0  0  0  0  0  0  0  0
   40.7050   27.1750   44.0080 H   0  0  0  0  0  0  0  0  0  0  0  0
   39.2510   28.2070   42.3990 H   0  0  0  0  0  0  0  0  0  0  0  0
   40.5780   31.3060   42.0160 Br  0  0  0  0  0  0  0  0  0  0  0  0
   40.5050   31.7410   40.1390 C   0  0  0  0  0  0  0  0  0  0  0  0
   39.4140   31.3950   39.3660 C   0  0  0  0  0  0  0  0  0  0  0  0
   39.5750   31.7980   38.0780 C   0  0  0  0  0  0  0  0  0  0  0  0
   38.7800   31.5770   37.3950 H   0  0  0  0  0  0  0  0  0  0  0  0
   40.6470   32.4640   37.5360 C   0  0  0  0  0  0  0  0  0  0  0  0
   40.6800   32.7390   36.5080 H   0  0  0  0  0  0  0  0  0  0  0  0
   41.6980   32.7770   38.3630 C   0  0  0  0  0  3  0  0  0  0  0  0
   41.6180   32.4070   39.6810 C   0  0  0  0  0  3  0  0  0  0  0  0
   36.9190   32.6530   40.3720 N   0  0  0  0  0  0  0  0  0  0  0  0
   37.3210   32.9330   41.3000 H   0  0  0  0  0  0  0  0  0  0  0  0
   36.4570   32.6840   39.4160 H   0  0  0  0  0  0  0  0  0  0  0  0
  1  6  1  0  0  0  0
  1  7  1  0  0  0  0
  2  1  2  0  0  0  0
  3  4  2  0  0  0  0
  3  2  1  0  0  0  0
  4  5  1  0  0  0  0
  5  8  1  0  0  0  0
  5  6  2  0  0  0  0
  8 17  1  0  0  0  0
  9 10  1  0  0  0  0
  9  8  2  0  0  0  0
 10 11  2  0  0  0  0
 11 12  1  0  0  0  0
 12 13  1  0  0  0  0
 13 19  1  0  0  0  0
 13 14  2  0  0  0  0
 14 20  1  0  0  0  0
 15 14  1  0  0  0  0
 15 21  1  0  0  0  0
 16 15  2  0  0  0  0
 17 12  2  0  0  0  0
 17 16  1  0  0  0  0
 18 10  1  0  0  0  0
 22 16  1  0  0  0  0
 24 23  1  0  0  0  0
 25  3  1  0  0  0  0
 25 24  2  0  0  0  0
 26 25  1  0  0  0  0
 27 26  1  0  0  0  0
 28 26  2  0  0  0  0
 28 30  1  0  0  0  0
 29 28  1  0  0  0  0
 30 31  2  0  0  0  0
 31 24  1  0  0  0  0
 32  2  1  0  0  0  0
 32 33  1  0  0  0  0
 34 32  1  0  0  0  0
M  END
>  <minimizedAffinity>
-6.18609381

$$$$

 OpenBabel03252502033D

 34 37  0  0  0  0  0  0  0  0999 V2000
   36.9510   30.2440   36.9870 C   0  0  0  0  0  0  0  0  0  0  0  0
   37.8970   31.2720   36.9930 C   0  0  0  0  0  0  0  0  0  0  0  0
   38.9340   31.1620   37.8720 C   0  0  0  0  0  0  0  0  0  0  0  0
   38.9980   30.0840   38.6850 N   0  0  0  0  0  0  0  0  0  0  0  0
   38.0950   29.1060   38.6770 C   0  0  0  0  0  0  0  0  0  0  0  0
   37.0910   29.2190   37.8210 N   0  0  0  0  0  0  0  0  0  0  0  0
   36.1270   30.3470   36.2770 H   0  0  0  0  0  0  0  0  0  0  0  0
   37.9990   27.8770   39.4680 C   0  0  0  0  0  0  0  0  0  0  0  0
   38.1120   26.6280   38.9570 N   0  0  0  0  0  0  0  0  0  0  0  0
   38.0330   25.4950   39.6340 C   0  0  0  0  0  0  0  0  0  0  0  0
   37.8190   25.5410   40.9760 N   0  0  0  0  0  0  0  0  0  0  0  0
   37.6870   26.7160   41.6150 C   0  0  0  0  0  0  0  0  0  0  0  0
   37.4710   26.7410   42.9730 C   0  0  0  0  0  0  0  0  0  0  0  0
   37.3350   27.9300   43.6350 C   0  0  0  0  0  0  0  0  0  0  0  0
   37.4230   29.0970   42.8960 C   0  0  0  0  0  0  0  0  0  0  0  0
   37.6400   29.0180   41.5400 C   0  0  0  0  0  0  0  0  0  0  0  0
   37.7830   27.8500   40.8310 C   0  0  0  0  0  0  0  0  0  0  0  0
   38.1340   24.5300   39.1550 H   0  0  0  0  0  0  0  0  0  0  0  0
   37.4070   25.8310   43.5230 H   0  0  0  0  0  0  0  0  0  0  0  0
   37.1640   28.0490   44.6960 H   0  0  0  0  0  0  0  0  0  0  0  0
   37.3250   30.0690   43.3610 H   0  0  0  0  0  0  0  0  0  0  0  0
   37.7030   29.9640   40.9920 H   0  0  0  0  0  0  0  0  0  0  0  0
   38.4560   33.0920   40.2700 Br  0  0  0  0  0  0  0  0  0  0  0  0
   39.9460   33.0510   39.0460 C   0  0  0  0  0  0  0  0  0  0  0  0
   40.0100   32.1230   38.0250 C   0  0  0  0  0  0  0  0  0  0  0  0
   41.1410   32.2770   37.2890 C   0  0  0  0  0  0  0  0  0  0  0  0
   41.2850   31.6030   36.4690 H   0  0  0  0  0  0  0  0  0  0  0  0
   42.1390   33.2040   37.4690 C   0  0  0  0  0  0  0  0  0  0  0  0
   42.9920   33.2450   36.8350 H   0  0  0  0  0  0  0  0  0  0  0  0
   42.0120   34.0980   38.5050 C   0  0  0  0  0  3  0  0  0  0  0  0
   40.8970   34.0130   39.2990 C   0  0  0  0  0  3  0  0  0  0  0  0
   37.7520   32.3510   36.1100 N   0  0  0  0  0  0  0  0  0  0  0  0
   37.1730   32.9790   36.7190 H   0  0  0  0  0  0  0  0  0  0  0  0
   38.3050   31.9610   35.2910 H   0  0  0  0  0  0  0  0  0  0  0  0
  1  2  2  0  0  0  0
  1  6  1  0  0  0  0
  2  3  1  0  0  0  0
  3 25  1  0  0  0  0
  3  4  2  0  0  0  0
  5  4  1  0  0  0  0
  5  8  1  0  0  0  0
  6  5  2  0  0  0  0
  7  1  1  0  0  0  0
  8 17  1  0  0  0  0
  9  8  2  0  0  0  0
  9 10  1  0  0  0  0
 10 11  2  0  0  0  0
 11 12  1  0  0  0  0
 12 13  1  0  0  0  0
 13 19  1  0  0  0  0
 13 14  2  0  0  0  0
 14 20  1  0  0  0  0
 15 21  1  0  0  0  0
 15 14  1  0  0  0  0
 16 15  2  0  0  0  0
 17 16  1  0  0  0  0
 17 12  2  0  0  0  0
 18 10  1  0  0  0  0
 22 16  1  0  0  0  0
 24 31  1  0  0  0  0
 24 23  1  0  0  0  0
 25 24  2  0  0  0  0
 26 28  2  0  0  0  0
 26 25  1  0  0  0  0
 27 26  1  0  0  0  0
 28 30  1  0  0  0  0
 29 28  1  0  0  0  0
 30 31  2  0  0  0  0
 32 33  1  0  0  0  0
 32  2  1  0  0  0  0
 34 32  1  0  0  0  0
M  END
>  <minimizedAffinity>
-6.16615725

$$$$

 OpenBabel03252502033D

 34 37  0  0  0  0  0  0  0  0999 V2000
   37.2260   31.1310   38.2640 C   0  0  0  0  0  0  0  0  0  0  0  0
   38.4450   31.4240   37.6490 C   0  0  0  0  0  0  0  0  0  0  0  0
   39.5720   30.9120   38.2210 C   0  0  0  0  0  0  0  0  0  0  0  0
   39.4610   30.1590   39.3380 N   0  0  0  0  0  0  0  0  0  0  0  0
   38.2980   29.8810   39.9210 C   0  0  0  0  0  0  0  0  0  0  0  0
   37.2080   30.3810   39.3600 N   0  0  0  0  0  0  0  0  0  0  0  0
   36.3320   31.5480   37.7920 H   0  0  0  0  0  0  0  0  0  0  0  0
   37.9820   29.0930   41.1150 C   0  0  0  0  0  0  0  0  0  0  0  0
   37.9770   29.5850   42.3770 N   0  0  0  0  0  0  0  0  0  0  0  0
   37.6960   28.9090   43.4790 C   0  0  0  0  0  0  0  0  0  0  0  0
   37.3760   27.5910   43.3820 N   0  0  0  0  0  0  0  0  0  0  0  0
   37.3430   26.9740   42.1900 C   0  0  0  0  0  0  0  0  0  0  0  0
   37.0170   25.6400   42.1140 C   0  0  0  0  0  0  0  0  0  0  0  0
   36.9800   24.9990   40.9060 C   0  0  0  0  0  0  0  0  0  0  0  0
   37.2790   25.7350   39.7720 C   0  0  0  0  0  0  0  0  0  0  0  0
   37.5980   27.0670   39.9020 C   0  0  0  0  0  0  0  0  0  0  0  0
   37.6500   27.7530   41.0910 C   0  0  0  0  0  0  0  0  0  0  0  0
   37.7120   29.3720   44.4560 H   0  0  0  0  0  0  0  0  0  0  0  0
   36.7900   25.0910   42.9990 H   0  0  0  0  0  0  0  0  0  0  0  0
   36.7350   23.9580   40.7470 H   0  0  0  0  0  0  0  0  0  0  0  0
   37.2660   25.2870   38.7880 H   0  0  0  0  0  0  0  0  0  0  0  0
   37.8290   27.6140   38.9820 H   0  0  0  0  0  0  0  0  0  0  0  0
   40.8430   33.5490   39.2860 Br  0  0  0  0  0  0  0  0  0  0  0  0
   41.6260   32.2320   38.1140 C   0  0  0  0  0  0  0  0  0  0  0  0
   40.9240   31.1060   37.7320 C   0  0  0  0  0  0  0  0  0  0  0  0
   41.6650   30.3190   36.9090 C   0  0  0  0  0  0  0  0  0  0  0  0
   41.2090   29.4170   36.5540 H   0  0  0  0  0  0  0  0  0  0  0  0
   42.9470   30.5410   36.4680 C   0  0  0  0  0  0  0  0  0  0  0  0
   43.4470   29.8600   35.8200 H   0  0  0  0  0  0  0  0  0  0  0  0
   43.5870   31.6820   36.8880 C   0  0  0  0  0  3  0  0  0  0  0  0
   42.9100   32.5330   37.7230 C   0  0  0  0  0  3  0  0  0  0  0  0
   38.4640   32.2110   36.4890 N   0  0  0  0  0  0  0  0  0  0  0  0
   38.5460   33.1550   36.9390 H   0  0  0  0  0  0  0  0  0  0  0  0
   38.3850   31.4340   35.7690 H   0  0  0  0  0  0  0  0  0  0  0  0
  1  6  1  0  0  0  0
  2  3  1  0  0  0  0
  2  1  2  0  0  0  0
  3  4  2  0  0  0  0
  4  5  1  0  0  0  0
  5  8  1  0  0  0  0
  6  5  2  0  0  0  0
  7  1  1  0  0  0  0
  8  9  1  0  0  0  0
  9 10  2  0  0  0  0
 10 18  1  0  0  0  0
 11 10  1  0  0  0  0
 12 11  2  0  0  0  0
 13 12  1  0  0  0  0
 13 19  1  0  0  0  0
 14 13  2  0  0  0  0
 15 16  2  0  0  0  0
 15 14  1  0  0  0  0
 16 17  1  0  0  0  0
 17  8  2  0  0  0  0
 17 12  1  0  0  0  0
 20 14  1  0  0  0  0
 21 15  1  0  0  0  0
 22 16  1  0  0  0  0
 24 23  1  0  0  0  0
 25 24  1  0  0  0  0
 25  3  1  0  0  0  0
 26 25  2  0  0  0  0
 27 26  1  0  0  0  0
 28 30  2  0  0  0  0
 28 26  1  0  0  0  0
 29 28  1  0  0  0  0
 30 31  1  0  0  0  0
 31 24  2  0  0  0  0
 32 33  1  0  0  0  0
 32  2  1  0  0  0  0
 34 32  1  0  0  0  0
M  END
>  <minimizedAffinity>
-6.13784885

$$$$

 OpenBabel03252502033D

 34 37  0  0  0  0  0  0  0  0999 V2000
   37.3900   29.7180   42.4000 C   0  0  0  0  0  0  0  0  0  0  0  0
   36.5840   29.8890   41.2720 C   0  0  0  0  0  0  0  0  0  0  0  0
   36.6550   28.9310   40.3040 C   0  0  0  0  0  0  0  0  0  0  0  0
   37.4860   27.8790   40.4750 N   0  0  0  0  0  0  0  0  0  0  0  0
   38.2520   27.7190   41.5520 C   0  0  0  0  0  0  0  0  0  0  0  0
   38.1790   28.6520   42.4880 N   0  0  0  0  0  0  0  0  0  0  0  0
   37.3210   30.4940   43.1670 H   0  0  0  0  0  0  0  0  0  0  0  0
   39.1980   26.6610   41.9120 C   0  0  0  0  0  0  0  0  0  0  0  0
   38.9400   25.6760   42.8060 N   0  0  0  0  0  0  0  0  0  0  0  0
   39.7640   24.7030   43.1580 C   0  0  0  0  0  0  0  0  0  0  0  0
   40.9990   24.6470   42.5940 N   0  0  0  0  0  0  0  0  0  0  0  0
   41.3880   25.5620   41.6900 C   0  0  0  0  0  0  0  0  0  0  0  0
   42.6420   25.4880   41.1310 C   0  0  0  0  0  0  0  0  0  0  0  0
   43.0510   26.4130   40.2100 C   0  0  0  0  0  0  0  0  0  0  0  0
   42.1640   27.4180   39.8630 C   0  0  0  0  0  0  0  0  0  0  0  0
   40.9210   27.4480   40.4520 C   0  0  0  0  0  0  0  0  0  0  0  0
   40.4660   26.5430   41.3800 C   0  0  0  0  0  0  0  0  0  0  0  0
   39.4860   23.9490   43.8820 H   0  0  0  0  0  0  0  0  0  0  0  0
   43.3100   24.7060   41.4110 H   0  0  0  0  0  0  0  0  0  0  0  0
   44.0140   26.4360   39.7180 H   0  0  0  0  0  0  0  0  0  0  0  0
   42.4270   28.1790   39.1410 H   0  0  0  0  0  0  0  0  0  0  0  0
   40.2500   28.2590   40.1510 H   0  0  0  0  0  0  0  0  0  0  0  0
   38.3480   29.9420   37.8930 Br  0  0  0  0  0  0  0  0  0  0  0  0
   36.5110   29.3560   37.9010 C   0  0  0  0  0  0  0  0  0  0  0  0
   35.8990   28.9330   39.0650 C   0  0  0  0  0  0  0  0  0  0  0  0
   34.6110   28.5670   38.8400 C   0  0  0  0  0  0  0  0  0  0  0  0
   34.0460   28.2230   39.6820 H   0  0  0  0  0  0  0  0  0  0  0  0
   33.9310   28.5850   37.6460 C   0  0  0  0  0  0  0  0  0  0  0  0
   32.9150   28.2760   37.5700 H   0  0  0  0  0  0  0  0  0  0  0  0
   34.6000   29.0170   36.5270 C   0  0  0  0  0  3  0  0  0  0  0  0
   35.9080   29.4060   36.6660 C   0  0  0  0  0  3  0  0  0  0  0  0
   35.7480   31.0100   41.1810 N   0  0  0  0  0  0  0  0  0  0  0  0
   36.4170   31.6710   40.7150 H   0  0  0  0  0  0  0  0  0  0  0  0
   34.8800   30.5980   41.6340 H   0  0  0  0  0  0  0  0  0  0  0  0
  1  6  1  0  0  0  0
  1  7  1  0  0  0  0
  2  1  2  0  0  0  0
  3  4  2  0  0  0  0
  3  2  1  0  0  0  0
  4  5  1  0  0  0  0
  5  8  1  0  0  0  0
  5  6  2  0  0  0  0
  8  9  1  0  0  0  0
  9 10  2  0  0  0  0
 10 18  1  0  0  0  0
 11 10  1  0  0  0  0
 12 11  2  0  0  0  0
 13 19  1  0  0  0  0
 13 12  1  0  0  0  0
 14 13  2  0  0  0  0
 15 14  1  0  0  0  0
 15 16  2  0  0  0  0
 16 17  1  0  0  0  0
 17 12  1  0  0  0  0
 17  8  2  0  0  0  0
 20 14  1  0  0  0  0
 21 15  1  0  0  0  0
 22 16  1  0  0  0  0
 23 24  1  0  0  0  0
 24 25  1  0  0  0  0
 25  3  1  0  0  0  0
 26 25  2  0  0  0  0
 26 27  1  0  0  0  0
 28 26  1  0  0  0  0
 29 28  1  0  0  0  0
 30 31  1  0  0  0  0
 30 28  2  0  0  0  0
 31 24  2  0  0  0  0
 32  2  1  0  0  0  0
 32 34  1  0  0  0  0
 33 32  1  0  0  0  0
M  END
>  <minimizedAffinity>
-5.7410326

$$$$

 OpenBabel03252502033D

 34 37  0  0  0  0  0  0  0  0999 V2000
   40.4550   33.6920   39.0220 C   0  0  0  0  0  0  0  0  0  0  0  0
   41.4650   33.2430   38.1680 C   0  0  0  0  0  0  0  0  0  0  0  0
   41.7350   31.9060   38.1700 C   0  0  0  0  0  0  0  0  0  0  0  0
   41.0270   31.0900   38.9830 N   0  0  0  0  0  0  0  0  0  0  0  0
   40.0650   31.5220   39.7950 C   0  0  0  0  0  0  0  0  0  0  0  0
   39.8080   32.8200   39.7890 N   0  0  0  0  0  0  0  0  0  0  0  0
   40.2500   34.7660   39.0080 H   0  0  0  0  0  0  0  0  0  0  0  0
   39.2000   30.8010   40.7320 C   0  0  0  0  0  0  0  0  0  0  0  0
   39.5210   30.5380   42.0220 N   0  0  0  0  0  0  0  0  0  0  0  0
   38.7700   29.8940   42.8990 C   0  0  0  0  0  0  0  0  0  0  0  0
   37.5500   29.4340   42.5130 N   0  0  0  0  0  0  0  0  0  0  0  0
   37.1040   29.6250   41.2600 C   0  0  0  0  0  0  0  0  0  0  0  0
   35.8670   29.1530   40.8890 C   0  0  0  0  0  0  0  0  0  0  0  0
   35.4010   29.3400   39.6170 C   0  0  0  0  0  0  0  0  0  0  0  0
   36.2130   30.0190   38.7240 C   0  0  0  0  0  0  0  0  0  0  0  0
   37.4420   30.4720   39.1440 C   0  0  0  0  0  0  0  0  0  0  0  0
   37.9530   30.3070   40.4090 C   0  0  0  0  0  0  0  0  0  0  0  0
   39.0950   29.7210   43.9160 H   0  0  0  0  0  0  0  0  0  0  0  0
   35.2580   28.6330   41.5930 H   0  0  0  0  0  0  0  0  0  0  0  0
   34.4460   29.0070   39.2350 H   0  0  0  0  0  0  0  0  0  0  0  0
   35.9020   30.2000   37.7040 H   0  0  0  0  0  0  0  0  0  0  0  0
   38.0530   31.0030   38.4070 H   0  0  0  0  0  0  0  0  0  0  0  0
   44.5550   32.0040   39.4890 Br  0  0  0  0  0  0  0  0  0  0  0  0
   44.0500   31.2110   37.8050 C   0  0  0  0  0  0  0  0  0  0  0  0
   42.7440   31.2530   37.3570 C   0  0  0  0  0  0  0  0  0  0  0  0
   42.6160   30.6360   36.1530 C   0  0  0  0  0  0  0  0  0  0  0  0
   41.6370   30.6140   35.7180 H   0  0  0  0  0  0  0  0  0  0  0  0
   43.6010   30.0280   35.4140 C   0  0  0  0  0  0  0  0  0  0  0  0
   43.4000   29.5690   34.4750 H   0  0  0  0  0  0  0  0  0  0  0  0
   44.8780   30.0230   35.9190 C   0  0  0  0  0  3  0  0  0  0  0  0
   45.0970   30.6250   37.1320 C   0  0  0  0  0  3  0  0  0  0  0  0
   42.1440   34.1610   37.3560 N   0  0  0  0  0  0  0  0  0  0  0  0
   42.9170   34.4180   38.0180 H   0  0  0  0  0  0  0  0  0  0  0  0
   41.5160   34.1110   36.5000 H   0  0  0  0  0  0  0  0  0  0  0  0
  1  6  1  0  0  0  0
  2  3  1  0  0  0  0
  2  1  2  0  0  0  0
  3  4  2  0  0  0  0
  4  5  1  0  0  0  0
  5  8  1  0  0  0  0
  6  5  2  0  0  0  0
  7  1  1  0  0  0  0
  8  9  1  0  0  0  0
  9 10  2  0  0  0  0
 10 18  1  0  0  0  0
 11 10  1  0  0  0  0
 12 11  2  0  0  0  0
 13 12  1  0  0  0  0
 13 19  1  0  0  0  0
 14 13  2  0  0  0  0
 15 16  2  0  0  0  0
 15 14  1  0  0  0  0
 16 17  1  0  0  0  0
 17  8  2  0  0  0  0
 17 12  1  0  0  0  0
 20 14  1  0  0  0  0
 21 15  1  0  0  0  0
 22 16  1  0  0  0  0
 24 23  1  0  0  0  0
 25 24  1  0  0  0  0
 25  3  1  0  0  0  0
 26 25  2  0  0  0  0
 27 26  1  0  0  0  0
 28 30  2  0  0  0  0
 28 26  1  0  0  0  0
 29 28  1  0  0  0  0
 30 31  1  0  0  0  0
 31 24  2  0  0  0  0
 32 33  1  0  0  0  0
 32  2  1  0  0  0  0
 34 32  1  0  0  0  0
M  END
>  <minimizedAffinity>
-5.72421265

$$$$
