
 OpenBabel03252506053D

 43 47  0  0  0  0  0  0  0  0999 V2000
   44.8210   35.9610   43.1610 Cl  0  0  0  0  0  0  0  0  0  0  0  0
   45.5600   34.7260   44.1240 C   0  0  0  0  0  0  0  0  0  0  0  0
   46.6430   34.0190   43.6370 C   0  0  0  0  0  0  0  0  0  0  0  0
   47.1580   33.0550   44.4850 C   0  0  0  0  0  0  0  0  0  0  0  0
   46.6700   32.7700   45.7410 C   0  0  0  0  0  0  0  0  0  0  0  0
   45.5970   33.4910   46.1890 C   0  0  0  0  0  0  0  0  0  0  0  0
   45.0130   33.0910   47.7950 Cl  0  0  0  0  0  0  0  0  0  0  0  0
   45.0480   34.4550   45.3950 C   0  0  0  0  0  0  0  0  0  0  0  0
   48.0130   32.5050   44.0880 H   0  0  0  0  0  0  0  0  0  0  0  0
   44.1990   35.0090   45.7760 H   0  0  0  0  0  0  0  0  0  0  0  0
   47.3560   31.7100   46.4850 C   0  0  0  0  0  0  0  0  0  0  0  0
   47.4840   30.4170   46.0130 C   0  0  0  0  0  0  0  0  0  0  0  0
   48.1260   29.4040   46.6990 C   0  0  0  0  0  0  0  0  0  0  0  0
   48.6800   29.6790   47.9280 C   0  0  0  0  0  0  0  0  0  0  0  0
   49.3000   28.6810   48.5800 N   0  0  0  0  0  0  0  0  0  0  0  0
   49.8750   28.8590   49.7940 C   0  0  0  0  0  0  0  0  0  0  0  0
   49.7880   30.1340   50.3330 C   0  0  0  0  0  0  0  0  0  0  0  0
   49.1580   31.1520   49.6760 C   0  0  0  0  0  0  0  0  0  0  0  0
   48.5780   30.9480   48.4340 C   0  0  0  0  0  0  0  0  0  0  0  0
   47.9320   31.9440   47.7340 C   0  0  0  0  0  0  0  0  0  0  0  0
   47.0480   30.1980   45.0460 H   0  0  0  0  0  0  0  0  0  0  0  0
   48.1740   28.4230   46.2480 H   0  0  0  0  0  0  0  0  0  0  0  0
   50.3590   28.0280   50.2720 H   0  0  0  0  0  0  0  0  0  0  0  0
   50.2410   30.2980   51.3040 H   0  0  0  0  0  0  0  0  0  0  0  0
   49.0910   32.1460   50.0980 H   0  0  0  0  0  0  0  0  0  0  0  0
   47.8710   32.9350   48.1650 H   0  0  0  0  0  0  0  0  0  0  0  0
   48.6780   35.4500   40.9760 C   0  0  0  0  0  0  0  0  0  0  0  0
   48.2720   34.7290   39.8440 C   0  0  0  0  0  0  0  0  0  0  0  0
   47.2840   33.7360   39.9980 C   0  0  0  0  0  0  0  0  0  0  0  0
   46.8140   33.5710   41.2470 N   0  0  0  0  0  0  0  0  0  0  0  0
   47.2110   34.2680   42.3200 C   0  0  0  0  0  0  0  0  0  0  0  0
   48.1480   35.2140   42.1950 N   0  0  0  0  0  0  0  0  0  0  0  0
   49.4410   36.2090   40.8300 H   0  0  0  0  0  0  0  0  0  0  0  0
   48.6950   34.9160   38.8690 H   0  0  0  0  0  0  0  0  0  0  0  0
   49.0340   31.2550   39.5790 Br  0  0  0  0  0  0  0  0  0  0  0  0
   47.4820   31.7820   38.5710 C   0  0  0  0  0  0  0  0  0  0  0  0
   46.7960   32.9360   38.8830 C   0  0  0  0  0  0  0  0  0  0  0  0
   45.7020   33.2500   38.1270 C   0  0  0  0  0  0  0  0  0  0  0  0
   45.1380   34.1420   38.3380 H   0  0  0  0  0  0  0  0  0  0  0  0
   45.3440   32.4100   37.1010 C   0  0  0  0  0  0  0  0  0  0  0  0
   44.4670   32.6780   36.5060 H   0  0  0  0  0  0  0  0  0  0  0  0
   46.0170   31.2520   36.7720 C   0  0  0  0  0  3  0  0  0  0  0  0
   47.1350   30.9410   37.5550 C   0  0  0  0  0  3  0  0  0  0  0  0
  1  2  1  0  0  0  0
  2  8  1  0  0  0  0
  3  2  2  0  0  0  0
  3  4  1  0  0  0  0
  4  5  2  0  0  0  0
  5  6  1  0  0  0  0
  5 11  1  0  0  0  0
  6  7  1  0  0  0  0
  8 10  1  0  0  0  0
  8  6  2  0  0  0  0
  9  4  1  0  0  0  0
 11 20  1  0  0  0  0
 12 11  2  0  0  0  0
 12 13  1  0  0  0  0
 13 14  2  0  0  0  0
 14 19  1  0  0  0  0
 14 15  1  0  0  0  0
 15 16  2  0  0  0  0
 16 23  1  0  0  0  0
 16 17  1  0  0  0  0
 17 24  1  0  0  0  0
 18 25  1  0  0  0  0
 18 17  2  0  0  0  0
 19 18  1  0  0  0  0
 20 26  1  0  0  0  0
 20 19  2  0  0  0  0
 21 12  1  0  0  0  0
 22 13  1  0  0  0  0
 27 32  1  0  0  0  0
 28 29  1  0  0  0  0
 28 27  2  0  0  0  0
 29 30  2  0  0  0  0
 30 31  1  0  0  0  0
 31  3  1  0  0  0  0
 32 31  2  0  0  0  0
 33 27  1  0  0  0  0
 34 28  1  0  0  0  0
 36 37  1  0  0  0  0
 36 35  1  0  0  0  0
 37 29  1  0  0  0  0
 38 39  1  0  0  0  0
 38 37  2  0  0  0  0
 40 38  1  0  0  0  0
 41 40  1  0  0  0  0
 42 40  2  0  0  0  0
 42 43  1  0  0  0  0
 43 36  2  0  0  0  0
M  END
>  <minimizedAffinity>
-7.00659084

>  <minimizedRMSD>
0.390090764

$$$$
