
 OpenBabel03252504113D

 25 26  0  0  0  0  0  0  0  0999 V2000
   46.9920   33.9510   43.2590 C   0  0  0  0  0  0  0  0  0  0  0  0
   45.6870   33.7910   42.8100 C   0  0  0  0  0  0  0  0  0  0  0  0
   44.9620   32.6970   43.2870 C   0  0  0  0  0  0  0  0  0  0  0  0
   45.5710   31.8500   44.1620 N   0  0  0  0  0  0  0  0  0  0  0  0
   46.8420   32.0480   44.5710 C   0  0  0  0  0  0  0  0  0  0  0  0
   47.5580   33.0840   44.1330 N   0  0  0  0  0  0  0  0  0  0  0  0
   43.9460   32.5510   42.9520 H   0  0  0  0  0  0  0  0  0  0  0  0
   45.9700   32.3850   47.5790 Br  0  0  0  0  0  0  0  0  0  0  0  0
   47.0840   31.0450   46.8600 C   0  0  0  0  0  0  0  0  0  0  0  0
   47.3570   31.0580   45.5100 C   0  0  0  0  0  0  0  0  0  0  0  0
   48.1780   30.0480   45.0580 C   0  0  0  0  0  0  0  0  0  0  0  0
   48.4620   29.9600   44.0050 H   0  0  0  0  0  0  0  0  0  0  0  0
   48.7060   29.0680   45.9050 C   0  0  0  0  0  0  0  0  0  0  0  0
   49.3510   28.2930   45.4880 H   0  0  0  0  0  0  0  0  0  0  0  0
   48.4080   29.0910   47.2510 C   0  0  0  0  0  3  0  0  0  0  0  0
   47.5980   30.0860   47.7030 C   0  0  0  0  0  3  0  0  0  0  0  0
   45.1120   34.7700   41.8540 C   0  0  0  0  0  0  0  0  0  0  0  0
   45.2730   36.0630   42.3560 F   0  0  0  0  0  0  0  0  0  0  0  0
   45.8350   34.7110   40.6880 F   0  0  0  0  0  0  0  0  0  0  0  0
   43.7860   34.6070   41.6020 F   0  0  0  0  0  0  0  0  0  0  0  0
   47.6850   35.0210   42.7860 O   0  0  0  0  0  0  0  0  0  0  0  0
   48.8680   35.0060   42.0300 C   0  0  0  0  0  0  0  0  0  0  0  0
   49.9320   35.1300   42.9460 F   0  0  0  0  0  0  0  0  0  0  0  0
   48.9330   33.8740   41.2880 F   0  0  0  0  0  0  0  0  0  0  0  0
   48.9490   36.1530   41.2640 F   0  0  0  0  0  0  0  0  0  0  0  0
  1  6  1  0  0  0  0
  2  1  2  0  0  0  0
  2  3  1  0  0  0  0
  3  4  2  0  0  0  0
  4  5  1  0  0  0  0
  5 10  1  0  0  0  0
  6  5  2  0  0  0  0
  7  3  1  0  0  0  0
  9  8  1  0  0  0  0
  9 16  1  0  0  0  0
 10  9  2  0  0  0  0
 11 10  1  0  0  0  0
 11 13  2  0  0  0  0
 12 11  1  0  0  0  0
 13 15  1  0  0  0  0
 14 13  1  0  0  0  0
 15 16  2  0  0  0  0
 17 18  1  0  0  0  0
 17  2  1  0  0  0  0
 19 17  1  0  0  0  0
 20 17  1  0  0  0  0
 21  1  1  0  0  0  0
 22 21  1  0  0  0  0
 22 23  1  0  0  0  0
 24 22  1  0  0  0  0
 25 22  1  0  0  0  0
M  END
>  <minimizedAffinity>
-5.19016027

>  <minimizedRMSD>
1.17139852

$$$$
