
 OpenBabel03242514023D

 27 29  0  0  0  0  0  0  0  0999 V2000
   46.7580   34.6880   42.1260 C   0  0  0  0  0  0  0  0  0  0  0  0
   47.9980   35.2910   41.9700 C   0  0  0  0  0  0  0  0  0  0  0  0
   48.7400   35.2370   40.8140 C   0  0  0  0  0  0  0  0  0  0  0  0
   48.1410   34.5090   39.7670 C   0  0  0  0  0  0  0  0  0  0  0  0
   46.9050   33.9020   39.9080 C   0  0  0  0  0  0  0  0  0  0  0  0
   46.2530   34.0140   41.0900 N   0  0  0  0  0  0  0  0  0  0  0  0
   48.3730   35.8270   42.8320 H   0  0  0  0  0  0  0  0  0  0  0  0
   49.6960   35.7100   40.7140 H   0  0  0  0  0  0  0  0  0  0  0  0
   48.7170   34.4610   38.8520 H   0  0  0  0  0  0  0  0  0  0  0  0
   45.5410   33.9900   45.5060 C   0  0  0  0  0  0  0  0  0  0  0  0
   44.6630   35.0480   45.7450 C   0  0  0  0  0  0  0  0  0  0  0  0
   44.4960   35.9960   44.7360 C   0  0  0  0  0  0  0  0  0  0  0  0
   45.1990   35.8410   43.5690 N   0  0  0  0  0  0  0  0  0  0  0  0
   46.0410   34.7960   43.3840 C   0  0  0  0  0  0  0  0  0  0  0  0
   46.2190   33.8770   44.3310 N   0  0  0  0  0  0  0  0  0  0  0  0
   45.7130   33.2310   46.2390 H   0  0  0  0  0  0  0  0  0  0  0  0
   44.1290   35.1320   46.6790 H   0  0  0  0  0  0  0  0  0  0  0  0
   43.8290   36.8340   44.8670 H   0  0  0  0  0  0  0  0  0  0  0  0
   48.3250   34.4050   37.2620 Br  0  0  0  0  0  0  0  0  0  0  0  0
   46.8110   33.2580   37.5450 C   0  0  0  0  0  0  0  0  0  0  0  0
   46.3060   33.1620   38.8320 C   0  0  0  0  0  0  0  0  0  0  0  0
   45.2280   32.3230   38.9420 C   0  0  0  0  0  0  0  0  0  0  0  0
   44.7680   32.1860   39.9060 H   0  0  0  0  0  0  0  0  0  0  0  0
   44.6680   31.6230   37.9030 C   0  0  0  0  0  0  0  0  0  0  0  0
   43.8130   30.9760   38.0660 H   0  0  0  0  0  0  0  0  0  0  0  0
   45.1950   31.7440   36.6450 C   0  0  0  0  0  0  0  0  0  0  0  0
   46.2720   32.5680   36.4810 C   0  0  0  0  0  0  0  0  0  0  0  0
  1 14  1  0  0  0  0
  2  1  1  0  0  0  0
  2  7  1  0  0  0  0
  3  2  2  0  0  0  0
  4  5  2  0  0  0  0
  4  3  1  0  0  0  0
  5  6  1  0  0  0  0
  6  1  2  0  0  0  0
  8  3  1  0  0  0  0
  9  4  1  0  0  0  0
 10 11  1  0  0  0  0
 10 16  1  0  0  0  0
 11 17  1  0  0  0  0
 12 18  1  0  0  0  0
 12 11  2  0  0  0  0
 13 12  1  0  0  0  0
 14 13  2  0  0  0  0
 14 15  1  0  0  0  0
 15 10  2  0  0  0  0
 19 20  1  0  0  0  0
 20 21  1  0  0  0  0
 21 22  2  0  0  0  0
 21  5  1  0  0  0  0
 22 23  1  0  0  0  0
 24 25  1  0  0  0  0
 24 22  1  0  0  0  0
 26 24  2  0  0  0  0
 27 26  1  0  0  0  0
 27 20  2  0  0  0  0
M  END
>  <minimizedAffinity>
-5.76743793

>  <minimizedRMSD>
0.188914984

$$$$
