
 OpenBabel03242521403D

 21 22  0  0  0  0  0  0  0  0999 V2000
   44.7950   34.6320   41.7580 C   0  0  0  0  0  0  0  0  0  0  0  0
   46.0040   33.9620   41.6030 C   0  0  0  0  0  0  0  0  0  0  0  0
   46.8640   33.8580   42.7000 C   0  0  0  0  0  0  0  0  0  0  0  0
   46.4570   34.4240   43.8550 N   0  0  0  0  0  0  0  0  0  0  0  0
   45.2760   35.0690   43.9750 C   0  0  0  0  0  0  0  0  0  0  0  0
   44.4430   35.1730   42.9220 N   0  0  0  0  0  0  0  0  0  0  0  0
   46.2480   33.5450   40.6620 H   0  0  0  0  0  0  0  0  0  0  0  0
   45.0230   35.4980   44.9380 H   0  0  0  0  0  0  0  0  0  0  0  0
   49.0450   35.7510   41.7750 Br  0  0  0  0  0  0  0  0  0  0  0  0
   49.2430   33.8950   42.1870 C   0  0  0  0  0  0  0  0  0  0  0  0
   48.1450   33.1670   42.5980 C   0  0  0  0  0  0  0  0  0  0  0  0
   48.3590   31.8450   42.8760 C   0  0  0  0  0  0  0  0  0  0  0  0
   47.5250   31.2490   43.1990 H   0  0  0  0  0  0  0  0  0  0  0  0
   49.6090   31.2690   42.7520 C   0  0  0  0  0  0  0  0  0  0  0  0
   49.7180   30.2080   42.9880 H   0  0  0  0  0  0  0  0  0  0  0  0
   50.6800   32.0350   42.3380 C   0  0  0  0  0  3  0  0  0  0  0  0
   50.5140   33.3780   42.0450 C   0  0  0  0  0  3  0  0  0  0  0  0
   43.9040   34.7210   40.5630 C   0  0  0  0  0  0  0  0  0  0  0  0
   42.8450   34.8740   40.8450 H   0  0  0  0  0  0  0  0  0  0  0  0
   44.0310   33.8160   39.9450 H   0  0  0  0  0  0  0  0  0  0  0  0
   44.2920   35.5790   39.9710 H   0  0  0  0  0  0  0  0  0  0  0  0
  1  6  1  0  0  0  0
  2  1  2  0  0  0  0
  2  3  1  0  0  0  0
  3  4  2  0  0  0  0
  4  5  1  0  0  0  0
  5  8  1  0  0  0  0
  6  5  2  0  0  0  0
  7  2  1  0  0  0  0
  9 10  1  0  0  0  0
 10 11  1  0  0  0  0
 11  3  1  0  0  0  0
 11 12  2  0  0  0  0
 12 13  1  0  0  0  0
 14 12  1  0  0  0  0
 14 15  1  0  0  0  0
 16 14  2  0  0  0  0
 17 10  2  0  0  0  0
 17 16  1  0  0  0  0
 18 19  1  0  0  0  0
 18  1  1  0  0  0  0
 20 18  1  0  0  0  0
 21 18  1  0  0  0  0
M  END
>  <minimizedAffinity>
-4.09307432

>  <minimizedRMSD>
1.92311716

$$$$
