
 OpenBabel03242512593D

 28 30  0  0  0  0  0  0  0  0999 V2000
   39.0760   27.3270   40.4320 F   0  0  0  0  0  0  0  0  0  0  0  0
   38.2620   27.5300   41.5150 C   0  0  0  0  0  0  0  0  0  0  0  0
   38.2150   28.7350   42.1630 C   0  0  0  0  0  0  0  0  0  0  0  0
   37.3680   28.8350   43.2370 C   0  0  0  0  0  0  0  0  0  0  0  0
   36.5820   27.8040   43.6800 C   0  0  0  0  0  0  0  0  0  0  0  0
   36.6640   26.6140   42.9970 C   0  0  0  0  0  0  0  0  0  0  0  0
   37.4960   26.4570   41.9130 C   0  0  0  0  0  0  0  0  0  0  0  0
   37.3430   29.8020   43.7430 H   0  0  0  0  0  0  0  0  0  0  0  0
   35.9290   27.9280   44.5310 H   0  0  0  0  0  0  0  0  0  0  0  0
   36.0530   25.7800   43.3250 H   0  0  0  0  0  0  0  0  0  0  0  0
   41.0080   31.2740   41.8190 C   0  0  0  0  0  0  0  0  0  0  0  0
   40.2180   30.2300   42.3300 C   0  0  0  0  0  0  0  0  0  0  0  0
   39.0670   29.8170   41.6660 C   0  0  0  0  0  0  0  0  0  0  0  0
   38.7710   30.4800   40.5130 N   0  0  0  0  0  0  0  0  0  0  0  0
   39.5380   31.4720   40.0400 C   0  0  0  0  0  0  0  0  0  0  0  0
   40.6370   31.8670   40.6760 N   0  0  0  0  0  0  0  0  0  0  0  0
   41.8840   31.5560   42.3660 H   0  0  0  0  0  0  0  0  0  0  0  0
   40.4370   29.6920   43.2450 H   0  0  0  0  0  0  0  0  0  0  0  0
   39.1220   31.8620   39.1130 H   0  0  0  0  0  0  0  0  0  0  0  0
   39.6640   24.4070   42.9090 Br  0  0  0  0  0  0  0  0  0  0  0  0
   38.4500   24.1450   41.4590 C   0  0  0  0  0  0  0  0  0  0  0  0
   37.5770   25.1780   41.1890 C   0  0  0  0  0  0  0  0  0  0  0  0
   36.6490   25.1120   40.1670 C   0  0  0  0  0  0  0  0  0  0  0  0
   35.9380   25.8790   39.9010 H   0  0  0  0  0  0  0  0  0  0  0  0
   36.5800   23.9740   39.3740 C   0  0  0  0  0  0  0  0  0  0  0  0
   35.8620   23.8810   38.5570 H   0  0  0  0  0  0  0  0  0  0  0  0
   37.4580   22.9480   39.6540 C   0  0  0  0  0  3  0  0  0  0  0  0
   38.3880   23.0040   40.6730 C   0  0  0  0  0  3  0  0  0  0  0  0
  1  2  1  0  0  0  0
  2  7  2  0  0  0  0
  2  3  1  0  0  0  0
  3  4  2  0  0  0  0
  4  5  1  0  0  0  0
  4  8  1  0  0  0  0
  5  9  1  0  0  0  0
  6 10  1  0  0  0  0
  6  5  2  0  0  0  0
  7  6  1  0  0  0  0
 11 12  1  0  0  0  0
 11 17  1  0  0  0  0
 12 18  1  0  0  0  0
 13  3  1  0  0  0  0
 13 12  2  0  0  0  0
 14 13  1  0  0  0  0
 15 14  2  0  0  0  0
 15 16  1  0  0  0  0
 16 11  2  0  0  0  0
 19 15  1  0  0  0  0
 21 20  1  0  0  0  0
 22 21  1  0  0  0  0
 22  7  1  0  0  0  0
 23 22  2  0  0  0  0
 24 23  1  0  0  0  0
 25 27  2  0  0  0  0
 25 23  1  0  0  0  0
 26 25  1  0  0  0  0
 27 28  1  0  0  0  0
 28 21  2  0  0  0  0
M  END
>  <minimizedAffinity>
-5.29426527

$$$$

 OpenBabel03242512593D

 28 30  0  0  0  0  0  0  0  0999 V2000
   39.1210   28.3390   40.1910 F   0  0  0  0  0  0  0  0  0  0  0  0
   37.9360   29.0260   40.1990 C   0  0  0  0  0  0  0  0  0  0  0  0
   37.8670   30.3460   39.8410 C   0  0  0  0  0  0  0  0  0  0  0  0
   36.6320   30.9420   39.8840 C   0  0  0  0  0  0  0  0  0  0  0  0
   35.4890   30.2880   40.2600 C   0  0  0  0  0  0  0  0  0  0  0  0
   35.6090   28.9640   40.6100 C   0  0  0  0  0  0  0  0  0  0  0  0
   36.8210   28.3160   40.5860 C   0  0  0  0  0  0  0  0  0  0  0  0
   36.5950   31.9940   39.5970 H   0  0  0  0  0  0  0  0  0  0  0  0
   34.5370   30.7980   40.2790 H   0  0  0  0  0  0  0  0  0  0  0  0
   34.7200   28.4210   40.9120 H   0  0  0  0  0  0  0  0  0  0  0  0
   40.6380   31.9020   37.7760 C   0  0  0  0  0  0  0  0  0  0  0  0
   39.4370   31.2550   38.1140 C   0  0  0  0  0  0  0  0  0  0  0  0
   39.1070   31.0160   39.4450 C   0  0  0  0  0  0  0  0  0  0  0  0
   40.0090   31.4450   40.3720 N   0  0  0  0  0  0  0  0  0  0  0  0
   41.1490   32.0610   40.0300 C   0  0  0  0  0  0  0  0  0  0  0  0
   41.4640   32.2880   38.7580 N   0  0  0  0  0  0  0  0  0  0  0  0
   40.8480   32.0630   36.7390 H   0  0  0  0  0  0  0  0  0  0  0  0
   38.7080   30.9070   37.3920 H   0  0  0  0  0  0  0  0  0  0  0  0
   41.7210   32.3170   40.9190 H   0  0  0  0  0  0  0  0  0  0  0  0
   37.4370   27.7080   43.6090 Br  0  0  0  0  0  0  0  0  0  0  0  0
   37.2020   26.4120   42.2270 C   0  0  0  0  0  0  0  0  0  0  0  0
   36.9380   26.8970   40.9630 C   0  0  0  0  0  0  0  0  0  0  0  0
   36.7480   26.0640   39.8780 C   0  0  0  0  0  0  0  0  0  0  0  0
   36.5380   26.3730   38.8650 H   0  0  0  0  0  0  0  0  0  0  0  0
   36.8220   24.6870   40.0460 C   0  0  0  0  0  0  0  0  0  0  0  0
   36.6780   23.9940   39.2160 H   0  0  0  0  0  0  0  0  0  0  0  0
   37.0880   24.2150   41.3140 C   0  0  0  0  0  3  0  0  0  0  0  0
   37.2780   25.0390   42.4050 C   0  0  0  0  0  3  0  0  0  0  0  0
  1  2  1  0  0  0  0
  2  7  1  0  0  0  0
  3  4  1  0  0  0  0
  3  2  2  0  0  0  0
  4  5  2  0  0  0  0
  5  9  1  0  0  0  0
  5  6  1  0  0  0  0
  6 10  1  0  0  0  0
  7  6  2  0  0  0  0
  7 22  1  0  0  0  0
  8  4  1  0  0  0  0
 11 12  2  0  0  0  0
 11 16  1  0  0  0  0
 12 13  1  0  0  0  0
 13  3  1  0  0  0  0
 13 14  2  0  0  0  0
 15 14  1  0  0  0  0
 15 19  1  0  0  0  0
 16 15  2  0  0  0  0
 17 11  1  0  0  0  0
 18 12  1  0  0  0  0
 21 28  1  0  0  0  0
 21 20  1  0  0  0  0
 22 21  2  0  0  0  0
 23 25  2  0  0  0  0
 23 22  1  0  0  0  0
 24 23  1  0  0  0  0
 25 27  1  0  0  0  0
 26 25  1  0  0  0  0
 27 28  2  0  0  0  0
M  END
>  <minimizedAffinity>
-5.28473806

$$$$

 OpenBabel03242512593D

 28 30  0  0  0  0  0  0  0  0999 V2000
   39.9410   29.7030   40.3450 F   0  0  0  0  0  0  0  0  0  0  0  0
   38.9820   30.6680   40.1820 C   0  0  0  0  0  0  0  0  0  0  0  0
   39.2380   31.8290   39.5030 C   0  0  0  0  0  0  0  0  0  0  0  0
   38.2090   32.7300   39.3970 C   0  0  0  0  0  0  0  0  0  0  0  0
   36.9630   32.5230   39.9280 C   0  0  0  0  0  0  0  0  0  0  0  0
   36.7550   31.3420   40.5990 C   0  0  0  0  0  0  0  0  0  0  0  0
   37.7500   30.4030   40.7370 C   0  0  0  0  0  0  0  0  0  0  0  0
   38.4290   33.6510   38.8540 H   0  0  0  0  0  0  0  0  0  0  0  0
   36.1830   33.2620   39.8190 H   0  0  0  0  0  0  0  0  0  0  0  0
   35.7780   31.1510   41.0310 H   0  0  0  0  0  0  0  0  0  0  0  0
   42.1500   32.1100   37.0950 C   0  0  0  0  0  0  0  0  0  0  0  0
   40.8470   31.9190   37.5860 C   0  0  0  0  0  0  0  0  0  0  0  0
   40.5790   32.0200   38.9480 C   0  0  0  0  0  0  0  0  0  0  0  0
   41.6420   32.3110   39.7490 N   0  0  0  0  0  0  0  0  0  0  0  0
   42.8780   32.4910   39.2610 C   0  0  0  0  0  0  0  0  0  0  0  0
   43.1340   32.3930   37.9600 N   0  0  0  0  0  0  0  0  0  0  0  0
   42.3070   32.0220   36.0400 H   0  0  0  0  0  0  0  0  0  0  0  0
   39.9900   31.6880   36.9660 H   0  0  0  0  0  0  0  0  0  0  0  0
   43.5740   32.7110   40.0670 H   0  0  0  0  0  0  0  0  0  0  0  0
   36.8900   27.9250   39.0010 Br  0  0  0  0  0  0  0  0  0  0  0  0
   37.1360   27.9410   40.8950 C   0  0  0  0  0  0  0  0  0  0  0  0
   37.5160   29.1410   41.4590 C   0  0  0  0  0  0  0  0  0  0  0  0
   37.7260   29.2840   42.8160 C   0  0  0  0  0  0  0  0  0  0  0  0
   38.0250   30.1890   43.3240 H   0  0  0  0  0  0  0  0  0  0  0  0
   37.5530   28.1930   43.6580 C   0  0  0  0  0  0  0  0  0  0  0  0
   37.7080   28.2630   44.7360 H   0  0  0  0  0  0  0  0  0  0  0  0
   37.1720   26.9990   43.0830 C   0  0  0  0  0  3  0  0  0  0  0  0
   36.9600   26.8450   41.7270 C   0  0  0  0  0  3  0  0  0  0  0  0
  2  1  1  0  0  0  0
  2  7  1  0  0  0  0
  3  2  2  0  0  0  0
  4  3  1  0  0  0  0
  4  5  2  0  0  0  0
  5  6  1  0  0  0  0
  6  7  2  0  0  0  0
  6 10  1  0  0  0  0
  7 22  1  0  0  0  0
  8  4  1  0  0  0  0
  9  5  1  0  0  0  0
 11 12  2  0  0  0  0
 11 16  1  0  0  0  0
 12 13  1  0  0  0  0
 13  3  1  0  0  0  0
 13 14  2  0  0  0  0
 15 14  1  0  0  0  0
 15 19  1  0  0  0  0
 16 15  2  0  0  0  0
 17 11  1  0  0  0  0
 18 12  1  0  0  0  0
 20 21  1  0  0  0  0
 21 22  2  0  0  0  0
 21 28  1  0  0  0  0
 22 23  1  0  0  0  0
 23 24  1  0  0  0  0
 23 25  2  0  0  0  0
 25 26  1  0  0  0  0
 27 25  1  0  0  0  0
 28 27  2  0  0  0  0
M  END
>  <minimizedAffinity>
-5.25151396

$$$$

 OpenBabel03242512593D

 28 30  0  0  0  0  0  0  0  0999 V2000
   40.0490   29.4340   40.3380 F   0  0  0  0  0  0  0  0  0  0  0  0
   38.7970   29.9570   40.5280 C   0  0  0  0  0  0  0  0  0  0  0  0
   38.4450   31.1810   40.0260 C   0  0  0  0  0  0  0  0  0  0  0  0
   37.1670   31.6150   40.2740 C   0  0  0  0  0  0  0  0  0  0  0  0
   36.2470   30.8910   40.9860 C   0  0  0  0  0  0  0  0  0  0  0  0
   36.6480   29.6690   41.4690 C   0  0  0  0  0  0  0  0  0  0  0  0
   37.9160   29.1840   41.2520 C   0  0  0  0  0  0  0  0  0  0  0  0
   36.9020   32.5920   39.8670 H   0  0  0  0  0  0  0  0  0  0  0  0
   35.2510   31.2730   41.1570 H   0  0  0  0  0  0  0  0  0  0  0  0
   35.9400   29.0740   42.0380 H   0  0  0  0  0  0  0  0  0  0  0  0
   41.0570   33.7380   39.0260 C   0  0  0  0  0  0  0  0  0  0  0  0
   40.0980   33.0480   39.7860 C   0  0  0  0  0  0  0  0  0  0  0  0
   39.4500   31.9290   39.2690 C   0  0  0  0  0  0  0  0  0  0  0  0
   39.8060   31.5610   38.0070 N   0  0  0  0  0  0  0  0  0  0  0  0
   40.7250   32.2320   37.2970 C   0  0  0  0  0  0  0  0  0  0  0  0
   41.3430   33.3010   37.7920 N   0  0  0  0  0  0  0  0  0  0  0  0
   41.5280   34.5920   39.4660 H   0  0  0  0  0  0  0  0  0  0  0  0
   39.8020   33.3250   40.7910 H   0  0  0  0  0  0  0  0  0  0  0  0
   40.8570   31.7730   36.3200 H   0  0  0  0  0  0  0  0  0  0  0  0
   37.3480   26.6910   39.4220 Br  0  0  0  0  0  0  0  0  0  0  0  0
   38.1820   26.6590   41.1390 C   0  0  0  0  0  0  0  0  0  0  0  0
   38.3350   27.8730   41.7750 C   0  0  0  0  0  0  0  0  0  0  0  0
   38.9230   27.9850   43.0200 C   0  0  0  0  0  0  0  0  0  0  0  0
   39.0750   28.8990   43.5740 H   0  0  0  0  0  0  0  0  0  0  0  0
   39.3810   26.8460   43.6690 C   0  0  0  0  0  0  0  0  0  0  0  0
   39.8510   26.8910   44.6520 H   0  0  0  0  0  0  0  0  0  0  0  0
   39.2230   25.6380   43.0230 C   0  0  0  0  0  3  0  0  0  0  0  0
   38.6380   25.5160   41.7790 C   0  0  0  0  0  3  0  0  0  0  0  0
  1  2  1  0  0  0  0
  2  7  1  0  0  0  0
  3  4  1  0  0  0  0
  3  2  2  0  0  0  0
  4  5  2  0  0  0  0
  5  9  1  0  0  0  0
  5  6  1  0  0  0  0
  6 10  1  0  0  0  0
  7  6  2  0  0  0  0
  7 22  1  0  0  0  0
  8  4  1  0  0  0  0
 11 17  1  0  0  0  0
 11 12  1  0  0  0  0
 12 18  1  0  0  0  0
 13 12  2  0  0  0  0
 13  3  1  0  0  0  0
 14 13  1  0  0  0  0
 15 16  1  0  0  0  0
 15 14  2  0  0  0  0
 16 11  2  0  0  0  0
 19 15  1  0  0  0  0
 20 21  1  0  0  0  0
 21 22  2  0  0  0  0
 21 28  1  0  0  0  0
 22 23  1  0  0  0  0
 23 24  1  0  0  0  0
 23 25  2  0  0  0  0
 25 26  1  0  0  0  0
 27 25  1  0  0  0  0
 28 27  2  0  0  0  0
M  END
>  <minimizedAffinity>
-5.21837854

$$$$

 OpenBabel03242512593D

 28 30  0  0  0  0  0  0  0  0999 V2000
   38.2250   28.2380   39.7680 F   0  0  0  0  0  0  0  0  0  0  0  0
   37.7910   27.9950   41.0450 C   0  0  0  0  0  0  0  0  0  0  0  0
   37.4610   26.7350   41.4650 C   0  0  0  0  0  0  0  0  0  0  0  0
   37.0370   26.5980   42.7630 C   0  0  0  0  0  0  0  0  0  0  0  0
   36.9340   27.6460   43.6390 C   0  0  0  0  0  0  0  0  0  0  0  0
   37.2770   28.8920   43.1710 C   0  0  0  0  0  0  0  0  0  0  0  0
   37.7080   29.0870   41.8800 C   0  0  0  0  0  0  0  0  0  0  0  0
   36.7770   25.5870   43.0810 H   0  0  0  0  0  0  0  0  0  0  0  0
   36.5960   27.4920   44.6530 H   0  0  0  0  0  0  0  0  0  0  0  0
   37.2050   29.7410   43.8430 H   0  0  0  0  0  0  0  0  0  0  0  0
   36.6680   24.1290   38.8290 C   0  0  0  0  0  0  0  0  0  0  0  0
   36.5090   25.1870   39.7400 C   0  0  0  0  0  0  0  0  0  0  0  0
   37.5820   25.6360   40.5050 C   0  0  0  0  0  0  0  0  0  0  0  0
   38.7670   24.9930   40.3100 N   0  0  0  0  0  0  0  0  0  0  0  0
   38.9000   23.9860   39.4350 C   0  0  0  0  0  0  0  0  0  0  0  0
   37.8740   23.5570   38.7060 N   0  0  0  0  0  0  0  0  0  0  0  0
   35.8140   23.8190   38.2640 H   0  0  0  0  0  0  0  0  0  0  0  0
   35.5760   25.7110   39.9090 H   0  0  0  0  0  0  0  0  0  0  0  0
   39.9230   23.6160   39.4370 H   0  0  0  0  0  0  0  0  0  0  0  0
   40.6730   30.0100   42.3760 Br  0  0  0  0  0  0  0  0  0  0  0  0
   39.3110   31.0230   41.5010 C   0  0  0  0  0  0  0  0  0  0  0  0
   38.0730   30.4270   41.3890 C   0  0  0  0  0  0  0  0  0  0  0  0
   37.0050   31.0540   40.7780 C   0  0  0  0  0  0  0  0  0  0  0  0
   36.0120   30.6480   40.6540 H   0  0  0  0  0  0  0  0  0  0  0  0
   37.1650   32.3290   40.2520 C   0  0  0  0  0  0  0  0  0  0  0  0
   36.3480   32.8600   39.7610 H   0  0  0  0  0  0  0  0  0  0  0  0
   38.4080   32.9150   40.3700 C   0  0  0  0  0  3  0  0  0  0  0  0
   39.4820   32.2970   40.9790 C   0  0  0  0  0  3  0  0  0  0  0  0
  1  2  1  0  0  0  0
  2  3  2  0  0  0  0
  2  7  1  0  0  0  0
  3  4  1  0  0  0  0
  4  8  1  0  0  0  0
  4  5  2  0  0  0  0
  5  9  1  0  0  0  0
  6  5  1  0  0  0  0
  6 10  1  0  0  0  0
  7  6  2  0  0  0  0
 11 12  1  0  0  0  0
 12 18  1  0  0  0  0
 12 13  2  0  0  0  0
 13  3  1  0  0  0  0
 14 13  1  0  0  0  0
 15 19  1  0  0  0  0
 15 14  2  0  0  0  0
 16 11  2  0  0  0  0
 16 15  1  0  0  0  0
 17 11  1  0  0  0  0
 21 20  1  0  0  0  0
 22 21  1  0  0  0  0
 22  7  1  0  0  0  0
 23 22  2  0  0  0  0
 24 23  1  0  0  0  0
 25 27  2  0  0  0  0
 25 23  1  0  0  0  0
 26 25  1  0  0  0  0
 27 28  1  0  0  0  0
 28 21  2  0  0  0  0
M  END
>  <minimizedAffinity>
-5.19518423

$$$$

 OpenBabel03242512593D

 28 30  0  0  0  0  0  0  0  0999 V2000
   38.0620   27.5280   39.6430 F   0  0  0  0  0  0  0  0  0  0  0  0
   37.8290   27.7970   40.9660 C   0  0  0  0  0  0  0  0  0  0  0  0
   37.7640   29.0800   41.4390 C   0  0  0  0  0  0  0  0  0  0  0  0
   37.5270   29.2410   42.7810 C   0  0  0  0  0  0  0  0  0  0  0  0
   37.3560   28.1970   43.6490 C   0  0  0  0  0  0  0  0  0  0  0  0
   37.4290   26.9270   43.1280 C   0  0  0  0  0  0  0  0  0  0  0  0
   37.6650   26.7060   41.7910 C   0  0  0  0  0  0  0  0  0  0  0  0
   37.4790   30.2710   43.1410 H   0  0  0  0  0  0  0  0  0  0  0  0
   37.1700   28.3710   44.6990 H   0  0  0  0  0  0  0  0  0  0  0  0
   37.2970   26.0800   43.7930 H   0  0  0  0  0  0  0  0  0  0  0  0
   37.1110   31.8540   38.9410 C   0  0  0  0  0  0  0  0  0  0  0  0
   36.8870   30.8070   39.8500 C   0  0  0  0  0  0  0  0  0  0  0  0
   37.9520   30.1750   40.4850 C   0  0  0  0  0  0  0  0  0  0  0  0
   39.1960   30.6340   40.1690 N   0  0  0  0  0  0  0  0  0  0  0  0
   39.3900   31.6350   39.2990 C   0  0  0  0  0  0  0  0  0  0  0  0
   38.3710   32.2380   38.6930 N   0  0  0  0  0  0  0  0  0  0  0  0
   36.2600   32.3100   38.4770 H   0  0  0  0  0  0  0  0  0  0  0  0
   35.9070   30.4290   40.1140 H   0  0  0  0  0  0  0  0  0  0  0  0
   40.4520   31.8420   39.1910 H   0  0  0  0  0  0  0  0  0  0  0  0
   40.5060   25.3580   41.7650 Br  0  0  0  0  0  0  0  0  0  0  0  0
   38.8820   24.5730   41.1380 C   0  0  0  0  0  0  0  0  0  0  0  0
   37.7420   25.3420   41.2430 C   0  0  0  0  0  0  0  0  0  0  0  0
   36.5060   24.8900   40.8260 C   0  0  0  0  0  0  0  0  0  0  0  0
   35.5760   25.4350   40.8780 H   0  0  0  0  0  0  0  0  0  0  0  0
   36.3870   23.6180   40.2790 C   0  0  0  0  0  0  0  0  0  0  0  0
   35.4300   23.2220   39.9380 H   0  0  0  0  0  0  0  0  0  0  0  0
   37.5340   22.8590   40.1790 C   0  0  0  0  0  3  0  0  0  0  0  0
   38.7740   23.3010   40.5940 C   0  0  0  0  0  3  0  0  0  0  0  0
  1  2  1  0  0  0  0
  2  3  2  0  0  0  0
  2  7  1  0  0  0  0
  3  4  1  0  0  0  0
  4  8  1  0  0  0  0
  4  5  2  0  0  0  0
  5  9  1  0  0  0  0
  6  5  1  0  0  0  0
  6 10  1  0  0  0  0
  7  6  2  0  0  0  0
 11 12  1  0  0  0  0
 12 18  1  0  0  0  0
 12 13  2  0  0  0  0
 13  3  1  0  0  0  0
 14 13  1  0  0  0  0
 15 14  2  0  0  0  0
 16 11  2  0  0  0  0
 16 15  1  0  0  0  0
 17 11  1  0  0  0  0
 19 15  1  0  0  0  0
 21 22  1  0  0  0  0
 21 20  1  0  0  0  0
 22  7  1  0  0  0  0
 23 24  1  0  0  0  0
 23 22  2  0  0  0  0
 25 23  1  0  0  0  0
 26 25  1  0  0  0  0
 27 25  2  0  0  0  0
 27 28  1  0  0  0  0
 28 21  2  0  0  0  0
M  END
>  <minimizedAffinity>
-5.18687725

$$$$

 OpenBabel03242512593D

 28 30  0  0  0  0  0  0  0  0999 V2000
   36.3660   26.7530   38.9100 F   0  0  0  0  0  0  0  0  0  0  0  0
   36.4190   27.8210   39.7670 C   0  0  0  0  0  0  0  0  0  0  0  0
   37.0740   27.7480   40.9670 C   0  0  0  0  0  0  0  0  0  0  0  0
   37.0670   28.8730   41.7520 C   0  0  0  0  0  0  0  0  0  0  0  0
   36.4480   30.0410   41.3950 C   0  0  0  0  0  0  0  0  0  0  0  0
   35.8050   30.0660   40.1810 C   0  0  0  0  0  0  0  0  0  0  0  0
   35.7790   28.9680   39.3530 C   0  0  0  0  0  0  0  0  0  0  0  0
   37.5930   28.7980   42.7060 H   0  0  0  0  0  0  0  0  0  0  0  0
   36.4700   30.9030   42.0450 H   0  0  0  0  0  0  0  0  0  0  0  0
   35.3060   30.9780   39.8720 H   0  0  0  0  0  0  0  0  0  0  0  0
   37.6940   24.2180   42.1990 C   0  0  0  0  0  0  0  0  0  0  0  0
   37.0310   25.4140   41.8750 C   0  0  0  0  0  0  0  0  0  0  0  0
   37.7250   26.4850   41.3190 C   0  0  0  0  0  0  0  0  0  0  0  0
   39.0590   26.2950   41.1180 N   0  0  0  0  0  0  0  0  0  0  0  0
   39.6740   25.1460   41.4330 C   0  0  0  0  0  0  0  0  0  0  0  0
   39.0100   24.1230   41.9640 N   0  0  0  0  0  0  0  0  0  0  0  0
   37.1180   23.4220   42.6240 H   0  0  0  0  0  0  0  0  0  0  0  0
   35.9720   25.5840   42.0270 H   0  0  0  0  0  0  0  0  0  0  0  0
   40.7330   25.2060   41.1920 H   0  0  0  0  0  0  0  0  0  0  0  0
   37.5760   29.4060   36.8100 Br  0  0  0  0  0  0  0  0  0  0  0  0
   35.6800   29.1840   36.8220 C   0  0  0  0  0  0  0  0  0  0  0  0
   35.0860   29.0050   38.0540 C   0  0  0  0  0  0  0  0  0  0  0  0
   33.7240   28.8330   38.1990 C   0  0  0  0  0  0  0  0  0  0  0  0
   33.1940   28.6870   39.1280 H   0  0  0  0  0  0  0  0  0  0  0  0
   32.9060   28.8380   37.0760 C   0  0  0  0  0  0  0  0  0  0  0  0
   31.8260   28.7060   37.1450 H   0  0  0  0  0  0  0  0  0  0  0  0
   33.5110   29.0190   35.8490 C   0  0  0  0  0  3  0  0  0  0  0  0
   34.8720   29.1910   35.6940 C   0  0  0  0  0  3  0  0  0  0  0  0
  1  2  1  0  0  0  0
  2  3  1  0  0  0  0
  3 13  1  0  0  0  0
  3  4  2  0  0  0  0
  4  8  1  0  0  0  0
  5  4  1  0  0  0  0
  5  9  1  0  0  0  0
  6  5  2  0  0  0  0
  7  2  2  0  0  0  0
  7  6  1  0  0  0  0
 10  6  1  0  0  0  0
 11 17  1  0  0  0  0
 12 18  1  0  0  0  0
 12 11  2  0  0  0  0
 13 12  1  0  0  0  0
 14 13  2  0  0  0  0
 14 15  1  0  0  0  0
 15 16  2  0  0  0  0
 16 11  1  0  0  0  0
 19 15  1  0  0  0  0
 20 21  1  0  0  0  0
 21 22  1  0  0  0  0
 22 23  2  0  0  0  0
 22  7  1  0  0  0  0
 23 24  1  0  0  0  0
 25 26  1  0  0  0  0
 25 23  1  0  0  0  0
 27 25  2  0  0  0  0
 28 27  1  0  0  0  0
 28 21  2  0  0  0  0
M  END
>  <minimizedAffinity>
-5.15938282

$$$$

 OpenBabel03242512593D

 28 30  0  0  0  0  0  0  0  0999 V2000
   40.0140   28.9990   39.8200 F   0  0  0  0  0  0  0  0  0  0  0  0
   39.1880   29.9870   39.3530 C   0  0  0  0  0  0  0  0  0  0  0  0
   39.4790   30.6900   38.2150 C   0  0  0  0  0  0  0  0  0  0  0  0
   38.5860   31.6600   37.8340 C   0  0  0  0  0  0  0  0  0  0  0  0
   37.4400   31.9480   38.5270 C   0  0  0  0  0  0  0  0  0  0  0  0
   37.1910   31.2150   39.6620 C   0  0  0  0  0  0  0  0  0  0  0  0
   38.0510   30.2320   40.0920 C   0  0  0  0  0  0  0  0  0  0  0  0
   38.8330   32.2120   36.9250 H   0  0  0  0  0  0  0  0  0  0  0  0
   36.7650   32.7210   38.1890 H   0  0  0  0  0  0  0  0  0  0  0  0
   36.2920   31.4220   40.2310 H   0  0  0  0  0  0  0  0  0  0  0  0
   42.8690   30.9400   36.5400 C   0  0  0  0  0  0  0  0  0  0  0  0
   41.7010   31.3000   37.2330 C   0  0  0  0  0  0  0  0  0  0  0  0
   40.7110   30.3580   37.4980 C   0  0  0  0  0  0  0  0  0  0  0  0
   40.9520   29.0940   37.0500 N   0  0  0  0  0  0  0  0  0  0  0  0
   42.0730   28.7690   36.3920 C   0  0  0  0  0  0  0  0  0  0  0  0
   43.0180   29.6700   36.1380 N   0  0  0  0  0  0  0  0  0  0  0  0
   43.6020   31.6990   36.3600 H   0  0  0  0  0  0  0  0  0  0  0  0
   41.4910   32.2990   37.5970 H   0  0  0  0  0  0  0  0  0  0  0  0
   42.0630   27.7150   36.1250 H   0  0  0  0  0  0  0  0  0  0  0  0
   39.7540   30.9480   42.6370 Br  0  0  0  0  0  0  0  0  0  0  0  0
   38.4030   29.6020   42.5300 C   0  0  0  0  0  0  0  0  0  0  0  0
   37.7750   29.4520   41.3100 C   0  0  0  0  0  0  0  0  0  0  0  0
   36.7820   28.5160   41.1020 C   0  0  0  0  0  0  0  0  0  0  0  0
   36.2500   28.3450   40.1790 H   0  0  0  0  0  0  0  0  0  0  0  0
   36.3880   27.6870   42.1450 C   0  0  0  0  0  0  0  0  0  0  0  0
   35.6080   26.9350   42.0240 H   0  0  0  0  0  0  0  0  0  0  0  0
   37.0240   27.8470   43.3590 C   0  0  0  0  0  3  0  0  0  0  0  0
   38.0170   28.7800   43.5770 C   0  0  0  0  0  3  0  0  0  0  0  0
  2  1  1  0  0  0  0
  2  7  1  0  0  0  0
  3  2  2  0  0  0  0
  4  3  1  0  0  0  0
  4  5  2  0  0  0  0
  5  6  1  0  0  0  0
  6  7  2  0  0  0  0
  6 10  1  0  0  0  0
  7 22  1  0  0  0  0
  8  4  1  0  0  0  0
  9  5  1  0  0  0  0
 11 12  1  0  0  0  0
 12 13  2  0  0  0  0
 12 18  1  0  0  0  0
 13  3  1  0  0  0  0
 14 13  1  0  0  0  0
 15 14  2  0  0  0  0
 16 15  1  0  0  0  0
 16 11  2  0  0  0  0
 17 11  1  0  0  0  0
 19 15  1  0  0  0  0
 21 20  1  0  0  0  0
 21 28  1  0  0  0  0
 22 21  2  0  0  0  0
 23 22  1  0  0  0  0
 23 25  2  0  0  0  0
 24 23  1  0  0  0  0
 25 27  1  0  0  0  0
 26 25  1  0  0  0  0
 27 28  2  0  0  0  0
M  END
>  <minimizedAffinity>
-5.13599205

$$$$

 OpenBabel03242512593D

 28 30  0  0  0  0  0  0  0  0999 V2000
   38.5990   29.0120   40.1670 F   0  0  0  0  0  0  0  0  0  0  0  0
   38.0780   28.5770   41.3580 C   0  0  0  0  0  0  0  0  0  0  0  0
   38.7630   28.7150   42.5350 C   0  0  0  0  0  0  0  0  0  0  0  0
   38.1540   28.2450   43.6710 C   0  0  0  0  0  0  0  0  0  0  0  0
   36.9160   27.6580   43.6790 C   0  0  0  0  0  0  0  0  0  0  0  0
   36.2680   27.5420   42.4720 C   0  0  0  0  0  0  0  0  0  0  0  0
   36.8310   27.9950   41.3020 C   0  0  0  0  0  0  0  0  0  0  0  0
   38.7130   28.3620   44.6010 H   0  0  0  0  0  0  0  0  0  0  0  0
   36.4750   27.3020   44.5980 H   0  0  0  0  0  0  0  0  0  0  0  0
   35.2870   27.0810   42.4480 H   0  0  0  0  0  0  0  0  0  0  0  0
   41.5420   31.2910   42.5330 C   0  0  0  0  0  0  0  0  0  0  0  0
   40.2570   30.7250   42.5780 C   0  0  0  0  0  0  0  0  0  0  0  0
   40.0830   29.3460   42.4930 C   0  0  0  0  0  0  0  0  0  0  0  0
   41.2190   28.6060   42.3690 N   0  0  0  0  0  0  0  0  0  0  0  0
   42.4370   29.1640   42.3290 C   0  0  0  0  0  0  0  0  0  0  0  0
   42.6030   30.4810   42.4100 N   0  0  0  0  0  0  0  0  0  0  0  0
   41.6260   32.3560   42.6020 H   0  0  0  0  0  0  0  0  0  0  0  0
   39.3420   31.2970   42.6760 H   0  0  0  0  0  0  0  0  0  0  0  0
   43.2010   28.3970   42.2260 H   0  0  0  0  0  0  0  0  0  0  0  0
   37.4870   25.4400   39.5890 Br  0  0  0  0  0  0  0  0  0  0  0  0
   36.2670   26.8300   39.1140 C   0  0  0  0  0  0  0  0  0  0  0  0
   36.1280   27.8660   40.0150 C   0  0  0  0  0  0  0  0  0  0  0  0
   35.2780   28.9310   39.7890 C   0  0  0  0  0  0  0  0  0  0  0  0
   35.1200   29.7710   40.4480 H   0  0  0  0  0  0  0  0  0  0  0  0
   34.5300   28.9780   38.6200 C   0  0  0  0  0  0  0  0  0  0  0  0
   33.8470   29.8000   38.4030 H   0  0  0  0  0  0  0  0  0  0  0  0
   34.6780   27.9370   37.7270 C   0  0  0  0  0  3  0  0  0  0  0  0
   35.5240   26.8680   37.9430 C   0  0  0  0  0  3  0  0  0  0  0  0
  1  2  1  0  0  0  0
  2  3  1  0  0  0  0
  3  4  2  0  0  0  0
  4  5  1  0  0  0  0
  4  8  1  0  0  0  0
  5  9  1  0  0  0  0
  6  5  2  0  0  0  0
  7  2  2  0  0  0  0
  7  6  1  0  0  0  0
 10  6  1  0  0  0  0
 11 12  1  0  0  0  0
 11 17  1  0  0  0  0
 12 18  1  0  0  0  0
 13  3  1  0  0  0  0
 13 12  2  0  0  0  0
 14 13  1  0  0  0  0
 15 14  2  0  0  0  0
 15 16  1  0  0  0  0
 16 11  2  0  0  0  0
 19 15  1  0  0  0  0
 21 20  1  0  0  0  0
 21 22  1  0  0  0  0
 22  7  1  0  0  0  0
 23 22  2  0  0  0  0
 23 24  1  0  0  0  0
 25 23  1  0  0  0  0
 26 25  1  0  0  0  0
 27 28  1  0  0  0  0
 27 25  2  0  0  0  0
 28 21  2  0  0  0  0
M  END
>  <minimizedAffinity>
-5.11208057

$$$$
