
 OpenBabel03242518483D

 45 48  0  0  1  0  0  0  0  0999 V2000
   39.3040   30.8720   39.9600 C   0  0  2  0  0  0  0  0  0  0  0  0
   38.9820   32.0760   39.1520 C   0  0  1  0  0  0  0  0  0  0  0  0
   37.8080   32.8680   39.7300 C   0  0  0  0  0  0  0  0  0  0  0  0
   36.7820   31.9280   39.8370 O   0  0  0  0  0  0  0  0  0  0  0  0
   37.0050   31.0430   40.8690 C   0  0  0  0  0  0  0  0  0  0  0  0
   38.4450   30.8820   41.2410 C   0  0  1  0  0  0  0  0  0  0  0  0
   39.0070   29.9550   39.4170 H   0  0  0  0  0  0  0  0  0  0  0  0
   38.6770   31.7590   38.1270 H   0  0  0  0  0  0  0  0  0  0  0  0
   38.0770   33.3420   40.6940 H   0  0  0  0  0  0  0  0  0  0  0  0
   37.4720   33.6080   38.9720 H   0  0  0  0  0  0  0  0  0  0  0  0
   36.4340   31.3130   41.7750 H   0  0  0  0  0  0  0  0  0  0  0  0
   36.6000   30.0540   40.5500 H   0  0  0  0  0  0  0  0  0  0  0  0
   38.8180   31.7420   41.8360 H   0  0  0  0  0  0  0  0  0  0  0  0
   41.8250   33.9230   37.7640 C   0  0  0  0  0  0  0  0  0  0  0  0
   42.1450   34.8860   38.7700 C   0  0  0  0  0  0  0  0  0  0  0  0
   41.3240   34.8460   39.9300 C   0  0  0  0  0  0  0  0  0  0  0  0
   40.3280   33.9370   40.0110 N   0  0  0  0  0  0  0  0  0  0  0  0
   40.0790   33.0540   39.0210 C   0  0  0  0  0  0  0  0  0  0  0  0
   40.8290   33.0470   37.8950 N   0  0  0  0  0  0  0  0  0  0  0  0
   42.9590   35.5700   38.6130 H   0  0  0  0  0  0  0  0  0  0  0  0
   41.5690   35.5650   40.6720 H   0  0  0  0  0  0  0  0  0  0  0  0
   42.6010   33.9440   36.6470 O   0  0  0  0  0  0  0  0  0  0  0  0
   42.1810   33.8590   35.7370 H   0  0  0  0  0  0  0  0  0  0  0  0
   40.6430   30.7860   40.3390 O   0  0  0  0  0  0  0  0  0  0  0  0
   40.7870   31.4230   41.0760 H   0  0  0  0  0  0  0  0  0  0  0  0
   38.7190   29.7070   41.9040 O   0  0  0  0  0  0  0  0  0  0  0  0
   38.6980   27.4500   40.4160 F   0  0  0  0  0  0  0  0  0  0  0  0
   38.0590   27.6090   41.5940 C   0  0  0  0  0  0  0  0  0  0  0  0
   38.0180   28.7130   42.4170 C   0  0  0  0  0  0  0  0  0  0  0  0
   37.2760   28.5570   43.5760 C   0  0  0  0  0  0  0  0  0  0  0  0
   36.5980   27.4300   43.9630 C   0  0  0  0  0  0  0  0  0  0  0  0
   36.6720   26.3680   43.1120 C   0  0  0  0  0  0  0  0  0  0  0  0
   37.3860   26.4150   41.9280 C   0  0  0  0  0  0  0  0  0  0  0  0
   37.2900   29.4810   44.1820 H   0  0  0  0  0  0  0  0  0  0  0  0
   36.0740   27.4870   44.8950 H   0  0  0  0  0  0  0  0  0  0  0  0
   36.1320   25.4560   43.4120 H   0  0  0  0  0  0  0  0  0  0  0  0
   39.6180   24.6140   42.8950 Br  0  0  0  0  0  0  0  0  0  0  0  0
   38.3660   24.2850   41.4960 C   0  0  0  0  0  0  0  0  0  0  0  0
   37.3670   25.1910   41.1280 C   0  0  0  0  0  0  0  0  0  0  0  0
   36.4760   24.9240   40.1090 C   0  0  0  0  0  0  0  0  0  0  0  0
   35.7240   25.6910   39.8880 H   0  0  0  0  0  0  0  0  0  0  0  0
   36.5570   23.7270   39.4220 C   0  0  0  0  0  0  0  0  0  0  0  0
   35.8560   23.5160   38.6200 H   0  0  0  0  0  0  0  0  0  0  0  0
   37.5370   22.7930   39.7530 C   0  0  0  0  0  3  0  0  0  0  0  0
   38.4290   23.0890   40.7900 C   0  0  0  0  0  3  0  0  0  0  0  0
  1  7  1  6  0  0  0
  1 24  1  0  0  0  0
  1  6  1  0  0  0  0
  2  8  1  6  0  0  0
  2  3  1  0  0  0  0
  2  1  1  0  0  0  0
  3  4  1  0  0  0  0
  3  9  1  0  0  0  0
  4  5  1  0  0  0  0
  5  6  1  0  0  0  0
  5 11  1  0  0  0  0
  6 13  1  1  0  0  0
  6 26  1  0  0  0  0
 10  3  1  0  0  0  0
 12  5  1  0  0  0  0
 14 19  2  0  0  0  0
 14 15  1  0  0  0  0
 15 16  2  0  0  0  0
 16 17  1  0  0  0  0
 16 21  1  0  0  0  0
 18  2  1  0  0  0  0
 18 17  2  0  0  0  0
 19 18  1  0  0  0  0
 20 15  1  0  0  0  0
 22 14  1  0  0  0  0
 23 22  1  0  0  0  0
 24 25  1  0  0  0  0
 26 29  1  0  0  0  0
 27 28  1  0  0  0  0
 28 33  2  0  0  0  0
 28 29  1  0  0  0  0
 29 30  2  0  0  0  0
 30 31  1  0  0  0  0
 30 34  1  0  0  0  0
 31 35  1  0  0  0  0
 32 36  1  0  0  0  0
 32 31  2  0  0  0  0
 33 32  1  0  0  0  0
 38 37  1  0  0  0  0
 39 38  1  0  0  0  0
 39 33  1  0  0  0  0
 40 39  2  0  0  0  0
 41 40  1  0  0  0  0
 42 44  2  0  0  0  0
 42 40  1  0  0  0  0
 43 42  1  0  0  0  0
 44 45  1  0  0  0  0
 45 38  2  0  0  0  0
M  END
>  <minimizedAffinity>
-7.4544034

$$$$

 OpenBabel03242518483D

 45 48  0  0  1  0  0  0  0  0999 V2000
   40.5280   32.4040   39.4760 C   0  0  2  0  0  0  0  0  0  0  0  0
   41.0640   33.7470   39.1340 C   0  0  1  0  0  0  0  0  0  0  0  0
   40.6330   34.8190   40.1360 C   0  0  0  0  0  0  0  0  0  0  0  0
   39.2420   34.7200   40.1640 O   0  0  0  0  0  0  0  0  0  0  0  0
   38.8220   33.5880   40.8280 C   0  0  0  0  0  0  0  0  0  0  0  0
   39.8250   32.4780   40.8470 C   0  0  1  0  0  0  0  0  0  0  0  0
   39.7380   32.1130   38.7580 H   0  0  0  0  0  0  0  0  0  0  0  0
   40.6630   34.0610   38.1420 H   0  0  0  0  0  0  0  0  0  0  0  0
   41.1080   34.6610   41.1240 H   0  0  0  0  0  0  0  0  0  0  0  0
   40.8640   35.8180   39.7090 H   0  0  0  0  0  0  0  0  0  0  0  0
   38.5190   33.8070   41.8670 H   0  0  0  0  0  0  0  0  0  0  0  0
   37.8950   33.2310   40.3200 H   0  0  0  0  0  0  0  0  0  0  0  0
   40.6360   32.6650   41.5810 H   0  0  0  0  0  0  0  0  0  0  0  0
   44.4850   33.7810   37.8240 C   0  0  0  0  0  0  0  0  0  0  0  0
   45.3010   34.0050   38.9750 C   0  0  0  0  0  0  0  0  0  0  0  0
   44.5950   34.1390   40.2010 C   0  0  0  0  0  0  0  0  0  0  0  0
   43.2480   34.0510   40.2070 N   0  0  0  0  0  0  0  0  0  0  0  0
   42.5360   33.8390   39.0800 C   0  0  0  0  0  0  0  0  0  0  0  0
   43.1560   33.7030   37.8860 N   0  0  0  0  0  0  0  0  0  0  0  0
   46.3700   34.0600   38.8680 H   0  0  0  0  0  0  0  0  0  0  0  0
   45.2100   34.3050   41.0510 H   0  0  0  0  0  0  0  0  0  0  0  0
   45.1430   33.6480   36.6400 O   0  0  0  0  0  0  0  0  0  0  0  0
   44.7950   34.1060   35.8140 H   0  0  0  0  0  0  0  0  0  0  0  0
   41.5000   31.4060   39.5420 O   0  0  0  0  0  0  0  0  0  0  0  0
   41.9880   31.5210   40.3890 H   0  0  0  0  0  0  0  0  0  0  0  0
   39.2750   31.2370   41.0710 O   0  0  0  0  0  0  0  0  0  0  0  0
   39.2750   28.5370   41.2140 F   0  0  0  0  0  0  0  0  0  0  0  0
   38.1840   29.3030   41.0060 C   0  0  0  0  0  0  0  0  0  0  0  0
   38.0890   30.6750   40.9230 C   0  0  0  0  0  0  0  0  0  0  0  0
   36.8120   31.1670   40.7100 C   0  0  0  0  0  0  0  0  0  0  0  0
   35.6660   30.4260   40.5790 C   0  0  0  0  0  0  0  0  0  0  0  0
   35.8170   29.0750   40.6700 C   0  0  0  0  0  0  0  0  0  0  0  0
   37.0460   28.4770   40.8810 C   0  0  0  0  0  0  0  0  0  0  0  0
   36.8170   32.2710   40.6550 H   0  0  0  0  0  0  0  0  0  0  0  0
   34.7610   30.9750   40.4180 H   0  0  0  0  0  0  0  0  0  0  0  0
   34.9030   28.4680   40.5660 H   0  0  0  0  0  0  0  0  0  0  0  0
   36.9820   27.6750   43.7980 Br  0  0  0  0  0  0  0  0  0  0  0  0
   37.0090   26.5390   42.2680 C   0  0  0  0  0  0  0  0  0  0  0  0
   37.0370   27.0170   40.9540 C   0  0  0  0  0  0  0  0  0  0  0  0
   37.0570   26.1680   39.8670 C   0  0  0  0  0  0  0  0  0  0  0  0
   37.0790   26.6300   38.8720 H   0  0  0  0  0  0  0  0  0  0  0  0
   37.0460   24.8000   40.0630 C   0  0  0  0  0  0  0  0  0  0  0  0
   37.0610   24.1320   39.2080 H   0  0  0  0  0  0  0  0  0  0  0  0
   37.0180   24.2770   41.3550 C   0  0  0  0  0  3  0  0  0  0  0  0
   36.9990   25.1600   42.4410 C   0  0  0  0  0  3  0  0  0  0  0  0
  1  7  1  6  0  0  0
  1 24  1  0  0  0  0
  1  6  1  0  0  0  0
  2  8  1  6  0  0  0
  2  1  1  0  0  0  0
  2  3  1  0  0  0  0
  3  4  1  0  0  0  0
  3  9  1  0  0  0  0
  4  5  1  0  0  0  0
  5  6  1  0  0  0  0
  5 11  1  0  0  0  0
  6 26  1  0  0  0  0
  6 13  1  1  0  0  0
 10  3  1  0  0  0  0
 12  5  1  0  0  0  0
 14 19  2  0  0  0  0
 14 15  1  0  0  0  0
 15 16  2  0  0  0  0
 16 17  1  0  0  0  0
 16 21  1  0  0  0  0
 18  2  1  0  0  0  0
 18 17  2  0  0  0  0
 19 18  1  0  0  0  0
 20 15  1  0  0  0  0
 22 14  1  0  0  0  0
 23 22  1  0  0  0  0
 24 25  1  0  0  0  0
 28 27  1  0  0  0  0
 29 28  1  0  0  0  0
 29 26  1  0  0  0  0
 30 29  2  0  0  0  0
 31 32  2  0  0  0  0
 31 30  1  0  0  0  0
 32 33  1  0  0  0  0
 33 39  1  0  0  0  0
 33 28  2  0  0  0  0
 34 30  1  0  0  0  0
 35 31  1  0  0  0  0
 36 32  1  0  0  0  0
 38 45  1  0  0  0  0
 38 37  1  0  0  0  0
 39 38  2  0  0  0  0
 40 42  2  0  0  0  0
 40 39  1  0  0  0  0
 41 40  1  0  0  0  0
 42 44  1  0  0  0  0
 43 42  1  0  0  0  0
 44 45  2  0  0  0  0
M  END
>  <minimizedAffinity>
-7.31271887

$$$$

 OpenBabel03242518483D

 45 48  0  0  1  0  0  0  0  0999 V2000
   39.8620   32.7710   38.9980 C   0  0  2  0  0  0  0  0  0  0  0  0
   40.4830   34.0730   39.3490 C   0  0  1  0  0  0  0  0  0  0  0  0
   39.6880   34.8320   40.4130 C   0  0  0  0  0  0  0  0  0  0  0  0
   38.3990   34.9080   39.8850 O   0  0  0  0  0  0  0  0  0  0  0  0
   37.7560   33.6900   39.9270 C   0  0  0  0  0  0  0  0  0  0  0  0
   38.6740   32.5100   39.9480 C   0  0  1  0  0  0  0  0  0  0  0  0
   39.4190   32.8180   37.9860 H   0  0  0  0  0  0  0  0  0  0  0  0
   40.5040   34.7250   38.4440 H   0  0  0  0  0  0  0  0  0  0  0  0
   39.7360   34.3190   41.3930 H   0  0  0  0  0  0  0  0  0  0  0  0
   40.0660   35.8760   40.4610 H   0  0  0  0  0  0  0  0  0  0  0  0
   37.0670   33.6170   40.7880 H   0  0  0  0  0  0  0  0  0  0  0  0
   37.1050   33.6280   39.0230 H   0  0  0  0  0  0  0  0  0  0  0  0
   39.1290   32.3570   40.9490 H   0  0  0  0  0  0  0  0  0  0  0  0
   43.2680   33.7770   41.7110 C   0  0  0  0  0  0  0  0  0  0  0  0
   44.4350   33.8350   40.8900 C   0  0  0  0  0  0  0  0  0  0  0  0
   44.1890   33.9800   39.4980 C   0  0  0  0  0  0  0  0  0  0  0  0
   42.9170   34.0500   39.0490 N   0  0  0  0  0  0  0  0  0  0  0  0
   41.8570   33.9880   39.8820 C   0  0  0  0  0  0  0  0  0  0  0  0
   42.0330   33.8520   41.2170 N   0  0  0  0  0  0  0  0  0  0  0  0
   45.4090   33.7700   41.3410 H   0  0  0  0  0  0  0  0  0  0  0  0
   45.0620   34.0210   38.8940 H   0  0  0  0  0  0  0  0  0  0  0  0
   43.4830   33.6410   43.0480 O   0  0  0  0  0  0  0  0  0  0  0  0
   42.9250   33.0010   43.5880 H   0  0  0  0  0  0  0  0  0  0  0  0
   40.7320   31.6850   39.0860 O   0  0  0  0  0  0  0  0  0  0  0  0
   40.8460   31.4710   40.0410 H   0  0  0  0  0  0  0  0  0  0  0  0
   38.0850   31.3400   39.5240 O   0  0  0  0  0  0  0  0  0  0  0  0
   39.5600   29.5160   40.8680 F   0  0  0  0  0  0  0  0  0  0  0  0
   38.2170   29.4830   40.7360 C   0  0  0  0  0  0  0  0  0  0  0  0
   37.3880   30.3660   40.0790 C   0  0  0  0  0  0  0  0  0  0  0  0
   36.0390   30.0590   40.1340 C   0  0  0  0  0  0  0  0  0  0  0  0
   35.4730   28.9840   40.7690 C   0  0  0  0  0  0  0  0  0  0  0  0
   36.3390   28.1440   41.4030 C   0  0  0  0  0  0  0  0  0  0  0  0
   37.7060   28.3550   41.4120 C   0  0  0  0  0  0  0  0  0  0  0  0
   35.4400   30.8090   39.5850 H   0  0  0  0  0  0  0  0  0  0  0  0
   34.4070   28.9030   40.7090 H   0  0  0  0  0  0  0  0  0  0  0  0
   35.8970   27.2750   41.9180 H   0  0  0  0  0  0  0  0  0  0  0  0
   38.3390   26.0800   39.5200 Br  0  0  0  0  0  0  0  0  0  0  0  0
   38.8440   26.2610   41.3490 C   0  0  0  0  0  0  0  0  0  0  0  0
   38.4960   27.3620   42.1380 C   0  0  0  0  0  0  0  0  0  0  0  0
   38.8770   27.4640   43.4600 C   0  0  0  0  0  0  0  0  0  0  0  0
   38.5600   28.3620   44.0040 H   0  0  0  0  0  0  0  0  0  0  0  0
   39.6260   26.4570   44.0380 C   0  0  0  0  0  0  0  0  0  0  0  0
   39.9260   26.5360   45.0790 H   0  0  0  0  0  0  0  0  0  0  0  0
   39.9960   25.3400   43.2910 C   0  0  0  0  0  3  0  0  0  0  0  0
   39.5980   25.2610   41.9520 C   0  0  0  0  0  3  0  0  0  0  0  0
  1  7  1  6  0  0  0
  1 24  1  0  0  0  0
  1  2  1  0  0  0  0
  1  6  1  0  0  0  0
  2  8  1  6  0  0  0
  2 18  1  0  0  0  0
  2  3  1  0  0  0  0
  3 10  1  0  0  0  0
  3  9  1  0  0  0  0
  4  5  1  0  0  0  0
  4  3  1  0  0  0  0
  5  6  1  0  0  0  0
  5 11  1  0  0  0  0
  6 13  1  1  0  0  0
 12  5  1  0  0  0  0
 14 22  1  0  0  0  0
 15 20  1  0  0  0  0
 15 14  2  0  0  0  0
 16 15  1  0  0  0  0
 17 16  2  0  0  0  0
 17 18  1  0  0  0  0
 18 19  2  0  0  0  0
 19 14  1  0  0  0  0
 21 16  1  0  0  0  0
 22 23  1  0  0  0  0
 24 25  1  0  0  0  0
 26  6  1  0  0  0  0
 26 29  1  0  0  0  0
 28 27  1  0  0  0  0
 28 33  1  0  0  0  0
 29 30  1  0  0  0  0
 29 28  2  0  0  0  0
 30 31  2  0  0  0  0
 31 32  1  0  0  0  0
 32 33  2  0  0  0  0
 32 36  1  0  0  0  0
 33 39  1  0  0  0  0
 34 30  1  0  0  0  0
 35 31  1  0  0  0  0
 37 38  1  0  0  0  0
 38 45  2  0  0  0  0
 38 39  1  0  0  0  0
 39 40  2  0  0  0  0
 40 41  1  0  0  0  0
 40 42  1  0  0  0  0
 42 43  1  0  0  0  0
 44 42  2  0  0  0  0
 45 44  1  0  0  0  0
M  END
>  <minimizedAffinity>
-6.99589205

$$$$

 OpenBabel03242518483D

 45 48  0  0  1  0  0  0  0  0999 V2000
   37.9550   29.2800   42.0420 C   0  0  2  0  0  0  0  0  0  0  0  0
   37.0350   28.1750   41.6690 C   0  0  1  0  0  0  0  0  0  0  0  0
   36.1430   28.5350   40.4800 C   0  0  0  0  0  0  0  0  0  0  0  0
   35.5230   29.7240   40.8660 O   0  0  0  0  0  0  0  0  0  0  0  0
   36.3970   30.7880   40.8430 C   0  0  0  0  0  0  0  0  0  0  0  0
   37.8350   30.4070   40.9960 C   0  0  1  0  0  0  0  0  0  0  0  0
   37.6370   29.7360   42.9990 H   0  0  0  0  0  0  0  0  0  0  0  0
   36.3520   27.9610   42.5240 H   0  0  0  0  0  0  0  0  0  0  0  0
   36.7330   28.6260   39.5470 H   0  0  0  0  0  0  0  0  0  0  0  0
   35.3350   27.7760   40.3990 H   0  0  0  0  0  0  0  0  0  0  0  0
   36.2880   31.3910   39.9230 H   0  0  0  0  0  0  0  0  0  0  0  0
   36.1110   31.4710   41.6770 H   0  0  0  0  0  0  0  0  0  0  0  0
   38.2540   29.9820   40.0600 H   0  0  0  0  0  0  0  0  0  0  0  0
   38.3340   24.7540   41.8500 C   0  0  0  0  0  0  0  0  0  0  0  0
   38.9420   24.5400   40.5750 C   0  0  0  0  0  0  0  0  0  0  0  0
   38.8680   25.6390   39.6770 C   0  0  0  0  0  0  0  0  0  0  0  0
   38.2520   26.7760   40.0640 N   0  0  0  0  0  0  0  0  0  0  0  0
   37.6960   26.9120   41.2860 C   0  0  0  0  0  0  0  0  0  0  0  0
   37.7380   25.8990   42.1820 N   0  0  0  0  0  0  0  0  0  0  0  0
   39.4100   23.5960   40.3590 H   0  0  0  0  0  0  0  0  0  0  0  0
   39.3220   25.4710   38.7310 H   0  0  0  0  0  0  0  0  0  0  0  0
   38.3970   23.7140   42.7250 O   0  0  0  0  0  0  0  0  0  0  0  0
   37.5890   23.4630   43.2710 H   0  0  0  0  0  0  0  0  0  0  0  0
   39.2940   28.9010   42.1180 O   0  0  0  0  0  0  0  0  0  0  0  0
   39.6330   28.8160   41.1980 H   0  0  0  0  0  0  0  0  0  0  0  0
   38.6380   31.4350   41.4370 O   0  0  0  0  0  0  0  0  0  0  0  0
   41.3140   31.7090   41.1690 F   0  0  0  0  0  0  0  0  0  0  0  0
   40.4030   32.6600   40.8740 C   0  0  0  0  0  0  0  0  0  0  0  0
   39.0300   32.6080   40.9740 C   0  0  0  0  0  0  0  0  0  0  0  0
   38.3660   33.7570   40.5790 C   0  0  0  0  0  0  0  0  0  0  0  0
   38.9410   34.9100   40.1110 C   0  0  0  0  0  0  0  0  0  0  0  0
   40.3020   34.9070   40.0330 C   0  0  0  0  0  0  0  0  0  0  0  0
   41.0640   33.8140   40.4000 C   0  0  0  0  0  0  0  0  0  0  0  0
   37.2720   33.6390   40.6880 H   0  0  0  0  0  0  0  0  0  0  0  0
   38.2710   35.7040   39.8510 H   0  0  0  0  0  0  0  0  0  0  0  0
   40.7770   35.8280   39.6570 H   0  0  0  0  0  0  0  0  0  0  0  0
   41.8240   33.0420   37.5740 Br  0  0  0  0  0  0  0  0  0  0  0  0
   42.9690   33.6380   38.9770 C   0  0  0  0  0  0  0  0  0  0  0  0
   42.5110   33.9710   40.2550 C   0  0  0  0  0  0  0  0  0  0  0  0
   43.3650   34.3980   41.2500 C   0  0  0  0  0  0  0  0  0  0  0  0
   42.9200   34.6390   42.2230 H   0  0  0  0  0  0  0  0  0  0  0  0
   44.7190   34.5080   40.9930 C   0  0  0  0  0  0  0  0  0  0  0  0
   45.3920   34.8440   41.7750 H   0  0  0  0  0  0  0  0  0  0  0  0
   45.2210   34.1860   39.7330 C   0  0  0  0  0  3  0  0  0  0  0  0
   44.3330   33.7550   38.7410 C   0  0  0  0  0  3  0  0  0  0  0  0
  1 24  1  0  0  0  0
  1  7  1  1  0  0  0
  2  1  1  0  0  0  0
  2  8  1  1  0  0  0
  3  4  1  0  0  0  0
  3  2  1  0  0  0  0
  5  4  1  0  0  0  0
  5  6  1  0  0  0  0
  5 12  1  0  0  0  0
  6 13  1  6  0  0  0
  6 26  1  0  0  0  0
  6  1  1  0  0  0  0
  9  3  1  0  0  0  0
 10  3  1  0  0  0  0
 11  5  1  0  0  0  0
 14 19  1  0  0  0  0
 14 22  1  0  0  0  0
 15 14  2  0  0  0  0
 16 17  2  0  0  0  0
 16 15  1  0  0  0  0
 17 18  1  0  0  0  0
 18  2  1  0  0  0  0
 18 19  2  0  0  0  0
 20 15  1  0  0  0  0
 21 16  1  0  0  0  0
 22 23  1  0  0  0  0
 25 24  1  0  0  0  0
 28 29  1  0  0  0  0
 28 27  1  0  0  0  0
 29 26  1  0  0  0  0
 30 34  1  0  0  0  0
 30 29  2  0  0  0  0
 31 30  1  0  0  0  0
 32 31  2  0  0  0  0
 32 33  1  0  0  0  0
 33 28  2  0  0  0  0
 35 31  1  0  0  0  0
 36 32  1  0  0  0  0
 37 38  1  0  0  0  0
 38 39  1  0  0  0  0
 39 33  1  0  0  0  0
 39 40  2  0  0  0  0
 40 41  1  0  0  0  0
 42 40  1  0  0  0  0
 42 43  1  0  0  0  0
 44 42  2  0  0  0  0
 45 38  2  0  0  0  0
 45 44  1  0  0  0  0
M  END
>  <minimizedAffinity>
-6.65567255

$$$$

 OpenBabel03242518483D

 45 48  0  0  1  0  0  0  0  0999 V2000
   40.7580   31.4750   39.9680 C   0  0  2  0  0  0  0  0  0  0  0  0
   40.9430   32.9260   39.7110 C   0  0  1  0  0  0  0  0  0  0  0  0
   39.8780   33.7800   40.4010 C   0  0  0  0  0  0  0  0  0  0  0  0
   38.6690   33.2440   39.9550 O   0  0  0  0  0  0  0  0  0  0  0  0
   38.4080   32.0210   40.5330 C   0  0  0  0  0  0  0  0  0  0  0  0
   39.6250   31.2880   40.9980 C   0  0  1  0  0  0  0  0  0  0  0  0
   40.4050   30.9650   39.0510 H   0  0  0  0  0  0  0  0  0  0  0  0
   40.8460   33.1200   38.6170 H   0  0  0  0  0  0  0  0  0  0  0  0
   39.9930   33.7570   41.5010 H   0  0  0  0  0  0  0  0  0  0  0  0
   39.9300   34.8120   39.9900 H   0  0  0  0  0  0  0  0  0  0  0  0
   37.7030   32.1070   41.3790 H   0  0  0  0  0  0  0  0  0  0  0  0
   37.8790   31.4010   39.7720 H   0  0  0  0  0  0  0  0  0  0  0  0
   40.0230   31.7040   41.9480 H   0  0  0  0  0  0  0  0  0  0  0  0
   43.5020   34.4430   41.8490 C   0  0  0  0  0  0  0  0  0  0  0  0
   44.6540   34.5340   41.0100 C   0  0  0  0  0  0  0  0  0  0  0  0
   44.4800   34.0430   39.6880 C   0  0  0  0  0  0  0  0  0  0  0  0
   43.2840   33.5390   39.3150 N   0  0  0  0  0  0  0  0  0  0  0  0
   42.2340   33.4820   40.1610 C   0  0  0  0  0  0  0  0  0  0  0  0
   42.3430   33.9360   41.4310 N   0  0  0  0  0  0  0  0  0  0  0  0
   45.5660   34.9520   41.3990 H   0  0  0  0  0  0  0  0  0  0  0  0
   45.3420   34.1140   39.0710 H   0  0  0  0  0  0  0  0  0  0  0  0
   43.6480   34.9100   43.1190 O   0  0  0  0  0  0  0  0  0  0  0  0
   43.2710   34.3920   43.8950 H   0  0  0  0  0  0  0  0  0  0  0  0
   41.8970   30.8360   40.4570 O   0  0  0  0  0  0  0  0  0  0  0  0
   41.9900   31.0780   41.4060 H   0  0  0  0  0  0  0  0  0  0  0  0
   39.4390   29.9300   41.1310 O   0  0  0  0  0  0  0  0  0  0  0  0
   39.0560   27.4510   40.1240 F   0  0  0  0  0  0  0  0  0  0  0  0
   38.5540   27.8990   41.2940 C   0  0  0  0  0  0  0  0  0  0  0  0
   38.7000   29.1360   41.8840 C   0  0  0  0  0  0  0  0  0  0  0  0
   38.0640   29.2850   43.1040 C   0  0  0  0  0  0  0  0  0  0  0  0
   37.3220   28.3350   43.7580 C   0  0  0  0  0  0  0  0  0  0  0  0
   37.2110   27.1310   43.1300 C   0  0  0  0  0  0  0  0  0  0  0  0
   37.8060   26.8730   41.9090 C   0  0  0  0  0  0  0  0  0  0  0  0
   38.2250   30.3000   43.5130 H   0  0  0  0  0  0  0  0  0  0  0  0
   36.9000   28.6250   44.6990 H   0  0  0  0  0  0  0  0  0  0  0  0
   36.6180   26.3580   43.6450 H   0  0  0  0  0  0  0  0  0  0  0  0
   39.9590   25.0540   43.0090 Br  0  0  0  0  0  0  0  0  0  0  0  0
   38.5390   24.6070   41.8180 C   0  0  0  0  0  0  0  0  0  0  0  0
   37.5910   25.5310   41.3690 C   0  0  0  0  0  0  0  0  0  0  0  0
   36.5750   25.1760   40.5070 C   0  0  0  0  0  0  0  0  0  0  0  0
   35.8760   25.9650   40.2060 H   0  0  0  0  0  0  0  0  0  0  0  0
   36.4750   23.8710   40.0630 C   0  0  0  0  0  0  0  0  0  0  0  0
   35.6750   23.5900   39.3850 H   0  0  0  0  0  0  0  0  0  0  0  0
   37.3980   22.9140   40.4840 C   0  0  0  0  0  3  0  0  0  0  0  0
   38.4190   23.3000   41.3590 C   0  0  0  0  0  3  0  0  0  0  0  0
  1  7  1  6  0  0  0
  1 24  1  0  0  0  0
  1  6  1  0  0  0  0
  2  8  1  6  0  0  0
  2  1  1  0  0  0  0
  2 18  1  0  0  0  0
  2  3  1  0  0  0  0
  3  9  1  0  0  0  0
  4  3  1  0  0  0  0
  4  5  1  0  0  0  0
  5  6  1  0  0  0  0
  5 11  1  0  0  0  0
  6 26  1  0  0  0  0
  6 13  1  1  0  0  0
 10  3  1  0  0  0  0
 12  5  1  0  0  0  0
 14 22  1  0  0  0  0
 15 20  1  0  0  0  0
 15 14  2  0  0  0  0
 16 15  1  0  0  0  0
 17 16  2  0  0  0  0
 17 18  1  0  0  0  0
 18 19  2  0  0  0  0
 19 14  1  0  0  0  0
 21 16  1  0  0  0  0
 22 23  1  0  0  0  0
 24 25  1  0  0  0  0
 26 29  1  0  0  0  0
 27 28  1  0  0  0  0
 28 29  2  0  0  0  0
 28 33  1  0  0  0  0
 29 30  1  0  0  0  0
 30 34  1  0  0  0  0
 30 31  2  0  0  0  0
 31 35  1  0  0  0  0
 32 36  1  0  0  0  0
 32 31  1  0  0  0  0
 33 32  2  0  0  0  0
 38 37  1  0  0  0  0
 39 38  1  0  0  0  0
 39 33  1  0  0  0  0
 40 39  2  0  0  0  0
 41 40  1  0  0  0  0
 42 44  2  0  0  0  0
 42 40  1  0  0  0  0
 43 42  1  0  0  0  0
 44 45  1  0  0  0  0
 45 38  2  0  0  0  0
M  END
>  <minimizedAffinity>
-6.62442875

$$$$

 OpenBabel03242518483D

 45 48  0  0  1  0  0  0  0  0999 V2000
   37.8270   26.3960   42.6150 C   0  0  2  0  0  0  0  0  0  0  0  0
   38.4760   27.6120   43.1680 C   0  0  1  0  0  0  0  0  0  0  0  0
   39.9910   27.4500   43.3120 C   0  0  0  0  0  0  0  0  0  0  0  0
   40.1390   26.2930   44.0780 O   0  0  0  0  0  0  0  0  0  0  0  0
   39.8430   25.1590   43.3540 C   0  0  0  0  0  0  0  0  0  0  0  0
   38.9190   25.3880   42.2010 C   0  0  1  0  0  0  0  0  0  0  0  0
   37.2410   25.8830   43.4010 H   0  0  0  0  0  0  0  0  0  0  0  0
   38.0800   27.8070   44.1910 H   0  0  0  0  0  0  0  0  0  0  0  0
   40.4850   27.3930   42.3230 H   0  0  0  0  0  0  0  0  0  0  0  0
   40.3790   28.2850   43.9340 H   0  0  0  0  0  0  0  0  0  0  0  0
   40.7550   24.6580   42.9820 H   0  0  0  0  0  0  0  0  0  0  0  0
   39.3740   24.4300   44.0560 H   0  0  0  0  0  0  0  0  0  0  0  0
   39.4390   25.8580   41.3400 H   0  0  0  0  0  0  0  0  0  0  0  0
   36.8730   30.4600   41.5130 C   0  0  0  0  0  0  0  0  0  0  0  0
   37.9460   31.1370   40.8580 C   0  0  0  0  0  0  0  0  0  0  0  0
   39.2280   30.5480   41.0290 C   0  0  0  0  0  0  0  0  0  0  0  0
   39.3530   29.4270   41.7720 N   0  0  0  0  0  0  0  0  0  0  0  0
   38.2950   28.8380   42.3670 C   0  0  0  0  0  0  0  0  0  0  0  0
   37.0510   29.3550   42.2370 N   0  0  0  0  0  0  0  0  0  0  0  0
   37.7470   32.0260   40.2870 H   0  0  0  0  0  0  0  0  0  0  0  0
   40.0200   31.0580   40.5380 H   0  0  0  0  0  0  0  0  0  0  0  0
   35.6370   31.0080   41.3600 O   0  0  0  0  0  0  0  0  0  0  0  0
   35.0150   31.0840   42.1480 H   0  0  0  0  0  0  0  0  0  0  0  0
   37.0200   26.6390   41.5050 O   0  0  0  0  0  0  0  0  0  0  0  0
   37.6120   26.7780   40.7300 H   0  0  0  0  0  0  0  0  0  0  0  0
   38.2630   24.2530   41.7800 O   0  0  0  0  0  0  0  0  0  0  0  0
   35.6670   23.9060   41.1110 F   0  0  0  0  0  0  0  0  0  0  0  0
   36.7200   23.4960   40.3730 C   0  0  0  0  0  0  0  0  0  0  0  0
   38.0670   23.6320   40.6320 C   0  0  0  0  0  0  0  0  0  0  0  0
   38.9090   23.1100   39.6640 C   0  0  0  0  0  0  0  0  0  0  0  0
   38.5280   22.4860   38.5040 C   0  0  0  0  0  0  0  0  0  0  0  0
   37.1850   22.3780   38.3000 C   0  0  0  0  0  0  0  0  0  0  0  0
   36.2550   22.8650   39.2000 C   0  0  0  0  0  0  0  0  0  0  0  0
   39.9690   23.2560   39.9420 H   0  0  0  0  0  0  0  0  0  0  0  0
   39.3180   22.1410   37.8690 H   0  0  0  0  0  0  0  0  0  0  0  0
   36.8660   21.8780   37.3700 H   0  0  0  0  0  0  0  0  0  0  0  0
   35.3280   25.3070   37.6720 Br  0  0  0  0  0  0  0  0  0  0  0  0
   34.3240   23.7490   38.1180 C   0  0  0  0  0  0  0  0  0  0  0  0
   34.8530   22.6700   38.8320 C   0  0  0  0  0  0  0  0  0  0  0  0
   34.1000   21.5560   39.1390 C   0  0  0  0  0  0  0  0  0  0  0  0
   34.5960   20.7570   39.7030 H   0  0  0  0  0  0  0  0  0  0  0  0
   32.7800   21.4870   38.7360 C   0  0  0  0  0  0  0  0  0  0  0  0
   32.1870   20.6110   38.9770 H   0  0  0  0  0  0  0  0  0  0  0  0
   32.2090   22.5390   38.0220 C   0  0  0  0  0  3  0  0  0  0  0  0
   32.9950   23.6580   37.7230 C   0  0  0  0  0  3  0  0  0  0  0  0
  1  2  1  0  0  0  0
  1  7  1  1  0  0  0
  2  3  1  0  0  0  0
  2  8  1  1  0  0  0
  3 10  1  0  0  0  0
  3  4  1  0  0  0  0
  5 12  1  0  0  0  0
  5  4  1  0  0  0  0
  6 13  1  6  0  0  0
  6  1  1  0  0  0  0
  6  5  1  0  0  0  0
  9  3  1  0  0  0  0
 11  5  1  0  0  0  0
 14 19  1  0  0  0  0
 15 16  1  0  0  0  0
 15 14  2  0  0  0  0
 16 17  2  0  0  0  0
 17 18  1  0  0  0  0
 18  2  1  0  0  0  0
 19 18  2  0  0  0  0
 20 15  1  0  0  0  0
 21 16  1  0  0  0  0
 22 14  1  0  0  0  0
 22 23  1  0  0  0  0
 24  1  1  0  0  0  0
 25 24  1  0  0  0  0
 26  6  1  0  0  0  0
 28 29  1  0  0  0  0
 28 27  1  0  0  0  0
 29 26  1  0  0  0  0
 30 34  1  0  0  0  0
 30 29  2  0  0  0  0
 31 30  1  0  0  0  0
 32 31  2  0  0  0  0
 32 33  1  0  0  0  0
 33 28  2  0  0  0  0
 35 31  1  0  0  0  0
 36 32  1  0  0  0  0
 37 38  1  0  0  0  0
 38 39  1  0  0  0  0
 39 40  2  0  0  0  0
 39 33  1  0  0  0  0
 40 41  1  0  0  0  0
 42 43  1  0  0  0  0
 42 40  1  0  0  0  0
 44 42  2  0  0  0  0
 45 44  1  0  0  0  0
 45 38  2  0  0  0  0
M  END
>  <minimizedAffinity>
-6.53238535

$$$$

 OpenBabel03242518483D

 45 48  0  0  1  0  0  0  0  0999 V2000
   40.9480   31.0870   40.5260 C   0  0  2  0  0  0  0  0  0  0  0  0
   41.0400   32.4820   40.0250 C   0  0  1  0  0  0  0  0  0  0  0  0
   39.9330   33.3770   40.5820 C   0  0  0  0  0  0  0  0  0  0  0  0
   38.7550   32.7030   40.2590 O   0  0  0  0  0  0  0  0  0  0  0  0
   38.5750   31.5820   41.0400 C   0  0  0  0  0  0  0  0  0  0  0  0
   39.8400   31.0110   41.5970 C   0  0  1  0  0  0  0  0  0  0  0  0
   40.6170   30.4100   39.7160 H   0  0  0  0  0  0  0  0  0  0  0  0
   40.9200   32.4820   38.9160 H   0  0  0  0  0  0  0  0  0  0  0  0
   40.0610   33.5480   41.6680 H   0  0  0  0  0  0  0  0  0  0  0  0
   39.9170   34.3250   40.0020 H   0  0  0  0  0  0  0  0  0  0  0  0
   37.8750   31.7690   41.8750 H   0  0  0  0  0  0  0  0  0  0  0  0
   38.0770   30.8120   40.4060 H   0  0  0  0  0  0  0  0  0  0  0  0
   40.2210   31.6050   42.4540 H   0  0  0  0  0  0  0  0  0  0  0  0
   43.5830   34.3540   41.8830 C   0  0  0  0  0  0  0  0  0  0  0  0
   44.6600   34.5010   40.9560 C   0  0  0  0  0  0  0  0  0  0  0  0
   44.4430   33.9190   39.6780 C   0  0  0  0  0  0  0  0  0  0  0  0
   43.2780   33.2850   39.4240 N   0  0  0  0  0  0  0  0  0  0  0  0
   42.3000   33.1810   40.3470 C   0  0  0  0  0  0  0  0  0  0  0  0
   42.4520   33.7170   41.5800 N   0  0  0  0  0  0  0  0  0  0  0  0
   45.5510   35.0240   41.2530 H   0  0  0  0  0  0  0  0  0  0  0  0
   45.2490   34.0330   38.9960 H   0  0  0  0  0  0  0  0  0  0  0  0
   43.7710   34.9070   43.1120 O   0  0  0  0  0  0  0  0  0  0  0  0
   43.5010   34.4030   43.9400 H   0  0  0  0  0  0  0  0  0  0  0  0
   42.1290   30.6080   41.0920 O   0  0  0  0  0  0  0  0  0  0  0  0
   42.2180   31.0130   41.9840 H   0  0  0  0  0  0  0  0  0  0  0  0
   39.7390   29.6870   41.9610 O   0  0  0  0  0  0  0  0  0  0  0  0
   39.4000   27.3850   40.5850 F   0  0  0  0  0  0  0  0  0  0  0  0
   38.6880   27.7520   41.6720 C   0  0  0  0  0  0  0  0  0  0  0  0
   38.7940   28.8950   42.4330 C   0  0  0  0  0  0  0  0  0  0  0  0
   37.9170   28.9750   43.5010 C   0  0  0  0  0  0  0  0  0  0  0  0
   36.9790   28.0400   43.8580 C   0  0  0  0  0  0  0  0  0  0  0  0
   36.9190   26.9290   43.0700 C   0  0  0  0  0  0  0  0  0  0  0  0
   37.7460   26.7460   41.9780 C   0  0  0  0  0  0  0  0  0  0  0  0
   38.0610   29.9170   44.0620 H   0  0  0  0  0  0  0  0  0  0  0  0
   36.3830   28.2670   44.7180 H   0  0  0  0  0  0  0  0  0  0  0  0
   36.1690   26.1690   43.3460 H   0  0  0  0  0  0  0  0  0  0  0  0
   36.1930   27.3700   39.4570 Br  0  0  0  0  0  0  0  0  0  0  0  0
   36.8430   25.6780   40.0480 C   0  0  0  0  0  0  0  0  0  0  0  0
   37.5550   25.5000   41.2380 C   0  0  0  0  0  0  0  0  0  0  0  0
   38.0110   24.2620   41.6390 C   0  0  0  0  0  0  0  0  0  0  0  0
   38.5610   24.2140   42.5870 H   0  0  0  0  0  0  0  0  0  0  0  0
   37.7680   23.1520   40.8520 C   0  0  0  0  0  0  0  0  0  0  0  0
   38.1270   22.1770   41.1660 H   0  0  0  0  0  0  0  0  0  0  0  0
   37.0620   23.2810   39.6570 C   0  0  0  0  0  3  0  0  0  0  0  0
   36.6090   24.5480   39.2730 C   0  0  0  0  0  3  0  0  0  0  0  0
  1  7  1  6  0  0  0
  1 24  1  0  0  0  0
  1  6  1  0  0  0  0
  2  8  1  6  0  0  0
  2 18  1  0  0  0  0
  2  1  1  0  0  0  0
  2  3  1  0  0  0  0
  3  9  1  0  0  0  0
  4  3  1  0  0  0  0
  4  5  1  0  0  0  0
  5  6  1  0  0  0  0
  5 11  1  0  0  0  0
  6 26  1  0  0  0  0
  6 13  1  1  0  0  0
 10  3  1  0  0  0  0
 12  5  1  0  0  0  0
 14 22  1  0  0  0  0
 15 20  1  0  0  0  0
 15 14  2  0  0  0  0
 16 15  1  0  0  0  0
 17 16  2  0  0  0  0
 17 18  1  0  0  0  0
 18 19  2  0  0  0  0
 19 14  1  0  0  0  0
 21 16  1  0  0  0  0
 22 23  1  0  0  0  0
 24 25  1  0  0  0  0
 26 29  1  0  0  0  0
 27 28  1  0  0  0  0
 28 33  2  0  0  0  0
 28 29  1  0  0  0  0
 29 30  2  0  0  0  0
 30 31  1  0  0  0  0
 30 34  1  0  0  0  0
 31 35  1  0  0  0  0
 32 36  1  0  0  0  0
 32 31  2  0  0  0  0
 33 32  1  0  0  0  0
 37 38  1  0  0  0  0
 38 39  1  0  0  0  0
 39 40  2  0  0  0  0
 39 33  1  0  0  0  0
 40 41  1  0  0  0  0
 42 43  1  0  0  0  0
 42 40  1  0  0  0  0
 44 42  2  0  0  0  0
 45 44  1  0  0  0  0
 45 38  2  0  0  0  0
M  END
>  <minimizedAffinity>
-6.53001642

$$$$

 OpenBabel03242518483D

 45 48  0  0  1  0  0  0  0  0999 V2000
   39.6480   30.0420   38.6240 C   0  0  2  0  0  0  0  0  0  0  0  0
   39.3150   31.3050   37.9190 C   0  0  1  0  0  0  0  0  0  0  0  0
   37.9130   31.8110   38.2600 C   0  0  0  0  0  0  0  0  0  0  0  0
   37.0800   30.7290   37.9720 O   0  0  0  0  0  0  0  0  0  0  0  0
   37.2070   29.7240   38.9060 C   0  0  0  0  0  0  0  0  0  0  0  0
   38.5200   29.7110   39.6220 C   0  0  1  0  0  0  0  0  0  0  0  0
   39.6620   29.1960   37.9100 H   0  0  0  0  0  0  0  0  0  0  0  0
   39.3280   31.1260   36.8180 H   0  0  0  0  0  0  0  0  0  0  0  0
   37.8520   32.1500   39.3120 H   0  0  0  0  0  0  0  0  0  0  0  0
   37.6390   32.6130   37.5400 H   0  0  0  0  0  0  0  0  0  0  0  0
   36.3960   29.7520   39.6550 H   0  0  0  0  0  0  0  0  0  0  0  0
   37.0770   28.7550   38.3690 H   0  0  0  0  0  0  0  0  0  0  0  0
   38.5760   30.5030   40.3990 H   0  0  0  0  0  0  0  0  0  0  0  0
   41.9520   33.8190   37.5270 C   0  0  0  0  0  0  0  0  0  0  0  0
   41.9110   34.5650   38.7450 C   0  0  0  0  0  0  0  0  0  0  0  0
   40.9290   34.1430   39.6810 C   0  0  0  0  0  0  0  0  0  0  0  0
   40.1230   33.1020   39.3790 N   0  0  0  0  0  0  0  0  0  0  0  0
   40.2140   32.4400   38.2070 C   0  0  0  0  0  0  0  0  0  0  0  0
   41.1310   32.7980   37.2790 N   0  0  0  0  0  0  0  0  0  0  0  0
   42.5960   35.3800   38.8940 H   0  0  0  0  0  0  0  0  0  0  0  0
   40.9050   34.7030   40.5830 H   0  0  0  0  0  0  0  0  0  0  0  0
   42.8870   34.2070   36.6190 O   0  0  0  0  0  0  0  0  0  0  0  0
   42.6500   34.2680   35.6430 H   0  0  0  0  0  0  0  0  0  0  0  0
   40.8500   30.0860   39.3300 O   0  0  0  0  0  0  0  0  0  0  0  0
   40.6940   30.6040   40.1520 H   0  0  0  0  0  0  0  0  0  0  0  0
   38.8360   28.4930   40.1800 O   0  0  0  0  0  0  0  0  0  0  0  0
   38.9010   26.0440   39.0380 F   0  0  0  0  0  0  0  0  0  0  0  0
   38.2770   26.3440   40.1970 C   0  0  0  0  0  0  0  0  0  0  0  0
   38.1960   27.5540   40.8510 C   0  0  0  0  0  0  0  0  0  0  0  0
   37.4840   27.5350   42.0380 C   0  0  0  0  0  0  0  0  0  0  0  0
   36.8710   26.4470   42.6030 C   0  0  0  0  0  0  0  0  0  0  0  0
   36.9830   25.2760   41.9140 C   0  0  0  0  0  0  0  0  0  0  0  0
   37.6710   25.1810   40.7190 C   0  0  0  0  0  0  0  0  0  0  0  0
   37.4620   28.5380   42.5020 H   0  0  0  0  0  0  0  0  0  0  0  0
   36.3620   26.6150   43.5300 H   0  0  0  0  0  0  0  0  0  0  0  0
   36.4940   24.3930   42.3580 H   0  0  0  0  0  0  0  0  0  0  0  0
   35.6780   25.1460   38.4410 Br  0  0  0  0  0  0  0  0  0  0  0  0
   36.8080   23.7300   39.0360 C   0  0  0  0  0  0  0  0  0  0  0  0
   37.6990   23.8540   40.1060 C   0  0  0  0  0  0  0  0  0  0  0  0
   38.5020   22.8090   40.5130 C   0  0  0  0  0  0  0  0  0  0  0  0
   39.1720   22.9950   41.3620 H   0  0  0  0  0  0  0  0  0  0  0  0
   38.4390   21.5970   39.8530 C   0  0  0  0  0  0  0  0  0  0  0  0
   39.0720   20.7740   40.1730 H   0  0  0  0  0  0  0  0  0  0  0  0
   37.5660   21.4260   38.7810 C   0  0  0  0  0  3  0  0  0  0  0  0
   36.7610   22.5010   38.3880 C   0  0  0  0  0  3  0  0  0  0  0  0
  1  7  1  6  0  0  0
  1 24  1  0  0  0  0
  1  6  1  0  0  0  0
  2  8  1  6  0  0  0
  2 18  1  0  0  0  0
  2  3  1  0  0  0  0
  2  1  1  0  0  0  0
  3  9  1  0  0  0  0
  4  3  1  0  0  0  0
  4  5  1  0  0  0  0
  5  6  1  0  0  0  0
  5 11  1  0  0  0  0
  6 26  1  0  0  0  0
  6 13  1  1  0  0  0
 10  3  1  0  0  0  0
 12  5  1  0  0  0  0
 14 15  1  0  0  0  0
 15 20  1  0  0  0  0
 15 16  2  0  0  0  0
 16 21  1  0  0  0  0
 17 16  1  0  0  0  0
 18 17  2  0  0  0  0
 19 14  2  0  0  0  0
 19 18  1  0  0  0  0
 22 14  1  0  0  0  0
 23 22  1  0  0  0  0
 24 25  1  0  0  0  0
 26 29  1  0  0  0  0
 27 28  1  0  0  0  0
 28 33  2  0  0  0  0
 28 29  1  0  0  0  0
 29 30  2  0  0  0  0
 30 34  1  0  0  0  0
 30 31  1  0  0  0  0
 31 35  1  0  0  0  0
 32 36  1  0  0  0  0
 32 31  2  0  0  0  0
 33 32  1  0  0  0  0
 37 38  1  0  0  0  0
 38 39  1  0  0  0  0
 39 40  2  0  0  0  0
 39 33  1  0  0  0  0
 40 41  1  0  0  0  0
 42 43  1  0  0  0  0
 42 40  1  0  0  0  0
 44 42  2  0  0  0  0
 45 44  1  0  0  0  0
 45 38  2  0  0  0  0
M  END
>  <minimizedAffinity>
-6.36826611

$$$$

 OpenBabel03242518483D

 45 48  0  0  1  0  0  0  0  0999 V2000
   40.0390   31.7370   37.8650 C   0  0  2  0  0  0  0  0  0  0  0  0
   41.2370   32.6050   37.9890 C   0  0  1  0  0  0  0  0  0  0  0  0
   41.2930   33.3340   39.3330 C   0  0  0  0  0  0  0  0  0  0  0  0
   40.0660   33.9940   39.4140 O   0  0  0  0  0  0  0  0  0  0  0  0
   39.0290   33.1190   39.6570 C   0  0  0  0  0  0  0  0  0  0  0  0
   39.2930   31.7150   39.2160 C   0  0  1  0  0  0  0  0  0  0  0  0
   39.3220   32.1730   37.1440 H   0  0  0  0  0  0  0  0  0  0  0  0
   41.2020   33.3940   37.2020 H   0  0  0  0  0  0  0  0  0  0  0  0
   41.4720   32.6290   40.1670 H   0  0  0  0  0  0  0  0  0  0  0  0
   42.0680   34.1290   39.2740 H   0  0  0  0  0  0  0  0  0  0  0  0
   38.7430   33.1060   40.7240 H   0  0  0  0  0  0  0  0  0  0  0  0
   38.1340   33.5080   39.1170 H   0  0  0  0  0  0  0  0  0  0  0  0
   39.9700   31.1810   39.9150 H   0  0  0  0  0  0  0  0  0  0  0  0
   44.3060   31.2120   36.5530 C   0  0  0  0  0  0  0  0  0  0  0  0
   44.9610   30.5880   37.6590 C   0  0  0  0  0  0  0  0  0  0  0  0
   44.2780   30.6860   38.9010 C   0  0  0  0  0  0  0  0  0  0  0  0
   43.0960   31.3370   38.9630 N   0  0  0  0  0  0  0  0  0  0  0  0
   42.5320   31.9060   37.8770 C   0  0  0  0  0  0  0  0  0  0  0  0
   43.1380   31.8430   36.6690 N   0  0  0  0  0  0  0  0  0  0  0  0
   45.9040   30.0920   37.5090 H   0  0  0  0  0  0  0  0  0  0  0  0
   44.7720   30.2190   39.7170 H   0  0  0  0  0  0  0  0  0  0  0  0
   44.9440   31.1280   35.3540 O   0  0  0  0  0  0  0  0  0  0  0  0
   44.9980   31.9330   34.7520 H   0  0  0  0  0  0  0  0  0  0  0  0
   40.3270   30.4200   37.5100 O   0  0  0  0  0  0  0  0  0  0  0  0
   40.6790   29.9650   38.3090 H   0  0  0  0  0  0  0  0  0  0  0  0
   38.1520   30.9710   39.0190 O   0  0  0  0  0  0  0  0  0  0  0  0
   39.5490   29.1690   40.4710 F   0  0  0  0  0  0  0  0  0  0  0  0
   38.2030   29.2650   40.4400 C   0  0  0  0  0  0  0  0  0  0  0  0
   37.4120   30.1480   39.7380 C   0  0  0  0  0  0  0  0  0  0  0  0
   36.0480   29.9950   39.9270 C   0  0  0  0  0  0  0  0  0  0  0  0
   35.4350   29.0680   40.7300 C   0  0  0  0  0  0  0  0  0  0  0  0
   36.2660   28.2210   41.4010 C   0  0  0  0  0  0  0  0  0  0  0  0
   37.6420   28.2840   41.2860 C   0  0  0  0  0  0  0  0  0  0  0  0
   35.4820   30.7360   39.3330 H   0  0  0  0  0  0  0  0  0  0  0  0
   34.3650   29.0950   40.7560 H   0  0  0  0  0  0  0  0  0  0  0  0
   35.7850   27.4700   42.0500 H   0  0  0  0  0  0  0  0  0  0  0  0
   37.9240   25.7620   39.6380 Br  0  0  0  0  0  0  0  0  0  0  0  0
   38.5770   26.0940   41.3980 C   0  0  0  0  0  0  0  0  0  0  0  0
   38.3900   27.3040   42.0720 C   0  0  0  0  0  0  0  0  0  0  0  0
   38.8740   27.5130   43.3470 C   0  0  0  0  0  0  0  0  0  0  0  0
   38.6820   28.4930   43.8000 H   0  0  0  0  0  0  0  0  0  0  0  0
   39.5700   26.5070   43.9910 C   0  0  0  0  0  0  0  0  0  0  0  0
   39.9510   26.6710   44.9940 H   0  0  0  0  0  0  0  0  0  0  0  0
   39.7800   25.2840   43.3580 C   0  0  0  0  0  3  0  0  0  0  0  0
   39.2780   25.0970   42.0650 C   0  0  0  0  0  3  0  0  0  0  0  0
  1  7  1  6  0  0  0
  1  2  1  0  0  0  0
  1  6  1  0  0  0  0
  2  8  1  6  0  0  0
  2  3  1  0  0  0  0
  3  4  1  0  0  0  0
  3  9  1  0  0  0  0
  4  5  1  0  0  0  0
  5 11  1  0  0  0  0
  6  5  1  0  0  0  0
  6 13  1  1  0  0  0
 10  3  1  0  0  0  0
 12  5  1  0  0  0  0
 14 19  2  0  0  0  0
 14 15  1  0  0  0  0
 15 16  2  0  0  0  0
 16 17  1  0  0  0  0
 16 21  1  0  0  0  0
 18  2  1  0  0  0  0
 18 17  2  0  0  0  0
 19 18  1  0  0  0  0
 20 15  1  0  0  0  0
 22 14  1  0  0  0  0
 23 22  1  0  0  0  0
 24  1  1  0  0  0  0
 24 25  1  0  0  0  0
 26  6  1  0  0  0  0
 26 29  1  0  0  0  0
 28 27  1  0  0  0  0
 28 33  1  0  0  0  0
 29 30  1  0  0  0  0
 29 28  2  0  0  0  0
 30 31  2  0  0  0  0
 31 35  1  0  0  0  0
 31 32  1  0  0  0  0
 32 36  1  0  0  0  0
 33 32  2  0  0  0  0
 33 39  1  0  0  0  0
 34 30  1  0  0  0  0
 37 38  1  0  0  0  0
 38 45  2  0  0  0  0
 38 39  1  0  0  0  0
 39 40  2  0  0  0  0
 40 41  1  0  0  0  0
 40 42  1  0  0  0  0
 42 43  1  0  0  0  0
 44 42  2  0  0  0  0
 45 44  1  0  0  0  0
M  END
>  <minimizedAffinity>
-6.35343647

$$$$
