
 OpenBabel03252500483D

 26 28  0  0  0  0  0  0  0  0999 V2000
   36.6980   28.1640   41.2440 C   0  0  0  0  0  0  0  0  0  0  0  0
   37.4990   27.2810   40.5170 C   0  0  0  0  0  0  0  0  0  0  0  0
   38.4970   27.8180   39.6770 C   0  0  0  0  0  0  0  0  0  0  0  0
   38.6220   29.1860   39.6230 N   0  0  0  0  0  0  0  0  0  0  0  0
   37.8230   29.9960   40.3450 C   0  0  0  0  0  0  0  0  0  0  0  0
   36.8660   29.4950   41.1530 N   0  0  0  0  0  0  0  0  0  0  0  0
   35.9400   27.7460   41.8840 H   0  0  0  0  0  0  0  0  0  0  0  0
   39.1580   27.2190   39.0810 H   0  0  0  0  0  0  0  0  0  0  0  0
   37.9760   31.4420   40.2710 C   0  0  0  0  0  0  0  0  0  0  0  0
   37.1110   32.2150   39.5650 C   0  0  0  0  0  0  0  0  0  0  0  0
   37.2260   33.5890   39.4740 C   0  0  0  0  0  0  0  0  0  0  0  0
   38.2680   34.1600   40.1380 N   0  0  0  0  0  0  0  0  0  0  0  0
   39.1160   33.4000   40.8310 C   0  0  0  0  0  0  0  0  0  0  0  0
   39.0150   32.0480   40.9290 N   0  0  0  0  0  0  0  0  0  0  0  0
   36.2730   31.8060   39.0250 H   0  0  0  0  0  0  0  0  0  0  0  0
   36.5620   34.2330   38.9250 H   0  0  0  0  0  0  0  0  0  0  0  0
   39.9810   33.7470   41.3980 H   0  0  0  0  0  0  0  0  0  0  0  0
   39.1520   25.7670   42.7240 Br  0  0  0  0  0  0  0  0  0  0  0  0
   38.0080   24.9850   41.4350 C   0  0  0  0  0  0  0  0  0  0  0  0
   37.3820   25.8440   40.5610 C   0  0  0  0  0  0  0  0  0  0  0  0
   36.5360   25.2860   39.6050 C   0  0  0  0  0  0  0  0  0  0  0  0
   35.9650   25.8190   38.8430 H   0  0  0  0  0  0  0  0  0  0  0  0
   36.3270   23.9070   39.5310 C   0  0  0  0  0  0  0  0  0  0  0  0
   35.6870   23.4330   38.8140 H   0  0  0  0  0  0  0  0  0  0  0  0
   36.9890   23.0880   40.4430 C   0  0  0  0  0  3  0  0  0  0  0  0
   37.8360   23.6180   41.4020 C   0  0  0  0  0  3  0  0  0  0  0  0
  1  7  1  0  0  0  0
  2 20  1  0  0  0  0
  2  1  2  0  0  0  0
  3  2  1  0  0  0  0
  4  3  2  0  0  0  0
  4  5  1  0  0  0  0
  5  6  2  0  0  0  0
  6  1  1  0  0  0  0
  8  3  1  0  0  0  0
  9  5  1  0  0  0  0
  9 14  1  0  0  0  0
 10  9  2  0  0  0  0
 11 10  1  0  0  0  0
 11 12  2  0  0  0  0
 12 13  1  0  0  0  0
 13 14  2  0  0  0  0
 13 17  1  0  0  0  0
 15 10  1  0  0  0  0
 16 11  1  0  0  0  0
 19 18  1  0  0  0  0
 20 19  2  0  0  0  0
 21 20  1  0  0  0  0
 22 21  1  0  0  0  0
 23 21  2  0  0  0  0
 23 25  1  0  0  0  0
 24 23  1  0  0  0  0
 25 26  2  0  0  0  0
 26 19  1  0  0  0  0
M  END
>  <minimizedAffinity>
-4.85662985

$$$$

 OpenBabel03252500483D

 26 28  0  0  0  0  0  0  0  0999 V2000
   36.2240   28.2690   40.8100 C   0  0  0  0  0  0  0  0  0  0  0  0
   37.0830   27.3520   40.2010 C   0  0  0  0  0  0  0  0  0  0  0  0
   38.2540   27.8390   39.5820 C   0  0  0  0  0  0  0  0  0  0  0  0
   38.4800   29.1950   39.6150 N   0  0  0  0  0  0  0  0  0  0  0  0
   37.6190   30.0390   40.2160 C   0  0  0  0  0  0  0  0  0  0  0  0
   36.4960   29.5850   40.8130 N   0  0  0  0  0  0  0  0  0  0  0  0
   35.3340   27.8880   41.2810 H   0  0  0  0  0  0  0  0  0  0  0  0
   38.9710   27.2120   39.0900 H   0  0  0  0  0  0  0  0  0  0  0  0
   37.8810   31.4710   40.2390 C   0  0  0  0  0  0  0  0  0  0  0  0
   37.1060   32.3480   39.5510 C   0  0  0  0  0  0  0  0  0  0  0  0
   37.3260   33.7120   39.5500 C   0  0  0  0  0  0  0  0  0  0  0  0
   38.3790   34.1610   40.2860 N   0  0  0  0  0  0  0  0  0  0  0  0
   39.1400   33.2990   40.9620 C   0  0  0  0  0  0  0  0  0  0  0  0
   38.9340   31.9550   40.9710 N   0  0  0  0  0  0  0  0  0  0  0  0
   36.2620   32.0370   38.9550 H   0  0  0  0  0  0  0  0  0  0  0  0
   36.7350   34.4370   39.0180 H   0  0  0  0  0  0  0  0  0  0  0  0
   40.0040   33.5440   41.5800 H   0  0  0  0  0  0  0  0  0  0  0  0
   35.5030   26.2130   37.7310 Br  0  0  0  0  0  0  0  0  0  0  0  0
   36.2020   25.2170   39.1810 C   0  0  0  0  0  0  0  0  0  0  0  0
   36.8620   25.9280   40.1570 C   0  0  0  0  0  0  0  0  0  0  0  0
   37.3840   25.2110   41.2320 C   0  0  0  0  0  0  0  0  0  0  0  0
   37.9320   25.6140   42.0850 H   0  0  0  0  0  0  0  0  0  0  0  0
   37.2460   23.8230   41.3210 C   0  0  0  0  0  0  0  0  0  0  0  0
   37.6290   23.2310   42.1270 H   0  0  0  0  0  0  0  0  0  0  0  0
   36.5670   23.1610   40.3010 C   0  0  0  0  0  3  0  0  0  0  0  0
   36.0390   23.8500   39.2220 C   0  0  0  0  0  3  0  0  0  0  0  0
  1  6  1  0  0  0  0
  1  7  1  0  0  0  0
  2  1  2  0  0  0  0
  3  4  2  0  0  0  0
  3  2  1  0  0  0  0
  4  5  1  0  0  0  0
  5  9  1  0  0  0  0
  5  6  2  0  0  0  0
  8  3  1  0  0  0  0
  9 14  1  0  0  0  0
 10  9  2  0  0  0  0
 11 10  1  0  0  0  0
 11 12  2  0  0  0  0
 12 13  1  0  0  0  0
 13 14  2  0  0  0  0
 13 17  1  0  0  0  0
 15 10  1  0  0  0  0
 16 11  1  0  0  0  0
 18 19  1  0  0  0  0
 19 26  2  0  0  0  0
 19 20  1  0  0  0  0
 20  2  1  0  0  0  0
 20 21  2  0  0  0  0
 21 23  1  0  0  0  0
 21 22  1  0  0  0  0
 23 24  1  0  0  0  0
 25 23  2  0  0  0  0
 26 25  1  0  0  0  0
M  END
>  <minimizedAffinity>
-4.80671692

$$$$

 OpenBabel03252500483D

 26 28  0  0  0  0  0  0  0  0999 V2000
   38.7660   28.9880   39.5000 C   0  0  0  0  0  0  0  0  0  0  0  0
   38.0220   29.8420   40.3170 C   0  0  0  0  0  0  0  0  0  0  0  0
   37.1250   29.2700   41.2430 C   0  0  0  0  0  0  0  0  0  0  0  0
   37.0360   27.8990   41.2880 N   0  0  0  0  0  0  0  0  0  0  0  0
   37.7770   27.1180   40.4770 C   0  0  0  0  0  0  0  0  0  0  0  0
   38.6400   27.6530   39.5870 N   0  0  0  0  0  0  0  0  0  0  0  0
   39.4490   29.4330   38.7970 H   0  0  0  0  0  0  0  0  0  0  0  0
   36.5120   29.8460   41.9100 H   0  0  0  0  0  0  0  0  0  0  0  0
   37.6660   25.6680   40.5440 C   0  0  0  0  0  0  0  0  0  0  0  0
   36.5650   25.0160   40.0870 C   0  0  0  0  0  0  0  0  0  0  0  0
   36.4260   23.6420   40.1340 C   0  0  0  0  0  0  0  0  0  0  0  0
   37.4630   22.9420   40.6710 N   0  0  0  0  0  0  0  0  0  0  0  0
   38.5430   23.5830   41.1190 C   0  0  0  0  0  0  0  0  0  0  0  0
   38.6920   24.9340   41.0780 N   0  0  0  0  0  0  0  0  0  0  0  0
   35.7220   25.5300   39.6550 H   0  0  0  0  0  0  0  0  0  0  0  0
   35.5720   23.0910   39.7830 H   0  0  0  0  0  0  0  0  0  0  0  0
   39.4280   23.1270   41.5650 H   0  0  0  0  0  0  0  0  0  0  0  0
   40.1830   31.2080   42.1490 Br  0  0  0  0  0  0  0  0  0  0  0  0
   38.9640   32.0840   40.9960 C   0  0  0  0  0  0  0  0  0  0  0  0
   38.1020   31.2820   40.2840 C   0  0  0  0  0  0  0  0  0  0  0  0
   37.1980   31.9090   39.4300 C   0  0  0  0  0  0  0  0  0  0  0  0
   36.4510   31.4270   38.7960 H   0  0  0  0  0  0  0  0  0  0  0  0
   37.1620   33.3000   39.2960 C   0  0  0  0  0  0  0  0  0  0  0  0
   36.4850   33.8250   38.6530 H   0  0  0  0  0  0  0  0  0  0  0  0
   38.0600   34.0570   40.0440 C   0  0  0  0  0  3  0  0  0  0  0  0
   38.9690   33.4580   40.9000 C   0  0  0  0  0  3  0  0  0  0  0  0
  1  6  2  0  0  0  0
  1  2  1  0  0  0  0
  2  3  2  0  0  0  0
  3  4  1  0  0  0  0
  3  8  1  0  0  0  0
  5  9  1  0  0  0  0
  5  4  2  0  0  0  0
  6  5  1  0  0  0  0
  7  1  1  0  0  0  0
  9 14  1  0  0  0  0
 10 11  1  0  0  0  0
 10  9  2  0  0  0  0
 11 12  2  0  0  0  0
 12 13  1  0  0  0  0
 13 17  1  0  0  0  0
 14 13  2  0  0  0  0
 15 10  1  0  0  0  0
 16 11  1  0  0  0  0
 19 18  1  0  0  0  0
 20  2  1  0  0  0  0
 20 19  2  0  0  0  0
 21 20  1  0  0  0  0
 22 21  1  0  0  0  0
 23 21  2  0  0  0  0
 23 25  1  0  0  0  0
 24 23  1  0  0  0  0
 25 26  2  0  0  0  0
 26 19  1  0  0  0  0
M  END
>  <minimizedAffinity>
-4.7364378

$$$$

 OpenBabel03252500483D

 26 28  0  0  0  0  0  0  0  0999 V2000
   39.8110   28.3350   41.4070 C   0  0  0  0  0  0  0  0  0  0  0  0
   38.7210   27.7310   40.7780 C   0  0  0  0  0  0  0  0  0  0  0  0
   38.0230   28.4640   39.7960 C   0  0  0  0  0  0  0  0  0  0  0  0
   38.4610   29.7370   39.5130 N   0  0  0  0  0  0  0  0  0  0  0  0
   39.5210   30.2750   40.1490 C   0  0  0  0  0  0  0  0  0  0  0  0
   40.1970   29.5830   41.0910 N   0  0  0  0  0  0  0  0  0  0  0  0
   40.3390   27.7680   42.1550 H   0  0  0  0  0  0  0  0  0  0  0  0
   37.1750   28.0840   39.2610 H   0  0  0  0  0  0  0  0  0  0  0  0
   39.9650   31.6240   39.8320 C   0  0  0  0  0  0  0  0  0  0  0  0
   39.6640   32.6800   40.6310 C   0  0  0  0  0  0  0  0  0  0  0  0
   40.0690   33.9730   40.3610 C   0  0  0  0  0  0  0  0  0  0  0  0
   40.8060   34.1580   39.2320 N   0  0  0  0  0  0  0  0  0  0  0  0
   41.1020   33.1210   38.4480 C   0  0  0  0  0  0  0  0  0  0  0  0
   40.7090   31.8450   38.7020 N   0  0  0  0  0  0  0  0  0  0  0  0
   39.0840   32.5800   41.5350 H   0  0  0  0  0  0  0  0  0  0  0  0
   39.8510   34.8340   40.9680 H   0  0  0  0  0  0  0  0  0  0  0  0
   41.6820   33.1520   37.5240 H   0  0  0  0  0  0  0  0  0  0  0  0
   36.6830   27.3960   43.1520 Br  0  0  0  0  0  0  0  0  0  0  0  0
   37.3620   26.0200   42.0430 C   0  0  0  0  0  0  0  0  0  0  0  0
   38.2480   26.3990   41.0610 C   0  0  0  0  0  0  0  0  0  0  0  0
   38.7570   25.3990   40.2350 C   0  0  0  0  0  0  0  0  0  0  0  0
   39.4640   25.5230   39.4130 H   0  0  0  0  0  0  0  0  0  0  0  0
   38.3870   24.0600   40.3930 C   0  0  0  0  0  0  0  0  0  0  0  0
   38.7520   23.2590   39.7830 H   0  0  0  0  0  0  0  0  0  0  0  0
   37.4850   23.7410   41.4060 C   0  0  0  0  0  3  0  0  0  0  0  0
   36.9650   24.7160   42.2400 C   0  0  0  0  0  3  0  0  0  0  0  0
  1  7  1  0  0  0  0
  2 20  1  0  0  0  0
  2  1  2  0  0  0  0
  3  2  1  0  0  0  0
  4  3  2  0  0  0  0
  4  5  1  0  0  0  0
  5  6  2  0  0  0  0
  6  1  1  0  0  0  0
  8  3  1  0  0  0  0
  9  5  1  0  0  0  0
  9 10  1  0  0  0  0
 10 15  1  0  0  0  0
 11 10  2  0  0  0  0
 11 16  1  0  0  0  0
 12 11  1  0  0  0  0
 13 14  1  0  0  0  0
 13 12  2  0  0  0  0
 14  9  2  0  0  0  0
 17 13  1  0  0  0  0
 19 26  1  0  0  0  0
 19 18  1  0  0  0  0
 20 19  2  0  0  0  0
 21 23  2  0  0  0  0
 21 20  1  0  0  0  0
 22 21  1  0  0  0  0
 23 25  1  0  0  0  0
 24 23  1  0  0  0  0
 25 26  2  0  0  0  0
M  END
>  <minimizedAffinity>
-4.62452555

$$$$

 OpenBabel03252500483D

 26 28  0  0  0  0  0  0  0  0999 V2000
   38.8670   29.5470   38.0370 C   0  0  0  0  0  0  0  0  0  0  0  0
   37.6920   30.2940   37.9360 C   0  0  0  0  0  0  0  0  0  0  0  0
   37.7980   31.6810   37.6990 C   0  0  0  0  0  0  0  0  0  0  0  0
   39.0590   32.2170   37.5810 N   0  0  0  0  0  0  0  0  0  0  0  0
   40.1630   31.4510   37.6870 C   0  0  0  0  0  0  0  0  0  0  0  0
   40.0740   30.1230   37.9130 N   0  0  0  0  0  0  0  0  0  0  0  0
   38.7760   28.4890   38.2170 H   0  0  0  0  0  0  0  0  0  0  0  0
   36.9530   32.3350   37.6060 H   0  0  0  0  0  0  0  0  0  0  0  0
   41.4870   32.0420   37.5580 C   0  0  0  0  0  0  0  0  0  0  0  0
   41.6870   33.3780   37.6930 C   0  0  0  0  0  0  0  0  0  0  0  0
   42.9290   33.9720   37.5770 C   0  0  0  0  0  0  0  0  0  0  0  0
   43.9790   33.1460   37.3170 N   0  0  0  0  0  0  0  0  0  0  0  0
   43.7820   31.8340   37.1850 C   0  0  0  0  0  0  0  0  0  0  0  0
   42.5650   31.2370   37.2960 N   0  0  0  0  0  0  0  0  0  0  0  0
   40.8860   34.0690   37.9000 H   0  0  0  0  0  0  0  0  0  0  0  0
   43.1270   35.0250   37.6770 H   0  0  0  0  0  0  0  0  0  0  0  0
   44.5440   31.0820   36.9770 H   0  0  0  0  0  0  0  0  0  0  0  0
   36.4010   30.2580   40.8040 Br  0  0  0  0  0  0  0  0  0  0  0  0
   35.6090   29.6350   39.2020 C   0  0  0  0  0  0  0  0  0  0  0  0
   36.3620   29.7500   38.0560 C   0  0  0  0  0  0  0  0  0  0  0  0
   35.7950   29.2960   36.8660 C   0  0  0  0  0  0  0  0  0  0  0  0
   36.2500   29.3120   35.8740 H   0  0  0  0  0  0  0  0  0  0  0  0
   34.5110   28.7440   36.8320 C   0  0  0  0  0  0  0  0  0  0  0  0
   34.0360   28.3820   35.9430 H   0  0  0  0  0  0  0  0  0  0  0  0
   33.8000   28.6550   38.0260 C   0  0  0  0  0  3  0  0  0  0  0  0
   34.3400   29.0980   39.2220 C   0  0  0  0  0  3  0  0  0  0  0  0
  1  7  1  0  0  0  0
  2  1  1  0  0  0  0
  2 20  1  0  0  0  0
  3  2  2  0  0  0  0
  4  5  2  0  0  0  0
  4  3  1  0  0  0  0
  5  6  1  0  0  0  0
  6  1  2  0  0  0  0
  8  3  1  0  0  0  0
  9  5  1  0  0  0  0
  9 10  1  0  0  0  0
 10 15  1  0  0  0  0
 11 16  1  0  0  0  0
 11 10  2  0  0  0  0
 12 11  1  0  0  0  0
 13 14  1  0  0  0  0
 13 12  2  0  0  0  0
 14  9  2  0  0  0  0
 17 13  1  0  0  0  0
 19 26  1  0  0  0  0
 19 18  1  0  0  0  0
 20 19  2  0  0  0  0
 21 20  1  0  0  0  0
 22 21  1  0  0  0  0
 23 21  2  0  0  0  0
 23 25  1  0  0  0  0
 24 23  1  0  0  0  0
 25 26  2  0  0  0  0
M  END
>  <minimizedAffinity>
-4.53588772

$$$$

 OpenBabel03252500483D

 26 28  0  0  0  0  0  0  0  0999 V2000
   36.1620   27.7720   38.9580 C   0  0  0  0  0  0  0  0  0  0  0  0
   35.8270   28.4970   40.1030 C   0  0  0  0  0  0  0  0  0  0  0  0
   34.6080   29.2070   40.1130 C   0  0  0  0  0  0  0  0  0  0  0  0
   33.8190   29.1440   38.9880 N   0  0  0  0  0  0  0  0  0  0  0  0
   34.1890   28.4290   37.9080 C   0  0  0  0  0  0  0  0  0  0  0  0
   35.3520   27.7440   37.8860 N   0  0  0  0  0  0  0  0  0  0  0  0
   37.0940   27.2320   38.9600 H   0  0  0  0  0  0  0  0  0  0  0  0
   34.2670   29.7910   40.9460 H   0  0  0  0  0  0  0  0  0  0  0  0
   33.3360   28.3770   36.7290 C   0  0  0  0  0  0  0  0  0  0  0  0
   32.2210   29.1450   36.6210 C   0  0  0  0  0  0  0  0  0  0  0  0
   31.3900   29.1210   35.5180 C   0  0  0  0  0  0  0  0  0  0  0  0
   31.7380   28.2750   34.5100 N   0  0  0  0  0  0  0  0  0  0  0  0
   32.8330   27.5220   34.6170 C   0  0  0  0  0  0  0  0  0  0  0  0
   33.6590   27.5360   35.6960 N   0  0  0  0  0  0  0  0  0  0  0  0
   31.9090   29.8280   37.3950 H   0  0  0  0  0  0  0  0  0  0  0  0
   30.5000   29.7130   35.3970 H   0  0  0  0  0  0  0  0  0  0  0  0
   33.2060   26.8130   33.8760 H   0  0  0  0  0  0  0  0  0  0  0  0
   38.0130   30.7560   40.2080 Br  0  0  0  0  0  0  0  0  0  0  0  0
   37.6480   29.4750   41.5530 C   0  0  0  0  0  0  0  0  0  0  0  0
   36.6410   28.5750   41.2910 C   0  0  0  0  0  0  0  0  0  0  0  0
   36.3580   27.6240   42.2700 C   0  0  0  0  0  0  0  0  0  0  0  0
   35.5960   26.8440   42.2260 H   0  0  0  0  0  0  0  0  0  0  0  0
   37.0670   27.5810   43.4730 C   0  0  0  0  0  0  0  0  0  0  0  0
   36.8850   26.8690   44.2530 H   0  0  0  0  0  0  0  0  0  0  0  0
   38.0760   28.5190   43.6790 C   0  0  0  0  0  3  0  0  0  0  0  0
   38.3770   29.4740   42.7220 C   0  0  0  0  0  3  0  0  0  0  0  0
  1  7  1  0  0  0  0
  1  2  1  0  0  0  0
  2  3  2  0  0  0  0
  2 20  1  0  0  0  0
  3  8  1  0  0  0  0
  4  3  1  0  0  0  0
  5  4  2  0  0  0  0
  6  5  1  0  0  0  0
  6  1  2  0  0  0  0
  9  5  1  0  0  0  0
 10  9  1  0  0  0  0
 10 15  1  0  0  0  0
 11 10  2  0  0  0  0
 12 13  2  0  0  0  0
 12 11  1  0  0  0  0
 13 14  1  0  0  0  0
 14  9  2  0  0  0  0
 16 11  1  0  0  0  0
 17 13  1  0  0  0  0
 18 19  1  0  0  0  0
 19 26  1  0  0  0  0
 20 19  2  0  0  0  0
 20 21  1  0  0  0  0
 21 23  2  0  0  0  0
 22 21  1  0  0  0  0
 23 25  1  0  0  0  0
 23 24  1  0  0  0  0
 26 25  2  0  0  0  0
M  END
>  <minimizedAffinity>
-4.53376913

$$$$

 OpenBabel03252500483D

 26 28  0  0  0  0  0  0  0  0999 V2000
   38.4790   29.9790   41.7460 C   0  0  0  0  0  0  0  0  0  0  0  0
   39.1940   30.4290   40.6340 C   0  0  0  0  0  0  0  0  0  0  0  0
   39.3560   29.5510   39.5420 C   0  0  0  0  0  0  0  0  0  0  0  0
   38.7970   28.2980   39.6370 N   0  0  0  0  0  0  0  0  0  0  0  0
   38.1150   27.9120   40.7330 C   0  0  0  0  0  0  0  0  0  0  0  0
   37.9530   28.7430   41.7850 N   0  0  0  0  0  0  0  0  0  0  0  0
   38.3600   30.6570   42.5750 H   0  0  0  0  0  0  0  0  0  0  0  0
   39.8890   29.8080   38.6460 H   0  0  0  0  0  0  0  0  0  0  0  0
   37.5320   26.5810   40.8100 C   0  0  0  0  0  0  0  0  0  0  0  0
   37.4490   25.9060   41.9860 C   0  0  0  0  0  0  0  0  0  0  0  0
   36.9020   24.6420   42.0950 C   0  0  0  0  0  0  0  0  0  0  0  0
   36.4330   24.0790   40.9480 N   0  0  0  0  0  0  0  0  0  0  0  0
   36.5140   24.7430   39.7940 C   0  0  0  0  0  0  0  0  0  0  0  0
   37.0500   25.9860   39.6730 N   0  0  0  0  0  0  0  0  0  0  0  0
   37.8070   26.3130   42.9170 H   0  0  0  0  0  0  0  0  0  0  0  0
   36.8190   24.0760   43.0060 H   0  0  0  0  0  0  0  0  0  0  0  0
   36.1720   24.3910   38.8190 H   0  0  0  0  0  0  0  0  0  0  0  0
   37.3580   32.7540   39.5750 Br  0  0  0  0  0  0  0  0  0  0  0  0
   39.1770   32.8920   40.0800 C   0  0  0  0  0  0  0  0  0  0  0  0
   39.7870   31.7380   40.5160 C   0  0  0  0  0  0  0  0  0  0  0  0
   41.1260   31.8210   40.8920 C   0  0  0  0  0  0  0  0  0  0  0  0
   41.7560   31.0100   41.2600 H   0  0  0  0  0  0  0  0  0  0  0  0
   41.8290   33.0280   40.8310 C   0  0  0  0  0  0  0  0  0  0  0  0
   42.8580   33.1400   41.1090 H   0  0  0  0  0  0  0  0  0  0  0  0
   41.1570   34.1610   40.3810 C   0  0  0  0  0  3  0  0  0  0  0  0
   39.8260   34.1050   40.0000 C   0  0  0  0  0  3  0  0  0  0  0  0
  1  6  1  0  0  0  0
  1  7  1  0  0  0  0
  2  1  2  0  0  0  0
  3  4  2  0  0  0  0
  3  2  1  0  0  0  0
  4  5  1  0  0  0  0
  5  9  1  0  0  0  0
  5  6  2  0  0  0  0
  8  3  1  0  0  0  0
  9 10  1  0  0  0  0
 10 11  2  0  0  0  0
 10 15  1  0  0  0  0
 11 16  1  0  0  0  0
 12 11  1  0  0  0  0
 13 12  2  0  0  0  0
 14 13  1  0  0  0  0
 14  9  2  0  0  0  0
 17 13  1  0  0  0  0
 18 19  1  0  0  0  0
 19 20  1  0  0  0  0
 20  2  1  0  0  0  0
 20 21  2  0  0  0  0
 21 22  1  0  0  0  0
 23 21  1  0  0  0  0
 23 24  1  0  0  0  0
 25 23  2  0  0  0  0
 26 19  2  0  0  0  0
 26 25  1  0  0  0  0
M  END
>  <minimizedAffinity>
-4.49492884

$$$$

 OpenBabel03252500483D

 26 28  0  0  0  0  0  0  0  0999 V2000
   37.5550   27.4580   39.1530 C   0  0  0  0  0  0  0  0  0  0  0  0
   37.3100   27.7560   40.4950 C   0  0  0  0  0  0  0  0  0  0  0  0
   36.1040   28.4070   40.8280 C   0  0  0  0  0  0  0  0  0  0  0  0
   35.2360   28.7120   39.8050 N   0  0  0  0  0  0  0  0  0  0  0  0
   35.5190   28.4020   38.5250 C   0  0  0  0  0  0  0  0  0  0  0  0
   36.6700   27.7790   38.1940 N   0  0  0  0  0  0  0  0  0  0  0  0
   38.4780   26.9600   38.9080 H   0  0  0  0  0  0  0  0  0  0  0  0
   35.8300   28.6760   41.8300 H   0  0  0  0  0  0  0  0  0  0  0  0
   34.5830   28.7350   37.4600 C   0  0  0  0  0  0  0  0  0  0  0  0
   33.2750   28.9910   37.7160 C   0  0  0  0  0  0  0  0  0  0  0  0
   32.3600   29.3100   36.7310 C   0  0  0  0  0  0  0  0  0  0  0  0
   32.8300   29.3600   35.4550 N   0  0  0  0  0  0  0  0  0  0  0  0
   34.1160   29.1090   35.2050 C   0  0  0  0  0  0  0  0  0  0  0  0
   35.0250   28.7940   36.1640 N   0  0  0  0  0  0  0  0  0  0  0  0
   32.8600   28.9630   38.7110 H   0  0  0  0  0  0  0  0  0  0  0  0
   31.3170   29.5190   36.8940 H   0  0  0  0  0  0  0  0  0  0  0  0
   34.5990   29.1200   34.2270 H   0  0  0  0  0  0  0  0  0  0  0  0
   37.0930   24.8880   41.7680 Br  0  0  0  0  0  0  0  0  0  0  0  0
   38.2900   26.2630   42.2800 C   0  0  0  0  0  0  0  0  0  0  0  0
   38.2080   27.4450   41.5800 C   0  0  0  0  0  0  0  0  0  0  0  0
   39.0810   28.4680   41.9420 C   0  0  0  0  0  0  0  0  0  0  0  0
   39.1510   29.4610   41.4940 H   0  0  0  0  0  0  0  0  0  0  0  0
   40.0080   28.3070   42.9760 C   0  0  0  0  0  0  0  0  0  0  0  0
   40.6970   29.0640   43.2900 H   0  0  0  0  0  0  0  0  0  0  0  0
   40.0420   27.0870   43.6470 C   0  0  0  0  0  3  0  0  0  0  0  0
   39.1840   26.0540   43.3070 C   0  0  0  0  0  3  0  0  0  0  0  0
  1  2  1  0  0  0  0
  2  3  2  0  0  0  0
  2 20  1  0  0  0  0
  3  8  1  0  0  0  0
  4  3  1  0  0  0  0
  5  4  2  0  0  0  0
  6  5  1  0  0  0  0
  6  1  2  0  0  0  0
  7  1  1  0  0  0  0
  9 10  1  0  0  0  0
  9  5  1  0  0  0  0
 10 15  1  0  0  0  0
 11 16  1  0  0  0  0
 11 10  2  0  0  0  0
 12 11  1  0  0  0  0
 13 12  2  0  0  0  0
 13 14  1  0  0  0  0
 14  9  2  0  0  0  0
 17 13  1  0  0  0  0
 18 19  1  0  0  0  0
 19 26  1  0  0  0  0
 20 21  1  0  0  0  0
 20 19  2  0  0  0  0
 21 23  2  0  0  0  0
 22 21  1  0  0  0  0
 23 24  1  0  0  0  0
 23 25  1  0  0  0  0
 26 25  2  0  0  0  0
M  END
>  <minimizedAffinity>
-4.4842782

$$$$

 OpenBabel03252500483D

 26 28  0  0  0  0  0  0  0  0999 V2000
   36.9280   28.7020   39.3040 C   0  0  0  0  0  0  0  0  0  0  0  0
   36.0350   27.8990   38.5920 C   0  0  0  0  0  0  0  0  0  0  0  0
   35.9490   26.5320   38.9280 C   0  0  0  0  0  0  0  0  0  0  0  0
   36.7540   26.0690   39.9420 N   0  0  0  0  0  0  0  0  0  0  0  0
   37.6010   26.8860   40.5990 C   0  0  0  0  0  0  0  0  0  0  0  0
   37.6910   28.1960   40.2870 N   0  0  0  0  0  0  0  0  0  0  0  0
   36.9860   29.7450   39.0410 H   0  0  0  0  0  0  0  0  0  0  0  0
   35.2930   25.8390   38.4370 H   0  0  0  0  0  0  0  0  0  0  0  0
   38.4420   26.3710   41.6690 C   0  0  0  0  0  0  0  0  0  0  0  0
   38.9540   27.1860   42.6270 C   0  0  0  0  0  0  0  0  0  0  0  0
   39.7560   26.7320   43.6570 C   0  0  0  0  0  0  0  0  0  0  0  0
   40.0230   25.3980   43.6790 N   0  0  0  0  0  0  0  0  0  0  0  0
   39.5190   24.5980   42.7380 C   0  0  0  0  0  0  0  0  0  0  0  0
   38.7300   25.0320   41.7200 N   0  0  0  0  0  0  0  0  0  0  0  0
   38.7690   28.2480   42.6480 H   0  0  0  0  0  0  0  0  0  0  0  0
   40.1790   27.3450   44.4320 H   0  0  0  0  0  0  0  0  0  0  0  0
   39.6660   23.5200   42.6580 H   0  0  0  0  0  0  0  0  0  0  0  0
   37.3420   28.2670   35.7540 Br  0  0  0  0  0  0  0  0  0  0  0  0
   35.5370   28.5980   36.2170 C   0  0  0  0  0  0  0  0  0  0  0  0
   35.1830   28.3680   37.5260 C   0  0  0  0  0  0  0  0  0  0  0  0
   33.8580   28.6060   37.8850 C   0  0  0  0  0  0  0  0  0  0  0  0
   33.4110   28.4750   38.8730 H   0  0  0  0  0  0  0  0  0  0  0  0
   32.9190   29.0620   36.9560 C   0  0  0  0  0  0  0  0  0  0  0  0
   31.8910   29.2600   37.1850 H   0  0  0  0  0  0  0  0  0  0  0  0
   33.3390   29.2770   35.6450 C   0  0  0  0  0  3  0  0  0  0  0  0
   34.6510   29.0480   35.2630 C   0  0  0  0  0  3  0  0  0  0  0  0
  1  6  1  0  0  0  0
  2  3  1  0  0  0  0
  2  1  2  0  0  0  0
  3  4  2  0  0  0  0
  4  5  1  0  0  0  0
  5  9  1  0  0  0  0
  6  5  2  0  0  0  0
  7  1  1  0  0  0  0
  8  3  1  0  0  0  0
  9 14  2  0  0  0  0
  9 10  1  0  0  0  0
 10 15  1  0  0  0  0
 10 11  2  0  0  0  0
 11 12  1  0  0  0  0
 11 16  1  0  0  0  0
 13 12  2  0  0  0  0
 14 13  1  0  0  0  0
 17 13  1  0  0  0  0
 18 19  1  0  0  0  0
 19 20  1  0  0  0  0
 20 21  2  0  0  0  0
 20  2  1  0  0  0  0
 21 22  1  0  0  0  0
 23 24  1  0  0  0  0
 23 21  1  0  0  0  0
 25 23  2  0  0  0  0
 26 25  1  0  0  0  0
 26 19  2  0  0  0  0
M  END
>  <minimizedAffinity>
-4.39285326

$$$$
