
 OpenBabel03252504103D

 25 26  0  0  0  0  0  0  0  0999 V2000
   47.0370   34.2760   43.1840 C   0  0  0  0  0  0  0  0  0  0  0  0
   45.7560   34.6220   43.5970 C   0  0  0  0  0  0  0  0  0  0  0  0
   45.1310   33.8030   44.5390 C   0  0  0  0  0  0  0  0  0  0  0  0
   45.8070   32.7140   45.0000 N   0  0  0  0  0  0  0  0  0  0  0  0
   47.0520   32.4200   44.5680 C   0  0  0  0  0  0  0  0  0  0  0  0
   47.6740   33.1840   43.6700 N   0  0  0  0  0  0  0  0  0  0  0  0
   44.1360   34.0510   44.8760 H   0  0  0  0  0  0  0  0  0  0  0  0
   47.1580   32.3010   47.7150 Br  0  0  0  0  0  0  0  0  0  0  0  0
   47.7810   30.9960   46.5050 C   0  0  0  0  0  0  0  0  0  0  0  0
   47.6480   31.2240   45.1520 C   0  0  0  0  0  0  0  0  0  0  0  0
   48.1250   30.2250   44.3310 C   0  0  0  0  0  0  0  0  0  0  0  0
   48.0730   30.2980   43.2400 H   0  0  0  0  0  0  0  0  0  0  0  0
   48.7080   29.0540   44.8270 C   0  0  0  0  0  0  0  0  0  0  0  0
   49.0680   28.3000   44.1260 H   0  0  0  0  0  0  0  0  0  0  0  0
   48.8210   28.8660   46.1870 C   0  0  0  0  0  3  0  0  0  0  0  0
   48.3520   29.8480   47.0030 C   0  0  0  0  0  3  0  0  0  0  0  0
   45.1020   35.8300   43.0350 C   0  0  0  0  0  0  0  0  0  0  0  0
   45.9930   36.9050   43.0740 F   0  0  0  0  0  0  0  0  0  0  0  0
   44.8300   35.5970   41.7090 F   0  0  0  0  0  0  0  0  0  0  0  0
   43.9790   36.2260   43.6910 F   0  0  0  0  0  0  0  0  0  0  0  0
   47.6330   35.0830   42.2670 O   0  0  0  0  0  0  0  0  0  0  0  0
   48.9830   35.0900   41.8820 C   0  0  0  0  0  0  0  0  0  0  0  0
   49.7360   35.2590   43.0600 F   0  0  0  0  0  0  0  0  0  0  0  0
   49.2830   33.9470   41.2170 F   0  0  0  0  0  0  0  0  0  0  0  0
   49.2550   36.2250   41.1420 F   0  0  0  0  0  0  0  0  0  0  0  0
  1  2  2  0  0  0  0
  1  6  1  0  0  0  0
  2  3  1  0  0  0  0
  3  7  1  0  0  0  0
  3  4  2  0  0  0  0
  5  4  1  0  0  0  0
  5 10  1  0  0  0  0
  6  5  2  0  0  0  0
  9 16  1  0  0  0  0
  9  8  1  0  0  0  0
 10  9  2  0  0  0  0
 11 13  2  0  0  0  0
 11 10  1  0  0  0  0
 12 11  1  0  0  0  0
 13 15  1  0  0  0  0
 14 13  1  0  0  0  0
 15 16  2  0  0  0  0
 17 18  1  0  0  0  0
 17  2  1  0  0  0  0
 17 20  1  0  0  0  0
 19 17  1  0  0  0  0
 21  1  1  0  0  0  0
 22 21  1  0  0  0  0
 22 23  1  0  0  0  0
 24 22  1  0  0  0  0
 25 22  1  0  0  0  0
M  END
>  <minimizedAffinity>
-5.23297262

>  <minimizedRMSD>
0.678017914

$$$$
