
 OpenBabel03252500573D

 38 40  0  0  0  0  0  0  0  0999 V2000
   43.5400   35.1050   40.0640 O   0  0  0  0  0  0  0  0  0  0  0  0
   43.2610   34.6840   41.5030 P   0  0  1  0  0  0  0  0  0  0  0  0
   43.3970   33.0050   41.6030 O   0  0  0  0  0  0  0  0  0  0  0  0
   43.2860   32.5630   40.7280 H   0  0  0  0  0  0  0  0  0  0  0  0
   44.4250   35.3600   42.5200 O   0  0  0  0  0  0  0  0  0  0  0  0
   46.5050   34.3210   42.8630 C   0  0  0  0  0  0  0  0  0  0  0  0
   45.2800   34.6760   43.3810 C   0  0  0  0  0  0  0  0  0  0  0  0
   44.9910   34.3290   44.7040 C   0  0  0  0  0  0  0  0  0  0  0  0
   45.9320   33.6650   45.4030 N   0  0  0  0  0  0  0  0  0  0  0  0
   47.1230   33.3280   44.8790 C   0  0  0  0  0  0  0  0  0  0  0  0
   47.4040   33.6550   43.6180 N   0  0  0  0  0  0  0  0  0  0  0  0
   44.0250   34.6270   45.0630 H   0  0  0  0  0  0  0  0  0  0  0  0
   47.7920   32.7960   45.5390 H   0  0  0  0  0  0  0  0  0  0  0  0
   46.8710   34.6510   41.4910 C   0  0  0  0  0  0  0  0  0  0  0  0
   46.1700   35.4160   41.1000 H   0  0  0  0  0  0  0  0  0  0  0  0
   46.8110   33.7950   40.8100 H   0  0  0  0  0  0  0  0  0  0  0  0
   48.2690   35.1870   41.4680 C   0  0  0  0  0  0  0  0  0  0  0  0
   48.2730   36.2350   41.1140 H   0  0  0  0  0  0  0  0  0  0  0  0
   48.7220   35.1820   42.4820 H   0  0  0  0  0  0  0  0  0  0  0  0
   48.9600   34.5480   40.8560 H   0  0  0  0  0  0  0  0  0  0  0  0
   41.6730   35.1080   41.9280 O   0  0  0  0  0  0  0  0  0  0  0  0
   40.6300   34.5450   41.1980 C   0  0  0  0  0  0  0  0  0  0  0  0
   39.9550   35.3810   40.3220 C   0  0  0  0  0  0  0  0  0  0  0  0
   38.8910   34.9130   39.5410 C   0  0  0  0  0  0  0  0  0  0  0  0
   38.5320   33.6020   39.6660 N   0  0  0  0  0  0  0  0  0  0  0  0
   39.1880   32.8130   40.5080 C   0  0  0  0  0  0  0  0  0  0  0  0
   40.2080   33.2730   41.2530 N   0  0  0  0  0  0  0  0  0  0  0  0
   40.2440   36.4310   40.2240 H   0  0  0  0  0  0  0  0  0  0  0  0
   38.3990   35.5880   38.8810 H   0  0  0  0  0  0  0  0  0  0  0  0
   41.1640   30.9510   39.1600 Br  0  0  0  0  0  0  0  0  0  0  0  0
   39.6190   30.3940   40.1210 C   0  0  0  0  0  0  0  0  0  0  0  0
   38.8350   31.4070   40.6690 C   0  0  0  0  0  0  0  0  0  0  0  0
   37.7040   30.9880   41.3730 C   0  0  0  0  0  0  0  0  0  0  0  0
   37.0560   31.7430   41.8210 H   0  0  0  0  0  0  0  0  0  0  0  0
   37.4280   29.6590   41.4870 C   0  0  0  0  0  0  0  0  0  0  0  0
   36.5630   29.2790   42.0220 H   0  0  0  0  0  0  0  0  0  0  0  0
   38.2160   28.6850   40.9390 C   0  0  0  0  0  3  0  0  0  0  0  0
   39.3560   29.0440   40.2260 C   0  0  0  0  0  3  0  0  0  0  0  0
  2  1  2  6  0  0  0
  2  3  1  0  0  0  0
  2 21  1  0  0  0  0
  2  5  1  0  0  0  0
  4  3  1  0  0  0  0
  5  7  1  0  0  0  0
  6  7  2  0  0  0  0
  6 11  1  0  0  0  0
  7  8  1  0  0  0  0
  8 12  1  0  0  0  0
  8  9  2  0  0  0  0
 10  9  1  0  0  0  0
 10 13  1  0  0  0  0
 11 10  2  0  0  0  0
 14  6  1  0  0  0  0
 15 14  1  0  0  0  0
 16 14  1  0  0  0  0
 17 14  1  0  0  0  0
 17 19  1  0  0  0  0
 18 17  1  0  0  0  0
 20 17  1  0  0  0  0
 22 27  1  0  0  0  0
 22 21  1  0  0  0  0
 23 22  2  0  0  0  0
 24 25  2  0  0  0  0
 24 23  1  0  0  0  0
 25 26  1  0  0  0  0
 26 32  1  0  0  0  0
 26 27  2  0  0  0  0
 28 23  1  0  0  0  0
 29 24  1  0  0  0  0
 30 31  1  0  0  0  0
 31 38  2  0  0  0  0
 31 32  1  0  0  0  0
 32 33  2  0  0  0  0
 33 35  1  0  0  0  0
 33 34  1  0  0  0  0
 35 36  1  0  0  0  0
 37 35  2  0  0  0  0
 38 37  1  0  0  0  0
M  END
>  <minimizedAffinity>
-5.45039558

>  <minimizedRMSD>
0.922365606

$$$$
