
 OpenBabel03252506053D

 43 47  0  0  0  0  0  0  0  0999 V2000
   44.7250   35.8920   43.3850 Cl  0  0  0  0  0  0  0  0  0  0  0  0
   45.4950   34.6550   44.3220 C   0  0  0  0  0  0  0  0  0  0  0  0
   46.5690   33.9560   43.8020 C   0  0  0  0  0  0  0  0  0  0  0  0
   47.1110   32.9900   44.6300 C   0  0  0  0  0  0  0  0  0  0  0  0
   46.6570   32.6950   45.8970 C   0  0  0  0  0  0  0  0  0  0  0  0
   45.5920   33.4070   46.3770 C   0  0  0  0  0  0  0  0  0  0  0  0
   45.0530   32.9950   47.9950 Cl  0  0  0  0  0  0  0  0  0  0  0  0
   45.0180   34.3730   45.6030 C   0  0  0  0  0  0  0  0  0  0  0  0
   47.9580   32.4460   44.2080 H   0  0  0  0  0  0  0  0  0  0  0  0
   44.1760   34.9210   46.0100 H   0  0  0  0  0  0  0  0  0  0  0  0
   47.3680   31.6340   46.6160 C   0  0  0  0  0  0  0  0  0  0  0  0
   47.4950   30.3450   46.1300 C   0  0  0  0  0  0  0  0  0  0  0  0
   48.1600   29.3320   46.7920 C   0  0  0  0  0  0  0  0  0  0  0  0
   48.7390   29.6010   48.0120 C   0  0  0  0  0  0  0  0  0  0  0  0
   49.3820   28.6020   48.6400 N   0  0  0  0  0  0  0  0  0  0  0  0
   49.9820   28.7750   49.8430 C   0  0  0  0  0  0  0  0  0  0  0  0
   49.8980   30.0440   50.3950 C   0  0  0  0  0  0  0  0  0  0  0  0
   49.2450   31.0630   49.7600 C   0  0  0  0  0  0  0  0  0  0  0  0
   48.6390   30.8650   48.5310 C   0  0  0  0  0  0  0  0  0  0  0  0
   47.9700   31.8620   47.8540 C   0  0  0  0  0  0  0  0  0  0  0  0
   47.0390   30.1320   45.1720 H   0  0  0  0  0  0  0  0  0  0  0  0
   48.2060   28.3560   46.3320 H   0  0  0  0  0  0  0  0  0  0  0  0
   50.4840   27.9430   50.3020 H   0  0  0  0  0  0  0  0  0  0  0  0
   50.3710   30.2040   51.3570 H   0  0  0  0  0  0  0  0  0  0  0  0
   49.1800   32.0530   50.1930 H   0  0  0  0  0  0  0  0  0  0  0  0
   47.9110   32.8490   48.2950 H   0  0  0  0  0  0  0  0  0  0  0  0
   48.6210   35.3150   41.1160 C   0  0  0  0  0  0  0  0  0  0  0  0
   48.0940   34.6990   39.9720 C   0  0  0  0  0  0  0  0  0  0  0  0
   47.0170   33.8030   40.1260 C   0  0  0  0  0  0  0  0  0  0  0  0
   46.5870   33.6210   41.3880 N   0  0  0  0  0  0  0  0  0  0  0  0
   47.1010   34.2160   42.4720 C   0  0  0  0  0  0  0  0  0  0  0  0
   48.1230   35.0690   42.3470 N   0  0  0  0  0  0  0  0  0  0  0  0
   49.4510   36.0000   40.9690 H   0  0  0  0  0  0  0  0  0  0  0  0
   48.4910   34.8940   38.9880 H   0  0  0  0  0  0  0  0  0  0  0  0
   43.9650   34.0950   40.1940 Br  0  0  0  0  0  0  0  0  0  0  0  0
   45.0270   33.1560   38.8940 C   0  0  0  0  0  0  0  0  0  0  0  0
   46.4010   33.1160   39.0000 C   0  0  0  0  0  0  0  0  0  0  0  0
   47.0930   32.4310   38.0410 C   0  0  0  0  0  0  0  0  0  0  0  0
   48.1670   32.3740   38.0880 H   0  0  0  0  0  0  0  0  0  0  0  0
   46.3940   31.8230   37.0280 C   0  0  0  0  0  0  0  0  0  0  0  0
   46.9650   31.2800   36.2700 H   0  0  0  0  0  0  0  0  0  0  0  0
   45.0200   31.8520   36.9030 C   0  0  0  0  0  3  0  0  0  0  0  0
   44.3230   32.5560   37.8920 C   0  0  0  0  0  3  0  0  0  0  0  0
  1  2  1  0  0  0  0
  2  8  1  0  0  0  0
  3  2  2  0  0  0  0
  3  4  1  0  0  0  0
  4  5  2  0  0  0  0
  5  6  1  0  0  0  0
  5 11  1  0  0  0  0
  6  7  1  0  0  0  0
  8 10  1  0  0  0  0
  8  6  2  0  0  0  0
  9  4  1  0  0  0  0
 11 20  1  0  0  0  0
 12 11  2  0  0  0  0
 12 13  1  0  0  0  0
 13 14  2  0  0  0  0
 14 19  1  0  0  0  0
 14 15  1  0  0  0  0
 15 16  2  0  0  0  0
 16 23  1  0  0  0  0
 16 17  1  0  0  0  0
 17 24  1  0  0  0  0
 18 25  1  0  0  0  0
 18 17  2  0  0  0  0
 19 18  1  0  0  0  0
 20 26  1  0  0  0  0
 20 19  2  0  0  0  0
 21 12  1  0  0  0  0
 22 13  1  0  0  0  0
 27 32  1  0  0  0  0
 28 29  1  0  0  0  0
 28 27  2  0  0  0  0
 29 30  2  0  0  0  0
 30 31  1  0  0  0  0
 31  3  1  0  0  0  0
 32 31  2  0  0  0  0
 33 27  1  0  0  0  0
 34 28  1  0  0  0  0
 36 37  1  0  0  0  0
 36 35  1  0  0  0  0
 37 29  1  0  0  0  0
 38 39  1  0  0  0  0
 38 37  2  0  0  0  0
 40 38  1  0  0  0  0
 41 40  1  0  0  0  0
 42 40  2  0  0  0  0
 42 43  1  0  0  0  0
 43 36  2  0  0  0  0
M  END
>  <minimizedAffinity>
-7.32080173

>  <minimizedRMSD>
0.392093122

$$$$
