
 OpenBabel03242518463D

 45 48  0  0  1  0  0  0  0  0999 V2000
   47.4170   32.9260   44.3520 C   0  0  2  0  0  0  0  0  0  0  0  0
   47.3740   33.3460   42.9280 C   0  0  1  0  0  0  0  0  0  0  0  0
   47.3570   32.1540   41.9690 C   0  0  0  0  0  0  0  0  0  0  0  0
   48.4750   31.4040   42.3370 O   0  0  0  0  0  0  0  0  0  0  0  0
   48.2810   30.7520   43.5350 C   0  0  0  0  0  0  0  0  0  0  0  0
   47.2660   31.3920   44.4280 C   0  0  1  0  0  0  0  0  0  0  0  0
   48.4110   33.1430   44.7860 H   0  0  0  0  0  0  0  0  0  0  0  0
   48.2930   33.9310   42.6900 H   0  0  0  0  0  0  0  0  0  0  0  0
   46.4050   31.5940   42.0390 H   0  0  0  0  0  0  0  0  0  0  0  0
   47.5580   32.5240   40.9400 H   0  0  0  0  0  0  0  0  0  0  0  0
   48.0020   29.6930   43.3880 H   0  0  0  0  0  0  0  0  0  0  0  0
   49.2640   30.7270   44.0620 H   0  0  0  0  0  0  0  0  0  0  0  0
   46.2280   31.1840   44.0930 H   0  0  0  0  0  0  0  0  0  0  0  0
   45.0060   36.1370   42.7630 C   0  0  0  0  0  0  0  0  0  0  0  0
   44.0020   35.6940   41.8490 C   0  0  0  0  0  0  0  0  0  0  0  0
   44.2040   34.3940   41.3120 C   0  0  0  0  0  0  0  0  0  0  0  0
   45.2900   33.6810   41.6800 N   0  0  0  0  0  0  0  0  0  0  0  0
   46.2030   34.1610   42.5500 C   0  0  0  0  0  0  0  0  0  0  0  0
   46.0610   35.3920   43.0940 N   0  0  0  0  0  0  0  0  0  0  0  0
   43.1710   36.3360   41.6170 H   0  0  0  0  0  0  0  0  0  0  0  0
   43.4520   34.0730   40.6330 H   0  0  0  0  0  0  0  0  0  0  0  0
   44.8300   37.3790   43.2910 O   0  0  0  0  0  0  0  0  0  0  0  0
   45.6090   38.0110   43.3670 H   0  0  0  0  0  0  0  0  0  0  0  0
   46.4200   33.4970   45.1420 O   0  0  0  0  0  0  0  0  0  0  0  0
   45.5760   33.0310   44.9420 H   0  0  0  0  0  0  0  0  0  0  0  0
   47.4000   31.0520   45.7550 O   0  0  0  0  0  0  0  0  0  0  0  0
   46.5750   28.4810   45.6370 F   0  0  0  0  0  0  0  0  0  0  0  0
   46.2220   29.3660   46.5920 C   0  0  0  0  0  0  0  0  0  0  0  0
   46.5940   30.6850   46.7340 C   0  0  0  0  0  0  0  0  0  0  0  0
   46.0650   31.3320   47.8380 C   0  0  0  0  0  0  0  0  0  0  0  0
   45.2260   30.7880   48.7760 C   0  0  0  0  0  0  0  0  0  0  0  0
   44.8900   29.4810   48.5870 C   0  0  0  0  0  0  0  0  0  0  0  0
   45.3610   28.7400   47.5190 C   0  0  0  0  0  0  0  0  0  0  0  0
   46.4080   32.3820   47.8830 H   0  0  0  0  0  0  0  0  0  0  0  0
   44.9130   31.4380   49.5680 H   0  0  0  0  0  0  0  0  0  0  0  0
   44.2160   29.0310   49.3350 H   0  0  0  0  0  0  0  0  0  0  0  0
   43.1120   28.5610   45.5020 Br  0  0  0  0  0  0  0  0  0  0  0  0
   43.8620   27.1580   46.5530 C   0  0  0  0  0  0  0  0  0  0  0  0
   44.9070   27.3510   47.4610 C   0  0  0  0  0  0  0  0  0  0  0  0
   45.4280   26.3150   48.2080 C   0  0  0  0  0  0  0  0  0  0  0  0
   46.2470   26.5560   48.8960 H   0  0  0  0  0  0  0  0  0  0  0  0
   44.9140   25.0400   48.0650 C   0  0  0  0  0  0  0  0  0  0  0  0
   45.3230   24.2230   48.6520 H   0  0  0  0  0  0  0  0  0  0  0  0
   43.8720   24.7990   47.1720 C   0  0  0  0  0  0  0  0  0  0  0  0
   43.3610   25.8680   46.4260 C   0  0  0  0  0  0  0  0  0  0  0  0
  1  6  1  0  0  0  0
  1  7  1  1  0  0  0
  1 24  1  0  0  0  0
  2  8  1  6  0  0  0
  2  1  1  0  0  0  0
  3  9  1  0  0  0  0
  3  4  1  0  0  0  0
  3  2  1  0  0  0  0
  4  5  1  0  0  0  0
  5 12  1  0  0  0  0
  5  6  1  0  0  0  0
  6 13  1  6  0  0  0
  6 26  1  0  0  0  0
 10  3  1  0  0  0  0
 11  5  1  0  0  0  0
 14 19  1  0  0  0  0
 14 22  1  0  0  0  0
 15 14  2  0  0  0  0
 16 17  2  0  0  0  0
 16 15  1  0  0  0  0
 17 18  1  0  0  0  0
 18  2  1  0  0  0  0
 18 19  2  0  0  0  0
 20 15  1  0  0  0  0
 21 16  1  0  0  0  0
 22 23  1  0  0  0  0
 25 24  1  0  0  0  0
 26 29  1  0  0  0  0
 27 28  1  0  0  0  0
 28 29  2  0  0  0  0
 28 33  1  0  0  0  0
 29 30  1  0  0  0  0
 30 34  1  0  0  0  0
 30 31  2  0  0  0  0
 31 35  1  0  0  0  0
 32 31  1  0  0  0  0
 32 36  1  0  0  0  0
 33 32  2  0  0  0  0
 37 38  1  0  0  0  0
 38 39  1  0  0  0  0
 39 33  1  0  0  0  0
 39 40  2  0  0  0  0
 40 41  1  0  0  0  0
 42 40  1  0  0  0  0
 42 43  1  0  0  0  0
 44 42  2  0  0  0  0
 45 38  2  0  0  0  0
 45 44  1  0  0  0  0
M  END
>  <minimizedAffinity>
-5.87726641

>  <minimizedRMSD>
1.15693974

$$$$
