
 OpenBabel03252504103D

 25 26  0  0  0  0  0  0  0  0999 V2000
   47.3220   33.9210   40.5330 C   0  0  0  0  0  0  0  0  0  0  0  0
   47.5900   34.9850   41.3860 C   0  0  0  0  0  0  0  0  0  0  0  0
   46.5820   35.3850   42.2660 C   0  0  0  0  0  0  0  0  0  0  0  0
   45.3980   34.7140   42.2420 N   0  0  0  0  0  0  0  0  0  0  0  0
   45.1850   33.6850   41.3940 C   0  0  0  0  0  0  0  0  0  0  0  0
   46.1280   33.2810   40.5430 N   0  0  0  0  0  0  0  0  0  0  0  0
   46.7660   36.2090   42.9390 H   0  0  0  0  0  0  0  0  0  0  0  0
   44.9970   31.0390   43.0940 Br  0  0  0  0  0  0  0  0  0  0  0  0
   43.5940   31.9070   42.1810 C   0  0  0  0  0  0  0  0  0  0  0  0
   43.8680   33.0650   41.4830 C   0  0  0  0  0  0  0  0  0  0  0  0
   42.7930   33.6410   40.8420 C   0  0  0  0  0  0  0  0  0  0  0  0
   42.8940   34.5610   40.2590 H   0  0  0  0  0  0  0  0  0  0  0  0
   41.5050   33.0970   40.8890 C   0  0  0  0  0  0  0  0  0  0  0  0
   40.6960   33.6000   40.3600 H   0  0  0  0  0  0  0  0  0  0  0  0
   41.2750   31.9370   41.5980 C   0  0  0  0  0  3  0  0  0  0  0  0
   42.3320   31.3640   42.2330 C   0  0  0  0  0  3  0  0  0  0  0  0
   48.9140   35.6520   41.3370 C   0  0  0  0  0  0  0  0  0  0  0  0
   49.9160   34.7260   41.6360 F   0  0  0  0  0  0  0  0  0  0  0  0
   49.1410   36.0690   40.0490 F   0  0  0  0  0  0  0  0  0  0  0  0
   49.0620   36.6860   42.2070 F   0  0  0  0  0  0  0  0  0  0  0  0
   48.3120   33.5430   39.6820 O   0  0  0  0  0  0  0  0  0  0  0  0
   48.2520   33.4670   38.2800 C   0  0  0  0  0  0  0  0  0  0  0  0
   47.3790   32.4050   37.9730 F   0  0  0  0  0  0  0  0  0  0  0  0
   47.8490   34.6550   37.7660 F   0  0  0  0  0  0  0  0  0  0  0  0
   49.4730   33.0560   37.7810 F   0  0  0  0  0  0  0  0  0  0  0  0
  1  6  2  0  0  0  0
  1  2  1  0  0  0  0
  2  3  2  0  0  0  0
  3  7  1  0  0  0  0
  4  3  1  0  0  0  0
  5 10  1  0  0  0  0
  5  4  2  0  0  0  0
  6  5  1  0  0  0  0
  9 16  1  0  0  0  0
  9  8  1  0  0  0  0
 10  9  2  0  0  0  0
 11 13  2  0  0  0  0
 11 10  1  0  0  0  0
 12 11  1  0  0  0  0
 13 15  1  0  0  0  0
 14 13  1  0  0  0  0
 15 16  2  0  0  0  0
 17  2  1  0  0  0  0
 17 18  1  0  0  0  0
 17 20  1  0  0  0  0
 19 17  1  0  0  0  0
 21  1  1  0  0  0  0
 22 21  1  0  0  0  0
 23 22  1  0  0  0  0
 24 22  1  0  0  0  0
 25 22  1  0  0  0  0
M  END
>  <minimizedAffinity>
-4.99424934

>  <minimizedRMSD>
5.53229094

$$$$
