
 OpenBabel03252504103D

 25 26  0  0  0  0  0  0  0  0999 V2000
   46.9370   33.9390   43.2010 C   0  0  0  0  0  0  0  0  0  0  0  0
   45.6780   33.7040   42.6590 C   0  0  0  0  0  0  0  0  0  0  0  0
   44.9560   32.6090   43.1370 C   0  0  0  0  0  0  0  0  0  0  0  0
   45.5190   31.8350   44.1050 N   0  0  0  0  0  0  0  0  0  0  0  0
   46.7450   32.1030   44.6010 C   0  0  0  0  0  0  0  0  0  0  0  0
   47.4590   33.1420   44.1640 N   0  0  0  0  0  0  0  0  0  0  0  0
   43.9760   32.4070   42.7310 H   0  0  0  0  0  0  0  0  0  0  0  0
   45.6870   32.6200   47.5230 Br  0  0  0  0  0  0  0  0  0  0  0  0
   46.8620   31.2550   46.9630 C   0  0  0  0  0  0  0  0  0  0  0  0
   47.2160   31.1860   45.6320 C   0  0  0  0  0  0  0  0  0  0  0  0
   48.0780   30.1620   45.2980 C   0  0  0  0  0  0  0  0  0  0  0  0
   48.4250   30.0120   44.2730 H   0  0  0  0  0  0  0  0  0  0  0  0
   48.5660   29.2500   46.2380 C   0  0  0  0  0  0  0  0  0  0  0  0
   49.2440   28.4620   45.9120 H   0  0  0  0  0  0  0  0  0  0  0  0
   48.1850   29.3550   47.5590 C   0  0  0  0  0  3  0  0  0  0  0  0
   47.3360   30.3620   47.8960 C   0  0  0  0  0  3  0  0  0  0  0  0
   45.1510   34.6070   41.6060 C   0  0  0  0  0  0  0  0  0  0  0  0
   45.1600   35.9240   42.0720 F   0  0  0  0  0  0  0  0  0  0  0  0
   46.0060   34.5680   40.5330 F   0  0  0  0  0  0  0  0  0  0  0  0
   43.8770   34.3380   41.2130 F   0  0  0  0  0  0  0  0  0  0  0  0
   47.6280   35.0070   42.7250 O   0  0  0  0  0  0  0  0  0  0  0  0
   48.8520   34.9960   42.0360 C   0  0  0  0  0  0  0  0  0  0  0  0
   49.8590   35.1870   43.0030 F   0  0  0  0  0  0  0  0  0  0  0  0
   48.9880   33.8360   41.3470 F   0  0  0  0  0  0  0  0  0  0  0  0
   48.9450   36.1120   41.2270 F   0  0  0  0  0  0  0  0  0  0  0  0
  1  6  1  0  0  0  0
  2  3  1  0  0  0  0
  2  1  2  0  0  0  0
  3  4  2  0  0  0  0
  4  5  1  0  0  0  0
  5 10  1  0  0  0  0
  6  5  2  0  0  0  0
  7  3  1  0  0  0  0
  9  8  1  0  0  0  0
  9 16  1  0  0  0  0
 10  9  2  0  0  0  0
 11 10  1  0  0  0  0
 11 13  2  0  0  0  0
 12 11  1  0  0  0  0
 13 15  1  0  0  0  0
 14 13  1  0  0  0  0
 15 16  2  0  0  0  0
 17 18  1  0  0  0  0
 17  2  1  0  0  0  0
 19 17  1  0  0  0  0
 20 17  1  0  0  0  0
 21  1  1  0  0  0  0
 22 21  1  0  0  0  0
 22 23  1  0  0  0  0
 24 22  1  0  0  0  0
 25 22  1  0  0  0  0
M  END
>  <minimizedAffinity>
-5.2351675

>  <minimizedRMSD>
1.31396222

$$$$
