
 OpenBabel03242521393D

 21 22  0  0  0  0  0  0  0  0999 V2000
   45.4250   34.8450   44.1200 C   0  0  0  0  0  0  0  0  0  0  0  0
   45.6810   34.8330   42.7520 C   0  0  0  0  0  0  0  0  0  0  0  0
   46.5740   33.8880   42.2400 C   0  0  0  0  0  0  0  0  0  0  0  0
   47.1370   33.0350   43.1210 N   0  0  0  0  0  0  0  0  0  0  0  0
   46.8690   33.0720   44.4450 C   0  0  0  0  0  0  0  0  0  0  0  0
   46.0100   33.9800   44.9450 N   0  0  0  0  0  0  0  0  0  0  0  0
   45.1960   35.5380   42.1290 H   0  0  0  0  0  0  0  0  0  0  0  0
   47.3640   32.3510   45.0860 H   0  0  0  0  0  0  0  0  0  0  0  0
   48.9780   35.6150   41.5750 Br  0  0  0  0  0  0  0  0  0  0  0  0
   47.9520   34.5630   40.3500 C   0  0  0  0  0  0  0  0  0  0  0  0
   46.8810   33.8270   40.8150 C   0  0  0  0  0  0  0  0  0  0  0  0
   46.1920   33.0990   39.8840 C   0  0  0  0  0  0  0  0  0  0  0  0
   45.3510   32.5140   40.2120 H   0  0  0  0  0  0  0  0  0  0  0  0
   46.5520   33.0990   38.5500 C   0  0  0  0  0  0  0  0  0  0  0  0
   45.9640   32.4970   37.8530 H   0  0  0  0  0  0  0  0  0  0  0  0
   47.6310   33.8490   38.1290 C   0  0  0  0  0  3  0  0  0  0  0  0
   48.3590   34.6040   39.0330 C   0  0  0  0  0  3  0  0  0  0  0  0
   44.4650   35.8710   44.6280 C   0  0  0  0  0  0  0  0  0  0  0  0
   44.0060   35.5680   45.5870 H   0  0  0  0  0  0  0  0  0  0  0  0
   43.7010   36.0670   43.8570 H   0  0  0  0  0  0  0  0  0  0  0  0
   45.0630   36.8000   44.7420 H   0  0  0  0  0  0  0  0  0  0  0  0
  1 18  1  0  0  0  0
  1  6  1  0  0  0  0
  2  1  2  0  0  0  0
  3  2  1  0  0  0  0
  3  4  2  0  0  0  0
  4  5  1  0  0  0  0
  5  6  2  0  0  0  0
  5  8  1  0  0  0  0
  7  2  1  0  0  0  0
 10 11  1  0  0  0  0
 10  9  1  0  0  0  0
 11  3  1  0  0  0  0
 12 13  1  0  0  0  0
 12 11  2  0  0  0  0
 14 12  1  0  0  0  0
 15 14  1  0  0  0  0
 16 14  2  0  0  0  0
 16 17  1  0  0  0  0
 17 10  2  0  0  0  0
 18 21  1  0  0  0  0
 18 19  1  0  0  0  0
 20 18  1  0  0  0  0
M  END
>  <minimizedAffinity>
-4.53047132

>  <minimizedRMSD>
4.02178431

$$$$
