
 OpenBabel03242519583D

 28 30  0  0  0  0  0  0  0  0999 V2000
   44.6790   32.9340   41.2420 Br  0  0  0  0  0  0  0  0  0  0  0  0
   46.3180   33.9080   41.0100 C   0  0  0  0  0  0  0  0  0  0  0  0
   46.8440   34.7190   41.9870 C   0  0  0  0  0  0  0  0  0  0  0  0
   48.0310   35.3760   41.7180 C   0  0  0  0  0  0  0  0  0  0  0  0
   48.6960   35.2490   40.5230 C   0  0  0  0  0  0  0  0  0  0  0  0
   48.1740   34.4350   39.5360 C   0  0  0  0  0  0  0  0  0  0  0  0
   46.9840   33.7810   39.8150 C   0  0  0  0  0  0  0  0  0  0  0  0
   48.4240   36.0130   42.5120 H   0  0  0  0  0  0  0  0  0  0  0  0
   49.6100   35.7550   40.3160 H   0  0  0  0  0  0  0  0  0  0  0  0
   48.6330   34.2810   38.5750 H   0  0  0  0  0  0  0  0  0  0  0  0
   44.4800   35.9480   44.6900 C   0  0  0  0  0  0  0  0  0  0  0  0
   45.1870   35.8400   43.4960 C   0  0  0  0  0  0  0  0  0  0  0  0
   46.1000   34.8280   43.2510 C   0  0  0  0  0  0  0  0  0  0  0  0
   46.2670   33.9290   44.2610 N   0  0  0  0  0  0  0  0  0  0  0  0
   45.5820   34.0340   45.4200 C   0  0  0  0  0  0  0  0  0  0  0  0
   44.7090   35.0160   45.6330 N   0  0  0  0  0  0  0  0  0  0  0  0
   43.8010   36.7800   44.7550 H   0  0  0  0  0  0  0  0  0  0  0  0
   45.0310   36.5780   42.7010 H   0  0  0  0  0  0  0  0  0  0  0  0
   45.7910   33.2640   46.1590 H   0  0  0  0  0  0  0  0  0  0  0  0
   48.1510   30.9880   40.1530 Br  0  0  0  0  0  0  0  0  0  0  0  0
   46.8910   31.6140   38.8370 C   0  0  0  0  0  0  0  0  0  0  0  0
   46.4200   32.9100   38.7670 C   0  0  0  0  0  0  0  0  0  0  0  0
   45.5210   33.2690   37.7940 C   0  0  0  0  0  0  0  0  0  0  0  0
   45.2140   34.3060   37.8250 H   0  0  0  0  0  0  0  0  0  0  0  0
   45.0980   32.3200   36.8900 C   0  0  0  0  0  0  0  0  0  0  0  0
   44.3780   32.6540   36.1290 H   0  0  0  0  0  0  0  0  0  0  0  0
   45.5650   31.0250   36.9540 C   0  0  0  0  0  3  0  0  0  0  0  0
   46.4790   30.6370   37.9350 C   0  0  0  0  0  3  0  0  0  0  0  0
  2  1  1  0  0  0  0
  2  3  1  0  0  0  0
  3 13  1  0  0  0  0
  4  3  2  0  0  0  0
  4  8  1  0  0  0  0
  5  4  1  0  0  0  0
  6  7  1  0  0  0  0
  6  5  2  0  0  0  0
  7  2  2  0  0  0  0
  9  5  1  0  0  0  0
 10  6  1  0  0  0  0
 11 17  1  0  0  0  0
 11 16  1  0  0  0  0
 12 11  2  0  0  0  0
 13 12  1  0  0  0  0
 13 14  2  0  0  0  0
 14 15  1  0  0  0  0
 15 16  2  0  0  0  0
 15 19  1  0  0  0  0
 18 12  1  0  0  0  0
 21 20  1  0  0  0  0
 22 21  1  0  0  0  0
 22  7  1  0  0  0  0
 23 24  1  0  0  0  0
 23 22  2  0  0  0  0
 25 27  2  0  0  0  0
 25 23  1  0  0  0  0
 26 25  1  0  0  0  0
 27 28  1  0  0  0  0
 28 21  2  0  0  0  0
M  END
>  <minimizedAffinity>
-5.513165

>  <minimizedRMSD>
0.836173713

$$$$
