
 OpenBabel03252504103D

 25 26  0  0  0  0  0  0  0  0999 V2000
   47.0470   34.2980   42.5820 C   0  0  0  0  0  0  0  0  0  0  0  0
   45.7110   34.3510   42.9650 C   0  0  0  0  0  0  0  0  0  0  0  0
   45.1150   33.1720   43.4180 C   0  0  0  0  0  0  0  0  0  0  0  0
   45.8690   32.0400   43.4600 N   0  0  0  0  0  0  0  0  0  0  0  0
   47.1640   32.0380   43.0770 C   0  0  0  0  0  0  0  0  0  0  0  0
   47.7600   33.1480   42.6410 N   0  0  0  0  0  0  0  0  0  0  0  0
   44.0790   33.1890   43.7210 H   0  0  0  0  0  0  0  0  0  0  0  0
   47.3240   30.3280   40.4350 Br  0  0  0  0  0  0  0  0  0  0  0  0
   48.0090   29.8700   42.1300 C   0  0  0  0  0  0  0  0  0  0  0  0
   47.8420   30.7510   43.1780 C   0  0  0  0  0  0  0  0  0  0  0  0
   48.3710   30.3470   44.3860 C   0  0  0  0  0  0  0  0  0  0  0  0
   48.2970   30.9660   45.2840 H   0  0  0  0  0  0  0  0  0  0  0  0
   49.0330   29.1270   44.5490 C   0  0  0  0  0  0  0  0  0  0  0  0
   49.4290   28.8640   45.5300 H   0  0  0  0  0  0  0  0  0  0  0  0
   49.1780   28.2740   43.4750 C   0  0  0  0  0  3  0  0  0  0  0  0
   48.6590   28.6670   42.2810 C   0  0  0  0  0  3  0  0  0  0  0  0
   44.9730   35.6360   42.8830 C   0  0  0  0  0  0  0  0  0  0  0  0
   45.8540   36.6960   43.1070 F   0  0  0  0  0  0  0  0  0  0  0  0
   44.5030   35.7830   41.6010 F   0  0  0  0  0  0  0  0  0  0  0  0
   43.9610   35.7690   43.7820 F   0  0  0  0  0  0  0  0  0  0  0  0
   47.6130   35.4520   42.1430 O   0  0  0  0  0  0  0  0  0  0  0  0
   48.7850   35.5940   41.3820 C   0  0  0  0  0  0  0  0  0  0  0  0
   49.7350   34.7170   41.9400 F   0  0  0  0  0  0  0  0  0  0  0  0
   48.5250   35.3390   40.0760 F   0  0  0  0  0  0  0  0  0  0  0  0
   49.3260   36.8500   41.5840 F   0  0  0  0  0  0  0  0  0  0  0  0
  1  6  2  0  0  0  0
  1  2  1  0  0  0  0
  2  3  2  0  0  0  0
  3  4  1  0  0  0  0
  3  7  1  0  0  0  0
  5 10  1  0  0  0  0
  5  4  2  0  0  0  0
  6  5  1  0  0  0  0
  8  9  1  0  0  0  0
  9 16  2  0  0  0  0
  9 10  1  0  0  0  0
 10 11  2  0  0  0  0
 11 13  1  0  0  0  0
 11 12  1  0  0  0  0
 13 14  1  0  0  0  0
 15 13  2  0  0  0  0
 16 15  1  0  0  0  0
 17  2  1  0  0  0  0
 17 18  1  0  0  0  0
 17 20  1  0  0  0  0
 19 17  1  0  0  0  0
 21  1  1  0  0  0  0
 22 25  1  0  0  0  0
 22 23  1  0  0  0  0
 22 21  1  0  0  0  0
 24 22  1  0  0  0  0
M  END
>  <minimizedAffinity>
-4.91955328

>  <minimizedRMSD>
2.14231253

$$$$
