
 OpenBabel03252504103D

 25 26  0  0  0  0  0  0  0  0999 V2000
   46.9350   33.9390   43.2000 C   0  0  0  0  0  0  0  0  0  0  0  0
   45.6770   33.7040   42.6570 C   0  0  0  0  0  0  0  0  0  0  0  0
   44.9540   32.6090   43.1370 C   0  0  0  0  0  0  0  0  0  0  0  0
   45.5180   31.8350   44.1050 N   0  0  0  0  0  0  0  0  0  0  0  0
   46.7440   32.1040   44.6010 C   0  0  0  0  0  0  0  0  0  0  0  0
   47.4580   33.1420   44.1630 N   0  0  0  0  0  0  0  0  0  0  0  0
   43.9750   32.4060   42.7310 H   0  0  0  0  0  0  0  0  0  0  0  0
   45.6860   32.6220   47.5220 Br  0  0  0  0  0  0  0  0  0  0  0  0
   46.8610   31.2580   46.9630 C   0  0  0  0  0  0  0  0  0  0  0  0
   47.2160   31.1880   45.6320 C   0  0  0  0  0  0  0  0  0  0  0  0
   48.0770   30.1640   45.2980 C   0  0  0  0  0  0  0  0  0  0  0  0
   48.4250   30.0130   44.2730 H   0  0  0  0  0  0  0  0  0  0  0  0
   48.5650   29.2520   46.2400 C   0  0  0  0  0  0  0  0  0  0  0  0
   49.2440   28.4630   45.9140 H   0  0  0  0  0  0  0  0  0  0  0  0
   48.1850   29.3580   47.5600 C   0  0  0  0  0  3  0  0  0  0  0  0
   47.3350   30.3660   47.8960 C   0  0  0  0  0  3  0  0  0  0  0  0
   45.1490   34.6060   41.6040 C   0  0  0  0  0  0  0  0  0  0  0  0
   45.1570   35.9230   42.0700 F   0  0  0  0  0  0  0  0  0  0  0  0
   46.0050   34.5670   40.5320 F   0  0  0  0  0  0  0  0  0  0  0  0
   43.8760   34.3360   41.2100 F   0  0  0  0  0  0  0  0  0  0  0  0
   47.6270   35.0070   42.7230 O   0  0  0  0  0  0  0  0  0  0  0  0
   48.8520   34.9960   42.0350 C   0  0  0  0  0  0  0  0  0  0  0  0
   49.8570   35.1870   43.0030 F   0  0  0  0  0  0  0  0  0  0  0  0
   48.9880   33.8360   41.3470 F   0  0  0  0  0  0  0  0  0  0  0  0
   48.9450   36.1120   41.2270 F   0  0  0  0  0  0  0  0  0  0  0  0
  1  6  1  0  0  0  0
  2  3  1  0  0  0  0
  2  1  2  0  0  0  0
  3  4  2  0  0  0  0
  4  5  1  0  0  0  0
  5 10  1  0  0  0  0
  6  5  2  0  0  0  0
  7  3  1  0  0  0  0
  9  8  1  0  0  0  0
  9 16  1  0  0  0  0
 10  9  2  0  0  0  0
 11 10  1  0  0  0  0
 11 13  2  0  0  0  0
 12 11  1  0  0  0  0
 13 15  1  0  0  0  0
 14 13  1  0  0  0  0
 15 16  2  0  0  0  0
 17 18  1  0  0  0  0
 17  2  1  0  0  0  0
 19 17  1  0  0  0  0
 20 17  1  0  0  0  0
 21  1  1  0  0  0  0
 22 21  1  0  0  0  0
 22 23  1  0  0  0  0
 24 22  1  0  0  0  0
 25 22  1  0  0  0  0
M  END
>  <minimizedAffinity>
-5.23497772

>  <minimizedRMSD>
1.32336676

$$$$
