
 OpenBabel03252502013D

 34 37  0  0  0  0  0  0  0  0999 V2000
   47.7120   32.3050   48.2950 C   0  0  0  0  0  0  0  0  0  0  0  0
   47.4000   30.9440   48.3390 C   0  0  0  0  0  0  0  0  0  0  0  0
   46.5510   30.4670   47.3850 C   0  0  0  0  0  0  0  0  0  0  0  0
   46.0570   31.3160   46.4560 N   0  0  0  0  0  0  0  0  0  0  0  0
   46.3570   32.6130   46.4170 C   0  0  0  0  0  0  0  0  0  0  0  0
   47.1820   33.0690   47.3460 N   0  0  0  0  0  0  0  0  0  0  0  0
   48.3940   32.6720   49.0670 H   0  0  0  0  0  0  0  0  0  0  0  0
   45.9300   33.6730   45.5010 C   0  0  0  0  0  0  0  0  0  0  0  0
   44.9430   34.5630   45.7670 N   0  0  0  0  0  0  0  0  0  0  0  0
   44.5300   35.5340   44.9700 C   0  0  0  0  0  0  0  0  0  0  0  0
   45.1240   35.6910   43.7580 N   0  0  0  0  0  0  0  0  0  0  0  0
   46.1180   34.8780   43.3640 C   0  0  0  0  0  0  0  0  0  0  0  0
   46.7060   35.0540   42.1330 C   0  0  0  0  0  0  0  0  0  0  0  0
   47.7180   34.2330   41.7200 C   0  0  0  0  0  0  0  0  0  0  0  0
   48.1280   33.2270   42.5780 C   0  0  0  0  0  0  0  0  0  0  0  0
   47.5070   33.0920   43.7980 C   0  0  0  0  0  0  0  0  0  0  0  0
   46.4870   33.8910   44.2570 C   0  0  0  0  0  0  0  0  0  0  0  0
   43.7330   36.2080   45.2530 H   0  0  0  0  0  0  0  0  0  0  0  0
   46.3760   35.8360   41.4870 H   0  0  0  0  0  0  0  0  0  0  0  0
   48.2390   34.2940   40.7740 H   0  0  0  0  0  0  0  0  0  0  0  0
   48.9230   32.5450   42.3110 H   0  0  0  0  0  0  0  0  0  0  0  0
   47.8600   32.2840   44.4480 H   0  0  0  0  0  0  0  0  0  0  0  0
   48.4090   28.7910   45.5290 Br  0  0  0  0  0  0  0  0  0  0  0  0
   46.8300   28.2150   46.4760 C   0  0  0  0  0  0  0  0  0  0  0  0
   46.1100   29.0900   47.2660 C   0  0  0  0  0  0  0  0  0  0  0  0
   45.0420   28.4740   47.8360 C   0  0  0  0  0  0  0  0  0  0  0  0
   44.4160   29.0690   48.4700 H   0  0  0  0  0  0  0  0  0  0  0  0
   44.6580   27.1620   47.6970 C   0  0  0  0  0  0  0  0  0  0  0  0
   43.7990   26.7700   48.1880 H   0  0  0  0  0  0  0  0  0  0  0  0
   45.4210   26.3470   46.8960 C   0  0  0  0  0  3  0  0  0  0  0  0
   46.5200   26.8900   46.2810 C   0  0  0  0  0  3  0  0  0  0  0  0
   47.9630   30.1370   49.3370 N   0  0  0  0  0  0  0  0  0  0  0  0
   47.2260   30.2560   50.0730 H   0  0  0  0  0  0  0  0  0  0  0  0
   48.8390   29.8320   48.8190 H   0  0  0  0  0  0  0  0  0  0  0  0
  1  2  1  0  0  0  0
  1  7  1  0  0  0  0
  2 32  1  0  0  0  0
  3  2  2  0  0  0  0
  4  3  1  0  0  0  0
  5  4  2  0  0  0  0
  5  6  1  0  0  0  0
  6  1  2  0  0  0  0
  8  9  1  0  0  0  0
  8  5  1  0  0  0  0
 10 18  1  0  0  0  0
 10  9  2  0  0  0  0
 11 10  1  0  0  0  0
 12 11  2  0  0  0  0
 12 17  1  0  0  0  0
 13 12  1  0  0  0  0
 14 13  2  0  0  0  0
 14 15  1  0  0  0  0
 15 16  2  0  0  0  0
 16 17  1  0  0  0  0
 16 22  1  0  0  0  0
 17  8  2  0  0  0  0
 19 13  1  0  0  0  0
 20 14  1  0  0  0  0
 21 15  1  0  0  0  0
 23 24  1  0  0  0  0
 24 25  1  0  0  0  0
 25  3  1  0  0  0  0
 25 26  2  0  0  0  0
 26 27  1  0  0  0  0
 28 26  1  0  0  0  0
 28 29  1  0  0  0  0
 30 28  2  0  0  0  0
 31 24  2  0  0  0  0
 31 30  1  0  0  0  0
 32 33  1  0  0  0  0
 34 32  1  0  0  0  0
M  END
>  <minimizedAffinity>
-6.40928078

>  <minimizedRMSD>
0.281271338

$$$$
