
 OpenBabel03252506053D

 43 47  0  0  0  0  0  0  0  0999 V2000
   44.7260   35.8940   43.3850 Cl  0  0  0  0  0  0  0  0  0  0  0  0
   45.4950   34.6560   44.3210 C   0  0  0  0  0  0  0  0  0  0  0  0
   46.5680   33.9580   43.8020 C   0  0  0  0  0  0  0  0  0  0  0  0
   47.1100   32.9910   44.6300 C   0  0  0  0  0  0  0  0  0  0  0  0
   46.6560   32.6960   45.8970 C   0  0  0  0  0  0  0  0  0  0  0  0
   45.5910   33.4080   46.3760 C   0  0  0  0  0  0  0  0  0  0  0  0
   45.0520   32.9960   47.9950 Cl  0  0  0  0  0  0  0  0  0  0  0  0
   45.0170   34.3750   45.6030 C   0  0  0  0  0  0  0  0  0  0  0  0
   47.9570   32.4470   44.2080 H   0  0  0  0  0  0  0  0  0  0  0  0
   44.1760   34.9220   46.0100 H   0  0  0  0  0  0  0  0  0  0  0  0
   47.3670   31.6350   46.6160 C   0  0  0  0  0  0  0  0  0  0  0  0
   47.4920   30.3460   46.1300 C   0  0  0  0  0  0  0  0  0  0  0  0
   48.1560   29.3330   46.7930 C   0  0  0  0  0  0  0  0  0  0  0  0
   48.7370   29.6020   48.0120 C   0  0  0  0  0  0  0  0  0  0  0  0
   49.3790   28.6020   48.6410 N   0  0  0  0  0  0  0  0  0  0  0  0
   49.9810   28.7750   49.8430 C   0  0  0  0  0  0  0  0  0  0  0  0
   49.8980   30.0450   50.3940 C   0  0  0  0  0  0  0  0  0  0  0  0
   49.2450   31.0640   49.7590 C   0  0  0  0  0  0  0  0  0  0  0  0
   48.6380   30.8660   48.5300 C   0  0  0  0  0  0  0  0  0  0  0  0
   47.9700   31.8630   47.8530 C   0  0  0  0  0  0  0  0  0  0  0  0
   47.0360   30.1320   45.1720 H   0  0  0  0  0  0  0  0  0  0  0  0
   48.2010   28.3560   46.3330 H   0  0  0  0  0  0  0  0  0  0  0  0
   50.4810   27.9430   50.3020 H   0  0  0  0  0  0  0  0  0  0  0  0
   50.3720   30.2050   51.3550 H   0  0  0  0  0  0  0  0  0  0  0  0
   49.1810   32.0540   50.1910 H   0  0  0  0  0  0  0  0  0  0  0  0
   47.9120   32.8500   48.2930 H   0  0  0  0  0  0  0  0  0  0  0  0
   48.6210   35.3150   41.1160 C   0  0  0  0  0  0  0  0  0  0  0  0
   48.0940   34.7000   39.9720 C   0  0  0  0  0  0  0  0  0  0  0  0
   47.0170   33.8040   40.1260 C   0  0  0  0  0  0  0  0  0  0  0  0
   46.5870   33.6210   41.3880 N   0  0  0  0  0  0  0  0  0  0  0  0
   47.1010   34.2170   42.4720 C   0  0  0  0  0  0  0  0  0  0  0  0
   48.1230   35.0700   42.3470 N   0  0  0  0  0  0  0  0  0  0  0  0
   49.4510   36.0000   40.9690 H   0  0  0  0  0  0  0  0  0  0  0  0
   48.4910   34.8940   38.9880 H   0  0  0  0  0  0  0  0  0  0  0  0
   43.9650   34.0960   40.1950 Br  0  0  0  0  0  0  0  0  0  0  0  0
   45.0270   33.1570   38.8940 C   0  0  0  0  0  0  0  0  0  0  0  0
   46.4010   33.1160   39.0000 C   0  0  0  0  0  0  0  0  0  0  0  0
   47.0930   32.4310   38.0410 C   0  0  0  0  0  0  0  0  0  0  0  0
   48.1670   32.3750   38.0870 H   0  0  0  0  0  0  0  0  0  0  0  0
   46.3940   31.8230   37.0280 C   0  0  0  0  0  0  0  0  0  0  0  0
   46.9650   31.2810   36.2700 H   0  0  0  0  0  0  0  0  0  0  0  0
   45.0210   31.8530   36.9030 C   0  0  0  0  0  3  0  0  0  0  0  0
   44.3230   32.5570   37.8910 C   0  0  0  0  0  3  0  0  0  0  0  0
  1  2  1  0  0  0  0
  2  8  1  0  0  0  0
  3  2  2  0  0  0  0
  3  4  1  0  0  0  0
  4  5  2  0  0  0  0
  5  6  1  0  0  0  0
  5 11  1  0  0  0  0
  6  7  1  0  0  0  0
  8 10  1  0  0  0  0
  8  6  2  0  0  0  0
  9  4  1  0  0  0  0
 11 20  1  0  0  0  0
 12 11  2  0  0  0  0
 12 13  1  0  0  0  0
 13 14  2  0  0  0  0
 14 19  1  0  0  0  0
 14 15  1  0  0  0  0
 15 16  2  0  0  0  0
 16 23  1  0  0  0  0
 16 17  1  0  0  0  0
 17 24  1  0  0  0  0
 18 25  1  0  0  0  0
 18 17  2  0  0  0  0
 19 18  1  0  0  0  0
 20 26  1  0  0  0  0
 20 19  2  0  0  0  0
 21 12  1  0  0  0  0
 22 13  1  0  0  0  0
 27 32  1  0  0  0  0
 28 29  1  0  0  0  0
 28 27  2  0  0  0  0
 29 30  2  0  0  0  0
 30 31  1  0  0  0  0
 31  3  1  0  0  0  0
 32 31  2  0  0  0  0
 33 27  1  0  0  0  0
 34 28  1  0  0  0  0
 36 37  1  0  0  0  0
 36 35  1  0  0  0  0
 37 29  1  0  0  0  0
 38 39  1  0  0  0  0
 38 37  2  0  0  0  0
 40 38  1  0  0  0  0
 41 40  1  0  0  0  0
 42 40  2  0  0  0  0
 42 43  1  0  0  0  0
 43 36  2  0  0  0  0
M  END
>  <minimizedAffinity>
-7.32564592

>  <minimizedRMSD>
0.252756894

$$$$
