
 OpenBabel03252501263D

 35 38  0  0  0  0  0  0  0  0999 V2000
   37.8260   27.6130   39.9640 F   0  0  0  0  0  0  0  0  0  0  0  0
   37.6340   27.7100   41.2900 C   0  0  0  0  0  0  0  0  0  0  0  0
   37.5500   28.9620   41.8770 C   0  0  0  0  0  0  0  0  0  0  0  0
   37.3510   29.0730   43.2470 C   0  0  0  0  0  0  0  0  0  0  0  0
   37.2320   27.9730   44.0550 C   0  0  0  0  0  0  0  0  0  0  0  0
   37.3150   26.7470   43.4650 C   0  0  0  0  0  0  0  0  0  0  0  0
   37.5120   26.6050   42.1090 C   0  0  0  0  0  0  0  0  0  0  0  0
   37.2820   30.0470   43.7310 H   0  0  0  0  0  0  0  0  0  0  0  0
   37.0770   28.0070   45.1180 H   0  0  0  0  0  0  0  0  0  0  0  0
   37.2380   25.7870   43.9770 H   0  0  0  0  0  0  0  0  0  0  0  0
   40.4120   25.4960   42.0010 Br  0  0  0  0  0  0  0  0  0  0  0  0
   38.8460   24.6720   41.2730 C   0  0  0  0  0  0  0  0  0  0  0  0
   37.6110   25.3070   41.4090 C   0  0  0  0  0  0  0  0  0  0  0  0
   36.4490   24.7520   40.9010 C   0  0  0  0  0  0  0  0  0  0  0  0
   35.5100   25.2680   41.0220 H   0  0  0  0  0  0  0  0  0  0  0  0
   36.4890   23.5410   40.2370 C   0  0  0  0  0  0  0  0  0  0  0  0
   35.5890   23.0940   39.8330 H   0  0  0  0  0  0  0  0  0  0  0  0
   37.7020   22.9010   40.0940 C   0  0  0  0  0  3  0  0  0  0  0  0
   38.8770   23.4560   40.6060 C   0  0  0  0  0  3  0  0  0  0  0  0
   38.7150   31.8070   40.1740 C   0  0  0  0  0  0  0  0  0  0  0  0
   37.3380   32.0080   40.0950 C   0  0  0  0  0  0  0  0  0  0  0  0
   36.7040   30.9770   40.7180 C   0  0  0  0  0  0  0  0  0  0  0  0
   37.6560   30.1630   41.1680 N   0  0  0  0  0  0  0  0  0  0  0  0
   38.8530   30.6720   40.8360 N   0  0  0  0  0  0  0  0  0  0  0  0
   36.7960   32.8330   39.6260 H   0  0  0  0  0  0  0  0  0  0  0  0
   35.6620   30.7320   40.8910 H   0  0  0  0  0  0  0  0  0  0  0  0
   40.8750   34.7240   39.6800 C   0  0  0  0  0  0  0  0  0  0  0  0
   41.6120   34.3590   38.5410 C   0  0  0  0  0  0  0  0  0  0  0  0
   41.3630   33.1180   37.9520 C   0  0  0  0  0  0  0  0  0  0  0  0
   40.4140   32.3680   38.5470 N   0  0  0  0  0  0  0  0  0  0  0  0
   39.7120   32.7000   39.6220 C   0  0  0  0  0  0  0  0  0  0  0  0
   39.9330   33.9010   40.2170 N   0  0  0  0  0  0  0  0  0  0  0  0
   41.0290   35.6700   40.1730 H   0  0  0  0  0  0  0  0  0  0  0  0
   42.3510   35.0490   38.1520 H   0  0  0  0  0  0  0  0  0  0  0  0
   41.9150   32.8130   37.0750 H   0  0  0  0  0  0  0  0  0  0  0  0
  1  2  1  0  0  0  0
  2  3  2  0  0  0  0
  2  7  1  0  0  0  0
  3  4  1  0  0  0  0
  4  8  1  0  0  0  0
  4  5  2  0  0  0  0
  5  9  1  0  0  0  0
  6 10  1  0  0  0  0
  6  5  1  0  0  0  0
  7  6  2  0  0  0  0
 12 13  1  0  0  0  0
 12 11  1  0  0  0  0
 13  7  1  0  0  0  0
 14 15  1  0  0  0  0
 14 13  2  0  0  0  0
 16 14  1  0  0  0  0
 17 16  1  0  0  0  0
 18 16  2  0  0  0  0
 18 19  1  0  0  0  0
 19 12  2  0  0  0  0
 20 24  2  0  0  0  0
 21 20  1  0  0  0  0
 21 22  2  0  0  0  0
 22 26  1  0  0  0  0
 22 23  1  0  0  0  0
 23  3  1  0  0  0  0
 24 23  1  0  0  0  0
 25 21  1  0  0  0  0
 27 33  1  0  0  0  0
 27 32  1  0  0  0  0
 28 27  2  0  0  0  0
 29 28  1  0  0  0  0
 29 30  2  0  0  0  0
 30 31  1  0  0  0  0
 31 20  1  0  0  0  0
 31 32  2  0  0  0  0
 34 28  1  0  0  0  0
 35 29  1  0  0  0  0
M  END
>  <minimizedAffinity>
-6.27038908

$$$$

 OpenBabel03252501263D

 35 38  0  0  0  0  0  0  0  0999 V2000
   39.4970   27.1890   40.7220 F   0  0  0  0  0  0  0  0  0  0  0  0
   38.6560   27.4440   41.7390 C   0  0  0  0  0  0  0  0  0  0  0  0
   38.8130   28.6040   42.4790 C   0  0  0  0  0  0  0  0  0  0  0  0
   37.9490   28.8770   43.5310 C   0  0  0  0  0  0  0  0  0  0  0  0
   36.9300   28.0270   43.8730 C   0  0  0  0  0  0  0  0  0  0  0  0
   36.7860   26.8880   43.1380 C   0  0  0  0  0  0  0  0  0  0  0  0
   37.6270   26.5910   42.0870 C   0  0  0  0  0  0  0  0  0  0  0  0
   38.0530   29.7830   44.1280 H   0  0  0  0  0  0  0  0  0  0  0  0
   36.2360   28.1930   44.6780 H   0  0  0  0  0  0  0  0  0  0  0  0
   36.0250   26.1230   43.2900 H   0  0  0  0  0  0  0  0  0  0  0  0
   39.5430   24.3210   42.9980 Br  0  0  0  0  0  0  0  0  0  0  0  0
   38.3190   24.2630   41.5270 C   0  0  0  0  0  0  0  0  0  0  0  0
   37.5250   25.3760   41.2520 C   0  0  0  0  0  0  0  0  0  0  0  0
   36.6250   25.3840   40.2010 C   0  0  0  0  0  0  0  0  0  0  0  0
   36.0260   26.2610   40.0130 H   0  0  0  0  0  0  0  0  0  0  0  0
   36.4930   24.2740   39.3890 C   0  0  0  0  0  0  0  0  0  0  0  0
   35.7930   24.2640   38.5620 H   0  0  0  0  0  0  0  0  0  0  0  0
   37.2700   23.1650   39.6480 C   0  0  0  0  0  3  0  0  0  0  0  0
   38.1800   23.1510   40.7090 C   0  0  0  0  0  3  0  0  0  0  0  0
   40.6910   31.3240   41.2860 C   0  0  0  0  0  0  0  0  0  0  0  0
   41.5960   30.7640   42.1870 C   0  0  0  0  0  0  0  0  0  0  0  0
   41.0280   29.6680   42.7610 C   0  0  0  0  0  0  0  0  0  0  0  0
   39.8100   29.5530   42.2360 N   0  0  0  0  0  0  0  0  0  0  0  0
   39.6230   30.5500   41.3560 N   0  0  0  0  0  0  0  0  0  0  0  0
   42.6070   31.0990   42.4340 H   0  0  0  0  0  0  0  0  0  0  0  0
   41.3650   28.9490   43.4990 H   0  0  0  0  0  0  0  0  0  0  0  0
   40.3540   34.6550   39.8010 C   0  0  0  0  0  0  0  0  0  0  0  0
   41.4720   34.7170   38.9520 C   0  0  0  0  0  0  0  0  0  0  0  0
   42.3310   33.6180   38.8950 C   0  0  0  0  0  0  0  0  0  0  0  0
   41.9980   32.5740   39.6810 N   0  0  0  0  0  0  0  0  0  0  0  0
   40.9470   32.5030   40.4860 C   0  0  0  0  0  0  0  0  0  0  0  0
   40.0930   33.5580   40.5620 N   0  0  0  0  0  0  0  0  0  0  0  0
   39.6600   35.4770   39.8820 H   0  0  0  0  0  0  0  0  0  0  0  0
   41.6360   35.6130   38.3660 H   0  0  0  0  0  0  0  0  0  0  0  0
   43.1970   33.6390   38.2510 H   0  0  0  0  0  0  0  0  0  0  0  0
  1  2  1  0  0  0  0
  2  7  2  0  0  0  0
  2  3  1  0  0  0  0
  3  4  2  0  0  0  0
  4  5  1  0  0  0  0
  4  8  1  0  0  0  0
  5  9  1  0  0  0  0
  6 10  1  0  0  0  0
  6  5  2  0  0  0  0
  7  6  1  0  0  0  0
 12 11  1  0  0  0  0
 13 12  1  0  0  0  0
 13  7  1  0  0  0  0
 14 13  2  0  0  0  0
 15 14  1  0  0  0  0
 16 18  2  0  0  0  0
 16 14  1  0  0  0  0
 17 16  1  0  0  0  0
 18 19  1  0  0  0  0
 19 12  2  0  0  0  0
 20 24  2  0  0  0  0
 20 21  1  0  0  0  0
 21 25  1  0  0  0  0
 21 22  2  0  0  0  0
 22 26  1  0  0  0  0
 23  3  1  0  0  0  0
 23 22  1  0  0  0  0
 24 23  1  0  0  0  0
 27 33  1  0  0  0  0
 27 32  1  0  0  0  0
 28 27  2  0  0  0  0
 29 28  1  0  0  0  0
 29 30  2  0  0  0  0
 30 31  1  0  0  0  0
 31 32  2  0  0  0  0
 31 20  1  0  0  0  0
 34 28  1  0  0  0  0
 35 29  1  0  0  0  0
M  END
>  <minimizedAffinity>
-6.16390276

$$$$

 OpenBabel03252501263D

 35 38  0  0  0  0  0  0  0  0999 V2000
   39.3320   28.1300   40.1180 F   0  0  0  0  0  0  0  0  0  0  0  0
   38.2810   28.9560   40.2500 C   0  0  0  0  0  0  0  0  0  0  0  0
   38.4350   30.3050   39.9740 C   0  0  0  0  0  0  0  0  0  0  0  0
   37.3540   31.1670   40.1060 C   0  0  0  0  0  0  0  0  0  0  0  0
   36.1200   30.7270   40.5060 C   0  0  0  0  0  0  0  0  0  0  0  0
   35.9800   29.3990   40.7740 C   0  0  0  0  0  0  0  0  0  0  0  0
   37.0340   28.5190   40.6520 C   0  0  0  0  0  0  0  0  0  0  0  0
   37.4520   32.2310   39.8960 H   0  0  0  0  0  0  0  0  0  0  0  0
   35.2540   31.3540   40.6240 H   0  0  0  0  0  0  0  0  0  0  0  0
   35.0630   28.9070   41.0990 H   0  0  0  0  0  0  0  0  0  0  0  0
   37.4700   27.8170   43.6460 Br  0  0  0  0  0  0  0  0  0  0  0  0
   37.1230   26.5860   42.2230 C   0  0  0  0  0  0  0  0  0  0  0  0
   36.9500   27.0690   40.9260 C   0  0  0  0  0  0  0  0  0  0  0  0
   36.6960   26.2200   39.8630 C   0  0  0  0  0  0  0  0  0  0  0  0
   36.5670   26.6250   38.8710 H   0  0  0  0  0  0  0  0  0  0  0  0
   36.6090   24.8570   40.0660 C   0  0  0  0  0  0  0  0  0  0  0  0
   36.4110   24.1790   39.2450 H   0  0  0  0  0  0  0  0  0  0  0  0
   36.7770   24.3630   41.3430 C   0  0  0  0  0  3  0  0  0  0  0  0
   37.0320   25.2150   42.4200 C   0  0  0  0  0  3  0  0  0  0  0  0
   41.4460   31.0610   38.3270 C   0  0  0  0  0  0  0  0  0  0  0  0
   41.4050   32.0880   39.2700 C   0  0  0  0  0  0  0  0  0  0  0  0
   40.2770   31.9550   40.0200 C   0  0  0  0  0  0  0  0  0  0  0  0
   39.6390   30.8820   39.5590 N   0  0  0  0  0  0  0  0  0  0  0  0
   40.3500   30.3580   38.5470 N   0  0  0  0  0  0  0  0  0  0  0  0
   42.1260   32.8940   39.4310 H   0  0  0  0  0  0  0  0  0  0  0  0
   39.8550   32.5180   40.8460 H   0  0  0  0  0  0  0  0  0  0  0  0
   43.3250   29.8420   35.4300 C   0  0  0  0  0  0  0  0  0  0  0  0
   44.5270   30.5640   35.5290 C   0  0  0  0  0  0  0  0  0  0  0  0
   44.6830   31.4610   36.5870 C   0  0  0  0  0  0  0  0  0  0  0  0
   43.6390   31.5530   37.4350 N   0  0  0  0  0  0  0  0  0  0  0  0
   42.5000   30.8780   37.3530 C   0  0  0  0  0  0  0  0  0  0  0  0
   42.3200   29.9980   36.3330 N   0  0  0  0  0  0  0  0  0  0  0  0
   43.1550   29.1370   34.6320 H   0  0  0  0  0  0  0  0  0  0  0  0
   45.2970   30.4050   34.7840 H   0  0  0  0  0  0  0  0  0  0  0  0
   45.5960   32.0290   36.6870 H   0  0  0  0  0  0  0  0  0  0  0  0
  1  2  1  0  0  0  0
  2  7  1  0  0  0  0
  3  4  1  0  0  0  0
  3  2  2  0  0  0  0
  4  5  2  0  0  0  0
  5  9  1  0  0  0  0
  5  6  1  0  0  0  0
  6 10  1  0  0  0  0
  7  6  2  0  0  0  0
  7 13  1  0  0  0  0
  8  4  1  0  0  0  0
 12 19  1  0  0  0  0
 12 11  1  0  0  0  0
 13 12  2  0  0  0  0
 14 16  2  0  0  0  0
 14 13  1  0  0  0  0
 15 14  1  0  0  0  0
 16 18  1  0  0  0  0
 17 16  1  0  0  0  0
 18 19  2  0  0  0  0
 20 24  2  0  0  0  0
 20 21  1  0  0  0  0
 21 25  1  0  0  0  0
 21 22  2  0  0  0  0
 22 26  1  0  0  0  0
 23  3  1  0  0  0  0
 23 22  1  0  0  0  0
 24 23  1  0  0  0  0
 27 28  2  0  0  0  0
 27 32  1  0  0  0  0
 28 29  1  0  0  0  0
 29 35  1  0  0  0  0
 29 30  2  0  0  0  0
 31 30  1  0  0  0  0
 31 20  1  0  0  0  0
 32 31  2  0  0  0  0
 33 27  1  0  0  0  0
 34 28  1  0  0  0  0
M  END
>  <minimizedAffinity>
-6.13444996

$$$$

 OpenBabel03252501263D

 35 38  0  0  0  0  0  0  0  0999 V2000
   39.3710   28.4510   40.7250 F   0  0  0  0  0  0  0  0  0  0  0  0
   38.2520   29.1950   40.7170 C   0  0  0  0  0  0  0  0  0  0  0  0
   38.3440   30.5610   40.5100 C   0  0  0  0  0  0  0  0  0  0  0  0
   37.1930   31.3390   40.5000 C   0  0  0  0  0  0  0  0  0  0  0  0
   35.9490   30.7980   40.6910 C   0  0  0  0  0  0  0  0  0  0  0  0
   35.8720   29.4520   40.8940 C   0  0  0  0  0  0  0  0  0  0  0  0
   36.9950   28.6550   40.9090 C   0  0  0  0  0  0  0  0  0  0  0  0
   37.2400   32.4160   40.3390 H   0  0  0  0  0  0  0  0  0  0  0  0
   35.0310   31.3570   40.6920 H   0  0  0  0  0  0  0  0  0  0  0  0
   34.9560   28.8850   41.0580 H   0  0  0  0  0  0  0  0  0  0  0  0
   37.0810   27.8610   43.9110 Br  0  0  0  0  0  0  0  0  0  0  0  0
   37.0150   26.6690   42.4150 C   0  0  0  0  0  0  0  0  0  0  0  0
   36.9810   27.1920   41.1230 C   0  0  0  0  0  0  0  0  0  0  0  0
   36.9320   26.3730   40.0080 C   0  0  0  0  0  0  0  0  0  0  0  0
   36.9060   26.8090   39.0220 H   0  0  0  0  0  0  0  0  0  0  0  0
   36.9170   24.9990   40.1550 C   0  0  0  0  0  0  0  0  0  0  0  0
   36.8790   24.3440   39.2930 H   0  0  0  0  0  0  0  0  0  0  0  0
   36.9500   24.4660   41.4260 C   0  0  0  0  0  3  0  0  0  0  0  0
   36.9990   25.2880   42.5540 C   0  0  0  0  0  3  0  0  0  0  0  0
   41.3890   32.2690   40.9100 C   0  0  0  0  0  0  0  0  0  0  0  0
   41.3010   32.2250   39.5190 C   0  0  0  0  0  0  0  0  0  0  0  0
   40.1530   31.5830   39.1680 C   0  0  0  0  0  0  0  0  0  0  0  0
   39.5490   31.2380   40.3030 N   0  0  0  0  0  0  0  0  0  0  0  0
   40.2990   31.6550   41.3360 N   0  0  0  0  0  0  0  0  0  0  0  0
   42.0020   32.6220   38.7800 H   0  0  0  0  0  0  0  0  0  0  0  0
   39.6960   31.3300   38.2180 H   0  0  0  0  0  0  0  0  0  0  0  0
   43.8230   34.7240   42.1200 C   0  0  0  0  0  0  0  0  0  0  0  0
   44.5420   33.9840   43.0750 C   0  0  0  0  0  0  0  0  0  0  0  0
   44.1880   32.6520   43.2950 C   0  0  0  0  0  0  0  0  0  0  0  0
   43.1630   32.1890   42.5520 N   0  0  0  0  0  0  0  0  0  0  0  0
   42.4760   32.8760   41.6490 C   0  0  0  0  0  0  0  0  0  0  0  0
   42.7980   34.1750   41.4140 N   0  0  0  0  0  0  0  0  0  0  0  0
   44.0560   35.7560   41.9120 H   0  0  0  0  0  0  0  0  0  0  0  0
   45.3500   34.4670   43.6110 H   0  0  0  0  0  0  0  0  0  0  0  0
   44.7240   32.0610   44.0220 H   0  0  0  0  0  0  0  0  0  0  0  0
  2  1  1  0  0  0  0
  2  7  1  0  0  0  0
  3  2  2  0  0  0  0
  4  3  1  0  0  0  0
  4  5  2  0  0  0  0
  5  9  1  0  0  0  0
  5  6  1  0  0  0  0
  6  7  2  0  0  0  0
  6 10  1  0  0  0  0
  7 13  1  0  0  0  0
  8  4  1  0  0  0  0
 12 19  1  0  0  0  0
 12 11  1  0  0  0  0
 13 12  2  0  0  0  0
 14 16  2  0  0  0  0
 14 13  1  0  0  0  0
 15 14  1  0  0  0  0
 16 18  1  0  0  0  0
 17 16  1  0  0  0  0
 18 19  2  0  0  0  0
 20 24  2  0  0  0  0
 20 31  1  0  0  0  0
 21 20  1  0  0  0  0
 22 21  2  0  0  0  0
 22 23  1  0  0  0  0
 23  3  1  0  0  0  0
 23 24  1  0  0  0  0
 25 21  1  0  0  0  0
 26 22  1  0  0  0  0
 27 28  1  0  0  0  0
 28 29  2  0  0  0  0
 28 34  1  0  0  0  0
 29 35  1  0  0  0  0
 30 29  1  0  0  0  0
 31 30  2  0  0  0  0
 32 31  1  0  0  0  0
 32 27  2  0  0  0  0
 33 27  1  0  0  0  0
M  END
>  <minimizedAffinity>
-6.1296258

$$$$

 OpenBabel03252501263D

 35 38  0  0  0  0  0  0  0  0999 V2000
   39.1610   28.3730   40.4610 F   0  0  0  0  0  0  0  0  0  0  0  0
   37.9520   28.9570   40.4140 C   0  0  0  0  0  0  0  0  0  0  0  0
   37.8600   30.3150   40.1570 C   0  0  0  0  0  0  0  0  0  0  0  0
   36.6150   30.9280   40.1060 C   0  0  0  0  0  0  0  0  0  0  0  0
   35.4530   30.2290   40.3040 C   0  0  0  0  0  0  0  0  0  0  0  0
   35.5560   28.8940   40.5570 C   0  0  0  0  0  0  0  0  0  0  0  0
   36.7770   28.2580   40.6130 C   0  0  0  0  0  0  0  0  0  0  0  0
   36.5180   31.9950   39.9050 H   0  0  0  0  0  0  0  0  0  0  0  0
   34.4670   30.6580   40.2750 H   0  0  0  0  0  0  0  0  0  0  0  0
   34.7240   28.2130   40.7330 H   0  0  0  0  0  0  0  0  0  0  0  0
   37.0620   27.6070   43.6370 Br  0  0  0  0  0  0  0  0  0  0  0  0
   37.1010   26.3550   42.1910 C   0  0  0  0  0  0  0  0  0  0  0  0
   36.9580   26.8160   40.8820 C   0  0  0  0  0  0  0  0  0  0  0  0
   36.9790   25.9520   39.8010 C   0  0  0  0  0  0  0  0  0  0  0  0
   36.8660   26.3390   38.8010 H   0  0  0  0  0  0  0  0  0  0  0  0
   37.1460   24.5940   39.9980 C   0  0  0  0  0  0  0  0  0  0  0  0
   37.1650   23.9040   39.1640 H   0  0  0  0  0  0  0  0  0  0  0  0
   37.2890   24.1230   41.2870 C   0  0  0  0  0  3  0  0  0  0  0  0
   37.2680   24.9910   42.3810 C   0  0  0  0  0  3  0  0  0  0  0  0
   40.7790   32.2410   40.5010 C   0  0  0  0  0  0  0  0  0  0  0  0
   40.5050   32.4320   39.1470 C   0  0  0  0  0  0  0  0  0  0  0  0
   39.3770   31.7420   38.8230 C   0  0  0  0  0  0  0  0  0  0  0  0
   38.9660   31.1420   39.9370 N   0  0  0  0  0  0  0  0  0  0  0  0
   39.8130   31.4500   40.9320 N   0  0  0  0  0  0  0  0  0  0  0  0
   41.0620   33.0240   38.4160 H   0  0  0  0  0  0  0  0  0  0  0  0
   38.8160   31.6120   37.9040 H   0  0  0  0  0  0  0  0  0  0  0  0
   43.6210   32.6450   42.7760 C   0  0  0  0  0  0  0  0  0  0  0  0
   44.0270   33.9650   42.5130 C   0  0  0  0  0  0  0  0  0  0  0  0
   43.3250   34.7040   41.5600 C   0  0  0  0  0  0  0  0  0  0  0  0
   42.2960   34.0660   40.9660 N   0  0  0  0  0  0  0  0  0  0  0  0
   41.9030   32.8220   41.2050 C   0  0  0  0  0  0  0  0  0  0  0  0
   42.5690   32.0780   42.1270 N   0  0  0  0  0  0  0  0  0  0  0  0
   44.1300   32.0320   43.5020 H   0  0  0  0  0  0  0  0  0  0  0  0
   44.8720   34.3700   43.0560 H   0  0  0  0  0  0  0  0  0  0  0  0
   43.6160   35.7200   41.3380 H   0  0  0  0  0  0  0  0  0  0  0  0
  2  1  1  0  0  0  0
  2  7  1  0  0  0  0
  3  2  2  0  0  0  0
  4  3  1  0  0  0  0
  4  5  2  0  0  0  0
  5  6  1  0  0  0  0
  6  7  2  0  0  0  0
  6 10  1  0  0  0  0
  7 13  1  0  0  0  0
  8  4  1  0  0  0  0
  9  5  1  0  0  0  0
 12 19  1  0  0  0  0
 12 11  1  0  0  0  0
 13 12  2  0  0  0  0
 14 16  2  0  0  0  0
 14 13  1  0  0  0  0
 15 14  1  0  0  0  0
 16 18  1  0  0  0  0
 17 16  1  0  0  0  0
 18 19  2  0  0  0  0
 20 24  2  0  0  0  0
 20 31  1  0  0  0  0
 21 20  1  0  0  0  0
 22 21  2  0  0  0  0
 22 23  1  0  0  0  0
 23  3  1  0  0  0  0
 23 24  1  0  0  0  0
 25 21  1  0  0  0  0
 26 22  1  0  0  0  0
 27 33  1  0  0  0  0
 28 27  1  0  0  0  0
 28 34  1  0  0  0  0
 29 28  2  0  0  0  0
 30 31  2  0  0  0  0
 30 29  1  0  0  0  0
 31 32  1  0  0  0  0
 32 27  2  0  0  0  0
 35 29  1  0  0  0  0
M  END
>  <minimizedAffinity>
-6.05175877

$$$$

 OpenBabel03252501263D

 35 38  0  0  0  0  0  0  0  0999 V2000
   39.5040   26.8760   40.8680 F   0  0  0  0  0  0  0  0  0  0  0  0
   38.6390   27.2040   41.8430 C   0  0  0  0  0  0  0  0  0  0  0  0
   38.9640   28.2160   42.7300 C   0  0  0  0  0  0  0  0  0  0  0  0
   38.0760   28.5620   43.7410 C   0  0  0  0  0  0  0  0  0  0  0  0
   36.8710   27.9290   43.8970 C   0  0  0  0  0  0  0  0  0  0  0  0
   36.5630   26.9350   43.0170 C   0  0  0  0  0  0  0  0  0  0  0  0
   37.4230   26.5700   42.0040 C   0  0  0  0  0  0  0  0  0  0  0  0
   38.3100   29.3550   44.4510 H   0  0  0  0  0  0  0  0  0  0  0  0
   36.1520   28.1610   44.6620 H   0  0  0  0  0  0  0  0  0  0  0  0
   35.6450   26.3470   43.0160 H   0  0  0  0  0  0  0  0  0  0  0  0
   36.1800   27.6380   39.3650 Br  0  0  0  0  0  0  0  0  0  0  0  0
   36.5900   25.8150   39.7790 C   0  0  0  0  0  0  0  0  0  0  0  0
   37.1490   25.5030   41.0190 C   0  0  0  0  0  0  0  0  0  0  0  0
   37.4650   24.2010   41.3660 C   0  0  0  0  0  0  0  0  0  0  0  0
   37.8960   23.9920   42.3320 H   0  0  0  0  0  0  0  0  0  0  0  0
   37.2290   23.1670   40.4800 C   0  0  0  0  0  0  0  0  0  0  0  0
   37.4700   22.1430   40.7370 H   0  0  0  0  0  0  0  0  0  0  0  0
   36.6770   23.4590   39.2500 C   0  0  0  0  0  3  0  0  0  0  0  0
   36.3570   24.7720   38.8940 C   0  0  0  0  0  3  0  0  0  0  0  0
   41.4160   30.6920   42.2820 C   0  0  0  0  0  0  0  0  0  0  0  0
   42.1940   29.6500   42.7850 C   0  0  0  0  0  0  0  0  0  0  0  0
   41.3930   28.5760   43.0250 C   0  0  0  0  0  0  0  0  0  0  0  0
   40.1590   28.9390   42.6830 N   0  0  0  0  0  0  0  0  0  0  0  0
   40.1890   30.2070   42.2410 N   0  0  0  0  0  0  0  0  0  0  0  0
   43.2710   29.6350   42.9770 H   0  0  0  0  0  0  0  0  0  0  0  0
   41.5720   27.5770   43.4080 H   0  0  0  0  0  0  0  0  0  0  0  0
   43.5200   33.6870   42.1290 C   0  0  0  0  0  0  0  0  0  0  0  0
   42.8500   34.4720   41.1740 C   0  0  0  0  0  0  0  0  0  0  0  0
   41.6860   33.9690   40.5920 C   0  0  0  0  0  0  0  0  0  0  0  0
   41.3030   32.7470   41.0120 N   0  0  0  0  0  0  0  0  0  0  0  0
   41.9250   31.9960   41.9110 C   0  0  0  0  0  0  0  0  0  0  0  0
   43.0610   32.4590   42.4940 N   0  0  0  0  0  0  0  0  0  0  0  0
   44.4230   34.0290   42.6080 H   0  0  0  0  0  0  0  0  0  0  0  0
   43.2570   35.4430   40.9170 H   0  0  0  0  0  0  0  0  0  0  0  0
   41.1520   34.5510   39.8550 H   0  0  0  0  0  0  0  0  0  0  0  0
  1  2  1  0  0  0  0
  2  7  2  0  0  0  0
  2  3  1  0  0  0  0
  3  4  2  0  0  0  0
  4  5  1  0  0  0  0
  4  8  1  0  0  0  0
  5  9  1  0  0  0  0
  6  5  2  0  0  0  0
  7  6  1  0  0  0  0
 10  6  1  0  0  0  0
 11 12  1  0  0  0  0
 12 13  1  0  0  0  0
 13 14  2  0  0  0  0
 13  7  1  0  0  0  0
 14 15  1  0  0  0  0
 16 17  1  0  0  0  0
 16 14  1  0  0  0  0
 18 16  2  0  0  0  0
 19 18  1  0  0  0  0
 19 12  2  0  0  0  0
 20 21  1  0  0  0  0
 21 25  1  0  0  0  0
 21 22  2  0  0  0  0
 22 26  1  0  0  0  0
 23  3  1  0  0  0  0
 23 22  1  0  0  0  0
 24 20  2  0  0  0  0
 24 23  1  0  0  0  0
 27 32  1  0  0  0  0
 27 33  1  0  0  0  0
 28 27  2  0  0  0  0
 29 30  2  0  0  0  0
 29 28  1  0  0  0  0
 30 31  1  0  0  0  0
 31 20  1  0  0  0  0
 31 32  2  0  0  0  0
 34 28  1  0  0  0  0
 35 29  1  0  0  0  0
M  END
>  <minimizedAffinity>
-6.02588081

$$$$

 OpenBabel03252501263D

 35 38  0  0  0  0  0  0  0  0999 V2000
   39.3080   27.1860   40.5560 F   0  0  0  0  0  0  0  0  0  0  0  0
   38.5350   27.4550   41.6220 C   0  0  0  0  0  0  0  0  0  0  0  0
   38.8150   28.5620   42.4050 C   0  0  0  0  0  0  0  0  0  0  0  0
   38.0210   28.8480   43.5080 C   0  0  0  0  0  0  0  0  0  0  0  0
   36.9540   28.0630   43.8580 C   0  0  0  0  0  0  0  0  0  0  0  0
   36.6890   26.9760   43.0790 C   0  0  0  0  0  0  0  0  0  0  0  0
   37.4580   26.6670   41.9790 C   0  0  0  0  0  0  0  0  0  0  0  0
   38.2210   29.7130   44.1400 H   0  0  0  0  0  0  0  0  0  0  0  0
   36.3110   28.2420   44.7010 H   0  0  0  0  0  0  0  0  0  0  0  0
   35.8770   26.2650   43.2330 H   0  0  0  0  0  0  0  0  0  0  0  0
   36.0520   27.4280   39.3150 Br  0  0  0  0  0  0  0  0  0  0  0  0
   36.6020   25.6770   39.8570 C   0  0  0  0  0  0  0  0  0  0  0  0
   37.2250   25.5060   41.0940 C   0  0  0  0  0  0  0  0  0  0  0  0
   37.6420   24.2620   41.5320 C   0  0  0  0  0  0  0  0  0  0  0  0
   38.1210   24.1630   42.4930 H   0  0  0  0  0  0  0  0  0  0  0  0
   37.4470   23.1450   40.7420 C   0  0  0  0  0  0  0  0  0  0  0  0
   37.7670   22.1630   41.0700 H   0  0  0  0  0  0  0  0  0  0  0  0
   36.8330   23.2960   39.5170 C   0  0  0  0  0  3  0  0  0  0  0  0
   36.4100   24.5510   39.0700 C   0  0  0  0  0  3  0  0  0  0  0  0
   40.8680   31.1480   41.2030 C   0  0  0  0  0  0  0  0  0  0  0  0
   41.7340   30.5330   42.1070 C   0  0  0  0  0  0  0  0  0  0  0  0
   41.0940   29.4800   42.6850 C   0  0  0  0  0  0  0  0  0  0  0  0
   39.8720   29.4430   42.1600 N   0  0  0  0  0  0  0  0  0  0  0  0
   39.7520   30.4460   41.2750 N   0  0  0  0  0  0  0  0  0  0  0  0
   42.7650   30.8020   42.3530 H   0  0  0  0  0  0  0  0  0  0  0  0
   41.3830   28.7420   43.4260 H   0  0  0  0  0  0  0  0  0  0  0  0
   41.2100   33.4070   38.3410 C   0  0  0  0  0  0  0  0  0  0  0  0
   41.8510   34.5190   38.9140 C   0  0  0  0  0  0  0  0  0  0  0  0
   42.1600   34.4850   40.2750 C   0  0  0  0  0  0  0  0  0  0  0  0
   41.8060   33.3600   40.9270 N   0  0  0  0  0  0  0  0  0  0  0  0
   41.2010   32.3050   40.3990 C   0  0  0  0  0  0  0  0  0  0  0  0
   40.8870   32.3100   39.0770 N   0  0  0  0  0  0  0  0  0  0  0  0
   40.9490   33.3830   37.2950 H   0  0  0  0  0  0  0  0  0  0  0  0
   42.0860   35.3690   38.2860 H   0  0  0  0  0  0  0  0  0  0  0  0
   42.6520   35.3260   40.7410 H   0  0  0  0  0  0  0  0  0  0  0  0
  1  2  1  0  0  0  0
  2  7  2  0  0  0  0
  2  3  1  0  0  0  0
  3  4  2  0  0  0  0
  4  5  1  0  0  0  0
  4  8  1  0  0  0  0
  5  9  1  0  0  0  0
  6 10  1  0  0  0  0
  6  5  2  0  0  0  0
  7  6  1  0  0  0  0
 11 12  1  0  0  0  0
 12 13  1  0  0  0  0
 13 14  2  0  0  0  0
 13  7  1  0  0  0  0
 14 15  1  0  0  0  0
 16 17  1  0  0  0  0
 16 14  1  0  0  0  0
 18 16  2  0  0  0  0
 19 18  1  0  0  0  0
 19 12  2  0  0  0  0
 20 24  2  0  0  0  0
 20 21  1  0  0  0  0
 21 25  1  0  0  0  0
 21 22  2  0  0  0  0
 22 26  1  0  0  0  0
 23  3  1  0  0  0  0
 23 22  1  0  0  0  0
 24 23  1  0  0  0  0
 27 28  2  0  0  0  0
 27 32  1  0  0  0  0
 28 29  1  0  0  0  0
 29 35  1  0  0  0  0
 29 30  2  0  0  0  0
 31 30  1  0  0  0  0
 31 20  1  0  0  0  0
 32 31  2  0  0  0  0
 33 27  1  0  0  0  0
 34 28  1  0  0  0  0
M  END
>  <minimizedAffinity>
-5.95208836

$$$$

 OpenBabel03252501263D

 35 38  0  0  0  0  0  0  0  0999 V2000
   38.5990   29.0870   40.1000 F   0  0  0  0  0  0  0  0  0  0  0  0
   38.1030   28.6510   41.2710 C   0  0  0  0  0  0  0  0  0  0  0  0
   38.8590   28.7850   42.4230 C   0  0  0  0  0  0  0  0  0  0  0  0
   38.3550   28.3380   43.6380 C   0  0  0  0  0  0  0  0  0  0  0  0
   37.1170   27.7590   43.7410 C   0  0  0  0  0  0  0  0  0  0  0  0
   36.3830   27.6330   42.6000 C   0  0  0  0  0  0  0  0  0  0  0  0
   36.8560   28.0680   41.3810 C   0  0  0  0  0  0  0  0  0  0  0  0
   38.9310   28.4320   44.5580 H   0  0  0  0  0  0  0  0  0  0  0  0
   36.6840   27.3980   44.6570 H   0  0  0  0  0  0  0  0  0  0  0  0
   35.3870   27.1970   42.5280 H   0  0  0  0  0  0  0  0  0  0  0  0
   37.5370   25.4930   39.7820 Br  0  0  0  0  0  0  0  0  0  0  0  0
   36.3030   26.8630   39.2700 C   0  0  0  0  0  0  0  0  0  0  0  0
   36.1120   27.9620   40.1080 C   0  0  0  0  0  0  0  0  0  0  0  0
   35.2300   28.9780   39.7840 C   0  0  0  0  0  0  0  0  0  0  0  0
   35.1050   29.8140   40.4540 H   0  0  0  0  0  0  0  0  0  0  0  0
   34.5110   28.9260   38.6060 C   0  0  0  0  0  0  0  0  0  0  0  0
   33.8180   29.7140   38.3370 H   0  0  0  0  0  0  0  0  0  0  0  0
   34.6890   27.8470   37.7660 C   0  0  0  0  0  3  0  0  0  0  0  0
   35.5760   26.8180   38.0890 C   0  0  0  0  0  3  0  0  0  0  0  0
   41.6050   30.9700   42.2430 C   0  0  0  0  0  0  0  0  0  0  0  0
   42.2390   29.7940   42.6420 C   0  0  0  0  0  0  0  0  0  0  0  0
   41.3080   28.8100   42.7670 C   0  0  0  0  0  0  0  0  0  0  0  0
   40.1350   29.3550   42.4560 N   0  0  0  0  0  0  0  0  0  0  0  0
   40.3280   30.6470   42.1450 N   0  0  0  0  0  0  0  0  0  0  0  0
   43.3020   29.6270   42.8370 H   0  0  0  0  0  0  0  0  0  0  0  0
   41.3560   27.7630   43.0480 H   0  0  0  0  0  0  0  0  0  0  0  0
   42.4380   34.2580   40.8600 C   0  0  0  0  0  0  0  0  0  0  0  0
   43.5820   34.6100   41.5980 C   0  0  0  0  0  0  0  0  0  0  0  0
   44.0570   33.7190   42.5610 C   0  0  0  0  0  0  0  0  0  0  0  0
   43.3560   32.5750   42.6960 N   0  0  0  0  0  0  0  0  0  0  0  0
   42.2760   32.2310   42.0080 C   0  0  0  0  0  0  0  0  0  0  0  0
   41.7910   33.0790   41.0630 N   0  0  0  0  0  0  0  0  0  0  0  0
   42.0310   34.9100   40.1050 H   0  0  0  0  0  0  0  0  0  0  0  0
   44.0610   35.5600   41.3980 H   0  0  0  0  0  0  0  0  0  0  0  0
   44.9330   33.9640   43.1430 H   0  0  0  0  0  0  0  0  0  0  0  0
  1  2  1  0  0  0  0
  2  7  2  0  0  0  0
  2  3  1  0  0  0  0
  3 23  1  0  0  0  0
  3  4  2  0  0  0  0
  4  5  1  0  0  0  0
  4  8  1  0  0  0  0
  5  9  1  0  0  0  0
  6  5  2  0  0  0  0
  7  6  1  0  0  0  0
 10  6  1  0  0  0  0
 12 11  1  0  0  0  0
 12 13  1  0  0  0  0
 13  7  1  0  0  0  0
 14 13  2  0  0  0  0
 14 15  1  0  0  0  0
 16 14  1  0  0  0  0
 17 16  1  0  0  0  0
 18 19  1  0  0  0  0
 18 16  2  0  0  0  0
 19 12  2  0  0  0  0
 20 21  1  0  0  0  0
 21 22  2  0  0  0  0
 21 25  1  0  0  0  0
 22 26  1  0  0  0  0
 23 22  1  0  0  0  0
 24 20  2  0  0  0  0
 24 23  1  0  0  0  0
 27 32  2  0  0  0  0
 27 28  1  0  0  0  0
 28 29  2  0  0  0  0
 29 30  1  0  0  0  0
 29 35  1  0  0  0  0
 31 20  1  0  0  0  0
 31 30  2  0  0  0  0
 32 31  1  0  0  0  0
 33 27  1  0  0  0  0
 34 28  1  0  0  0  0
M  END
>  <minimizedAffinity>
-5.88725615

$$$$

 OpenBabel03252501263D

 35 38  0  0  0  0  0  0  0  0999 V2000
   39.2640   28.0260   41.0120 F   0  0  0  0  0  0  0  0  0  0  0  0
   38.1330   28.7490   40.9450 C   0  0  0  0  0  0  0  0  0  0  0  0
   38.2090   30.1320   40.9290 C   0  0  0  0  0  0  0  0  0  0  0  0
   37.0460   30.8880   40.8590 C   0  0  0  0  0  0  0  0  0  0  0  0
   35.8050   30.3090   40.8050 C   0  0  0  0  0  0  0  0  0  0  0  0
   35.7440   28.9470   40.8210 C   0  0  0  0  0  0  0  0  0  0  0  0
   36.8800   28.1700   40.8890 C   0  0  0  0  0  0  0  0  0  0  0  0
   37.0800   31.9770   40.8450 H   0  0  0  0  0  0  0  0  0  0  0  0
   34.8780   30.8500   40.7500 H   0  0  0  0  0  0  0  0  0  0  0  0
   34.8330   28.3500   40.7830 H   0  0  0  0  0  0  0  0  0  0  0  0
   36.6890   26.9120   38.0560 Br  0  0  0  0  0  0  0  0  0  0  0  0
   36.8030   25.9710   39.7190 C   0  0  0  0  0  0  0  0  0  0  0  0
   36.8840   26.6920   40.9100 C   0  0  0  0  0  0  0  0  0  0  0  0
   36.9690   26.0600   42.1380 C   0  0  0  0  0  0  0  0  0  0  0  0
   37.0290   26.6460   43.0410 H   0  0  0  0  0  0  0  0  0  0  0  0
   36.9750   24.6810   42.2110 C   0  0  0  0  0  0  0  0  0  0  0  0
   37.0400   24.1700   43.1650 H   0  0  0  0  0  0  0  0  0  0  0  0
   36.8960   23.9520   41.0430 C   0  0  0  0  0  3  0  0  0  0  0  0
   36.8110   24.5860   39.8000 C   0  0  0  0  0  3  0  0  0  0  0  0
   41.1200   31.9350   40.1420 C   0  0  0  0  0  0  0  0  0  0  0  0
   41.2170   31.8860   41.5320 C   0  0  0  0  0  0  0  0  0  0  0  0
   40.1470   31.2070   42.0270 C   0  0  0  0  0  0  0  0  0  0  0  0
   39.4090   30.8470   40.9790 N   0  0  0  0  0  0  0  0  0  0  0  0
   40.0040   31.2890   39.8590 N   0  0  0  0  0  0  0  0  0  0  0  0
   41.9970   32.3030   42.1750 H   0  0  0  0  0  0  0  0  0  0  0  0
   39.8260   30.9380   43.0270 H   0  0  0  0  0  0  0  0  0  0  0  0
   44.2330   32.7110   38.3740 C   0  0  0  0  0  0  0  0  0  0  0  0
   43.8670   33.8270   37.6030 C   0  0  0  0  0  0  0  0  0  0  0  0
   42.5590   34.3040   37.6950 C   0  0  0  0  0  0  0  0  0  0  0  0
   41.7480   33.6320   38.5380 N   0  0  0  0  0  0  0  0  0  0  0  0
   42.0810   32.5780   39.2700 C   0  0  0  0  0  0  0  0  0  0  0  0
   43.3480   32.0910   39.2000 N   0  0  0  0  0  0  0  0  0  0  0  0
   45.2300   32.3030   38.3390 H   0  0  0  0  0  0  0  0  0  0  0  0
   44.6090   34.2850   36.9600 H   0  0  0  0  0  0  0  0  0  0  0  0
   42.2510   35.1610   37.1140 H   0  0  0  0  0  0  0  0  0  0  0  0
  2  1  1  0  0  0  0
  3  2  1  0  0  0  0
  3 23  1  0  0  0  0
  4  3  2  0  0  0  0
  5  6  2  0  0  0  0
  5  4  1  0  0  0  0
  6  7  1  0  0  0  0
  7 13  1  0  0  0  0
  7  2  2  0  0  0  0
  8  4  1  0  0  0  0
  9  5  1  0  0  0  0
 10  6  1  0  0  0  0
 11 12  1  0  0  0  0
 12 19  2  0  0  0  0
 12 13  1  0  0  0  0
 13 14  2  0  0  0  0
 14 16  1  0  0  0  0
 14 15  1  0  0  0  0
 16 17  1  0  0  0  0
 18 16  2  0  0  0  0
 19 18  1  0  0  0  0
 20 21  1  0  0  0  0
 21 22  2  0  0  0  0
 21 25  1  0  0  0  0
 22 26  1  0  0  0  0
 23 22  1  0  0  0  0
 24 20  2  0  0  0  0
 24 23  1  0  0  0  0
 27 32  1  0  0  0  0
 28 29  1  0  0  0  0
 28 27  2  0  0  0  0
 29 30  2  0  0  0  0
 30 31  1  0  0  0  0
 31 20  1  0  0  0  0
 32 31  2  0  0  0  0
 33 27  1  0  0  0  0
 34 28  1  0  0  0  0
 35 29  1  0  0  0  0
M  END
>  <minimizedAffinity>
-5.83853245

$$$$
