
 OpenBabel03242510063D

 18 19  0  0  0  0  0  0  0  0999 V2000
   44.4890   35.9400   44.7750 C   0  0  0  0  0  0  0  0  0  0  0  0
   45.1240   35.9700   43.5160 C   0  0  0  0  0  0  0  0  0  0  0  0
   46.0240   34.9290   43.2320 C   0  0  0  0  0  0  0  0  0  0  0  0
   46.2260   33.9690   44.1680 N   0  0  0  0  0  0  0  0  0  0  0  0
   45.5910   33.9780   45.3730 C   0  0  0  0  0  0  0  0  0  0  0  0
   44.7250   34.9710   45.6620 N   0  0  0  0  0  0  0  0  0  0  0  0
   43.7890   36.7590   44.9880 H   0  0  0  0  0  0  0  0  0  0  0  0
   44.9480   36.7410   42.7880 H   0  0  0  0  0  0  0  0  0  0  0  0
   46.5520   34.8790   42.2890 H   0  0  0  0  0  0  0  0  0  0  0  0
   47.3540   31.7490   44.2360 Br  0  0  0  0  0  0  0  0  0  0  0  0
   46.6110   31.8520   45.9990 C   0  0  0  0  0  0  0  0  0  0  0  0
   45.8340   32.9290   46.3570 C   0  0  0  0  0  0  0  0  0  0  0  0
   45.2830   33.0220   47.6390 C   0  0  0  0  0  0  0  0  0  0  0  0
   44.6890   33.9010   47.8270 H   0  0  0  0  0  0  0  0  0  0  0  0
   45.5410   32.0110   48.5250 C   0  0  0  0  0  0  0  0  0  0  0  0
   45.1060   32.0940   49.5260 H   0  0  0  0  0  0  0  0  0  0  0  0
   46.3250   30.9510   48.1240 C   0  0  0  0  0  3  0  0  0  0  0  0
   46.8720   30.8350   46.8870 C   0  0  0  0  0  3  0  0  0  0  0  0
  1  7  1  0  0  0  0
  1  6  1  0  0  0  0
  2  1  2  0  0  0  0
  3  2  1  0  0  0  0
  3  4  2  0  0  0  0
  4  5  1  0  0  0  0
  5  6  2  0  0  0  0
  5 12  1  0  0  0  0
  8  2  1  0  0  0  0
  9  3  1  0  0  0  0
 10 11  1  0  0  0  0
 11 12  2  0  0  0  0
 11 18  1  0  0  0  0
 12 13  1  0  0  0  0
 13 14  1  0  0  0  0
 13 15  2  0  0  0  0
 15 16  1  0  0  0  0
 17 15  1  0  0  0  0
 18 17  2  0  0  0  0
M  END
>  <minimizedAffinity>
-4.52412271

>  <minimizedRMSD>
0.958935142

$$$$
