
 OpenBabel03242521393D

 21 22  0  0  0  0  0  0  0  0999 V2000
   45.7120   34.9930   43.5560 C   0  0  0  0  0  0  0  0  0  0  0  0
   45.9520   34.9800   42.1850 C   0  0  0  0  0  0  0  0  0  0  0  0
   46.8470   34.0410   41.6650 C   0  0  0  0  0  0  0  0  0  0  0  0
   47.4270   33.1960   42.5410 N   0  0  0  0  0  0  0  0  0  0  0  0
   47.1740   33.2320   43.8680 C   0  0  0  0  0  0  0  0  0  0  0  0
   46.3140   34.1350   44.3760 N   0  0  0  0  0  0  0  0  0  0  0  0
   45.4530   35.6790   41.5660 H   0  0  0  0  0  0  0  0  0  0  0  0
   47.6830   32.5180   44.5050 H   0  0  0  0  0  0  0  0  0  0  0  0
   44.8060   32.3260   40.2170 Br  0  0  0  0  0  0  0  0  0  0  0  0
   46.2960   33.2350   39.4350 C   0  0  0  0  0  0  0  0  0  0  0  0
   47.1370   33.9800   40.2360 C   0  0  0  0  0  0  0  0  0  0  0  0
   48.1820   34.6040   39.6100 C   0  0  0  0  0  0  0  0  0  0  0  0
   48.8560   35.1920   40.2050 H   0  0  0  0  0  0  0  0  0  0  0  0
   48.3830   34.4920   38.2480 C   0  0  0  0  0  0  0  0  0  0  0  0
   49.2360   35.0130   37.8040 H   0  0  0  0  0  0  0  0  0  0  0  0
   47.5170   33.7360   37.4850 C   0  0  0  0  0  3  0  0  0  0  0  0
   46.4450   33.0860   38.0710 C   0  0  0  0  0  3  0  0  0  0  0  0
   44.7490   36.0110   44.0730 C   0  0  0  0  0  0  0  0  0  0  0  0
   44.3030   35.7070   45.0380 H   0  0  0  0  0  0  0  0  0  0  0  0
   43.9740   36.2000   43.3110 H   0  0  0  0  0  0  0  0  0  0  0  0
   45.3400   36.9460   44.1780 H   0  0  0  0  0  0  0  0  0  0  0  0
  1 18  1  0  0  0  0
  1  6  1  0  0  0  0
  2  1  2  0  0  0  0
  3  2  1  0  0  0  0
  3  4  2  0  0  0  0
  4  5  1  0  0  0  0
  5  6  2  0  0  0  0
  5  8  1  0  0  0  0
  7  2  1  0  0  0  0
 10  9  1  0  0  0  0
 10 11  1  0  0  0  0
 11  3  1  0  0  0  0
 12 13  1  0  0  0  0
 12 11  2  0  0  0  0
 14 12  1  0  0  0  0
 15 14  1  0  0  0  0
 16 17  1  0  0  0  0
 16 14  2  0  0  0  0
 17 10  2  0  0  0  0
 18 21  1  0  0  0  0
 18 19  1  0  0  0  0
 20 18  1  0  0  0  0
M  END
>  <minimizedAffinity>
-4.12625647

>  <minimizedRMSD>
3.96167874

$$$$
