
 OpenBabel03252504163D

 35 37  0  0  0  0  0  0  0  0999 V2000
   38.7380   27.2680   40.3810 F   0  0  0  0  0  0  0  0  0  0  0  0
   38.0360   27.3840   41.5520 C   0  0  0  0  0  0  0  0  0  0  0  0
   38.0650   28.5640   42.2720 C   0  0  0  0  0  0  0  0  0  0  0  0
   37.3250   28.5900   43.4440 C   0  0  0  0  0  0  0  0  0  0  0  0
   36.6010   27.4990   43.8670 C   0  0  0  0  0  0  0  0  0  0  0  0
   36.6100   26.3440   43.1040 C   0  0  0  0  0  0  0  0  0  0  0  0
   37.3280   26.2500   41.9220 C   0  0  0  0  0  0  0  0  0  0  0  0
   37.3060   29.4870   44.0550 H   0  0  0  0  0  0  0  0  0  0  0  0
   36.0150   27.4870   44.7760 H   0  0  0  0  0  0  0  0  0  0  0  0
   36.0430   25.4770   43.4270 H   0  0  0  0  0  0  0  0  0  0  0  0
   39.5970   24.4140   42.8300 Br  0  0  0  0  0  0  0  0  0  0  0  0
   38.3360   24.1010   41.4150 C   0  0  0  0  0  0  0  0  0  0  0  0
   37.3450   25.0370   41.1090 C   0  0  0  0  0  0  0  0  0  0  0  0
   36.4410   24.8090   40.0910 C   0  0  0  0  0  0  0  0  0  0  0  0
   35.6810   25.5380   39.8650 H   0  0  0  0  0  0  0  0  0  0  0  0
   36.5680   23.6210   39.4000 C   0  0  0  0  0  0  0  0  0  0  0  0
   35.8750   23.3870   38.5810 H   0  0  0  0  0  0  0  0  0  0  0  0
   37.5160   22.6500   39.6400 C   0  0  0  0  0  3  0  0  0  0  0  0
   38.4050   22.9320   40.6820 C   0  0  0  0  0  3  0  0  0  0  0  0
   38.7990   31.8700   40.9100 C   0  0  0  0  0  0  0  0  0  0  0  0
   40.1840   31.9310   40.9180 C   0  0  0  0  0  0  0  0  0  0  0  0
   40.8820   30.8110   41.4040 C   0  0  0  0  0  0  0  0  0  0  0  0
   40.1810   29.7370   41.8340 N   0  0  0  0  0  0  0  0  0  0  0  0
   38.8390   29.7170   41.8100 C   0  0  0  0  0  0  0  0  0  0  0  0
   38.1420   30.7840   41.3470 N   0  0  0  0  0  0  0  0  0  0  0  0
   41.9560   30.8510   41.4130 H   0  0  0  0  0  0  0  0  0  0  0  0
   40.8690   33.1430   40.4290 C   0  0  0  0  0  0  0  0  0  0  0  0
   42.2120   33.0860   40.7420 F   0  0  0  0  0  0  0  0  0  0  0  0
   40.7870   33.1420   39.0340 F   0  0  0  0  0  0  0  0  0  0  0  0
   40.3740   34.3130   40.8850 F   0  0  0  0  0  0  0  0  0  0  0  0
   38.1280   32.9520   40.4420 O   0  0  0  0  0  0  0  0  0  0  0  0
   37.3070   33.0050   39.2840 C   0  0  0  0  0  0  0  0  0  0  0  0
   36.3070   32.0470   39.4470 F   0  0  0  0  0  0  0  0  0  0  0  0
   36.8320   34.2740   39.1140 F   0  0  0  0  0  0  0  0  0  0  0  0
   38.0400   32.5610   38.2010 F   0  0  0  0  0  0  0  0  0  0  0  0
  1  2  1  0  0  0  0
  2  7  2  0  0  0  0
  2  3  1  0  0  0  0
  3  4  2  0  0  0  0
  4  5  1  0  0  0  0
  4  8  1  0  0  0  0
  5  9  1  0  0  0  0
  6 10  1  0  0  0  0
  6  5  2  0  0  0  0
  7  6  1  0  0  0  0
 12 11  1  0  0  0  0
 13 12  1  0  0  0  0
 13  7  1  0  0  0  0
 14 13  2  0  0  0  0
 15 14  1  0  0  0  0
 16 18  2  0  0  0  0
 16 14  1  0  0  0  0
 17 16  1  0  0  0  0
 18 19  1  0  0  0  0
 19 12  2  0  0  0  0
 20 21  2  0  0  0  0
 20 25  1  0  0  0  0
 21 22  1  0  0  0  0
 22 26  1  0  0  0  0
 22 23  2  0  0  0  0
 24 23  1  0  0  0  0
 24  3  1  0  0  0  0
 25 24  2  0  0  0  0
 27 28  1  0  0  0  0
 27 30  1  0  0  0  0
 27 21  1  0  0  0  0
 29 27  1  0  0  0  0
 31 20  1  0  0  0  0
 32 33  1  0  0  0  0
 32 31  1  0  0  0  0
 34 32  1  0  0  0  0
 35 32  1  0  0  0  0
M  END
>  <minimizedAffinity>
-6.6653347

$$$$

 OpenBabel03252504163D

 35 37  0  0  0  0  0  0  0  0999 V2000
   38.4580   27.4590   40.1920 F   0  0  0  0  0  0  0  0  0  0  0  0
   37.8660   27.5550   41.4230 C   0  0  0  0  0  0  0  0  0  0  0  0
   37.8530   28.7600   42.1010 C   0  0  0  0  0  0  0  0  0  0  0  0
   37.2330   28.7640   43.3410 C   0  0  0  0  0  0  0  0  0  0  0  0
   36.6600   27.6280   43.8670 C   0  0  0  0  0  0  0  0  0  0  0  0
   36.7040   26.4500   43.1420 C   0  0  0  0  0  0  0  0  0  0  0  0
   37.3080   26.3760   41.8960 C   0  0  0  0  0  0  0  0  0  0  0  0
   37.1880   29.6780   43.9240 H   0  0  0  0  0  0  0  0  0  0  0  0
   36.1690   27.5980   44.8300 H   0  0  0  0  0  0  0  0  0  0  0  0
   36.2570   25.5480   43.5450 H   0  0  0  0  0  0  0  0  0  0  0  0
   39.6880   24.6810   42.7950 Br  0  0  0  0  0  0  0  0  0  0  0  0
   38.4050   24.2610   41.4280 C   0  0  0  0  0  0  0  0  0  0  0  0
   37.3610   25.1390   41.1220 C   0  0  0  0  0  0  0  0  0  0  0  0
   36.4420   24.8350   40.1390 C   0  0  0  0  0  0  0  0  0  0  0  0
   35.6410   25.5190   39.9130 H   0  0  0  0  0  0  0  0  0  0  0  0
   36.6060   23.6320   39.4830 C   0  0  0  0  0  0  0  0  0  0  0  0
   35.9030   23.3390   38.6920 H   0  0  0  0  0  0  0  0  0  0  0  0
   37.6060   22.7160   39.7260 C   0  0  0  0  0  3  0  0  0  0  0  0
   38.5100   23.0730   40.7310 C   0  0  0  0  0  3  0  0  0  0  0  0
   38.4470   31.5380   39.8090 C   0  0  0  0  0  0  0  0  0  0  0  0
   39.5300   32.2010   40.3670 C   0  0  0  0  0  0  0  0  0  0  0  0
   40.0680   31.6820   41.5590 C   0  0  0  0  0  0  0  0  0  0  0  0
   39.5140   30.5730   42.1000 N   0  0  0  0  0  0  0  0  0  0  0  0
   38.4660   29.9600   41.5290 C   0  0  0  0  0  0  0  0  0  0  0  0
   37.9280   30.4400   40.3800 N   0  0  0  0  0  0  0  0  0  0  0  0
   40.9070   32.1910   41.9970 H   0  0  0  0  0  0  0  0  0  0  0  0
   40.0720   33.4060   39.7090 C   0  0  0  0  0  0  0  0  0  0  0  0
   39.1210   34.4060   39.6940 F   0  0  0  0  0  0  0  0  0  0  0  0
   41.1290   33.8770   40.4940 F   0  0  0  0  0  0  0  0  0  0  0  0
   40.5230   33.2250   38.4500 F   0  0  0  0  0  0  0  0  0  0  0  0
   37.9300   32.0410   38.6610 O   0  0  0  0  0  0  0  0  0  0  0  0
   37.7650   31.3500   37.4320 C   0  0  0  0  0  0  0  0  0  0  0  0
   38.9130   30.5830   37.2350 F   0  0  0  0  0  0  0  0  0  0  0  0
   36.6120   30.6170   37.4660 F   0  0  0  0  0  0  0  0  0  0  0  0
   37.7800   32.2690   36.4010 F   0  0  0  0  0  0  0  0  0  0  0  0
  1  2  1  0  0  0  0
  2  7  2  0  0  0  0
  2  3  1  0  0  0  0
  3  4  2  0  0  0  0
  4  5  1  0  0  0  0
  4  8  1  0  0  0  0
  5  9  1  0  0  0  0
  6 10  1  0  0  0  0
  6  5  2  0  0  0  0
  7  6  1  0  0  0  0
 12 11  1  0  0  0  0
 13 12  1  0  0  0  0
 13  7  1  0  0  0  0
 14 13  2  0  0  0  0
 15 14  1  0  0  0  0
 16 18  2  0  0  0  0
 16 14  1  0  0  0  0
 17 16  1  0  0  0  0
 18 19  1  0  0  0  0
 19 12  2  0  0  0  0
 20 21  2  0  0  0  0
 20 25  1  0  0  0  0
 21 22  1  0  0  0  0
 22 26  1  0  0  0  0
 22 23  2  0  0  0  0
 24 23  1  0  0  0  0
 24  3  1  0  0  0  0
 25 24  2  0  0  0  0
 27 21  1  0  0  0  0
 27 29  1  0  0  0  0
 28 27  1  0  0  0  0
 30 27  1  0  0  0  0
 31 20  1  0  0  0  0
 32 34  1  0  0  0  0
 32 31  1  0  0  0  0
 33 32  1  0  0  0  0
 35 32  1  0  0  0  0
M  END
>  <minimizedAffinity>
-6.4843049

$$$$

 OpenBabel03252504163D

 35 37  0  0  0  0  0  0  0  0999 V2000
   39.2640   28.3420   41.0300 F   0  0  0  0  0  0  0  0  0  0  0  0
   38.1420   29.1190   40.9140 C   0  0  0  0  0  0  0  0  0  0  0  0
   38.2460   30.4970   40.8610 C   0  0  0  0  0  0  0  0  0  0  0  0
   37.0580   31.2020   40.7440 C   0  0  0  0  0  0  0  0  0  0  0  0
   35.8400   30.5620   40.6850 C   0  0  0  0  0  0  0  0  0  0  0  0
   35.7980   29.1810   40.7440 C   0  0  0  0  0  0  0  0  0  0  0  0
   36.9480   28.4140   40.8600 C   0  0  0  0  0  0  0  0  0  0  0  0
   37.0720   32.2860   40.6960 H   0  0  0  0  0  0  0  0  0  0  0  0
   34.8970   31.0830   40.5950 H   0  0  0  0  0  0  0  0  0  0  0  0
   34.8450   28.6650   40.6990 H   0  0  0  0  0  0  0  0  0  0  0  0
   36.9360   27.4940   43.7750 Br  0  0  0  0  0  0  0  0  0  0  0  0
   36.9060   26.3920   42.2020 C   0  0  0  0  0  0  0  0  0  0  0  0
   36.9160   26.9560   40.9230 C   0  0  0  0  0  0  0  0  0  0  0  0
   36.8950   26.1610   39.7960 C   0  0  0  0  0  0  0  0  0  0  0  0
   36.9020   26.6080   38.8150 H   0  0  0  0  0  0  0  0  0  0  0  0
   36.8650   24.7960   39.9960 C   0  0  0  0  0  0  0  0  0  0  0  0
   36.8470   24.1160   39.1330 H   0  0  0  0  0  0  0  0  0  0  0  0
   36.8550   24.1650   41.2200 C   0  0  0  0  0  3  0  0  0  0  0  0
   36.8760   25.0160   42.3290 C   0  0  0  0  0  3  0  0  0  0  0  0
   41.0730   32.5860   39.8760 C   0  0  0  0  0  0  0  0  0  0  0  0
   41.9620   32.4590   40.9330 C   0  0  0  0  0  0  0  0  0  0  0  0
   41.5810   31.6360   42.0090 C   0  0  0  0  0  0  0  0  0  0  0  0
   40.3810   31.0130   41.9650 N   0  0  0  0  0  0  0  0  0  0  0  0
   39.5480   31.1620   40.9240 C   0  0  0  0  0  0  0  0  0  0  0  0
   39.8910   31.9500   39.8730 N   0  0  0  0  0  0  0  0  0  0  0  0
   42.2660   31.5320   42.8310 H   0  0  0  0  0  0  0  0  0  0  0  0
   43.2520   33.1750   40.8980 C   0  0  0  0  0  0  0  0  0  0  0  0
   43.0360   34.5350   40.8110 F   0  0  0  0  0  0  0  0  0  0  0  0
   43.8920   32.9530   42.1200 F   0  0  0  0  0  0  0  0  0  0  0  0
   44.0910   32.8110   39.9050 F   0  0  0  0  0  0  0  0  0  0  0  0
   41.4420   33.3800   38.8410 O   0  0  0  0  0  0  0  0  0  0  0  0
   41.7830   32.9580   37.5290 C   0  0  0  0  0  0  0  0  0  0  0  0
   40.6030   32.5390   36.9140 F   0  0  0  0  0  0  0  0  0  0  0  0
   42.4190   33.9710   36.8690 F   0  0  0  0  0  0  0  0  0  0  0  0
   42.5540   31.8150   37.6170 F   0  0  0  0  0  0  0  0  0  0  0  0
  2  1  1  0  0  0  0
  3  2  1  0  0  0  0
  3 24  1  0  0  0  0
  4  3  2  0  0  0  0
  5  4  1  0  0  0  0
  5  6  2  0  0  0  0
  6  7  1  0  0  0  0
  7  2  2  0  0  0  0
  7 13  1  0  0  0  0
  8  4  1  0  0  0  0
  9  5  1  0  0  0  0
 10  6  1  0  0  0  0
 12 19  1  0  0  0  0
 12 11  1  0  0  0  0
 13 12  2  0  0  0  0
 14 16  2  0  0  0  0
 14 13  1  0  0  0  0
 15 14  1  0  0  0  0
 16 18  1  0  0  0  0
 17 16  1  0  0  0  0
 18 19  2  0  0  0  0
 20 21  1  0  0  0  0
 21 22  2  0  0  0  0
 22 26  1  0  0  0  0
 23 22  1  0  0  0  0
 24 23  2  0  0  0  0
 25 20  2  0  0  0  0
 25 24  1  0  0  0  0
 27 21  1  0  0  0  0
 27 29  1  0  0  0  0
 28 27  1  0  0  0  0
 30 27  1  0  0  0  0
 31 20  1  0  0  0  0
 32 35  1  0  0  0  0
 32 31  1  0  0  0  0
 33 32  1  0  0  0  0
 34 32  1  0  0  0  0
M  END
>  <minimizedAffinity>
-6.19797754

$$$$

 OpenBabel03252504163D

 35 37  0  0  0  0  0  0  0  0999 V2000
   38.0660   29.8860   40.0660 F   0  0  0  0  0  0  0  0  0  0  0  0
   37.6840   29.9010   38.7510 C   0  0  0  0  0  0  0  0  0  0  0  0
   37.2370   28.7440   38.1390 C   0  0  0  0  0  0  0  0  0  0  0  0
   36.8720   28.8530   36.8060 C   0  0  0  0  0  0  0  0  0  0  0  0
   36.9520   30.0490   36.1290 C   0  0  0  0  0  0  0  0  0  0  0  0
   37.4070   31.1730   36.7940 C   0  0  0  0  0  0  0  0  0  0  0  0
   37.7880   31.1350   38.1270 C   0  0  0  0  0  0  0  0  0  0  0  0
   36.5120   27.9820   36.2680 H   0  0  0  0  0  0  0  0  0  0  0  0
   36.6760   30.1660   35.0900 H   0  0  0  0  0  0  0  0  0  0  0  0
   37.4750   32.1220   36.2720 H   0  0  0  0  0  0  0  0  0  0  0  0
   40.8380   31.2700   37.9800 Br  0  0  0  0  0  0  0  0  0  0  0  0
   39.6550   32.5060   38.8530 C   0  0  0  0  0  0  0  0  0  0  0  0
   38.2710   32.3150   38.8380 C   0  0  0  0  0  0  0  0  0  0  0  0
   37.4240   33.2050   39.4680 C   0  0  0  0  0  0  0  0  0  0  0  0
   36.3590   33.0470   39.4490 H   0  0  0  0  0  0  0  0  0  0  0  0
   38.0110   34.2800   40.1050 C   0  0  0  0  0  0  0  0  0  0  0  0
   37.3840   35.0190   40.6210 H   0  0  0  0  0  0  0  0  0  0  0  0
   39.3630   34.5360   40.1650 C   0  0  0  0  0  3  0  0  0  0  0  0
   40.1750   33.6050   39.5110 C   0  0  0  0  0  3  0  0  0  0  0  0
   37.9820   26.1740   40.6220 C   0  0  0  0  0  0  0  0  0  0  0  0
   37.0960   25.1530   40.3160 C   0  0  0  0  0  0  0  0  0  0  0  0
   36.2220   25.3510   39.2320 C   0  0  0  0  0  0  0  0  0  0  0  0
   36.2840   26.5140   38.5440 N   0  0  0  0  0  0  0  0  0  0  0  0
   37.1570   27.4800   38.8720 C   0  0  0  0  0  0  0  0  0  0  0  0
   38.0100   27.3140   39.9130 N   0  0  0  0  0  0  0  0  0  0  0  0
   35.5330   24.5630   38.9880 H   0  0  0  0  0  0  0  0  0  0  0  0
   37.0960   23.9150   41.1200 C   0  0  0  0  0  0  0  0  0  0  0  0
   36.4840   24.1410   42.3360 F   0  0  0  0  0  0  0  0  0  0  0  0
   36.3090   22.9750   40.4490 F   0  0  0  0  0  0  0  0  0  0  0  0
   38.3100   23.3710   41.3470 F   0  0  0  0  0  0  0  0  0  0  0  0
   38.8230   25.9810   41.6680 O   0  0  0  0  0  0  0  0  0  0  0  0
   38.7620   26.6200   42.9340 C   0  0  0  0  0  0  0  0  0  0  0  0
   39.5630   27.7600   42.8560 F   0  0  0  0  0  0  0  0  0  0  0  0
   37.4610   26.8820   43.2570 F   0  0  0  0  0  0  0  0  0  0  0  0
   39.3900   25.8180   43.8670 F   0  0  0  0  0  0  0  0  0  0  0  0
  2  1  1  0  0  0  0
  3  2  1  0  0  0  0
  3 24  1  0  0  0  0
  4  3  2  0  0  0  0
  5  6  2  0  0  0  0
  5  4  1  0  0  0  0
  6  7  1  0  0  0  0
  7  2  2  0  0  0  0
  7 13  1  0  0  0  0
  8  4  1  0  0  0  0
  9  5  1  0  0  0  0
 10  6  1  0  0  0  0
 11 12  1  0  0  0  0
 12 19  1  0  0  0  0
 13 12  2  0  0  0  0
 13 14  1  0  0  0  0
 14 16  2  0  0  0  0
 15 14  1  0  0  0  0
 16 18  1  0  0  0  0
 16 17  1  0  0  0  0
 19 18  2  0  0  0  0
 20 31  1  0  0  0  0
 21 20  1  0  0  0  0
 21 27  1  0  0  0  0
 22 21  2  0  0  0  0
 23 24  2  0  0  0  0
 23 22  1  0  0  0  0
 24 25  1  0  0  0  0
 25 20  2  0  0  0  0
 26 22  1  0  0  0  0
 27 30  1  0  0  0  0
 27 28  1  0  0  0  0
 29 27  1  0  0  0  0
 31 32  1  0  0  0  0
 32 34  1  0  0  0  0
 32 35  1  0  0  0  0
 33 32  1  0  0  0  0
M  END
>  <minimizedAffinity>
-6.14405107

$$$$

 OpenBabel03252504163D

 35 37  0  0  0  0  0  0  0  0999 V2000
   39.7870   27.4140   40.6050 F   0  0  0  0  0  0  0  0  0  0  0  0
   38.8080   27.5410   41.5550 C   0  0  0  0  0  0  0  0  0  0  0  0
   37.5000   27.7960   41.1820 C   0  0  0  0  0  0  0  0  0  0  0  0
   36.5770   27.9090   42.2100 C   0  0  0  0  0  0  0  0  0  0  0  0
   36.9430   27.7750   43.5300 C   0  0  0  0  0  0  0  0  0  0  0  0
   38.2670   27.5210   43.8420 C   0  0  0  0  0  0  0  0  0  0  0  0
   39.2420   27.3950   42.8640 C   0  0  0  0  0  0  0  0  0  0  0  0
   35.5340   28.1080   41.9840 H   0  0  0  0  0  0  0  0  0  0  0  0
   36.2480   27.8580   44.3540 H   0  0  0  0  0  0  0  0  0  0  0  0
   38.5690   27.4130   44.8780 H   0  0  0  0  0  0  0  0  0  0  0  0
   39.7360   24.3800   42.9520 Br  0  0  0  0  0  0  0  0  0  0  0  0
   41.0140   25.7820   43.2550 C   0  0  0  0  0  0  0  0  0  0  0  0
   40.6410   27.1270   43.1810 C   0  0  0  0  0  0  0  0  0  0  0  0
   41.5620   28.1320   43.4010 C   0  0  0  0  0  0  0  0  0  0  0  0
   41.2630   29.1650   43.3410 H   0  0  0  0  0  0  0  0  0  0  0  0
   42.8530   27.7420   43.6930 C   0  0  0  0  0  0  0  0  0  0  0  0
   43.6260   28.5010   43.8760 H   0  0  0  0  0  0  0  0  0  0  0  0
   43.2970   26.4410   43.7840 C   0  0  0  0  0  3  0  0  0  0  0  0
   42.3250   25.4630   43.5520 C   0  0  0  0  0  3  0  0  0  0  0  0
   37.3790   29.1370   37.7890 C   0  0  0  0  0  0  0  0  0  0  0  0
   36.4970   28.2930   37.1320 C   0  0  0  0  0  0  0  0  0  0  0  0
   35.9310   27.2380   37.8710 C   0  0  0  0  0  0  0  0  0  0  0  0
   36.2670   27.0960   39.1740 N   0  0  0  0  0  0  0  0  0  0  0  0
   37.1250   27.9350   39.7740 C   0  0  0  0  0  0  0  0  0  0  0  0
   37.6850   28.9600   39.0840 N   0  0  0  0  0  0  0  0  0  0  0  0
   35.2460   26.5800   37.3680 H   0  0  0  0  0  0  0  0  0  0  0  0
   36.1860   28.5200   35.7070 C   0  0  0  0  0  0  0  0  0  0  0  0
   35.3320   27.5390   35.2470 F   0  0  0  0  0  0  0  0  0  0  0  0
   35.4880   29.7270   35.6140 F   0  0  0  0  0  0  0  0  0  0  0  0
   37.2520   28.5800   34.8830 F   0  0  0  0  0  0  0  0  0  0  0  0
   37.9230   30.1520   37.0740 O   0  0  0  0  0  0  0  0  0  0  0  0
   37.7810   31.5410   37.3310 C   0  0  0  0  0  0  0  0  0  0  0  0
   37.5530   32.1640   36.1040 F   0  0  0  0  0  0  0  0  0  0  0  0
   36.7850   31.7420   38.2450 F   0  0  0  0  0  0  0  0  0  0  0  0
   38.9980   32.0410   37.7530 F   0  0  0  0  0  0  0  0  0  0  0  0
  1  2  1  0  0  0  0
  2  7  1  0  0  0  0
  3  2  2  0  0  0  0
  3  4  1  0  0  0  0
  4  5  2  0  0  0  0
  5  6  1  0  0  0  0
  5  9  1  0  0  0  0
  6 10  1  0  0  0  0
  7 13  1  0  0  0  0
  7  6  2  0  0  0  0
  8  4  1  0  0  0  0
 11 12  1  0  0  0  0
 12 19  1  0  0  0  0
 13 12  2  0  0  0  0
 13 14  1  0  0  0  0
 14 16  2  0  0  0  0
 15 14  1  0  0  0  0
 16 18  1  0  0  0  0
 16 17  1  0  0  0  0
 19 18  2  0  0  0  0
 20 25  1  0  0  0  0
 21 20  2  0  0  0  0
 21 22  1  0  0  0  0
 22 23  2  0  0  0  0
 23 24  1  0  0  0  0
 24  3  1  0  0  0  0
 25 24  2  0  0  0  0
 26 22  1  0  0  0  0
 27 21  1  0  0  0  0
 28 27  1  0  0  0  0
 29 27  1  0  0  0  0
 30 27  1  0  0  0  0
 31 32  1  0  0  0  0
 31 20  1  0  0  0  0
 32 35  1  0  0  0  0
 32 34  1  0  0  0  0
 33 32  1  0  0  0  0
M  END
>  <minimizedAffinity>
-6.13443136

$$$$

 OpenBabel03252504163D

 35 37  0  0  0  0  0  0  0  0999 V2000
   41.6460   31.2210   40.7080 F   0  0  0  0  0  0  0  0  0  0  0  0
   40.8130   32.2970   40.5480 C   0  0  0  0  0  0  0  0  0  0  0  0
   39.4790   32.2070   40.8990 C   0  0  0  0  0  0  0  0  0  0  0  0
   38.7110   33.3450   40.7020 C   0  0  0  0  0  0  0  0  0  0  0  0
   39.2510   34.5010   40.1850 C   0  0  0  0  0  0  0  0  0  0  0  0
   40.5940   34.5310   39.8520 C   0  0  0  0  0  0  0  0  0  0  0  0
   41.4180   33.4290   40.0240 C   0  0  0  0  0  0  0  0  0  0  0  0
   37.6570   33.3410   40.9580 H   0  0  0  0  0  0  0  0  0  0  0  0
   38.6800   35.4050   40.0190 H   0  0  0  0  0  0  0  0  0  0  0  0
   41.0310   35.4360   39.4440 H   0  0  0  0  0  0  0  0  0  0  0  0
   41.8120   32.3780   37.1800 Br  0  0  0  0  0  0  0  0  0  0  0  0
   43.1660   32.9930   38.3960 C   0  0  0  0  0  0  0  0  0  0  0  0
   42.8360   33.4490   39.6750 C   0  0  0  0  0  0  0  0  0  0  0  0
   43.8120   33.8890   40.5460 C   0  0  0  0  0  0  0  0  0  0  0  0
   43.5450   34.2390   41.5290 H   0  0  0  0  0  0  0  0  0  0  0  0
   45.1140   33.8560   40.0910 C   0  0  0  0  0  0  0  0  0  0  0  0
   45.9310   34.1960   40.7430 H   0  0  0  0  0  0  0  0  0  0  0  0
   45.5190   33.4210   38.8480 C   0  0  0  0  0  3  0  0  0  0  0  0
   44.4920   32.9870   38.0060 C   0  0  0  0  0  3  0  0  0  0  0  0
   37.3420   29.2650   41.2230 C   0  0  0  0  0  0  0  0  0  0  0  0
   37.7940   28.6550   42.3830 C   0  0  0  0  0  0  0  0  0  0  0  0
   38.8570   29.2680   43.0700 C   0  0  0  0  0  0  0  0  0  0  0  0
   39.3850   30.4120   42.5760 N   0  0  0  0  0  0  0  0  0  0  0  0
   38.9190   30.9720   41.4480 C   0  0  0  0  0  0  0  0  0  0  0  0
   37.8940   30.4000   40.7670 N   0  0  0  0  0  0  0  0  0  0  0  0
   39.2120   28.8010   43.9710 H   0  0  0  0  0  0  0  0  0  0  0  0
   37.1590   27.4080   42.8520 C   0  0  0  0  0  0  0  0  0  0  0  0
   37.1320   26.4790   41.8330 F   0  0  0  0  0  0  0  0  0  0  0  0
   37.9710   26.8720   43.8550 F   0  0  0  0  0  0  0  0  0  0  0  0
   35.9090   27.5420   43.3420 F   0  0  0  0  0  0  0  0  0  0  0  0
   36.3170   28.6720   40.5630 O   0  0  0  0  0  0  0  0  0  0  0  0
   36.2050   28.4900   39.1590 C   0  0  0  0  0  0  0  0  0  0  0  0
   35.3030   27.4470   38.9520 F   0  0  0  0  0  0  0  0  0  0  0  0
   35.8350   29.6650   38.5690 F   0  0  0  0  0  0  0  0  0  0  0  0
   37.4080   28.0090   38.6780 F   0  0  0  0  0  0  0  0  0  0  0  0
  2  1  1  0  0  0  0
  2  3  1  0  0  0  0
  3 24  1  0  0  0  0
  4  3  2  0  0  0  0
  4  8  1  0  0  0  0
  5  4  1  0  0  0  0
  6  7  1  0  0  0  0
  6  5  2  0  0  0  0
  7  2  2  0  0  0  0
  9  5  1  0  0  0  0
 10  6  1  0  0  0  0
 11 12  1  0  0  0  0
 12 13  1  0  0  0  0
 13  7  1  0  0  0  0
 13 14  2  0  0  0  0
 14 15  1  0  0  0  0
 16 14  1  0  0  0  0
 16 17  1  0  0  0  0
 18 16  2  0  0  0  0
 19 12  2  0  0  0  0
 19 18  1  0  0  0  0
 20 21  1  0  0  0  0
 21 27  1  0  0  0  0
 21 22  2  0  0  0  0
 22 26  1  0  0  0  0
 23 22  1  0  0  0  0
 24 23  2  0  0  0  0
 25 20  2  0  0  0  0
 25 24  1  0  0  0  0
 27 30  1  0  0  0  0
 27 29  1  0  0  0  0
 28 27  1  0  0  0  0
 31 20  1  0  0  0  0
 32 31  1  0  0  0  0
 33 32  1  0  0  0  0
 34 32  1  0  0  0  0
 35 32  1  0  0  0  0
M  END
>  <minimizedAffinity>
-6.04052496

$$$$

 OpenBabel03252504163D

 35 37  0  0  0  0  0  0  0  0999 V2000
   37.7720   27.6270   39.6490 F   0  0  0  0  0  0  0  0  0  0  0  0
   37.4030   27.4370   40.9540 C   0  0  0  0  0  0  0  0  0  0  0  0
   37.2690   28.5160   41.8080 C   0  0  0  0  0  0  0  0  0  0  0  0
   36.8920   28.2290   43.1110 C   0  0  0  0  0  0  0  0  0  0  0  0
   36.6630   26.9370   43.5300 C   0  0  0  0  0  0  0  0  0  0  0  0
   36.8130   25.8970   42.6300 C   0  0  0  0  0  0  0  0  0  0  0  0
   37.1870   26.1140   41.3120 C   0  0  0  0  0  0  0  0  0  0  0  0
   36.7690   29.0310   43.8320 H   0  0  0  0  0  0  0  0  0  0  0  0
   36.3690   26.6800   44.5390 H   0  0  0  0  0  0  0  0  0  0  0  0
   36.6360   24.8750   42.9470 H   0  0  0  0  0  0  0  0  0  0  0  0
   40.0860   25.1450   41.3090 Br  0  0  0  0  0  0  0  0  0  0  0  0
   38.6320   24.4800   40.2450 C   0  0  0  0  0  0  0  0  0  0  0  0
   37.3490   25.0250   40.3540 C   0  0  0  0  0  0  0  0  0  0  0  0
   36.3060   24.5450   39.5870 C   0  0  0  0  0  0  0  0  0  0  0  0
   35.3220   24.9730   39.6800 H   0  0  0  0  0  0  0  0  0  0  0  0
   36.5940   23.5110   38.7190 C   0  0  0  0  0  0  0  0  0  0  0  0
   35.8010   23.0910   38.0860 H   0  0  0  0  0  0  0  0  0  0  0  0
   37.8290   22.9230   38.5550 C   0  0  0  0  0  3  0  0  0  0  0  0
   38.8490   23.4460   39.3550 C   0  0  0  0  0  3  0  0  0  0  0  0
   39.0210   31.6610   41.2050 C   0  0  0  0  0  0  0  0  0  0  0  0
   38.0880   32.4350   40.5340 C   0  0  0  0  0  0  0  0  0  0  0  0
   36.8270   31.8640   40.2820 C   0  0  0  0  0  0  0  0  0  0  0  0
   36.5840   30.6010   40.7010 N   0  0  0  0  0  0  0  0  0  0  0  0
   37.5150   29.8830   41.3490 C   0  0  0  0  0  0  0  0  0  0  0  0
   38.7390   30.4110   41.6040 N   0  0  0  0  0  0  0  0  0  0  0  0
   36.0980   32.4590   39.7620 H   0  0  0  0  0  0  0  0  0  0  0  0
   38.4370   33.8060   40.1120 C   0  0  0  0  0  0  0  0  0  0  0  0
   37.3370   34.4230   39.5500 F   0  0  0  0  0  0  0  0  0  0  0  0
   38.7550   34.5340   41.2610 F   0  0  0  0  0  0  0  0  0  0  0  0
   39.4690   33.9010   39.2470 F   0  0  0  0  0  0  0  0  0  0  0  0
   40.2350   32.2140   41.4470 O   0  0  0  0  0  0  0  0  0  0  0  0
   41.4660   31.8560   40.8360 C   0  0  0  0  0  0  0  0  0  0  0  0
   42.1070   30.9650   41.6960 F   0  0  0  0  0  0  0  0  0  0  0  0
   41.2320   31.3480   39.5900 F   0  0  0  0  0  0  0  0  0  0  0  0
   42.2890   32.9660   40.8110 F   0  0  0  0  0  0  0  0  0  0  0  0
  1  2  1  0  0  0  0
  2  7  2  0  0  0  0
  2  3  1  0  0  0  0
  3  4  2  0  0  0  0
  4  5  1  0  0  0  0
  4  8  1  0  0  0  0
  5  9  1  0  0  0  0
  6 10  1  0  0  0  0
  6  5  2  0  0  0  0
  7  6  1  0  0  0  0
 12 13  1  0  0  0  0
 12 11  1  0  0  0  0
 13  7  1  0  0  0  0
 14 15  1  0  0  0  0
 14 13  2  0  0  0  0
 16 14  1  0  0  0  0
 17 16  1  0  0  0  0
 18 16  2  0  0  0  0
 18 19  1  0  0  0  0
 19 12  2  0  0  0  0
 20 31  1  0  0  0  0
 20 25  1  0  0  0  0
 21 20  2  0  0  0  0
 22 21  1  0  0  0  0
 22 23  2  0  0  0  0
 23 24  1  0  0  0  0
 24 25  2  0  0  0  0
 24  3  1  0  0  0  0
 26 22  1  0  0  0  0
 27 21  1  0  0  0  0
 27 29  1  0  0  0  0
 28 27  1  0  0  0  0
 30 27  1  0  0  0  0
 32 31  1  0  0  0  0
 32 33  1  0  0  0  0
 34 32  1  0  0  0  0
 35 32  1  0  0  0  0
M  END
>  <minimizedAffinity>
-6.02359581

$$$$

 OpenBabel03252504163D

 35 37  0  0  0  0  0  0  0  0999 V2000
   40.1060   29.6980   39.2850 F   0  0  0  0  0  0  0  0  0  0  0  0
   39.1370   30.6210   39.5770 C   0  0  0  0  0  0  0  0  0  0  0  0
   37.9100   30.2150   40.0690 C   0  0  0  0  0  0  0  0  0  0  0  0
   36.9900   31.2180   40.3360 C   0  0  0  0  0  0  0  0  0  0  0  0
   37.2840   32.5450   40.1210 C   0  0  0  0  0  0  0  0  0  0  0  0
   38.5290   32.8910   39.6260 C   0  0  0  0  0  0  0  0  0  0  0  0
   39.4960   31.9390   39.3380 C   0  0  0  0  0  0  0  0  0  0  0  0
   36.0080   30.9660   40.7250 H   0  0  0  0  0  0  0  0  0  0  0  0
   36.5890   33.3500   40.3180 H   0  0  0  0  0  0  0  0  0  0  0  0
   38.7730   33.9330   39.4520 H   0  0  0  0  0  0  0  0  0  0  0  0
   41.5350   32.0300   41.6130 Br  0  0  0  0  0  0  0  0  0  0  0  0
   41.8490   32.3710   39.7500 C   0  0  0  0  0  0  0  0  0  0  0  0
   40.8120   32.2920   38.8150 C   0  0  0  0  0  0  0  0  0  0  0  0
   41.0410   32.5390   37.4770 C   0  0  0  0  0  0  0  0  0  0  0  0
   40.2340   32.4750   36.7670 H   0  0  0  0  0  0  0  0  0  0  0  0
   42.3330   32.8640   37.1150 C   0  0  0  0  0  0  0  0  0  0  0  0
   42.5720   33.0690   36.0630 H   0  0  0  0  0  0  0  0  0  0  0  0
   43.4060   32.9620   37.9740 C   0  0  0  0  0  3  0  0  0  0  0  0
   43.1190   32.7020   39.3170 C   0  0  0  0  0  3  0  0  0  0  0  0
   37.8390   26.9480   41.6970 C   0  0  0  0  0  0  0  0  0  0  0  0
   37.1140   26.1580   40.8180 C   0  0  0  0  0  0  0  0  0  0  0  0
   36.6390   26.7600   39.6400 C   0  0  0  0  0  0  0  0  0  0  0  0
   36.9060   28.0680   39.4170 N   0  0  0  0  0  0  0  0  0  0  0  0
   37.6120   28.8000   40.2930 C   0  0  0  0  0  0  0  0  0  0  0  0
   38.0820   28.2430   41.4380 N   0  0  0  0  0  0  0  0  0  0  0  0
   36.0770   26.1520   38.9540 H   0  0  0  0  0  0  0  0  0  0  0  0
   36.8690   24.7380   41.1400 C   0  0  0  0  0  0  0  0  0  0  0  0
   38.0430   24.0200   41.0400 F   0  0  0  0  0  0  0  0  0  0  0  0
   36.4750   24.6690   42.4790 F   0  0  0  0  0  0  0  0  0  0  0  0
   35.9300   24.1280   40.3870 F   0  0  0  0  0  0  0  0  0  0  0  0
   38.2960   26.3650   42.8330 O   0  0  0  0  0  0  0  0  0  0  0  0
   39.6500   26.0880   43.1580 C   0  0  0  0  0  0  0  0  0  0  0  0
   40.3140   25.8300   41.9590 F   0  0  0  0  0  0  0  0  0  0  0  0
   40.1770   27.1300   43.8670 F   0  0  0  0  0  0  0  0  0  0  0  0
   39.7040   24.8930   43.8490 F   0  0  0  0  0  0  0  0  0  0  0  0
  1  2  1  0  0  0  0
  2  3  1  0  0  0  0
  3 24  1  0  0  0  0
  3  4  2  0  0  0  0
  4  8  1  0  0  0  0
  5  9  1  0  0  0  0
  5  4  1  0  0  0  0
  6  5  2  0  0  0  0
  7  2  2  0  0  0  0
  7  6  1  0  0  0  0
 10  6  1  0  0  0  0
 12 11  1  0  0  0  0
 13  7  1  0  0  0  0
 13 12  2  0  0  0  0
 14 13  1  0  0  0  0
 15 14  1  0  0  0  0
 16 14  2  0  0  0  0
 16 18  1  0  0  0  0
 17 16  1  0  0  0  0
 18 19  2  0  0  0  0
 19 12  1  0  0  0  0
 20 31  1  0  0  0  0
 21 27  1  0  0  0  0
 21 20  2  0  0  0  0
 22 21  1  0  0  0  0
 23 22  2  0  0  0  0
 23 24  1  0  0  0  0
 24 25  2  0  0  0  0
 25 20  1  0  0  0  0
 26 22  1  0  0  0  0
 27 29  1  0  0  0  0
 28 27  1  0  0  0  0
 30 27  1  0  0  0  0
 31 32  1  0  0  0  0
 32 35  1  0  0  0  0
 32 34  1  0  0  0  0
 33 32  1  0  0  0  0
M  END
>  <minimizedAffinity>
-5.98116875

$$$$

 OpenBabel03252504163D

 35 37  0  0  0  0  0  0  0  0999 V2000
   38.7620   27.4870   40.2370 F   0  0  0  0  0  0  0  0  0  0  0  0
   38.1490   27.6310   41.4540 C   0  0  0  0  0  0  0  0  0  0  0  0
   38.2250   28.8300   42.1380 C   0  0  0  0  0  0  0  0  0  0  0  0
   37.5760   28.8840   43.3620 C   0  0  0  0  0  0  0  0  0  0  0  0
   36.8920   27.8010   43.8670 C   0  0  0  0  0  0  0  0  0  0  0  0
   36.8510   26.6270   43.1360 C   0  0  0  0  0  0  0  0  0  0  0  0
   37.4780   26.5040   41.9060 C   0  0  0  0  0  0  0  0  0  0  0  0
   37.5960   29.7970   43.9490 H   0  0  0  0  0  0  0  0  0  0  0  0
   36.3760   27.8110   44.8170 H   0  0  0  0  0  0  0  0  0  0  0  0
   36.3160   25.7660   43.5230 H   0  0  0  0  0  0  0  0  0  0  0  0
   39.6470   24.5850   42.8840 Br  0  0  0  0  0  0  0  0  0  0  0  0
   38.3840   24.2950   41.4670 C   0  0  0  0  0  0  0  0  0  0  0  0
   37.4420   25.2710   41.1270 C   0  0  0  0  0  0  0  0  0  0  0  0
   36.5370   25.0590   40.1070 C   0  0  0  0  0  0  0  0  0  0  0  0
   35.8150   25.8180   39.8540 H   0  0  0  0  0  0  0  0  0  0  0  0
   36.6100   23.8470   39.4490 C   0  0  0  0  0  0  0  0  0  0  0  0
   35.9130   23.6260   38.6300 H   0  0  0  0  0  0  0  0  0  0  0  0
   37.5070   22.8390   39.7240 C   0  0  0  0  0  3  0  0  0  0  0  0
   38.4010   23.1040   40.7660 C   0  0  0  0  0  3  0  0  0  0  0  0
   41.0190   31.0270   41.3030 C   0  0  0  0  0  0  0  0  0  0  0  0
   40.4240   32.0660   40.6040 C   0  0  0  0  0  0  0  0  0  0  0  0
   39.0320   32.0110   40.4140 C   0  0  0  0  0  0  0  0  0  0  0  0
   38.3420   30.9600   40.9170 N   0  0  0  0  0  0  0  0  0  0  0  0
   38.9550   29.9730   41.5890 C   0  0  0  0  0  0  0  0  0  0  0  0
   40.2980   30.0020   41.7850 N   0  0  0  0  0  0  0  0  0  0  0  0
   38.5640   32.8130   39.8740 H   0  0  0  0  0  0  0  0  0  0  0  0
   41.2530   33.1740   40.0900 C   0  0  0  0  0  0  0  0  0  0  0  0
   40.4820   34.0240   39.3230 F   0  0  0  0  0  0  0  0  0  0  0  0
   41.6910   33.9190   41.1880 F   0  0  0  0  0  0  0  0  0  0  0  0
   42.3310   32.8050   39.3670 F   0  0  0  0  0  0  0  0  0  0  0  0
   42.3620   31.0820   41.4840 O   0  0  0  0  0  0  0  0  0  0  0  0
   43.0450   31.2530   42.7170 C   0  0  0  0  0  0  0  0  0  0  0  0
   42.0820   31.5500   43.6810 F   0  0  0  0  0  0  0  0  0  0  0  0
   43.7790   30.1350   42.9970 F   0  0  0  0  0  0  0  0  0  0  0  0
   43.8210   32.3930   42.6390 F   0  0  0  0  0  0  0  0  0  0  0  0
  1  2  1  0  0  0  0
  2  7  2  0  0  0  0
  2  3  1  0  0  0  0
  3  4  2  0  0  0  0
  4  5  1  0  0  0  0
  4  8  1  0  0  0  0
  5  9  1  0  0  0  0
  6 10  1  0  0  0  0
  6  5  2  0  0  0  0
  7  6  1  0  0  0  0
 12 11  1  0  0  0  0
 13 12  1  0  0  0  0
 13  7  1  0  0  0  0
 14 13  2  0  0  0  0
 15 14  1  0  0  0  0
 16 18  2  0  0  0  0
 16 14  1  0  0  0  0
 17 16  1  0  0  0  0
 18 19  1  0  0  0  0
 19 12  2  0  0  0  0
 20 31  1  0  0  0  0
 20 25  1  0  0  0  0
 21 20  2  0  0  0  0
 22 21  1  0  0  0  0
 22 23  2  0  0  0  0
 23 24  1  0  0  0  0
 24 25  2  0  0  0  0
 24  3  1  0  0  0  0
 26 22  1  0  0  0  0
 27 21  1  0  0  0  0
 27 29  1  0  0  0  0
 28 27  1  0  0  0  0
 30 27  1  0  0  0  0
 31 32  1  0  0  0  0
 32 34  1  0  0  0  0
 32 33  1  0  0  0  0
 35 32  1  0  0  0  0
M  END
>  <minimizedAffinity>
-5.94878626

$$$$
