
 OpenBabel03252504103D

 25 26  0  0  0  0  0  0  0  0999 V2000
   46.8390   34.1710   43.0440 C   0  0  0  0  0  0  0  0  0  0  0  0
   45.6050   33.8050   42.5190 C   0  0  0  0  0  0  0  0  0  0  0  0
   44.8870   32.8040   43.1760 C   0  0  0  0  0  0  0  0  0  0  0  0
   45.4310   32.2420   44.2900 N   0  0  0  0  0  0  0  0  0  0  0  0
   46.6340   32.6320   44.7630 C   0  0  0  0  0  0  0  0  0  0  0  0
   47.3420   33.5850   44.1580 N   0  0  0  0  0  0  0  0  0  0  0  0
   43.9260   32.5030   42.7860 H   0  0  0  0  0  0  0  0  0  0  0  0
   47.9120   29.7840   44.3400 Br  0  0  0  0  0  0  0  0  0  0  0  0
   47.6680   30.6900   45.9760 C   0  0  0  0  0  0  0  0  0  0  0  0
   47.0860   31.9400   45.9650 C   0  0  0  0  0  0  0  0  0  0  0  0
   46.9420   32.5400   47.1980 C   0  0  0  0  0  0  0  0  0  0  0  0
   46.4920   33.5300   47.3080 H   0  0  0  0  0  0  0  0  0  0  0  0
   47.3540   31.9300   48.3860 C   0  0  0  0  0  0  0  0  0  0  0  0
   47.2130   32.4570   49.3310 H   0  0  0  0  0  0  0  0  0  0  0  0
   47.9330   30.6800   48.3520 C   0  0  0  0  0  3  0  0  0  0  0  0
   48.0780   30.0810   47.1390 C   0  0  0  0  0  3  0  0  0  0  0  0
   45.0970   34.4780   41.2970 C   0  0  0  0  0  0  0  0  0  0  0  0
   44.8290   35.8190   41.5790 F   0  0  0  0  0  0  0  0  0  0  0  0
   46.0930   34.4690   40.3530 F   0  0  0  0  0  0  0  0  0  0  0  0
   43.9530   33.9460   40.7900 F   0  0  0  0  0  0  0  0  0  0  0  0
   47.5260   35.1460   42.3940 O   0  0  0  0  0  0  0  0  0  0  0  0
   48.8180   35.0640   41.8500 C   0  0  0  0  0  0  0  0  0  0  0  0
   49.7150   35.3520   42.8970 F   0  0  0  0  0  0  0  0  0  0  0  0
   49.0150   33.8410   41.3000 F   0  0  0  0  0  0  0  0  0  0  0  0
   49.0120   36.0930   40.9480 F   0  0  0  0  0  0  0  0  0  0  0  0
  1  6  1  0  0  0  0
  2  1  2  0  0  0  0
  2  3  1  0  0  0  0
  3  4  2  0  0  0  0
  4  5  1  0  0  0  0
  5 10  1  0  0  0  0
  6  5  2  0  0  0  0
  7  3  1  0  0  0  0
  8  9  1  0  0  0  0
  9 16  1  0  0  0  0
 10  9  2  0  0  0  0
 10 11  1  0  0  0  0
 11 12  1  0  0  0  0
 11 13  2  0  0  0  0
 13 14  1  0  0  0  0
 15 13  1  0  0  0  0
 16 15  2  0  0  0  0
 17 18  1  0  0  0  0
 17  2  1  0  0  0  0
 19 17  1  0  0  0  0
 20 17  1  0  0  0  0
 21  1  1  0  0  0  0
 22 21  1  0  0  0  0
 22 23  1  0  0  0  0
 24 22  1  0  0  0  0
 25 22  1  0  0  0  0
M  END
>  <minimizedAffinity>
-5.43840885

>  <minimizedRMSD>
1.6886071

$$$$
