
 OpenBabel03242515003D

 37 39  0  0  0  0  0  0  0  0999 V2000
   45.2050   34.2770   41.8640 C   0  0  0  0  0  0  0  0  0  0  0  0
   46.4170   34.7980   41.4080 C   0  0  0  0  0  0  0  0  0  0  0  0
   47.5100   34.7550   42.2600 C   0  0  0  0  0  0  0  0  0  0  0  0
   47.3440   34.2110   43.4820 N   0  0  0  0  0  0  0  0  0  0  0  0
   46.1790   33.7130   43.9150 C   0  0  0  0  0  0  0  0  0  0  0  0
   45.1200   33.7530   43.0940 N   0  0  0  0  0  0  0  0  0  0  0  0
   46.5480   35.2330   40.4260 H   0  0  0  0  0  0  0  0  0  0  0  0
   48.4850   35.1430   41.9680 H   0  0  0  0  0  0  0  0  0  0  0  0
   46.0800   33.1270   45.2550 C   0  0  0  0  0  0  0  0  0  0  0  0
   45.4580   33.8270   46.1300 O   0  0  0  0  0  0  0  0  0  0  0  0
   45.2040   32.4070   48.2900 Br  0  0  0  0  0  0  0  0  0  0  0  0
   46.3010   31.4180   47.1230 C   0  0  0  0  0  0  0  0  0  0  0  0
   46.5250   31.9050   45.8620 C   0  0  0  0  0  0  0  0  0  0  0  0
   47.3450   31.0490   45.1070 C   0  0  0  0  0  0  0  0  0  0  0  0
   47.5810   31.3540   44.0780 H   0  0  0  0  0  0  0  0  0  0  0  0
   47.8950   29.8540   45.5090 C   0  0  0  0  0  0  0  0  0  0  0  0
   48.5090   29.2830   44.8430 H   0  0  0  0  0  0  0  0  0  0  0  0
   47.5960   29.4730   46.7990 C   0  0  0  0  0  3  0  0  0  0  0  0
   46.8030   30.2400   47.6180 C   0  0  0  0  0  3  0  0  0  0  0  0
   43.8130   34.3580   40.7180 S   0  0  0  0  0  0  0  0  0  0  0  0
   42.2710   34.7540   41.5320 C   0  0  0  0  0  0  0  0  0  0  0  0
   42.4200   35.0320   42.6060 H   0  0  0  0  0  0  0  0  0  0  0  0
   41.6390   33.8230   41.5650 H   0  0  0  0  0  0  0  0  0  0  0  0
   41.4610   35.7870   40.8140 C   0  0  0  0  0  0  0  0  0  0  0  0
   42.0900   36.5530   40.3200 H   0  0  0  0  0  0  0  0  0  0  0  0
   40.8510   36.3370   41.5770 H   0  0  0  0  0  0  0  0  0  0  0  0
   42.1200   36.0610   37.8440 Cl  0  0  0  0  0  0  0  0  0  0  0  0
   40.7280   35.2290   38.4680 C   0  0  0  0  0  0  0  0  0  0  0  0
   40.5210   35.1630   39.8610 C   0  0  0  0  0  0  0  0  0  0  0  0
   39.4020   34.4900   40.2570 C   0  0  0  0  0  0  0  0  0  0  0  0
   38.4600   33.8720   39.4440 C   0  0  0  0  0  0  0  0  0  0  0  0
   38.6820   33.9480   38.0910 C   0  0  0  0  0  0  0  0  0  0  0  0
   37.5620   33.2030   36.9670 Cl  0  0  0  0  0  0  0  0  0  0  0  0
   39.7930   34.6140   37.6300 C   0  0  0  0  0  0  0  0  0  0  0  0
   39.2130   34.4210   41.3380 H   0  0  0  0  0  0  0  0  0  0  0  0
   37.6070   33.3640   39.8750 H   0  0  0  0  0  0  0  0  0  0  0  0
   40.0190   34.7050   36.5560 H   0  0  0  0  0  0  0  0  0  0  0  0
  1  6  1  0  0  0  0
  2  1  2  0  0  0  0
  2  3  1  0  0  0  0
  3  4  2  0  0  0  0
  4  5  1  0  0  0  0
  5  9  1  0  0  0  0
  6  5  2  0  0  0  0
  7  2  1  0  0  0  0
  8  3  1  0  0  0  0
  9 13  1  0  0  0  0
  9 10  2  0  0  0  0
 12 19  1  0  0  0  0
 12 11  1  0  0  0  0
 13 12  2  0  0  0  0
 14 16  2  0  0  0  0
 14 13  1  0  0  0  0
 15 14  1  0  0  0  0
 16 18  1  0  0  0  0
 17 16  1  0  0  0  0
 18 19  2  0  0  0  0
 20 21  1  0  0  0  0
 20  1  1  0  0  0  0
 21 23  1  0  0  0  0
 21 22  1  0  0  0  0
 24 21  1  0  0  0  0
 24 26  1  0  0  0  0
 25 24  1  0  0  0  0
 27 28  1  0  0  0  0
 28 29  1  0  0  0  0
 29 30  2  0  0  0  0
 29 24  1  0  0  0  0
 30 35  1  0  0  0  0
 31 36  1  0  0  0  0
 31 30  1  0  0  0  0
 32 31  2  0  0  0  0
 33 32  1  0  0  0  0
 34 32  1  0  0  0  0
 34 28  2  0  0  0  0
 37 34  1  0  0  0  0
M  END
>  <minimizedAffinity>
-6.53703117

>  <minimizedRMSD>
1.40476489

$$$$
