
 OpenBabel03242515003D

 37 39  0  0  0  0  0  0  0  0999 V2000
   45.2240   34.3240   41.9410 C   0  0  0  0  0  0  0  0  0  0  0  0
   46.4970   34.6430   41.4630 C   0  0  0  0  0  0  0  0  0  0  0  0
   47.5670   34.5530   42.3410 C   0  0  0  0  0  0  0  0  0  0  0  0
   47.3210   34.1620   43.6070 N   0  0  0  0  0  0  0  0  0  0  0  0
   46.0990   33.8580   44.0600 C   0  0  0  0  0  0  0  0  0  0  0  0
   45.0620   33.9440   43.2150 N   0  0  0  0  0  0  0  0  0  0  0  0
   46.6910   34.9560   40.4460 H   0  0  0  0  0  0  0  0  0  0  0  0
   48.5860   34.7870   42.0330 H   0  0  0  0  0  0  0  0  0  0  0  0
   45.9140   33.4290   45.4500 C   0  0  0  0  0  0  0  0  0  0  0  0
   45.0950   34.1250   46.1480 O   0  0  0  0  0  0  0  0  0  0  0  0
   45.6320   30.3490   44.4880 Br  0  0  0  0  0  0  0  0  0  0  0  0
   46.4140   31.0140   46.0650 C   0  0  0  0  0  0  0  0  0  0  0  0
   46.4430   32.3710   46.2620 C   0  0  0  0  0  0  0  0  0  0  0  0
   47.0720   32.7110   47.4710 C   0  0  0  0  0  0  0  0  0  0  0  0
   47.1460   33.7810   47.7170 H   0  0  0  0  0  0  0  0  0  0  0  0
   47.6160   31.8540   48.3990 C   0  0  0  0  0  0  0  0  0  0  0  0
   48.0730   32.2320   49.2910 H   0  0  0  0  0  0  0  0  0  0  0  0
   47.5230   30.5160   48.0880 C   0  0  0  0  0  3  0  0  0  0  0  0
   46.9280   30.0780   46.9290 C   0  0  0  0  0  3  0  0  0  0  0  0
   43.8660   34.4580   40.7600 S   0  0  0  0  0  0  0  0  0  0  0  0
   42.2950   34.7790   41.5500 C   0  0  0  0  0  0  0  0  0  0  0  0
   42.4110   35.0310   42.6350 H   0  0  0  0  0  0  0  0  0  0  0  0
   41.6930   33.8280   41.5420 H   0  0  0  0  0  0  0  0  0  0  0  0
   41.4670   35.8070   40.8440 C   0  0  0  0  0  0  0  0  0  0  0  0
   42.0830   36.5840   40.3520 H   0  0  0  0  0  0  0  0  0  0  0  0
   40.8540   36.3430   41.6150 H   0  0  0  0  0  0  0  0  0  0  0  0
   42.1350   36.0610   37.8740 Cl  0  0  0  0  0  0  0  0  0  0  0  0
   40.7400   35.2340   38.5000 C   0  0  0  0  0  0  0  0  0  0  0  0
   40.5290   35.1770   39.8920 C   0  0  0  0  0  0  0  0  0  0  0  0
   39.4090   34.5070   40.2900 C   0  0  0  0  0  0  0  0  0  0  0  0
   38.4700   33.8840   39.4780 C   0  0  0  0  0  0  0  0  0  0  0  0
   38.6960   33.9510   38.1240 C   0  0  0  0  0  0  0  0  0  0  0  0
   37.5790   33.1990   37.0030 Cl  0  0  0  0  0  0  0  0  0  0  0  0
   39.8080   34.6140   37.6620 C   0  0  0  0  0  0  0  0  0  0  0  0
   39.2160   34.4460   41.3700 H   0  0  0  0  0  0  0  0  0  0  0  0
   37.6150   33.3800   39.9100 H   0  0  0  0  0  0  0  0  0  0  0  0
   40.0380   34.6980   36.5880 H   0  0  0  0  0  0  0  0  0  0  0  0
  1  6  1  0  0  0  0
  2  1  2  0  0  0  0
  2  3  1  0  0  0  0
  3  4  2  0  0  0  0
  4  5  1  0  0  0  0
  5  9  1  0  0  0  0
  6  5  2  0  0  0  0
  7  2  1  0  0  0  0
  8  3  1  0  0  0  0
  9 10  2  0  0  0  0
  9 13  1  0  0  0  0
 11 12  1  0  0  0  0
 12 13  2  0  0  0  0
 12 19  1  0  0  0  0
 13 14  1  0  0  0  0
 14 15  1  0  0  0  0
 14 16  2  0  0  0  0
 16 17  1  0  0  0  0
 18 16  1  0  0  0  0
 19 18  2  0  0  0  0
 20 21  1  0  0  0  0
 20  1  1  0  0  0  0
 21 22  1  0  0  0  0
 23 21  1  0  0  0  0
 24 21  1  0  0  0  0
 24 26  1  0  0  0  0
 25 24  1  0  0  0  0
 27 28  1  0  0  0  0
 28 29  1  0  0  0  0
 29 30  2  0  0  0  0
 29 24  1  0  0  0  0
 30 35  1  0  0  0  0
 31 36  1  0  0  0  0
 31 30  1  0  0  0  0
 32 31  2  0  0  0  0
 33 32  1  0  0  0  0
 34 32  1  0  0  0  0
 34 28  2  0  0  0  0
 37 34  1  0  0  0  0
M  END
>  <minimizedAffinity>
-6.81349659

>  <minimizedRMSD>
0.911643684

$$$$
