
 OpenBabel03252502293D

 35 37  0  0  0  0  0  0  0  0999 V2000
   37.3820   31.2790   40.0000 C   0  0  0  0  0  0  0  0  0  0  0  0
   37.3500   32.6030   39.5940 C   0  0  0  0  0  0  0  0  0  0  0  0
   38.2930   33.4840   40.1040 C   0  0  0  0  0  0  0  0  0  0  0  0
   39.2380   33.0330   40.9980 C   0  0  0  0  0  0  0  0  0  0  0  0
   39.2880   31.7260   41.4130 C   0  0  0  0  0  0  0  0  0  0  0  0
   38.3250   30.8600   40.8810 C   0  0  0  0  0  0  0  0  0  0  0  0
   36.6000   32.9570   38.8900 H   0  0  0  0  0  0  0  0  0  0  0  0
   38.3180   34.5310   39.8290 H   0  0  0  0  0  0  0  0  0  0  0  0
   40.0250   33.6460   41.4580 H   0  0  0  0  0  0  0  0  0  0  0  0
   39.9590   31.2480   42.0920 H   0  0  0  0  0  0  0  0  0  0  0  0
   35.2390   29.2340   37.6770 C   0  0  0  0  0  0  0  0  0  0  0  0
   36.2680   30.0840   38.1000 C   0  0  0  0  0  0  0  0  0  0  0  0
   36.3700   30.4120   39.4260 C   0  0  0  0  0  0  0  0  0  0  0  0
   35.4360   29.8740   40.2640 N   0  0  0  0  0  0  0  0  0  0  0  0
   34.4440   29.0550   39.8530 C   0  0  0  0  0  0  0  0  0  0  0  0
   34.3470   28.7330   38.5480 N   0  0  0  0  0  0  0  0  0  0  0  0
   36.9910   30.4950   37.4290 H   0  0  0  0  0  0  0  0  0  0  0  0
   33.7330   28.6560   40.5820 H   0  0  0  0  0  0  0  0  0  0  0  0
   35.1190   28.8710   36.2450 C   0  0  0  0  0  0  0  0  0  0  0  0
   36.0360   29.6590   35.5280 F   0  0  0  0  0  0  0  0  0  0  0  0
   33.8680   29.3050   35.8210 F   0  0  0  0  0  0  0  0  0  0  0  0
   35.3500   27.5420   36.0050 F   0  0  0  0  0  0  0  0  0  0  0  0
   38.0790   28.7510   42.4000 C   0  0  0  0  0  0  0  0  0  0  0  0
   37.8220   29.2230   43.5170 O   0  0  0  0  0  0  0  0  0  0  0  0
   38.2670   29.4910   41.2170 N   0  0  0  0  0  0  0  0  0  0  0  0
   38.4090   28.9390   40.3140 H   0  0  0  0  0  0  0  0  0  0  0  0
   40.9710   27.7560   42.9890 Br  0  0  0  0  0  0  0  0  0  0  0  0
   39.4360   26.7230   42.6160 C   0  0  0  0  0  0  0  0  0  0  0  0
   38.1840   27.2950   42.3670 C   0  0  0  0  0  0  0  0  0  0  0  0
   37.0390   26.5670   42.0890 C   0  0  0  0  0  0  0  0  0  0  0  0
   36.1030   27.0620   41.9080 H   0  0  0  0  0  0  0  0  0  0  0  0
   37.1610   25.1770   42.0600 C   0  0  0  0  0  0  0  0  0  0  0  0
   36.2360   24.6400   41.8380 H   0  0  0  0  0  0  0  0  0  0  0  0
   38.3600   24.5660   42.2970 C   0  0  0  0  0  3  0  0  0  0  0  0
   39.4910   25.3360   42.5730 C   0  0  0  0  0  3  0  0  0  0  0  0
  1  6  1  0  0  0  0
  2  1  2  0  0  0  0
  2  3  1  0  0  0  0
  3  4  2  0  0  0  0
  4  5  1  0  0  0  0
  4  9  1  0  0  0  0
  5 10  1  0  0  0  0
  6 25  1  0  0  0  0
  6  5  2  0  0  0  0
  7  2  1  0  0  0  0
  8  3  1  0  0  0  0
 11 12  2  0  0  0  0
 11 16  1  0  0  0  0
 12 13  1  0  0  0  0
 13  1  1  0  0  0  0
 13 14  2  0  0  0  0
 15 14  1  0  0  0  0
 15 18  1  0  0  0  0
 16 15  2  0  0  0  0
 17 12  1  0  0  0  0
 19 11  1  0  0  0  0
 20 19  1  0  0  0  0
 21 19  1  0  0  0  0
 22 19  1  0  0  0  0
 23 24  2  0  0  0  0
 25 23  1  0  0  0  0
 26 25  1  0  0  0  0
 28 27  1  0  0  0  0
 29 23  1  0  0  0  0
 29 28  2  0  0  0  0
 30 29  1  0  0  0  0
 31 30  1  0  0  0  0
 32 30  2  0  0  0  0
 32 34  1  0  0  0  0
 33 32  1  0  0  0  0
 34 35  2  0  0  0  0
 35 28  1  0  0  0  0
M  END
>  <minimizedAffinity>
-6.25935221

$$$$

 OpenBabel03252502293D

 35 37  0  0  0  0  0  0  0  0999 V2000
   35.4770   27.9890   38.5690 C   0  0  0  0  0  0  0  0  0  0  0  0
   34.4410   28.1430   37.6620 C   0  0  0  0  0  0  0  0  0  0  0  0
   33.9630   27.0240   36.9940 C   0  0  0  0  0  0  0  0  0  0  0  0
   34.5200   25.7890   37.2410 C   0  0  0  0  0  0  0  0  0  0  0  0
   35.5460   25.6150   38.1350 C   0  0  0  0  0  0  0  0  0  0  0  0
   36.0070   26.7600   38.7950 C   0  0  0  0  0  0  0  0  0  0  0  0
   34.0060   29.1200   37.4680 H   0  0  0  0  0  0  0  0  0  0  0  0
   33.1590   27.0800   36.2710 H   0  0  0  0  0  0  0  0  0  0  0  0
   34.2150   24.8470   36.7680 H   0  0  0  0  0  0  0  0  0  0  0  0
   36.0630   24.7250   38.4200 H   0  0  0  0  0  0  0  0  0  0  0  0
   36.8750   31.3900   39.3770 C   0  0  0  0  0  0  0  0  0  0  0  0
   36.4840   30.2830   38.6130 C   0  0  0  0  0  0  0  0  0  0  0  0
   35.9260   29.1980   39.2340 C   0  0  0  0  0  0  0  0  0  0  0  0
   35.7870   29.2720   40.5910 N   0  0  0  0  0  0  0  0  0  0  0  0
   36.1660   30.3410   41.3260 C   0  0  0  0  0  0  0  0  0  0  0  0
   36.7140   31.4080   40.7100 N   0  0  0  0  0  0  0  0  0  0  0  0
   36.6000   30.2440   37.5510 H   0  0  0  0  0  0  0  0  0  0  0  0
   36.0200   30.3330   42.4090 H   0  0  0  0  0  0  0  0  0  0  0  0
   37.4800   32.5700   38.7150 C   0  0  0  0  0  0  0  0  0  0  0  0
   37.4220   32.3570   37.3280 F   0  0  0  0  0  0  0  0  0  0  0  0
   38.8370   32.5550   39.0210 F   0  0  0  0  0  0  0  0  0  0  0  0
   36.8570   33.7460   39.0380 F   0  0  0  0  0  0  0  0  0  0  0  0
   37.4000   25.8900   40.8240 C   0  0  0  0  0  0  0  0  0  0  0  0
   36.8170   24.8460   41.1530 O   0  0  0  0  0  0  0  0  0  0  0  0
   37.0510   26.7220   39.7440 N   0  0  0  0  0  0  0  0  0  0  0  0
   37.6920   27.5500   39.5390 H   0  0  0  0  0  0  0  0  0  0  0  0
   36.5360   27.2820   43.4740 Br  0  0  0  0  0  0  0  0  0  0  0  0
   38.2820   26.8710   42.8880 C   0  0  0  0  0  0  0  0  0  0  0  0
   38.5400   26.2390   41.6670 C   0  0  0  0  0  0  0  0  0  0  0  0
   39.8080   25.9250   41.2070 C   0  0  0  0  0  0  0  0  0  0  0  0
   39.9440   25.4360   40.2600 H   0  0  0  0  0  0  0  0  0  0  0  0
   40.8840   26.2690   42.0270 C   0  0  0  0  0  0  0  0  0  0  0  0
   41.8660   26.0030   41.6280 H   0  0  0  0  0  0  0  0  0  0  0  0
   40.6910   26.8870   43.2290 C   0  0  0  0  0  3  0  0  0  0  0  0
   39.3960   27.1870   43.6560 C   0  0  0  0  0  3  0  0  0  0  0  0
  1  6  1  0  0  0  0
  1 13  1  0  0  0  0
  2  1  2  0  0  0  0
  3  4  2  0  0  0  0
  3  2  1  0  0  0  0
  4  5  1  0  0  0  0
  5 10  1  0  0  0  0
  5  6  2  0  0  0  0
  6 25  1  0  0  0  0
  7  2  1  0  0  0  0
  8  3  1  0  0  0  0
  9  4  1  0  0  0  0
 11 16  1  0  0  0  0
 12 13  1  0  0  0  0
 12 11  2  0  0  0  0
 13 14  2  0  0  0  0
 14 15  1  0  0  0  0
 15 18  1  0  0  0  0
 16 15  2  0  0  0  0
 17 12  1  0  0  0  0
 19 21  1  0  0  0  0
 19 22  1  0  0  0  0
 19 11  1  0  0  0  0
 20 19  1  0  0  0  0
 23 24  2  0  0  0  0
 23 29  1  0  0  0  0
 25 23  1  0  0  0  0
 26 25  1  0  0  0  0
 28 27  1  0  0  0  0
 28 35  1  0  0  0  0
 29 28  2  0  0  0  0
 30 29  1  0  0  0  0
 30 32  2  0  0  0  0
 31 30  1  0  0  0  0
 32 34  1  0  0  0  0
 33 32  1  0  0  0  0
 34 35  2  0  0  0  0
M  END
>  <minimizedAffinity>
-6.18432474

$$$$

 OpenBabel03252502293D

 35 37  0  0  0  0  0  0  0  0999 V2000
   37.8530   30.9800   39.4650 C   0  0  0  0  0  0  0  0  0  0  0  0
   37.8860   32.2820   38.9900 C   0  0  0  0  0  0  0  0  0  0  0  0
   38.5470   33.2490   39.7340 C   0  0  0  0  0  0  0  0  0  0  0  0
   39.1550   32.9050   40.9200 C   0  0  0  0  0  0  0  0  0  0  0  0
   39.1340   31.6220   41.4080 C   0  0  0  0  0  0  0  0  0  0  0  0
   38.4620   30.6670   40.6370 C   0  0  0  0  0  0  0  0  0  0  0  0
   37.4030   32.5500   38.0540 H   0  0  0  0  0  0  0  0  0  0  0  0
   38.6050   34.2840   39.4180 H   0  0  0  0  0  0  0  0  0  0  0  0
   39.7020   33.5930   41.5790 H   0  0  0  0  0  0  0  0  0  0  0  0
   39.5600   31.2220   42.3020 H   0  0  0  0  0  0  0  0  0  0  0  0
   35.2360   28.9070   37.7260 C   0  0  0  0  0  0  0  0  0  0  0  0
   35.7880   29.8790   38.5690 C   0  0  0  0  0  0  0  0  0  0  0  0
   37.1490   30.0190   38.6380 C   0  0  0  0  0  0  0  0  0  0  0  0
   37.8910   29.1780   37.8590 N   0  0  0  0  0  0  0  0  0  0  0  0
   37.3560   28.2400   37.0470 C   0  0  0  0  0  0  0  0  0  0  0  0
   36.0160   28.1060   36.9810 N   0  0  0  0  0  0  0  0  0  0  0  0
   35.1900   30.5300   39.1700 H   0  0  0  0  0  0  0  0  0  0  0  0
   38.0120   27.6030   36.4480 H   0  0  0  0  0  0  0  0  0  0  0  0
   33.7640   28.7480   37.6430 C   0  0  0  0  0  0  0  0  0  0  0  0
   33.2290   29.0780   38.8990 F   0  0  0  0  0  0  0  0  0  0  0  0
   33.5130   27.3880   37.4940 F   0  0  0  0  0  0  0  0  0  0  0  0
   33.1930   29.5220   36.6680 F   0  0  0  0  0  0  0  0  0  0  0  0
   37.9870   28.6160   42.1790 C   0  0  0  0  0  0  0  0  0  0  0  0
   37.5260   29.1250   43.2110 O   0  0  0  0  0  0  0  0  0  0  0  0
   38.3700   29.3120   41.0180 N   0  0  0  0  0  0  0  0  0  0  0  0
   38.6820   28.7280   40.1800 H   0  0  0  0  0  0  0  0  0  0  0  0
   40.7950   27.7230   43.1900 Br  0  0  0  0  0  0  0  0  0  0  0  0
   39.3430   26.6350   42.6690 C   0  0  0  0  0  0  0  0  0  0  0  0
   38.1240   27.1630   42.2310 C   0  0  0  0  0  0  0  0  0  0  0  0
   37.0400   26.3930   41.8400 C   0  0  0  0  0  0  0  0  0  0  0  0
   36.1270   26.8560   41.5140 H   0  0  0  0  0  0  0  0  0  0  0  0
   37.1930   25.0070   41.8940 C   0  0  0  0  0  0  0  0  0  0  0  0
   36.3150   24.4380   41.5790 H   0  0  0  0  0  0  0  0  0  0  0  0
   38.3610   24.4380   42.3150 C   0  0  0  0  0  3  0  0  0  0  0  0
   39.4300   25.2490   42.7000 C   0  0  0  0  0  3  0  0  0  0  0  0
  1  6  1  0  0  0  0
  2  1  2  0  0  0  0
  2  3  1  0  0  0  0
  3  4  2  0  0  0  0
  4  5  1  0  0  0  0
  4  9  1  0  0  0  0
  5 10  1  0  0  0  0
  6 25  1  0  0  0  0
  6  5  2  0  0  0  0
  7  2  1  0  0  0  0
  8  3  1  0  0  0  0
 11 12  1  0  0  0  0
 12 13  2  0  0  0  0
 12 17  1  0  0  0  0
 13  1  1  0  0  0  0
 14 13  1  0  0  0  0
 15 14  2  0  0  0  0
 16 15  1  0  0  0  0
 16 11  2  0  0  0  0
 18 15  1  0  0  0  0
 19 11  1  0  0  0  0
 19 20  1  0  0  0  0
 21 19  1  0  0  0  0
 22 19  1  0  0  0  0
 23 29  1  0  0  0  0
 23 24  2  0  0  0  0
 25 23  1  0  0  0  0
 26 25  1  0  0  0  0
 28 35  1  0  0  0  0
 28 27  1  0  0  0  0
 29 28  2  0  0  0  0
 30 32  2  0  0  0  0
 30 29  1  0  0  0  0
 31 30  1  0  0  0  0
 32 34  1  0  0  0  0
 33 32  1  0  0  0  0
 34 35  2  0  0  0  0
M  END
>  <minimizedAffinity>
-5.99422598

$$$$

 OpenBabel03252502293D

 35 37  0  0  0  0  0  0  0  0999 V2000
   36.8090   29.2230   38.1480 C   0  0  0  0  0  0  0  0  0  0  0  0
   36.0660   29.6540   37.0610 C   0  0  0  0  0  0  0  0  0  0  0  0
   35.0080   28.8720   36.6200 C   0  0  0  0  0  0  0  0  0  0  0  0
   34.7150   27.6900   37.2640 C   0  0  0  0  0  0  0  0  0  0  0  0
   35.4380   27.2460   38.3420 C   0  0  0  0  0  0  0  0  0  0  0  0
   36.4980   28.0550   38.7660 C   0  0  0  0  0  0  0  0  0  0  0  0
   36.3020   30.5860   36.5530 H   0  0  0  0  0  0  0  0  0  0  0  0
   34.3930   29.1520   35.7740 H   0  0  0  0  0  0  0  0  0  0  0  0
   33.9020   27.0030   36.9950 H   0  0  0  0  0  0  0  0  0  0  0  0
   35.3200   26.3610   38.9280 H   0  0  0  0  0  0  0  0  0  0  0  0
   38.8950   32.0710   39.4560 C   0  0  0  0  0  0  0  0  0  0  0  0
   37.7550   31.3370   39.1040 C   0  0  0  0  0  0  0  0  0  0  0  0
   37.8980   30.0900   38.5580 C   0  0  0  0  0  0  0  0  0  0  0  0
   39.1760   29.6370   38.3910 N   0  0  0  0  0  0  0  0  0  0  0  0
   40.2740   30.3470   38.7310 C   0  0  0  0  0  0  0  0  0  0  0  0
   40.1290   31.5750   39.2690 N   0  0  0  0  0  0  0  0  0  0  0  0
   36.7630   31.7090   39.2440 H   0  0  0  0  0  0  0  0  0  0  0  0
   41.2670   29.9190   38.5730 H   0  0  0  0  0  0  0  0  0  0  0  0
   38.7520   33.4230   40.0480 C   0  0  0  0  0  0  0  0  0  0  0  0
   39.8970   34.1610   39.7070 F   0  0  0  0  0  0  0  0  0  0  0  0
   38.8250   33.2690   41.4290 F   0  0  0  0  0  0  0  0  0  0  0  0
   37.6250   34.0780   39.6270 F   0  0  0  0  0  0  0  0  0  0  0  0
   37.2050   27.7970   41.2650 C   0  0  0  0  0  0  0  0  0  0  0  0
   36.1980   28.1570   41.8930 O   0  0  0  0  0  0  0  0  0  0  0  0
   37.3180   27.7210   39.8650 N   0  0  0  0  0  0  0  0  0  0  0  0
   38.2250   27.3220   39.4700 H   0  0  0  0  0  0  0  0  0  0  0  0
   37.1710   24.7890   42.0740 Br  0  0  0  0  0  0  0  0  0  0  0  0
   38.4410   26.1070   42.5350 C   0  0  0  0  0  0  0  0  0  0  0  0
   38.3430   27.4340   42.1040 C   0  0  0  0  0  0  0  0  0  0  0  0
   39.2560   28.4250   42.4260 C   0  0  0  0  0  0  0  0  0  0  0  0
   39.1280   29.4280   42.0630 H   0  0  0  0  0  0  0  0  0  0  0  0
   40.3350   28.0580   43.2310 C   0  0  0  0  0  0  0  0  0  0  0  0
   41.0320   28.8670   43.4600 H   0  0  0  0  0  0  0  0  0  0  0  0
   40.4810   26.7760   43.6800 C   0  0  0  0  0  3  0  0  0  0  0  0
   39.5380   25.8060   43.3330 C   0  0  0  0  0  3  0  0  0  0  0  0
  1 13  1  0  0  0  0
  1  6  1  0  0  0  0
  2  1  2  0  0  0  0
  3  2  1  0  0  0  0
  3  4  2  0  0  0  0
  4  5  1  0  0  0  0
  5  6  2  0  0  0  0
  5 10  1  0  0  0  0
  6 25  1  0  0  0  0
  7  2  1  0  0  0  0
  8  3  1  0  0  0  0
  9  4  1  0  0  0  0
 11 19  1  0  0  0  0
 12 17  1  0  0  0  0
 12 11  2  0  0  0  0
 13 12  1  0  0  0  0
 14 13  2  0  0  0  0
 14 15  1  0  0  0  0
 15 16  2  0  0  0  0
 16 11  1  0  0  0  0
 18 15  1  0  0  0  0
 19 21  1  0  0  0  0
 20 19  1  0  0  0  0
 22 19  1  0  0  0  0
 23 24  2  0  0  0  0
 23 29  1  0  0  0  0
 25 23  1  0  0  0  0
 26 25  1  0  0  0  0
 27 28  1  0  0  0  0
 28 35  1  0  0  0  0
 29 30  1  0  0  0  0
 29 28  2  0  0  0  0
 30 32  2  0  0  0  0
 31 30  1  0  0  0  0
 32 33  1  0  0  0  0
 32 34  1  0  0  0  0
 35 34  2  0  0  0  0
M  END
>  <minimizedAffinity>
-5.93644905

$$$$

 OpenBabel03252502293D

 35 37  0  0  0  0  0  0  0  0999 V2000
   36.1370   27.8170   38.4880 C   0  0  0  0  0  0  0  0  0  0  0  0
   35.4860   26.6500   38.1200 C   0  0  0  0  0  0  0  0  0  0  0  0
   34.4630   26.7200   37.1850 C   0  0  0  0  0  0  0  0  0  0  0  0
   34.1140   27.9360   36.6410 C   0  0  0  0  0  0  0  0  0  0  0  0
   34.7460   29.1020   36.9910 C   0  0  0  0  0  0  0  0  0  0  0  0
   35.7750   29.0020   37.9350 C   0  0  0  0  0  0  0  0  0  0  0  0
   35.7620   25.6920   38.5540 H   0  0  0  0  0  0  0  0  0  0  0  0
   33.9140   25.8450   36.8600 H   0  0  0  0  0  0  0  0  0  0  0  0
   33.3240   28.0970   35.8960 H   0  0  0  0  0  0  0  0  0  0  0  0
   34.5800   30.1010   36.6500 H   0  0  0  0  0  0  0  0  0  0  0  0
   38.1310   27.3950   41.6530 C   0  0  0  0  0  0  0  0  0  0  0  0
   37.0160   27.5260   40.8160 C   0  0  0  0  0  0  0  0  0  0  0  0
   37.1980   27.6720   39.4670 C   0  0  0  0  0  0  0  0  0  0  0  0
   38.4880   27.6800   39.0200 N   0  0  0  0  0  0  0  0  0  0  0  0
   39.5630   27.5550   39.8290 C   0  0  0  0  0  0  0  0  0  0  0  0
   39.3800   27.4110   41.1570 N   0  0  0  0  0  0  0  0  0  0  0  0
   36.0130   27.5160   41.1850 H   0  0  0  0  0  0  0  0  0  0  0  0
   40.5680   27.5660   39.4010 H   0  0  0  0  0  0  0  0  0  0  0  0
   37.9460   27.2370   43.1150 C   0  0  0  0  0  0  0  0  0  0  0  0
   36.6330   26.7870   43.3320 F   0  0  0  0  0  0  0  0  0  0  0  0
   37.9820   28.5120   43.6680 F   0  0  0  0  0  0  0  0  0  0  0  0
   38.8420   26.3670   43.6800 F   0  0  0  0  0  0  0  0  0  0  0  0
   37.2260   31.1640   37.7610 C   0  0  0  0  0  0  0  0  0  0  0  0
   37.2980   31.3720   36.5410 O   0  0  0  0  0  0  0  0  0  0  0  0
   36.5110   30.1210   38.3780 N   0  0  0  0  0  0  0  0  0  0  0  0
   36.4810   30.1140   39.4450 H   0  0  0  0  0  0  0  0  0  0  0  0
   40.2910   30.6090   37.7490 Br  0  0  0  0  0  0  0  0  0  0  0  0
   39.3570   31.9730   38.6590 C   0  0  0  0  0  0  0  0  0  0  0  0
   37.9680   32.1170   38.5820 C   0  0  0  0  0  0  0  0  0  0  0  0
   37.2520   33.1060   39.2380 C   0  0  0  0  0  0  0  0  0  0  0  0
   36.1840   33.1670   39.1390 H   0  0  0  0  0  0  0  0  0  0  0  0
   37.9790   34.0050   40.0190 C   0  0  0  0  0  0  0  0  0  0  0  0
   37.3770   34.7680   40.5180 H   0  0  0  0  0  0  0  0  0  0  0  0
   39.3370   33.9110   40.1290 C   0  0  0  0  0  3  0  0  0  0  0  0
   40.0220   32.9000   39.4530 C   0  0  0  0  0  3  0  0  0  0  0  0
  1 13  1  0  0  0  0
  2  1  1  0  0  0  0
  2  7  1  0  0  0  0
  3  2  2  0  0  0  0
  4  5  2  0  0  0  0
  4  3  1  0  0  0  0
  5  6  1  0  0  0  0
  6 25  1  0  0  0  0
  6  1  2  0  0  0  0
  8  3  1  0  0  0  0
  9  4  1  0  0  0  0
 10  5  1  0  0  0  0
 11 19  1  0  0  0  0
 12 17  1  0  0  0  0
 12 11  2  0  0  0  0
 13 12  1  0  0  0  0
 14 13  2  0  0  0  0
 14 15  1  0  0  0  0
 15 16  2  0  0  0  0
 16 11  1  0  0  0  0
 18 15  1  0  0  0  0
 19 20  1  0  0  0  0
 19 21  1  0  0  0  0
 19 22  1  0  0  0  0
 23 25  1  0  0  0  0
 23 29  1  0  0  0  0
 24 23  2  0  0  0  0
 25 26  1  0  0  0  0
 27 28  1  0  0  0  0
 28 35  1  0  0  0  0
 29 28  2  0  0  0  0
 29 30  1  0  0  0  0
 30 32  2  0  0  0  0
 31 30  1  0  0  0  0
 32 34  1  0  0  0  0
 32 33  1  0  0  0  0
 35 34  2  0  0  0  0
M  END
>  <minimizedAffinity>
-5.85217619

$$$$

 OpenBabel03252502293D

 35 37  0  0  0  0  0  0  0  0999 V2000
   36.8600   28.6250   39.8650 C   0  0  0  0  0  0  0  0  0  0  0  0
   35.7580   28.0530   39.2490 C   0  0  0  0  0  0  0  0  0  0  0  0
   35.2700   28.6280   38.0830 C   0  0  0  0  0  0  0  0  0  0  0  0
   35.8820   29.7450   37.5620 C   0  0  0  0  0  0  0  0  0  0  0  0
   36.9740   30.3260   38.1560 C   0  0  0  0  0  0  0  0  0  0  0  0
   37.4460   29.7250   39.3290 C   0  0  0  0  0  0  0  0  0  0  0  0
   35.2760   27.1730   39.6650 H   0  0  0  0  0  0  0  0  0  0  0  0
   34.4100   28.2310   37.5580 H   0  0  0  0  0  0  0  0  0  0  0  0
   35.5750   30.2720   36.6490 H   0  0  0  0  0  0  0  0  0  0  0  0
   37.5390   31.1830   37.8610 H   0  0  0  0  0  0  0  0  0  0  0  0
   38.2880   26.2150   42.3800 C   0  0  0  0  0  0  0  0  0  0  0  0
   37.8870   26.7280   41.1400 C   0  0  0  0  0  0  0  0  0  0  0  0
   37.3210   27.9730   41.0770 C   0  0  0  0  0  0  0  0  0  0  0  0
   37.1830   28.6450   42.2580 N   0  0  0  0  0  0  0  0  0  0  0  0
   37.5710   28.1470   43.4530 C   0  0  0  0  0  0  0  0  0  0  0  0
   38.1290   26.9210   43.5110 N   0  0  0  0  0  0  0  0  0  0  0  0
   38.0040   26.1870   40.2260 H   0  0  0  0  0  0  0  0  0  0  0  0
   37.4340   28.7440   44.3580 H   0  0  0  0  0  0  0  0  0  0  0  0
   38.9030   24.8680   42.4600 C   0  0  0  0  0  0  0  0  0  0  0  0
   37.8620   23.9300   42.5650 F   0  0  0  0  0  0  0  0  0  0  0  0
   39.5690   24.7990   43.6800 F   0  0  0  0  0  0  0  0  0  0  0  0
   39.6970   24.5740   41.3830 F   0  0  0  0  0  0  0  0  0  0  0  0
   38.8690   31.3910   40.7470 C   0  0  0  0  0  0  0  0  0  0  0  0
   38.0840   32.3210   40.9820 O   0  0  0  0  0  0  0  0  0  0  0  0
   38.5640   30.2150   40.0370 N   0  0  0  0  0  0  0  0  0  0  0  0
   39.3240   29.4690   39.9780 H   0  0  0  0  0  0  0  0  0  0  0  0
   40.6690   33.0670   38.8340 Br  0  0  0  0  0  0  0  0  0  0  0  0
   41.1220   32.3240   40.5090 C   0  0  0  0  0  0  0  0  0  0  0  0
   40.2160   31.5870   41.2780 C   0  0  0  0  0  0  0  0  0  0  0  0
   40.5160   31.0280   42.5090 C   0  0  0  0  0  0  0  0  0  0  0  0
   39.7770   30.4710   43.0550 H   0  0  0  0  0  0  0  0  0  0  0  0
   41.8090   31.2240   42.9980 C   0  0  0  0  0  0  0  0  0  0  0  0
   42.0040   30.7680   43.9710 H   0  0  0  0  0  0  0  0  0  0  0  0
   42.7340   31.9360   42.2900 C   0  0  0  0  0  3  0  0  0  0  0  0
   42.3910   32.4830   41.0510 C   0  0  0  0  0  3  0  0  0  0  0  0
  1 13  1  0  0  0  0
  2  7  1  0  0  0  0
  2  1  2  0  0  0  0
  3  2  1  0  0  0  0
  4  3  2  0  0  0  0
  4  5  1  0  0  0  0
  5  6  2  0  0  0  0
  6  1  1  0  0  0  0
  6 25  1  0  0  0  0
  8  3  1  0  0  0  0
  9  4  1  0  0  0  0
 10  5  1  0  0  0  0
 11 19  1  0  0  0  0
 11 16  1  0  0  0  0
 12 11  2  0  0  0  0
 13 12  1  0  0  0  0
 13 14  2  0  0  0  0
 14 15  1  0  0  0  0
 15 16  2  0  0  0  0
 15 18  1  0  0  0  0
 17 12  1  0  0  0  0
 19 20  1  0  0  0  0
 19 21  1  0  0  0  0
 22 19  1  0  0  0  0
 23 24  2  0  0  0  0
 23 29  1  0  0  0  0
 25 23  1  0  0  0  0
 26 25  1  0  0  0  0
 27 28  1  0  0  0  0
 28 35  2  0  0  0  0
 28 29  1  0  0  0  0
 29 30  2  0  0  0  0
 30 32  1  0  0  0  0
 30 31  1  0  0  0  0
 32 33  1  0  0  0  0
 34 32  2  0  0  0  0
 35 34  1  0  0  0  0
M  END
>  <minimizedAffinity>
-5.84635592

$$$$

 OpenBabel03252502293D

 35 37  0  0  0  0  0  0  0  0999 V2000
   36.2280   29.1720   38.1550 C   0  0  0  0  0  0  0  0  0  0  0  0
   35.4260   29.4900   37.0700 C   0  0  0  0  0  0  0  0  0  0  0  0
   34.6670   28.4880   36.4810 C   0  0  0  0  0  0  0  0  0  0  0  0
   34.7230   27.2050   36.9780 C   0  0  0  0  0  0  0  0  0  0  0  0
   35.5100   26.8690   38.0510 C   0  0  0  0  0  0  0  0  0  0  0  0
   36.2620   27.9000   38.6260 C   0  0  0  0  0  0  0  0  0  0  0  0
   35.3870   30.5040   36.6790 H   0  0  0  0  0  0  0  0  0  0  0  0
   34.0250   28.6730   35.6290 H   0  0  0  0  0  0  0  0  0  0  0  0
   34.1640   26.3450   36.5850 H   0  0  0  0  0  0  0  0  0  0  0  0
   35.6440   25.9260   38.5330 H   0  0  0  0  0  0  0  0  0  0  0  0
   38.8280   31.7880   38.9050 C   0  0  0  0  0  0  0  0  0  0  0  0
   38.1960   30.7190   38.2590 C   0  0  0  0  0  0  0  0  0  0  0  0
   36.9910   30.2660   38.7250 C   0  0  0  0  0  0  0  0  0  0  0  0
   36.4760   30.9060   39.8160 N   0  0  0  0  0  0  0  0  0  0  0  0
   37.0890   31.9370   40.4390 C   0  0  0  0  0  0  0  0  0  0  0  0
   38.2750   32.3800   39.9760 N   0  0  0  0  0  0  0  0  0  0  0  0
   38.6140   30.2310   37.4040 H   0  0  0  0  0  0  0  0  0  0  0  0
   36.6150   32.4050   41.3060 H   0  0  0  0  0  0  0  0  0  0  0  0
   40.1330   32.2870   38.4090 C   0  0  0  0  0  0  0  0  0  0  0  0
   40.0990   32.2450   37.0050 F   0  0  0  0  0  0  0  0  0  0  0  0
   41.0900   31.3440   38.7710 F   0  0  0  0  0  0  0  0  0  0  0  0
   40.4230   33.5550   38.8360 F   0  0  0  0  0  0  0  0  0  0  0  0
   36.9890   27.8360   41.1320 C   0  0  0  0  0  0  0  0  0  0  0  0
   35.9560   28.1430   41.7450 O   0  0  0  0  0  0  0  0  0  0  0  0
   37.1070   27.6940   39.7370 N   0  0  0  0  0  0  0  0  0  0  0  0
   38.0450   27.3510   39.3600 H   0  0  0  0  0  0  0  0  0  0  0  0
   37.1990   24.8860   42.1130 Br  0  0  0  0  0  0  0  0  0  0  0  0
   38.3590   26.3260   42.4900 C   0  0  0  0  0  0  0  0  0  0  0  0
   38.1540   27.6140   41.9840 C   0  0  0  0  0  0  0  0  0  0  0  0
   38.9850   28.6920   42.2420 C   0  0  0  0  0  0  0  0  0  0  0  0
   38.7760   29.6590   41.8230 H   0  0  0  0  0  0  0  0  0  0  0  0
   40.0910   28.4600   43.0610 C   0  0  0  0  0  0  0  0  0  0  0  0
   40.7200   29.3350   43.2390 H   0  0  0  0  0  0  0  0  0  0  0  0
   40.3400   27.2220   43.5820 C   0  0  0  0  0  3  0  0  0  0  0  0
   39.4780   26.1610   43.2970 C   0  0  0  0  0  3  0  0  0  0  0  0
  1  6  1  0  0  0  0
  1 13  1  0  0  0  0
  2  1  2  0  0  0  0
  3  4  2  0  0  0  0
  3  2  1  0  0  0  0
  4  5  1  0  0  0  0
  5 10  1  0  0  0  0
  5  6  2  0  0  0  0
  6 25  1  0  0  0  0
  7  2  1  0  0  0  0
  8  3  1  0  0  0  0
  9  4  1  0  0  0  0
 11 16  1  0  0  0  0
 12 13  1  0  0  0  0
 12 11  2  0  0  0  0
 13 14  2  0  0  0  0
 14 15  1  0  0  0  0
 15 18  1  0  0  0  0
 16 15  2  0  0  0  0
 17 12  1  0  0  0  0
 19 21  1  0  0  0  0
 19 22  1  0  0  0  0
 19 11  1  0  0  0  0
 20 19  1  0  0  0  0
 23 24  2  0  0  0  0
 23 29  1  0  0  0  0
 25 23  1  0  0  0  0
 26 25  1  0  0  0  0
 27 28  1  0  0  0  0
 28 35  1  0  0  0  0
 29 30  1  0  0  0  0
 29 28  2  0  0  0  0
 30 32  2  0  0  0  0
 31 30  1  0  0  0  0
 32 33  1  0  0  0  0
 32 34  1  0  0  0  0
 35 34  2  0  0  0  0
M  END
>  <minimizedAffinity>
-5.79424

$$$$

 OpenBabel03252502293D

 35 37  0  0  0  0  0  0  0  0999 V2000
   35.7950   27.3670   38.3010 C   0  0  0  0  0  0  0  0  0  0  0  0
   35.0470   26.3530   37.7240 C   0  0  0  0  0  0  0  0  0  0  0  0
   33.9320   26.6880   36.9700 C   0  0  0  0  0  0  0  0  0  0  0  0
   33.5880   28.0120   36.8080 C   0  0  0  0  0  0  0  0  0  0  0  0
   34.3140   29.0310   37.3700 C   0  0  0  0  0  0  0  0  0  0  0  0
   35.4350   28.6630   38.1240 C   0  0  0  0  0  0  0  0  0  0  0  0
   35.3200   25.3090   37.8570 H   0  0  0  0  0  0  0  0  0  0  0  0
   33.3050   25.9420   36.4980 H   0  0  0  0  0  0  0  0  0  0  0  0
   32.7280   28.3810   36.2320 H   0  0  0  0  0  0  0  0  0  0  0  0
   34.1620   30.0870   37.3240 H   0  0  0  0  0  0  0  0  0  0  0  0
   38.0990   25.8920   40.8870 C   0  0  0  0  0  0  0  0  0  0  0  0
   36.9040   26.2340   40.2410 C   0  0  0  0  0  0  0  0  0  0  0  0
   36.9490   26.9470   39.0730 C   0  0  0  0  0  0  0  0  0  0  0  0
   38.1880   27.2840   38.6080 N   0  0  0  0  0  0  0  0  0  0  0  0
   39.3390   26.9530   39.2340 C   0  0  0  0  0  0  0  0  0  0  0  0
   39.2910   26.2500   40.3830 N   0  0  0  0  0  0  0  0  0  0  0  0
   35.9430   25.9600   40.6200 H   0  0  0  0  0  0  0  0  0  0  0  0
   40.2970   27.2530   38.8000 H   0  0  0  0  0  0  0  0  0  0  0  0
   38.0620   25.1200   42.1520 C   0  0  0  0  0  0  0  0  0  0  0  0
   36.7130   24.9160   42.4880 F   0  0  0  0  0  0  0  0  0  0  0  0
   38.5550   25.9540   43.1500 F   0  0  0  0  0  0  0  0  0  0  0  0
   38.7140   23.9180   42.0680 F   0  0  0  0  0  0  0  0  0  0  0  0
   36.2340   30.3560   39.9430 C   0  0  0  0  0  0  0  0  0  0  0  0
   35.3730   30.2610   40.8300 O   0  0  0  0  0  0  0  0  0  0  0  0
   36.2730   29.6100   38.7500 N   0  0  0  0  0  0  0  0  0  0  0  0
   37.1180   29.7510   38.1140 H   0  0  0  0  0  0  0  0  0  0  0  0
   38.2880   29.3720   42.0680 Br  0  0  0  0  0  0  0  0  0  0  0  0
   38.2580   31.0220   41.1510 C   0  0  0  0  0  0  0  0  0  0  0  0
   37.2730   31.3450   40.2120 C   0  0  0  0  0  0  0  0  0  0  0  0
   37.2220   32.5470   39.5240 C   0  0  0  0  0  0  0  0  0  0  0  0
   36.4410   32.7380   38.8110 H   0  0  0  0  0  0  0  0  0  0  0  0
   38.2230   33.4790   39.7970 C   0  0  0  0  0  0  0  0  0  0  0  0
   38.1460   34.4120   39.2330 H   0  0  0  0  0  0  0  0  0  0  0  0
   39.2090   33.2160   40.7050 C   0  0  0  0  0  3  0  0  0  0  0  0
   39.2250   31.9930   41.3790 C   0  0  0  0  0  3  0  0  0  0  0  0
  1 13  1  0  0  0  0
  2  7  1  0  0  0  0
  2  1  2  0  0  0  0
  3  2  1  0  0  0  0
  4  3  2  0  0  0  0
  4  5  1  0  0  0  0
  5  6  2  0  0  0  0
  6  1  1  0  0  0  0
  6 25  1  0  0  0  0
  8  3  1  0  0  0  0
  9  4  1  0  0  0  0
 10  5  1  0  0  0  0
 11 19  1  0  0  0  0
 12 17  1  0  0  0  0
 12 11  2  0  0  0  0
 13 12  1  0  0  0  0
 14 13  2  0  0  0  0
 14 15  1  0  0  0  0
 15 16  2  0  0  0  0
 16 11  1  0  0  0  0
 18 15  1  0  0  0  0
 19 20  1  0  0  0  0
 19 21  1  0  0  0  0
 22 19  1  0  0  0  0
 23 29  1  0  0  0  0
 23 24  2  0  0  0  0
 25 23  1  0  0  0  0
 26 25  1  0  0  0  0
 28 35  1  0  0  0  0
 28 27  1  0  0  0  0
 29 28  2  0  0  0  0
 30 32  2  0  0  0  0
 30 29  1  0  0  0  0
 31 30  1  0  0  0  0
 32 34  1  0  0  0  0
 33 32  1  0  0  0  0
 34 35  2  0  0  0  0
M  END
>  <minimizedAffinity>
-5.71697378

$$$$

 OpenBabel03252502293D

 35 37  0  0  0  0  0  0  0  0999 V2000
   36.7190   29.1700   38.2590 C   0  0  0  0  0  0  0  0  0  0  0  0
   35.9430   29.6610   37.2220 C   0  0  0  0  0  0  0  0  0  0  0  0
   34.8900   28.8900   36.7500 C   0  0  0  0  0  0  0  0  0  0  0  0
   34.6340   27.6610   37.3140 C   0  0  0  0  0  0  0  0  0  0  0  0
   35.3910   27.1560   38.3420 C   0  0  0  0  0  0  0  0  0  0  0  0
   36.4450   27.9550   38.7990 C   0  0  0  0  0  0  0  0  0  0  0  0
   36.1490   30.6320   36.7770 H   0  0  0  0  0  0  0  0  0  0  0  0
   34.2500   29.2170   35.9400 H   0  0  0  0  0  0  0  0  0  0  0  0
   33.8280   26.9770   37.0150 H   0  0  0  0  0  0  0  0  0  0  0  0
   35.3030   26.2290   38.8660 H   0  0  0  0  0  0  0  0  0  0  0  0
   38.7900   32.0320   39.5600 C   0  0  0  0  0  0  0  0  0  0  0  0
   37.6580   31.3120   39.1580 C   0  0  0  0  0  0  0  0  0  0  0  0
   37.8010   30.0280   38.7060 C   0  0  0  0  0  0  0  0  0  0  0  0
   39.0700   29.5250   38.6790 N   0  0  0  0  0  0  0  0  0  0  0  0
   40.1610   30.2220   39.0660 C   0  0  0  0  0  0  0  0  0  0  0  0
   40.0160   31.4870   39.5110 N   0  0  0  0  0  0  0  0  0  0  0  0
   36.6710   31.7230   39.1870 H   0  0  0  0  0  0  0  0  0  0  0  0
   41.1470   29.7540   39.0220 H   0  0  0  0  0  0  0  0  0  0  0  0
   38.6470   33.4240   40.0510 C   0  0  0  0  0  0  0  0  0  0  0  0
   39.7400   34.1610   39.5660 F   0  0  0  0  0  0  0  0  0  0  0  0
   38.8240   33.3870   41.4300 F   0  0  0  0  0  0  0  0  0  0  0  0
   37.4720   34.0130   39.6640 F   0  0  0  0  0  0  0  0  0  0  0  0
   37.2060   27.5170   41.2570 C   0  0  0  0  0  0  0  0  0  0  0  0
   36.1990   27.7860   41.9280 O   0  0  0  0  0  0  0  0  0  0  0  0
   37.2960   27.5610   39.8530 N   0  0  0  0  0  0  0  0  0  0  0  0
   38.2090   27.2290   39.4120 H   0  0  0  0  0  0  0  0  0  0  0  0
   38.6350   29.9620   42.5550 Br  0  0  0  0  0  0  0  0  0  0  0  0
   39.1010   28.1370   42.6790 C   0  0  0  0  0  0  0  0  0  0  0  0
   38.3720   27.1270   42.0440 C   0  0  0  0  0  0  0  0  0  0  0  0
   38.6880   25.7800   42.1140 C   0  0  0  0  0  0  0  0  0  0  0  0
   38.0880   25.0480   41.6050 H   0  0  0  0  0  0  0  0  0  0  0  0
   39.8070   25.4280   42.8690 C   0  0  0  0  0  0  0  0  0  0  0  0
   40.0210   24.3570   42.9000 H   0  0  0  0  0  0  0  0  0  0  0  0
   40.5550   26.3730   43.5110 C   0  0  0  0  0  3  0  0  0  0  0  0
   40.2040   27.7210   43.4160 C   0  0  0  0  0  3  0  0  0  0  0  0
  1 13  1  0  0  0  0
  1  6  1  0  0  0  0
  2  1  2  0  0  0  0
  3  2  1  0  0  0  0
  3  4  2  0  0  0  0
  4  5  1  0  0  0  0
  5  6  2  0  0  0  0
  5 10  1  0  0  0  0
  6 25  1  0  0  0  0
  7  2  1  0  0  0  0
  8  3  1  0  0  0  0
  9  4  1  0  0  0  0
 11 19  1  0  0  0  0
 12 17  1  0  0  0  0
 12 11  2  0  0  0  0
 13 12  1  0  0  0  0
 14 13  2  0  0  0  0
 14 15  1  0  0  0  0
 15 16  2  0  0  0  0
 16 11  1  0  0  0  0
 18 15  1  0  0  0  0
 19 21  1  0  0  0  0
 20 19  1  0  0  0  0
 22 19  1  0  0  0  0
 23 24  2  0  0  0  0
 23 29  1  0  0  0  0
 25 23  1  0  0  0  0
 26 25  1  0  0  0  0
 27 28  1  0  0  0  0
 28 35  1  0  0  0  0
 29 30  1  0  0  0  0
 29 28  2  0  0  0  0
 30 32  2  0  0  0  0
 31 30  1  0  0  0  0
 32 33  1  0  0  0  0
 32 34  1  0  0  0  0
 35 34  2  0  0  0  0
M  END
>  <minimizedAffinity>
-5.70942926

$$$$
