
 OpenBabel03252502273D

 35 37  0  0  0  0  0  0  0  0999 V2000
   45.1080   34.4610   41.2530 C   0  0  0  0  0  0  0  0  0  0  0  0
   45.4270   35.1380   42.4190 C   0  0  0  0  0  0  0  0  0  0  0  0
   46.7600   35.4110   42.6910 C   0  0  0  0  0  0  0  0  0  0  0  0
   47.7360   35.0100   41.8070 C   0  0  0  0  0  0  0  0  0  0  0  0
   47.4420   34.3380   40.6470 C   0  0  0  0  0  0  0  0  0  0  0  0
   46.0890   34.0770   40.3980 C   0  0  0  0  0  0  0  0  0  0  0  0
   44.6540   35.4520   43.1160 H   0  0  0  0  0  0  0  0  0  0  0  0
   47.0740   35.9340   43.5870 H   0  0  0  0  0  0  0  0  0  0  0  0
   48.8150   35.1770   41.9290 H   0  0  0  0  0  0  0  0  0  0  0  0
   48.0920   33.9740   39.8820 H   0  0  0  0  0  0  0  0  0  0  0  0
   41.4440   34.7690   40.4430 C   0  0  0  0  0  0  0  0  0  0  0  0
   42.7810   35.1450   40.6220 C   0  0  0  0  0  0  0  0  0  0  0  0
   43.6960   34.2110   41.0280 C   0  0  0  0  0  0  0  0  0  0  0  0
   43.2290   32.9450   41.2360 N   0  0  0  0  0  0  0  0  0  0  0  0
   41.9380   32.5850   41.0640 C   0  0  0  0  0  0  0  0  0  0  0  0
   41.0400   33.5080   40.6630 N   0  0  0  0  0  0  0  0  0  0  0  0
   43.1290   36.1420   40.4530 H   0  0  0  0  0  0  0  0  0  0  0  0
   41.6350   31.5510   41.2450 H   0  0  0  0  0  0  0  0  0  0  0  0
   40.4450   35.7730   40.0030 C   0  0  0  0  0  0  0  0  0  0  0  0
   39.2550   35.0870   39.7070 F   0  0  0  0  0  0  0  0  0  0  0  0
   40.8840   36.2710   38.7810 F   0  0  0  0  0  0  0  0  0  0  0  0
   40.2100   36.7440   40.9400 F   0  0  0  0  0  0  0  0  0  0  0  0
   45.7790   32.1010   38.7210 C   0  0  0  0  0  0  0  0  0  0  0  0
   46.3240   31.1440   39.2920 O   0  0  0  0  0  0  0  0  0  0  0  0
   45.6470   33.4020   39.2410 N   0  0  0  0  0  0  0  0  0  0  0  0
   45.0870   34.1030   38.6630 H   0  0  0  0  0  0  0  0  0  0  0  0
   47.7580   32.8600   36.4370 Br  0  0  0  0  0  0  0  0  0  0  0  0
   46.0420   32.0880   36.2870 C   0  0  0  0  0  0  0  0  0  0  0  0
   45.2460   31.7920   37.3980 C   0  0  0  0  0  0  0  0  0  0  0  0
   43.9840   31.2260   37.3200 C   0  0  0  0  0  0  0  0  0  0  0  0
   43.4190   31.0190   38.2120 H   0  0  0  0  0  0  0  0  0  0  0  0
   43.4920   30.9410   36.0470 C   0  0  0  0  0  0  0  0  0  0  0  0
   42.4940   30.4960   36.0300 H   0  0  0  0  0  0  0  0  0  0  0  0
   44.2260   31.2090   34.9270 C   0  0  0  0  0  3  0  0  0  0  0  0
   45.4950   31.7800   35.0470 C   0  0  0  0  0  3  0  0  0  0  0  0
  1  2  1  0  0  0  0
  2  3  2  0  0  0  0
  2  7  1  0  0  0  0
  3  8  1  0  0  0  0
  4  9  1  0  0  0  0
  4  3  1  0  0  0  0
  5  4  2  0  0  0  0
  6  5  1  0  0  0  0
  6  1  2  0  0  0  0
 10  5  1  0  0  0  0
 11 12  2  0  0  0  0
 11 16  1  0  0  0  0
 12 13  1  0  0  0  0
 13 14  2  0  0  0  0
 13  1  1  0  0  0  0
 15 14  1  0  0  0  0
 15 18  1  0  0  0  0
 16 15  2  0  0  0  0
 17 12  1  0  0  0  0
 19 11  1  0  0  0  0
 19 22  1  0  0  0  0
 20 19  1  0  0  0  0
 21 19  1  0  0  0  0
 23 25  1  0  0  0  0
 23 24  2  0  0  0  0
 25  6  1  0  0  0  0
 26 25  1  0  0  0  0
 28 27  1  0  0  0  0
 28 29  1  0  0  0  0
 29 23  1  0  0  0  0
 30 29  2  0  0  0  0
 30 31  1  0  0  0  0
 32 30  1  0  0  0  0
 33 32  1  0  0  0  0
 34 35  1  0  0  0  0
 34 32  2  0  0  0  0
 35 28  2  0  0  0  0
M  END
>  <minimizedAffinity>
-6.14330101

>  <minimizedRMSD>
0.584599614

$$$$
