
 OpenBabel03252508193D

 41 44  0  0  1  0  0  0  0  0999 V2000
   35.4350   28.5830   39.1470 C   0  0  0  0  0  3  0  0  0  0  0  0
   35.0660   29.5490   39.8770 C   0  0  0  0  0  3  0  0  0  0  0  0
   33.7060   26.5900   36.5740 C   0  0  0  0  0  0  0  0  0  0  0  0
   32.8550   27.5130   35.9830 C   0  0  0  0  0  0  0  0  0  0  0  0
   32.8970   28.7740   36.4790 C   0  0  0  0  0  0  0  0  0  0  0  0
   33.7410   29.0940   37.5040 N   0  0  0  0  0  0  0  0  0  0  0  0
   34.5540   28.1700   38.0540 C   0  0  0  0  0  0  0  0  0  0  0  0
   34.5140   26.9360   37.5700 N   0  0  0  0  0  0  0  0  0  0  0  0
   33.7110   25.5710   36.2140 H   0  0  0  0  0  0  0  0  0  0  0  0
   32.1940   27.2470   35.1750 H   0  0  0  0  0  0  0  0  0  0  0  0
   32.0620   29.8520   35.9590 C   0  0  0  0  0  0  0  0  0  0  0  0
   32.0790   30.3040   34.6730 C   0  0  0  0  0  0  0  0  0  0  0  0
   31.2840   31.3240   34.1940 C   0  0  0  0  0  0  0  0  0  0  0  0
   30.3970   31.9550   35.0430 C   0  0  0  0  0  0  0  0  0  0  0  0
   30.3290   31.5500   36.3500 C   0  0  0  0  0  0  0  0  0  0  0  0
   31.1550   30.5180   36.7740 C   0  0  0  0  0  0  0  0  0  0  0  0
   32.7730   29.8240   33.9730 H   0  0  0  0  0  0  0  0  0  0  0  0
   31.3570   31.6250   33.1550 H   0  0  0  0  0  0  0  0  0  0  0  0
   29.7840   32.7520   34.6430 H   0  0  0  0  0  0  0  0  0  0  0  0
   29.6430   32.0340   37.0170 H   0  0  0  0  0  0  0  0  0  0  0  0
   31.0530   30.2440   37.8200 H   0  0  0  0  0  0  0  0  0  0  0  0
   36.0560   29.9860   40.9330 C   0  0  0  0  0  0  0  0  0  0  0  0
   35.6840   29.8480   41.9270 H   0  0  0  0  0  0  0  0  0  0  0  0
   36.0930   31.1070   40.7750 H   0  0  0  0  0  0  0  0  0  0  0  0
   37.4310   29.5100   40.6040 C   0  0  1  0  0  0  0  0  0  0  0  0
   38.5130   30.2720   41.2970 C   0  0  0  0  0  0  0  0  0  0  0  0
   38.2650   28.8710   41.6290 C   0  0  1  0  0  0  0  0  0  0  0  0
   37.6540   29.4870   39.5000 H   0  0  0  0  0  0  0  0  0  0  0  0
   38.2590   31.0240   42.0960 H   0  0  0  0  0  0  0  0  0  0  0  0
   39.4620   30.5450   40.7990 H   0  0  0  0  0  0  0  0  0  0  0  0
   39.0220   28.1430   41.2680 H   0  0  0  0  0  0  0  0  0  0  0  0
   37.6200   28.4680   42.9110 C   0  0  2  0  0  0  0  0  0  0  0  0
   38.3590   27.3370   43.6680 C   0  0  0  0  0  0  0  0  0  0  0  0
   37.0670   27.0530   43.0180 C   0  0  2  0  0  0  0  0  0  0  0  0
   37.1720   29.1640   43.6220 H   0  0  0  0  0  0  0  0  0  0  0  0
   39.2910   26.9360   43.1860 H   0  0  0  0  0  0  0  0  0  0  0  0
   38.4520   27.3730   44.7490 H   0  0  0  0  0  0  0  0  0  0  0  0
   36.1930   26.8810   43.7100 H   0  0  0  0  0  0  0  0  0  0  0  0
   37.1250   26.1620   41.7950 C   0  0  0  0  0  2  0  0  0  0  0  0
   36.9750   24.7060   42.0950 C   0  0  0  0  0  2  0  0  0  0  0  0
   36.2020   24.2780   41.4180 H   0  0  0  0  0  0  0  0  0  0  0  0
  1  2  2  0  0  0  0
  2 22  1  0  0  0  0
  3  8  1  0  0  0  0
  4  5  1  0  0  0  0
  4  3  2  0  0  0  0
  5  6  2  0  0  0  0
  6  7  1  0  0  0  0
  7  1  1  0  0  0  0
  8  7  2  0  0  0  0
  9  3  1  0  0  0  0
 10  4  1  0  0  0  0
 11  5  1  0  0  0  0
 11 16  1  0  0  0  0
 12 11  2  0  0  0  0
 13 12  1  0  0  0  0
 13 14  2  0  0  0  0
 14 15  1  0  0  0  0
 15 16  2  0  0  0  0
 15 20  1  0  0  0  0
 16 21  1  0  0  0  0
 17 12  1  0  0  0  0
 18 13  1  0  0  0  0
 19 14  1  0  0  0  0
 22 23  1  0  0  0  0
 24 22  1  0  0  0  0
 25 28  1  6  0  0  0
 25 22  1  0  0  0  0
 25 26  1  0  0  0  0
 25 27  1  0  0  0  0
 26 27  1  0  0  0  0
 26 29  1  0  0  0  0
 27 31  1  6  0  0  0
 27 32  1  0  0  0  0
 30 26  1  0  0  0  0
 32 34  1  0  0  0  0
 32 35  1  1  0  0  0
 32 33  1  0  0  0  0
 33 37  1  0  0  0  0
 34 33  1  0  0  0  0
 34 38  1  1  0  0  0
 36 33  1  0  0  0  0
 39 40  1  0  0  0  0
 39 34  1  0  0  0  0
 41 40  1  0  0  0  0
M  END
>  <minimizedAffinity>
-5.60991049

$$$$

 OpenBabel03252508193D

 41 44  0  0  1  0  0  0  0  0999 V2000
   37.8300   28.4910   42.6510 C   0  0  0  0  0  3  0  0  0  0  0  0
   39.0210   28.1030   42.8340 C   0  0  0  0  0  3  0  0  0  0  0  0
   36.2630   31.1970   40.7010 C   0  0  0  0  0  0  0  0  0  0  0  0
   37.3370   32.0170   40.3850 C   0  0  0  0  0  0  0  0  0  0  0  0
   38.5500   31.6240   40.8440 C   0  0  0  0  0  0  0  0  0  0  0  0
   38.6820   30.4790   41.5760 N   0  0  0  0  0  0  0  0  0  0  0  0
   37.6150   29.7070   41.8650 C   0  0  0  0  0  0  0  0  0  0  0  0
   36.4280   30.0910   41.4160 N   0  0  0  0  0  0  0  0  0  0  0  0
   35.2740   31.4670   40.3580 H   0  0  0  0  0  0  0  0  0  0  0  0
   37.2180   32.9180   39.8060 H   0  0  0  0  0  0  0  0  0  0  0  0
   39.7700   32.3820   40.5900 C   0  0  0  0  0  0  0  0  0  0  0  0
   39.8710   33.4440   39.7400 C   0  0  0  0  0  0  0  0  0  0  0  0
   41.0310   34.1520   39.5090 C   0  0  0  0  0  0  0  0  0  0  0  0
   42.1920   33.7930   40.1640 C   0  0  0  0  0  0  0  0  0  0  0  0
   42.1620   32.7350   41.0340 C   0  0  0  0  0  0  0  0  0  0  0  0
   40.9640   32.0600   41.2250 C   0  0  0  0  0  0  0  0  0  0  0  0
   38.9660   33.7540   39.2040 H   0  0  0  0  0  0  0  0  0  0  0  0
   41.0280   34.9860   38.8170 H   0  0  0  0  0  0  0  0  0  0  0  0
   43.0890   34.3650   39.9670 H   0  0  0  0  0  0  0  0  0  0  0  0
   43.0590   32.4490   41.5470 H   0  0  0  0  0  0  0  0  0  0  0  0
   41.0070   31.2310   41.9250 H   0  0  0  0  0  0  0  0  0  0  0  0
   39.1760   26.7960   43.5780 C   0  0  0  0  0  0  0  0  0  0  0  0
   38.3070   26.5430   44.1480 H   0  0  0  0  0  0  0  0  0  0  0  0
   39.9760   27.0500   44.3380 H   0  0  0  0  0  0  0  0  0  0  0  0
   39.7960   25.7570   42.7050 C   0  0  1  0  0  0  0  0  0  0  0  0
   39.7490   24.3800   43.2830 C   0  0  0  0  0  0  0  0  0  0  0  0
   38.9720   24.7090   42.0900 C   0  0  1  0  0  0  0  0  0  0  0  0
   40.8570   25.9880   42.4040 H   0  0  0  0  0  0  0  0  0  0  0  0
   39.1590   24.1750   44.2190 H   0  0  0  0  0  0  0  0  0  0  0  0
   40.5910   23.6690   43.1950 H   0  0  0  0  0  0  0  0  0  0  0  0
   39.3440   24.2850   41.1340 H   0  0  0  0  0  0  0  0  0  0  0  0
   37.4900   24.8640   42.1340 C   0  0  2  0  0  0  0  0  0  0  0  0
   36.7320   24.0340   41.0680 C   0  0  0  0  0  0  0  0  0  0  0  0
   36.8020   25.5000   40.9340 C   0  0  2  0  0  0  0  0  0  0  0  0
   36.9020   24.9200   43.0520 H   0  0  0  0  0  0  0  0  0  0  0  0
   37.3600   23.4100   40.3770 H   0  0  0  0  0  0  0  0  0  0  0  0
   35.8030   23.5340   41.3240 H   0  0  0  0  0  0  0  0  0  0  0  0
   35.8390   26.0610   41.1150 H   0  0  0  0  0  0  0  0  0  0  0  0
   37.6630   26.0190   39.8010 C   0  0  0  0  0  2  0  0  0  0  0  0
   37.1020   27.2200   39.1110 C   0  0  0  0  0  2  0  0  0  0  0  0
   37.8950   27.9960   39.0410 H   0  0  0  0  0  0  0  0  0  0  0  0
  1  2  2  0  0  0  0
  2 22  1  0  0  0  0
  3  8  1  0  0  0  0
  4  3  2  0  0  0  0
  4  5  1  0  0  0  0
  5  6  2  0  0  0  0
  6  7  1  0  0  0  0
  7  1  1  0  0  0  0
  8  7  2  0  0  0  0
  9  3  1  0  0  0  0
 10  4  1  0  0  0  0
 11  5  1  0  0  0  0
 11 16  1  0  0  0  0
 12 11  2  0  0  0  0
 13 12  1  0  0  0  0
 13 14  2  0  0  0  0
 14 15  1  0  0  0  0
 15 16  2  0  0  0  0
 15 20  1  0  0  0  0
 16 21  1  0  0  0  0
 17 12  1  0  0  0  0
 18 13  1  0  0  0  0
 19 14  1  0  0  0  0
 22 23  1  0  0  0  0
 22 24  1  0  0  0  0
 25 28  1  6  0  0  0
 25 26  1  0  0  0  0
 25 22  1  0  0  0  0
 26 29  1  0  0  0  0
 27 31  1  6  0  0  0
 27 32  1  0  0  0  0
 27 25  1  0  0  0  0
 27 26  1  0  0  0  0
 30 26  1  0  0  0  0
 32 35  1  1  0  0  0
 33 37  1  0  0  0  0
 33 32  1  0  0  0  0
 34 33  1  0  0  0  0
 34 38  1  1  0  0  0
 34 32  1  0  0  0  0
 36 33  1  0  0  0  0
 39 34  1  0  0  0  0
 40 39  1  0  0  0  0
 41 40  1  0  0  0  0
M  END
>  <minimizedAffinity>
-5.4884038

$$$$

 OpenBabel03252508193D

 41 44  0  0  1  0  0  0  0  0999 V2000
   38.2400   30.1560   41.9570 C   0  0  0  0  0  3  0  0  0  0  0  0
   39.0380   30.6410   41.1020 C   0  0  0  0  0  3  0  0  0  0  0  0
   39.0660   26.9180   43.5100 C   0  0  0  0  0  0  0  0  0  0  0  0
   38.4300   26.0030   42.6830 C   0  0  0  0  0  0  0  0  0  0  0  0
   37.7440   26.5160   41.6320 C   0  0  0  0  0  0  0  0  0  0  0  0
   37.6980   27.8640   41.4200 N   0  0  0  0  0  0  0  0  0  0  0  0
   38.3280   28.7240   42.2460 C   0  0  0  0  0  0  0  0  0  0  0  0
   38.9990   28.2230   43.2740 N   0  0  0  0  0  0  0  0  0  0  0  0
   39.6260   26.5580   44.3620 H   0  0  0  0  0  0  0  0  0  0  0  0
   38.4750   24.9410   42.8620 H   0  0  0  0  0  0  0  0  0  0  0  0
   37.0270   25.6790   40.6760 C   0  0  0  0  0  0  0  0  0  0  0  0
   36.6170   26.0790   39.4380 C   0  0  0  0  0  0  0  0  0  0  0  0
   35.9410   25.2770   38.5440 C   0  0  0  0  0  0  0  0  0  0  0  0
   35.6390   23.9740   38.8870 C   0  0  0  0  0  0  0  0  0  0  0  0
   36.0220   23.5070   40.1170 C   0  0  0  0  0  0  0  0  0  0  0  0
   36.7010   24.3610   40.9750 C   0  0  0  0  0  0  0  0  0  0  0  0
   36.8420   27.1080   39.1360 H   0  0  0  0  0  0  0  0  0  0  0  0
   35.6490   25.6700   37.5770 H   0  0  0  0  0  0  0  0  0  0  0  0
   35.1080   23.3660   38.1670 H   0  0  0  0  0  0  0  0  0  0  0  0
   35.7920   22.4970   40.3920 H   0  0  0  0  0  0  0  0  0  0  0  0
   36.9760   23.9320   41.9340 H   0  0  0  0  0  0  0  0  0  0  0  0
   38.9590   32.1380   40.9090 C   0  0  0  0  0  0  0  0  0  0  0  0
   39.8030   32.5290   40.3800 H   0  0  0  0  0  0  0  0  0  0  0  0
   39.0620   32.5200   41.9700 H   0  0  0  0  0  0  0  0  0  0  0  0
   37.5880   32.5490   40.4880 C   0  0  1  0  0  0  0  0  0  0  0  0
   37.5600   33.7940   39.6630 C   0  0  0  0  0  0  0  0  0  0  0  0
   37.1970   32.5070   39.0740 C   0  0  1  0  0  0  0  0  0  0  0  0
   36.8640   32.6640   41.3430 H   0  0  0  0  0  0  0  0  0  0  0  0
   38.5190   34.2560   39.2950 H   0  0  0  0  0  0  0  0  0  0  0  0
   36.7800   34.5690   39.7810 H   0  0  0  0  0  0  0  0  0  0  0  0
   36.1180   32.3550   38.8630 H   0  0  0  0  0  0  0  0  0  0  0  0
   38.0950   31.7990   38.1160 C   0  0  2  0  0  0  0  0  0  0  0  0
   37.4240   31.4310   36.7700 C   0  0  0  0  0  0  0  0  0  0  0  0
   37.7450   30.3660   37.7370 C   0  0  2  0  0  0  0  0  0  0  0  0
   39.1450   32.0480   37.9560 H   0  0  0  0  0  0  0  0  0  0  0  0
   36.3470   31.7250   36.6470 H   0  0  0  0  0  0  0  0  0  0  0  0
   37.9750   31.5340   35.8400 H   0  0  0  0  0  0  0  0  0  0  0  0
   38.5910   29.6770   37.4510 H   0  0  0  0  0  0  0  0  0  0  0  0
   36.5600   29.7100   38.4140 C   0  0  0  0  0  2  0  0  0  0  0  0
   35.4840   29.2770   37.4730 C   0  0  0  0  0  2  0  0  0  0  0  0
   35.2140   28.2220   37.6970 H   0  0  0  0  0  0  0  0  0  0  0  0
  1  7  1  0  0  0  0
  2  1  2  0  0  0  0
  3  9  1  0  0  0  0
  4 10  1  0  0  0  0
  4  3  2  0  0  0  0
  5  4  1  0  0  0  0
  6  5  2  0  0  0  0
  6  7  1  0  0  0  0
  7  8  2  0  0  0  0
  8  3  1  0  0  0  0
 11 16  1  0  0  0  0
 11  5  1  0  0  0  0
 12 11  2  0  0  0  0
 13 14  2  0  0  0  0
 13 12  1  0  0  0  0
 14 15  1  0  0  0  0
 15 20  1  0  0  0  0
 15 16  2  0  0  0  0
 16 21  1  0  0  0  0
 17 12  1  0  0  0  0
 18 13  1  0  0  0  0
 19 14  1  0  0  0  0
 22  2  1  0  0  0  0
 22 24  1  0  0  0  0
 23 22  1  0  0  0  0
 25 22  1  0  0  0  0
 25 28  1  1  0  0  0
 26 30  1  0  0  0  0
 26 25  1  0  0  0  0
 27 31  1  6  0  0  0
 27 26  1  0  0  0  0
 27 25  1  0  0  0  0
 29 26  1  0  0  0  0
 32 35  1  6  0  0  0
 32 27  1  0  0  0  0
 33 34  1  0  0  0  0
 33 32  1  0  0  0  0
 34 38  1  6  0  0  0
 34 32  1  0  0  0  0
 34 39  1  0  0  0  0
 36 33  1  0  0  0  0
 37 33  1  0  0  0  0
 40 41  1  0  0  0  0
 40 39  1  0  0  0  0
M  END
>  <minimizedAffinity>
-5.43792248

$$$$

 OpenBabel03252508193D

 41 44  0  0  1  0  0  0  0  0999 V2000
   38.6650   28.8440   41.8150 C   0  0  0  0  0  3  0  0  0  0  0  0
   37.8880   28.2860   42.6450 C   0  0  0  0  0  3  0  0  0  0  0  0
   37.6730   32.1220   40.4560 C   0  0  0  0  0  0  0  0  0  0  0  0
   37.0360   31.7890   39.2690 C   0  0  0  0  0  0  0  0  0  0  0  0
   36.9670   30.4680   38.9730 C   0  0  0  0  0  0  0  0  0  0  0  0
   37.5040   29.5350   39.8140 N   0  0  0  0  0  0  0  0  0  0  0  0
   38.1170   29.8970   40.9590 C   0  0  0  0  0  0  0  0  0  0  0  0
   38.1840   31.1890   41.2500 N   0  0  0  0  0  0  0  0  0  0  0  0
   37.7540   33.1630   40.7370 H   0  0  0  0  0  0  0  0  0  0  0  0
   36.6170   32.5360   38.6150 H   0  0  0  0  0  0  0  0  0  0  0  0
   36.3270   29.9660   37.7630 C   0  0  0  0  0  0  0  0  0  0  0  0
   36.8460   30.0600   36.5050 C   0  0  0  0  0  0  0  0  0  0  0  0
   36.2310   29.5790   35.3680 C   0  0  0  0  0  0  0  0  0  0  0  0
   35.0040   28.9540   35.4680 C   0  0  0  0  0  0  0  0  0  0  0  0
   34.4250   28.8250   36.7030 C   0  0  0  0  0  0  0  0  0  0  0  0
   35.0930   29.3280   37.8110 C   0  0  0  0  0  0  0  0  0  0  0  0
   37.8200   30.5520   36.3910 H   0  0  0  0  0  0  0  0  0  0  0  0
   36.7100   29.6940   34.4030 H   0  0  0  0  0  0  0  0  0  0  0  0
   34.5430   28.5850   34.5620 H   0  0  0  0  0  0  0  0  0  0  0  0
   33.4730   28.3400   36.7910 H   0  0  0  0  0  0  0  0  0  0  0  0
   34.5810   29.1950   38.7600 H   0  0  0  0  0  0  0  0  0  0  0  0
   38.5310   27.2690   43.5600 C   0  0  0  0  0  0  0  0  0  0  0  0
   37.8150   26.7520   44.1660 H   0  0  0  0  0  0  0  0  0  0  0  0
   39.1140   27.9270   44.2740 H   0  0  0  0  0  0  0  0  0  0  0  0
   39.5690   26.4800   42.8360 C   0  0  1  0  0  0  0  0  0  0  0  0
   40.0160   25.2580   43.5690 C   0  0  0  0  0  0  0  0  0  0  0  0
   39.2640   25.1390   42.3220 C   0  0  1  0  0  0  0  0  0  0  0  0
   40.4760   27.0810   42.5430 H   0  0  0  0  0  0  0  0  0  0  0  0
   39.4840   24.9270   44.5040 H   0  0  0  0  0  0  0  0  0  0  0  0
   41.0730   24.9310   43.5920 H   0  0  0  0  0  0  0  0  0  0  0  0
   39.8420   24.8060   41.4340 H   0  0  0  0  0  0  0  0  0  0  0  0
   37.8400   24.7000   42.3010 C   0  0  2  0  0  0  0  0  0  0  0  0
   37.5300   23.5950   41.2620 C   0  0  0  0  0  0  0  0  0  0  0  0
   37.0300   24.9630   41.0380 C   0  0  2  0  0  0  0  0  0  0  0  0
   37.2240   24.5610   43.1910 H   0  0  0  0  0  0  0  0  0  0  0  0
   38.3910   23.2380   40.6360 H   0  0  0  0  0  0  0  0  0  0  0  0
   36.8560   22.7810   41.5150 H   0  0  0  0  0  0  0  0  0  0  0  0
   35.9160   25.1070   41.1470 H   0  0  0  0  0  0  0  0  0  0  0  0
   37.6860   25.7280   39.9080 C   0  0  0  0  0  2  0  0  0  0  0  0
   36.7330   26.1960   38.8560 C   0  0  0  0  0  2  0  0  0  0  0  0
   36.9150   27.2770   38.6630 H   0  0  0  0  0  0  0  0  0  0  0  0
  1  2  2  0  0  0  0
  2 22  1  0  0  0  0
  3  9  1  0  0  0  0
  3  8  1  0  0  0  0
  4  3  2  0  0  0  0
  5  4  1  0  0  0  0
  5  6  2  0  0  0  0
  6  7  1  0  0  0  0
  7  8  2  0  0  0  0
  7  1  1  0  0  0  0
 10  4  1  0  0  0  0
 11 16  1  0  0  0  0
 11  5  1  0  0  0  0
 12 11  2  0  0  0  0
 13 14  2  0  0  0  0
 13 12  1  0  0  0  0
 14 15  1  0  0  0  0
 15 20  1  0  0  0  0
 15 16  2  0  0  0  0
 16 21  1  0  0  0  0
 17 12  1  0  0  0  0
 18 13  1  0  0  0  0
 19 14  1  0  0  0  0
 22 23  1  0  0  0  0
 22 24  1  0  0  0  0
 25 28  1  6  0  0  0
 25 22  1  0  0  0  0
 25 26  1  0  0  0  0
 26 30  1  0  0  0  0
 26 29  1  0  0  0  0
 27 31  1  6  0  0  0
 27 25  1  0  0  0  0
 27 26  1  0  0  0  0
 32 27  1  0  0  0  0
 32 35  1  1  0  0  0
 33 37  1  0  0  0  0
 33 32  1  0  0  0  0
 34 38  1  1  0  0  0
 34 33  1  0  0  0  0
 34 32  1  0  0  0  0
 36 33  1  0  0  0  0
 39 34  1  0  0  0  0
 40 39  1  0  0  0  0
 41 40  1  0  0  0  0
M  END
>  <minimizedAffinity>
-5.32134962

$$$$

 OpenBabel03252508193D

 41 44  0  0  1  0  0  0  0  0999 V2000
   37.3060   27.7860   39.5890 C   0  0  0  0  0  3  0  0  0  0  0  0
   36.7510   26.9850   40.3980 C   0  0  0  0  0  3  0  0  0  0  0  0
   36.2890   31.0840   40.8790 C   0  0  0  0  0  0  0  0  0  0  0  0
   37.2850   31.9260   40.4050 C   0  0  0  0  0  0  0  0  0  0  0  0
   38.2640   31.3460   39.6690 C   0  0  0  0  0  0  0  0  0  0  0  0
   38.2480   30.0030   39.4200 N   0  0  0  0  0  0  0  0  0  0  0  0
   37.2630   29.2150   39.8970 C   0  0  0  0  0  0  0  0  0  0  0  0
   36.3050   29.7820   40.6180 N   0  0  0  0  0  0  0  0  0  0  0  0
   35.4850   31.4990   41.4710 H   0  0  0  0  0  0  0  0  0  0  0  0
   37.2860   32.9840   40.6090 H   0  0  0  0  0  0  0  0  0  0  0  0
   39.3760   32.1010   39.1030 C   0  0  0  0  0  0  0  0  0  0  0  0
   39.8820   33.2570   39.6210 C   0  0  0  0  0  0  0  0  0  0  0  0
   40.9350   33.9620   39.0770 C   0  0  0  0  0  0  0  0  0  0  0  0
   41.5450   33.4990   37.9280 C   0  0  0  0  0  0  0  0  0  0  0  0
   41.0860   32.3420   37.3540 C   0  0  0  0  0  0  0  0  0  0  0  0
   40.0230   31.6760   37.9480 C   0  0  0  0  0  0  0  0  0  0  0  0
   39.4190   33.6520   40.5330 H   0  0  0  0  0  0  0  0  0  0  0  0
   41.2780   34.8740   39.5500 H   0  0  0  0  0  0  0  0  0  0  0  0
   42.3690   34.0690   37.5210 H   0  0  0  0  0  0  0  0  0  0  0  0
   41.5540   31.9750   36.4620 H   0  0  0  0  0  0  0  0  0  0  0  0
   39.7070   30.7670   37.4450 H   0  0  0  0  0  0  0  0  0  0  0  0
   36.9030   25.5160   40.0710 C   0  0  0  0  0  0  0  0  0  0  0  0
   37.6510   25.3360   39.3280 H   0  0  0  0  0  0  0  0  0  0  0  0
   35.9140   25.2810   39.5710 H   0  0  0  0  0  0  0  0  0  0  0  0
   36.9060   24.6920   41.3150 C   0  0  1  0  0  0  0  0  0  0  0  0
   37.5040   23.3350   41.1350 C   0  0  0  0  0  0  0  0  0  0  0  0
   38.1700   24.3330   41.9690 C   0  0  1  0  0  0  0  0  0  0  0  0
   35.8910   24.5820   41.7910 H   0  0  0  0  0  0  0  0  0  0  0  0
   38.0240   23.0640   40.1750 H   0  0  0  0  0  0  0  0  0  0  0  0
   37.0830   22.4310   41.6140 H   0  0  0  0  0  0  0  0  0  0  0  0
   38.1280   24.1590   43.0650 H   0  0  0  0  0  0  0  0  0  0  0  0
   39.4140   25.0260   41.5260 C   0  0  2  0  0  0  0  0  0  0  0  0
   40.5650   24.9890   42.5600 C   0  0  0  0  0  0  0  0  0  0  0  0
   39.8600   26.2570   42.3020 C   0  0  2  0  0  0  0  0  0  0  0  0
   39.8180   24.9800   40.5130 H   0  0  0  0  0  0  0  0  0  0  0  0
   40.3570   24.4560   43.5270 H   0  0  0  0  0  0  0  0  0  0  0  0
   41.5890   24.8350   42.2320 H   0  0  0  0  0  0  0  0  0  0  0  0
   40.4470   27.0450   41.7470 H   0  0  0  0  0  0  0  0  0  0  0  0
   38.9780   26.7620   43.4240 C   0  0  0  0  0  2  0  0  0  0  0  0
   38.5680   28.1910   43.2810 C   0  0  0  0  0  2  0  0  0  0  0  0
   37.4660   28.2640   43.4190 H   0  0  0  0  0  0  0  0  0  0  0  0
  1  7  1  0  0  0  0
  1  2  2  0  0  0  0
  3  9  1  0  0  0  0
  4 10  1  0  0  0  0
  4  3  2  0  0  0  0
  5  4  1  0  0  0  0
  6  5  2  0  0  0  0
  6  7  1  0  0  0  0
  7  8  2  0  0  0  0
  8  3  1  0  0  0  0
 11 12  1  0  0  0  0
 11  5  1  0  0  0  0
 12 17  1  0  0  0  0
 13 18  1  0  0  0  0
 13 12  2  0  0  0  0
 14 13  1  0  0  0  0
 15 14  2  0  0  0  0
 15 16  1  0  0  0  0
 16 11  2  0  0  0  0
 19 14  1  0  0  0  0
 20 15  1  0  0  0  0
 21 16  1  0  0  0  0
 22  2  1  0  0  0  0
 22 25  1  0  0  0  0
 23 22  1  0  0  0  0
 24 22  1  0  0  0  0
 25 28  1  1  0  0  0
 25 27  1  0  0  0  0
 26 25  1  0  0  0  0
 26 30  1  0  0  0  0
 26 27  1  0  0  0  0
 27 31  1  1  0  0  0
 29 26  1  0  0  0  0
 32 35  1  6  0  0  0
 32 27  1  0  0  0  0
 32 34  1  0  0  0  0
 32 33  1  0  0  0  0
 33 36  1  0  0  0  0
 34 38  1  6  0  0  0
 34 33  1  0  0  0  0
 34 39  1  0  0  0  0
 37 33  1  0  0  0  0
 40 41  1  0  0  0  0
 40 39  1  0  0  0  0
M  END
>  <minimizedAffinity>
-5.27774239

$$$$

 OpenBabel03252508193D

 41 44  0  0  1  0  0  0  0  0999 V2000
   34.6200   28.3430   38.2180 C   0  0  0  0  0  3  0  0  0  0  0  0
   34.1110   29.0290   39.1520 C   0  0  0  0  0  3  0  0  0  0  0  0
   33.4960   27.4050   34.8370 C   0  0  0  0  0  0  0  0  0  0  0  0
   32.5970   28.4120   34.5150 C   0  0  0  0  0  0  0  0  0  0  0  0
   32.4050   29.3700   35.4550 C   0  0  0  0  0  0  0  0  0  0  0  0
   33.0720   29.3230   36.6460 N   0  0  0  0  0  0  0  0  0  0  0  0
   33.9370   28.3280   36.9240 C   0  0  0  0  0  0  0  0  0  0  0  0
   34.1260   27.3910   36.0050 N   0  0  0  0  0  0  0  0  0  0  0  0
   33.6850   26.6170   34.1200 H   0  0  0  0  0  0  0  0  0  0  0  0
   32.0780   28.4360   33.5710 H   0  0  0  0  0  0  0  0  0  0  0  0
   31.4930   30.4910   35.2590 C   0  0  0  0  0  0  0  0  0  0  0  0
   31.1490   31.0200   34.0500 C   0  0  0  0  0  0  0  0  0  0  0  0
   30.2850   32.0810   33.8790 C   0  0  0  0  0  0  0  0  0  0  0  0
   29.7080   32.6760   34.9830 C   0  0  0  0  0  0  0  0  0  0  0  0
   30.0090   32.1940   36.2300 C   0  0  0  0  0  0  0  0  0  0  0  0
   30.8870   31.1240   36.3390 C   0  0  0  0  0  0  0  0  0  0  0  0
   31.5920   30.5700   33.1530 H   0  0  0  0  0  0  0  0  0  0  0  0
   30.0630   32.4430   32.8830 H   0  0  0  0  0  0  0  0  0  0  0  0
   29.0330   33.5060   34.8220 H   0  0  0  0  0  0  0  0  0  0  0  0
   29.5650   32.6500   37.0930 H   0  0  0  0  0  0  0  0  0  0  0  0
   31.0850   30.7890   37.3530 H   0  0  0  0  0  0  0  0  0  0  0  0
   34.9060   29.0760   40.4380 C   0  0  0  0  0  0  0  0  0  0  0  0
   34.7900   28.1890   41.0250 H   0  0  0  0  0  0  0  0  0  0  0  0
   34.3770   29.8940   41.0140 H   0  0  0  0  0  0  0  0  0  0  0  0
   36.2790   29.6080   40.1950 C   0  0  1  0  0  0  0  0  0  0  0  0
   36.6510   30.7420   41.0940 C   0  0  0  0  0  0  0  0  0  0  0  0
   37.3290   29.4530   41.2100 C   0  0  1  0  0  0  0  0  0  0  0  0
   36.4680   29.9140   39.1280 H   0  0  0  0  0  0  0  0  0  0  0  0
   35.9840   31.0310   41.9540 H   0  0  0  0  0  0  0  0  0  0  0  0
   37.2230   31.6190   40.7390 H   0  0  0  0  0  0  0  0  0  0  0  0
   38.3750   29.4170   40.8380 H   0  0  0  0  0  0  0  0  0  0  0  0
   37.0740   28.5290   42.3520 C   0  0  2  0  0  0  0  0  0  0  0  0
   37.9240   28.8240   43.6110 C   0  0  0  0  0  0  0  0  0  0  0  0
   38.2110   27.6240   42.8060 C   0  0  2  0  0  0  0  0  0  0  0  0
   36.0860   28.1660   42.6430 H   0  0  0  0  0  0  0  0  0  0  0  0
   38.6390   29.6880   43.5440 H   0  0  0  0  0  0  0  0  0  0  0  0
   37.4810   28.7480   44.6000 H   0  0  0  0  0  0  0  0  0  0  0  0
   37.9410   26.6350   43.2770 H   0  0  0  0  0  0  0  0  0  0  0  0
   39.5080   27.6480   42.0240 C   0  0  0  0  0  2  0  0  0  0  0  0
   40.6120   28.3960   42.6970 C   0  0  0  0  0  2  0  0  0  0  0  0
   41.5250   27.7610   42.7020 H   0  0  0  0  0  0  0  0  0  0  0  0
  1  2  2  0  0  0  0
  2 22  1  0  0  0  0
  3  8  1  0  0  0  0
  4  3  2  0  0  0  0
  4  5  1  0  0  0  0
  5  6  2  0  0  0  0
  6  7  1  0  0  0  0
  7  1  1  0  0  0  0
  8  7  2  0  0  0  0
  9  3  1  0  0  0  0
 10  4  1  0  0  0  0
 11  5  1  0  0  0  0
 11 16  1  0  0  0  0
 12 11  2  0  0  0  0
 13 12  1  0  0  0  0
 13 14  2  0  0  0  0
 14 15  1  0  0  0  0
 15 16  2  0  0  0  0
 15 20  1  0  0  0  0
 16 21  1  0  0  0  0
 17 12  1  0  0  0  0
 18 13  1  0  0  0  0
 19 14  1  0  0  0  0
 22 24  1  0  0  0  0
 22 23  1  0  0  0  0
 25 28  1  6  0  0  0
 25 22  1  0  0  0  0
 25 26  1  0  0  0  0
 25 27  1  0  0  0  0
 26 27  1  0  0  0  0
 26 29  1  0  0  0  0
 27 31  1  6  0  0  0
 27 32  1  0  0  0  0
 30 26  1  0  0  0  0
 32 35  1  1  0  0  0
 32 34  1  0  0  0  0
 32 33  1  0  0  0  0
 33 37  1  0  0  0  0
 34 38  1  1  0  0  0
 34 33  1  0  0  0  0
 36 33  1  0  0  0  0
 39 40  1  0  0  0  0
 39 34  1  0  0  0  0
 40 41  1  0  0  0  0
M  END
>  <minimizedAffinity>
-5.18465519

$$$$

 OpenBabel03252508193D

 41 44  0  0  1  0  0  0  0  0999 V2000
   38.8230   30.6310   38.3800 C   0  0  0  0  0  3  0  0  0  0  0  0
   37.6640   31.0460   38.6740 C   0  0  0  0  0  3  0  0  0  0  0  0
   40.8870   33.6030   39.0770 C   0  0  0  0  0  0  0  0  0  0  0  0
   42.0740   33.3220   38.4140 C   0  0  0  0  0  0  0  0  0  0  0  0
   42.1310   32.1380   37.7580 C   0  0  0  0  0  0  0  0  0  0  0  0
   41.0640   31.2840   37.7630 N   0  0  0  0  0  0  0  0  0  0  0  0
   39.9280   31.5910   38.4200 C   0  0  0  0  0  0  0  0  0  0  0  0
   39.8710   32.7490   39.0620 N   0  0  0  0  0  0  0  0  0  0  0  0
   40.7920   34.5360   39.6160 H   0  0  0  0  0  0  0  0  0  0  0  0
   42.9070   34.0060   38.4180 H   0  0  0  0  0  0  0  0  0  0  0  0
   43.3090   31.7060   37.0150 C   0  0  0  0  0  0  0  0  0  0  0  0
   44.5510   32.2600   37.1250 C   0  0  0  0  0  0  0  0  0  0  0  0
   45.6580   31.8420   36.4170 C   0  0  0  0  0  0  0  0  0  0  0  0
   45.5430   30.7930   35.5260 C   0  0  0  0  0  0  0  0  0  0  0  0
   44.3230   30.1900   35.3670 C   0  0  0  0  0  0  0  0  0  0  0  0
   43.2450   30.6550   36.1070 C   0  0  0  0  0  0  0  0  0  0  0  0
   44.6760   33.0960   37.8240 H   0  0  0  0  0  0  0  0  0  0  0  0
   46.6110   32.3360   36.5610 H   0  0  0  0  0  0  0  0  0  0  0  0
   46.4260   30.4840   34.9840 H   0  0  0  0  0  0  0  0  0  0  0  0
   44.2240   29.3750   34.6780 H   0  0  0  0  0  0  0  0  0  0  0  0
   42.3070   30.1360   35.9350 H   0  0  0  0  0  0  0  0  0  0  0  0
   36.5790   29.9920   38.7010 C   0  0  0  0  0  0  0  0  0  0  0  0
   36.9410   29.0240   38.4230 H   0  0  0  0  0  0  0  0  0  0  0  0
   35.9080   30.3210   37.8500 H   0  0  0  0  0  0  0  0  0  0  0  0
   35.7370   30.1260   39.9240 C   0  0  1  0  0  0  0  0  0  0  0  0
   34.6190   29.1380   39.9950 C   0  0  0  0  0  0  0  0  0  0  0  0
   35.7280   29.0700   40.9440 C   0  0  1  0  0  0  0  0  0  0  0  0
   35.3170   31.1600   40.0780 H   0  0  0  0  0  0  0  0  0  0  0  0
   34.5520   28.2980   39.2490 H   0  0  0  0  0  0  0  0  0  0  0  0
   33.6110   29.4040   40.3660 H   0  0  0  0  0  0  0  0  0  0  0  0
   35.5010   29.3870   41.9830 H   0  0  0  0  0  0  0  0  0  0  0  0
   36.7690   28.0050   40.8630 C   0  0  2  0  0  0  0  0  0  0  0  0
   36.9240   27.1690   42.1570 C   0  0  0  0  0  0  0  0  0  0  0  0
   37.9820   28.1220   41.7760 C   0  0  2  0  0  0  0  0  0  0  0  0
   36.9420   27.3770   39.9880 H   0  0  0  0  0  0  0  0  0  0  0  0
   36.2530   27.4400   43.0160 H   0  0  0  0  0  0  0  0  0  0  0  0
   37.0830   26.0960   42.0980 H   0  0  0  0  0  0  0  0  0  0  0  0
   38.9530   27.6690   41.4210 H   0  0  0  0  0  0  0  0  0  0  0  0
   38.1100   29.3510   42.6510 C   0  0  0  0  0  2  0  0  0  0  0  0
   39.0620   30.3760   42.1270 C   0  0  0  0  0  2  0  0  0  0  0  0
   38.5610   31.3690   42.1360 H   0  0  0  0  0  0  0  0  0  0  0  0
  1  7  1  0  0  0  0
  1  2  2  0  0  0  0
  2 22  1  0  0  0  0
  3  9  1  0  0  0  0
  4 10  1  0  0  0  0
  4  3  2  0  0  0  0
  5  6  2  0  0  0  0
  5  4  1  0  0  0  0
  6  7  1  0  0  0  0
  7  8  2  0  0  0  0
  8  3  1  0  0  0  0
 11 12  1  0  0  0  0
 11  5  1  0  0  0  0
 12 17  1  0  0  0  0
 13 18  1  0  0  0  0
 13 12  2  0  0  0  0
 14 13  1  0  0  0  0
 15 14  2  0  0  0  0
 15 16  1  0  0  0  0
 16 11  2  0  0  0  0
 19 14  1  0  0  0  0
 20 15  1  0  0  0  0
 21 16  1  0  0  0  0
 22 25  1  0  0  0  0
 23 22  1  0  0  0  0
 24 22  1  0  0  0  0
 25 26  1  0  0  0  0
 25 28  1  1  0  0  0
 25 27  1  0  0  0  0
 26 30  1  0  0  0  0
 26 27  1  0  0  0  0
 27 31  1  1  0  0  0
 29 26  1  0  0  0  0
 32 35  1  6  0  0  0
 32 27  1  0  0  0  0
 32 34  1  0  0  0  0
 32 33  1  0  0  0  0
 33 36  1  0  0  0  0
 34 38  1  6  0  0  0
 34 33  1  0  0  0  0
 34 39  1  0  0  0  0
 37 33  1  0  0  0  0
 40 41  1  0  0  0  0
 40 39  1  0  0  0  0
M  END
>  <minimizedAffinity>
-5.10516167

$$$$

 OpenBabel03252508193D

 41 44  0  0  1  0  0  0  0  0999 V2000
   40.2470   29.8200   41.3780 C   0  0  0  0  0  3  0  0  0  0  0  0
   39.7650   30.8560   41.9210 C   0  0  0  0  0  3  0  0  0  0  0  0
   40.2100   26.9040   43.6320 C   0  0  0  0  0  0  0  0  0  0  0  0
   39.3020   26.0500   43.0220 C   0  0  0  0  0  0  0  0  0  0  0  0
   38.7360   26.4920   41.8730 C   0  0  0  0  0  0  0  0  0  0  0  0
   39.0590   27.7180   41.3630 N   0  0  0  0  0  0  0  0  0  0  0  0
   39.9450   28.5220   41.9830 C   0  0  0  0  0  0  0  0  0  0  0  0
   40.5000   28.0890   43.1080 N   0  0  0  0  0  0  0  0  0  0  0  0
   40.6890   26.5970   44.5510 H   0  0  0  0  0  0  0  0  0  0  0  0
   39.0570   25.0850   43.4370 H   0  0  0  0  0  0  0  0  0  0  0  0
   37.7670   25.7050   41.1200 C   0  0  0  0  0  0  0  0  0  0  0  0
   37.1740   24.5600   41.5630 C   0  0  0  0  0  0  0  0  0  0  0  0
   36.2570   23.8250   40.8400 C   0  0  0  0  0  0  0  0  0  0  0  0
   35.8890   24.2450   39.5780 C   0  0  0  0  0  0  0  0  0  0  0  0
   36.4460   25.3890   39.0710 C   0  0  0  0  0  0  0  0  0  0  0  0
   37.3630   26.0870   39.8450 C   0  0  0  0  0  0  0  0  0  0  0  0
   37.4460   24.1990   42.5620 H   0  0  0  0  0  0  0  0  0  0  0  0
   35.8310   22.9240   41.2640 H   0  0  0  0  0  0  0  0  0  0  0  0
   35.1680   23.6510   39.0320 H   0  0  0  0  0  0  0  0  0  0  0  0
   36.1650   25.7230   38.0910 H   0  0  0  0  0  0  0  0  0  0  0  0
   37.7690   26.9840   39.3870 H   0  0  0  0  0  0  0  0  0  0  0  0
   40.0390   32.1590   41.2030 C   0  0  0  0  0  0  0  0  0  0  0  0
   40.6640   32.0300   40.3440 H   0  0  0  0  0  0  0  0  0  0  0  0
   40.6720   32.7170   41.9580 H   0  0  0  0  0  0  0  0  0  0  0  0
   38.7930   32.9690   41.0760 C   0  0  1  0  0  0  0  0  0  0  0  0
   38.8110   33.9230   39.9270 C   0  0  0  0  0  0  0  0  0  0  0  0
   37.8960   32.7840   39.9290 C   0  0  1  0  0  0  0  0  0  0  0  0
   38.5190   33.5330   42.0120 H   0  0  0  0  0  0  0  0  0  0  0  0
   39.6440   33.8900   39.1710 H   0  0  0  0  0  0  0  0  0  0  0  0
   38.3950   34.9460   39.9960 H   0  0  0  0  0  0  0  0  0  0  0  0
   36.8240   33.0210   40.0960 H   0  0  0  0  0  0  0  0  0  0  0  0
   38.1120   31.6000   39.0500 C   0  0  2  0  0  0  0  0  0  0  0  0
   36.9320   31.2920   38.0960 C   0  0  0  0  0  0  0  0  0  0  0  0
   37.1970   30.3970   39.2360 C   0  0  2  0  0  0  0  0  0  0  0  0
   39.0590   31.3560   38.5650 H   0  0  0  0  0  0  0  0  0  0  0  0
   36.0430   31.9760   38.1580 H   0  0  0  0  0  0  0  0  0  0  0  0
   37.1230   30.9780   37.0740 H   0  0  0  0  0  0  0  0  0  0  0  0
   37.6100   29.3780   38.9790 H   0  0  0  0  0  0  0  0  0  0  0  0
   36.1780   30.4320   40.3550 C   0  0  0  0  0  2  0  0  0  0  0  0
   35.4060   29.1630   40.5160 C   0  0  0  0  0  2  0  0  0  0  0  0
   35.4290   28.8630   41.5870 H   0  0  0  0  0  0  0  0  0  0  0  0
  1  2  2  0  0  0  0
  1  7  1  0  0  0  0
  3  9  1  0  0  0  0
  4 10  1  0  0  0  0
  4  3  2  0  0  0  0
  5  4  1  0  0  0  0
  6  5  2  0  0  0  0
  6  7  1  0  0  0  0
  7  8  2  0  0  0  0
  8  3  1  0  0  0  0
 11 12  1  0  0  0  0
 11  5  1  0  0  0  0
 12 17  1  0  0  0  0
 13 18  1  0  0  0  0
 13 12  2  0  0  0  0
 14 13  1  0  0  0  0
 15 14  2  0  0  0  0
 15 16  1  0  0  0  0
 16 11  2  0  0  0  0
 19 14  1  0  0  0  0
 20 15  1  0  0  0  0
 21 16  1  0  0  0  0
 22  2  1  0  0  0  0
 22 24  1  0  0  0  0
 23 22  1  0  0  0  0
 25 22  1  0  0  0  0
 25 28  1  1  0  0  0
 26 27  1  0  0  0  0
 26 30  1  0  0  0  0
 26 25  1  0  0  0  0
 27 31  1  1  0  0  0
 27 25  1  0  0  0  0
 29 26  1  0  0  0  0
 32 35  1  6  0  0  0
 32 34  1  0  0  0  0
 32 27  1  0  0  0  0
 33 36  1  0  0  0  0
 33 32  1  0  0  0  0
 33 34  1  0  0  0  0
 34 38  1  6  0  0  0
 34 39  1  0  0  0  0
 37 33  1  0  0  0  0
 39 40  1  0  0  0  0
 40 41  1  0  0  0  0
M  END
>  <minimizedAffinity>
-5.08628845

$$$$

 OpenBabel03252508193D

 41 44  0  0  1  0  0  0  0  0999 V2000
   36.1150   28.7640   37.5860 C   0  0  0  0  0  3  0  0  0  0  0  0
   36.2140   29.9030   38.1290 C   0  0  0  0  0  3  0  0  0  0  0  0
   33.2510   26.7660   36.4100 C   0  0  0  0  0  0  0  0  0  0  0  0
   32.3260   27.7320   36.0410 C   0  0  0  0  0  0  0  0  0  0  0  0
   32.7060   29.0230   36.2060 C   0  0  0  0  0  0  0  0  0  0  0  0
   33.9380   29.3300   36.7090 N   0  0  0  0  0  0  0  0  0  0  0  0
   34.8110   28.3630   37.0570 C   0  0  0  0  0  0  0  0  0  0  0  0
   34.4410   27.1000   36.8970 N   0  0  0  0  0  0  0  0  0  0  0  0
   32.9960   25.7210   36.2980 H   0  0  0  0  0  0  0  0  0  0  0  0
   31.3570   27.4750   35.6450 H   0  0  0  0  0  0  0  0  0  0  0  0
   31.8420   30.1460   35.8610 C   0  0  0  0  0  0  0  0  0  0  0  0
   30.9650   30.7500   36.7130 C   0  0  0  0  0  0  0  0  0  0  0  0
   30.1540   31.8130   36.3740 C   0  0  0  0  0  0  0  0  0  0  0  0
   30.2050   32.3300   35.0950 C   0  0  0  0  0  0  0  0  0  0  0  0
   31.0650   31.7710   34.1880 C   0  0  0  0  0  0  0  0  0  0  0  0
   31.8570   30.7020   34.5870 C   0  0  0  0  0  0  0  0  0  0  0  0
   30.9010   30.3630   37.7360 H   0  0  0  0  0  0  0  0  0  0  0  0
   29.4830   32.2380   37.1110 H   0  0  0  0  0  0  0  0  0  0  0  0
   29.5590   33.1650   34.8550 H   0  0  0  0  0  0  0  0  0  0  0  0
   31.1120   32.1660   33.1920 H   0  0  0  0  0  0  0  0  0  0  0  0
   32.5160   30.3040   33.8220 H   0  0  0  0  0  0  0  0  0  0  0  0
   37.6030   30.2960   38.5780 C   0  0  0  0  0  0  0  0  0  0  0  0
   37.6030   31.1720   39.1920 H   0  0  0  0  0  0  0  0  0  0  0  0
   38.0870   30.6090   37.6030 H   0  0  0  0  0  0  0  0  0  0  0  0
   38.3780   29.1010   39.0210 C   0  0  1  0  0  0  0  0  0  0  0  0
   39.8030   29.3990   39.3560 C   0  0  0  0  0  0  0  0  0  0  0  0
   38.8650   28.9980   40.4020 C   0  0  1  0  0  0  0  0  0  0  0  0
   38.3480   28.2420   38.2930 H   0  0  0  0  0  0  0  0  0  0  0  0
   40.1690   30.4620   39.3980 H   0  0  0  0  0  0  0  0  0  0  0  0
   40.6320   28.7170   39.0890 H   0  0  0  0  0  0  0  0  0  0  0  0
   38.9940   27.9720   40.8060 H   0  0  0  0  0  0  0  0  0  0  0  0
   38.3440   29.9690   41.4070 C   0  0  2  0  0  0  0  0  0  0  0  0
   38.5890   29.5540   42.8780 C   0  0  0  0  0  0  0  0  0  0  0  0
   37.2220   29.5100   42.3280 C   0  0  2  0  0  0  0  0  0  0  0  0
   38.4100   31.0540   41.3080 H   0  0  0  0  0  0  0  0  0  0  0  0
   39.1230   28.5800   43.0440 H   0  0  0  0  0  0  0  0  0  0  0  0
   38.8780   30.2980   43.6150 H   0  0  0  0  0  0  0  0  0  0  0  0
   36.5070   30.2920   42.7160 H   0  0  0  0  0  0  0  0  0  0  0  0
   36.6380   28.1290   42.1210 C   0  0  0  0  0  2  0  0  0  0  0  0
   36.5260   27.3200   43.3720 C   0  0  0  0  0  2  0  0  0  0  0  0
   35.4970   26.9020   43.4380 H   0  0  0  0  0  0  0  0  0  0  0  0
  1  2  2  0  0  0  0
  2 22  1  0  0  0  0
  3  8  1  0  0  0  0
  4  5  1  0  0  0  0
  4  3  2  0  0  0  0
  5  6  2  0  0  0  0
  6  7  1  0  0  0  0
  7  1  1  0  0  0  0
  8  7  2  0  0  0  0
  9  3  1  0  0  0  0
 10  4  1  0  0  0  0
 11  5  1  0  0  0  0
 11 12  1  0  0  0  0
 12 17  1  0  0  0  0
 13 12  2  0  0  0  0
 13 18  1  0  0  0  0
 14 13  1  0  0  0  0
 15 16  1  0  0  0  0
 15 14  2  0  0  0  0
 16 11  2  0  0  0  0
 19 14  1  0  0  0  0
 20 15  1  0  0  0  0
 21 16  1  0  0  0  0
 22 25  1  0  0  0  0
 22 23  1  0  0  0  0
 24 22  1  0  0  0  0
 25 28  1  6  0  0  0
 25 26  1  0  0  0  0
 25 27  1  0  0  0  0
 26 29  1  0  0  0  0
 26 27  1  0  0  0  0
 27 31  1  1  0  0  0
 27 32  1  0  0  0  0
 30 26  1  0  0  0  0
 32 35  1  6  0  0  0
 32 34  1  0  0  0  0
 32 33  1  0  0  0  0
 33 36  1  0  0  0  0
 33 37  1  0  0  0  0
 34 38  1  1  0  0  0
 34 33  1  0  0  0  0
 39 34  1  0  0  0  0
 39 40  1  0  0  0  0
 40 41  1  0  0  0  0
M  END
>  <minimizedAffinity>
-5.03586006

$$$$
