
 OpenBabel03242522243D

 22 23  0  0  0  0  0  0  0  0999 V2000
   36.5530   30.8220   39.4990 Cl  0  0  0  0  0  0  0  0  0  0  0  0
   37.2930   30.1400   40.9470 C   0  0  0  0  0  0  0  0  0  0  0  0
   38.4960   30.6350   41.4060 C   0  0  0  0  0  0  0  0  0  0  0  0
   39.0290   30.0730   42.5360 C   0  0  0  0  0  0  0  0  0  0  0  0
   38.3930   29.0440   43.1980 C   0  0  0  0  0  0  0  0  0  0  0  0
   37.1770   28.5850   42.6860 C   0  0  0  0  0  0  0  0  0  0  0  0
   36.3790   27.2790   43.5350 Cl  0  0  0  0  0  0  0  0  0  0  0  0
   36.6040   29.1160   41.5610 C   0  0  0  0  0  0  0  0  0  0  0  0
   39.9850   30.5030   42.8560 H   0  0  0  0  0  0  0  0  0  0  0  0
   38.8530   28.6240   44.0940 H   0  0  0  0  0  0  0  0  0  0  0  0
   35.6620   28.7270   41.2000 H   0  0  0  0  0  0  0  0  0  0  0  0
   39.5330   34.1040   40.2770 C   0  0  0  0  0  0  0  0  0  0  0  0
   38.9470   33.0640   41.0160 C   0  0  0  0  0  0  0  0  0  0  0  0
   39.1000   31.7220   40.6450 C   0  0  0  0  0  0  0  0  0  0  0  0
   39.8420   31.5090   39.5390 N   0  0  0  0  0  0  0  0  0  0  0  0
   40.4060   32.4930   38.8250 C   0  0  0  0  0  0  0  0  0  0  0  0
   40.2490   33.7680   39.1950 N   0  0  0  0  0  0  0  0  0  0  0  0
   39.3980   35.1340   40.5890 H   0  0  0  0  0  0  0  0  0  0  0  0
   38.3650   33.3150   41.8930 H   0  0  0  0  0  0  0  0  0  0  0  0
   41.1980   32.0950   37.6250 C   0  0  0  0  0  2  0  0  0  0  0  0
   42.2320   33.1470   37.2720 C   0  0  0  0  0  2  0  0  0  0  0  0
   42.9940   32.6290   36.6350 H   0  0  0  0  0  0  0  0  0  0  0  0
  1  2  1  0  0  0  0
  2  3  2  0  0  0  0
  2  8  1  0  0  0  0
  3  4  1  0  0  0  0
  4  9  1  0  0  0  0
  4  5  2  0  0  0  0
  5 10  1  0  0  0  0
  6  5  1  0  0  0  0
  6  7  1  0  0  0  0
  8  6  2  0  0  0  0
 11  8  1  0  0  0  0
 12 18  1  0  0  0  0
 12 13  1  0  0  0  0
 13 19  1  0  0  0  0
 14 13  2  0  0  0  0
 14  3  1  0  0  0  0
 15 14  1  0  0  0  0
 16 17  1  0  0  0  0
 16 15  2  0  0  0  0
 17 12  2  0  0  0  0
 20 16  1  0  0  0  0
 21 20  1  0  0  0  0
 22 21  1  0  0  0  0
M  END
>  <minimizedAffinity>
-4.71720028

$$$$

 OpenBabel03242522243D

 22 23  0  0  0  0  0  0  0  0999 V2000
   39.6270   29.8640   38.1240 Cl  0  0  0  0  0  0  0  0  0  0  0  0
   40.1150   31.5010   38.5620 C   0  0  0  0  0  0  0  0  0  0  0  0
   39.5120   32.1390   39.6270 C   0  0  0  0  0  0  0  0  0  0  0  0
   39.9250   33.4090   39.9280 C   0  0  0  0  0  0  0  0  0  0  0  0
   40.9110   34.0390   39.1970 C   0  0  0  0  0  0  0  0  0  0  0  0
   41.4840   33.3430   38.1300 C   0  0  0  0  0  0  0  0  0  0  0  0
   42.7330   34.1520   37.2090 Cl  0  0  0  0  0  0  0  0  0  0  0  0
   41.1050   32.0720   37.7910 C   0  0  0  0  0  0  0  0  0  0  0  0
   39.4140   33.8690   40.7810 H   0  0  0  0  0  0  0  0  0  0  0  0
   41.2100   35.0520   39.4710 H   0  0  0  0  0  0  0  0  0  0  0  0
   41.5760   31.5720   36.9570 H   0  0  0  0  0  0  0  0  0  0  0  0
   36.1390   30.7670   40.6880 C   0  0  0  0  0  0  0  0  0  0  0  0
   37.1260   31.4810   39.9900 C   0  0  0  0  0  0  0  0  0  0  0  0
   38.4790   31.4010   40.3450 C   0  0  0  0  0  0  0  0  0  0  0  0
   38.7560   30.5980   41.3920 N   0  0  0  0  0  0  0  0  0  0  0  0
   37.8230   29.9110   42.0660 C   0  0  0  0  0  0  0  0  0  0  0  0
   36.5360   30.0000   41.7120 N   0  0  0  0  0  0  0  0  0  0  0  0
   35.0990   30.8480   40.3900 H   0  0  0  0  0  0  0  0  0  0  0  0
   36.8250   32.1050   39.1590 H   0  0  0  0  0  0  0  0  0  0  0  0
   38.2880   29.0650   43.2030 C   0  0  0  0  0  2  0  0  0  0  0  0
   37.2280   28.0620   43.6140 C   0  0  0  0  0  2  0  0  0  0  0  0
   37.7660   27.2600   44.1820 H   0  0  0  0  0  0  0  0  0  0  0  0
  1  2  1  0  0  0  0
  2  3  1  0  0  0  0
  3  4  2  0  0  0  0
  3 14  1  0  0  0  0
  4  9  1  0  0  0  0
  5 10  1  0  0  0  0
  5  4  1  0  0  0  0
  6  5  2  0  0  0  0
  7  6  1  0  0  0  0
  8  6  1  0  0  0  0
  8  2  2  0  0  0  0
 11  8  1  0  0  0  0
 12 17  1  0  0  0  0
 13 14  1  0  0  0  0
 13 12  2  0  0  0  0
 14 15  2  0  0  0  0
 15 16  1  0  0  0  0
 16 20  1  0  0  0  0
 17 16  2  0  0  0  0
 18 12  1  0  0  0  0
 19 13  1  0  0  0  0
 20 21  1  0  0  0  0
 21 22  1  0  0  0  0
M  END
>  <minimizedAffinity>
-4.47979593

$$$$

 OpenBabel03242522243D

 22 23  0  0  0  0  0  0  0  0999 V2000
   37.6910   26.5460   39.4650 Cl  0  0  0  0  0  0  0  0  0  0  0  0
   36.2470   27.5230   39.2030 C   0  0  0  0  0  0  0  0  0  0  0  0
   35.8460   28.4320   40.1610 C   0  0  0  0  0  0  0  0  0  0  0  0
   34.7180   29.1680   39.9100 C   0  0  0  0  0  0  0  0  0  0  0  0
   34.0000   29.0120   38.7430 C   0  0  0  0  0  0  0  0  0  0  0  0
   34.4560   28.0760   37.8110 C   0  0  0  0  0  0  0  0  0  0  0  0
   33.5360   27.8870   36.3340 Cl  0  0  0  0  0  0  0  0  0  0  0  0
   35.5770   27.3180   38.0160 C   0  0  0  0  0  0  0  0  0  0  0  0
   34.4440   29.8730   40.7030 H   0  0  0  0  0  0  0  0  0  0  0  0
   33.1070   29.6180   38.5840 H   0  0  0  0  0  0  0  0  0  0  0  0
   35.8910   26.6060   37.2670 H   0  0  0  0  0  0  0  0  0  0  0  0
   37.2430   27.8080   43.6300 C   0  0  0  0  0  0  0  0  0  0  0  0
   36.4530   27.7040   42.4750 C   0  0  0  0  0  0  0  0  0  0  0  0
   36.6620   28.5320   41.3650 C   0  0  0  0  0  0  0  0  0  0  0  0
   37.6660   29.4230   41.4900 N   0  0  0  0  0  0  0  0  0  0  0  0
   38.4280   29.5320   42.5870 C   0  0  0  0  0  0  0  0  0  0  0  0
   38.2140   28.7330   43.6370 N   0  0  0  0  0  0  0  0  0  0  0  0
   37.0590   27.1520   44.4750 H   0  0  0  0  0  0  0  0  0  0  0  0
   35.6650   26.9620   42.4510 H   0  0  0  0  0  0  0  0  0  0  0  0
   39.5000   30.5690   42.5710 C   0  0  0  0  0  2  0  0  0  0  0  0
   39.3360   31.5150   41.3960 C   0  0  0  0  0  2  0  0  0  0  0  0
   39.9170   32.4350   41.6580 H   0  0  0  0  0  0  0  0  0  0  0  0
  2  1  1  0  0  0  0
  2  3  1  0  0  0  0
  3 14  1  0  0  0  0
  4  3  2  0  0  0  0
  4  9  1  0  0  0  0
  5  4  1  0  0  0  0
  6  8  1  0  0  0  0
  6  5  2  0  0  0  0
  7  6  1  0  0  0  0
  8  2  2  0  0  0  0
 10  5  1  0  0  0  0
 11  8  1  0  0  0  0
 12 17  1  0  0  0  0
 12 18  1  0  0  0  0
 13 12  2  0  0  0  0
 14 15  2  0  0  0  0
 14 13  1  0  0  0  0
 15 16  1  0  0  0  0
 16 17  2  0  0  0  0
 19 13  1  0  0  0  0
 20 16  1  0  0  0  0
 21 22  1  0  0  0  0
 21 20  1  0  0  0  0
M  END
>  <minimizedAffinity>
-4.44748735

$$$$

 OpenBabel03242522243D

 22 23  0  0  0  0  0  0  0  0999 V2000
   37.8300   31.2500   37.0110 Cl  0  0  0  0  0  0  0  0  0  0  0  0
   36.6630   30.4250   38.0430 C   0  0  0  0  0  0  0  0  0  0  0  0
   36.6260   30.6950   39.3960 C   0  0  0  0  0  0  0  0  0  0  0  0
   35.7010   30.0290   40.1550 C   0  0  0  0  0  0  0  0  0  0  0  0
   34.8320   29.1160   39.5960 C   0  0  0  0  0  0  0  0  0  0  0  0
   34.9180   28.8840   38.2210 C   0  0  0  0  0  0  0  0  0  0  0  0
   33.8110   27.7220   37.5220 Cl  0  0  0  0  0  0  0  0  0  0  0  0
   35.8250   29.5260   37.4210 C   0  0  0  0  0  0  0  0  0  0  0  0
   35.7150   30.2800   41.2220 H   0  0  0  0  0  0  0  0  0  0  0  0
   34.1110   28.6060   40.2370 H   0  0  0  0  0  0  0  0  0  0  0  0
   35.8550   29.3140   36.3610 H   0  0  0  0  0  0  0  0  0  0  0  0
   38.3100   33.9860   40.2410 C   0  0  0  0  0  0  0  0  0  0  0  0
   37.3850   33.0520   39.7490 C   0  0  0  0  0  0  0  0  0  0  0  0
   37.5800   31.6740   39.9040 C   0  0  0  0  0  0  0  0  0  0  0  0
   38.7080   31.3190   40.5530 N   0  0  0  0  0  0  0  0  0  0  0  0
   39.5980   32.2000   41.0280 C   0  0  0  0  0  0  0  0  0  0  0  0
   39.3950   33.5130   40.8710 N   0  0  0  0  0  0  0  0  0  0  0  0
   38.1320   35.0480   40.1070 H   0  0  0  0  0  0  0  0  0  0  0  0
   36.5030   33.4150   39.2380 H   0  0  0  0  0  0  0  0  0  0  0  0
   40.7970   31.6500   41.7240 C   0  0  0  0  0  2  0  0  0  0  0  0
   40.5070   30.2900   42.3320 C   0  0  0  0  0  2  0  0  0  0  0  0
   41.5040   29.8050   42.4920 H   0  0  0  0  0  0  0  0  0  0  0  0
  1  2  1  0  0  0  0
  2  3  1  0  0  0  0
  3 14  1  0  0  0  0
  3  4  2  0  0  0  0
  4  9  1  0  0  0  0
  5  4  1  0  0  0  0
  5 10  1  0  0  0  0
  6  5  2  0  0  0  0
  7  6  1  0  0  0  0
  8  2  2  0  0  0  0
  8  6  1  0  0  0  0
 11  8  1  0  0  0  0
 12 17  1  0  0  0  0
 13 14  1  0  0  0  0
 13 12  2  0  0  0  0
 14 15  2  0  0  0  0
 15 16  1  0  0  0  0
 16 20  1  0  0  0  0
 17 16  2  0  0  0  0
 18 12  1  0  0  0  0
 19 13  1  0  0  0  0
 20 21  1  0  0  0  0
 21 22  1  0  0  0  0
M  END
>  <minimizedAffinity>
-4.42662716

$$$$

 OpenBabel03242522243D

 22 23  0  0  0  0  0  0  0  0999 V2000
   35.3830   29.7130   40.2280 Cl  0  0  0  0  0  0  0  0  0  0  0  0
   36.8880   30.5290   40.6510 C   0  0  0  0  0  0  0  0  0  0  0  0
   37.8600   29.8590   41.3640 C   0  0  0  0  0  0  0  0  0  0  0  0
   39.0110   30.5370   41.6670 C   0  0  0  0  0  0  0  0  0  0  0  0
   39.2010   31.8460   41.2780 C   0  0  0  0  0  0  0  0  0  0  0  0
   38.1800   32.4720   40.5580 C   0  0  0  0  0  0  0  0  0  0  0  0
   38.4320   34.1340   40.0690 Cl  0  0  0  0  0  0  0  0  0  0  0  0
   37.0130   31.8360   40.2300 C   0  0  0  0  0  0  0  0  0  0  0  0
   39.7490   29.9590   42.2350 H   0  0  0  0  0  0  0  0  0  0  0  0
   40.1330   32.3490   41.5410 H   0  0  0  0  0  0  0  0  0  0  0  0
   36.2510   32.3610   39.6720 H   0  0  0  0  0  0  0  0  0  0  0  0
   36.7080   26.8130   43.3070 C   0  0  0  0  0  0  0  0  0  0  0  0
   36.9760   28.1460   42.9570 C   0  0  0  0  0  0  0  0  0  0  0  0
   37.5770   28.4780   41.7360 C   0  0  0  0  0  0  0  0  0  0  0  0
   37.8750   27.4350   40.9360 N   0  0  0  0  0  0  0  0  0  0  0  0
   37.6240   26.1580   41.2580 C   0  0  0  0  0  0  0  0  0  0  0  0
   37.0490   25.8600   42.4270 N   0  0  0  0  0  0  0  0  0  0  0  0
   36.2400   26.5860   44.2590 H   0  0  0  0  0  0  0  0  0  0  0  0
   36.7070   28.9290   43.6530 H   0  0  0  0  0  0  0  0  0  0  0  0
   38.0140   25.1160   40.2640 C   0  0  0  0  0  2  0  0  0  0  0  0
   38.1660   23.7570   40.9210 C   0  0  0  0  0  2  0  0  0  0  0  0
   38.0870   23.0050   40.0950 H   0  0  0  0  0  0  0  0  0  0  0  0
  1  2  1  0  0  0  0
  2  3  1  0  0  0  0
  3  4  2  0  0  0  0
  3 14  1  0  0  0  0
  4  9  1  0  0  0  0
  5 10  1  0  0  0  0
  5  4  1  0  0  0  0
  6  5  2  0  0  0  0
  7  6  1  0  0  0  0
  8  6  1  0  0  0  0
  8  2  2  0  0  0  0
 11  8  1  0  0  0  0
 12 18  1  0  0  0  0
 13 12  1  0  0  0  0
 13 19  1  0  0  0  0
 14 13  2  0  0  0  0
 15 16  2  0  0  0  0
 15 14  1  0  0  0  0
 16 17  1  0  0  0  0
 17 12  2  0  0  0  0
 20 21  1  0  0  0  0
 20 16  1  0  0  0  0
 22 21  1  0  0  0  0
M  END
>  <minimizedAffinity>
-4.42493343

$$$$

 OpenBabel03242522243D

 22 23  0  0  0  0  0  0  0  0999 V2000
   36.3710   27.7150   43.0620 Cl  0  0  0  0  0  0  0  0  0  0  0  0
   37.4230   28.6950   42.0410 C   0  0  0  0  0  0  0  0  0  0  0  0
   38.6440   28.2000   41.6340 C   0  0  0  0  0  0  0  0  0  0  0  0
   39.4250   28.9990   40.8400 C   0  0  0  0  0  0  0  0  0  0  0  0
   39.0130   30.2580   40.4580 C   0  0  0  0  0  0  0  0  0  0  0  0
   37.7660   30.7040   40.9020 C   0  0  0  0  0  0  0  0  0  0  0  0
   37.2530   32.3040   40.4110 Cl  0  0  0  0  0  0  0  0  0  0  0  0
   36.9500   29.9420   41.6950 C   0  0  0  0  0  0  0  0  0  0  0  0
   40.3840   28.5580   40.5460 H   0  0  0  0  0  0  0  0  0  0  0  0
   39.6660   30.8620   39.8260 H   0  0  0  0  0  0  0  0  0  0  0  0
   35.9930   30.3300   42.0160 H   0  0  0  0  0  0  0  0  0  0  0  0
   40.1750   25.3520   43.6150 C   0  0  0  0  0  0  0  0  0  0  0  0
   39.8360   26.6460   43.1890 C   0  0  0  0  0  0  0  0  0  0  0  0
   39.0020   26.8600   42.0840 C   0  0  0  0  0  0  0  0  0  0  0  0
   38.5580   25.7450   41.4700 N   0  0  0  0  0  0  0  0  0  0  0  0
   38.8740   24.5050   41.8680 C   0  0  0  0  0  0  0  0  0  0  0  0
   39.6710   24.3190   42.9250 N   0  0  0  0  0  0  0  0  0  0  0  0
   40.8230   25.2170   44.4750 H   0  0  0  0  0  0  0  0  0  0  0  0
   40.2330   27.4920   43.7340 H   0  0  0  0  0  0  0  0  0  0  0  0
   38.3020   23.3710   41.0830 C   0  0  0  0  0  2  0  0  0  0  0  0
   36.9130   23.7020   40.5700 C   0  0  0  0  0  2  0  0  0  0  0  0
   36.7230   22.9960   39.7220 H   0  0  0  0  0  0  0  0  0  0  0  0
  2  1  1  0  0  0  0
  3  2  2  0  0  0  0
  3 14  1  0  0  0  0
  4  3  1  0  0  0  0
  5  4  2  0  0  0  0
  5  6  1  0  0  0  0
  6  8  2  0  0  0  0
  7  6  1  0  0  0  0
  8 11  1  0  0  0  0
  8  2  1  0  0  0  0
  9  4  1  0  0  0  0
 10  5  1  0  0  0  0
 12 18  1  0  0  0  0
 13 12  1  0  0  0  0
 13 19  1  0  0  0  0
 14 13  2  0  0  0  0
 15 16  2  0  0  0  0
 15 14  1  0  0  0  0
 16 17  1  0  0  0  0
 17 12  2  0  0  0  0
 20 16  1  0  0  0  0
 21 20  1  0  0  0  0
 22 21  1  0  0  0  0
M  END
>  <minimizedAffinity>
-4.40217161

$$$$

 OpenBabel03242522243D

 22 23  0  0  0  0  0  0  0  0999 V2000
   39.3170   28.2810   39.3490 Cl  0  0  0  0  0  0  0  0  0  0  0  0
   38.4870   27.9000   40.8560 C   0  0  0  0  0  0  0  0  0  0  0  0
   38.3890   28.8520   41.8500 C   0  0  0  0  0  0  0  0  0  0  0  0
   37.7330   28.5080   43.0020 C   0  0  0  0  0  0  0  0  0  0  0  0
   37.1860   27.2540   43.1730 C   0  0  0  0  0  0  0  0  0  0  0  0
   37.3170   26.3320   42.1320 C   0  0  0  0  0  0  0  0  0  0  0  0
   36.6190   24.7430   42.3600 Cl  0  0  0  0  0  0  0  0  0  0  0  0
   37.9630   26.6300   40.9610 C   0  0  0  0  0  0  0  0  0  0  0  0
   37.6850   29.3000   43.7580 H   0  0  0  0  0  0  0  0  0  0  0  0
   36.6730   27.0210   44.1080 H   0  0  0  0  0  0  0  0  0  0  0  0
   38.0400   25.8840   40.1830 H   0  0  0  0  0  0  0  0  0  0  0  0
   40.8970   31.6920   41.6810 C   0  0  0  0  0  0  0  0  0  0  0  0
   40.3220   30.4370   41.9380 C   0  0  0  0  0  0  0  0  0  0  0  0
   38.9960   30.1520   41.5870 C   0  0  0  0  0  0  0  0  0  0  0  0
   38.3250   31.1590   40.9930 N   0  0  0  0  0  0  0  0  0  0  0  0
   38.8640   32.3610   40.7420 C   0  0  0  0  0  0  0  0  0  0  0  0
   40.1310   32.6150   41.0830 N   0  0  0  0  0  0  0  0  0  0  0  0
   41.9270   31.8840   41.9630 H   0  0  0  0  0  0  0  0  0  0  0  0
   40.9250   29.6780   42.4190 H   0  0  0  0  0  0  0  0  0  0  0  0
   37.9910   33.3720   40.0770 C   0  0  0  0  0  2  0  0  0  0  0  0
   37.1500   32.7420   38.9840 C   0  0  0  0  0  2  0  0  0  0  0  0
   36.2970   33.4460   38.8060 H   0  0  0  0  0  0  0  0  0  0  0  0
  1  2  1  0  0  0  0
  2  8  2  0  0  0  0
  2  3  1  0  0  0  0
  3  4  2  0  0  0  0
  4  5  1  0  0  0  0
  4  9  1  0  0  0  0
  5 10  1  0  0  0  0
  6  7  1  0  0  0  0
  6  5  2  0  0  0  0
  8  6  1  0  0  0  0
 11  8  1  0  0  0  0
 12 13  1  0  0  0  0
 12 18  1  0  0  0  0
 13 19  1  0  0  0  0
 14  3  1  0  0  0  0
 14 13  2  0  0  0  0
 15 14  1  0  0  0  0
 16 15  2  0  0  0  0
 16 17  1  0  0  0  0
 17 12  2  0  0  0  0
 20 16  1  0  0  0  0
 21 20  1  0  0  0  0
 22 21  1  0  0  0  0
M  END
>  <minimizedAffinity>
-4.401052

$$$$

 OpenBabel03242522243D

 22 23  0  0  0  0  0  0  0  0999 V2000
   39.3950   27.5420   39.2920 Cl  0  0  0  0  0  0  0  0  0  0  0  0
   39.6770   27.2500   41.0080 C   0  0  0  0  0  0  0  0  0  0  0  0
   38.8580   27.8340   41.9520 C   0  0  0  0  0  0  0  0  0  0  0  0
   39.1180   27.5760   43.2720 C   0  0  0  0  0  0  0  0  0  0  0  0
   40.1620   26.7610   43.6540 C   0  0  0  0  0  0  0  0  0  0  0  0
   40.9580   26.1980   42.6530 C   0  0  0  0  0  0  0  0  0  0  0  0
   42.2810   25.1650   43.1510 Cl  0  0  0  0  0  0  0  0  0  0  0  0
   40.7370   26.4260   41.3210 C   0  0  0  0  0  0  0  0  0  0  0  0
   38.4380   28.0650   43.9780 H   0  0  0  0  0  0  0  0  0  0  0  0
   40.3350   26.5820   44.7170 H   0  0  0  0  0  0  0  0  0  0  0  0
   41.3790   25.9690   40.5820 H   0  0  0  0  0  0  0  0  0  0  0  0
   35.4440   29.0220   40.8040 C   0  0  0  0  0  0  0  0  0  0  0  0
   36.4770   28.1970   41.2780 C   0  0  0  0  0  0  0  0  0  0  0  0
   37.7780   28.6820   41.4600 C   0  0  0  0  0  0  0  0  0  0  0  0
   37.9600   29.9820   41.1490 N   0  0  0  0  0  0  0  0  0  0  0  0
   36.9830   30.7790   40.6960 C   0  0  0  0  0  0  0  0  0  0  0  0
   35.7460   30.2980   40.5290 N   0  0  0  0  0  0  0  0  0  0  0  0
   34.4450   28.6180   40.6740 H   0  0  0  0  0  0  0  0  0  0  0  0
   36.2530   27.1640   41.5060 H   0  0  0  0  0  0  0  0  0  0  0  0
   37.3430   32.1950   40.3960 C   0  0  0  0  0  2  0  0  0  0  0  0
   37.2900   32.4740   38.9050 C   0  0  0  0  0  2  0  0  0  0  0  0
   37.2030   33.5850   38.8030 H   0  0  0  0  0  0  0  0  0  0  0  0
  1  2  1  0  0  0  0
  2  8  2  0  0  0  0
  2  3  1  0  0  0  0
  3  4  2  0  0  0  0
  4  5  1  0  0  0  0
  4  9  1  0  0  0  0
  5 10  1  0  0  0  0
  6  7  1  0  0  0  0
  6  5  2  0  0  0  0
  8  6  1  0  0  0  0
 11  8  1  0  0  0  0
 12 13  1  0  0  0  0
 13 14  2  0  0  0  0
 13 19  1  0  0  0  0
 14  3  1  0  0  0  0
 15 14  1  0  0  0  0
 16 15  2  0  0  0  0
 17 16  1  0  0  0  0
 17 12  2  0  0  0  0
 18 12  1  0  0  0  0
 20 16  1  0  0  0  0
 21 20  1  0  0  0  0
 22 21  1  0  0  0  0
M  END
>  <minimizedAffinity>
-4.38374472

$$$$

 OpenBabel03242522243D

 22 23  0  0  0  0  0  0  0  0999 V2000
   38.4010   28.8010   38.7080 Cl  0  0  0  0  0  0  0  0  0  0  0  0
   37.8670   28.4210   40.3440 C   0  0  0  0  0  0  0  0  0  0  0  0
   37.7110   29.4310   41.2710 C   0  0  0  0  0  0  0  0  0  0  0  0
   37.2930   29.0840   42.5290 C   0  0  0  0  0  0  0  0  0  0  0  0
   37.0350   27.7730   42.8670 C   0  0  0  0  0  0  0  0  0  0  0  0
   37.2110   26.7940   41.8860 C   0  0  0  0  0  0  0  0  0  0  0  0
   36.8810   25.1330   42.3270 Cl  0  0  0  0  0  0  0  0  0  0  0  0
   37.6260   27.0910   40.6160 C   0  0  0  0  0  0  0  0  0  0  0  0
   37.1860   29.9240   43.2260 H   0  0  0  0  0  0  0  0  0  0  0  0
   36.7050   27.5400   43.8810 H   0  0  0  0  0  0  0  0  0  0  0  0
   37.7490   26.3000   39.8890 H   0  0  0  0  0  0  0  0  0  0  0  0
   37.3130   32.9340   39.8760 C   0  0  0  0  0  0  0  0  0  0  0  0
   37.0190   31.6280   40.2990 C   0  0  0  0  0  0  0  0  0  0  0  0
   38.0060   30.7890   40.8300 C   0  0  0  0  0  0  0  0  0  0  0  0
   39.2420   31.3230   40.9030 N   0  0  0  0  0  0  0  0  0  0  0  0
   39.5350   32.5680   40.5030 C   0  0  0  0  0  0  0  0  0  0  0  0
   38.5800   33.3560   39.9990 N   0  0  0  0  0  0  0  0  0  0  0  0
   36.5280   33.5620   39.4690 H   0  0  0  0  0  0  0  0  0  0  0  0
   36.0020   31.2700   40.2080 H   0  0  0  0  0  0  0  0  0  0  0  0
   40.9520   33.0140   40.6490 C   0  0  0  0  0  2  0  0  0  0  0  0
   41.2950   34.0970   39.6440 C   0  0  0  0  0  2  0  0  0  0  0  0
   42.2020   34.6160   40.0470 H   0  0  0  0  0  0  0  0  0  0  0  0
  1  2  1  0  0  0  0
  2  8  2  0  0  0  0
  2  3  1  0  0  0  0
  3  4  2  0  0  0  0
  4  5  1  0  0  0  0
  4  9  1  0  0  0  0
  5 10  1  0  0  0  0
  6  7  1  0  0  0  0
  6  5  2  0  0  0  0
  8  6  1  0  0  0  0
 11  8  1  0  0  0  0
 12 17  2  0  0  0  0
 12 13  1  0  0  0  0
 13 14  2  0  0  0  0
 14 15  1  0  0  0  0
 14  3  1  0  0  0  0
 16 20  1  0  0  0  0
 16 15  2  0  0  0  0
 17 16  1  0  0  0  0
 18 12  1  0  0  0  0
 19 13  1  0  0  0  0
 21 22  1  0  0  0  0
 21 20  1  0  0  0  0
M  END
>  <minimizedAffinity>
-4.38142109

$$$$
