
 OpenBabel03252503023D

 27 27  0  0  0  0  0  0  0  0999 V2000
   43.5350   35.5490   41.6810 C   0  0  0  0  0  0  0  0  0  0  0  0
   44.5900   35.7150   41.4320 H   0  0  0  0  0  0  0  0  0  0  0  0
   42.8690   36.2710   41.1580 H   0  0  0  0  0  0  0  0  0  0  0  0
   43.3150   35.6800   43.1180 N   0  0  0  0  0  0  0  0  0  0  0  0
   42.6490   36.4830   43.3280 H   0  0  0  0  0  0  0  0  0  0  0  0
   44.7600   35.9330   43.9970 S   0  0  0  0  0  0  0  0  0  0  0  0
   45.9450   35.3810   43.2840 O   0  0  0  0  0  0  0  0  0  0  0  0
   46.5660   35.8550   42.6860 H   0  0  0  0  0  0  0  0  0  0  0  0
   44.9070   37.4300   44.1370 O   0  0  0  0  0  0  0  0  0  0  0  0
   45.6580   37.9110   43.6980 H   0  0  0  0  0  0  0  0  0  0  0  0
   44.6110   35.3030   45.5380 O   0  0  0  0  0  0  0  0  0  0  0  0
   45.3400   34.1460   45.6910 C   0  0  0  0  0  0  0  0  0  0  0  0
   46.2430   34.1750   45.0300 H   0  0  0  0  0  0  0  0  0  0  0  0
   45.6570   33.9430   46.7170 H   0  0  0  0  0  0  0  0  0  0  0  0
   44.7650   33.2450   45.3280 H   0  0  0  0  0  0  0  0  0  0  0  0
   43.0840   33.8780   41.2330 S   0  0  0  0  0  0  0  0  0  0  0  0
   40.4750   34.5190   40.5650 C   0  0  0  0  0  0  0  0  0  0  0  0
   41.6330   33.8990   40.1490 C   0  0  0  0  0  0  0  0  0  0  0  0
   41.7330   33.2780   38.9080 C   0  0  0  0  0  0  0  0  0  0  0  0
   40.6240   33.3130   38.1220 N   0  0  0  0  0  0  0  0  0  0  0  0
   39.5030   33.9240   38.5440 C   0  0  0  0  0  0  0  0  0  0  0  0
   39.4080   34.5110   39.7170 N   0  0  0  0  0  0  0  0  0  0  0  0
   40.4330   34.9930   41.5370 H   0  0  0  0  0  0  0  0  0  0  0  0
   42.6540   32.7830   38.5740 H   0  0  0  0  0  0  0  0  0  0  0  0
   38.3720   33.8810   37.5750 C   0  0  0  0  0  0  0  0  0  0  0  0
   38.0960   32.4680   37.0980 C   0  0  0  0  0  0  0  0  0  0  0  0
   38.6750   32.1960   36.1910 H   0  0  0  0  0  0  0  0  0  0  0  0
  1  4  1  0  0  0  0
  2  1  1  0  0  0  0
  3  1  1  0  0  0  0
  4  5  1  0  0  0  0
  4  6  1  0  0  0  0
  6  9  1  0  0  0  0
  6 11  1  0  0  0  0
  7  6  1  0  0  0  0
  8  7  1  0  0  0  0
 10  9  1  0  0  0  0
 11 12  1  0  0  0  0
 12 14  1  0  0  0  0
 13 12  1  0  0  0  0
 15 12  1  0  0  0  0
 16  1  1  0  0  0  0
 17 23  1  0  0  0  0
 18 17  1  0  0  0  0
 18 16  1  0  0  0  0
 19 18  2  0  0  0  0
 20 21  2  0  0  0  0
 20 19  1  0  0  0  0
 21 22  1  0  0  0  0
 22 17  2  0  0  0  0
 24 19  1  0  0  0  0
 25 21  1  0  0  0  0
 26 25  1  0  0  0  0
 27 26  1  0  0  0  0
M  END
>  <minimizedAffinity>
-4.75517893

>  <minimizedRMSD>
1.26596248

$$$$
