
 OpenBabel03242518333D

 22 23  0  0  0  0  0  0  0  0999 V2000
   37.0720   31.2850   38.7810 C   0  0  0  0  0  0  0  0  0  0  0  0
   36.8370   30.6870   37.7180 O   0  0  0  0  0  0  0  0  0  0  0  0
   38.1490   32.1760   39.0780 C   0  0  0  0  0  0  0  0  0  0  0  0
   37.7770   33.2370   39.9020 C   0  0  0  0  0  0  0  0  0  0  0  0
   38.7730   34.1550   40.2420 C   0  0  0  0  0  0  0  0  0  0  0  0
   40.0360   33.9700   39.7550 N   0  0  0  0  0  0  0  0  0  0  0  0
   40.3350   32.9190   38.9580 C   0  0  0  0  0  0  0  0  0  0  0  0
   39.3890   32.0080   38.6100 N   0  0  0  0  0  0  0  0  0  0  0  0
   36.7880   33.3960   40.2920 H   0  0  0  0  0  0  0  0  0  0  0  0
   38.5530   35.0020   40.8790 H   0  0  0  0  0  0  0  0  0  0  0  0
   41.3590   32.8170   38.5960 H   0  0  0  0  0  0  0  0  0  0  0  0
   36.1710   31.0650   39.8350 O   0  0  0  0  0  0  0  0  0  0  0  0
   36.3580   29.9920   40.7160 C   0  0  0  0  0  0  0  0  0  0  0  0
   35.8020   28.7370   40.7530 C   0  0  0  0  0  0  0  0  0  0  0  0
   36.3210   28.0390   41.8360 C   0  0  0  0  0  0  0  0  0  0  0  0
   37.1880   28.9360   42.4110 C   0  0  0  0  0  0  0  0  0  0  0  0
   37.2000   30.0670   41.7530 O   0  0  0  0  0  0  0  0  0  0  0  0
   35.0760   28.4000   40.0230 H   0  0  0  0  0  0  0  0  0  0  0  0
   36.0530   27.0180   42.1020 H   0  0  0  0  0  0  0  0  0  0  0  0
   37.9910   28.6280   43.6280 C   0  0  0  0  0  2  0  0  0  0  0  0
   38.6730   27.2900   43.5180 C   0  0  0  0  0  2  0  0  0  0  0  0
   39.4910   27.2740   44.2680 H   0  0  0  0  0  0  0  0  0  0  0  0
  1  3  1  0  0  0  0
  1 12  1  0  0  0  0
  2  1  2  0  0  0  0
  3  4  1  0  0  0  0
  4  5  2  0  0  0  0
  4  9  1  0  0  0  0
  5 10  1  0  0  0  0
  6  5  1  0  0  0  0
  7  6  2  0  0  0  0
  8  7  1  0  0  0  0
  8  3  2  0  0  0  0
 11  7  1  0  0  0  0
 12 13  1  0  0  0  0
 13 14  2  0  0  0  0
 13 17  1  0  0  0  0
 14 15  1  0  0  0  0
 15 19  1  0  0  0  0
 15 16  2  0  0  0  0
 16 20  1  0  0  0  0
 17 16  1  0  0  0  0
 18 14  1  0  0  0  0
 21 20  1  0  0  0  0
 21 22  1  0  0  0  0
M  END
>  <minimizedAffinity>
-4.50995636

$$$$

 OpenBabel03242518333D

 22 23  0  0  0  0  0  0  0  0999 V2000
   35.7700   29.7670   40.4130 C   0  0  0  0  0  0  0  0  0  0  0  0
   34.7200   29.1030   40.4220 O   0  0  0  0  0  0  0  0  0  0  0  0
   36.4300   30.3650   39.2960 C   0  0  0  0  0  0  0  0  0  0  0  0
   36.9120   31.6460   39.5610 C   0  0  0  0  0  0  0  0  0  0  0  0
   37.5730   32.3010   38.5200 C   0  0  0  0  0  0  0  0  0  0  0  0
   37.7100   31.6650   37.3180 N   0  0  0  0  0  0  0  0  0  0  0  0
   37.2190   30.4200   37.1240 C   0  0  0  0  0  0  0  0  0  0  0  0
   36.5710   29.7550   38.1160 N   0  0  0  0  0  0  0  0  0  0  0  0
   36.8120   32.1600   40.5000 H   0  0  0  0  0  0  0  0  0  0  0  0
   37.9730   33.2980   38.6560 H   0  0  0  0  0  0  0  0  0  0  0  0
   37.3540   29.9560   36.1460 H   0  0  0  0  0  0  0  0  0  0  0  0
   36.3970   29.9630   41.6530 O   0  0  0  0  0  0  0  0  0  0  0  0
   37.1630   28.9420   42.2300 C   0  0  0  0  0  0  0  0  0  0  0  0
   38.0280   28.9450   43.2960 C   0  0  0  0  0  0  0  0  0  0  0  0
   38.5430   27.6670   43.4710 C   0  0  0  0  0  0  0  0  0  0  0  0
   37.9440   26.9400   42.4720 C   0  0  0  0  0  0  0  0  0  0  0  0
   37.1450   27.6910   41.7570 O   0  0  0  0  0  0  0  0  0  0  0  0
   38.2370   29.8370   43.8740 H   0  0  0  0  0  0  0  0  0  0  0  0
   39.2540   27.3850   44.2460 H   0  0  0  0  0  0  0  0  0  0  0  0
   38.1950   25.4860   42.2580 C   0  0  0  0  0  2  0  0  0  0  0  0
   36.9120   24.7270   42.0520 C   0  0  0  0  0  2  0  0  0  0  0  0
   37.1740   23.7580   41.5770 H   0  0  0  0  0  0  0  0  0  0  0  0
  1  2  2  0  0  0  0
  1 12  1  0  0  0  0
  3  4  1  0  0  0  0
  3  1  1  0  0  0  0
  4  9  1  0  0  0  0
  5 10  1  0  0  0  0
  5  4  2  0  0  0  0
  6  5  1  0  0  0  0
  7  6  2  0  0  0  0
  7  8  1  0  0  0  0
  8  3  2  0  0  0  0
 11  7  1  0  0  0  0
 12 13  1  0  0  0  0
 13 14  2  0  0  0  0
 14 15  1  0  0  0  0
 14 18  1  0  0  0  0
 15 19  1  0  0  0  0
 16 15  2  0  0  0  0
 17 13  1  0  0  0  0
 17 16  1  0  0  0  0
 20 16  1  0  0  0  0
 21 20  1  0  0  0  0
 22 21  1  0  0  0  0
M  END
>  <minimizedAffinity>
-4.5024395

$$$$

 OpenBabel03242518333D

 22 23  0  0  0  0  0  0  0  0999 V2000
   36.9480   30.6680   40.4820 C   0  0  0  0  0  0  0  0  0  0  0  0
   36.3900   30.1530   39.4980 O   0  0  0  0  0  0  0  0  0  0  0  0
   37.9420   31.6940   40.5000 C   0  0  0  0  0  0  0  0  0  0  0  0
   37.4740   32.9250   40.0420 C   0  0  0  0  0  0  0  0  0  0  0  0
   38.3840   33.9840   40.0290 C   0  0  0  0  0  0  0  0  0  0  0  0
   39.6630   33.7620   40.4570 N   0  0  0  0  0  0  0  0  0  0  0  0
   40.0570   32.5430   40.8900 C   0  0  0  0  0  0  0  0  0  0  0  0
   39.1960   31.4920   40.9160 N   0  0  0  0  0  0  0  0  0  0  0  0
   36.4710   33.1150   39.7030 H   0  0  0  0  0  0  0  0  0  0  0  0
   38.0870   34.9670   39.6860 H   0  0  0  0  0  0  0  0  0  0  0  0
   41.0890   32.4180   41.2200 H   0  0  0  0  0  0  0  0  0  0  0  0
   36.5600   30.1890   41.7430 O   0  0  0  0  0  0  0  0  0  0  0  0
   37.0770   28.9830   42.2340 C   0  0  0  0  0  0  0  0  0  0  0  0
   38.0400   28.7240   43.1780 C   0  0  0  0  0  0  0  0  0  0  0  0
   38.1930   27.3490   43.3080 C   0  0  0  0  0  0  0  0  0  0  0  0
   37.2880   26.8380   42.4110 C   0  0  0  0  0  0  0  0  0  0  0  0
   36.6460   27.7970   41.7920 O   0  0  0  0  0  0  0  0  0  0  0  0
   38.5650   29.5110   43.7050 H   0  0  0  0  0  0  0  0  0  0  0  0
   38.8910   26.8650   43.9890 H   0  0  0  0  0  0  0  0  0  0  0  0
   37.0900   25.3770   42.1940 C   0  0  0  0  0  2  0  0  0  0  0  0
   38.3870   24.6210   42.3040 C   0  0  0  0  0  2  0  0  0  0  0  0
   38.1330   23.5520   42.4680 H   0  0  0  0  0  0  0  0  0  0  0  0
  1  3  1  0  0  0  0
  1 12  1  0  0  0  0
  2  1  2  0  0  0  0
  3  8  1  0  0  0  0
  4  3  2  0  0  0  0
  5  4  1  0  0  0  0
  5  6  2  0  0  0  0
  6  7  1  0  0  0  0
  7  8  2  0  0  0  0
  7 11  1  0  0  0  0
  9  4  1  0  0  0  0
 10  5  1  0  0  0  0
 12 13  1  0  0  0  0
 13 14  2  0  0  0  0
 14 15  1  0  0  0  0
 14 18  1  0  0  0  0
 15 19  1  0  0  0  0
 16 15  2  0  0  0  0
 17 13  1  0  0  0  0
 17 16  1  0  0  0  0
 20 21  1  0  0  0  0
 20 16  1  0  0  0  0
 21 22  1  0  0  0  0
M  END
>  <minimizedAffinity>
-4.45555162

$$$$

 OpenBabel03242518333D

 22 23  0  0  0  0  0  0  0  0999 V2000
   38.0420   27.1050   42.8100 C   0  0  0  0  0  0  0  0  0  0  0  0
   38.9180   27.5510   43.5690 O   0  0  0  0  0  0  0  0  0  0  0  0
   38.1240   25.9920   41.9180 C   0  0  0  0  0  0  0  0  0  0  0  0
   37.1060   25.0580   42.1050 C   0  0  0  0  0  0  0  0  0  0  0  0
   37.1130   23.9380   41.2710 C   0  0  0  0  0  0  0  0  0  0  0  0
   38.1010   23.8170   40.3340 N   0  0  0  0  0  0  0  0  0  0  0  0
   39.0620   24.7590   40.2030 C   0  0  0  0  0  0  0  0  0  0  0  0
   39.0840   25.8610   40.9980 N   0  0  0  0  0  0  0  0  0  0  0  0
   36.3230   25.1390   42.8380 H   0  0  0  0  0  0  0  0  0  0  0  0
   36.3520   23.1730   41.3610 H   0  0  0  0  0  0  0  0  0  0  0  0
   39.8290   24.6150   39.4390 H   0  0  0  0  0  0  0  0  0  0  0  0
   36.8060   27.7720   42.8210 O   0  0  0  0  0  0  0  0  0  0  0  0
   36.5170   28.7460   41.8580 C   0  0  0  0  0  0  0  0  0  0  0  0
   35.6070   28.7670   40.8300 C   0  0  0  0  0  0  0  0  0  0  0  0
   35.7110   29.9750   40.1520 C   0  0  0  0  0  0  0  0  0  0  0  0
   36.7070   30.6370   40.8270 C   0  0  0  0  0  0  0  0  0  0  0  0
   37.1680   29.9140   41.8150 O   0  0  0  0  0  0  0  0  0  0  0  0
   34.9370   27.9400   40.6270 H   0  0  0  0  0  0  0  0  0  0  0  0
   35.1060   30.2580   39.2920 H   0  0  0  0  0  0  0  0  0  0  0  0
   37.1780   32.0010   40.4530 C   0  0  0  0  0  2  0  0  0  0  0  0
   37.1780   32.1980   38.9610 C   0  0  0  0  0  2  0  0  0  0  0  0
   37.2060   33.2920   38.7720 H   0  0  0  0  0  0  0  0  0  0  0  0
  1 12  1  0  0  0  0
  1  2  2  0  0  0  0
  3  4  1  0  0  0  0
  3  1  1  0  0  0  0
  4  9  1  0  0  0  0
  5 10  1  0  0  0  0
  5  4  2  0  0  0  0
  6  5  1  0  0  0  0
  7  6  2  0  0  0  0
  7  8  1  0  0  0  0
  8  3  2  0  0  0  0
 11  7  1  0  0  0  0
 13 12  1  0  0  0  0
 14 13  2  0  0  0  0
 15 16  2  0  0  0  0
 15 14  1  0  0  0  0
 16 17  1  0  0  0  0
 17 13  1  0  0  0  0
 18 14  1  0  0  0  0
 19 15  1  0  0  0  0
 20 16  1  0  0  0  0
 21 20  1  0  0  0  0
 22 21  1  0  0  0  0
M  END
>  <minimizedAffinity>
-4.32023096

$$$$

 OpenBabel03242518333D

 22 23  0  0  0  0  0  0  0  0999 V2000
   37.3270   27.8880   42.5520 C   0  0  0  0  0  0  0  0  0  0  0  0
   36.2830   27.9430   41.8810 O   0  0  0  0  0  0  0  0  0  0  0  0
   38.1680   26.7580   42.7920 C   0  0  0  0  0  0  0  0  0  0  0  0
   37.7030   25.5880   42.1940 C   0  0  0  0  0  0  0  0  0  0  0  0
   38.4690   24.4350   42.3790 C   0  0  0  0  0  0  0  0  0  0  0  0
   39.6110   24.5120   43.1240 N   0  0  0  0  0  0  0  0  0  0  0  0
   40.0090   25.6790   43.6800 C   0  0  0  0  0  0  0  0  0  0  0  0
   39.2870   26.8190   43.5180 N   0  0  0  0  0  0  0  0  0  0  0  0
   36.8060   25.5110   41.6050 H   0  0  0  0  0  0  0  0  0  0  0  0
   38.1660   23.4910   41.9420 H   0  0  0  0  0  0  0  0  0  0  0  0
   40.9290   25.6880   44.2660 H   0  0  0  0  0  0  0  0  0  0  0  0
   37.7450   29.0830   43.1590 O   0  0  0  0  0  0  0  0  0  0  0  0
   38.4450   30.0470   42.4220 C   0  0  0  0  0  0  0  0  0  0  0  0
   39.6760   30.6230   42.6150 C   0  0  0  0  0  0  0  0  0  0  0  0
   39.9200   31.5330   41.5940 C   0  0  0  0  0  0  0  0  0  0  0  0
   38.7910   31.4530   40.8160 C   0  0  0  0  0  0  0  0  0  0  0  0
   37.9410   30.5880   41.3070 O   0  0  0  0  0  0  0  0  0  0  0  0
   40.3130   30.3690   43.4540 H   0  0  0  0  0  0  0  0  0  0  0  0
   40.8240   32.1320   41.5000 H   0  0  0  0  0  0  0  0  0  0  0  0
   38.5930   32.2640   39.5810 C   0  0  0  0  0  2  0  0  0  0  0  0
   37.4720   33.2560   39.7440 C   0  0  0  0  0  2  0  0  0  0  0  0
   37.5950   34.0260   38.9540 H   0  0  0  0  0  0  0  0  0  0  0  0
  1  3  1  0  0  0  0
  1 12  1  0  0  0  0
  2  1  2  0  0  0  0
  3  8  1  0  0  0  0
  4  5  1  0  0  0  0
  4  3  2  0  0  0  0
  5  6  2  0  0  0  0
  6  7  1  0  0  0  0
  7 11  1  0  0  0  0
  8  7  2  0  0  0  0
  9  4  1  0  0  0  0
 10  5  1  0  0  0  0
 13 14  2  0  0  0  0
 13 12  1  0  0  0  0
 14 18  1  0  0  0  0
 15 14  1  0  0  0  0
 16 17  1  0  0  0  0
 16 15  2  0  0  0  0
 17 13  1  0  0  0  0
 19 15  1  0  0  0  0
 20 21  1  0  0  0  0
 20 16  1  0  0  0  0
 22 21  1  0  0  0  0
M  END
>  <minimizedAffinity>
-4.29804659

$$$$

 OpenBabel03242518333D

 22 23  0  0  0  0  0  0  0  0999 V2000
   39.6540   30.0380   41.2530 C   0  0  0  0  0  0  0  0  0  0  0  0
   40.4860   29.3510   40.6370 O   0  0  0  0  0  0  0  0  0  0  0  0
   38.9480   31.1940   40.7980 C   0  0  0  0  0  0  0  0  0  0  0  0
   37.7700   30.8880   40.1180 C   0  0  0  0  0  0  0  0  0  0  0  0
   37.0170   31.9640   39.6400 C   0  0  0  0  0  0  0  0  0  0  0  0
   37.4680   33.2350   39.8590 N   0  0  0  0  0  0  0  0  0  0  0  0
   38.6210   33.4660   40.5280 C   0  0  0  0  0  0  0  0  0  0  0  0
   39.3750   32.4420   41.0060 N   0  0  0  0  0  0  0  0  0  0  0  0
   37.4030   29.8940   39.9370 H   0  0  0  0  0  0  0  0  0  0  0  0
   36.0920   31.7990   39.1030 H   0  0  0  0  0  0  0  0  0  0  0  0
   38.9370   34.5000   40.6760 H   0  0  0  0  0  0  0  0  0  0  0  0
   39.3610   29.6360   42.5660 O   0  0  0  0  0  0  0  0  0  0  0  0
   38.4020   28.6450   42.8080 C   0  0  0  0  0  0  0  0  0  0  0  0
   37.3410   28.5980   43.6790 C   0  0  0  0  0  0  0  0  0  0  0  0
   36.6850   27.3810   43.5350 C   0  0  0  0  0  0  0  0  0  0  0  0
   37.4050   26.7420   42.5560 C   0  0  0  0  0  0  0  0  0  0  0  0
   38.4000   27.4850   42.1420 O   0  0  0  0  0  0  0  0  0  0  0  0
   37.1030   29.4130   44.3510 H   0  0  0  0  0  0  0  0  0  0  0  0
   35.8080   27.0790   44.1040 H   0  0  0  0  0  0  0  0  0  0  0  0
   37.0700   25.3780   42.0560 C   0  0  0  0  0  2  0  0  0  0  0  0
   38.2420   24.4410   42.1770 C   0  0  0  0  0  2  0  0  0  0  0  0
   37.8440   23.4060   42.1140 H   0  0  0  0  0  0  0  0  0  0  0  0
  1 12  1  0  0  0  0
  2  1  2  0  0  0  0
  3  8  1  0  0  0  0
  3  1  1  0  0  0  0
  4  3  2  0  0  0  0
  5  6  2  0  0  0  0
  5  4  1  0  0  0  0
  6  7  1  0  0  0  0
  7 11  1  0  0  0  0
  7  8  2  0  0  0  0
  9  4  1  0  0  0  0
 10  5  1  0  0  0  0
 12 13  1  0  0  0  0
 13 14  2  0  0  0  0
 14 18  1  0  0  0  0
 15 14  1  0  0  0  0
 15 19  1  0  0  0  0
 16 15  2  0  0  0  0
 17 16  1  0  0  0  0
 17 13  1  0  0  0  0
 20 21  1  0  0  0  0
 20 16  1  0  0  0  0
 22 21  1  0  0  0  0
M  END
>  <minimizedAffinity>
-4.29441023

$$$$

 OpenBabel03242518333D

 22 23  0  0  0  0  0  0  0  0999 V2000
   37.2720   28.8650   42.4400 C   0  0  0  0  0  0  0  0  0  0  0  0
   37.3500   28.8990   43.6790 O   0  0  0  0  0  0  0  0  0  0  0  0
   37.6320   29.8800   41.5010 C   0  0  0  0  0  0  0  0  0  0  0  0
   36.5520   30.6610   41.0920 C   0  0  0  0  0  0  0  0  0  0  0  0
   36.8200   31.6790   40.1730 C   0  0  0  0  0  0  0  0  0  0  0  0
   38.1010   31.8520   39.7310 N   0  0  0  0  0  0  0  0  0  0  0  0
   39.1070   31.0590   40.1670 C   0  0  0  0  0  0  0  0  0  0  0  0
   38.8800   30.0610   41.0600 N   0  0  0  0  0  0  0  0  0  0  0  0
   35.5390   30.5380   41.4300 H   0  0  0  0  0  0  0  0  0  0  0  0
   36.0280   32.3240   39.8130 H   0  0  0  0  0  0  0  0  0  0  0  0
   40.1120   31.2380   39.7830 H   0  0  0  0  0  0  0  0  0  0  0  0
   36.7650   27.6830   41.8770 O   0  0  0  0  0  0  0  0  0  0  0  0
   37.4310   26.4650   42.0650 C   0  0  0  0  0  0  0  0  0  0  0  0
   37.0000   25.1660   41.9580 C   0  0  0  0  0  0  0  0  0  0  0  0
   38.0540   24.3090   42.2480 C   0  0  0  0  0  0  0  0  0  0  0  0
   39.0950   25.1620   42.5220 C   0  0  0  0  0  0  0  0  0  0  0  0
   38.7210   26.4110   42.4140 O   0  0  0  0  0  0  0  0  0  0  0  0
   35.9820   24.9110   41.6860 H   0  0  0  0  0  0  0  0  0  0  0  0
   37.9900   23.2230   42.2370 H   0  0  0  0  0  0  0  0  0  0  0  0
   40.4590   24.6900   42.8930 C   0  0  0  0  0  2  0  0  0  0  0  0
   41.5130   25.2780   41.9930 C   0  0  0  0  0  2  0  0  0  0  0  0
   42.4880   25.1680   42.5120 H   0  0  0  0  0  0  0  0  0  0  0  0
  1  2  2  0  0  0  0
  3  1  1  0  0  0  0
  4  9  1  0  0  0  0
  4  3  1  0  0  0  0
  5  4  2  0  0  0  0
  6  7  2  0  0  0  0
  6  5  1  0  0  0  0
  7  8  1  0  0  0  0
  8  3  2  0  0  0  0
 10  5  1  0  0  0  0
 11  7  1  0  0  0  0
 12 13  1  0  0  0  0
 12  1  1  0  0  0  0
 13 17  1  0  0  0  0
 14 13  2  0  0  0  0
 14 15  1  0  0  0  0
 15 16  2  0  0  0  0
 16 20  1  0  0  0  0
 17 16  1  0  0  0  0
 18 14  1  0  0  0  0
 19 15  1  0  0  0  0
 21 22  1  0  0  0  0
 21 20  1  0  0  0  0
M  END
>  <minimizedAffinity>
-4.08935547

$$$$

 OpenBabel03242518333D

 22 23  0  0  0  0  0  0  0  0999 V2000
   37.7690   29.6850   42.1580 C   0  0  0  0  0  0  0  0  0  0  0  0
   38.4070   29.6000   43.2210 O   0  0  0  0  0  0  0  0  0  0  0  0
   38.0140   30.5460   41.0440 C   0  0  0  0  0  0  0  0  0  0  0  0
   36.9000   31.2990   40.6740 C   0  0  0  0  0  0  0  0  0  0  0  0
   37.0560   32.1690   39.5920 C   0  0  0  0  0  0  0  0  0  0  0  0
   38.2680   32.2340   38.9640 N   0  0  0  0  0  0  0  0  0  0  0  0
   39.3110   31.4750   39.3720 C   0  0  0  0  0  0  0  0  0  0  0  0
   39.1930   30.6200   40.4210 N   0  0  0  0  0  0  0  0  0  0  0  0
   35.9410   31.2600   41.1570 H   0  0  0  0  0  0  0  0  0  0  0  0
   36.2330   32.7840   39.2510 H   0  0  0  0  0  0  0  0  0  0  0  0
   40.2570   31.5640   38.8360 H   0  0  0  0  0  0  0  0  0  0  0  0
   36.6620   28.8330   42.0220 O   0  0  0  0  0  0  0  0  0  0  0  0
   36.8060   27.5720   41.4280 C   0  0  0  0  0  0  0  0  0  0  0  0
   36.6570   27.1560   40.1280 C   0  0  0  0  0  0  0  0  0  0  0  0
   36.9130   25.7930   40.0520 C   0  0  0  0  0  0  0  0  0  0  0  0
   37.2120   25.4500   41.3470 C   0  0  0  0  0  0  0  0  0  0  0  0
   37.1460   26.4910   42.1380 O   0  0  0  0  0  0  0  0  0  0  0  0
   36.3790   27.8330   39.3290 H   0  0  0  0  0  0  0  0  0  0  0  0
   36.8670   25.2040   39.1380 H   0  0  0  0  0  0  0  0  0  0  0  0
   37.5610   24.0620   41.7640 C   0  0  0  0  0  2  0  0  0  0  0  0
   37.5180   23.1070   40.6000 C   0  0  0  0  0  2  0  0  0  0  0  0
   38.0940   22.2040   40.8920 H   0  0  0  0  0  0  0  0  0  0  0  0
  1  2  2  0  0  0  0
  3  1  1  0  0  0  0
  4  3  1  0  0  0  0
  4  9  1  0  0  0  0
  5  4  2  0  0  0  0
  6  7  2  0  0  0  0
  6  5  1  0  0  0  0
  7  8  1  0  0  0  0
  8  3  2  0  0  0  0
 10  5  1  0  0  0  0
 11  7  1  0  0  0  0
 12  1  1  0  0  0  0
 13 12  1  0  0  0  0
 13 17  1  0  0  0  0
 14 13  2  0  0  0  0
 15 14  1  0  0  0  0
 15 16  2  0  0  0  0
 16 20  1  0  0  0  0
 16 17  1  0  0  0  0
 18 14  1  0  0  0  0
 19 15  1  0  0  0  0
 21 22  1  0  0  0  0
 21 20  1  0  0  0  0
M  END
>  <minimizedAffinity>
-4.05684423

$$$$

 OpenBabel03242518333D

 22 23  0  0  0  0  0  0  0  0999 V2000
   37.2260   27.8380   43.1650 C   0  0  0  0  0  0  0  0  0  0  0  0
   36.2180   27.3070   43.6600 O   0  0  0  0  0  0  0  0  0  0  0  0
   38.5450   27.2990   43.0500 C   0  0  0  0  0  0  0  0  0  0  0  0
   38.5610   25.9430   42.7260 C   0  0  0  0  0  0  0  0  0  0  0  0
   39.8130   25.3390   42.5930 C   0  0  0  0  0  0  0  0  0  0  0  0
   40.9360   26.0930   42.7860 N   0  0  0  0  0  0  0  0  0  0  0  0
   40.8530   27.4060   43.1000 C   0  0  0  0  0  0  0  0  0  0  0  0
   39.6510   28.0250   43.2360 N   0  0  0  0  0  0  0  0  0  0  0  0
   37.6870   25.3370   42.5710 H   0  0  0  0  0  0  0  0  0  0  0  0
   39.8990   24.2890   42.3420 H   0  0  0  0  0  0  0  0  0  0  0  0
   41.7800   27.9640   43.2450 H   0  0  0  0  0  0  0  0  0  0  0  0
   37.0630   29.1330   42.6490 O   0  0  0  0  0  0  0  0  0  0  0  0
   36.6110   29.3230   41.3370 C   0  0  0  0  0  0  0  0  0  0  0  0
   35.4220   29.0030   40.7290 C   0  0  0  0  0  0  0  0  0  0  0  0
   35.4670   29.4050   39.3990 C   0  0  0  0  0  0  0  0  0  0  0  0
   36.7160   29.9620   39.2740 C   0  0  0  0  0  0  0  0  0  0  0  0
   37.3720   29.9080   40.4050 O   0  0  0  0  0  0  0  0  0  0  0  0
   34.6120   28.5130   41.2550 H   0  0  0  0  0  0  0  0  0  0  0  0
   34.6570   29.2740   38.6850 H   0  0  0  0  0  0  0  0  0  0  0  0
   37.2260   30.5410   37.9990 C   0  0  0  0  0  2  0  0  0  0  0  0
   37.4730   32.0200   38.1220 C   0  0  0  0  0  2  0  0  0  0  0  0
   38.1460   32.3140   37.2890 H   0  0  0  0  0  0  0  0  0  0  0  0
  1  2  2  0  0  0  0
  3  1  1  0  0  0  0
  3  8  1  0  0  0  0
  4  3  2  0  0  0  0
  5  4  1  0  0  0  0
  5  6  2  0  0  0  0
  6  7  1  0  0  0  0
  7  8  2  0  0  0  0
  7 11  1  0  0  0  0
  9  4  1  0  0  0  0
 10  5  1  0  0  0  0
 12  1  1  0  0  0  0
 13 12  1  0  0  0  0
 14 18  1  0  0  0  0
 14 13  2  0  0  0  0
 15 14  1  0  0  0  0
 16 15  2  0  0  0  0
 16 17  1  0  0  0  0
 17 13  1  0  0  0  0
 19 15  1  0  0  0  0
 20 21  1  0  0  0  0
 20 16  1  0  0  0  0
 22 21  1  0  0  0  0
M  END
>  <minimizedAffinity>
-4.04588652

$$$$
