
 OpenBabel03252509233D

 21 22  0  0  1  0  0  0  0  0999 V2000
   44.6360   35.4160   45.1500 C   0  0  0  0  0  0  0  0  0  0  0  0
   45.1130   35.7140   43.8350 C   0  0  0  0  0  0  0  0  0  0  0  0
   46.0690   34.8510   43.3680 C   0  0  0  0  0  0  0  0  0  0  0  0
   46.5350   33.7760   44.1210 N   0  0  0  0  0  0  0  0  0  0  0  0
   46.0450   33.5570   45.3430 C   0  0  0  0  0  0  0  0  0  0  0  0
   45.0920   34.3760   45.8620 N   0  0  0  0  0  0  0  0  0  0  0  0
   43.8770   36.0710   45.5610 H   0  0  0  0  0  0  0  0  0  0  0  0
   46.4980   32.6920   45.8070 H   0  0  0  0  0  0  0  0  0  0  0  0
   46.5620   35.0380   41.9520 C   0  0  1  0  0  0  0  0  0  0  0  0
   48.0910   35.3040   41.9490 C   0  0  0  0  0  0  0  0  0  0  0  0
   47.3830   34.0420   41.3690 C   0  0  2  0  0  0  0  0  0  0  0  0
   46.0040   35.7890   41.3640 H   0  0  0  0  0  0  0  0  0  0  0  0
   48.4840   35.9980   41.1930 H   0  0  0  0  0  0  0  0  0  0  0  0
   48.6600   35.1860   42.8660 H   0  0  0  0  0  0  0  0  0  0  0  0
   47.7230   33.1120   41.8680 H   0  0  0  0  0  0  0  0  0  0  0  0
   47.3840   33.9370   39.8500 C   0  0  0  0  0  2  0  0  0  0  0  0
   46.8920   32.5880   39.4260 C   0  0  0  0  0  2  0  0  0  0  0  0
   47.7490   31.9750   39.0980 H   0  0  0  0  0  0  0  0  0  0  0  0
   44.6610   36.8360   43.0860 N   0  0  0  0  0  0  0  0  0  0  0  0
   44.5820   37.7700   43.5850 H   0  0  0  0  0  0  0  0  0  0  0  0
   44.4050   36.8210   42.0990 H   0  0  0  0  0  0  0  0  0  0  0  0
  1  7  1  0  0  0  0
  1  6  1  0  0  0  0
  2  1  2  0  0  0  0
  3  2  1  0  0  0  0
  3  4  2  0  0  0  0
  4  5  1  0  0  0  0
  5  8  1  0  0  0  0
  5  6  2  0  0  0  0
  9 12  1  6  0  0  0
  9  3  1  0  0  0  0
 10  9  1  0  0  0  0
 10 14  1  0  0  0  0
 11 15  1  1  0  0  0
 11 10  1  0  0  0  0
 11  9  1  0  0  0  0
 13 10  1  0  0  0  0
 16 11  1  0  0  0  0
 17 16  1  0  0  0  0
 18 17  1  0  0  0  0
 19 20  1  0  0  0  0
 19  2  1  0  0  0  0
 21 19  1  0  0  0  0
M  END
>  <minimizedAffinity>
-4.18512392

>  <minimizedRMSD>
0.0994956568

$$$$
