
 OpenBabel03242518523D

 33 34  0  0  1  0  0  0  0  0999 V2000
   38.2130   28.7920   42.4340 C   0  0  2  0  0  0  0  0  0  0  0  0
   37.3330   28.7270   43.6040 C   0  0  0  0  0  0  0  0  0  0  0  0
   36.6480   27.4180   43.5590 C   0  0  0  0  0  0  0  0  0  0  0  0
   36.9500   26.5080   42.4470 C   0  0  0  0  0  0  0  0  0  0  0  0
   38.3330   26.4500   41.9090 C   0  0  0  0  0  0  0  0  0  0  0  0
   39.1590   27.6500   42.3970 C   0  0  2  0  0  0  0  0  0  0  0  0
   37.5140   28.6670   41.5320 H   0  0  0  0  0  0  0  0  0  0  0  0
   36.5850   29.5960   43.4500 H   0  0  0  0  0  0  0  0  0  0  0  0
   37.8250   29.0330   44.5210 H   0  0  0  0  0  0  0  0  0  0  0  0
   36.5520   26.8960   44.5630 H   0  0  0  0  0  0  0  0  0  0  0  0
   35.5350   27.6740   43.4470 H   0  0  0  0  0  0  0  0  0  0  0  0
   36.1430   26.5770   41.6500 H   0  0  0  0  0  0  0  0  0  0  0  0
   36.7500   25.4590   42.8450 H   0  0  0  0  0  0  0  0  0  0  0  0
   38.1600   26.3580   40.8190 H   0  0  0  0  0  0  0  0  0  0  0  0
   38.8870   25.5040   42.1280 H   0  0  0  0  0  0  0  0  0  0  0  0
   39.7210   27.5280   41.4150 H   0  0  0  0  0  0  0  0  0  0  0  0
   38.8150   30.1210   42.1900 C   0  0  0  0  0  0  0  0  0  0  0  0
   39.6970   30.6510   42.9280 O   0  0  0  0  0  0  0  0  0  0  0  0
   37.9340   32.8960   39.9820 C   0  0  0  0  0  0  0  0  0  0  0  0
   37.4250   32.2630   38.8250 C   0  0  0  0  0  0  0  0  0  0  0  0
   37.4110   30.8780   38.8320 C   0  0  0  0  0  0  0  0  0  0  0  0
   37.8870   30.2990   39.9460 N   0  0  0  0  0  0  0  0  0  0  0  0
   38.3570   30.8640   41.0200 C   0  0  0  0  0  0  0  0  0  0  0  0
   38.3790   32.2190   41.0320 N   0  0  0  0  0  0  0  0  0  0  0  0
   37.9480   33.9900   39.9800 H   0  0  0  0  0  0  0  0  0  0  0  0
   37.0750   32.8340   37.9960 H   0  0  0  0  0  0  0  0  0  0  0  0
   36.8400   30.2140   37.6610 C   0  0  0  0  0  0  0  0  0  0  0  0
   37.5550   29.0660   37.3630 F   0  0  0  0  0  0  0  0  0  0  0  0
   37.0030   31.0900   36.6240 F   0  0  0  0  0  0  0  0  0  0  0  0
   35.5270   29.8400   37.8440 F   0  0  0  0  0  0  0  0  0  0  0  0
   39.9310   27.2320   43.5640 C   0  0  0  0  0  2  0  0  0  0  0  0
   40.7400   26.0180   43.6800 C   0  0  0  0  0  2  0  0  0  0  0  0
   40.2290   25.0710   43.9120 H   0  0  0  0  0  0  0  0  0  0  0  0
  1  7  1  6  0  0  0
  1  2  1  0  0  0  0
  2  9  1  0  0  0  0
  3  2  1  0  0  0  0
  3 10  1  0  0  0  0
  4 13  1  0  0  0  0
  4  3  1  0  0  0  0
  5 15  1  0  0  0  0
  5  6  1  0  0  0  0
  5  4  1  0  0  0  0
  6 16  1  6  0  0  0
  6  1  1  0  0  0  0
  6 31  1  0  0  0  0
  8  2  1  0  0  0  0
 11  3  1  0  0  0  0
 12  4  1  0  0  0  0
 14  5  1  0  0  0  0
 17  1  1  0  0  0  0
 17 18  2  0  0  0  0
 19 24  1  0  0  0  0
 20 21  1  0  0  0  0
 20 19  2  0  0  0  0
 21 22  2  0  0  0  0
 22 23  1  0  0  0  0
 23 24  2  0  0  0  0
 23 17  1  0  0  0  0
 25 19  1  0  0  0  0
 26 20  1  0  0  0  0
 27 30  1  0  0  0  0
 27 21  1  0  0  0  0
 28 27  1  0  0  0  0
 29 27  1  0  0  0  0
 31 32  1  0  0  0  0
 32 33  1  0  0  0  0
M  END
>  <minimizedAffinity>
-5.38827372

$$$$

 OpenBabel03242518523D

 33 34  0  0  1  0  0  0  0  0999 V2000
   36.9130   30.2180   39.4040 C   0  0  2  0  0  0  0  0  0  0  0  0
   38.2230   29.6090   39.1640 C   0  0  0  0  0  0  0  0  0  0  0  0
   38.8570   30.3630   38.0620 C   0  0  0  0  0  0  0  0  0  0  0  0
   38.1180   31.4820   37.4640 C   0  0  0  0  0  0  0  0  0  0  0  0
   37.2680   32.3380   38.3310 C   0  0  0  0  0  0  0  0  0  0  0  0
   37.0270   31.6680   39.6930 C   0  0  2  0  0  0  0  0  0  0  0  0
   36.3570   30.1260   38.4020 H   0  0  0  0  0  0  0  0  0  0  0  0
   37.9830   28.5240   38.8440 H   0  0  0  0  0  0  0  0  0  0  0  0
   38.7850   29.4380   40.0760 H   0  0  0  0  0  0  0  0  0  0  0  0
   39.9650   30.5700   38.2010 H   0  0  0  0  0  0  0  0  0  0  0  0
   38.9810   29.5960   37.2160 H   0  0  0  0  0  0  0  0  0  0  0  0
   37.6150   31.1540   36.4990 H   0  0  0  0  0  0  0  0  0  0  0  0
   38.9110   32.1870   37.0480 H   0  0  0  0  0  0  0  0  0  0  0  0
   36.3860   32.5230   37.6890 H   0  0  0  0  0  0  0  0  0  0  0  0
   37.6500   33.3770   38.4910 H   0  0  0  0  0  0  0  0  0  0  0  0
   36.0420   32.2370   39.6800 H   0  0  0  0  0  0  0  0  0  0  0  0
   36.0400   29.4560   40.3230 C   0  0  0  0  0  0  0  0  0  0  0  0
   34.7750   29.4300   40.2490 O   0  0  0  0  0  0  0  0  0  0  0  0
   37.8090   28.6310   43.4110 C   0  0  0  0  0  0  0  0  0  0  0  0
   37.9610   27.2270   43.3530 C   0  0  0  0  0  0  0  0  0  0  0  0
   37.4310   26.5920   42.2420 C   0  0  0  0  0  0  0  0  0  0  0  0
   36.8310   27.3940   41.3480 N   0  0  0  0  0  0  0  0  0  0  0  0
   36.6840   28.6860   41.3830 C   0  0  0  0  0  0  0  0  0  0  0  0
   37.1960   29.3250   42.4630 N   0  0  0  0  0  0  0  0  0  0  0  0
   38.2260   29.1360   44.2880 H   0  0  0  0  0  0  0  0  0  0  0  0
   38.4590   26.6950   44.1320 H   0  0  0  0  0  0  0  0  0  0  0  0
   37.6260   25.1460   42.1480 C   0  0  0  0  0  0  0  0  0  0  0  0
   37.8530   24.7760   40.8320 F   0  0  0  0  0  0  0  0  0  0  0  0
   36.4440   24.5860   42.5420 F   0  0  0  0  0  0  0  0  0  0  0  0
   38.7010   24.7020   42.8870 F   0  0  0  0  0  0  0  0  0  0  0  0
   37.9950   32.2050   40.6460 C   0  0  0  0  0  2  0  0  0  0  0  0
   38.6680   33.5000   40.5620 C   0  0  0  0  0  2  0  0  0  0  0  0
   39.5470   33.5900   39.9060 H   0  0  0  0  0  0  0  0  0  0  0  0
  1  7  1  6  0  0  0
  1  6  1  0  0  0  0
  1 17  1  0  0  0  0
  2  1  1  0  0  0  0
  2  9  1  0  0  0  0
  3 10  1  0  0  0  0
  3  2  1  0  0  0  0
  4  3  1  0  0  0  0
  4  5  1  0  0  0  0
  5 15  1  0  0  0  0
  5  6  1  0  0  0  0
  6 16  1  1  0  0  0
  6 31  1  0  0  0  0
  8  2  1  0  0  0  0
 11  3  1  0  0  0  0
 12  4  1  0  0  0  0
 13  4  1  0  0  0  0
 14  5  1  0  0  0  0
 17 23  1  0  0  0  0
 18 17  2  0  0  0  0
 19 25  1  0  0  0  0
 20 19  1  0  0  0  0
 20 26  1  0  0  0  0
 21 20  2  0  0  0  0
 22 23  2  0  0  0  0
 22 21  1  0  0  0  0
 23 24  1  0  0  0  0
 24 19  2  0  0  0  0
 27 21  1  0  0  0  0
 27 29  1  0  0  0  0
 27 30  1  0  0  0  0
 28 27  1  0  0  0  0
 32 31  1  0  0  0  0
 33 32  1  0  0  0  0
M  END
>  <minimizedAffinity>
-5.36148787

$$$$

 OpenBabel03242518523D

 33 34  0  0  1  0  0  0  0  0999 V2000
   37.5250   26.2490   41.9120 C   0  0  2  0  0  0  0  0  0  0  0  0
   36.9770   24.9300   42.2380 C   0  0  0  0  0  0  0  0  0  0  0  0
   37.6650   23.9480   41.3730 C   0  0  0  0  0  0  0  0  0  0  0  0
   38.6770   24.4370   40.4290 C   0  0  0  0  0  0  0  0  0  0  0  0
   39.5560   25.5680   40.8240 C   0  0  0  0  0  0  0  0  0  0  0  0
   39.0000   26.2830   42.0650 C   0  0  2  0  0  0  0  0  0  0  0  0
   37.3080   26.3890   40.7930 H   0  0  0  0  0  0  0  0  0  0  0  0
   35.8550   25.0090   41.9710 H   0  0  0  0  0  0  0  0  0  0  0  0
   36.9260   24.7450   43.3060 H   0  0  0  0  0  0  0  0  0  0  0  0
   37.9510   22.9780   41.8870 H   0  0  0  0  0  0  0  0  0  0  0  0
   36.8330   23.5010   40.7190 H   0  0  0  0  0  0  0  0  0  0  0  0
   38.2320   24.5370   39.3870 H   0  0  0  0  0  0  0  0  0  0  0  0
   39.3890   23.5630   40.2600 H   0  0  0  0  0  0  0  0  0  0  0  0
   39.6280   26.1520   39.8870 H   0  0  0  0  0  0  0  0  0  0  0  0
   40.6260   25.2960   41.0010 H   0  0  0  0  0  0  0  0  0  0  0  0
   39.5030   27.2060   41.6290 H   0  0  0  0  0  0  0  0  0  0  0  0
   36.7980   27.3840   42.5220 C   0  0  0  0  0  0  0  0  0  0  0  0
   36.2700   27.3570   43.6730 O   0  0  0  0  0  0  0  0  0  0  0  0
   35.5130   29.9130   40.2190 C   0  0  0  0  0  0  0  0  0  0  0  0
   36.5150   30.9090   40.2120 C   0  0  0  0  0  0  0  0  0  0  0  0
   37.6160   30.6860   41.0230 C   0  0  0  0  0  0  0  0  0  0  0  0
   37.5980   29.5410   41.7230 N   0  0  0  0  0  0  0  0  0  0  0  0
   36.6870   28.6110   41.7400 C   0  0  0  0  0  0  0  0  0  0  0  0
   35.6020   28.8120   40.9530 N   0  0  0  0  0  0  0  0  0  0  0  0
   34.6420   30.0860   39.5800 H   0  0  0  0  0  0  0  0  0  0  0  0
   36.4160   31.7840   39.6110 H   0  0  0  0  0  0  0  0  0  0  0  0
   38.6810   31.6870   40.9860 C   0  0  0  0  0  0  0  0  0  0  0  0
   39.4150   31.6520   42.1600 F   0  0  0  0  0  0  0  0  0  0  0  0
   38.0500   32.8980   40.9230 F   0  0  0  0  0  0  0  0  0  0  0  0
   39.5650   31.4910   39.9470 F   0  0  0  0  0  0  0  0  0  0  0  0
   39.6790   25.7530   43.2440 C   0  0  0  0  0  2  0  0  0  0  0  0
   41.0490   25.2430   43.3000 C   0  0  0  0  0  2  0  0  0  0  0  0
   41.2370   24.2130   42.9600 H   0  0  0  0  0  0  0  0  0  0  0  0
  1  7  1  6  0  0  0
  1  6  1  0  0  0  0
  1  2  1  0  0  0  0
  1 17  1  0  0  0  0
  2  9  1  0  0  0  0
  3 10  1  0  0  0  0
  3  2  1  0  0  0  0
  4  5  1  0  0  0  0
  4  3  1  0  0  0  0
  5 15  1  0  0  0  0
  5  6  1  0  0  0  0
  6 16  1  6  0  0  0
  6 31  1  0  0  0  0
  8  2  1  0  0  0  0
 11  3  1  0  0  0  0
 12  4  1  0  0  0  0
 13  4  1  0  0  0  0
 14  5  1  0  0  0  0
 17 18  2  0  0  0  0
 19 24  1  0  0  0  0
 20 19  2  0  0  0  0
 20 21  1  0  0  0  0
 21 22  2  0  0  0  0
 22 23  1  0  0  0  0
 23 17  1  0  0  0  0
 24 23  2  0  0  0  0
 25 19  1  0  0  0  0
 26 20  1  0  0  0  0
 27 21  1  0  0  0  0
 27 28  1  0  0  0  0
 29 27  1  0  0  0  0
 30 27  1  0  0  0  0
 31 32  1  0  0  0  0
 33 32  1  0  0  0  0
M  END
>  <minimizedAffinity>
-5.25795078

$$$$

 OpenBabel03242518523D

 33 34  0  0  1  0  0  0  0  0999 V2000
   38.8760   28.3880   42.4600 C   0  0  2  0  0  0  0  0  0  0  0  0
   38.0700   28.5440   43.6740 C   0  0  0  0  0  0  0  0  0  0  0  0
   36.8820   27.6770   43.5200 C   0  0  0  0  0  0  0  0  0  0  0  0
   36.7440   26.8930   42.2860 C   0  0  0  0  0  0  0  0  0  0  0  0
   37.9570   26.3230   41.6460 C   0  0  0  0  0  0  0  0  0  0  0  0
   39.2290   26.9690   42.2160 C   0  0  2  0  0  0  0  0  0  0  0  0
   38.1810   28.7050   41.6020 H   0  0  0  0  0  0  0  0  0  0  0  0
   37.7730   29.6620   43.6810 H   0  0  0  0  0  0  0  0  0  0  0  0
   38.6560   28.4760   44.5830 H   0  0  0  0  0  0  0  0  0  0  0  0
   36.5800   27.1110   44.4560 H   0  0  0  0  0  0  0  0  0  0  0  0
   35.9900   28.4000   43.5200 H   0  0  0  0  0  0  0  0  0  0  0  0
   36.0380   27.4140   41.5630 H   0  0  0  0  0  0  0  0  0  0  0  0
   36.1110   25.9870   42.5670 H   0  0  0  0  0  0  0  0  0  0  0  0
   37.7480   26.4690   40.5690 H   0  0  0  0  0  0  0  0  0  0  0  0
   38.0450   25.2100   41.7080 H   0  0  0  0  0  0  0  0  0  0  0  0
   39.6700   26.7570   41.1880 H   0  0  0  0  0  0  0  0  0  0  0  0
   39.9940   29.3500   42.3370 C   0  0  0  0  0  0  0  0  0  0  0  0
   41.1290   29.1950   42.8760 O   0  0  0  0  0  0  0  0  0  0  0  0
   40.4650   32.6510   40.8450 C   0  0  0  0  0  0  0  0  0  0  0  0
   39.2920   32.8520   40.0830 C   0  0  0  0  0  0  0  0  0  0  0  0
   38.3630   31.8250   40.0940 C   0  0  0  0  0  0  0  0  0  0  0  0
   38.6920   30.7530   40.8320 N   0  0  0  0  0  0  0  0  0  0  0  0
   39.7650   30.5510   41.5410 C   0  0  0  0  0  0  0  0  0  0  0  0
   40.6860   31.5450   41.5430 N   0  0  0  0  0  0  0  0  0  0  0  0
   41.2020   33.4600   40.8390 H   0  0  0  0  0  0  0  0  0  0  0  0
   39.1430   33.7530   39.5320 H   0  0  0  0  0  0  0  0  0  0  0  0
   37.1240   32.0430   39.3490 C   0  0  0  0  0  0  0  0  0  0  0  0
   36.8450   33.3970   39.2660 F   0  0  0  0  0  0  0  0  0  0  0  0
   36.1380   31.4560   40.0900 F   0  0  0  0  0  0  0  0  0  0  0  0
   37.1820   31.5600   38.0590 F   0  0  0  0  0  0  0  0  0  0  0  0
   39.7560   26.0990   43.2650 C   0  0  0  0  0  2  0  0  0  0  0  0
   39.7230   24.6370   43.2760 C   0  0  0  0  0  2  0  0  0  0  0  0
   38.7940   24.1380   43.5890 H   0  0  0  0  0  0  0  0  0  0  0  0
  1  7  1  6  0  0  0
  1  2  1  0  0  0  0
  2  8  1  0  0  0  0
  2  9  1  0  0  0  0
  3  2  1  0  0  0  0
  3 10  1  0  0  0  0
  4 13  1  0  0  0  0
  4  3  1  0  0  0  0
  5 15  1  0  0  0  0
  5  6  1  0  0  0  0
  5  4  1  0  0  0  0
  6 16  1  6  0  0  0
  6  1  1  0  0  0  0
  6 31  1  0  0  0  0
 11  3  1  0  0  0  0
 12  4  1  0  0  0  0
 14  5  1  0  0  0  0
 17  1  1  0  0  0  0
 17 18  2  0  0  0  0
 19 24  1  0  0  0  0
 20 21  1  0  0  0  0
 20 19  2  0  0  0  0
 21 22  2  0  0  0  0
 22 23  1  0  0  0  0
 23 24  2  0  0  0  0
 23 17  1  0  0  0  0
 25 19  1  0  0  0  0
 26 20  1  0  0  0  0
 27 29  1  0  0  0  0
 27 21  1  0  0  0  0
 28 27  1  0  0  0  0
 30 27  1  0  0  0  0
 31 32  1  0  0  0  0
 32 33  1  0  0  0  0
M  END
>  <minimizedAffinity>
-5.21441698

$$$$

 OpenBabel03242518523D

 33 34  0  0  1  0  0  0  0  0999 V2000
   38.6010   28.0470   41.3720 C   0  0  2  0  0  0  0  0  0  0  0  0
   39.5770   27.6240   42.3790 C   0  0  0  0  0  0  0  0  0  0  0  0
   38.8490   27.4890   43.6590 C   0  0  0  0  0  0  0  0  0  0  0  0
   37.4110   27.7820   43.6800 C   0  0  0  0  0  0  0  0  0  0  0  0
   36.5770   27.4190   42.5050 C   0  0  0  0  0  0  0  0  0  0  0  0
   37.4580   27.1050   41.2860 C   0  0  2  0  0  0  0  0  0  0  0  0
   38.1790   29.0390   41.7690 H   0  0  0  0  0  0  0  0  0  0  0  0
   40.3410   28.4900   42.4210 H   0  0  0  0  0  0  0  0  0  0  0  0
   40.2050   26.8060   42.0420 H   0  0  0  0  0  0  0  0  0  0  0  0
   39.1400   26.5840   44.2800 H   0  0  0  0  0  0  0  0  0  0  0  0
   39.3270   28.2720   44.3500 H   0  0  0  0  0  0  0  0  0  0  0  0
   37.2270   28.8330   44.0740 H   0  0  0  0  0  0  0  0  0  0  0  0
   36.9840   27.1670   44.5390 H   0  0  0  0  0  0  0  0  0  0  0  0
   35.8870   28.2820   42.4280 H   0  0  0  0  0  0  0  0  0  0  0  0
   35.8630   26.5760   42.6750 H   0  0  0  0  0  0  0  0  0  0  0  0
   36.5720   27.4830   40.6810 H   0  0  0  0  0  0  0  0  0  0  0  0
   39.1890   28.4480   40.0750 C   0  0  0  0  0  0  0  0  0  0  0  0
   40.1300   27.8270   39.4970 O   0  0  0  0  0  0  0  0  0  0  0  0
   37.6040   30.6180   37.6000 C   0  0  0  0  0  0  0  0  0  0  0  0
   37.6790   31.9060   38.1780 C   0  0  0  0  0  0  0  0  0  0  0  0
   38.2700   31.9910   39.4280 C   0  0  0  0  0  0  0  0  0  0  0  0
   38.7030   30.8300   39.9440 N   0  0  0  0  0  0  0  0  0  0  0  0
   38.6460   29.6370   39.4270 C   0  0  0  0  0  0  0  0  0  0  0  0
   38.0710   29.5340   38.2040 N   0  0  0  0  0  0  0  0  0  0  0  0
   37.1380   30.5470   36.6130 H   0  0  0  0  0  0  0  0  0  0  0  0
   37.2940   32.7600   37.6680 H   0  0  0  0  0  0  0  0  0  0  0  0
   38.3960   33.3250   40.0130 C   0  0  0  0  0  0  0  0  0  0  0  0
   37.2510   34.0660   39.7720 F   0  0  0  0  0  0  0  0  0  0  0  0
   39.4290   33.9240   39.3490 F   0  0  0  0  0  0  0  0  0  0  0  0
   38.5830   33.2960   41.3780 F   0  0  0  0  0  0  0  0  0  0  0  0
   37.6390   25.6570   41.2110 C   0  0  0  0  0  2  0  0  0  0  0  0
   36.9830   24.6570   42.0530 C   0  0  0  0  0  2  0  0  0  0  0  0
   37.3960   24.4680   43.0560 H   0  0  0  0  0  0  0  0  0  0  0  0
  1  7  1  1  0  0  0
  1  2  1  0  0  0  0
  2  8  1  0  0  0  0
  2  3  1  0  0  0  0
  3  4  1  0  0  0  0
  3 10  1  0  0  0  0
  3 11  1  0  0  0  0
  4 12  1  0  0  0  0
  4 13  1  0  0  0  0
  5 15  1  0  0  0  0
  5  4  1  0  0  0  0
  6 16  1  6  0  0  0
  6  1  1  0  0  0  0
  6  5  1  0  0  0  0
  9  2  1  0  0  0  0
 14  5  1  0  0  0  0
 17  1  1  0  0  0  0
 18 17  2  0  0  0  0
 19 20  2  0  0  0  0
 19 24  1  0  0  0  0
 20 21  1  0  0  0  0
 21 22  2  0  0  0  0
 21 27  1  0  0  0  0
 23 22  1  0  0  0  0
 23 17  1  0  0  0  0
 24 23  2  0  0  0  0
 25 19  1  0  0  0  0
 26 20  1  0  0  0  0
 27 30  1  0  0  0  0
 28 27  1  0  0  0  0
 29 27  1  0  0  0  0
 31  6  1  0  0  0  0
 31 32  1  0  0  0  0
 32 33  1  0  0  0  0
M  END
>  <minimizedAffinity>
-5.19672441

$$$$

 OpenBabel03242518523D

 33 34  0  0  1  0  0  0  0  0999 V2000
   36.3380   29.3120   39.1590 C   0  0  2  0  0  0  0  0  0  0  0  0
   36.5940   30.3730   38.1820 C   0  0  0  0  0  0  0  0  0  0  0  0
   36.7680   29.7190   36.8680 C   0  0  0  0  0  0  0  0  0  0  0  0
   36.6640   28.2560   36.7950 C   0  0  0  0  0  0  0  0  0  0  0  0
   35.6820   27.5530   37.6600 C   0  0  0  0  0  0  0  0  0  0  0  0
   35.1720   28.4810   38.7730 C   0  0  2  0  0  0  0  0  0  0  0  0
   37.2600   28.6300   39.1020 H   0  0  0  0  0  0  0  0  0  0  0  0
   37.5790   30.8620   38.5390 H   0  0  0  0  0  0  0  0  0  0  0  0
   35.9030   31.2040   38.2690 H   0  0  0  0  0  0  0  0  0  0  0  0
   36.2730   30.2560   35.9990 H   0  0  0  0  0  0  0  0  0  0  0  0
   37.8480   29.9600   36.5620 H   0  0  0  0  0  0  0  0  0  0  0  0
   37.6990   27.7850   36.7880 H   0  0  0  0  0  0  0  0  0  0  0  0
   36.3300   28.0240   35.7300 H   0  0  0  0  0  0  0  0  0  0  0  0
   36.2410   26.6480   37.9660 H   0  0  0  0  0  0  0  0  0  0  0  0
   34.8110   27.1060   37.1200 H   0  0  0  0  0  0  0  0  0  0  0  0
   35.0500   27.5210   39.3720 H   0  0  0  0  0  0  0  0  0  0  0  0
   36.3580   29.7580   40.5700 C   0  0  0  0  0  0  0  0  0  0  0  0
   35.9070   30.8700   40.9730 O   0  0  0  0  0  0  0  0  0  0  0  0
   38.0790   28.5320   43.5510 C   0  0  0  0  0  0  0  0  0  0  0  0
   38.0930   27.1290   43.3840 C   0  0  0  0  0  0  0  0  0  0  0  0
   37.4900   26.6350   42.2390 C   0  0  0  0  0  0  0  0  0  0  0  0
   36.9600   27.5570   41.4200 N   0  0  0  0  0  0  0  0  0  0  0  0
   36.9380   28.8510   41.5550 C   0  0  0  0  0  0  0  0  0  0  0  0
   37.5240   29.3530   42.6690 N   0  0  0  0  0  0  0  0  0  0  0  0
   38.5540   28.9260   44.4540 H   0  0  0  0  0  0  0  0  0  0  0  0
   38.5480   26.4940   44.1100 H   0  0  0  0  0  0  0  0  0  0  0  0
   37.5430   25.1880   42.0320 C   0  0  0  0  0  0  0  0  0  0  0  0
   37.5130   24.8950   40.6790 F   0  0  0  0  0  0  0  0  0  0  0  0
   36.4010   24.6920   42.5950 F   0  0  0  0  0  0  0  0  0  0  0  0
   38.6850   24.6150   42.5480 F   0  0  0  0  0  0  0  0  0  0  0  0
   33.9030   29.0610   38.3410 C   0  0  0  0  0  2  0  0  0  0  0  0
   33.1410   28.6910   37.1480 C   0  0  0  0  0  2  0  0  0  0  0  0
   33.4500   29.1140   36.1800 H   0  0  0  0  0  0  0  0  0  0  0  0
  1  7  1  6  0  0  0
  1 17  1  0  0  0  0
  2  9  1  0  0  0  0
  2  8  1  0  0  0  0
  2  1  1  0  0  0  0
  3  2  1  0  0  0  0
  4  3  1  0  0  0  0
  4  5  1  0  0  0  0
  5 14  1  0  0  0  0
  5  6  1  0  0  0  0
  6  1  1  0  0  0  0
  6 16  1  1  0  0  0
 10  3  1  0  0  0  0
 11  3  1  0  0  0  0
 12  4  1  0  0  0  0
 13  4  1  0  0  0  0
 15  5  1  0  0  0  0
 17 18  2  0  0  0  0
 17 23  1  0  0  0  0
 19 25  1  0  0  0  0
 20 19  1  0  0  0  0
 20 26  1  0  0  0  0
 21 20  2  0  0  0  0
 22 23  2  0  0  0  0
 22 21  1  0  0  0  0
 23 24  1  0  0  0  0
 24 19  2  0  0  0  0
 27 21  1  0  0  0  0
 27 30  1  0  0  0  0
 27 29  1  0  0  0  0
 28 27  1  0  0  0  0
 31  6  1  0  0  0  0
 32 31  1  0  0  0  0
 33 32  1  0  0  0  0
M  END
>  <minimizedAffinity>
-5.17084408

$$$$

 OpenBabel03242518523D

 33 34  0  0  1  0  0  0  0  0999 V2000
   37.5910   26.0750   41.8620 C   0  0  2  0  0  0  0  0  0  0  0  0
   37.0100   24.7850   42.2410 C   0  0  0  0  0  0  0  0  0  0  0  0
   37.6490   23.7550   41.3940 C   0  0  0  0  0  0  0  0  0  0  0  0
   38.6570   24.1820   40.4160 C   0  0  0  0  0  0  0  0  0  0  0  0
   39.5780   25.2960   40.7580 C   0  0  0  0  0  0  0  0  0  0  0  0
   39.0690   26.0670   41.9850 C   0  0  2  0  0  0  0  0  0  0  0  0
   37.3570   26.1870   40.7430 H   0  0  0  0  0  0  0  0  0  0  0  0
   35.8850   24.8910   41.9930 H   0  0  0  0  0  0  0  0  0  0  0  0
   36.9740   24.6360   43.3150 H   0  0  0  0  0  0  0  0  0  0  0  0
   37.9160   22.7930   41.9340 H   0  0  0  0  0  0  0  0  0  0  0  0
   36.7910   23.3140   40.7720 H   0  0  0  0  0  0  0  0  0  0  0  0
   38.1940   24.2620   39.3800 H   0  0  0  0  0  0  0  0  0  0  0  0
   39.3370   23.2810   40.2620 H   0  0  0  0  0  0  0  0  0  0  0  0
   39.6490   25.8480   39.8010 H   0  0  0  0  0  0  0  0  0  0  0  0
   40.6430   24.9970   40.9220 H   0  0  0  0  0  0  0  0  0  0  0  0
   39.5930   26.9590   41.5100 H   0  0  0  0  0  0  0  0  0  0  0  0
   36.9130   27.2520   42.4490 C   0  0  0  0  0  0  0  0  0  0  0  0
   36.6420   27.3780   43.6800 O   0  0  0  0  0  0  0  0  0  0  0  0
   36.5540   30.5890   41.0070 C   0  0  0  0  0  0  0  0  0  0  0  0
   35.7540   30.3810   39.8600 C   0  0  0  0  0  0  0  0  0  0  0  0
   35.3660   29.0770   39.6040 C   0  0  0  0  0  0  0  0  0  0  0  0
   35.8000   28.1600   40.4830 N   0  0  0  0  0  0  0  0  0  0  0  0
   36.5330   28.3320   41.5440 C   0  0  0  0  0  0  0  0  0  0  0  0
   36.9230   29.6020   41.8110 N   0  0  0  0  0  0  0  0  0  0  0  0
   36.8630   31.6180   41.2120 H   0  0  0  0  0  0  0  0  0  0  0  0
   35.4730   31.1960   39.2320 H   0  0  0  0  0  0  0  0  0  0  0  0
   34.4980   28.8580   38.4480 C   0  0  0  0  0  0  0  0  0  0  0  0
   34.5390   27.5290   38.0600 F   0  0  0  0  0  0  0  0  0  0  0  0
   35.0320   29.6060   37.4360 F   0  0  0  0  0  0  0  0  0  0  0  0
   33.1790   29.1670   38.7020 F   0  0  0  0  0  0  0  0  0  0  0  0
   39.7560   25.5530   43.1680 C   0  0  0  0  0  2  0  0  0  0  0  0
   41.1720   25.2020   43.2640 C   0  0  0  0  0  2  0  0  0  0  0  0
   41.4940   24.2220   42.8810 H   0  0  0  0  0  0  0  0  0  0  0  0
  1  7  1  6  0  0  0
  1  6  1  0  0  0  0
  1  2  1  0  0  0  0
  1 17  1  0  0  0  0
  2  9  1  0  0  0  0
  3 10  1  0  0  0  0
  3  2  1  0  0  0  0
  4  5  1  0  0  0  0
  4  3  1  0  0  0  0
  5 15  1  0  0  0  0
  5  6  1  0  0  0  0
  6 16  1  6  0  0  0
  6 31  1  0  0  0  0
  8  2  1  0  0  0  0
 11  3  1  0  0  0  0
 12  4  1  0  0  0  0
 13  4  1  0  0  0  0
 14  5  1  0  0  0  0
 17 18  2  0  0  0  0
 19 25  1  0  0  0  0
 19 24  1  0  0  0  0
 20 19  2  0  0  0  0
 21 20  1  0  0  0  0
 21 22  2  0  0  0  0
 22 23  1  0  0  0  0
 23 24  2  0  0  0  0
 23 17  1  0  0  0  0
 26 20  1  0  0  0  0
 27 30  1  0  0  0  0
 27 21  1  0  0  0  0
 28 27  1  0  0  0  0
 29 27  1  0  0  0  0
 31 32  1  0  0  0  0
 33 32  1  0  0  0  0
M  END
>  <minimizedAffinity>
-5.16887331

$$$$

 OpenBabel03242518523D

 33 34  0  0  1  0  0  0  0  0999 V2000
   37.9220   31.0570   39.8640 C   0  0  2  0  0  0  0  0  0  0  0  0
   36.9840   32.0360   39.3090 C   0  0  0  0  0  0  0  0  0  0  0  0
   37.4860   33.3760   39.6810 C   0  0  0  0  0  0  0  0  0  0  0  0
   38.7200   33.4670   40.4700 C   0  0  0  0  0  0  0  0  0  0  0  0
   39.8140   32.4930   40.2250 C   0  0  0  0  0  0  0  0  0  0  0  0
   39.3090   31.3000   39.3980 C   0  0  2  0  0  0  0  0  0  0  0  0
   37.9170   31.2540   40.9960 H   0  0  0  0  0  0  0  0  0  0  0  0
   35.9800   31.8040   39.8340 H   0  0  0  0  0  0  0  0  0  0  0  0
   36.7300   31.8380   38.2730 H   0  0  0  0  0  0  0  0  0  0  0  0
   37.4100   34.1580   38.8610 H   0  0  0  0  0  0  0  0  0  0  0  0
   36.6650   33.8200   40.3500 H   0  0  0  0  0  0  0  0  0  0  0  0
   38.4760   33.6250   41.5700 H   0  0  0  0  0  0  0  0  0  0  0  0
   39.1730   34.4810   40.2180 H   0  0  0  0  0  0  0  0  0  0  0  0
   40.1820   32.2860   41.2490 H   0  0  0  0  0  0  0  0  0  0  0  0
   40.7280   32.9190   39.7420 H   0  0  0  0  0  0  0  0  0  0  0  0
   40.1090   30.7110   39.9530 H   0  0  0  0  0  0  0  0  0  0  0  0
   37.4640   29.6520   39.7840 C   0  0  0  0  0  0  0  0  0  0  0  0
   37.0700   29.0910   38.7190 O   0  0  0  0  0  0  0  0  0  0  0  0
   37.5710   28.7890   43.3320 C   0  0  0  0  0  0  0  0  0  0  0  0
   37.5420   27.3770   43.3410 C   0  0  0  0  0  0  0  0  0  0  0  0
   37.4730   26.7510   42.1070 C   0  0  0  0  0  0  0  0  0  0  0  0
   37.4400   27.5690   41.0440 N   0  0  0  0  0  0  0  0  0  0  0  0
   37.4680   28.8700   41.0150 C   0  0  0  0  0  0  0  0  0  0  0  0
   37.5360   29.5000   42.2130 N   0  0  0  0  0  0  0  0  0  0  0  0
   37.6260   29.2870   44.3050 H   0  0  0  0  0  0  0  0  0  0  0  0
   37.5720   26.8320   44.2580 H   0  0  0  0  0  0  0  0  0  0  0  0
   37.4920   25.2890   42.1030 C   0  0  0  0  0  0  0  0  0  0  0  0
   37.4710   24.8120   40.8030 F   0  0  0  0  0  0  0  0  0  0  0  0
   36.3310   24.9010   42.7100 F   0  0  0  0  0  0  0  0  0  0  0  0
   38.6130   24.7660   42.7100 F   0  0  0  0  0  0  0  0  0  0  0  0
   39.6340   31.5430   37.9950 C   0  0  0  0  0  2  0  0  0  0  0  0
   40.7450   32.3490   37.4900 C   0  0  0  0  0  2  0  0  0  0  0  0
   40.6250   33.4420   37.4570 H   0  0  0  0  0  0  0  0  0  0  0  0
  1  7  1  1  0  0  0
  2  3  1  0  0  0  0
  2  8  1  0  0  0  0
  2  1  1  0  0  0  0
  3 11  1  0  0  0  0
  3  4  1  0  0  0  0
  4 12  1  0  0  0  0
  5  4  1  0  0  0  0
  5 14  1  0  0  0  0
  6  1  1  0  0  0  0
  6 16  1  1  0  0  0
  6  5  1  0  0  0  0
  9  2  1  0  0  0  0
 10  3  1  0  0  0  0
 13  4  1  0  0  0  0
 15  5  1  0  0  0  0
 17  1  1  0  0  0  0
 17 23  1  0  0  0  0
 18 17  2  0  0  0  0
 19 20  1  0  0  0  0
 19 25  1  0  0  0  0
 20 26  1  0  0  0  0
 21 20  2  0  0  0  0
 22 21  1  0  0  0  0
 23 22  2  0  0  0  0
 23 24  1  0  0  0  0
 24 19  2  0  0  0  0
 27 21  1  0  0  0  0
 27 29  1  0  0  0  0
 27 30  1  0  0  0  0
 28 27  1  0  0  0  0
 31  6  1  0  0  0  0
 32 31  1  0  0  0  0
 33 32  1  0  0  0  0
M  END
>  <minimizedAffinity>
-5.16754675

$$$$

 OpenBabel03242518523D

 33 34  0  0  1  0  0  0  0  0999 V2000
   37.4690   26.1090   41.7000 C   0  0  2  0  0  0  0  0  0  0  0  0
   36.8610   24.8680   42.1890 C   0  0  0  0  0  0  0  0  0  0  0  0
   37.1560   23.8180   41.1900 C   0  0  0  0  0  0  0  0  0  0  0  0
   37.9320   24.1840   39.9990 C   0  0  0  0  0  0  0  0  0  0  0  0
   39.0250   25.1830   40.1210 C   0  0  0  0  0  0  0  0  0  0  0  0
   38.9210   25.9460   41.4500 C   0  0  2  0  0  0  0  0  0  0  0  0
   36.9790   26.2940   40.6770 H   0  0  0  0  0  0  0  0  0  0  0  0
   35.7290   25.0990   42.2310 H   0  0  0  0  0  0  0  0  0  0  0  0
   37.0750   24.6760   43.2340 H   0  0  0  0  0  0  0  0  0  0  0  0
   37.4400   22.8100   41.6290 H   0  0  0  0  0  0  0  0  0  0  0  0
   36.1280   23.4950   40.7940 H   0  0  0  0  0  0  0  0  0  0  0  0
   37.2400   24.3570   39.1140 H   0  0  0  0  0  0  0  0  0  0  0  0
   38.4510   23.2260   39.6640 H   0  0  0  0  0  0  0  0  0  0  0  0
   38.9170   25.7670   39.1860 H   0  0  0  0  0  0  0  0  0  0  0  0
   40.0570   24.7700   40.0080 H   0  0  0  0  0  0  0  0  0  0  0  0
   39.4060   26.8010   40.8760 H   0  0  0  0  0  0  0  0  0  0  0  0
   37.0880   27.3200   42.4590 C   0  0  0  0  0  0  0  0  0  0  0  0
   36.3390   27.3160   43.4800 O   0  0  0  0  0  0  0  0  0  0  0  0
   39.0230   30.4160   42.3120 C   0  0  0  0  0  0  0  0  0  0  0  0
   38.5560   31.0550   41.1410 C   0  0  0  0  0  0  0  0  0  0  0  0
   37.5830   30.3860   40.4160 C   0  0  0  0  0  0  0  0  0  0  0  0
   37.1980   29.2020   40.9180 N   0  0  0  0  0  0  0  0  0  0  0  0
   37.6130   28.6000   41.9940 C   0  0  0  0  0  0  0  0  0  0  0  0
   38.5660   29.2390   42.7160 N   0  0  0  0  0  0  0  0  0  0  0  0
   39.7920   30.9410   42.8860 H   0  0  0  0  0  0  0  0  0  0  0  0
   38.9420   32.0020   40.8400 H   0  0  0  0  0  0  0  0  0  0  0  0
   37.0570   31.0610   39.2300 C   0  0  0  0  0  0  0  0  0  0  0  0
   36.6960   32.3630   39.5380 F   0  0  0  0  0  0  0  0  0  0  0  0
   35.9220   30.3810   38.8890 F   0  0  0  0  0  0  0  0  0  0  0  0
   37.9710   31.1250   38.2010 F   0  0  0  0  0  0  0  0  0  0  0  0
   39.8170   25.3120   42.4140 C   0  0  0  0  0  2  0  0  0  0  0  0
   40.2760   25.8860   43.6790 C   0  0  0  0  0  2  0  0  0  0  0  0
   41.1130   26.6010   43.6540 H   0  0  0  0  0  0  0  0  0  0  0  0
  1  7  1  6  0  0  0
  1  2  1  0  0  0  0
  1 17  1  0  0  0  0
  2  8  1  0  0  0  0
  2  9  1  0  0  0  0
  3 10  1  0  0  0  0
  3  2  1  0  0  0  0
  4  5  1  0  0  0  0
  4  3  1  0  0  0  0
  5  6  1  0  0  0  0
  6 16  1  6  0  0  0
  6  1  1  0  0  0  0
  6 31  1  0  0  0  0
 11  3  1  0  0  0  0
 12  4  1  0  0  0  0
 13  4  1  0  0  0  0
 14  5  1  0  0  0  0
 15  5  1  0  0  0  0
 17 18  2  0  0  0  0
 19 24  1  0  0  0  0
 19 25  1  0  0  0  0
 20 19  2  0  0  0  0
 21 22  2  0  0  0  0
 21 20  1  0  0  0  0
 22 23  1  0  0  0  0
 23 17  1  0  0  0  0
 23 24  2  0  0  0  0
 26 20  1  0  0  0  0
 27 28  1  0  0  0  0
 27 21  1  0  0  0  0
 29 27  1  0  0  0  0
 30 27  1  0  0  0  0
 31 32  1  0  0  0  0
 33 32  1  0  0  0  0
M  END
>  <minimizedAffinity>
-5.04854345

$$$$
