
 OpenBabel03252509233D

 21 22  0  0  1  0  0  0  0  0999 V2000
   44.6340   35.4170   45.1520 C   0  0  0  0  0  0  0  0  0  0  0  0
   45.1120   35.7130   43.8370 C   0  0  0  0  0  0  0  0  0  0  0  0
   46.0680   34.8490   43.3730 C   0  0  0  0  0  0  0  0  0  0  0  0
   46.5340   33.7750   44.1280 N   0  0  0  0  0  0  0  0  0  0  0  0
   46.0430   33.5600   45.3510 C   0  0  0  0  0  0  0  0  0  0  0  0
   45.0900   34.3800   45.8680 N   0  0  0  0  0  0  0  0  0  0  0  0
   43.8750   36.0740   45.5610 H   0  0  0  0  0  0  0  0  0  0  0  0
   46.4960   32.6960   45.8170 H   0  0  0  0  0  0  0  0  0  0  0  0
   46.5620   35.0320   41.9560 C   0  0  1  0  0  0  0  0  0  0  0  0
   48.0870   35.3170   41.9550 C   0  0  0  0  0  0  0  0  0  0  0  0
   47.3970   34.0420   41.3820 C   0  0  2  0  0  0  0  0  0  0  0  0
   45.9960   35.7720   41.3620 H   0  0  0  0  0  0  0  0  0  0  0  0
   48.4740   36.0110   41.1950 H   0  0  0  0  0  0  0  0  0  0  0  0
   48.6560   35.2130   42.8740 H   0  0  0  0  0  0  0  0  0  0  0  0
   47.7480   33.1200   41.8880 H   0  0  0  0  0  0  0  0  0  0  0  0
   47.4030   33.9270   39.8640 C   0  0  0  0  0  2  0  0  0  0  0  0
   46.1540   33.2460   39.3930 C   0  0  0  0  0  2  0  0  0  0  0  0
   46.3930   32.2090   39.1040 H   0  0  0  0  0  0  0  0  0  0  0  0
   44.6600   36.8330   43.0840 N   0  0  0  0  0  0  0  0  0  0  0  0
   44.5810   37.7670   43.5810 H   0  0  0  0  0  0  0  0  0  0  0  0
   44.4050   36.8150   42.0970 H   0  0  0  0  0  0  0  0  0  0  0  0
  1  7  1  0  0  0  0
  1  6  1  0  0  0  0
  2  1  2  0  0  0  0
  3  2  1  0  0  0  0
  3  4  2  0  0  0  0
  4  5  1  0  0  0  0
  5  8  1  0  0  0  0
  5  6  2  0  0  0  0
  9 12  1  6  0  0  0
  9  3  1  0  0  0  0
 10  9  1  0  0  0  0
 10 14  1  0  0  0  0
 11 15  1  1  0  0  0
 11 10  1  0  0  0  0
 11  9  1  0  0  0  0
 13 10  1  0  0  0  0
 16 11  1  0  0  0  0
 17 16  1  0  0  0  0
 18 17  1  0  0  0  0
 19 20  1  0  0  0  0
 19  2  1  0  0  0  0
 21 19  1  0  0  0  0
M  END
>  <minimizedAffinity>
-4.2600913

>  <minimizedRMSD>
0.531519771

$$$$
