
 OpenBabel03252507343D

 43 45  0  0  1  0  0  0  0  0999 V2000
   38.6780   32.3410   40.9430 C   0  0  2  0  0  0  0  0  0  0  0  0
   37.8610   33.4250   40.1800 C   0  0  0  0  0  0  0  0  0  0  0  0
   38.6000   34.7230   40.2290 C   0  0  0  0  0  0  0  0  0  0  0  0
   40.0640   34.6490   39.9490 C   0  0  0  0  0  0  0  0  0  0  0  0
   40.7150   33.4870   40.5110 C   0  0  0  0  0  0  0  0  0  0  0  0
   39.9500   32.1680   40.2680 C   0  0  2  0  0  0  0  0  0  0  0  0
   38.7850   32.7880   41.9470 H   0  0  0  0  0  0  0  0  0  0  0  0
   37.5910   33.1030   39.1760 H   0  0  0  0  0  0  0  0  0  0  0  0
   36.9140   33.4960   40.7530 H   0  0  0  0  0  0  0  0  0  0  0  0
   38.3040   35.2020   41.1830 H   0  0  0  0  0  0  0  0  0  0  0  0
   38.1650   35.3930   39.4410 H   0  0  0  0  0  0  0  0  0  0  0  0
   40.4300   35.4470   40.7150 H   0  0  0  0  0  0  0  0  0  0  0  0
   40.4610   35.2000   39.1010 H   0  0  0  0  0  0  0  0  0  0  0  0
   41.7310   33.3720   40.0400 H   0  0  0  0  0  0  0  0  0  0  0  0
   40.9120   33.4560   41.6030 H   0  0  0  0  0  0  0  0  0  0  0  0
   40.6730   31.4410   40.6420 H   0  0  0  0  0  0  0  0  0  0  0  0
   37.9330   31.1040   41.0630 C   0  0  0  0  0  0  0  0  0  0  0  0
   36.6180   31.1050   40.6190 C   0  0  0  0  0  0  0  0  0  0  0  0
   35.8410   29.9290   40.7350 C   0  0  0  0  0  0  0  0  0  0  0  0
   36.4750   28.8220   41.3010 N   0  0  0  0  0  0  0  0  0  0  0  0
   37.7440   28.8880   41.7060 C   0  0  0  0  0  0  0  0  0  0  0  0
   38.4630   30.0070   41.5910 N   0  0  0  0  0  0  0  0  0  0  0  0
   35.9660   31.8000   40.1390 H   0  0  0  0  0  0  0  0  0  0  0  0
   34.8320   29.7520   40.4540 H   0  0  0  0  0  0  0  0  0  0  0  0
   38.3530   27.6820   42.2750 C   0  0  0  0  0  0  0  0  0  0  0  0
   39.3110   27.7640   43.2580 C   0  0  0  0  0  0  0  0  0  0  0  0
   39.9360   26.6960   43.8520 C   0  0  0  0  0  0  0  0  0  0  0  0
   39.5240   25.4710   43.3790 C   0  0  0  0  0  0  0  0  0  0  0  0
   38.5550   25.3530   42.3820 C   0  0  0  0  0  0  0  0  0  0  0  0
   37.9750   26.4700   41.8380 N   0  0  0  0  0  0  0  0  0  0  0  0
   39.5950   28.7740   43.5910 H   0  0  0  0  0  0  0  0  0  0  0  0
   40.6810   26.7630   44.6160 H   0  0  0  0  0  0  0  0  0  0  0  0
   39.9240   24.5280   43.7480 H   0  0  0  0  0  0  0  0  0  0  0  0
   38.1050   24.0490   41.8680 C   0  0  0  0  0  2  0  0  0  0  0  0
   36.7210   24.1370   41.2450 C   0  0  0  0  0  2  0  0  0  0  0  0
   36.8350   24.5970   40.2320 H   0  0  0  0  0  0  0  0  0  0  0  0
   39.7330   32.0100   38.8280 N   0  0  0  0  0  0  0  0  0  0  0  0
   40.6160   31.7180   37.7730 C   0  0  0  0  0  0  0  0  0  0  0  0
   41.0650   30.5380   37.5460 O   0  0  0  0  0  0  0  0  0  0  0  0
   40.9710   32.8410   36.9620 N   0  0  0  0  0  0  0  0  0  0  0  0
   38.7590   32.1900   38.3750 H   0  0  0  0  0  0  0  0  0  0  0  0
   41.9920   33.0460   36.7870 H   0  0  0  0  0  0  0  0  0  0  0  0
   40.3480   33.5310   36.4880 H   0  0  0  0  0  0  0  0  0  0  0  0
  1 17  1  0  0  0  0
  1  7  1  1  0  0  0
  2  3  1  0  0  0  0
  2  9  1  0  0  0  0
  2  1  1  0  0  0  0
  3 10  1  0  0  0  0
  4  3  1  0  0  0  0
  4  5  1  0  0  0  0
  4 12  1  0  0  0  0
  5 15  1  0  0  0  0
  6  5  1  0  0  0  0
  6 16  1  1  0  0  0
  6  1  1  0  0  0  0
  8  2  1  0  0  0  0
 11  3  1  0  0  0  0
 13  4  1  0  0  0  0
 14  5  1  0  0  0  0
 17 22  1  0  0  0  0
 18 19  1  0  0  0  0
 18 17  2  0  0  0  0
 19 20  2  0  0  0  0
 20 21  1  0  0  0  0
 21 25  1  0  0  0  0
 22 21  2  0  0  0  0
 23 18  1  0  0  0  0
 24 19  1  0  0  0  0
 25 26  1  0  0  0  0
 26 31  1  0  0  0  0
 26 27  2  0  0  0  0
 27 32  1  0  0  0  0
 28 33  1  0  0  0  0
 28 27  1  0  0  0  0
 29 28  2  0  0  0  0
 30 25  2  0  0  0  0
 30 29  1  0  0  0  0
 34 29  1  0  0  0  0
 35 34  1  0  0  0  0
 36 35  1  0  0  0  0
 37  6  1  0  0  0  0
 38 37  1  0  0  0  0
 39 38  2  0  0  0  0
 40 38  1  0  0  0  0
 41 37  1  0  0  0  0
 42 40  1  0  0  0  0
 43 40  1  0  0  0  0
M  END
>  <minimizedAffinity>
-6.726542

$$$$

 OpenBabel03252507343D

 43 45  0  0  1  0  0  0  0  0999 V2000
   38.1710   31.7650   40.8030 C   0  0  2  0  0  0  0  0  0  0  0  0
   37.3580   32.8020   39.9740 C   0  0  0  0  0  0  0  0  0  0  0  0
   38.0490   34.1260   40.0290 C   0  0  0  0  0  0  0  0  0  0  0  0
   39.5270   34.0970   39.8260 C   0  0  0  0  0  0  0  0  0  0  0  0
   40.1880   32.9720   40.4470 C   0  0  0  0  0  0  0  0  0  0  0  0
   39.4810   31.6220   40.1980 C   0  0  2  0  0  0  0  0  0  0  0  0
   38.2110   32.2370   41.8000 H   0  0  0  0  0  0  0  0  0  0  0  0
   37.1510   32.4490   38.9660 H   0  0  0  0  0  0  0  0  0  0  0  0
   36.3810   32.8520   40.4970 H   0  0  0  0  0  0  0  0  0  0  0  0
   37.6890   34.6150   40.9550 H   0  0  0  0  0  0  0  0  0  0  0  0
   37.6320   34.7630   39.2050 H   0  0  0  0  0  0  0  0  0  0  0  0
   39.8260   34.9250   40.5900 H   0  0  0  0  0  0  0  0  0  0  0  0
   39.9480   34.6430   38.9860 H   0  0  0  0  0  0  0  0  0  0  0  0
   41.2300   32.8820   40.0310 H   0  0  0  0  0  0  0  0  0  0  0  0
   40.3290   32.9720   41.5490 H   0  0  0  0  0  0  0  0  0  0  0  0
   40.2090   30.9290   40.6240 H   0  0  0  0  0  0  0  0  0  0  0  0
   37.4630   30.5050   40.9140 C   0  0  0  0  0  0  0  0  0  0  0  0
   36.1260   30.4890   40.5450 C   0  0  0  0  0  0  0  0  0  0  0  0
   35.3850   29.2900   40.6570 C   0  0  0  0  0  0  0  0  0  0  0  0
   36.0760   28.1780   41.1420 N   0  0  0  0  0  0  0  0  0  0  0  0
   37.3640   28.2620   41.4770 C   0  0  0  0  0  0  0  0  0  0  0  0
   38.0490   29.4020   41.3670 N   0  0  0  0  0  0  0  0  0  0  0  0
   35.4310   31.1850   40.1310 H   0  0  0  0  0  0  0  0  0  0  0  0
   34.3660   29.0980   40.4260 H   0  0  0  0  0  0  0  0  0  0  0  0
   38.0320   27.0500   41.9620 C   0  0  0  0  0  0  0  0  0  0  0  0
   37.5120   25.8010   41.7120 C   0  0  0  0  0  0  0  0  0  0  0  0
   38.0630   24.6130   42.1210 C   0  0  0  0  0  0  0  0  0  0  0  0
   39.2310   24.7530   42.8360 C   0  0  0  0  0  0  0  0  0  0  0  0
   39.7840   26.0050   43.1070 C   0  0  0  0  0  0  0  0  0  0  0  0
   39.1740   27.1480   42.6630 N   0  0  0  0  0  0  0  0  0  0  0  0
   36.5760   25.7620   41.1350 H   0  0  0  0  0  0  0  0  0  0  0  0
   37.6560   23.6440   41.9250 H   0  0  0  0  0  0  0  0  0  0  0  0
   39.7890   23.9050   43.2310 H   0  0  0  0  0  0  0  0  0  0  0  0
   41.0330   26.1670   43.8710 C   0  0  0  0  0  2  0  0  0  0  0  0
   42.1760   25.3800   43.2520 C   0  0  0  0  0  2  0  0  0  0  0  0
   42.5400   25.9540   42.3630 H   0  0  0  0  0  0  0  0  0  0  0  0
   39.3440   31.4240   38.7520 N   0  0  0  0  0  0  0  0  0  0  0  0
   40.3000   31.2840   37.7300 C   0  0  0  0  0  0  0  0  0  0  0  0
   40.9510   30.1980   37.5280 O   0  0  0  0  0  0  0  0  0  0  0  0
   40.4860   32.4490   36.9220 N   0  0  0  0  0  0  0  0  0  0  0  0
   38.3690   31.4330   38.2650 H   0  0  0  0  0  0  0  0  0  0  0  0
   41.4620   32.8250   36.7790 H   0  0  0  0  0  0  0  0  0  0  0  0
   39.7700   33.0210   36.4210 H   0  0  0  0  0  0  0  0  0  0  0  0
  1 17  1  0  0  0  0
  1  7  1  1  0  0  0
  2  3  1  0  0  0  0
  2  9  1  0  0  0  0
  2  1  1  0  0  0  0
  3 10  1  0  0  0  0
  4  3  1  0  0  0  0
  4  5  1  0  0  0  0
  4 12  1  0  0  0  0
  5 15  1  0  0  0  0
  6  5  1  0  0  0  0
  6 16  1  1  0  0  0
  6  1  1  0  0  0  0
  8  2  1  0  0  0  0
 11  3  1  0  0  0  0
 13  4  1  0  0  0  0
 14  5  1  0  0  0  0
 17 22  1  0  0  0  0
 18 19  1  0  0  0  0
 18 17  2  0  0  0  0
 19 20  2  0  0  0  0
 20 21  1  0  0  0  0
 21 25  1  0  0  0  0
 22 21  2  0  0  0  0
 23 18  1  0  0  0  0
 24 19  1  0  0  0  0
 25 30  1  0  0  0  0
 26 25  2  0  0  0  0
 26 27  1  0  0  0  0
 27 28  2  0  0  0  0
 28 29  1  0  0  0  0
 28 33  1  0  0  0  0
 29 34  1  0  0  0  0
 30 29  2  0  0  0  0
 31 26  1  0  0  0  0
 32 27  1  0  0  0  0
 35 34  1  0  0  0  0
 36 35  1  0  0  0  0
 37  6  1  0  0  0  0
 38 37  1  0  0  0  0
 39 38  2  0  0  0  0
 40 38  1  0  0  0  0
 41 37  1  0  0  0  0
 42 40  1  0  0  0  0
 43 40  1  0  0  0  0
M  END
>  <minimizedAffinity>
-6.42102432

$$$$

 OpenBabel03252507343D

 43 45  0  0  1  0  0  0  0  0999 V2000
   38.1270   26.6050   39.9800 C   0  0  2  0  0  0  0  0  0  0  0  0
   36.7720   25.8390   39.9560 C   0  0  0  0  0  0  0  0  0  0  0  0
   36.8910   24.6020   40.7850 C   0  0  0  0  0  0  0  0  0  0  0  0
   37.5570   24.7690   42.1100 C   0  0  0  0  0  0  0  0  0  0  0  0
   38.6820   25.6760   42.0960 C   0  0  0  0  0  0  0  0  0  0  0  0
   38.4050   26.9980   41.3480 C   0  0  2  0  0  0  0  0  0  0  0  0
   38.8350   25.8470   39.6010 H   0  0  0  0  0  0  0  0  0  0  0  0
   35.9340   26.4790   40.2270 H   0  0  0  0  0  0  0  0  0  0  0  0
   36.6340   25.5780   38.8860 H   0  0  0  0  0  0  0  0  0  0  0  0
   37.3160   23.8300   40.1140 H   0  0  0  0  0  0  0  0  0  0  0  0
   35.8530   24.2340   41.0010 H   0  0  0  0  0  0  0  0  0  0  0  0
   38.1400   23.7600   42.1420 H   0  0  0  0  0  0  0  0  0  0  0  0
   36.9930   24.5360   43.0090 H   0  0  0  0  0  0  0  0  0  0  0  0
   38.9500   25.9450   43.1560 H   0  0  0  0  0  0  0  0  0  0  0  0
   39.6400   25.3380   41.6460 H   0  0  0  0  0  0  0  0  0  0  0  0
   39.3120   27.5580   41.5830 H   0  0  0  0  0  0  0  0  0  0  0  0
   38.1160   27.7290   39.0640 C   0  0  0  0  0  0  0  0  0  0  0  0
   37.9820   27.4480   37.7120 C   0  0  0  0  0  0  0  0  0  0  0  0
   37.9890   28.5080   36.7750 C   0  0  0  0  0  0  0  0  0  0  0  0
   38.1320   29.7940   37.2970 N   0  0  0  0  0  0  0  0  0  0  0  0
   38.2550   29.9940   38.6100 C   0  0  0  0  0  0  0  0  0  0  0  0
   38.2480   28.9830   39.4810 N   0  0  0  0  0  0  0  0  0  0  0  0
   37.8290   26.5760   37.1160 H   0  0  0  0  0  0  0  0  0  0  0  0
   37.9010   28.4790   35.7160 H   0  0  0  0  0  0  0  0  0  0  0  0
   38.3830   31.3730   39.0910 C   0  0  0  0  0  0  0  0  0  0  0  0
   37.2980   32.2180   39.1280 C   0  0  0  0  0  0  0  0  0  0  0  0
   37.3170   33.5200   39.5610 C   0  0  0  0  0  0  0  0  0  0  0  0
   38.5550   33.9540   39.9790 C   0  0  0  0  0  0  0  0  0  0  0  0
   39.6750   33.1230   39.9530 C   0  0  0  0  0  0  0  0  0  0  0  0
   39.5750   31.8310   39.5060 N   0  0  0  0  0  0  0  0  0  0  0  0
   36.3380   31.8070   38.7790 H   0  0  0  0  0  0  0  0  0  0  0  0
   36.4720   34.1740   39.5880 H   0  0  0  0  0  0  0  0  0  0  0  0
   38.7360   34.9620   40.3500 H   0  0  0  0  0  0  0  0  0  0  0  0
   41.0040   33.5750   40.3970 C   0  0  0  0  0  2  0  0  0  0  0  0
   41.9770   32.4150   40.5290 C   0  0  0  0  0  2  0  0  0  0  0  0
   42.3170   32.1400   39.4990 H   0  0  0  0  0  0  0  0  0  0  0  0
   37.2210   27.6310   41.9360 N   0  0  0  0  0  0  0  0  0  0  0  0
   37.0550   28.8370   42.6390 C   0  0  0  0  0  0  0  0  0  0  0  0
   37.0280   29.9830   42.0620 O   0  0  0  0  0  0  0  0  0  0  0  0
   36.9070   28.6880   44.0540 N   0  0  0  0  0  0  0  0  0  0  0  0
   36.2520   27.1330   41.9400 H   0  0  0  0  0  0  0  0  0  0  0  0
   37.5270   29.2500   44.6970 H   0  0  0  0  0  0  0  0  0  0  0  0
   36.2450   28.0790   44.5840 H   0  0  0  0  0  0  0  0  0  0  0  0
  1  7  1  6  0  0  0
  1  6  1  0  0  0  0
  2  1  1  0  0  0  0
  2  8  1  0  0  0  0
  2  3  1  0  0  0  0
  3 11  1  0  0  0  0
  3  4  1  0  0  0  0
  4 12  1  0  0  0  0
  4 13  1  0  0  0  0
  5  4  1  0  0  0  0
  5 14  1  0  0  0  0
  6 16  1  1  0  0  0
  6 37  1  0  0  0  0
  6  5  1  0  0  0  0
  9  2  1  0  0  0  0
 10  3  1  0  0  0  0
 15  5  1  0  0  0  0
 17 22  1  0  0  0  0
 17  1  1  0  0  0  0
 18 17  2  0  0  0  0
 19 20  2  0  0  0  0
 19 18  1  0  0  0  0
 20 21  1  0  0  0  0
 21 25  1  0  0  0  0
 21 22  2  0  0  0  0
 23 18  1  0  0  0  0
 24 19  1  0  0  0  0
 25 26  2  0  0  0  0
 25 30  1  0  0  0  0
 26 27  1  0  0  0  0
 27 32  1  0  0  0  0
 27 28  2  0  0  0  0
 28 33  1  0  0  0  0
 29 28  1  0  0  0  0
 29 34  1  0  0  0  0
 30 29  2  0  0  0  0
 31 26  1  0  0  0  0
 34 35  1  0  0  0  0
 36 35  1  0  0  0  0
 37 41  1  0  0  0  0
 37 38  1  0  0  0  0
 38 40  1  0  0  0  0
 39 38  2  0  0  0  0
 40 43  1  0  0  0  0
 40 42  1  0  0  0  0
M  END
>  <minimizedAffinity>
-5.78734732

$$$$

 OpenBabel03252507343D

 43 45  0  0  1  0  0  0  0  0999 V2000
   39.3200   32.0620   39.3200 C   0  0  2  0  0  0  0  0  0  0  0  0
   40.2500   31.2010   38.4160 C   0  0  0  0  0  0  0  0  0  0  0  0
   41.0460   32.1020   37.5300 C   0  0  0  0  0  0  0  0  0  0  0  0
   41.6510   33.2960   38.1910 C   0  0  0  0  0  0  0  0  0  0  0  0
   40.8040   33.9140   39.1850 C   0  0  0  0  0  0  0  0  0  0  0  0
   40.1490   32.9070   40.1560 C   0  0  2  0  0  0  0  0  0  0  0  0
   38.7350   32.6370   38.5800 H   0  0  0  0  0  0  0  0  0  0  0  0
   40.8490   30.5010   38.9950 H   0  0  0  0  0  0  0  0  0  0  0  0
   39.5450   30.5900   37.8160 H   0  0  0  0  0  0  0  0  0  0  0  0
   40.4060   32.2990   36.6480 H   0  0  0  0  0  0  0  0  0  0  0  0
   41.9030   31.5060   37.1180 H   0  0  0  0  0  0  0  0  0  0  0  0
   41.5070   34.0670   37.3280 H   0  0  0  0  0  0  0  0  0  0  0  0
   42.7320   33.4050   38.1820 H   0  0  0  0  0  0  0  0  0  0  0  0
   41.4220   34.6210   39.8070 H   0  0  0  0  0  0  0  0  0  0  0  0
   39.9390   34.5260   38.8500 H   0  0  0  0  0  0  0  0  0  0  0  0
   39.6890   33.5880   40.8750 H   0  0  0  0  0  0  0  0  0  0  0  0
   38.4110   31.2330   40.0860 C   0  0  0  0  0  0  0  0  0  0  0  0
   37.1170   31.7020   40.2650 C   0  0  0  0  0  0  0  0  0  0  0  0
   36.1980   30.9410   41.0250 C   0  0  0  0  0  0  0  0  0  0  0  0
   36.6740   29.7390   41.5500 N   0  0  0  0  0  0  0  0  0  0  0  0
   37.9310   29.3460   41.3380 C   0  0  0  0  0  0  0  0  0  0  0  0
   38.7870   30.0770   40.6210 N   0  0  0  0  0  0  0  0  0  0  0  0
   36.5480   32.5430   39.9370 H   0  0  0  0  0  0  0  0  0  0  0  0
   35.1820   31.1440   41.2640 H   0  0  0  0  0  0  0  0  0  0  0  0
   38.3600   28.0630   41.9050 C   0  0  0  0  0  0  0  0  0  0  0  0
   39.5390   27.9520   42.6040 C   0  0  0  0  0  0  0  0  0  0  0  0
   40.0230   26.8000   43.1700 C   0  0  0  0  0  0  0  0  0  0  0  0
   39.2140   25.7020   42.9880 C   0  0  0  0  0  0  0  0  0  0  0  0
   38.0120   25.7810   42.2830 C   0  0  0  0  0  0  0  0  0  0  0  0
   37.5950   26.9710   41.7460 N   0  0  0  0  0  0  0  0  0  0  0  0
   40.1390   28.8690   42.7130 H   0  0  0  0  0  0  0  0  0  0  0  0
   40.9410   26.7170   43.7140 H   0  0  0  0  0  0  0  0  0  0  0  0
   39.4580   24.7140   43.3760 H   0  0  0  0  0  0  0  0  0  0  0  0
   37.1370   24.6140   42.0800 C   0  0  0  0  0  2  0  0  0  0  0  0
   37.7780   23.5840   41.1640 C   0  0  0  0  0  2  0  0  0  0  0  0
   38.5370   23.0220   41.7650 H   0  0  0  0  0  0  0  0  0  0  0  0
   41.2050   32.1070   40.7830 N   0  0  0  0  0  0  0  0  0  0  0  0
   41.5560   31.9080   42.1300 C   0  0  0  0  0  0  0  0  0  0  0  0
   40.8990   31.1350   42.9150 O   0  0  0  0  0  0  0  0  0  0  0  0
   42.7140   32.6290   42.5590 N   0  0  0  0  0  0  0  0  0  0  0  0
   41.9490   31.5780   40.1870 H   0  0  0  0  0  0  0  0  0  0  0  0
   42.6540   33.2290   43.4250 H   0  0  0  0  0  0  0  0  0  0  0  0
   43.6650   32.6600   42.1280 H   0  0  0  0  0  0  0  0  0  0  0  0
  1  7  1  6  0  0  0
  1 17  1  0  0  0  0
  1  6  1  0  0  0  0
  2  8  1  0  0  0  0
  2  1  1  0  0  0  0
  3  4  1  0  0  0  0
  3  2  1  0  0  0  0
  4  5  1  0  0  0  0
  5 14  1  0  0  0  0
  5  6  1  0  0  0  0
  6 37  1  0  0  0  0
  6 16  1  1  0  0  0
  9  2  1  0  0  0  0
 10  3  1  0  0  0  0
 11  3  1  0  0  0  0
 12  4  1  0  0  0  0
 13  4  1  0  0  0  0
 15  5  1  0  0  0  0
 17 18  2  0  0  0  0
 17 22  1  0  0  0  0
 18 19  1  0  0  0  0
 19 24  1  0  0  0  0
 19 20  2  0  0  0  0
 21 20  1  0  0  0  0
 21 25  1  0  0  0  0
 22 21  2  0  0  0  0
 23 18  1  0  0  0  0
 25 26  1  0  0  0  0
 26 31  1  0  0  0  0
 26 27  2  0  0  0  0
 27 32  1  0  0  0  0
 28 27  1  0  0  0  0
 28 33  1  0  0  0  0
 29 28  2  0  0  0  0
 30 25  2  0  0  0  0
 30 29  1  0  0  0  0
 34 29  1  0  0  0  0
 35 36  1  0  0  0  0
 35 34  1  0  0  0  0
 37 38  1  0  0  0  0
 38 40  1  0  0  0  0
 38 39  2  0  0  0  0
 40 42  1  0  0  0  0
 41 37  1  0  0  0  0
 43 40  1  0  0  0  0
M  END
>  <minimizedAffinity>
-5.77274323

$$$$

 OpenBabel03252507343D

 43 45  0  0  1  0  0  0  0  0999 V2000
   38.5460   31.5410   41.0900 C   0  0  2  0  0  0  0  0  0  0  0  0
   37.3350   32.0910   40.2810 C   0  0  0  0  0  0  0  0  0  0  0  0
   37.5160   33.5560   40.0580 C   0  0  0  0  0  0  0  0  0  0  0  0
   38.8780   33.9840   39.6220 C   0  0  0  0  0  0  0  0  0  0  0  0
   39.9560   33.2670   40.2640 C   0  0  0  0  0  0  0  0  0  0  0  0
   39.7480   31.7370   40.3030 C   0  0  2  0  0  0  0  0  0  0  0  0
   38.5260   32.1660   42.0010 H   0  0  0  0  0  0  0  0  0  0  0  0
   37.1570   31.5190   39.3720 H   0  0  0  0  0  0  0  0  0  0  0  0
   36.4660   31.9040   40.9450 H   0  0  0  0  0  0  0  0  0  0  0  0
   37.1100   34.0510   40.9610 H   0  0  0  0  0  0  0  0  0  0  0  0
   36.8140   33.8660   39.2390 H   0  0  0  0  0  0  0  0  0  0  0  0
   38.9480   34.9830   40.2180 H   0  0  0  0  0  0  0  0  0  0  0  0
   38.9850   34.4840   38.6640 H   0  0  0  0  0  0  0  0  0  0  0  0
   40.9110   33.4570   39.6990 H   0  0  0  0  0  0  0  0  0  0  0  0
   40.2080   33.5050   41.3190 H   0  0  0  0  0  0  0  0  0  0  0  0
   40.7150   31.4100   40.6900 H   0  0  0  0  0  0  0  0  0  0  0  0
   38.3440   30.1580   41.4720 C   0  0  0  0  0  0  0  0  0  0  0  0
   38.7800   29.7740   42.7320 C   0  0  0  0  0  0  0  0  0  0  0  0
   38.6280   28.4290   43.1440 C   0  0  0  0  0  0  0  0  0  0  0  0
   38.0290   27.5650   42.2260 N   0  0  0  0  0  0  0  0  0  0  0  0
   37.6310   28.0000   41.0300 C   0  0  0  0  0  0  0  0  0  0  0  0
   37.7840   29.2720   40.6560 N   0  0  0  0  0  0  0  0  0  0  0  0
   39.2160   30.2560   43.5790 H   0  0  0  0  0  0  0  0  0  0  0  0
   38.9020   27.9640   44.0590 H   0  0  0  0  0  0  0  0  0  0  0  0
   36.9930   27.0420   40.1220 C   0  0  0  0  0  0  0  0  0  0  0  0
   36.4050   27.4560   38.9480 C   0  0  0  0  0  0  0  0  0  0  0  0
   35.7870   26.6380   38.0370 C   0  0  0  0  0  0  0  0  0  0  0  0
   35.7910   25.3060   38.3840 C   0  0  0  0  0  0  0  0  0  0  0  0
   36.3770   24.8540   39.5670 C   0  0  0  0  0  0  0  0  0  0  0  0
   36.9770   25.7350   40.4290 N   0  0  0  0  0  0  0  0  0  0  0  0
   36.4380   28.5340   38.7310 H   0  0  0  0  0  0  0  0  0  0  0  0
   35.3310   26.9620   37.1260 H   0  0  0  0  0  0  0  0  0  0  0  0
   35.3400   24.5300   37.7670 H   0  0  0  0  0  0  0  0  0  0  0  0
   36.3870   23.4330   39.9510 C   0  0  0  0  0  2  0  0  0  0  0  0
   37.6800   23.0500   40.6540 C   0  0  0  0  0  2  0  0  0  0  0  0
   37.6160   23.4250   41.7060 H   0  0  0  0  0  0  0  0  0  0  0  0
   39.5330   31.2580   38.9350 N   0  0  0  0  0  0  0  0  0  0  0  0
   40.3670   31.2460   37.8040 C   0  0  0  0  0  0  0  0  0  0  0  0
   41.3170   30.3990   37.6460 O   0  0  0  0  0  0  0  0  0  0  0  0
   40.0690   32.2520   36.8310 N   0  0  0  0  0  0  0  0  0  0  0  0
   38.5640   30.8780   38.6100 H   0  0  0  0  0  0  0  0  0  0  0  0
   40.8440   32.8820   36.4890 H   0  0  0  0  0  0  0  0  0  0  0  0
   39.1550   32.4750   36.3780 H   0  0  0  0  0  0  0  0  0  0  0  0
  1 17  1  0  0  0  0
  1  7  1  1  0  0  0
  2  9  1  0  0  0  0
  2  1  1  0  0  0  0
  3  2  1  0  0  0  0
  3 10  1  0  0  0  0
  4  3  1  0  0  0  0
  4 12  1  0  0  0  0
  4  5  1  0  0  0  0
  5  6  1  0  0  0  0
  5 15  1  0  0  0  0
  6 16  1  1  0  0  0
  6  1  1  0  0  0  0
  8  2  1  0  0  0  0
 11  3  1  0  0  0  0
 13  4  1  0  0  0  0
 14  5  1  0  0  0  0
 17 18  1  0  0  0  0
 18 19  2  0  0  0  0
 18 23  1  0  0  0  0
 19 24  1  0  0  0  0
 20 19  1  0  0  0  0
 21 20  2  0  0  0  0
 22 21  1  0  0  0  0
 22 17  2  0  0  0  0
 25 30  1  0  0  0  0
 25 21  1  0  0  0  0
 26 25  2  0  0  0  0
 27 28  2  0  0  0  0
 27 26  1  0  0  0  0
 28 29  1  0  0  0  0
 29 34  1  0  0  0  0
 29 30  2  0  0  0  0
 31 26  1  0  0  0  0
 32 27  1  0  0  0  0
 33 28  1  0  0  0  0
 34 35  1  0  0  0  0
 35 36  1  0  0  0  0
 37  6  1  0  0  0  0
 38 37  1  0  0  0  0
 39 38  2  0  0  0  0
 40 38  1  0  0  0  0
 41 37  1  0  0  0  0
 42 40  1  0  0  0  0
 43 40  1  0  0  0  0
M  END
>  <minimizedAffinity>
-5.72384977

$$$$

 OpenBabel03252507343D

 43 45  0  0  1  0  0  0  0  0999 V2000
   38.0540   27.2890   42.4440 C   0  0  2  0  0  0  0  0  0  0  0  0
   39.3230   27.7120   43.2400 C   0  0  0  0  0  0  0  0  0  0  0  0
   39.8090   26.5520   44.0450 C   0  0  0  0  0  0  0  0  0  0  0  0
   39.8550   25.2400   43.3340 C   0  0  0  0  0  0  0  0  0  0  0  0
   38.7440   25.0140   42.4390 C   0  0  0  0  0  0  0  0  0  0  0  0
   38.4200   26.2220   41.5330 C   0  0  2  0  0  0  0  0  0  0  0  0
   37.3730   26.9500   43.2450 H   0  0  0  0  0  0  0  0  0  0  0  0
   40.0800   28.1570   42.5960 H   0  0  0  0  0  0  0  0  0  0  0  0
   38.9610   28.5220   43.9050 H   0  0  0  0  0  0  0  0  0  0  0  0
   39.2330   26.5790   44.9910 H   0  0  0  0  0  0  0  0  0  0  0  0
   40.8630   26.7730   44.3620 H   0  0  0  0  0  0  0  0  0  0  0  0
   39.5200   24.5520   44.2130 H   0  0  0  0  0  0  0  0  0  0  0  0
   40.8120   24.7360   43.2320 H   0  0  0  0  0  0  0  0  0  0  0  0
   38.9880   24.1480   41.7620 H   0  0  0  0  0  0  0  0  0  0  0  0
   37.7510   24.7580   42.8660 H   0  0  0  0  0  0  0  0  0  0  0  0
   37.6700   25.7850   40.8710 H   0  0  0  0  0  0  0  0  0  0  0  0
   37.4490   28.4200   41.7690 C   0  0  0  0  0  0  0  0  0  0  0  0
   36.1300   28.2890   41.3610 C   0  0  0  0  0  0  0  0  0  0  0  0
   35.5010   29.3560   40.6770 C   0  0  0  0  0  0  0  0  0  0  0  0
   36.2770   30.4960   40.4630 N   0  0  0  0  0  0  0  0  0  0  0  0
   37.5410   30.5580   40.8850 C   0  0  0  0  0  0  0  0  0  0  0  0
   38.1200   29.5410   41.5260 N   0  0  0  0  0  0  0  0  0  0  0  0
   35.3650   27.5500   41.4470 H   0  0  0  0  0  0  0  0  0  0  0  0
   34.5130   29.4280   40.2940 H   0  0  0  0  0  0  0  0  0  0  0  0
   38.2920   31.7930   40.6420 C   0  0  0  0  0  0  0  0  0  0  0  0
   37.6550   32.9510   40.2610 C   0  0  0  0  0  0  0  0  0  0  0  0
   38.2680   34.1520   40.0120 C   0  0  0  0  0  0  0  0  0  0  0  0
   39.6340   34.1300   40.1770 C   0  0  0  0  0  0  0  0  0  0  0  0
   40.3110   32.9720   40.5620 C   0  0  0  0  0  0  0  0  0  0  0  0
   39.6260   31.8080   40.7930 N   0  0  0  0  0  0  0  0  0  0  0  0
   36.5610   32.8990   40.1470 H   0  0  0  0  0  0  0  0  0  0  0  0
   37.7690   35.0510   39.7160 H   0  0  0  0  0  0  0  0  0  0  0  0
   40.2660   35.0030   40.0180 H   0  0  0  0  0  0  0  0  0  0  0  0
   41.7730   32.9350   40.7420 C   0  0  0  0  0  2  0  0  0  0  0  0
   42.1700   32.0870   41.9390 C   0  0  0  0  0  2  0  0  0  0  0  0
   42.0910   31.0130   41.6350 H   0  0  0  0  0  0  0  0  0  0  0  0
   39.6310   26.5900   40.7930 N   0  0  0  0  0  0  0  0  0  0  0  0
   40.2670   26.0060   39.6840 C   0  0  0  0  0  0  0  0  0  0  0  0
   39.8370   26.1400   38.4830 O   0  0  0  0  0  0  0  0  0  0  0  0
   41.4420   25.2530   39.9970 N   0  0  0  0  0  0  0  0  0  0  0  0
   40.2650   27.4170   41.1140 H   0  0  0  0  0  0  0  0  0  0  0  0
   41.5270   24.2620   39.6430 H   0  0  0  0  0  0  0  0  0  0  0  0
   42.2780   25.5420   40.5510 H   0  0  0  0  0  0  0  0  0  0  0  0
  1  2  1  0  0  0  0
  1  7  1  1  0  0  0
  2  9  1  0  0  0  0
  2  3  1  0  0  0  0
  3 11  1  0  0  0  0
  3 10  1  0  0  0  0
  4  3  1  0  0  0  0
  4 12  1  0  0  0  0
  5 15  1  0  0  0  0
  5  4  1  0  0  0  0
  6 16  1  6  0  0  0
  6  5  1  0  0  0  0
  6  1  1  0  0  0  0
  8  2  1  0  0  0  0
 13  4  1  0  0  0  0
 14  5  1  0  0  0  0
 17  1  1  0  0  0  0
 18 23  1  0  0  0  0
 18 17  2  0  0  0  0
 19 18  1  0  0  0  0
 20 19  2  0  0  0  0
 20 21  1  0  0  0  0
 21 22  2  0  0  0  0
 22 17  1  0  0  0  0
 24 19  1  0  0  0  0
 25 30  1  0  0  0  0
 25 21  1  0  0  0  0
 26 25  2  0  0  0  0
 27 28  2  0  0  0  0
 27 26  1  0  0  0  0
 28 29  1  0  0  0  0
 29 34  1  0  0  0  0
 29 30  2  0  0  0  0
 31 26  1  0  0  0  0
 32 27  1  0  0  0  0
 33 28  1  0  0  0  0
 34 35  1  0  0  0  0
 36 35  1  0  0  0  0
 37 41  1  0  0  0  0
 37  6  1  0  0  0  0
 38 40  1  0  0  0  0
 38 37  1  0  0  0  0
 39 38  2  0  0  0  0
 40 43  1  0  0  0  0
 42 40  1  0  0  0  0
M  END
>  <minimizedAffinity>
-5.71596622

$$$$

 OpenBabel03252507343D

 43 45  0  0  1  0  0  0  0  0999 V2000
   38.8730   31.6600   41.1570 C   0  0  2  0  0  0  0  0  0  0  0  0
   37.7040   32.4000   40.4420 C   0  0  0  0  0  0  0  0  0  0  0  0
   38.0650   33.8390   40.2700 C   0  0  0  0  0  0  0  0  0  0  0  0
   39.4470   34.1090   39.7760 C   0  0  0  0  0  0  0  0  0  0  0  0
   40.4530   33.2290   40.3250 C   0  0  0  0  0  0  0  0  0  0  0  0
   40.0490   31.7380   40.3130 C   0  0  2  0  0  0  0  0  0  0  0  0
   38.9810   32.2370   42.0930 H   0  0  0  0  0  0  0  0  0  0  0  0
   37.4070   31.9000   39.5210 H   0  0  0  0  0  0  0  0  0  0  0  0
   36.8530   32.2940   41.1450 H   0  0  0  0  0  0  0  0  0  0  0  0
   37.7730   34.3370   41.2150 H   0  0  0  0  0  0  0  0  0  0  0  0
   37.3690   34.2760   39.5050 H   0  0  0  0  0  0  0  0  0  0  0  0
   39.6770   35.0600   40.4080 H   0  0  0  0  0  0  0  0  0  0  0  0
   39.5700   34.6370   38.8350 H   0  0  0  0  0  0  0  0  0  0  0  0
   41.3950   33.3210   39.7150 H   0  0  0  0  0  0  0  0  0  0  0  0
   40.7870   33.3810   41.3730 H   0  0  0  0  0  0  0  0  0  0  0  0
   40.9830   31.2710   40.6300 H   0  0  0  0  0  0  0  0  0  0  0  0
   38.5110   30.2970   41.4920 C   0  0  0  0  0  0  0  0  0  0  0  0
   38.8330   29.8460   42.7640 C   0  0  0  0  0  0  0  0  0  0  0  0
   38.5220   28.5160   43.1330 C   0  0  0  0  0  0  0  0  0  0  0  0
   37.8930   27.7360   42.1610 N   0  0  0  0  0  0  0  0  0  0  0  0
   37.6100   28.2330   40.9560 C   0  0  0  0  0  0  0  0  0  0  0  0
   37.9120   29.4900   40.6240 N   0  0  0  0  0  0  0  0  0  0  0  0
   39.2650   30.2650   43.6460 H   0  0  0  0  0  0  0  0  0  0  0  0
   38.6950   28.0070   44.0490 H   0  0  0  0  0  0  0  0  0  0  0  0
   36.9330   27.3630   39.9900 C   0  0  0  0  0  0  0  0  0  0  0  0
   37.1400   26.0030   39.9890 C   0  0  0  0  0  0  0  0  0  0  0  0
   36.5540   25.1090   39.1290 C   0  0  0  0  0  0  0  0  0  0  0  0
   35.6980   25.6850   38.2180 C   0  0  0  0  0  0  0  0  0  0  0  0
   35.4660   27.0610   38.1920 C   0  0  0  0  0  0  0  0  0  0  0  0
   36.0910   27.8910   39.0870 N   0  0  0  0  0  0  0  0  0  0  0  0
   37.8370   25.6080   40.7440 H   0  0  0  0  0  0  0  0  0  0  0  0
   36.7180   24.0520   39.1310 H   0  0  0  0  0  0  0  0  0  0  0  0
   35.1560   25.1120   37.4680 H   0  0  0  0  0  0  0  0  0  0  0  0
   34.5540   27.6900   37.2230 C   0  0  0  0  0  2  0  0  0  0  0  0
   33.7510   28.8150   37.8560 C   0  0  0  0  0  2  0  0  0  0  0  0
   34.4220   29.7060   37.9360 H   0  0  0  0  0  0  0  0  0  0  0  0
   39.7030   31.3580   38.9400 N   0  0  0  0  0  0  0  0  0  0  0  0
   40.4650   31.3140   37.7600 C   0  0  0  0  0  0  0  0  0  0  0  0
   41.3040   30.3780   37.5040 O   0  0  0  0  0  0  0  0  0  0  0  0
   40.2270   32.3960   36.8540 N   0  0  0  0  0  0  0  0  0  0  0  0
   38.6820   31.1030   38.6590 H   0  0  0  0  0  0  0  0  0  0  0  0
   41.0460   32.9550   36.4940 H   0  0  0  0  0  0  0  0  0  0  0  0
   39.3200   32.7410   36.4700 H   0  0  0  0  0  0  0  0  0  0  0  0
  1 17  1  0  0  0  0
  1  7  1  1  0  0  0
  2  9  1  0  0  0  0
  2  1  1  0  0  0  0
  3  2  1  0  0  0  0
  3 10  1  0  0  0  0
  4  3  1  0  0  0  0
  4  5  1  0  0  0  0
  4 12  1  0  0  0  0
  5 15  1  0  0  0  0
  6  5  1  0  0  0  0
  6 16  1  1  0  0  0
  6  1  1  0  0  0  0
  8  2  1  0  0  0  0
 11  3  1  0  0  0  0
 13  4  1  0  0  0  0
 14  5  1  0  0  0  0
 17 18  1  0  0  0  0
 18 19  2  0  0  0  0
 18 23  1  0  0  0  0
 19 24  1  0  0  0  0
 20 19  1  0  0  0  0
 21 20  2  0  0  0  0
 22 21  1  0  0  0  0
 22 17  2  0  0  0  0
 25 21  1  0  0  0  0
 26 25  1  0  0  0  0
 26 31  1  0  0  0  0
 27 32  1  0  0  0  0
 27 26  2  0  0  0  0
 28 27  1  0  0  0  0
 29 28  2  0  0  0  0
 29 30  1  0  0  0  0
 30 25  2  0  0  0  0
 33 28  1  0  0  0  0
 34 35  1  0  0  0  0
 34 29  1  0  0  0  0
 35 36  1  0  0  0  0
 37  6  1  0  0  0  0
 38 37  1  0  0  0  0
 39 38  2  0  0  0  0
 40 38  1  0  0  0  0
 41 37  1  0  0  0  0
 42 40  1  0  0  0  0
 43 40  1  0  0  0  0
M  END
>  <minimizedAffinity>
-5.71118975

$$$$

 OpenBabel03252507343D

 43 45  0  0  1  0  0  0  0  0999 V2000
   41.8480   32.1480   39.5370 C   0  0  2  0  0  0  0  0  0  0  0  0
   42.7220   33.4100   39.7960 C   0  0  0  0  0  0  0  0  0  0  0  0
   43.2520   33.9170   38.4960 C   0  0  0  0  0  0  0  0  0  0  0  0
   42.2680   33.9870   37.3750 C   0  0  0  0  0  0  0  0  0  0  0  0
   41.3400   32.8800   37.3330 C   0  0  0  0  0  0  0  0  0  0  0  0
   40.7240   32.5330   38.7060 C   0  0  2  0  0  0  0  0  0  0  0  0
   42.5520   31.4740   39.0160 H   0  0  0  0  0  0  0  0  0  0  0  0
   42.1960   34.1570   40.3860 H   0  0  0  0  0  0  0  0  0  0  0  0
   43.5490   33.0320   40.4320 H   0  0  0  0  0  0  0  0  0  0  0  0
   44.1780   33.3410   38.3020 H   0  0  0  0  0  0  0  0  0  0  0  0
   43.6130   34.9670   38.6600 H   0  0  0  0  0  0  0  0  0  0  0  0
   42.9710   33.6660   36.5030 H   0  0  0  0  0  0  0  0  0  0  0  0
   42.0600   34.9540   36.9240 H   0  0  0  0  0  0  0  0  0  0  0  0
   40.4890   33.1400   36.6430 H   0  0  0  0  0  0  0  0  0  0  0  0
   41.6970   31.8920   36.9710 H   0  0  0  0  0  0  0  0  0  0  0  0
   39.9790   31.7910   38.4130 H   0  0  0  0  0  0  0  0  0  0  0  0
   41.4390   31.5220   40.7780 C   0  0  0  0  0  0  0  0  0  0  0  0
   42.2470   31.7200   41.8890 C   0  0  0  0  0  0  0  0  0  0  0  0
   41.9040   31.1120   43.1190 C   0  0  0  0  0  0  0  0  0  0  0  0
   40.7430   30.3380   43.1240 N   0  0  0  0  0  0  0  0  0  0  0  0
   40.0100   30.1890   42.0200 C   0  0  0  0  0  0  0  0  0  0  0  0
   40.3480   30.7690   40.8660 N   0  0  0  0  0  0  0  0  0  0  0  0
   43.1270   32.2810   42.1130 H   0  0  0  0  0  0  0  0  0  0  0  0
   42.4000   31.1520   44.0580 H   0  0  0  0  0  0  0  0  0  0  0  0
   38.7920   29.3770   42.1010 C   0  0  0  0  0  0  0  0  0  0  0  0
   38.4160   28.7750   43.2800 C   0  0  0  0  0  0  0  0  0  0  0  0
   37.2980   27.9990   43.4550 C   0  0  0  0  0  0  0  0  0  0  0  0
   36.5320   27.8520   42.3210 C   0  0  0  0  0  0  0  0  0  0  0  0
   36.8870   28.4490   41.1100 C   0  0  0  0  0  0  0  0  0  0  0  0
   38.0220   29.2120   41.0140 N   0  0  0  0  0  0  0  0  0  0  0  0
   39.0730   28.9330   44.1490 H   0  0  0  0  0  0  0  0  0  0  0  0
   37.0080   27.5320   44.3730 H   0  0  0  0  0  0  0  0  0  0  0  0
   35.6150   27.2670   42.2960 H   0  0  0  0  0  0  0  0  0  0  0  0
   36.0770   28.3000   39.8890 C   0  0  0  0  0  2  0  0  0  0  0  0
   34.8460   29.1900   39.9200 C   0  0  0  0  0  2  0  0  0  0  0  0
   35.1750   30.2320   39.6800 H   0  0  0  0  0  0  0  0  0  0  0  0
   40.0890   33.7360   39.2510 N   0  0  0  0  0  0  0  0  0  0  0  0
   38.9370   33.9140   40.0380 C   0  0  0  0  0  0  0  0  0  0  0  0
   38.9090   33.6740   41.2980 O   0  0  0  0  0  0  0  0  0  0  0  0
   37.7950   34.3950   39.3240 N   0  0  0  0  0  0  0  0  0  0  0  0
   40.4600   34.7330   39.0160 H   0  0  0  0  0  0  0  0  0  0  0  0
   36.8800   33.8740   39.4080 H   0  0  0  0  0  0  0  0  0  0  0  0
   37.7150   35.2260   38.6980 H   0  0  0  0  0  0  0  0  0  0  0  0
  1  7  1  6  0  0  0
  1  2  1  0  0  0  0
  1 17  1  0  0  0  0
  2  8  1  0  0  0  0
  2  9  1  0  0  0  0
  3 11  1  0  0  0  0
  3  2  1  0  0  0  0
  4  3  1  0  0  0  0
  5  4  1  0  0  0  0
  5  6  1  0  0  0  0
  6 16  1  6  0  0  0
  6 37  1  0  0  0  0
  6  1  1  0  0  0  0
 10  3  1  0  0  0  0
 12  4  1  0  0  0  0
 13  4  1  0  0  0  0
 14  5  1  0  0  0  0
 15  5  1  0  0  0  0
 17 22  2  0  0  0  0
 17 18  1  0  0  0  0
 18 23  1  0  0  0  0
 18 19  2  0  0  0  0
 19 20  1  0  0  0  0
 19 24  1  0  0  0  0
 21 25  1  0  0  0  0
 21 20  2  0  0  0  0
 22 21  1  0  0  0  0
 25 26  1  0  0  0  0
 26 27  2  0  0  0  0
 26 31  1  0  0  0  0
 27 32  1  0  0  0  0
 28 27  1  0  0  0  0
 29 28  2  0  0  0  0
 30 29  1  0  0  0  0
 30 25  2  0  0  0  0
 33 28  1  0  0  0  0
 34 35  1  0  0  0  0
 34 29  1  0  0  0  0
 36 35  1  0  0  0  0
 37 38  1  0  0  0  0
 38 39  2  0  0  0  0
 40 42  1  0  0  0  0
 40 38  1  0  0  0  0
 41 37  1  0  0  0  0
 43 40  1  0  0  0  0
M  END
>  <minimizedAffinity>
-5.68711138

$$$$

 OpenBabel03252507343D

 43 45  0  0  1  0  0  0  0  0999 V2000
   40.0780   30.8900   37.7580 C   0  0  2  0  0  0  0  0  0  0  0  0
   41.2660   30.0090   38.2440 C   0  0  0  0  0  0  0  0  0  0  0  0
   42.5190   30.4520   37.5630 C   0  0  0  0  0  0  0  0  0  0  0  0
   42.7420   31.9270   37.5070 C   0  0  0  0  0  0  0  0  0  0  0  0
   41.5430   32.6970   37.2690 C   0  0  0  0  0  0  0  0  0  0  0  0
   40.3430   32.2640   38.1390 C   0  0  2  0  0  0  0  0  0  0  0  0
   40.1020   30.7390   36.6640 H   0  0  0  0  0  0  0  0  0  0  0  0
   41.3350   29.9780   39.3300 H   0  0  0  0  0  0  0  0  0  0  0  0
   40.9870   28.9860   37.9180 H   0  0  0  0  0  0  0  0  0  0  0  0
   42.5420   29.9130   36.5960 H   0  0  0  0  0  0  0  0  0  0  0  0
   43.3870   30.0260   38.1340 H   0  0  0  0  0  0  0  0  0  0  0  0
   43.2130   31.9930   36.4430 H   0  0  0  0  0  0  0  0  0  0  0  0
   43.6270   32.3380   37.9840 H   0  0  0  0  0  0  0  0  0  0  0  0
   41.7490   33.7790   37.5030 H   0  0  0  0  0  0  0  0  0  0  0  0
   41.1080   32.7140   36.2470 H   0  0  0  0  0  0  0  0  0  0  0  0
   39.6230   33.0480   37.8970 H   0  0  0  0  0  0  0  0  0  0  0  0
   38.8120   30.4010   38.2660 C   0  0  0  0  0  0  0  0  0  0  0  0
   37.6780   30.6590   37.5090 C   0  0  0  0  0  0  0  0  0  0  0  0
   36.4150   30.2230   37.9730 C   0  0  0  0  0  0  0  0  0  0  0  0
   36.4040   29.5420   39.1910 N   0  0  0  0  0  0  0  0  0  0  0  0
   37.5330   29.3250   39.8680 C   0  0  0  0  0  0  0  0  0  0  0  0
   38.7170   29.7460   39.4180 N   0  0  0  0  0  0  0  0  0  0  0  0
   37.4660   31.1130   36.5670 H   0  0  0  0  0  0  0  0  0  0  0  0
   35.4550   30.3340   37.5320 H   0  0  0  0  0  0  0  0  0  0  0  0
   37.4510   28.5870   41.1330 C   0  0  0  0  0  0  0  0  0  0  0  0
   37.5820   29.2300   42.3420 C   0  0  0  0  0  0  0  0  0  0  0  0
   37.5190   28.6290   43.5730 C   0  0  0  0  0  0  0  0  0  0  0  0
   37.3040   27.2700   43.5250 C   0  0  0  0  0  0  0  0  0  0  0  0
   37.1670   26.5890   42.3150 C   0  0  0  0  0  0  0  0  0  0  0  0
   37.2420   27.2610   41.1230 N   0  0  0  0  0  0  0  0  0  0  0  0
   37.7520   30.3170   42.3090 H   0  0  0  0  0  0  0  0  0  0  0  0
   37.6210   29.1310   44.5120 H   0  0  0  0  0  0  0  0  0  0  0  0
   37.2300   26.6490   44.4160 H   0  0  0  0  0  0  0  0  0  0  0  0
   36.9380   25.1360   42.2490 C   0  0  0  0  0  2  0  0  0  0  0  0
   38.2450   24.3600   42.2420 C   0  0  0  0  0  2  0  0  0  0  0  0
   38.6320   24.3410   43.2910 H   0  0  0  0  0  0  0  0  0  0  0  0
   40.7400   32.3240   39.5480 N   0  0  0  0  0  0  0  0  0  0  0  0
   40.1940   33.0070   40.6480 C   0  0  0  0  0  0  0  0  0  0  0  0
   39.1360   32.6140   41.2590 O   0  0  0  0  0  0  0  0  0  0  0  0
   40.9150   34.1770   41.0440 N   0  0  0  0  0  0  0  0  0  0  0  0
   41.6460   31.8350   39.9060 H   0  0  0  0  0  0  0  0  0  0  0  0
   40.3960   35.0900   41.1510 H   0  0  0  0  0  0  0  0  0  0  0  0
   41.9320   34.2800   41.2560 H   0  0  0  0  0  0  0  0  0  0  0  0
  1  7  1  6  0  0  0
  1  6  1  0  0  0  0
  1  2  1  0  0  0  0
  1 17  1  0  0  0  0
  2  8  1  0  0  0  0
  3 11  1  0  0  0  0
  3  2  1  0  0  0  0
  4  3  1  0  0  0  0
  4 13  1  0  0  0  0
  5 14  1  0  0  0  0
  5  4  1  0  0  0  0
  5  6  1  0  0  0  0
  6 16  1  6  0  0  0
  6 37  1  0  0  0  0
  9  2  1  0  0  0  0
 10  3  1  0  0  0  0
 12  4  1  0  0  0  0
 15  5  1  0  0  0  0
 17 22  1  0  0  0  0
 18 19  1  0  0  0  0
 18 17  2  0  0  0  0
 19 20  2  0  0  0  0
 20 21  1  0  0  0  0
 21 25  1  0  0  0  0
 22 21  2  0  0  0  0
 23 18  1  0  0  0  0
 24 19  1  0  0  0  0
 25 26  1  0  0  0  0
 26 27  2  0  0  0  0
 27 32  1  0  0  0  0
 28 27  1  0  0  0  0
 28 33  1  0  0  0  0
 29 28  2  0  0  0  0
 30 25  2  0  0  0  0
 30 29  1  0  0  0  0
 31 26  1  0  0  0  0
 34 29  1  0  0  0  0
 35 34  1  0  0  0  0
 35 36  1  0  0  0  0
 37 41  1  0  0  0  0
 37 38  1  0  0  0  0
 38 40  1  0  0  0  0
 38 39  2  0  0  0  0
 40 42  1  0  0  0  0
 40 43  1  0  0  0  0
M  END
>  <minimizedAffinity>
-5.63600492

$$$$
