
 OpenBabel03252509223D

 21 22  0  0  1  0  0  0  0  0999 V2000
   44.6350   35.4160   45.1540 C   0  0  0  0  0  0  0  0  0  0  0  0
   45.1120   35.7110   43.8380 C   0  0  0  0  0  0  0  0  0  0  0  0
   46.0680   34.8470   43.3740 C   0  0  0  0  0  0  0  0  0  0  0  0
   46.5340   33.7740   44.1290 N   0  0  0  0  0  0  0  0  0  0  0  0
   46.0440   33.5590   45.3520 C   0  0  0  0  0  0  0  0  0  0  0  0
   45.0910   34.3790   45.8690 N   0  0  0  0  0  0  0  0  0  0  0  0
   43.8760   36.0730   45.5630 H   0  0  0  0  0  0  0  0  0  0  0  0
   46.4960   32.6940   45.8180 H   0  0  0  0  0  0  0  0  0  0  0  0
   46.5610   35.0300   41.9570 C   0  0  1  0  0  0  0  0  0  0  0  0
   48.0860   35.3190   41.9550 C   0  0  0  0  0  0  0  0  0  0  0  0
   47.3980   34.0420   41.3840 C   0  0  2  0  0  0  0  0  0  0  0  0
   45.9930   35.7680   41.3620 H   0  0  0  0  0  0  0  0  0  0  0  0
   48.4700   36.0130   41.1940 H   0  0  0  0  0  0  0  0  0  0  0  0
   48.6540   35.2170   42.8740 H   0  0  0  0  0  0  0  0  0  0  0  0
   47.7520   33.1210   41.8910 H   0  0  0  0  0  0  0  0  0  0  0  0
   47.4040   33.9250   39.8650 C   0  0  0  0  0  2  0  0  0  0  0  0
   46.1530   33.2480   39.3960 C   0  0  0  0  0  2  0  0  0  0  0  0
   46.3890   32.2100   39.1070 H   0  0  0  0  0  0  0  0  0  0  0  0
   44.6600   36.8310   43.0860 N   0  0  0  0  0  0  0  0  0  0  0  0
   44.5820   37.7660   43.5820 H   0  0  0  0  0  0  0  0  0  0  0  0
   44.4040   36.8130   42.0990 H   0  0  0  0  0  0  0  0  0  0  0  0
  1  7  1  0  0  0  0
  1  6  1  0  0  0  0
  2  1  2  0  0  0  0
  3  2  1  0  0  0  0
  3  4  2  0  0  0  0
  4  5  1  0  0  0  0
  5  8  1  0  0  0  0
  5  6  2  0  0  0  0
  9 12  1  6  0  0  0
  9  3  1  0  0  0  0
 10  9  1  0  0  0  0
 10 14  1  0  0  0  0
 11 15  1  1  0  0  0
 11 10  1  0  0  0  0
 11  9  1  0  0  0  0
 13 10  1  0  0  0  0
 16 11  1  0  0  0  0
 17 16  1  0  0  0  0
 18 17  1  0  0  0  0
 19 20  1  0  0  0  0
 19  2  1  0  0  0  0
 21 19  1  0  0  0  0
M  END
>  <minimizedAffinity>
-4.25983667

>  <minimizedRMSD>
0.0831314847

$$$$
