
 OpenBabel03252504363D

 36 37  0  0  0  0  0  0  0  0999 V2000
   37.1900   29.2390   41.5060 C   0  0  0  0  0  3  0  0  0  0  0  0
   36.2810   30.0590   40.9610 C   0  0  0  0  0  3  0  0  0  0  0  0
   36.6300   31.3950   40.3360 C   0  0  0  0  0  0  0  0  0  0  0  0
   35.8590   32.1590   40.5880 H   0  0  0  0  0  0  0  0  0  0  0  0
   36.6750   31.2650   39.2220 H   0  0  0  0  0  0  0  0  0  0  0  0
   37.8220   31.8080   40.8920 O   0  0  0  0  0  0  0  0  0  0  0  0
   37.1880   33.9600   39.4560 O   0  0  0  0  0  0  0  0  0  0  0  0
   38.2990   33.2770   40.2390 P   0  0  1  0  0  0  0  0  0  0  0  0
   38.7290   34.3540   41.4980 O   0  0  0  0  0  0  0  0  0  0  0  0
   39.6220   34.0830   41.7860 H   0  0  0  0  0  0  0  0  0  0  0  0
   39.6550   33.1140   39.2720 O   0  0  0  0  0  0  0  0  0  0  0  0
   40.4700   32.0600   39.6800 C   0  0  0  0  0  0  0  0  0  0  0  0
   41.5530   32.3910   40.6780 C   0  0  0  0  0  0  0  0  0  0  0  0
   41.8920   32.1060   39.2180 C   0  0  0  0  0  0  0  0  0  0  0  0
   40.0000   31.0640   39.7420 H   0  0  0  0  0  0  0  0  0  0  0  0
   41.5520   33.4130   41.0490 H   0  0  0  0  0  0  0  0  0  0  0  0
   41.8350   31.5510   41.3500 H   0  0  0  0  0  0  0  0  0  0  0  0
   42.2530   33.0190   38.6830 H   0  0  0  0  0  0  0  0  0  0  0  0
   42.4260   31.1690   38.9640 H   0  0  0  0  0  0  0  0  0  0  0  0
   36.6870   28.0610   42.0210 O   0  0  0  0  0  0  0  0  0  0  0  0
   37.0000   27.4020   43.1560 C   0  0  0  0  0  0  0  0  0  0  0  0
   36.2400   26.5520   43.2440 H   0  0  0  0  0  0  0  0  0  0  0  0
   36.9910   27.8920   44.1200 H   0  0  0  0  0  0  0  0  0  0  0  0
   39.4280   27.2520   43.4940 C   0  0  0  0  0  0  0  0  0  0  0  0
   38.2860   26.6010   43.0430 C   0  0  0  0  0  0  0  0  0  0  0  0
   38.3850   25.3320   42.5570 C   0  0  0  0  0  0  0  0  0  0  0  0
   39.5960   24.8040   42.5530 N   0  0  0  0  0  0  0  0  0  0  0  0
   40.6800   25.4090   42.9780 C   0  0  0  0  0  0  0  0  0  0  0  0
   40.6360   26.6960   43.4790 N   0  0  0  0  0  0  0  0  0  0  0  0
   41.9490   24.7270   42.9450 N   0  0  0  0  0  0  0  0  0  0  0  0
   39.3990   28.2580   43.8870 H   0  0  0  0  0  0  0  0  0  0  0  0
   42.4200   24.2110   42.1580 H   0  0  0  0  0  0  0  0  0  0  0  0
   42.4210   24.7990   43.8960 H   0  0  0  0  0  0  0  0  0  0  0  0
   37.1460   24.6750   42.0810 C   0  0  0  0  0  2  0  0  0  0  0  0
   37.0030   24.6990   40.5730 C   0  0  0  0  0  2  0  0  0  0  0  0
   36.2600   25.4510   40.2330 H   0  0  0  0  0  0  0  0  0  0  0  0
  1 20  1  0  0  0  0
  2  1  2  0  0  0  0
  3  4  1  0  0  0  0
  3  6  1  0  0  0  0
  3  2  1  0  0  0  0
  5  3  1  0  0  0  0
  8  7  2  6  0  0  0
  8  6  1  0  0  0  0
  8  9  1  0  0  0  0
  9 10  1  0  0  0  0
 11 12  1  0  0  0  0
 11  8  1  0  0  0  0
 12 15  1  0  0  0  0
 12 13  1  0  0  0  0
 13 16  1  0  0  0  0
 13 17  1  0  0  0  0
 14 12  1  0  0  0  0
 14 13  1  0  0  0  0
 18 14  1  0  0  0  0
 19 14  1  0  0  0  0
 20 21  1  0  0  0  0
 21 22  1  0  0  0  0
 21 23  1  0  0  0  0
 24 31  1  0  0  0  0
 25 21  1  0  0  0  0
 25 24  2  0  0  0  0
 26 25  1  0  0  0  0
 27 26  2  0  0  0  0
 27 28  1  0  0  0  0
 28 29  2  0  0  0  0
 29 24  1  0  0  0  0
 30 28  1  0  0  0  0
 30 33  1  0  0  0  0
 32 30  1  0  0  0  0
 34 26  1  0  0  0  0
 35 34  1  0  0  0  0
 36 35  1  0  0  0  0
M  END
>  <minimizedAffinity>
-5.04911375

$$$$

 OpenBabel03252504363D

 36 37  0  0  0  0  0  0  0  0999 V2000
   37.6760   28.9340   42.0040 C   0  0  0  0  0  3  0  0  0  0  0  0
   38.6610   28.8860   42.9110 C   0  0  0  0  0  3  0  0  0  0  0  0
   39.6040   27.7080   43.0570 C   0  0  0  0  0  0  0  0  0  0  0  0
   40.1850   27.7860   44.0060 H   0  0  0  0  0  0  0  0  0  0  0  0
   40.3120   27.7090   42.1860 H   0  0  0  0  0  0  0  0  0  0  0  0
   38.8290   26.5700   43.1360 O   0  0  0  0  0  0  0  0  0  0  0  0
   41.0670   25.5190   42.1470 O   0  0  0  0  0  0  0  0  0  0  0  0
   39.5770   25.2920   42.3500 P   0  0  1  0  0  0  0  0  0  0  0  0
   39.4340   23.8720   43.2960 O   0  0  0  0  0  0  0  0  0  0  0  0
   38.5230   23.5510   43.1570 H   0  0  0  0  0  0  0  0  0  0  0  0
   38.8490   24.9570   40.8820 O   0  0  0  0  0  0  0  0  0  0  0  0
   37.5010   25.3100   40.8680 C   0  0  0  0  0  0  0  0  0  0  0  0
   36.5210   24.2520   41.3100 C   0  0  0  0  0  0  0  0  0  0  0  0
   36.6500   24.6350   39.8390 C   0  0  0  0  0  0  0  0  0  0  0  0
   37.2610   26.3620   41.0980 H   0  0  0  0  0  0  0  0  0  0  0  0
   36.9620   23.3270   41.6740 H   0  0  0  0  0  0  0  0  0  0  0  0
   35.5890   24.6470   41.7700 H   0  0  0  0  0  0  0  0  0  0  0  0
   37.0990   23.8140   39.2270 H   0  0  0  0  0  0  0  0  0  0  0  0
   35.8200   25.1860   39.3540 H   0  0  0  0  0  0  0  0  0  0  0  0
   36.9230   30.0910   42.0140 O   0  0  0  0  0  0  0  0  0  0  0  0
   36.1810   30.6560   41.0390 C   0  0  0  0  0  0  0  0  0  0  0  0
   35.9050   31.6990   41.4190 H   0  0  0  0  0  0  0  0  0  0  0  0
   35.2490   30.2200   40.7060 H   0  0  0  0  0  0  0  0  0  0  0  0
   37.9890   31.9740   40.0250 C   0  0  0  0  0  0  0  0  0  0  0  0
   36.9950   31.0260   39.8110 C   0  0  0  0  0  0  0  0  0  0  0  0
   36.8280   30.5010   38.5650 C   0  0  0  0  0  0  0  0  0  0  0  0
   37.6470   30.9470   37.6300 N   0  0  0  0  0  0  0  0  0  0  0  0
   38.5890   31.8410   37.8220 C   0  0  0  0  0  0  0  0  0  0  0  0
   38.8000   32.4060   39.0650 N   0  0  0  0  0  0  0  0  0  0  0  0
   39.4400   32.2400   36.7300 N   0  0  0  0  0  0  0  0  0  0  0  0
   38.1590   32.4190   40.9950 H   0  0  0  0  0  0  0  0  0  0  0  0
   39.1910   32.5600   35.7590 H   0  0  0  0  0  0  0  0  0  0  0  0
   40.4600   32.1750   37.0270 H   0  0  0  0  0  0  0  0  0  0  0  0
   35.7550   29.4980   38.3760 C   0  0  0  0  0  2  0  0  0  0  0  0
   36.2620   28.0700   38.4110 C   0  0  0  0  0  2  0  0  0  0  0  0
   36.3150   27.6180   37.3990 H   0  0  0  0  0  0  0  0  0  0  0  0
  1 20  1  0  0  0  0
  1  2  2  0  0  0  0
  2  3  1  0  0  0  0
  3  6  1  0  0  0  0
  3  4  1  0  0  0  0
  5  3  1  0  0  0  0
  8  7  2  6  0  0  0
  8  6  1  0  0  0  0
  8  9  1  0  0  0  0
 10  9  1  0  0  0  0
 11  8  1  0  0  0  0
 12 11  1  0  0  0  0
 12 15  1  0  0  0  0
 12 13  1  0  0  0  0
 13 16  1  0  0  0  0
 13 17  1  0  0  0  0
 14 12  1  0  0  0  0
 14 13  1  0  0  0  0
 18 14  1  0  0  0  0
 19 14  1  0  0  0  0
 21 22  1  0  0  0  0
 21 20  1  0  0  0  0
 23 21  1  0  0  0  0
 24 31  1  0  0  0  0
 25 24  1  0  0  0  0
 25 21  1  0  0  0  0
 26 25  2  0  0  0  0
 27 28  2  0  0  0  0
 27 26  1  0  0  0  0
 28 29  1  0  0  0  0
 29 24  2  0  0  0  0
 30 33  1  0  0  0  0
 30 28  1  0  0  0  0
 32 30  1  0  0  0  0
 34 35  1  0  0  0  0
 34 26  1  0  0  0  0
 36 35  1  0  0  0  0
M  END
>  <minimizedAffinity>
-4.8309226

$$$$

 OpenBabel03252504363D

 36 37  0  0  0  0  0  0  0  0999 V2000
   36.6760   28.1680   40.6520 C   0  0  0  0  0  3  0  0  0  0  0  0
   36.4080   29.2830   39.9600 C   0  0  0  0  0  3  0  0  0  0  0  0
   36.3780   29.3390   38.4460 C   0  0  0  0  0  0  0  0  0  0  0  0
   35.3610   29.0880   38.0640 H   0  0  0  0  0  0  0  0  0  0  0  0
   37.1190   28.5950   38.0480 H   0  0  0  0  0  0  0  0  0  0  0  0
   36.6510   30.6400   38.0770 O   0  0  0  0  0  0  0  0  0  0  0  0
   39.0370   29.6080   37.4990 O   0  0  0  0  0  0  0  0  0  0  0  0
   38.3040   30.8730   37.9180 P   0  0  1  0  0  0  0  0  0  0  0  0
   38.6060   32.0300   36.6940 O   0  0  0  0  0  0  0  0  0  0  0  0
   38.4250   32.8990   37.0990 H   0  0  0  0  0  0  0  0  0  0  0  0
   38.9810   31.4820   39.3220 O   0  0  0  0  0  0  0  0  0  0  0  0
   38.9210   32.8730   39.3760 C   0  0  0  0  0  0  0  0  0  0  0  0
   38.8240   33.4920   40.7490 C   0  0  0  0  0  0  0  0  0  0  0  0
   37.6180   33.4620   39.8150 C   0  0  0  0  0  0  0  0  0  0  0  0
   39.4800   33.4250   38.6010 H   0  0  0  0  0  0  0  0  0  0  0  0
   38.8860   32.7950   41.5820 H   0  0  0  0  0  0  0  0  0  0  0  0
   39.2700   34.5060   40.8330 H   0  0  0  0  0  0  0  0  0  0  0  0
   36.8150   32.7760   40.1830 H   0  0  0  0  0  0  0  0  0  0  0  0
   37.2590   34.4130   39.3730 H   0  0  0  0  0  0  0  0  0  0  0  0
   36.6520   28.3080   42.0260 O   0  0  0  0  0  0  0  0  0  0  0  0
   36.7630   27.3790   42.9980 C   0  0  0  0  0  0  0  0  0  0  0  0
   36.0120   26.5580   42.7340 H   0  0  0  0  0  0  0  0  0  0  0  0
   36.5730   27.6140   44.0360 H   0  0  0  0  0  0  0  0  0  0  0  0
   39.1890   27.2650   43.3690 C   0  0  0  0  0  0  0  0  0  0  0  0
   38.0590   26.5900   42.9210 C   0  0  0  0  0  0  0  0  0  0  0  0
   38.1790   25.3110   42.4680 C   0  0  0  0  0  0  0  0  0  0  0  0
   39.3950   24.7960   42.4920 N   0  0  0  0  0  0  0  0  0  0  0  0
   40.4670   25.4240   42.9140 C   0  0  0  0  0  0  0  0  0  0  0  0
   40.4020   26.7220   43.3820 N   0  0  0  0  0  0  0  0  0  0  0  0
   41.7430   24.7560   42.9130 N   0  0  0  0  0  0  0  0  0  0  0  0
   39.1430   28.2800   43.7360 H   0  0  0  0  0  0  0  0  0  0  0  0
   42.2300   24.2260   42.1450 H   0  0  0  0  0  0  0  0  0  0  0  0
   42.2030   24.8570   43.8680 H   0  0  0  0  0  0  0  0  0  0  0  0
   36.9530   24.6280   41.9940 C   0  0  0  0  0  2  0  0  0  0  0  0
   36.9500   24.3830   40.4980 C   0  0  0  0  0  2  0  0  0  0  0  0
   36.2860   25.0900   39.9580 H   0  0  0  0  0  0  0  0  0  0  0  0
  1 20  1  0  0  0  0
  2  1  2  0  0  0  0
  3  2  1  0  0  0  0
  4  3  1  0  0  0  0
  5  3  1  0  0  0  0
  6  3  1  0  0  0  0
  8  7  2  6  0  0  0
  8  6  1  0  0  0  0
  8 11  1  0  0  0  0
  9 10  1  0  0  0  0
  9  8  1  0  0  0  0
 11 12  1  0  0  0  0
 12 14  1  0  0  0  0
 12 13  1  0  0  0  0
 13 17  1  0  0  0  0
 13 16  1  0  0  0  0
 14 18  1  0  0  0  0
 14 13  1  0  0  0  0
 15 12  1  0  0  0  0
 19 14  1  0  0  0  0
 20 21  1  0  0  0  0
 21 23  1  0  0  0  0
 22 21  1  0  0  0  0
 24 29  1  0  0  0  0
 24 31  1  0  0  0  0
 25 21  1  0  0  0  0
 25 24  2  0  0  0  0
 26 27  2  0  0  0  0
 26 25  1  0  0  0  0
 27 28  1  0  0  0  0
 28 29  2  0  0  0  0
 30 28  1  0  0  0  0
 30 33  1  0  0  0  0
 32 30  1  0  0  0  0
 34 26  1  0  0  0  0
 35 34  1  0  0  0  0
 36 35  1  0  0  0  0
M  END
>  <minimizedAffinity>
-4.79839849

$$$$

 OpenBabel03252504363D

 36 37  0  0  0  0  0  0  0  0999 V2000
   39.0310   30.6060   42.2910 C   0  0  0  0  0  3  0  0  0  0  0  0
   39.8010   29.5090   42.2870 C   0  0  0  0  0  3  0  0  0  0  0  0
   39.3630   28.1800   42.8680 C   0  0  0  0  0  0  0  0  0  0  0  0
   38.5270   28.3240   43.5920 H   0  0  0  0  0  0  0  0  0  0  0  0
   40.2380   27.7170   43.3970 H   0  0  0  0  0  0  0  0  0  0  0  0
   38.8820   27.4160   41.8250 O   0  0  0  0  0  0  0  0  0  0  0  0
   36.9710   25.6910   42.5090 O   0  0  0  0  0  0  0  0  0  0  0  0
   37.2460   27.1070   42.0270 P   0  0  1  0  0  0  0  0  0  0  0  0
   36.6060   28.1520   43.2210 O   0  0  0  0  0  0  0  0  0  0  0  0
   36.4870   29.0160   42.7830 H   0  0  0  0  0  0  0  0  0  0  0  0
   36.3820   27.4050   40.6250 O   0  0  0  0  0  0  0  0  0  0  0  0
   36.6500   28.6670   40.0980 C   0  0  0  0  0  0  0  0  0  0  0  0
   35.6050   29.7310   40.3270 C   0  0  0  0  0  0  0  0  0  0  0  0
   35.7950   29.1000   38.9500 C   0  0  0  0  0  0  0  0  0  0  0  0
   37.7080   28.9810   40.0770 H   0  0  0  0  0  0  0  0  0  0  0  0
   34.7640   29.4350   40.9500 H   0  0  0  0  0  0  0  0  0  0  0  0
   36.0020   30.7680   40.3760 H   0  0  0  0  0  0  0  0  0  0  0  0
   34.9280   28.4600   38.6560 H   0  0  0  0  0  0  0  0  0  0  0  0
   36.2270   29.7140   38.1350 H   0  0  0  0  0  0  0  0  0  0  0  0
   39.5970   31.7240   41.7110 O   0  0  0  0  0  0  0  0  0  0  0  0
   39.0650   32.6290   40.8630 C   0  0  0  0  0  0  0  0  0  0  0  0
   39.0910   33.6300   41.4160 H   0  0  0  0  0  0  0  0  0  0  0  0
   38.0530   32.5370   40.4920 H   0  0  0  0  0  0  0  0  0  0  0  0
   40.9040   33.9550   39.9190 C   0  0  0  0  0  0  0  0  0  0  0  0
   39.9730   32.9490   39.6890 C   0  0  0  0  0  0  0  0  0  0  0  0
   39.9440   32.3290   38.4760 C   0  0  0  0  0  0  0  0  0  0  0  0
   40.8270   32.7460   37.5870 N   0  0  0  0  0  0  0  0  0  0  0  0
   41.7100   33.6950   37.7950 C   0  0  0  0  0  0  0  0  0  0  0  0
   41.7830   34.3560   39.0050 N   0  0  0  0  0  0  0  0  0  0  0  0
   42.6420   34.0550   36.7560 N   0  0  0  0  0  0  0  0  0  0  0  0
   40.9650   34.4760   40.8640 H   0  0  0  0  0  0  0  0  0  0  0  0
   42.4710   34.2930   35.7450 H   0  0  0  0  0  0  0  0  0  0  0  0
   43.6310   34.0590   37.1470 H   0  0  0  0  0  0  0  0  0  0  0  0
   38.9340   31.2650   38.2680 C   0  0  0  0  0  2  0  0  0  0  0  0
   37.8430   31.6630   37.2940 C   0  0  0  0  0  2  0  0  0  0  0  0
   36.8920   31.9130   37.8090 H   0  0  0  0  0  0  0  0  0  0  0  0
  2  1  2  0  0  0  0
  2  3  1  0  0  0  0
  3  5  1  0  0  0  0
  3  4  1  0  0  0  0
  6  8  1  0  0  0  0
  6  3  1  0  0  0  0
  8  7  2  1  0  0  0
  8  9  1  0  0  0  0
 10  9  1  0  0  0  0
 11  8  1  0  0  0  0
 12 13  1  0  0  0  0
 12 11  1  0  0  0  0
 13 17  1  0  0  0  0
 13 16  1  0  0  0  0
 14 12  1  0  0  0  0
 14 13  1  0  0  0  0
 15 12  1  0  0  0  0
 18 14  1  0  0  0  0
 19 14  1  0  0  0  0
 20  1  1  0  0  0  0
 21 22  1  0  0  0  0
 21 20  1  0  0  0  0
 23 21  1  0  0  0  0
 24 31  1  0  0  0  0
 25 24  1  0  0  0  0
 25 21  1  0  0  0  0
 26 25  2  0  0  0  0
 27 28  2  0  0  0  0
 27 26  1  0  0  0  0
 28 29  1  0  0  0  0
 29 24  2  0  0  0  0
 30 33  1  0  0  0  0
 30 28  1  0  0  0  0
 32 30  1  0  0  0  0
 34 26  1  0  0  0  0
 35 36  1  0  0  0  0
 35 34  1  0  0  0  0
M  END
>  <minimizedAffinity>
-4.7604475

$$$$

 OpenBabel03252504363D

 36 37  0  0  0  0  0  0  0  0999 V2000
   38.1680   29.7570   39.8550 C   0  0  0  0  0  3  0  0  0  0  0  0
   38.6790   29.2220   38.7370 C   0  0  0  0  0  3  0  0  0  0  0  0
   39.7200   29.9150   37.8800 C   0  0  0  0  0  0  0  0  0  0  0  0
   39.2310   30.5050   37.0700 H   0  0  0  0  0  0  0  0  0  0  0  0
   40.3810   29.1320   37.4230 H   0  0  0  0  0  0  0  0  0  0  0  0
   40.3950   30.8020   38.6920 O   0  0  0  0  0  0  0  0  0  0  0  0
   42.0460   32.3010   37.2360 O   0  0  0  0  0  0  0  0  0  0  0  0
   40.6720   32.2450   37.8860 P   0  0  1  0  0  0  0  0  0  0  0  0
   39.5350   32.4230   36.6180 O   0  0  0  0  0  0  0  0  0  0  0  0
   38.7040   32.7080   37.0440 H   0  0  0  0  0  0  0  0  0  0  0  0
   40.4670   33.5660   38.8920 O   0  0  0  0  0  0  0  0  0  0  0  0
   39.6450   33.2790   39.9800 C   0  0  0  0  0  0  0  0  0  0  0  0
   38.1670   33.5160   39.7900 C   0  0  0  0  0  0  0  0  0  0  0  0
   39.0070   34.4510   40.6550 C   0  0  0  0  0  0  0  0  0  0  0  0
   39.9520   32.4390   40.6260 H   0  0  0  0  0  0  0  0  0  0  0  0
   37.8660   33.8220   38.7900 H   0  0  0  0  0  0  0  0  0  0  0  0
   37.5100   32.8550   40.3950 H   0  0  0  0  0  0  0  0  0  0  0  0
   39.1220   35.4640   40.1940 H   0  0  0  0  0  0  0  0  0  0  0  0
   38.8550   34.4470   41.7530 H   0  0  0  0  0  0  0  0  0  0  0  0
   37.2360   28.9770   40.5090 O   0  0  0  0  0  0  0  0  0  0  0  0
   37.2720   28.4230   41.7380 C   0  0  0  0  0  0  0  0  0  0  0  0
   36.1940   28.4330   42.1180 H   0  0  0  0  0  0  0  0  0  0  0  0
   37.8600   28.8510   42.5390 H   0  0  0  0  0  0  0  0  0  0  0  0
   36.9560   26.2490   40.6400 C   0  0  0  0  0  0  0  0  0  0  0  0
   37.5310   26.9260   41.7080 C   0  0  0  0  0  0  0  0  0  0  0  0
   38.2700   26.2350   42.6200 C   0  0  0  0  0  0  0  0  0  0  0  0
   38.3860   24.9350   42.4110 N   0  0  0  0  0  0  0  0  0  0  0  0
   37.8470   24.2870   41.4040 C   0  0  0  0  0  0  0  0  0  0  0  0
   37.0880   24.9400   40.4530 N   0  0  0  0  0  0  0  0  0  0  0  0
   38.0570   22.8690   41.2640 N   0  0  0  0  0  0  0  0  0  0  0  0
   36.3610   26.7550   39.8920 H   0  0  0  0  0  0  0  0  0  0  0  0
   37.9340   22.0930   41.9640 H   0  0  0  0  0  0  0  0  0  0  0  0
   38.3860   22.6490   40.2760 H   0  0  0  0  0  0  0  0  0  0  0  0
   38.8610   26.9910   43.7480 C   0  0  0  0  0  2  0  0  0  0  0  0
   40.3610   26.8070   43.8660 C   0  0  0  0  0  2  0  0  0  0  0  0
   40.6360   26.1270   44.7000 H   0  0  0  0  0  0  0  0  0  0  0  0
  1 20  1  0  0  0  0
  2  1  2  0  0  0  0
  3  6  1  0  0  0  0
  3  2  1  0  0  0  0
  4  3  1  0  0  0  0
  5  3  1  0  0  0  0
  8  7  2  6  0  0  0
  8  6  1  0  0  0  0
  8 11  1  0  0  0  0
  9 10  1  0  0  0  0
  9  8  1  0  0  0  0
 11 12  1  0  0  0  0
 12 15  1  0  0  0  0
 12 14  1  0  0  0  0
 13 12  1  0  0  0  0
 13 17  1  0  0  0  0
 13 14  1  0  0  0  0
 14 19  1  0  0  0  0
 16 13  1  0  0  0  0
 18 14  1  0  0  0  0
 20 21  1  0  0  0  0
 21 22  1  0  0  0  0
 21 23  1  0  0  0  0
 24 25  1  0  0  0  0
 25 21  1  0  0  0  0
 25 26  2  0  0  0  0
 26 34  1  0  0  0  0
 27 26  1  0  0  0  0
 28 27  2  0  0  0  0
 29 24  2  0  0  0  0
 29 28  1  0  0  0  0
 30 28  1  0  0  0  0
 30 32  1  0  0  0  0
 31 24  1  0  0  0  0
 33 30  1  0  0  0  0
 34 35  1  0  0  0  0
 35 36  1  0  0  0  0
M  END
>  <minimizedAffinity>
-4.74776983

$$$$

 OpenBabel03252504363D

 36 37  0  0  0  0  0  0  0  0999 V2000
   38.2330   29.6610   42.1730 C   0  0  0  0  0  3  0  0  0  0  0  0
   39.2730   30.1600   41.4900 C   0  0  0  0  0  3  0  0  0  0  0  0
   39.5750   31.6420   41.3940 C   0  0  0  0  0  0  0  0  0  0  0  0
   40.2250   31.8540   40.5140 H   0  0  0  0  0  0  0  0  0  0  0  0
   40.1040   31.9580   42.3320 H   0  0  0  0  0  0  0  0  0  0  0  0
   38.3760   32.2920   41.1920 O   0  0  0  0  0  0  0  0  0  0  0  0
   37.0820   33.8140   39.4310 O   0  0  0  0  0  0  0  0  0  0  0  0
   38.3210   32.9630   39.6560 P   0  0  1  0  0  0  0  0  0  0  0  0
   39.6630   34.0020   39.4340 O   0  0  0  0  0  0  0  0  0  0  0  0
   40.4250   33.4180   39.2570 H   0  0  0  0  0  0  0  0  0  0  0  0
   38.4280   31.7920   38.4650 O   0  0  0  0  0  0  0  0  0  0  0  0
   37.1750   31.3770   38.0190 C   0  0  0  0  0  0  0  0  0  0  0  0
   36.4840   30.3140   38.8360 C   0  0  0  0  0  0  0  0  0  0  0  0
   37.0920   29.9860   37.4760 C   0  0  0  0  0  0  0  0  0  0  0  0
   36.5450   32.1400   37.5290 H   0  0  0  0  0  0  0  0  0  0  0  0
   36.9960   30.0180   39.7490 H   0  0  0  0  0  0  0  0  0  0  0  0
   35.3730   30.3530   38.8060 H   0  0  0  0  0  0  0  0  0  0  0  0
   37.9880   29.3220   37.5640 H   0  0  0  0  0  0  0  0  0  0  0  0
   36.4170   29.7570   36.6280 H   0  0  0  0  0  0  0  0  0  0  0  0
   38.1220   28.2850   42.1540 O   0  0  0  0  0  0  0  0  0  0  0  0
   38.1750   27.3930   43.1640 C   0  0  0  0  0  0  0  0  0  0  0  0
   37.4390   26.5620   42.8870 H   0  0  0  0  0  0  0  0  0  0  0  0
   37.9240   27.6660   44.1800 H   0  0  0  0  0  0  0  0  0  0  0  0
   40.5770   27.2990   43.6680 C   0  0  0  0  0  0  0  0  0  0  0  0
   39.4720   26.6030   43.1920 C   0  0  0  0  0  0  0  0  0  0  0  0
   39.6140   25.3040   42.8060 C   0  0  0  0  0  0  0  0  0  0  0  0
   40.8270   24.7930   42.9170 N   0  0  0  0  0  0  0  0  0  0  0  0
   41.8760   25.4420   43.3660 C   0  0  0  0  0  0  0  0  0  0  0  0
   41.7880   26.7600   43.7700 N   0  0  0  0  0  0  0  0  0  0  0  0
   43.1500   24.7760   43.4640 N   0  0  0  0  0  0  0  0  0  0  0  0
   40.5130   28.3300   43.9850 H   0  0  0  0  0  0  0  0  0  0  0  0
   43.6760   24.2120   42.7480 H   0  0  0  0  0  0  0  0  0  0  0  0
   43.5590   24.9210   44.4350 H   0  0  0  0  0  0  0  0  0  0  0  0
   38.4150   24.5990   42.2990 C   0  0  0  0  0  2  0  0  0  0  0  0
   38.4340   24.3960   40.7970 C   0  0  0  0  0  2  0  0  0  0  0  0
   37.7540   25.0980   40.2700 H   0  0  0  0  0  0  0  0  0  0  0  0
  2  1  2  0  0  0  0
  3  2  1  0  0  0  0
  3  5  1  0  0  0  0
  4  3  1  0  0  0  0
  6  3  1  0  0  0  0
  8  7  2  6  0  0  0
  8  6  1  0  0  0  0
  9  8  1  0  0  0  0
 10  9  1  0  0  0  0
 11  8  1  0  0  0  0
 12 11  1  0  0  0  0
 12 13  1  0  0  0  0
 13 16  1  0  0  0  0
 14 18  1  0  0  0  0
 14 12  1  0  0  0  0
 14 13  1  0  0  0  0
 15 12  1  0  0  0  0
 17 13  1  0  0  0  0
 19 14  1  0  0  0  0
 20  1  1  0  0  0  0
 20 21  1  0  0  0  0
 21 25  1  0  0  0  0
 21 23  1  0  0  0  0
 22 21  1  0  0  0  0
 24 29  1  0  0  0  0
 24 31  1  0  0  0  0
 25 24  2  0  0  0  0
 26 27  2  0  0  0  0
 26 25  1  0  0  0  0
 27 28  1  0  0  0  0
 28 30  1  0  0  0  0
 28 29  2  0  0  0  0
 30 33  1  0  0  0  0
 32 30  1  0  0  0  0
 34 26  1  0  0  0  0
 35 34  1  0  0  0  0
 36 35  1  0  0  0  0
M  END
>  <minimizedAffinity>
-4.69185305

$$$$

 OpenBabel03252504363D

 36 37  0  0  0  0  0  0  0  0999 V2000
   37.0700   29.4130   38.1910 C   0  0  0  0  0  3  0  0  0  0  0  0
   36.8230   30.6400   38.6700 C   0  0  0  0  0  3  0  0  0  0  0  0
   37.3920   31.9040   38.0580 C   0  0  0  0  0  0  0  0  0  0  0  0
   36.7970   32.7940   38.3700 H   0  0  0  0  0  0  0  0  0  0  0  0
   37.3570   31.8060   36.9410 H   0  0  0  0  0  0  0  0  0  0  0  0
   38.6680   32.0630   38.5570 O   0  0  0  0  0  0  0  0  0  0  0  0
   39.6660   34.1580   39.8640 O   0  0  0  0  0  0  0  0  0  0  0  0
   38.6500   33.0280   39.9280 P   0  0  1  0  0  0  0  0  0  0  0  0
   37.1160   33.7720   40.0860 O   0  0  0  0  0  0  0  0  0  0  0  0
   36.5230   33.0850   40.4440 H   0  0  0  0  0  0  0  0  0  0  0  0
   38.8860   32.1320   41.3200 O   0  0  0  0  0  0  0  0  0  0  0  0
   39.9310   31.2200   41.1900 C   0  0  0  0  0  0  0  0  0  0  0  0
   39.5510   29.7610   41.1260 C   0  0  0  0  0  0  0  0  0  0  0  0
   40.2000   30.3480   42.3760 C   0  0  0  0  0  0  0  0  0  0  0  0
   40.8080   31.5490   40.6070 H   0  0  0  0  0  0  0  0  0  0  0  0
   38.4830   29.5560   41.1110 H   0  0  0  0  0  0  0  0  0  0  0  0
   40.2520   29.1250   40.5430 H   0  0  0  0  0  0  0  0  0  0  0  0
   39.4930   30.3850   43.2410 H   0  0  0  0  0  0  0  0  0  0  0  0
   41.2390   30.0550   42.6270 H   0  0  0  0  0  0  0  0  0  0  0  0
   36.4580   28.3810   38.8750 O   0  0  0  0  0  0  0  0  0  0  0  0
   36.2840   28.1960   40.2000 C   0  0  0  0  0  0  0  0  0  0  0  0
   35.1620   28.0330   40.3480 H   0  0  0  0  0  0  0  0  0  0  0  0
   36.5580   28.9530   40.9220 H   0  0  0  0  0  0  0  0  0  0  0  0
   37.1810   25.9680   39.6870 C   0  0  0  0  0  0  0  0  0  0  0  0
   36.8160   26.8600   40.6890 C   0  0  0  0  0  0  0  0  0  0  0  0
   36.9620   26.4980   41.9940 C   0  0  0  0  0  0  0  0  0  0  0  0
   37.4540   25.2920   42.2120 N   0  0  0  0  0  0  0  0  0  0  0  0
   37.8030   24.4430   41.2740 C   0  0  0  0  0  0  0  0  0  0  0  0
   37.6740   24.7590   39.9350 N   0  0  0  0  0  0  0  0  0  0  0  0
   38.3500   23.1580   41.6290 N   0  0  0  0  0  0  0  0  0  0  0  0
   37.0830   26.2100   38.6380 H   0  0  0  0  0  0  0  0  0  0  0  0
   37.9890   22.4300   42.2990 H   0  0  0  0  0  0  0  0  0  0  0  0
   39.2540   22.9910   41.0940 H   0  0  0  0  0  0  0  0  0  0  0  0
   36.5560   27.4750   43.0310 C   0  0  0  0  0  2  0  0  0  0  0  0
   37.7180   27.9720   43.8670 C   0  0  0  0  0  2  0  0  0  0  0  0
   37.7380   27.5100   44.8760 H   0  0  0  0  0  0  0  0  0  0  0  0
  1  2  2  0  0  0  0
  1 20  1  0  0  0  0
  3  4  1  0  0  0  0
  3  6  1  0  0  0  0
  3  2  1  0  0  0  0
  5  3  1  0  0  0  0
  6  8  1  0  0  0  0
  8  7  2  6  0  0  0
  8  9  1  0  0  0  0
  8 11  1  0  0  0  0
  9 10  1  0  0  0  0
 12 11  1  0  0  0  0
 12 14  1  0  0  0  0
 13 12  1  0  0  0  0
 13 14  1  0  0  0  0
 14 19  1  0  0  0  0
 14 18  1  0  0  0  0
 15 12  1  0  0  0  0
 16 13  1  0  0  0  0
 17 13  1  0  0  0  0
 20 21  1  0  0  0  0
 21 22  1  0  0  0  0
 21 25  1  0  0  0  0
 21 23  1  0  0  0  0
 24 29  2  0  0  0  0
 24 25  1  0  0  0  0
 25 26  2  0  0  0  0
 26 27  1  0  0  0  0
 26 34  1  0  0  0  0
 28 30  1  0  0  0  0
 28 27  2  0  0  0  0
 29 28  1  0  0  0  0
 30 32  1  0  0  0  0
 31 24  1  0  0  0  0
 33 30  1  0  0  0  0
 34 35  1  0  0  0  0
 35 36  1  0  0  0  0
M  END
>  <minimizedAffinity>
-4.61130095

$$$$

 OpenBabel03252504363D

 36 37  0  0  0  0  0  0  0  0999 V2000
   36.1940   26.9930   38.2780 C   0  0  0  0  0  3  0  0  0  0  0  0
   35.7870   27.9090   39.1670 C   0  0  0  0  0  3  0  0  0  0  0  0
   36.1970   29.3670   39.1100 C   0  0  0  0  0  0  0  0  0  0  0  0
   35.4580   30.0040   39.6510 H   0  0  0  0  0  0  0  0  0  0  0  0
   36.2420   29.6820   38.0340 H   0  0  0  0  0  0  0  0  0  0  0  0
   37.4030   29.4800   39.7690 O   0  0  0  0  0  0  0  0  0  0  0  0
   38.0050   31.7980   40.9340 O   0  0  0  0  0  0  0  0  0  0  0  0
   37.2550   30.4860   41.1020 P   0  0  1  0  0  0  0  0  0  0  0  0
   35.6100   30.9000   41.3300 O   0  0  0  0  0  0  0  0  0  0  0  0
   35.1960   30.1220   41.7500 H   0  0  0  0  0  0  0  0  0  0  0  0
   37.7510   29.7260   42.5080 O   0  0  0  0  0  0  0  0  0  0  0  0
   37.7760   28.3390   42.3790 C   0  0  0  0  0  0  0  0  0  0  0  0
   36.6270   27.5820   42.9980 C   0  0  0  0  0  0  0  0  0  0  0  0
   38.0130   27.5610   43.6340 C   0  0  0  0  0  0  0  0  0  0  0  0
   38.2180   27.9350   41.4520 H   0  0  0  0  0  0  0  0  0  0  0  0
   35.8380   28.1970   43.4270 H   0  0  0  0  0  0  0  0  0  0  0  0
   36.3770   26.6240   42.4930 H   0  0  0  0  0  0  0  0  0  0  0  0
   38.0390   28.1090   44.6080 H   0  0  0  0  0  0  0  0  0  0  0  0
   38.6020   26.6230   43.6050 H   0  0  0  0  0  0  0  0  0  0  0  0
   35.7120   25.7160   38.4870 O   0  0  0  0  0  0  0  0  0  0  0  0
   36.3650   24.5370   38.5450 C   0  0  0  0  0  0  0  0  0  0  0  0
   37.1300   24.5610   37.6960 H   0  0  0  0  0  0  0  0  0  0  0  0
   35.8490   23.5930   38.4360 H   0  0  0  0  0  0  0  0  0  0  0  0
   36.6640   24.2780   40.9700 C   0  0  0  0  0  0  0  0  0  0  0  0
   37.2960   24.4330   39.7410 C   0  0  0  0  0  0  0  0  0  0  0  0
   38.6570   24.4680   39.6880 C   0  0  0  0  0  0  0  0  0  0  0  0
   39.2880   24.3490   40.8420 N   0  0  0  0  0  0  0  0  0  0  0  0
   38.7010   24.2020   42.0070 C   0  0  0  0  0  0  0  0  0  0  0  0
   37.3240   24.1600   42.1170 N   0  0  0  0  0  0  0  0  0  0  0  0
   39.4920   24.0610   43.2020 N   0  0  0  0  0  0  0  0  0  0  0  0
   35.5870   24.2440   41.0620 H   0  0  0  0  0  0  0  0  0  0  0  0
   40.2870   24.6500   43.5620 H   0  0  0  0  0  0  0  0  0  0  0  0
   39.1640   23.2120   43.7530 H   0  0  0  0  0  0  0  0  0  0  0  0
   39.2920   24.6400   38.3610 C   0  0  0  0  0  2  0  0  0  0  0  0
   39.9700   23.3810   37.8580 C   0  0  0  0  0  2  0  0  0  0  0  0
   41.0740   23.4330   37.9510 H   0  0  0  0  0  0  0  0  0  0  0  0
  1 20  1  0  0  0  0
  1  2  2  0  0  0  0
  3  2  1  0  0  0  0
  3  4  1  0  0  0  0
  3  6  1  0  0  0  0
  5  3  1  0  0  0  0
  6  8  1  0  0  0  0
  8  7  2  6  0  0  0
  8  9  1  0  0  0  0
  8 11  1  0  0  0  0
  9 10  1  0  0  0  0
 12 11  1  0  0  0  0
 12 13  1  0  0  0  0
 12 14  1  0  0  0  0
 13 16  1  0  0  0  0
 13 14  1  0  0  0  0
 14 18  1  0  0  0  0
 15 12  1  0  0  0  0
 17 13  1  0  0  0  0
 19 14  1  0  0  0  0
 20 21  1  0  0  0  0
 21 25  1  0  0  0  0
 22 21  1  0  0  0  0
 23 21  1  0  0  0  0
 24 31  1  0  0  0  0
 24 29  1  0  0  0  0
 25 24  2  0  0  0  0
 26 25  1  0  0  0  0
 26 27  2  0  0  0  0
 27 28  1  0  0  0  0
 28 29  2  0  0  0  0
 28 30  1  0  0  0  0
 30 32  1  0  0  0  0
 30 33  1  0  0  0  0
 34 26  1  0  0  0  0
 35 36  1  0  0  0  0
 35 34  1  0  0  0  0
M  END
>  <minimizedAffinity>
-4.52436829

$$$$

 OpenBabel03252504363D

 36 37  0  0  0  0  0  0  0  0999 V2000
   36.4930   27.8890   41.4950 C   0  0  0  0  0  3  0  0  0  0  0  0
   37.8150   28.1010   41.5320 C   0  0  0  0  0  3  0  0  0  0  0  0
   38.8220   27.0320   41.9050 C   0  0  0  0  0  0  0  0  0  0  0  0
   39.5140   27.4030   42.6970 H   0  0  0  0  0  0  0  0  0  0  0  0
   39.4130   26.7650   40.9890 H   0  0  0  0  0  0  0  0  0  0  0  0
   38.1170   25.9710   42.4340 O   0  0  0  0  0  0  0  0  0  0  0  0
   39.9580   24.6960   40.9930 O   0  0  0  0  0  0  0  0  0  0  0  0
   38.8020   24.5150   41.9640 P   0  0  1  0  0  0  0  0  0  0  0  0
   39.4470   23.7150   43.3330 O   0  0  0  0  0  0  0  0  0  0  0  0
   38.6830   23.3180   43.7940 H   0  0  0  0  0  0  0  0  0  0  0  0
   37.6650   23.4800   41.3050 O   0  0  0  0  0  0  0  0  0  0  0  0
   36.5170   24.1520   40.8900 C   0  0  0  0  0  0  0  0  0  0  0  0
   35.6880   23.4790   39.8230 C   0  0  0  0  0  0  0  0  0  0  0  0
   36.5390   24.7040   39.5000 C   0  0  0  0  0  0  0  0  0  0  0  0
   35.9870   24.7480   41.6530 H   0  0  0  0  0  0  0  0  0  0  0  0
   36.0230   22.4890   39.5250 H   0  0  0  0  0  0  0  0  0  0  0  0
   34.6030   23.7150   39.8610 H   0  0  0  0  0  0  0  0  0  0  0  0
   37.4040   24.4550   38.8370 H   0  0  0  0  0  0  0  0  0  0  0  0
   36.0320   25.6640   39.2730 H   0  0  0  0  0  0  0  0  0  0  0  0
   35.7310   28.9800   41.1260 O   0  0  0  0  0  0  0  0  0  0  0  0
   34.9390   29.1660   40.0500 C   0  0  0  0  0  0  0  0  0  0  0  0
   34.6470   30.2710   40.0630 H   0  0  0  0  0  0  0  0  0  0  0  0
   34.0080   28.6280   39.9280 H   0  0  0  0  0  0  0  0  0  0  0  0
   35.4430   27.9810   37.9580 C   0  0  0  0  0  0  0  0  0  0  0  0
   35.6970   29.1050   38.7350 C   0  0  0  0  0  0  0  0  0  0  0  0
   36.5680   30.0490   38.2820 C   0  0  0  0  0  0  0  0  0  0  0  0
   37.1190   29.8160   37.1040 N   0  0  0  0  0  0  0  0  0  0  0  0
   36.8840   28.7580   36.3630 C   0  0  0  0  0  0  0  0  0  0  0  0
   36.0110   27.7700   36.7760 N   0  0  0  0  0  0  0  0  0  0  0  0
   37.5280   28.6170   35.0820 N   0  0  0  0  0  0  0  0  0  0  0  0
   34.7600   27.2050   38.2770 H   0  0  0  0  0  0  0  0  0  0  0  0
   38.5440   28.7030   34.8210 H   0  0  0  0  0  0  0  0  0  0  0  0
   36.8020   28.3930   34.3370 H   0  0  0  0  0  0  0  0  0  0  0  0
   36.8170   31.2300   39.1410 C   0  0  0  0  0  2  0  0  0  0  0  0
   37.5730   32.3340   38.4310 C   0  0  0  0  0  2  0  0  0  0  0  0
   38.6380   32.3810   38.7420 H   0  0  0  0  0  0  0  0  0  0  0  0
  1  2  2  0  0  0  0
  2  3  1  0  0  0  0
  3  6  1  0  0  0  0
  3  4  1  0  0  0  0
  5  3  1  0  0  0  0
  8  7  2  6  0  0  0
  8  6  1  0  0  0  0
  8  9  1  0  0  0  0
  9 10  1  0  0  0  0
 11  8  1  0  0  0  0
 12 11  1  0  0  0  0
 12 15  1  0  0  0  0
 13 17  1  0  0  0  0
 13 12  1  0  0  0  0
 14 13  1  0  0  0  0
 14 12  1  0  0  0  0
 16 13  1  0  0  0  0
 18 14  1  0  0  0  0
 19 14  1  0  0  0  0
 20  1  1  0  0  0  0
 21 22  1  0  0  0  0
 21 20  1  0  0  0  0
 23 21  1  0  0  0  0
 24 31  1  0  0  0  0
 24 25  1  0  0  0  0
 25 21  1  0  0  0  0
 26 25  2  0  0  0  0
 26 34  1  0  0  0  0
 27 26  1  0  0  0  0
 28 29  1  0  0  0  0
 28 27  2  0  0  0  0
 29 24  2  0  0  0  0
 30 28  1  0  0  0  0
 32 30  1  0  0  0  0
 33 30  1  0  0  0  0
 35 36  1  0  0  0  0
 35 34  1  0  0  0  0
M  END
>  <minimizedAffinity>
-4.48907423

$$$$
