
 OpenBabel03252501453D

 17 17  0  0  0  0  0  0  0  0999 V2000
   41.6340   33.2190   41.2430 C   0  0  0  0  0  0  0  0  0  0  0  0
   42.4470   34.3450   41.1520 C   0  0  0  0  0  0  0  0  0  0  0  0
   42.0010   35.4220   40.3840 C   0  0  0  0  0  0  0  0  0  0  0  0
   40.7920   35.3350   39.7520 N   0  0  0  0  0  0  0  0  0  0  0  0
   40.0280   34.2180   39.8650 C   0  0  0  0  0  0  0  0  0  0  0  0
   40.4520   33.1750   40.6040 N   0  0  0  0  0  0  0  0  0  0  0  0
   41.9830   32.3860   41.8380 H   0  0  0  0  0  0  0  0  0  0  0  0
   42.5900   36.3280   40.2750 H   0  0  0  0  0  0  0  0  0  0  0  0
   43.7310   34.4700   41.8080 C   0  0  0  0  0  0  0  0  0  0  0  0
   44.2750   35.5950   42.2560 C   0  0  0  0  0  0  0  0  0  0  0  0
   45.6280   35.5800   42.9250 C   0  0  0  0  0  0  0  0  0  0  0  0
   45.5560   35.7540   43.9980 H   0  0  0  0  0  0  0  0  0  0  0  0
   46.0890   34.5760   42.7000 H   0  0  0  0  0  0  0  0  0  0  0  0
   46.2460   36.3140   42.3640 H   0  0  0  0  0  0  0  0  0  0  0  0
   38.7170   34.0770   39.2020 C   0  0  0  0  0  0  0  0  0  0  0  0
   38.8090   34.0820   37.7000 C   0  0  0  0  0  0  0  0  0  0  0  0
   39.1360   35.0830   37.3570 H   0  0  0  0  0  0  0  0  0  0  0  0
  1  7  1  0  0  0  0
  2  1  1  0  0  0  0
  2  9  1  0  0  0  0
  3  2  2  0  0  0  0
  4  5  2  0  0  0  0
  4  3  1  0  0  0  0
  5  6  1  0  0  0  0
  6  1  2  0  0  0  0
  8  3  1  0  0  0  0
  9 10  2  0  0  0  0
 10 11  1  0  0  0  0
 11 12  1  0  0  0  0
 13 11  1  0  0  0  0
 14 11  1  0  0  0  0
 15  5  1  0  0  0  0
 16 15  1  0  0  0  0
 17 16  1  0  0  0  0
M  END
>  <minimizedAffinity>
-3.58152127

>  <minimizedRMSD>
6.68332958

$$$$
