
 OpenBabel03252507113D

 18 18  0  0  0  0  0  0  0  0999 V2000
   45.6910   34.7920   43.8380 C   0  0  0  0  0  0  0  0  0  0  0  0
   46.8280   34.0640   43.4410 C   0  0  0  0  0  0  0  0  0  0  0  0
   47.4130   33.0660   44.2720 C   0  0  0  0  0  0  0  0  0  0  0  0
   46.8400   32.8410   45.4730 N   0  0  0  0  0  0  0  0  0  0  0  0
   45.7650   33.5400   45.8420 C   0  0  0  0  0  0  0  0  0  0  0  0
   45.2060   34.4790   45.0620 N   0  0  0  0  0  0  0  0  0  0  0  0
   48.2450   32.6910   43.7070 H   0  0  0  0  0  0  0  0  0  0  0  0
   45.5290   33.1410   46.8500 H   0  0  0  0  0  0  0  0  0  0  0  0
   47.2810   34.4530   42.1690 O   0  0  0  0  0  0  0  0  0  0  0  0
   49.5530   33.3620   41.3530 O   0  0  0  0  0  0  0  0  0  0  0  0
   48.9420   34.6340   41.8360 P   0  0  0  0  0  0  0  0  0  0  0  0
   49.1650   35.7930   40.6480 O   0  0  0  0  0  0  0  0  0  0  0  0
   49.9820   36.3210   40.7890 H   0  0  0  0  0  0  0  0  0  0  0  0
   49.8150   35.1860   43.1900 O   0  0  0  0  0  0  0  0  0  0  0  0
   50.0460   34.4590   43.8190 H   0  0  0  0  0  0  0  0  0  0  0  0
   44.7340   35.8850   43.5420 C   0  0  0  0  0  0  0  0  0  0  0  0
   44.0440   35.8200   42.2300 C   0  0  0  0  0  0  0  0  0  0  0  0
   42.9650   36.0740   42.3570 H   0  0  0  0  0  0  0  0  0  0  0  0
  1  6  1  0  0  0  0
  2  1  2  0  0  0  0
  2  3  1  0  0  0  0
  3  4  2  0  0  0  0
  4  5  1  0  0  0  0
  5  8  1  0  0  0  0
  6  5  2  0  0  0  0
  7  3  1  0  0  0  0
  9  2  1  0  0  0  0
 10 11  2  0  0  0  0
 11  9  1  0  0  0  0
 11 14  1  0  0  0  0
 12 13  1  0  0  0  0
 12 11  1  0  0  0  0
 14 15  1  0  0  0  0
 16  1  1  0  0  0  0
 17 18  1  0  0  0  0
 17 16  1  0  0  0  0
M  END
>  <minimizedAffinity>
-4.5263958

>  <minimizedRMSD>
1.69910431

$$$$
