
 OpenBabel03242517523D

 26 27  0  0  0  0  0  0  0  0999 V2000
   37.0490   31.1940   38.9210 C   0  0  0  0  0  0  0  0  0  0  0  0
   36.4000   30.0680   39.3500 C   0  0  0  0  0  0  0  0  0  0  0  0
   36.1160   29.0880   38.4040 C   0  0  0  0  0  0  0  0  0  0  0  0
   36.4720   29.2340   37.0730 C   0  0  0  0  0  0  0  0  0  0  0  0
   37.1250   30.3790   36.6670 C   0  0  0  0  0  0  0  0  0  0  0  0
   37.4110   31.3600   37.6090 C   0  0  0  0  0  0  0  0  0  0  0  0
   35.6070   28.1610   38.6330 H   0  0  0  0  0  0  0  0  0  0  0  0
   36.2520   28.4720   36.3330 H   0  0  0  0  0  0  0  0  0  0  0  0
   37.3900   30.4620   35.6190 H   0  0  0  0  0  0  0  0  0  0  0  0
   37.9150   32.2500   37.3140 H   0  0  0  0  0  0  0  0  0  0  0  0
   37.3680   32.3720   40.1660 S   0  0  0  0  0  0  0  0  0  0  0  0
   37.3530   33.7780   39.6220 O   0  0  0  0  0  0  0  0  0  0  0  0
   38.7890   32.1380   40.6610 O   0  0  0  0  0  0  0  0  0  0  0  0
   36.5410   32.2140   41.2250 H   0  0  0  0  0  0  0  0  0  0  0  0
   35.9660   29.7390   40.6190 O   0  0  0  0  0  0  0  0  0  0  0  0
   37.9940   28.8280   43.3770 C   0  0  0  0  0  0  0  0  0  0  0  0
   37.9420   27.4230   43.3610 C   0  0  0  0  0  0  0  0  0  0  0  0
   37.1850   26.8010   42.3680 C   0  0  0  0  0  0  0  0  0  0  0  0
   36.5510   27.5990   41.4840 N   0  0  0  0  0  0  0  0  0  0  0  0
   36.6130   28.9240   41.5180 C   0  0  0  0  0  0  0  0  0  0  0  0
   37.3370   29.5370   42.4680 N   0  0  0  0  0  0  0  0  0  0  0  0
   38.5990   29.2380   44.1750 H   0  0  0  0  0  0  0  0  0  0  0  0
   38.4410   26.7550   44.0570 H   0  0  0  0  0  0  0  0  0  0  0  0
   37.0370   25.3270   42.2240 C   0  0  0  0  0  2  0  0  0  0  0  0
   36.9200   24.9220   40.7650 C   0  0  0  0  0  2  0  0  0  0  0  0
   37.3320   23.9150   40.5730 H   0  0  0  0  0  0  0  0  0  0  0  0
  1  2  1  0  0  0  0
  1 11  1  0  0  0  0
  2 15  1  0  0  0  0
  3  7  1  0  0  0  0
  3  2  2  0  0  0  0
  4  3  1  0  0  0  0
  5  4  2  0  0  0  0
  5  6  1  0  0  0  0
  6  1  2  0  0  0  0
  8  4  1  0  0  0  0
  9  5  1  0  0  0  0
 10  6  1  0  0  0  0
 11 13  2  0  0  0  0
 11 14  1  0  0  0  0
 12 11  2  0  0  0  0
 15 20  1  0  0  0  0
 16 22  1  0  0  0  0
 17 16  1  0  0  0  0
 17 23  1  0  0  0  0
 18 17  2  0  0  0  0
 19 20  2  0  0  0  0
 19 18  1  0  0  0  0
 20 21  1  0  0  0  0
 21 16  2  0  0  0  0
 24 18  1  0  0  0  0
 25 24  1  0  0  0  0
 26 25  1  0  0  0  0
M  END
>  <minimizedAffinity>
-4.88151026

$$$$

 OpenBabel03242517523D

 26 27  0  0  0  0  0  0  0  0999 V2000
   37.5550   31.2990   39.3910 C   0  0  0  0  0  0  0  0  0  0  0  0
   38.4800   31.0130   40.3600 C   0  0  0  0  0  0  0  0  0  0  0  0
   39.0340   32.0820   41.0560 C   0  0  0  0  0  0  0  0  0  0  0  0
   38.6730   33.3930   40.7900 C   0  0  0  0  0  0  0  0  0  0  0  0
   37.7390   33.6530   39.8090 C   0  0  0  0  0  0  0  0  0  0  0  0
   37.1830   32.5880   39.1110 C   0  0  0  0  0  0  0  0  0  0  0  0
   39.7730   31.9710   41.8400 H   0  0  0  0  0  0  0  0  0  0  0  0
   39.1040   34.2280   41.3310 H   0  0  0  0  0  0  0  0  0  0  0  0
   37.4780   34.6890   39.6250 H   0  0  0  0  0  0  0  0  0  0  0  0
   36.4600   32.7690   38.3500 H   0  0  0  0  0  0  0  0  0  0  0  0
   36.9090   29.9060   38.5660 S   0  0  0  0  0  0  0  0  0  0  0  0
   36.6030   30.2050   37.1200 O   0  0  0  0  0  0  0  0  0  0  0  0
   35.5680   29.5770   39.2090 O   0  0  0  0  0  0  0  0  0  0  0  0
   37.7060   28.8230   38.7170 H   0  0  0  0  0  0  0  0  0  0  0  0
   38.9670   29.7880   40.7690 O   0  0  0  0  0  0  0  0  0  0  0  0
   37.4170   28.4900   43.6780 C   0  0  0  0  0  0  0  0  0  0  0  0
   37.0550   27.1870   43.2920 C   0  0  0  0  0  0  0  0  0  0  0  0
   37.3640   26.7720   41.9970 C   0  0  0  0  0  0  0  0  0  0  0  0
   37.9930   27.6570   41.1980 N   0  0  0  0  0  0  0  0  0  0  0  0
   38.3250   28.8830   41.5820 C   0  0  0  0  0  0  0  0  0  0  0  0
   38.0350   29.2970   42.8260 N   0  0  0  0  0  0  0  0  0  0  0  0
   37.1450   28.7400   44.6950 H   0  0  0  0  0  0  0  0  0  0  0  0
   36.5490   26.4520   43.9120 H   0  0  0  0  0  0  0  0  0  0  0  0
   37.0440   25.4250   41.4480 C   0  0  0  0  0  2  0  0  0  0  0  0
   37.7500   24.3290   42.2260 C   0  0  0  0  0  2  0  0  0  0  0  0
   37.1780   23.3830   42.2330 H   0  0  0  0  0  0  0  0  0  0  0  0
  1  2  1  0  0  0  0
  2 15  1  0  0  0  0
  2  3  2  0  0  0  0
  3  7  1  0  0  0  0
  4  3  1  0  0  0  0
  4  8  1  0  0  0  0
  5  4  2  0  0  0  0
  6  1  2  0  0  0  0
  6  5  1  0  0  0  0
  9  5  1  0  0  0  0
 10  6  1  0  0  0  0
 11 14  1  0  0  0  0
 11 13  2  0  0  0  0
 11  1  1  0  0  0  0
 12 11  2  0  0  0  0
 15 20  1  0  0  0  0
 16 22  1  0  0  0  0
 17 16  1  0  0  0  0
 17 23  1  0  0  0  0
 18 17  2  0  0  0  0
 19 20  2  0  0  0  0
 19 18  1  0  0  0  0
 20 21  1  0  0  0  0
 21 16  2  0  0  0  0
 24 18  1  0  0  0  0
 24 25  1  0  0  0  0
 25 26  1  0  0  0  0
M  END
>  <minimizedAffinity>
-4.74910212

$$$$

 OpenBabel03242517523D

 26 27  0  0  0  0  0  0  0  0999 V2000
   36.3430   29.7300   38.1740 C   0  0  0  0  0  0  0  0  0  0  0  0
   36.4440   30.2320   39.4440 C   0  0  0  0  0  0  0  0  0  0  0  0
   37.1510   31.4190   39.6120 C   0  0  0  0  0  0  0  0  0  0  0  0
   37.7350   32.0790   38.5430 C   0  0  0  0  0  0  0  0  0  0  0  0
   37.6180   31.5510   37.2740 C   0  0  0  0  0  0  0  0  0  0  0  0
   36.9130   30.3660   37.1020 C   0  0  0  0  0  0  0  0  0  0  0  0
   37.2930   31.9040   40.5700 H   0  0  0  0  0  0  0  0  0  0  0  0
   38.2870   33.0040   38.6710 H   0  0  0  0  0  0  0  0  0  0  0  0
   38.0870   32.0900   36.4590 H   0  0  0  0  0  0  0  0  0  0  0  0
   36.8120   29.9430   36.1300 H   0  0  0  0  0  0  0  0  0  0  0  0
   35.4430   28.2430   38.0490 S   0  0  0  0  0  0  0  0  0  0  0  0
   35.5930   27.6120   36.6860 O   0  0  0  0  0  0  0  0  0  0  0  0
   33.9670   28.5910   38.1790 O   0  0  0  0  0  0  0  0  0  0  0  0
   35.7470   27.3900   39.0540 H   0  0  0  0  0  0  0  0  0  0  0  0
   35.9390   29.7300   40.6260 O   0  0  0  0  0  0  0  0  0  0  0  0
   37.9760   28.8200   43.3780 C   0  0  0  0  0  0  0  0  0  0  0  0
   37.9490   27.4140   43.3430 C   0  0  0  0  0  0  0  0  0  0  0  0
   37.2060   26.7920   42.3400 C   0  0  0  0  0  0  0  0  0  0  0  0
   36.5590   27.5890   41.4650 N   0  0  0  0  0  0  0  0  0  0  0  0
   36.5980   28.9150   41.5160 C   0  0  0  0  0  0  0  0  0  0  0  0
   37.3080   29.5280   42.4760 N   0  0  0  0  0  0  0  0  0  0  0  0
   38.5710   29.2300   44.1820 H   0  0  0  0  0  0  0  0  0  0  0  0
   38.4580   26.7470   44.0320 H   0  0  0  0  0  0  0  0  0  0  0  0
   37.0840   25.3170   42.1760 C   0  0  0  0  0  2  0  0  0  0  0  0
   38.4300   24.6310   42.3230 C   0  0  0  0  0  2  0  0  0  0  0  0
   38.3390   23.6090   42.7330 H   0  0  0  0  0  0  0  0  0  0  0  0
  1  2  1  0  0  0  0
  2  3  2  0  0  0  0
  2 15  1  0  0  0  0
  3  7  1  0  0  0  0
  4  8  1  0  0  0  0
  4  3  1  0  0  0  0
  5  4  2  0  0  0  0
  6  5  1  0  0  0  0
  6  1  2  0  0  0  0
  9  5  1  0  0  0  0
 10  6  1  0  0  0  0
 11  1  1  0  0  0  0
 11 13  2  0  0  0  0
 11 14  1  0  0  0  0
 12 11  2  0  0  0  0
 15 20  1  0  0  0  0
 16 22  1  0  0  0  0
 17 16  1  0  0  0  0
 17 23  1  0  0  0  0
 18 17  2  0  0  0  0
 19 20  2  0  0  0  0
 19 18  1  0  0  0  0
 20 21  1  0  0  0  0
 21 16  2  0  0  0  0
 24 25  1  0  0  0  0
 24 18  1  0  0  0  0
 25 26  1  0  0  0  0
M  END
>  <minimizedAffinity>
-4.69280052

$$$$

 OpenBabel03242517523D

 26 27  0  0  0  0  0  0  0  0999 V2000
   36.4660   29.8980   38.3800 C   0  0  0  0  0  0  0  0  0  0  0  0
   35.7080   29.6070   39.4820 C   0  0  0  0  0  0  0  0  0  0  0  0
   34.4630   29.0230   39.2700 C   0  0  0  0  0  0  0  0  0  0  0  0
   33.9960   28.7400   37.9970 C   0  0  0  0  0  0  0  0  0  0  0  0
   34.7810   29.0430   36.9040 C   0  0  0  0  0  0  0  0  0  0  0  0
   36.0250   29.6260   37.1110 C   0  0  0  0  0  0  0  0  0  0  0  0
   33.7820   28.7530   40.0680 H   0  0  0  0  0  0  0  0  0  0  0  0
   33.0260   28.2840   37.8290 H   0  0  0  0  0  0  0  0  0  0  0  0
   34.3870   28.8090   35.9220 H   0  0  0  0  0  0  0  0  0  0  0  0
   36.6450   29.8670   36.2790 H   0  0  0  0  0  0  0  0  0  0  0  0
   38.0110   30.6270   38.7300 S   0  0  0  0  0  0  0  0  0  0  0  0
   38.5470   31.3940   37.5470 O   0  0  0  0  0  0  0  0  0  0  0  0
   39.0040   29.4980   38.9700 O   0  0  0  0  0  0  0  0  0  0  0  0
   37.9660   31.3720   39.8580 H   0  0  0  0  0  0  0  0  0  0  0  0
   35.9920   29.8100   40.8170 O   0  0  0  0  0  0  0  0  0  0  0  0
   38.1990   28.7890   43.3940 C   0  0  0  0  0  0  0  0  0  0  0  0
   38.1250   27.3860   43.3390 C   0  0  0  0  0  0  0  0  0  0  0  0
   37.2900   26.8050   42.3850 C   0  0  0  0  0  0  0  0  0  0  0  0
   36.6050   27.6370   41.5740 N   0  0  0  0  0  0  0  0  0  0  0  0
   36.6900   28.9600   41.6430 C   0  0  0  0  0  0  0  0  0  0  0  0
   37.4890   29.5330   42.5560 N   0  0  0  0  0  0  0  0  0  0  0  0
   38.8650   29.1660   44.1580 H   0  0  0  0  0  0  0  0  0  0  0  0
   38.6630   26.6910   43.9770 H   0  0  0  0  0  0  0  0  0  0  0  0
   37.1090   25.3370   42.2090 C   0  0  0  0  0  2  0  0  0  0  0  0
   36.9040   24.9770   40.7480 C   0  0  0  0  0  2  0  0  0  0  0  0
   37.2870   23.9700   40.5050 H   0  0  0  0  0  0  0  0  0  0  0  0
  1 11  1  0  0  0  0
  1  2  1  0  0  0  0
  2 15  1  0  0  0  0
  3  2  2  0  0  0  0
  3  7  1  0  0  0  0
  4  3  1  0  0  0  0
  5  6  1  0  0  0  0
  5  4  2  0  0  0  0
  6  1  2  0  0  0  0
  8  4  1  0  0  0  0
  9  5  1  0  0  0  0
 10  6  1  0  0  0  0
 11 13  2  0  0  0  0
 11 14  1  0  0  0  0
 12 11  2  0  0  0  0
 15 20  1  0  0  0  0
 16 22  1  0  0  0  0
 17 16  1  0  0  0  0
 17 23  1  0  0  0  0
 18 17  2  0  0  0  0
 19 20  2  0  0  0  0
 19 18  1  0  0  0  0
 20 21  1  0  0  0  0
 21 16  2  0  0  0  0
 24 18  1  0  0  0  0
 25 24  1  0  0  0  0
 26 25  1  0  0  0  0
M  END
>  <minimizedAffinity>
-4.67314959

$$$$

 OpenBabel03242517523D

 26 27  0  0  0  0  0  0  0  0999 V2000
   39.4720   31.9270   40.7110 C   0  0  0  0  0  0  0  0  0  0  0  0
   38.6660   30.8660   40.4020 C   0  0  0  0  0  0  0  0  0  0  0  0
   37.4430   31.1400   39.7970 C   0  0  0  0  0  0  0  0  0  0  0  0
   37.0450   32.4360   39.5130 C   0  0  0  0  0  0  0  0  0  0  0  0
   37.8760   33.4880   39.8350 C   0  0  0  0  0  0  0  0  0  0  0  0
   39.0980   33.2180   40.4390 C   0  0  0  0  0  0  0  0  0  0  0  0
   36.7300   30.3780   39.5100 H   0  0  0  0  0  0  0  0  0  0  0  0
   36.0920   32.6540   39.0410 H   0  0  0  0  0  0  0  0  0  0  0  0
   37.5350   34.4900   39.6000 H   0  0  0  0  0  0  0  0  0  0  0  0
   39.7540   34.0170   40.6960 H   0  0  0  0  0  0  0  0  0  0  0  0
   40.9840   31.4990   41.4660 S   0  0  0  0  0  0  0  0  0  0  0  0
   40.8160   31.2250   42.9390 O   0  0  0  0  0  0  0  0  0  0  0  0
   41.8980   32.7140   41.3770 O   0  0  0  0  0  0  0  0  0  0  0  0
   41.5980   30.4850   40.8130 H   0  0  0  0  0  0  0  0  0  0  0  0
   38.8810   29.5170   40.6010 O   0  0  0  0  0  0  0  0  0  0  0  0
   37.3900   28.5870   43.6780 C   0  0  0  0  0  0  0  0  0  0  0  0
   37.0280   27.2450   43.4630 C   0  0  0  0  0  0  0  0  0  0  0  0
   37.3150   26.6730   42.2240 C   0  0  0  0  0  0  0  0  0  0  0  0
   37.9260   27.4530   41.3100 N   0  0  0  0  0  0  0  0  0  0  0  0
   38.2590   28.7190   41.5330 C   0  0  0  0  0  0  0  0  0  0  0  0
   37.9890   29.2830   42.7200 N   0  0  0  0  0  0  0  0  0  0  0  0
   37.1360   28.9610   44.6600 H   0  0  0  0  0  0  0  0  0  0  0  0
   36.5370   26.5920   44.1790 H   0  0  0  0  0  0  0  0  0  0  0  0
   36.9930   25.2670   41.8520 C   0  0  0  0  0  2  0  0  0  0  0  0
   38.1870   24.3520   42.0590 C   0  0  0  0  0  2  0  0  0  0  0  0
   37.8870   23.3200   42.3150 H   0  0  0  0  0  0  0  0  0  0  0  0
  1 11  1  0  0  0  0
  2 15  1  0  0  0  0
  2  1  2  0  0  0  0
  3  2  1  0  0  0  0
  4  3  2  0  0  0  0
  4  5  1  0  0  0  0
  5  6  2  0  0  0  0
  6 10  1  0  0  0  0
  6  1  1  0  0  0  0
  7  3  1  0  0  0  0
  8  4  1  0  0  0  0
  9  5  1  0  0  0  0
 11 12  2  0  0  0  0
 13 11  2  0  0  0  0
 14 11  1  0  0  0  0
 15 20  1  0  0  0  0
 16 22  1  0  0  0  0
 17 16  1  0  0  0  0
 17 23  1  0  0  0  0
 18 17  2  0  0  0  0
 19 20  2  0  0  0  0
 19 18  1  0  0  0  0
 20 21  1  0  0  0  0
 21 16  2  0  0  0  0
 24 25  1  0  0  0  0
 24 18  1  0  0  0  0
 25 26  1  0  0  0  0
M  END
>  <minimizedAffinity>
-4.65191507

$$$$

 OpenBabel03242517523D

 26 27  0  0  0  0  0  0  0  0999 V2000
   38.1000   25.4990   41.8890 C   0  0  0  0  0  0  0  0  0  0  0  0
   37.7450   26.7060   42.4260 C   0  0  0  0  0  0  0  0  0  0  0  0
   38.6260   27.2940   43.3290 C   0  0  0  0  0  0  0  0  0  0  0  0
   39.8220   26.6900   43.6790 C   0  0  0  0  0  0  0  0  0  0  0  0
   40.1560   25.4730   43.1220 C   0  0  0  0  0  0  0  0  0  0  0  0
   39.2790   24.8830   42.2200 C   0  0  0  0  0  0  0  0  0  0  0  0
   38.4450   28.2450   43.8130 H   0  0  0  0  0  0  0  0  0  0  0  0
   40.5110   27.1450   44.3820 H   0  0  0  0  0  0  0  0  0  0  0  0
   41.0990   25.0270   43.4170 H   0  0  0  0  0  0  0  0  0  0  0  0
   39.5200   23.9440   41.7800 H   0  0  0  0  0  0  0  0  0  0  0  0
   36.9440   24.8310   40.7680 S   0  0  0  0  0  0  0  0  0  0  0  0
   37.0380   23.3270   40.6980 O   0  0  0  0  0  0  0  0  0  0  0  0
   37.3160   25.3290   39.3780 O   0  0  0  0  0  0  0  0  0  0  0  0
   35.6890   25.2630   41.0290 H   0  0  0  0  0  0  0  0  0  0  0  0
   36.6090   27.4600   42.2080 O   0  0  0  0  0  0  0  0  0  0  0  0
   36.7930   30.7990   41.0370 C   0  0  0  0  0  0  0  0  0  0  0  0
   36.2960   30.7050   39.7250 C   0  0  0  0  0  0  0  0  0  0  0  0
   35.8960   29.4530   39.2580 C   0  0  0  0  0  0  0  0  0  0  0  0
   36.0150   28.4100   40.1060 N   0  0  0  0  0  0  0  0  0  0  0  0
   36.4870   28.5220   41.3420 C   0  0  0  0  0  0  0  0  0  0  0  0
   36.8760   29.7200   41.8050 N   0  0  0  0  0  0  0  0  0  0  0  0
   37.0830   31.8000   41.3280 H   0  0  0  0  0  0  0  0  0  0  0  0
   36.1890   31.5240   39.0200 H   0  0  0  0  0  0  0  0  0  0  0  0
   35.3520   29.1980   37.8960 C   0  0  0  0  0  2  0  0  0  0  0  0
   33.8930   28.7800   37.9520 C   0  0  0  0  0  2  0  0  0  0  0  0
   33.3320   29.0910   37.0530 H   0  0  0  0  0  0  0  0  0  0  0  0
  1  6  2  0  0  0  0
  1  2  1  0  0  0  0
  2  3  2  0  0  0  0
  3  4  1  0  0  0  0
  3  7  1  0  0  0  0
  4  8  1  0  0  0  0
  5  9  1  0  0  0  0
  5  4  2  0  0  0  0
  6  5  1  0  0  0  0
 10  6  1  0  0  0  0
 11 14  1  0  0  0  0
 11  1  1  0  0  0  0
 12 11  2  0  0  0  0
 13 11  2  0  0  0  0
 15  2  1  0  0  0  0
 16 22  1  0  0  0  0
 16 21  1  0  0  0  0
 17 16  2  0  0  0  0
 18 17  1  0  0  0  0
 18 19  2  0  0  0  0
 19 20  1  0  0  0  0
 20 21  2  0  0  0  0
 20 15  1  0  0  0  0
 23 17  1  0  0  0  0
 24 25  1  0  0  0  0
 24 18  1  0  0  0  0
 26 25  1  0  0  0  0
M  END
>  <minimizedAffinity>
-4.64221907

$$$$

 OpenBabel03242517523D

 26 27  0  0  0  0  0  0  0  0999 V2000
   37.9670   29.8800   40.8170 C   0  0  0  0  0  0  0  0  0  0  0  0
   37.2380   29.0030   41.5740 C   0  0  0  0  0  0  0  0  0  0  0  0
   35.9370   28.7240   41.1630 C   0  0  0  0  0  0  0  0  0  0  0  0
   35.3890   29.3070   40.0320 C   0  0  0  0  0  0  0  0  0  0  0  0
   36.1450   30.1870   39.2880 C   0  0  0  0  0  0  0  0  0  0  0  0
   37.4440   30.4680   39.6940 C   0  0  0  0  0  0  0  0  0  0  0  0
   35.2740   28.0470   41.6860 H   0  0  0  0  0  0  0  0  0  0  0  0
   34.3760   29.0920   39.7100 H   0  0  0  0  0  0  0  0  0  0  0  0
   35.6870   30.6260   38.4090 H   0  0  0  0  0  0  0  0  0  0  0  0
   38.0430   31.1450   39.1320 H   0  0  0  0  0  0  0  0  0  0  0  0
   39.5840   30.1750   41.3980 S   0  0  0  0  0  0  0  0  0  0  0  0
   39.5840   31.0200   42.6470 O   0  0  0  0  0  0  0  0  0  0  0  0
   40.3020   31.0040   40.3420 O   0  0  0  0  0  0  0  0  0  0  0  0
   40.2770   29.0230   41.5470 H   0  0  0  0  0  0  0  0  0  0  0  0
   37.6010   28.3260   42.7210 O   0  0  0  0  0  0  0  0  0  0  0  0
   39.9820   25.8820   43.6720 C   0  0  0  0  0  0  0  0  0  0  0  0
   39.5420   24.7290   42.9980 C   0  0  0  0  0  0  0  0  0  0  0  0
   38.3980   24.8230   42.2060 C   0  0  0  0  0  0  0  0  0  0  0  0
   37.7890   26.0240   42.1400 N   0  0  0  0  0  0  0  0  0  0  0  0
   38.2210   27.1010   42.7860 C   0  0  0  0  0  0  0  0  0  0  0  0
   39.3210   27.0250   43.5520 N   0  0  0  0  0  0  0  0  0  0  0  0
   40.8730   25.7320   44.2670 H   0  0  0  0  0  0  0  0  0  0  0  0
   40.0110   23.7500   43.0310 H   0  0  0  0  0  0  0  0  0  0  0  0
   37.8150   23.6900   41.4350 C   0  0  0  0  0  2  0  0  0  0  0  0
   36.4530   24.0510   40.8680 C   0  0  0  0  0  2  0  0  0  0  0  0
   36.2390   23.5240   39.9200 H   0  0  0  0  0  0  0  0  0  0  0  0
  1 11  1  0  0  0  0
  1  2  1  0  0  0  0
  2 15  1  0  0  0  0
  3  2  2  0  0  0  0
  3  7  1  0  0  0  0
  4  3  1  0  0  0  0
  5  6  1  0  0  0  0
  5  4  2  0  0  0  0
  6  1  2  0  0  0  0
  8  4  1  0  0  0  0
  9  5  1  0  0  0  0
 10  6  1  0  0  0  0
 11 14  1  0  0  0  0
 11 12  2  0  0  0  0
 13 11  2  0  0  0  0
 15 20  1  0  0  0  0
 16 22  1  0  0  0  0
 17 23  1  0  0  0  0
 17 16  2  0  0  0  0
 18 17  1  0  0  0  0
 19 18  2  0  0  0  0
 19 20  1  0  0  0  0
 20 21  2  0  0  0  0
 21 16  1  0  0  0  0
 24 18  1  0  0  0  0
 25 24  1  0  0  0  0
 26 25  1  0  0  0  0
M  END
>  <minimizedAffinity>
-4.61958981

$$$$

 OpenBabel03242517523D

 26 27  0  0  0  0  0  0  0  0999 V2000
   39.3380   26.6310   42.7970 C   0  0  0  0  0  0  0  0  0  0  0  0
   38.1300   27.2730   42.8340 C   0  0  0  0  0  0  0  0  0  0  0  0
   36.9950   26.5270   42.5330 C   0  0  0  0  0  0  0  0  0  0  0  0
   37.0700   25.1830   42.2070 C   0  0  0  0  0  0  0  0  0  0  0  0
   38.3010   24.5600   42.1770 C   0  0  0  0  0  0  0  0  0  0  0  0
   39.4370   25.3020   42.4780 C   0  0  0  0  0  0  0  0  0  0  0  0
   35.9910   26.9330   42.5320 H   0  0  0  0  0  0  0  0  0  0  0  0
   36.1870   24.5990   41.9720 H   0  0  0  0  0  0  0  0  0  0  0  0
   38.3260   23.5080   41.9180 H   0  0  0  0  0  0  0  0  0  0  0  0
   40.3950   24.8380   42.4600 H   0  0  0  0  0  0  0  0  0  0  0  0
   40.7100   27.6340   43.1870 S   0  0  0  0  0  0  0  0  0  0  0  0
   41.2640   28.3220   41.9640 O   0  0  0  0  0  0  0  0  0  0  0  0
   41.8200   26.7160   43.6800 O   0  0  0  0  0  0  0  0  0  0  0  0
   40.4270   28.4990   44.1880 H   0  0  0  0  0  0  0  0  0  0  0  0
   37.8490   28.5910   43.1330 O   0  0  0  0  0  0  0  0  0  0  0  0
   36.1990   30.6550   40.7730 C   0  0  0  0  0  0  0  0  0  0  0  0
   37.1850   31.5950   40.4270 C   0  0  0  0  0  0  0  0  0  0  0  0
   38.4370   31.4940   41.0340 C   0  0  0  0  0  0  0  0  0  0  0  0
   38.6150   30.4910   41.9180 N   0  0  0  0  0  0  0  0  0  0  0  0
   37.6700   29.6140   42.2310 C   0  0  0  0  0  0  0  0  0  0  0  0
   36.4600   29.6990   41.6550 N   0  0  0  0  0  0  0  0  0  0  0  0
   35.2550   30.7970   40.2640 H   0  0  0  0  0  0  0  0  0  0  0  0
   37.0720   32.4110   39.7200 H   0  0  0  0  0  0  0  0  0  0  0  0
   39.5770   32.4140   40.7680 C   0  0  0  0  0  2  0  0  0  0  0  0
   39.0910   33.8100   40.4200 C   0  0  0  0  0  2  0  0  0  0  0  0
   39.8040   34.5940   40.7320 H   0  0  0  0  0  0  0  0  0  0  0  0
  1  2  1  0  0  0  0
  1 11  1  0  0  0  0
  2 15  1  0  0  0  0
  3  2  2  0  0  0  0
  4  3  1  0  0  0  0
  5  4  2  0  0  0  0
  5  6  1  0  0  0  0
  6  1  2  0  0  0  0
  7  3  1  0  0  0  0
  8  4  1  0  0  0  0
  9  5  1  0  0  0  0
 10  6  1  0  0  0  0
 11 13  2  0  0  0  0
 11 14  1  0  0  0  0
 12 11  2  0  0  0  0
 16 21  1  0  0  0  0
 17 16  2  0  0  0  0
 17 18  1  0  0  0  0
 18 19  2  0  0  0  0
 19 20  1  0  0  0  0
 20 15  1  0  0  0  0
 21 20  2  0  0  0  0
 22 16  1  0  0  0  0
 23 17  1  0  0  0  0
 24 18  1  0  0  0  0
 25 26  1  0  0  0  0
 25 24  1  0  0  0  0
M  END
>  <minimizedAffinity>
-4.57997894

$$$$

 OpenBabel03242517523D

 26 27  0  0  0  0  0  0  0  0999 V2000
   36.6640   28.0520   40.9610 C   0  0  0  0  0  0  0  0  0  0  0  0
   36.9050   29.1480   41.7450 C   0  0  0  0  0  0  0  0  0  0  0  0
   37.4450   28.9300   43.0090 C   0  0  0  0  0  0  0  0  0  0  0  0
   37.7340   27.6560   43.4690 C   0  0  0  0  0  0  0  0  0  0  0  0
   37.4820   26.5690   42.6590 C   0  0  0  0  0  0  0  0  0  0  0  0
   36.9430   26.7820   41.3960 C   0  0  0  0  0  0  0  0  0  0  0  0
   37.6740   29.7230   43.7090 H   0  0  0  0  0  0  0  0  0  0  0  0
   38.1550   27.4830   44.4540 H   0  0  0  0  0  0  0  0  0  0  0  0
   37.7190   25.5850   43.0490 H   0  0  0  0  0  0  0  0  0  0  0  0
   36.7420   25.9550   40.7570 H   0  0  0  0  0  0  0  0  0  0  0  0
   35.9880   28.4090   39.3950 S   0  0  0  0  0  0  0  0  0  0  0  0
   34.6270   29.0500   39.5070 O   0  0  0  0  0  0  0  0  0  0  0  0
   35.7590   27.0820   38.6840 O   0  0  0  0  0  0  0  0  0  0  0  0
   36.8430   29.1320   38.6360 H   0  0  0  0  0  0  0  0  0  0  0  0
   36.6880   30.4830   41.4710 O   0  0  0  0  0  0  0  0  0  0  0  0
   38.0070   33.2930   39.7620 C   0  0  0  0  0  0  0  0  0  0  0  0
   39.3750   33.2500   40.0870 C   0  0  0  0  0  0  0  0  0  0  0  0
   39.8260   32.2210   40.9140 C   0  0  0  0  0  0  0  0  0  0  0  0
   38.9100   31.3310   41.3480 N   0  0  0  0  0  0  0  0  0  0  0  0
   37.6230   31.3900   41.0290 C   0  0  0  0  0  0  0  0  0  0  0  0
   37.1740   32.3740   40.2340 N   0  0  0  0  0  0  0  0  0  0  0  0
   37.7320   34.1170   39.1190 H   0  0  0  0  0  0  0  0  0  0  0  0
   40.1340   33.9510   39.7540 H   0  0  0  0  0  0  0  0  0  0  0  0
   41.2410   32.0470   41.3430 C   0  0  0  0  0  2  0  0  0  0  0  0
   41.3490   31.0930   42.5200 C   0  0  0  0  0  2  0  0  0  0  0  0
   42.3040   30.5380   42.5260 H   0  0  0  0  0  0  0  0  0  0  0  0
  1  6  2  0  0  0  0
  1  2  1  0  0  0  0
  2  3  2  0  0  0  0
  3  4  1  0  0  0  0
  3  7  1  0  0  0  0
  4  8  1  0  0  0  0
  5  9  1  0  0  0  0
  5  4  2  0  0  0  0
  6  5  1  0  0  0  0
 10  6  1  0  0  0  0
 11 12  2  0  0  0  0
 11  1  1  0  0  0  0
 13 11  2  0  0  0  0
 14 11  1  0  0  0  0
 15  2  1  0  0  0  0
 16 17  2  0  0  0  0
 16 21  1  0  0  0  0
 17 18  1  0  0  0  0
 18 24  1  0  0  0  0
 18 19  2  0  0  0  0
 20 19  1  0  0  0  0
 20 15  1  0  0  0  0
 21 20  2  0  0  0  0
 22 16  1  0  0  0  0
 23 17  1  0  0  0  0
 24 25  1  0  0  0  0
 25 26  1  0  0  0  0
M  END
>  <minimizedAffinity>
-4.5580492

$$$$
