
 OpenBabel03242518223D

 26 27  0  0  0  0  0  0  0  0999 V2000
   43.9530   34.7350   41.3300 N   0  0  0  0  0  0  0  0  0  0  0  0
   45.2400   34.2600   40.9300 C   0  0  0  0  0  0  0  0  0  0  0  0
   46.2980   34.3690   41.9620 C   0  0  0  0  0  0  0  0  0  0  0  0
   46.2920   35.5710   42.7140 N   0  0  0  0  0  0  0  0  0  0  0  0
   45.0420   36.1440   42.9910 C   0  0  0  0  0  0  0  0  0  0  0  0
   43.8900   35.2000   42.6810 C   0  0  0  0  0  0  0  0  0  0  0  0
   45.1760   33.2030   40.5760 H   0  0  0  0  0  0  0  0  0  0  0  0
   45.6000   34.8190   40.0170 H   0  0  0  0  0  0  0  0  0  0  0  0
   47.2860   34.3140   41.4270 H   0  0  0  0  0  0  0  0  0  0  0  0
   46.2390   33.4540   42.6090 H   0  0  0  0  0  0  0  0  0  0  0  0
   47.0440   36.2450   42.5220 H   0  0  0  0  0  0  0  0  0  0  0  0
   44.8470   37.0730   42.4150 H   0  0  0  0  0  0  0  0  0  0  0  0
   44.9100   36.4050   44.0760 H   0  0  0  0  0  0  0  0  0  0  0  0
   42.9930   35.7230   42.9880 H   0  0  0  0  0  0  0  0  0  0  0  0
   44.0820   34.2970   43.3300 H   0  0  0  0  0  0  0  0  0  0  0  0
   41.7510   35.4210   40.6980 C   0  0  0  0  0  0  0  0  0  0  0  0
   42.9100   34.6930   40.3640 C   0  0  0  0  0  0  0  0  0  0  0  0
   42.9530   34.0120   39.1600 C   0  0  0  0  0  0  0  0  0  0  0  0
   41.8730   34.0700   38.3360 N   0  0  0  0  0  0  0  0  0  0  0  0
   40.7730   34.7750   38.6790 C   0  0  0  0  0  0  0  0  0  0  0  0
   40.7070   35.4430   39.8400 N   0  0  0  0  0  0  0  0  0  0  0  0
   41.5520   36.0010   41.5840 H   0  0  0  0  0  0  0  0  0  0  0  0
   43.8640   33.4680   38.9510 H   0  0  0  0  0  0  0  0  0  0  0  0
   39.6910   34.7380   37.6790 C   0  0  0  0  0  0  0  0  0  0  0  0
   38.6060   33.7380   38.0700 C   0  0  0  0  0  0  0  0  0  0  0  0
   37.6600   33.9730   37.5360 H   0  0  0  0  0  0  0  0  0  0  0  0
  1  6  1  0  0  0  0
  2  1  1  0  0  0  0
  2  3  1  0  0  0  0
  3 10  1  0  0  0  0
  3  4  1  0  0  0  0
  4  5  1  0  0  0  0
  5 13  1  0  0  0  0
  6 14  1  0  0  0  0
  6  5  1  0  0  0  0
  6 15  1  0  0  0  0
  7  2  1  0  0  0  0
  8  2  1  0  0  0  0
  9  3  1  0  0  0  0
 11  4  1  0  0  0  0
 12  5  1  0  0  0  0
 16 22  1  0  0  0  0
 17 16  1  0  0  0  0
 17  1  1  0  0  0  0
 18 17  2  0  0  0  0
 19 20  2  0  0  0  0
 19 18  1  0  0  0  0
 20 21  1  0  0  0  0
 21 16  2  0  0  0  0
 23 18  1  0  0  0  0
 24 25  1  0  0  0  0
 24 20  1  0  0  0  0
 26 25  1  0  0  0  0
M  END
>  <minimizedAffinity>
-4.14978886

>  <minimizedRMSD>
6.54783487

$$$$
