
 OpenBabel03252502393D

 40 42  0  0  1  0  0  0  0  0999 V2000
   45.7650   32.6630   40.2270 C   0  0  1  0  0  0  0  0  0  0  0  0
   45.2490   31.6580   40.2010 H   0  0  0  0  0  0  0  0  0  0  0  0
   44.7400   33.6280   39.9310 N   0  0  0  0  0  0  0  0  0  0  0  0
   43.7120   33.1190   39.1040 C   0  0  0  0  0  0  0  0  0  0  0  0
   42.9590   34.3560   38.5830 C   0  0  0  0  0  0  0  0  0  0  0  0
   42.2420   34.8160   39.7430 N   0  0  0  0  0  0  0  0  0  0  0  0
   43.0920   35.1990   40.7950 C   0  0  0  0  0  0  0  0  0  0  0  0
   44.2540   34.2590   41.0840 C   0  0  0  0  0  0  0  0  0  0  0  0
   42.9740   32.4590   39.5980 H   0  0  0  0  0  0  0  0  0  0  0  0
   44.1630   32.6570   38.1860 H   0  0  0  0  0  0  0  0  0  0  0  0
   43.6870   35.1400   38.3160 H   0  0  0  0  0  0  0  0  0  0  0  0
   42.2650   34.0860   37.7870 H   0  0  0  0  0  0  0  0  0  0  0  0
   41.3930   34.2900   39.9790 H   0  0  0  0  0  0  0  0  0  0  0  0
   43.5000   36.2160   40.5880 H   0  0  0  0  0  0  0  0  0  0  0  0
   42.4580   35.3590   41.7150 H   0  0  0  0  0  0  0  0  0  0  0  0
   44.8650   34.8320   41.7410 H   0  0  0  0  0  0  0  0  0  0  0  0
   43.6540   33.4500   41.6140 H   0  0  0  0  0  0  0  0  0  0  0  0
   47.7670   31.5620   39.2270 C   0  0  0  0  0  0  0  0  0  0  0  0
   46.8860   32.6230   39.3420 C   0  0  0  0  0  0  0  0  0  0  0  0
   47.1490   33.7260   38.5060 C   0  0  0  0  0  0  0  0  0  0  0  0
   48.2200   33.6950   37.6540 N   0  0  0  0  0  0  0  0  0  0  0  0
   49.0410   32.6150   37.6000 C   0  0  0  0  0  0  0  0  0  0  0  0
   48.8100   31.5510   38.3880 N   0  0  0  0  0  0  0  0  0  0  0  0
   47.6170   30.6870   39.8420 H   0  0  0  0  0  0  0  0  0  0  0  0
   46.5320   34.6140   38.5050 H   0  0  0  0  0  0  0  0  0  0  0  0
   49.8400   32.7160   36.8950 H   0  0  0  0  0  0  0  0  0  0  0  0
   46.2870   32.9180   41.6460 C   0  0  0  0  0  0  0  0  0  0  0  0
   46.5730   31.8430   41.8880 H   0  0  0  0  0  0  0  0  0  0  0  0
   45.5300   33.0800   42.4090 H   0  0  0  0  0  0  0  0  0  0  0  0
   47.3770   33.8260   41.7720 C   0  0  0  0  0  0  0  0  0  0  0  0
   47.5790   35.1630   41.7340 C   0  0  0  0  0  0  0  0  0  0  0  0
   48.7710   35.8480   41.8760 C   0  0  0  0  0  0  0  0  0  0  0  0
   49.8420   35.0930   42.0730 N   0  0  0  0  0  0  0  0  0  0  0  0
   49.7360   33.7850   42.1250 C   0  0  0  0  0  0  0  0  0  0  0  0
   48.5610   33.2060   41.9790 N   0  0  0  0  0  0  0  0  0  0  0  0
   46.6300   35.7070   41.5570 H   0  0  0  0  0  0  0  0  0  0  0  0
   48.7350   36.9110   41.8170 H   0  0  0  0  0  0  0  0  0  0  0  0
   51.0090   33.0050   42.3530 C   0  0  0  0  0  0  0  0  0  0  0  0
   51.2580   32.0250   41.2670 C   0  0  0  0  0  0  0  0  0  0  0  0
   52.3550   31.9600   41.0890 H   0  0  0  0  0  0  0  0  0  0  0  0
  1  2  1  6  0  0  0
  1 27  1  0  0  0  0
  3  1  1  0  0  0  0
  3  8  1  0  0  0  0
  4  9  1  0  0  0  0
  4  3  1  0  0  0  0
  5  4  1  0  0  0  0
  5  6  1  0  0  0  0
  6 13  1  0  0  0  0
  6  7  1  0  0  0  0
  7  8  1  0  0  0  0
  7 15  1  0  0  0  0
  8 17  1  0  0  0  0
  8 16  1  0  0  0  0
 10  4  1  0  0  0  0
 11  5  1  0  0  0  0
 12  5  1  0  0  0  0
 14  7  1  0  0  0  0
 18 19  1  0  0  0  0
 18 24  1  0  0  0  0
 19  1  1  0  0  0  0
 20 19  2  0  0  0  0
 21 20  1  0  0  0  0
 22 21  2  0  0  0  0
 22 23  1  0  0  0  0
 23 18  2  0  0  0  0
 25 20  1  0  0  0  0
 26 22  1  0  0  0  0
 27 30  1  0  0  0  0
 27 28  1  0  0  0  0
 27 29  1  0  0  0  0
 30 35  1  0  0  0  0
 31 30  2  0  0  0  0
 31 32  1  0  0  0  0
 32 33  2  0  0  0  0
 33 34  1  0  0  0  0
 34 38  1  0  0  0  0
 35 34  2  0  0  0  0
 36 31  1  0  0  0  0
 37 32  1  0  0  0  0
 39 38  1  0  0  0  0
 40 39  1  0  0  0  0
M  END
>  <minimizedAffinity>
-4.0125289

>  <minimizedRMSD>
0.611248195

$$$$
