
 OpenBabel03252508123D

 24 25  0  0  1  0  0  0  0  0999 V2000
   46.2560   30.9700   46.7310 C   0  0  0  0  0  0  0  0  0  0  0  0
   47.3370   30.7910   46.7560 H   0  0  0  0  0  0  0  0  0  0  0  0
   45.6260   30.0800   46.5670 H   0  0  0  0  0  0  0  0  0  0  0  0
   45.8760   31.5610   48.0720 C   0  0  1  0  0  0  0  0  0  0  0  0
   45.5140   30.6590   49.1860 C   0  0  0  0  0  0  0  0  0  0  0  0
   46.7950   31.3390   49.2290 C   0  0  1  0  0  0  0  0  0  0  0  0
   45.1850   32.4450   48.0260 H   0  0  0  0  0  0  0  0  0  0  0  0
   45.3910   29.5910   48.8880 H   0  0  0  0  0  0  0  0  0  0  0  0
   44.7380   30.9260   49.9340 H   0  0  0  0  0  0  0  0  0  0  0  0
   46.8480   32.2400   49.8980 H   0  0  0  0  0  0  0  0  0  0  0  0
   48.1240   30.7130   49.0370 C   0  0  0  0  0  0  0  0  0  0  0  0
   49.3240   31.4950   49.3870 C   0  0  0  0  0  0  0  0  0  0  0  0
   49.9840   30.9350   50.0840 H   0  0  0  0  0  0  0  0  0  0  0  0
   45.8170   33.2060   46.0070 C   0  0  0  0  0  0  0  0  0  0  0  0
   46.0360   31.9890   45.6350 C   0  0  0  0  0  0  0  0  0  0  0  0
   44.5510   36.1790   44.2710 C   0  0  0  0  0  0  0  0  0  0  0  0
   45.2400   36.1550   43.0520 C   0  0  0  0  0  0  0  0  0  0  0  0
   46.1170   35.1160   42.8510 C   0  0  0  0  0  0  0  0  0  0  0  0
   46.2540   34.2040   43.8260 N   0  0  0  0  0  0  0  0  0  0  0  0
   45.5970   34.2290   44.9880 C   0  0  0  0  0  0  0  0  0  0  0  0
   44.7570   35.2230   45.1820 N   0  0  0  0  0  0  0  0  0  0  0  0
   43.8510   36.9830   44.4680 H   0  0  0  0  0  0  0  0  0  0  0  0
   45.0500   36.9340   42.3530 H   0  0  0  0  0  0  0  0  0  0  0  0
   46.6680   35.0470   41.9400 H   0  0  0  0  0  0  0  0  0  0  0  0
  1  2  1  0  0  0  0
  1  4  1  0  0  0  0
  3  1  1  0  0  0  0
  4  7  1  6  0  0  0
  4  5  1  0  0  0  0
  4  6  1  0  0  0  0
  5  6  1  0  0  0  0
  5  9  1  0  0  0  0
  6 10  1  1  0  0  0
  8  5  1  0  0  0  0
 11  6  1  0  0  0  0
 11 12  1  0  0  0  0
 12 13  1  0  0  0  0
 15 14  2  0  0  0  0
 15  1  1  0  0  0  0
 16 22  1  0  0  0  0
 16 21  1  0  0  0  0
 17 16  2  0  0  0  0
 18 17  1  0  0  0  0
 18 19  2  0  0  0  0
 19 20  1  0  0  0  0
 20 21  2  0  0  0  0
 20 14  1  0  0  0  0
 23 17  1  0  0  0  0
 24 18  1  0  0  0  0
M  END
>  <minimizedAffinity>
-4.40022945

>  <minimizedRMSD>
1.2166909

$$$$
