
 OpenBabel03252507283D

 37 39  0  0  1  0  0  0  0  0999 V2000
   47.1710   32.2060   46.4840 C   0  0  2  0  0  0  0  0  0  0  0  0
   47.0950   30.7770   46.0090 C   0  0  0  0  0  0  0  0  0  0  0  0
   47.9680   29.9450   46.9270 C   0  0  0  0  0  0  0  0  0  0  0  0
   47.8200   30.1950   48.3790 C   0  0  0  0  0  0  0  0  0  0  0  0
   47.6470   31.6160   48.7590 C   0  0  0  0  0  0  0  0  0  0  0  0
   46.5960   32.2630   47.8460 C   0  0  2  0  0  0  0  0  0  0  0  0
   48.2790   32.4200   46.5300 H   0  0  0  0  0  0  0  0  0  0  0  0
   46.1010   30.3740   45.8680 H   0  0  0  0  0  0  0  0  0  0  0  0
   47.5840   30.7470   45.0050 H   0  0  0  0  0  0  0  0  0  0  0  0
   47.8770   28.8530   46.7250 H   0  0  0  0  0  0  0  0  0  0  0  0
   49.0320   30.1800   46.6270 H   0  0  0  0  0  0  0  0  0  0  0  0
   48.8160   29.9000   48.8420 H   0  0  0  0  0  0  0  0  0  0  0  0
   47.1310   29.4760   48.9140 H   0  0  0  0  0  0  0  0  0  0  0  0
   48.5830   32.1710   48.7770 H   0  0  0  0  0  0  0  0  0  0  0  0
   47.1910   31.6430   49.7900 H   0  0  0  0  0  0  0  0  0  0  0  0
   46.6210   33.2640   48.3270 H   0  0  0  0  0  0  0  0  0  0  0  0
   46.6010   33.1760   45.5590 C   0  0  0  0  0  0  0  0  0  0  0  0
   45.5010   33.9230   45.9760 C   0  0  0  0  0  0  0  0  0  0  0  0
   44.9350   34.8370   45.0770 C   0  0  0  0  0  0  0  0  0  0  0  0
   45.5010   34.9420   43.8290 N   0  0  0  0  0  0  0  0  0  0  0  0
   46.5710   34.1870   43.4860 C   0  0  0  0  0  0  0  0  0  0  0  0
   47.1260   33.3130   44.3210 N   0  0  0  0  0  0  0  0  0  0  0  0
   45.0210   33.9090   46.8940 H   0  0  0  0  0  0  0  0  0  0  0  0
   44.0890   35.4530   45.3080 H   0  0  0  0  0  0  0  0  0  0  0  0
   47.1200   34.3570   42.1370 C   0  0  0  0  0  0  0  0  0  0  0  0
   48.1670   35.2280   41.9190 C   0  0  0  0  0  0  0  0  0  0  0  0
   48.7530   35.4660   40.6940 C   0  0  0  0  0  0  0  0  0  0  0  0
   48.1820   34.7290   39.6480 C   0  0  0  0  0  0  0  0  0  0  0  0
   47.1240   33.8410   39.8380 C   0  0  0  0  0  0  0  0  0  0  0  0
   46.6140   33.6770   41.0910 N   0  0  0  0  0  0  0  0  0  0  0  0
   48.5380   35.7490   42.7810 H   0  0  0  0  0  0  0  0  0  0  0  0
   49.5660   36.1450   40.5320 H   0  0  0  0  0  0  0  0  0  0  0  0
   48.5620   34.8340   38.6420 H   0  0  0  0  0  0  0  0  0  0  0  0
   46.6960   33.2830   39.0310 H   0  0  0  0  0  0  0  0  0  0  0  0
   45.3680   31.4890   48.1160 C   0  0  0  0  0  0  0  0  0  0  0  0
   44.8760   31.3320   49.4940 C   0  0  0  0  0  0  0  0  0  0  0  0
   44.6830   32.2360   50.0760 H   0  0  0  0  0  0  0  0  0  0  0  0
  1  7  1  1  0  0  0
  1  6  1  0  0  0  0
  2  1  1  0  0  0  0
  2  3  1  0  0  0  0
  3  4  1  0  0  0  0
  4  5  1  0  0  0  0
  4 12  1  0  0  0  0
  4 13  1  0  0  0  0
  5 14  1  0  0  0  0
  5 15  1  0  0  0  0
  6 35  1  0  0  0  0
  6 16  1  1  0  0  0
  6  5  1  0  0  0  0
  8  2  1  0  0  0  0
  9  2  1  0  0  0  0
 10  3  1  0  0  0  0
 11  3  1  0  0  0  0
 17 18  1  0  0  0  0
 17  1  1  0  0  0  0
 18 23  1  0  0  0  0
 19 24  1  0  0  0  0
 19 18  2  0  0  0  0
 20 19  1  0  0  0  0
 21 20  2  0  0  0  0
 21 22  1  0  0  0  0
 22 17  2  0  0  0  0
 25 21  1  0  0  0  0
 26 25  1  0  0  0  0
 26 31  1  0  0  0  0
 27 26  2  0  0  0  0
 28 29  2  0  0  0  0
 28 27  1  0  0  0  0
 29 30  1  0  0  0  0
 30 25  2  0  0  0  0
 32 27  1  0  0  0  0
 33 28  1  0  0  0  0
 34 29  1  0  0  0  0
 35 36  1  0  0  0  0
 36 37  1  0  0  0  0
M  END
>  <minimizedAffinity>
-6.10159254

>  <minimizedRMSD>
1.18542826

$$$$
