
 OpenBabel03252509203D

 19 20  0  0  0  0  0  0  0  0999 V2000
   45.3370   33.9210   44.4270 C   0  0  0  0  0  0  0  0  0  0  0  0
   45.8240   34.8020   43.4430 C   0  0  0  0  0  0  0  0  0  0  0  0
   47.1110   34.4990   43.0010 C   0  0  0  0  0  0  0  0  0  0  0  0
   47.8070   33.4160   43.5150 N   0  0  0  0  0  0  0  0  0  0  0  0
   47.2810   32.6150   44.4520 C   0  0  0  0  0  0  0  0  0  0  0  0
   46.0300   32.8830   44.9050 N   0  0  0  0  0  0  0  0  0  0  0  0
   44.3240   34.0980   44.8260 H   0  0  0  0  0  0  0  0  0  0  0  0
   47.9460   31.8350   44.7350 H   0  0  0  0  0  0  0  0  0  0  0  0
   47.6830   35.3330   41.8760 C   0  0  0  0  0  0  0  0  0  0  0  0
   49.2210   35.3530   41.9550 C   0  0  0  0  0  0  0  0  0  0  0  0
   48.3930   34.6560   40.8270 C   0  0  0  0  0  0  0  0  0  0  0  0
   47.3510   36.3910   41.8360 H   0  0  0  0  0  0  0  0  0  0  0  0
   49.7040   34.6720   42.6740 H   0  0  0  0  0  0  0  0  0  0  0  0
   49.7480   36.2680   41.6400 H   0  0  0  0  0  0  0  0  0  0  0  0
   48.5420   35.0870   39.8050 H   0  0  0  0  0  0  0  0  0  0  0  0
   48.4310   33.5270   40.8540 H   0  0  0  0  0  0  0  0  0  0  0  0
   45.0470   35.9280   42.9380 C   0  0  0  0  0  2  0  0  0  0  0  0
   44.9900   37.1300   43.8180 C   0  0  0  0  0  2  0  0  0  0  0  0
   45.4620   36.9910   44.8130 H   0  0  0  0  0  0  0  0  0  0  0  0
  1  7  1  0  0  0  0
  1  6  1  0  0  0  0
  2  1  2  0  0  0  0
  3  2  1  0  0  0  0
  3  4  2  0  0  0  0
  4  5  1  0  0  0  0
  5  8  1  0  0  0  0
  5  6  2  0  0  0  0
  9 10  1  0  0  0  0
  9  3  1  0  0  0  0
 10 13  1  0  0  0  0
 11 16  1  0  0  0  0
 11  9  1  0  0  0  0
 11 10  1  0  0  0  0
 12  9  1  0  0  0  0
 14 10  1  0  0  0  0
 15 11  1  0  0  0  0
 17  2  1  0  0  0  0
 17 18  1  0  0  0  0
 18 19  1  0  0  0  0
M  END
>  <minimizedAffinity>
-3.72451949

>  <minimizedRMSD>
1.59766316

$$$$
