
 OpenBabel03252509203D

 19 20  0  0  0  0  0  0  0  0999 V2000
   44.9200   34.8880   45.0780 C   0  0  0  0  0  0  0  0  0  0  0  0
   45.5870   34.9820   43.8420 C   0  0  0  0  0  0  0  0  0  0  0  0
   46.6700   34.1130   43.7160 C   0  0  0  0  0  0  0  0  0  0  0  0
   47.0170   33.2510   44.7440 N   0  0  0  0  0  0  0  0  0  0  0  0
   46.3360   33.2110   45.8970 C   0  0  0  0  0  0  0  0  0  0  0  0
   45.2770   34.0450   46.0530 N   0  0  0  0  0  0  0  0  0  0  0  0
   44.0520   35.5460   45.2520 H   0  0  0  0  0  0  0  0  0  0  0  0
   46.7340   32.4960   46.5760 H   0  0  0  0  0  0  0  0  0  0  0  0
   47.3910   34.0750   42.3860 C   0  0  0  0  0  0  0  0  0  0  0  0
   48.7950   34.6910   42.5240 C   0  0  0  0  0  0  0  0  0  0  0  0
   48.5040   33.1800   42.2480 C   0  0  0  0  0  0  0  0  0  0  0  0
   46.8920   34.6010   41.5460 H   0  0  0  0  0  0  0  0  0  0  0  0
   49.1540   34.9230   43.5400 H   0  0  0  0  0  0  0  0  0  0  0  0
   49.2100   35.2440   41.6650 H   0  0  0  0  0  0  0  0  0  0  0  0
   48.8760   32.8060   41.2600 H   0  0  0  0  0  0  0  0  0  0  0  0
   48.7460   32.4950   43.1130 H   0  0  0  0  0  0  0  0  0  0  0  0
   45.1770   35.9100   42.7930 C   0  0  0  0  0  2  0  0  0  0  0  0
   43.9760   35.5140   42.0050 C   0  0  0  0  0  2  0  0  0  0  0  0
   43.5900   34.4990   42.2360 H   0  0  0  0  0  0  0  0  0  0  0  0
  1  7  1  0  0  0  0
  1  6  1  0  0  0  0
  2  1  2  0  0  0  0
  3  2  1  0  0  0  0
  3  4  2  0  0  0  0
  4  5  1  0  0  0  0
  5  6  2  0  0  0  0
  5  8  1  0  0  0  0
  9 10  1  0  0  0  0
  9  3  1  0  0  0  0
 10 13  1  0  0  0  0
 11  9  1  0  0  0  0
 11 10  1  0  0  0  0
 11 16  1  0  0  0  0
 12  9  1  0  0  0  0
 14 10  1  0  0  0  0
 15 11  1  0  0  0  0
 17  2  1  0  0  0  0
 18 19  1  0  0  0  0
 18 17  1  0  0  0  0
M  END
>  <minimizedAffinity>
-3.65114665

>  <minimizedRMSD>
1.33398795

$$$$
