
 OpenBabel03252505233D

 34 36  0  0  1  0  0  0  0  0999 V2000
   46.0290   33.1190   45.0710 F   0  0  0  0  0  0  0  0  0  0  0  0
   46.8950   32.1790   44.6480 C   0  0  0  0  0  0  0  0  0  0  0  0
   47.2060   31.1310   45.4870 C   0  0  0  0  0  0  0  0  0  0  0  0
   48.0820   30.1880   45.0500 C   0  0  0  0  0  0  0  0  0  0  0  0
   48.6380   30.2980   43.7840 C   0  0  0  0  0  0  0  0  0  0  0  0
   48.3360   31.3390   42.9390 C   0  0  0  0  0  0  0  0  0  0  0  0
   47.4300   32.3040   43.4020 C   0  0  0  0  0  0  0  0  0  0  0  0
   48.3280   29.3630   45.7080 H   0  0  0  0  0  0  0  0  0  0  0  0
   49.3330   29.5280   43.4690 H   0  0  0  0  0  0  0  0  0  0  0  0
   48.8080   31.3600   41.9670 H   0  0  0  0  0  0  0  0  0  0  0  0
   47.1620   33.3470   42.4840 N   0  0  0  0  0  0  0  0  0  0  0  0
   46.6910   33.3240   41.1310 C   0  0  0  0  0  0  0  0  0  0  0  0
   45.5600   34.3610   41.1370 C   0  0  0  0  0  0  0  0  0  0  0  0
   45.8770   35.2300   42.3340 C   0  0  0  0  0  0  0  0  0  0  0  0
   47.2860   34.7810   42.6420 C   0  0  2  0  0  0  0  0  0  0  0  0
   47.4230   33.4770   40.3480 H   0  0  0  0  0  0  0  0  0  0  0  0
   46.1650   32.3640   40.8640 H   0  0  0  0  0  0  0  0  0  0  0  0
   45.7310   34.9920   40.2330 H   0  0  0  0  0  0  0  0  0  0  0  0
   44.5700   33.9180   41.2120 H   0  0  0  0  0  0  0  0  0  0  0  0
   45.8660   36.3060   42.1060 H   0  0  0  0  0  0  0  0  0  0  0  0
   45.1750   34.9690   43.1640 H   0  0  0  0  0  0  0  0  0  0  0  0
   47.5480   35.0960   43.6690 H   0  0  0  0  0  0  0  0  0  0  0  0
   48.2480   35.4140   41.6920 C   0  0  0  0  0  0  0  0  0  0  0  0
   49.6790   35.3510   42.1830 C   0  0  0  0  0  0  0  0  0  0  0  0
   49.8660   34.2830   42.4650 H   0  0  0  0  0  0  0  0  0  0  0  0
   44.9760   30.1340   48.2330 C   0  0  0  0  0  0  0  0  0  0  0  0
   45.4250   30.9520   49.3050 C   0  0  0  0  0  0  0  0  0  0  0  0
   46.4970   31.8280   49.0350 C   0  0  0  0  0  0  0  0  0  0  0  0
   47.0380   31.8500   47.7860 N   0  0  0  0  0  0  0  0  0  0  0  0
   46.5890   31.0680   46.8080 C   0  0  0  0  0  0  0  0  0  0  0  0
   45.5600   30.2130   47.0310 N   0  0  0  0  0  0  0  0  0  0  0  0
   44.1590   29.4690   48.4450 H   0  0  0  0  0  0  0  0  0  0  0  0
   45.0180   30.9540   50.2890 H   0  0  0  0  0  0  0  0  0  0  0  0
   46.9340   32.4950   49.7410 H   0  0  0  0  0  0  0  0  0  0  0  0
  2  1  1  0  0  0  0
  2  3  1  0  0  0  0
  3 30  1  0  0  0  0
  4  3  2  0  0  0  0
  4  8  1  0  0  0  0
  5  4  1  0  0  0  0
  6  7  1  0  0  0  0
  6  5  2  0  0  0  0
  7  2  2  0  0  0  0
  9  5  1  0  0  0  0
 10  6  1  0  0  0  0
 11 15  1  0  0  0  0
 11  7  1  0  0  0  0
 12 13  1  0  0  0  0
 12 11  1  0  0  0  0
 13 19  1  0  0  0  0
 13 14  1  0  0  0  0
 14 15  1  0  0  0  0
 14 21  1  0  0  0  0
 15 22  1  1  0  0  0
 16 12  1  0  0  0  0
 17 12  1  0  0  0  0
 18 13  1  0  0  0  0
 20 14  1  0  0  0  0
 23 24  1  0  0  0  0
 23 15  1  0  0  0  0
 24 25  1  0  0  0  0
 26 32  1  0  0  0  0
 26 27  1  0  0  0  0
 27 33  1  0  0  0  0
 28 27  2  0  0  0  0
 28 34  1  0  0  0  0
 29 28  1  0  0  0  0
 30 31  1  0  0  0  0
 30 29  2  0  0  0  0
 31 26  2  0  0  0  0
M  END
>  <minimizedAffinity>
-5.14512062

>  <minimizedRMSD>
6.16129875

$$$$
