
 OpenBabel03242518243D

 26 27  0  0  0  0  0  0  0  0999 V2000
   38.6740   31.3580   39.3610 N   0  0  0  0  0  0  0  0  0  0  0  0
   40.0410   31.5350   38.9850 C   0  0  0  0  0  0  0  0  0  0  0  0
   40.2600   32.4230   37.8180 C   0  0  0  0  0  0  0  0  0  0  0  0
   39.3440   32.2580   36.7480 N   0  0  0  0  0  0  0  0  0  0  0  0
   38.0230   31.9300   37.0860 C   0  0  0  0  0  0  0  0  0  0  0  0
   37.7430   32.1020   38.5710 C   0  0  0  0  0  0  0  0  0  0  0  0
   40.6410   31.9070   39.8500 H   0  0  0  0  0  0  0  0  0  0  0  0
   40.5160   30.5390   38.7470 H   0  0  0  0  0  0  0  0  0  0  0  0
   41.2860   32.1920   37.4190 H   0  0  0  0  0  0  0  0  0  0  0  0
   40.2990   33.4790   38.1960 H   0  0  0  0  0  0  0  0  0  0  0  0
   39.6980   31.8070   35.8960 H   0  0  0  0  0  0  0  0  0  0  0  0
   37.7530   30.8820   36.8370 H   0  0  0  0  0  0  0  0  0  0  0  0
   37.2650   32.5860   36.5780 H   0  0  0  0  0  0  0  0  0  0  0  0
   36.6900   31.8820   38.6980 H   0  0  0  0  0  0  0  0  0  0  0  0
   37.9630   33.1900   38.7760 H   0  0  0  0  0  0  0  0  0  0  0  0
   39.4560   29.6170   40.8020 C   0  0  0  0  0  0  0  0  0  0  0  0
   38.4020   30.4820   40.4490 C   0  0  0  0  0  0  0  0  0  0  0  0
   37.2180   30.4250   41.1620 C   0  0  0  0  0  0  0  0  0  0  0  0
   37.1100   29.5330   42.1830 N   0  0  0  0  0  0  0  0  0  0  0  0
   38.1360   28.7140   42.5020 C   0  0  0  0  0  0  0  0  0  0  0  0
   39.2930   28.7510   41.8270 N   0  0  0  0  0  0  0  0  0  0  0  0
   40.4340   29.5310   40.3580 H   0  0  0  0  0  0  0  0  0  0  0  0
   36.4390   31.1090   40.8520 H   0  0  0  0  0  0  0  0  0  0  0  0
   37.8610   27.8080   43.6310 C   0  0  0  0  0  2  0  0  0  0  0  0
   36.3880   27.4100   43.6800 C   0  0  0  0  0  2  0  0  0  0  0  0
   36.2640   26.4780   44.2740 H   0  0  0  0  0  0  0  0  0  0  0  0
  1 17  1  0  0  0  0
  2  1  1  0  0  0  0
  2  7  1  0  0  0  0
  3 10  1  0  0  0  0
  3  2  1  0  0  0  0
  4  5  1  0  0  0  0
  4  3  1  0  0  0  0
  5  6  1  0  0  0  0
  6 14  1  0  0  0  0
  6 15  1  0  0  0  0
  6  1  1  0  0  0  0
  8  2  1  0  0  0  0
  9  3  1  0  0  0  0
 11  4  1  0  0  0  0
 12  5  1  0  0  0  0
 13  5  1  0  0  0  0
 16 21  1  0  0  0  0
 17 16  2  0  0  0  0
 17 18  1  0  0  0  0
 18 19  2  0  0  0  0
 19 20  1  0  0  0  0
 20 24  1  0  0  0  0
 21 20  2  0  0  0  0
 22 16  1  0  0  0  0
 23 18  1  0  0  0  0
 24 25  1  0  0  0  0
 25 26  1  0  0  0  0
M  END
>  <minimizedAffinity>
-4.26393318

$$$$

 OpenBabel03242518243D

 26 27  0  0  0  0  0  0  0  0999 V2000
   37.9970   31.3680   40.7290 N   0  0  0  0  0  0  0  0  0  0  0  0
   36.9260   31.9820   40.0110 C   0  0  0  0  0  0  0  0  0  0  0  0
   37.2510   33.2920   39.3980 C   0  0  0  0  0  0  0  0  0  0  0  0
   38.0340   34.1610   40.2000 N   0  0  0  0  0  0  0  0  0  0  0  0
   38.9940   33.5680   41.0320 C   0  0  0  0  0  0  0  0  0  0  0  0
   39.2240   32.1020   40.7010 C   0  0  0  0  0  0  0  0  0  0  0  0
   36.5330   31.2930   39.2250 H   0  0  0  0  0  0  0  0  0  0  0  0
   36.0360   32.1380   40.6890 H   0  0  0  0  0  0  0  0  0  0  0  0
   36.2750   33.8110   39.1960 H   0  0  0  0  0  0  0  0  0  0  0  0
   37.7160   33.0920   38.3950 H   0  0  0  0  0  0  0  0  0  0  0  0
   37.5590   34.9800   40.6000 H   0  0  0  0  0  0  0  0  0  0  0  0
   38.7250   33.6050   42.1090 H   0  0  0  0  0  0  0  0  0  0  0  0
   40.0090   34.0420   40.9380 H   0  0  0  0  0  0  0  0  0  0  0  0
   40.0180   31.7730   41.3590 H   0  0  0  0  0  0  0  0  0  0  0  0
   39.5590   32.1050   39.6230 H   0  0  0  0  0  0  0  0  0  0  0  0
   36.6740   29.3770   40.8160 C   0  0  0  0  0  0  0  0  0  0  0  0
   37.7270   30.1280   41.3730 C   0  0  0  0  0  0  0  0  0  0  0  0
   38.4050   29.6250   42.4700 C   0  0  0  0  0  0  0  0  0  0  0  0
   38.0320   28.4180   42.9740 N   0  0  0  0  0  0  0  0  0  0  0  0
   37.0180   27.7170   42.4210 C   0  0  0  0  0  0  0  0  0  0  0  0
   36.3460   28.1840   41.3580 N   0  0  0  0  0  0  0  0  0  0  0  0
   36.0490   29.6170   39.9720 H   0  0  0  0  0  0  0  0  0  0  0  0
   39.2050   30.2390   42.8610 H   0  0  0  0  0  0  0  0  0  0  0  0
   36.7380   26.4310   43.0820 C   0  0  0  0  0  2  0  0  0  0  0  0
   37.1000   25.2510   42.1840 C   0  0  0  0  0  2  0  0  0  0  0  0
   37.2350   24.3330   42.7950 H   0  0  0  0  0  0  0  0  0  0  0  0
  1 17  1  0  0  0  0
  2  8  1  0  0  0  0
  2  1  1  0  0  0  0
  3  2  1  0  0  0  0
  3  4  1  0  0  0  0
  4 11  1  0  0  0  0
  4  5  1  0  0  0  0
  5 12  1  0  0  0  0
  6  1  1  0  0  0  0
  6  5  1  0  0  0  0
  6 14  1  0  0  0  0
  7  2  1  0  0  0  0
  9  3  1  0  0  0  0
 10  3  1  0  0  0  0
 13  5  1  0  0  0  0
 15  6  1  0  0  0  0
 16 21  2  0  0  0  0
 16 17  1  0  0  0  0
 17 18  2  0  0  0  0
 18 23  1  0  0  0  0
 18 19  1  0  0  0  0
 20 19  2  0  0  0  0
 20 24  1  0  0  0  0
 21 20  1  0  0  0  0
 22 16  1  0  0  0  0
 25 26  1  0  0  0  0
 25 24  1  0  0  0  0
M  END
>  <minimizedAffinity>
-4.21572161

$$$$

 OpenBabel03242518243D

 26 27  0  0  0  0  0  0  0  0999 V2000
   39.3850   31.7870   40.9010 N   0  0  0  0  0  0  0  0  0  0  0  0
   38.7500   33.0660   40.8500 C   0  0  0  0  0  0  0  0  0  0  0  0
   39.5910   34.1610   40.3090 C   0  0  0  0  0  0  0  0  0  0  0  0
   40.9410   34.1610   40.7410 N   0  0  0  0  0  0  0  0  0  0  0  0
   41.5430   32.9120   40.9480 C   0  0  0  0  0  0  0  0  0  0  0  0
   40.7170   31.7670   40.3820 C   0  0  0  0  0  0  0  0  0  0  0  0
   37.7990   33.0090   40.2680 H   0  0  0  0  0  0  0  0  0  0  0  0
   38.4090   33.3780   41.8790 H   0  0  0  0  0  0  0  0  0  0  0  0
   39.1290   35.1280   40.6520 H   0  0  0  0  0  0  0  0  0  0  0  0
   39.4940   34.1450   39.1910 H   0  0  0  0  0  0  0  0  0  0  0  0
   41.2180   34.8920   41.4090 H   0  0  0  0  0  0  0  0  0  0  0  0
   41.7080   32.6760   42.0210 H   0  0  0  0  0  0  0  0  0  0  0  0
   42.5430   32.8170   40.4420 H   0  0  0  0  0  0  0  0  0  0  0  0
   41.3050   30.8720   40.5460 H   0  0  0  0  0  0  0  0  0  0  0  0
   40.6250   32.0020   39.2820 H   0  0  0  0  0  0  0  0  0  0  0  0
   39.2320   30.0660   42.5550 C   0  0  0  0  0  0  0  0  0  0  0  0
   38.6380   30.7070   41.4510 C   0  0  0  0  0  0  0  0  0  0  0  0
   37.4110   30.2610   40.9940 C   0  0  0  0  0  0  0  0  0  0  0  0
   36.8160   29.2150   41.6280 N   0  0  0  0  0  0  0  0  0  0  0  0
   37.4070   28.6160   42.6850 C   0  0  0  0  0  0  0  0  0  0  0  0
   38.5950   29.0310   43.1460 N   0  0  0  0  0  0  0  0  0  0  0  0
   40.1730   30.2820   43.0340 H   0  0  0  0  0  0  0  0  0  0  0  0
   36.9980   30.7860   40.1430 H   0  0  0  0  0  0  0  0  0  0  0  0
   36.6350   27.5010   43.2600 C   0  0  0  0  0  2  0  0  0  0  0  0
   36.9490   26.1840   42.5540 C   0  0  0  0  0  2  0  0  0  0  0  0
   36.6650   25.3260   43.2020 H   0  0  0  0  0  0  0  0  0  0  0  0
  1 17  1  0  0  0  0
  2  1  1  0  0  0  0
  2  8  1  0  0  0  0
  3  9  1  0  0  0  0
  3  4  1  0  0  0  0
  3  2  1  0  0  0  0
  4  5  1  0  0  0  0
  4 11  1  0  0  0  0
  5 12  1  0  0  0  0
  6 14  1  0  0  0  0
  6  1  1  0  0  0  0
  6  5  1  0  0  0  0
  7  2  1  0  0  0  0
 10  3  1  0  0  0  0
 13  5  1  0  0  0  0
 15  6  1  0  0  0  0
 16 22  1  0  0  0  0
 16 21  1  0  0  0  0
 17 16  2  0  0  0  0
 18 17  1  0  0  0  0
 18 19  2  0  0  0  0
 19 20  1  0  0  0  0
 20 21  2  0  0  0  0
 20 24  1  0  0  0  0
 23 18  1  0  0  0  0
 25 26  1  0  0  0  0
 25 24  1  0  0  0  0
M  END
>  <minimizedAffinity>
-4.20544052

$$$$

 OpenBabel03242518243D

 26 27  0  0  0  0  0  0  0  0999 V2000
   38.0860   31.3090   41.0570 N   0  0  0  0  0  0  0  0  0  0  0  0
   39.0560   32.3540   41.1440 C   0  0  0  0  0  0  0  0  0  0  0  0
   38.7280   33.5790   40.3760 C   0  0  0  0  0  0  0  0  0  0  0  0
   38.1720   33.3600   39.0900 N   0  0  0  0  0  0  0  0  0  0  0  0
   37.3340   32.2460   38.9400 C   0  0  0  0  0  0  0  0  0  0  0  0
   36.9350   31.6350   40.2740 C   0  0  0  0  0  0  0  0  0  0  0  0
   39.2470   32.6270   42.2100 H   0  0  0  0  0  0  0  0  0  0  0  0
   40.0620   31.9890   40.7840 H   0  0  0  0  0  0  0  0  0  0  0  0
   39.6900   34.1440   40.2330 H   0  0  0  0  0  0  0  0  0  0  0  0
   38.0770   34.2240   41.0250 H   0  0  0  0  0  0  0  0  0  0  0  0
   38.7730   33.5620   38.2810 H   0  0  0  0  0  0  0  0  0  0  0  0
   37.7940   31.4270   38.3480 H   0  0  0  0  0  0  0  0  0  0  0  0
   36.3580   32.4950   38.4400 H   0  0  0  0  0  0  0  0  0  0  0  0
   36.2480   30.8320   40.0360 H   0  0  0  0  0  0  0  0  0  0  0  0
   36.4130   32.4720   40.8230 H   0  0  0  0  0  0  0  0  0  0  0  0
   39.7050   29.6530   41.6540 C   0  0  0  0  0  0  0  0  0  0  0  0
   38.3700   30.0940   41.7410 C   0  0  0  0  0  0  0  0  0  0  0  0
   37.4600   29.3440   42.4640 C   0  0  0  0  0  0  0  0  0  0  0  0
   37.8840   28.2020   43.0680 N   0  0  0  0  0  0  0  0  0  0  0  0
   39.1710   27.8000   42.9690 C   0  0  0  0  0  0  0  0  0  0  0  0
   40.0710   28.5100   42.2750 N   0  0  0  0  0  0  0  0  0  0  0  0
   40.5330   30.1100   41.1380 H   0  0  0  0  0  0  0  0  0  0  0  0
   36.4480   29.7250   42.5010 H   0  0  0  0  0  0  0  0  0  0  0  0
   39.4700   26.5440   43.6800 C   0  0  0  0  0  2  0  0  0  0  0  0
   40.9660   26.2380   43.6630 C   0  0  0  0  0  2  0  0  0  0  0  0
   41.2190   25.5270   44.4800 H   0  0  0  0  0  0  0  0  0  0  0  0
  1  2  1  0  0  0  0
  1 17  1  0  0  0  0
  2  7  1  0  0  0  0
  3 10  1  0  0  0  0
  3  2  1  0  0  0  0
  4  3  1  0  0  0  0
  5  4  1  0  0  0  0
  5  6  1  0  0  0  0
  6 15  1  0  0  0  0
  6  1  1  0  0  0  0
  8  2  1  0  0  0  0
  9  3  1  0  0  0  0
 11  4  1  0  0  0  0
 12  5  1  0  0  0  0
 13  5  1  0  0  0  0
 14  6  1  0  0  0  0
 16 17  2  0  0  0  0
 16 21  1  0  0  0  0
 17 18  1  0  0  0  0
 18 23  1  0  0  0  0
 18 19  2  0  0  0  0
 20 19  1  0  0  0  0
 20 24  1  0  0  0  0
 21 20  2  0  0  0  0
 22 16  1  0  0  0  0
 25 24  1  0  0  0  0
 25 26  1  0  0  0  0
M  END
>  <minimizedAffinity>
-4.06582212

$$$$

 OpenBabel03242518243D

 26 27  0  0  0  0  0  0  0  0999 V2000
   37.5540   30.3420   41.2260 N   0  0  0  0  0  0  0  0  0  0  0  0
   38.8380   30.9420   41.4090 C   0  0  0  0  0  0  0  0  0  0  0  0
   38.9220   32.3720   41.0260 C   0  0  0  0  0  0  0  0  0  0  0  0
   38.2440   32.7220   39.8310 N   0  0  0  0  0  0  0  0  0  0  0  0
   37.0540   32.0350   39.5500 C   0  0  0  0  0  0  0  0  0  0  0  0
   36.5490   31.2350   40.7410 C   0  0  0  0  0  0  0  0  0  0  0  0
   39.1810   30.8220   42.4650 H   0  0  0  0  0  0  0  0  0  0  0  0
   39.6210   30.3860   40.8150 H   0  0  0  0  0  0  0  0  0  0  0  0
   40.0110   32.6060   40.8730 H   0  0  0  0  0  0  0  0  0  0  0  0
   38.5880   32.9810   41.9080 H   0  0  0  0  0  0  0  0  0  0  0  0
   38.8240   32.9380   39.0110 H   0  0  0  0  0  0  0  0  0  0  0  0
   37.1510   31.3150   38.7100 H   0  0  0  0  0  0  0  0  0  0  0  0
   36.2020   32.7210   39.2880 H   0  0  0  0  0  0  0  0  0  0  0  0
   35.6060   30.8040   40.4260 H   0  0  0  0  0  0  0  0  0  0  0  0
   36.3980   32.0040   41.5530 H   0  0  0  0  0  0  0  0  0  0  0  0
   37.1320   28.1210   40.4460 C   0  0  0  0  0  0  0  0  0  0  0  0
   37.4270   28.9600   41.5390 C   0  0  0  0  0  0  0  0  0  0  0  0
   37.5720   28.4010   42.7960 C   0  0  0  0  0  0  0  0  0  0  0  0
   37.4240   27.0560   42.9370 N   0  0  0  0  0  0  0  0  0  0  0  0
   37.1400   26.2730   41.8730 C   0  0  0  0  0  0  0  0  0  0  0  0
   36.9960   26.7910   40.6450 N   0  0  0  0  0  0  0  0  0  0  0  0
   36.9880   28.3870   39.4120 H   0  0  0  0  0  0  0  0  0  0  0  0
   37.7980   29.0870   43.6010 H   0  0  0  0  0  0  0  0  0  0  0  0
   37.0120   24.8400   42.1910 C   0  0  0  0  0  2  0  0  0  0  0  0
   36.5610   24.0370   40.9740 C   0  0  0  0  0  2  0  0  0  0  0  0
   36.8170   22.9630   41.1090 H   0  0  0  0  0  0  0  0  0  0  0  0
  1  2  1  0  0  0  0
  1 17  1  0  0  0  0
  2  7  1  0  0  0  0
  3  2  1  0  0  0  0
  3 10  1  0  0  0  0
  4  3  1  0  0  0  0
  5  4  1  0  0  0  0
  5  6  1  0  0  0  0
  6  1  1  0  0  0  0
  6 15  1  0  0  0  0
  8  2  1  0  0  0  0
  9  3  1  0  0  0  0
 11  4  1  0  0  0  0
 12  5  1  0  0  0  0
 13  5  1  0  0  0  0
 14  6  1  0  0  0  0
 16 21  2  0  0  0  0
 16 17  1  0  0  0  0
 17 18  2  0  0  0  0
 18 19  1  0  0  0  0
 18 23  1  0  0  0  0
 20 24  1  0  0  0  0
 20 19  2  0  0  0  0
 21 20  1  0  0  0  0
 22 16  1  0  0  0  0
 25 26  1  0  0  0  0
 25 24  1  0  0  0  0
M  END
>  <minimizedAffinity>
-4.04969501

$$$$

 OpenBabel03242518243D

 26 27  0  0  0  0  0  0  0  0999 V2000
   37.8790   28.3470   42.2350 N   0  0  0  0  0  0  0  0  0  0  0  0
   37.0660   27.3380   41.6320 C   0  0  0  0  0  0  0  0  0  0  0  0
   37.1690   25.9960   42.2520 C   0  0  0  0  0  0  0  0  0  0  0  0
   38.4790   25.5930   42.6170 N   0  0  0  0  0  0  0  0  0  0  0  0
   39.3500   26.5960   43.0690 C   0  0  0  0  0  0  0  0  0  0  0  0
   38.6290   27.9010   43.3670 C   0  0  0  0  0  0  0  0  0  0  0  0
   35.9950   27.6550   41.6150 H   0  0  0  0  0  0  0  0  0  0  0  0
   37.3230   27.2260   40.5380 H   0  0  0  0  0  0  0  0  0  0  0  0
   36.7900   25.2550   41.4950 H   0  0  0  0  0  0  0  0  0  0  0  0
   36.4500   25.9620   43.1140 H   0  0  0  0  0  0  0  0  0  0  0  0
   38.9190   24.8630   42.0440 H   0  0  0  0  0  0  0  0  0  0  0  0
   40.1520   26.8420   42.3410 H   0  0  0  0  0  0  0  0  0  0  0  0
   39.8630   26.3290   44.0330 H   0  0  0  0  0  0  0  0  0  0  0  0
   39.3850   28.5690   43.7620 H   0  0  0  0  0  0  0  0  0  0  0  0
   37.8690   27.6290   44.1560 H   0  0  0  0  0  0  0  0  0  0  0  0
   36.6540   29.9800   40.9890 C   0  0  0  0  0  0  0  0  0  0  0  0
   37.8500   29.6450   41.6540 C   0  0  0  0  0  0  0  0  0  0  0  0
   38.8770   30.5710   41.6970 C   0  0  0  0  0  0  0  0  0  0  0  0
   38.6980   31.7770   41.0950 N   0  0  0  0  0  0  0  0  0  0  0  0
   37.5410   32.0740   40.4620 C   0  0  0  0  0  0  0  0  0  0  0  0
   36.5320   31.1930   40.4070 N   0  0  0  0  0  0  0  0  0  0  0  0
   35.7650   29.3840   40.8610 H   0  0  0  0  0  0  0  0  0  0  0  0
   39.7740   30.2660   42.2190 H   0  0  0  0  0  0  0  0  0  0  0  0
   37.5060   33.4190   39.8620 C   0  0  0  0  0  2  0  0  0  0  0  0
   38.8220   34.1610   40.0800 C   0  0  0  0  0  2  0  0  0  0  0  0
   38.9220   34.9850   39.3400 H   0  0  0  0  0  0  0  0  0  0  0  0
  1  6  1  0  0  0  0
  2  1  1  0  0  0  0
  2  3  1  0  0  0  0
  3  4  1  0  0  0  0
  3 10  1  0  0  0  0
  4  5  1  0  0  0  0
  5  6  1  0  0  0  0
  5 13  1  0  0  0  0
  6 14  1  0  0  0  0
  6 15  1  0  0  0  0
  7  2  1  0  0  0  0
  8  2  1  0  0  0  0
  9  3  1  0  0  0  0
 11  4  1  0  0  0  0
 12  5  1  0  0  0  0
 16 17  1  0  0  0  0
 17 18  2  0  0  0  0
 17  1  1  0  0  0  0
 18 23  1  0  0  0  0
 19 18  1  0  0  0  0
 20 19  2  0  0  0  0
 21 20  1  0  0  0  0
 21 16  2  0  0  0  0
 22 16  1  0  0  0  0
 24 25  1  0  0  0  0
 24 20  1  0  0  0  0
 26 25  1  0  0  0  0
M  END
>  <minimizedAffinity>
-3.97552919

$$$$

 OpenBabel03242518243D

 26 27  0  0  0  0  0  0  0  0999 V2000
   38.1920   26.6830   42.4450 N   0  0  0  0  0  0  0  0  0  0  0  0
   37.4410   25.6140   41.8660 C   0  0  0  0  0  0  0  0  0  0  0  0
   37.8000   24.2610   42.3520 C   0  0  0  0  0  0  0  0  0  0  0  0
   39.1890   24.0210   42.5140 N   0  0  0  0  0  0  0  0  0  0  0  0
   39.9760   25.1020   42.9360 C   0  0  0  0  0  0  0  0  0  0  0  0
   39.1400   26.2710   43.4320 C   0  0  0  0  0  0  0  0  0  0  0  0
   36.3460   25.7800   42.0090 H   0  0  0  0  0  0  0  0  0  0  0  0
   37.5600   25.6130   40.7430 H   0  0  0  0  0  0  0  0  0  0  0  0
   37.4210   23.5270   41.5890 H   0  0  0  0  0  0  0  0  0  0  0  0
   37.2160   24.0700   43.2910 H   0  0  0  0  0  0  0  0  0  0  0  0
   39.6370   23.3990   41.8300 H   0  0  0  0  0  0  0  0  0  0  0  0
   40.6330   25.5060   42.1370 H   0  0  0  0  0  0  0  0  0  0  0  0
   40.6450   24.8460   43.8020 H   0  0  0  0  0  0  0  0  0  0  0  0
   39.8490   27.0110   43.7840 H   0  0  0  0  0  0  0  0  0  0  0  0
   38.5350   25.8450   44.2850 H   0  0  0  0  0  0  0  0  0  0  0  0
   36.6740   28.1660   41.3410 C   0  0  0  0  0  0  0  0  0  0  0  0
   37.9170   28.0010   41.9840 C   0  0  0  0  0  0  0  0  0  0  0  0
   38.7540   29.0940   42.1200 C   0  0  0  0  0  0  0  0  0  0  0  0
   38.3480   30.2950   41.6280 N   0  0  0  0  0  0  0  0  0  0  0  0
   37.1510   30.4280   41.0150 C   0  0  0  0  0  0  0  0  0  0  0  0
   36.3230   29.3840   40.8710 N   0  0  0  0  0  0  0  0  0  0  0  0
   35.9100   27.4300   41.1520 H   0  0  0  0  0  0  0  0  0  0  0  0
   39.6960   28.9150   42.6200 H   0  0  0  0  0  0  0  0  0  0  0  0
   36.8610   31.7920   40.5400 C   0  0  0  0  0  2  0  0  0  0  0  0
   37.1250   31.9280   39.0420 C   0  0  0  0  0  2  0  0  0  0  0  0
   36.5740   32.8040   38.6360 H   0  0  0  0  0  0  0  0  0  0  0  0
  1  6  1  0  0  0  0
  2  7  1  0  0  0  0
  2  3  1  0  0  0  0
  2  1  1  0  0  0  0
  3  4  1  0  0  0  0
  3 10  1  0  0  0  0
  4  5  1  0  0  0  0
  5  6  1  0  0  0  0
  5 13  1  0  0  0  0
  6 14  1  0  0  0  0
  6 15  1  0  0  0  0
  8  2  1  0  0  0  0
  9  3  1  0  0  0  0
 11  4  1  0  0  0  0
 12  5  1  0  0  0  0
 16 17  1  0  0  0  0
 17 18  2  0  0  0  0
 17  1  1  0  0  0  0
 18 23  1  0  0  0  0
 19 18  1  0  0  0  0
 20 19  2  0  0  0  0
 21 20  1  0  0  0  0
 21 16  2  0  0  0  0
 22 16  1  0  0  0  0
 24 20  1  0  0  0  0
 25 24  1  0  0  0  0
 26 25  1  0  0  0  0
M  END
>  <minimizedAffinity>
-3.86614132

$$$$

 OpenBabel03242518243D

 26 27  0  0  0  0  0  0  0  0999 V2000
   39.4740   31.9540   39.0890 N   0  0  0  0  0  0  0  0  0  0  0  0
   39.6510   33.2830   39.5810 C   0  0  0  0  0  0  0  0  0  0  0  0
   38.5720   33.7710   40.4720 C   0  0  0  0  0  0  0  0  0  0  0  0
   37.2540   33.4330   40.0740 N   0  0  0  0  0  0  0  0  0  0  0  0
   37.0780   32.1910   39.4460 C   0  0  0  0  0  0  0  0  0  0  0  0
   38.3010   31.2970   39.5750 C   0  0  0  0  0  0  0  0  0  0  0  0
   40.6340   33.3830   40.1020 H   0  0  0  0  0  0  0  0  0  0  0  0
   39.7360   34.0130   38.7230 H   0  0  0  0  0  0  0  0  0  0  0  0
   38.6400   34.8940   40.4860 H   0  0  0  0  0  0  0  0  0  0  0  0
   38.8110   33.4290   41.5150 H   0  0  0  0  0  0  0  0  0  0  0  0
   36.6690   34.1920   39.7040 H   0  0  0  0  0  0  0  0  0  0  0  0
   36.8650   32.2740   38.3600 H   0  0  0  0  0  0  0  0  0  0  0  0
   36.2390   31.5890   39.8930 H   0  0  0  0  0  0  0  0  0  0  0  0
   38.0260   30.3570   39.1120 H   0  0  0  0  0  0  0  0  0  0  0  0
   38.4490   31.1780   40.6870 H   0  0  0  0  0  0  0  0  0  0  0  0
   40.4200   30.0580   37.9790 C   0  0  0  0  0  0  0  0  0  0  0  0
   40.4590   31.4500   38.1950 C   0  0  0  0  0  0  0  0  0  0  0  0
   41.4180   32.2050   37.5430 C   0  0  0  0  0  0  0  0  0  0  0  0
   42.2930   31.5770   36.7120 N   0  0  0  0  0  0  0  0  0  0  0  0
   42.2350   30.2400   36.5220 C   0  0  0  0  0  0  0  0  0  0  0  0
   41.3150   29.4880   37.1430 N   0  0  0  0  0  0  0  0  0  0  0  0
   39.7480   29.3300   38.4010 H   0  0  0  0  0  0  0  0  0  0  0  0
   41.4070   33.2680   37.7420 H   0  0  0  0  0  0  0  0  0  0  0  0
   43.2510   29.7150   35.5940 C   0  0  0  0  0  2  0  0  0  0  0  0
   44.5180   30.5650   35.6150 C   0  0  0  0  0  2  0  0  0  0  0  0
   45.3770   29.9810   35.2170 H   0  0  0  0  0  0  0  0  0  0  0  0
  1  6  1  0  0  0  0
  1  2  1  0  0  0  0
  2  7  1  0  0  0  0
  2  3  1  0  0  0  0
  3  9  1  0  0  0  0
  3 10  1  0  0  0  0
  4  3  1  0  0  0  0
  5  6  1  0  0  0  0
  5 13  1  0  0  0  0
  5  4  1  0  0  0  0
  6 15  1  0  0  0  0
  8  2  1  0  0  0  0
 11  4  1  0  0  0  0
 12  5  1  0  0  0  0
 14  6  1  0  0  0  0
 16 17  1  0  0  0  0
 16 22  1  0  0  0  0
 17  1  1  0  0  0  0
 18 23  1  0  0  0  0
 18 17  2  0  0  0  0
 19 18  1  0  0  0  0
 20 19  2  0  0  0  0
 20 21  1  0  0  0  0
 21 16  2  0  0  0  0
 24 25  1  0  0  0  0
 24 20  1  0  0  0  0
 26 25  1  0  0  0  0
M  END
>  <minimizedAffinity>
-3.83541226

$$$$

 OpenBabel03242518243D

 26 27  0  0  0  0  0  0  0  0999 V2000
   37.8250   31.8520   39.5230 N   0  0  0  0  0  0  0  0  0  0  0  0
   37.3820   33.2090   39.5750 C   0  0  0  0  0  0  0  0  0  0  0  0
   38.3460   34.1610   40.1760 C   0  0  0  0  0  0  0  0  0  0  0  0
   39.0260   33.6910   41.3280 N   0  0  0  0  0  0  0  0  0  0  0  0
   39.3380   32.3240   41.3710 C   0  0  0  0  0  0  0  0  0  0  0  0
   39.1470   31.6430   40.0240 C   0  0  0  0  0  0  0  0  0  0  0  0
   37.0950   33.5680   38.5570 H   0  0  0  0  0  0  0  0  0  0  0  0
   36.4190   33.2880   40.1600 H   0  0  0  0  0  0  0  0  0  0  0  0
   37.7610   35.0720   40.4810 H   0  0  0  0  0  0  0  0  0  0  0  0
   39.0480   34.4940   39.3650 H   0  0  0  0  0  0  0  0  0  0  0  0
   38.7550   34.1020   42.2300 H   0  0  0  0  0  0  0  0  0  0  0  0
   38.7210   31.7550   42.0980 H   0  0  0  0  0  0  0  0  0  0  0  0
   40.4120   32.1270   41.6380 H   0  0  0  0  0  0  0  0  0  0  0  0
   39.4730   30.6200   40.1650 H   0  0  0  0  0  0  0  0  0  0  0  0
   39.8360   32.2010   39.3260 H   0  0  0  0  0  0  0  0  0  0  0  0
   36.0240   30.3300   39.9240 C   0  0  0  0  0  0  0  0  0  0  0  0
   36.9210   30.8890   38.9930 C   0  0  0  0  0  0  0  0  0  0  0  0
   36.8620   30.4780   37.6730 C   0  0  0  0  0  0  0  0  0  0  0  0
   35.9370   29.5480   37.3170 N   0  0  0  0  0  0  0  0  0  0  0  0
   35.0880   29.0260   38.2290 C   0  0  0  0  0  0  0  0  0  0  0  0
   35.1250   29.4080   39.5140 N   0  0  0  0  0  0  0  0  0  0  0  0
   35.9340   30.5340   40.9790 H   0  0  0  0  0  0  0  0  0  0  0  0
   37.5730   30.9370   36.9980 H   0  0  0  0  0  0  0  0  0  0  0  0
   34.1480   28.0320   37.6840 C   0  0  0  0  0  2  0  0  0  0  0  0
   32.9820   28.7030   36.9620 C   0  0  0  0  0  2  0  0  0  0  0  0
   32.5010   27.9850   36.2640 H   0  0  0  0  0  0  0  0  0  0  0  0
  1  2  1  0  0  0  0
  1  6  1  0  0  0  0
  2  8  1  0  0  0  0
  2  3  1  0  0  0  0
  3  9  1  0  0  0  0
  3  4  1  0  0  0  0
  4  5  1  0  0  0  0
  4 11  1  0  0  0  0
  5 13  1  0  0  0  0
  5 12  1  0  0  0  0
  6 14  1  0  0  0  0
  6  5  1  0  0  0  0
  7  2  1  0  0  0  0
 10  3  1  0  0  0  0
 15  6  1  0  0  0  0
 16 22  1  0  0  0  0
 17  1  1  0  0  0  0
 17 16  2  0  0  0  0
 18 17  1  0  0  0  0
 19 18  2  0  0  0  0
 19 20  1  0  0  0  0
 20 21  2  0  0  0  0
 21 16  1  0  0  0  0
 23 18  1  0  0  0  0
 24 20  1  0  0  0  0
 25 24  1  0  0  0  0
 26 25  1  0  0  0  0
M  END
>  <minimizedAffinity>
-3.78516531

$$$$
