
 OpenBabel03252509123D

 25 27  0  0  0  0  0  0  0  0999 V2000
   39.4070   30.4170   42.0210 C   0  0  0  0  0  0  0  0  0  0  0  0
   38.1610   29.9590   41.6020 C   0  0  0  0  0  0  0  0  0  0  0  0
   37.2780   30.7490   40.8990 C   0  0  0  0  0  0  0  0  0  0  0  0
   37.6410   32.0650   40.5880 C   0  0  0  0  0  0  0  0  0  0  0  0
   37.0420   33.0930   39.9290 N   0  0  0  0  0  0  0  0  0  0  0  0
   37.8980   34.1600   39.9400 C   0  0  0  0  0  0  0  0  0  0  0  0
   39.0130   33.7680   40.6100 N   0  0  0  0  0  0  0  0  0  0  0  0
   38.8830   32.4880   41.0190 C   0  0  0  0  0  0  0  0  0  0  0  0
   39.7820   31.7240   41.7200 C   0  0  0  0  0  0  0  0  0  0  0  0
   40.0550   29.7710   42.5600 H   0  0  0  0  0  0  0  0  0  0  0  0
   36.0960   33.0520   39.4980 H   0  0  0  0  0  0  0  0  0  0  0  0
   37.6380   35.1040   39.4740 H   0  0  0  0  0  0  0  0  0  0  0  0
   40.7440   32.1210   42.0280 H   0  0  0  0  0  0  0  0  0  0  0  0
   36.7120   27.0420   43.2990 C   0  0  0  0  0  0  0  0  0  0  0  0
   37.0430   25.9900   42.4510 C   0  0  0  0  0  0  0  0  0  0  0  0
   37.7670   26.2930   41.2930 C   0  0  0  0  0  0  0  0  0  0  0  0
   38.1130   27.5940   41.0470 N   0  0  0  0  0  0  0  0  0  0  0  0
   37.7730   28.5950   41.8980 C   0  0  0  0  0  0  0  0  0  0  0  0
   37.0850   28.2990   42.9950 N   0  0  0  0  0  0  0  0  0  0  0  0
   36.1490   26.8890   44.2190 H   0  0  0  0  0  0  0  0  0  0  0  0
   36.7500   24.9810   42.6820 H   0  0  0  0  0  0  0  0  0  0  0  0
   38.0560   25.5040   40.5870 H   0  0  0  0  0  0  0  0  0  0  0  0
   35.9190   30.3900   40.4190 C   0  0  0  0  0  2  0  0  0  0  0  0
   35.9020   29.7790   39.0530 C   0  0  0  0  0  2  0  0  0  0  0  0
   35.5850   28.7060   39.1170 H   0  0  0  0  0  0  0  0  0  0  0  0
  1 10  1  0  0  0  0
  2 18  1  0  0  0  0
  2  1  2  0  0  0  0
  3  2  1  0  0  0  0
  4  3  2  0  0  0  0
  4  8  1  0  0  0  0
  5  6  1  0  0  0  0
  5  4  1  0  0  0  0
  6  7  2  0  0  0  0
  7  8  1  0  0  0  0
  8  9  2  0  0  0  0
  9  1  1  0  0  0  0
  9 13  1  0  0  0  0
 11  5  1  0  0  0  0
 12  6  1  0  0  0  0
 14 20  1  0  0  0  0
 15 21  1  0  0  0  0
 15 14  2  0  0  0  0
 16 15  1  0  0  0  0
 17 16  2  0  0  0  0
 17 18  1  0  0  0  0
 18 19  2  0  0  0  0
 19 14  1  0  0  0  0
 22 16  1  0  0  0  0
 23  3  1  0  0  0  0
 24 25  1  0  0  0  0
 24 23  1  0  0  0  0
M  END
>  <minimizedAffinity>
-5.17681456

$$$$

 OpenBabel03252509123D

 25 27  0  0  0  0  0  0  0  0999 V2000
   39.4080   30.4350   42.0250 C   0  0  0  0  0  0  0  0  0  0  0  0
   38.1720   29.9590   41.5960 C   0  0  0  0  0  0  0  0  0  0  0  0
   37.2810   30.7360   40.8900 C   0  0  0  0  0  0  0  0  0  0  0  0
   37.6250   32.0590   40.5860 C   0  0  0  0  0  0  0  0  0  0  0  0
   37.0140   33.0800   39.9260 N   0  0  0  0  0  0  0  0  0  0  0  0
   37.8520   34.1610   39.9460 C   0  0  0  0  0  0  0  0  0  0  0  0
   38.9690   33.7850   40.6230 N   0  0  0  0  0  0  0  0  0  0  0  0
   38.8570   32.5010   41.0260 C   0  0  0  0  0  0  0  0  0  0  0  0
   39.7630   31.7490   41.7320 C   0  0  0  0  0  0  0  0  0  0  0  0
   40.0620   29.7980   42.5670 H   0  0  0  0  0  0  0  0  0  0  0  0
   36.0710   33.0250   39.4890 H   0  0  0  0  0  0  0  0  0  0  0  0
   37.5800   35.1020   39.4820 H   0  0  0  0  0  0  0  0  0  0  0  0
   40.7160   32.1610   42.0470 H   0  0  0  0  0  0  0  0  0  0  0  0
   37.8110   26.3160   41.3010 C   0  0  0  0  0  0  0  0  0  0  0  0
   37.0950   25.9780   42.4460 C   0  0  0  0  0  0  0  0  0  0  0  0
   36.7400   27.0130   43.3170 C   0  0  0  0  0  0  0  0  0  0  0  0
   37.1060   28.2950   43.0110 N   0  0  0  0  0  0  0  0  0  0  0  0
   37.8040   28.5880   41.8840 C   0  0  0  0  0  0  0  0  0  0  0  0
   38.1390   27.5990   41.0620 N   0  0  0  0  0  0  0  0  0  0  0  0
   38.1250   25.5680   40.5740 H   0  0  0  0  0  0  0  0  0  0  0  0
   36.8290   24.9570   42.6490 H   0  0  0  0  0  0  0  0  0  0  0  0
   36.1760   26.8070   44.2350 H   0  0  0  0  0  0  0  0  0  0  0  0
   35.9320   30.3570   40.3990 C   0  0  0  0  0  2  0  0  0  0  0  0
   35.9340   29.7460   39.0340 C   0  0  0  0  0  2  0  0  0  0  0  0
   35.6320   28.6680   39.0960 H   0  0  0  0  0  0  0  0  0  0  0  0
  1 10  1  0  0  0  0
  2 18  1  0  0  0  0
  2  1  2  0  0  0  0
  3  2  1  0  0  0  0
  4  3  2  0  0  0  0
  4  8  1  0  0  0  0
  5  6  1  0  0  0  0
  5  4  1  0  0  0  0
  6  7  2  0  0  0  0
  7  8  1  0  0  0  0
  8  9  2  0  0  0  0
  9  1  1  0  0  0  0
  9 13  1  0  0  0  0
 11  5  1  0  0  0  0
 12  6  1  0  0  0  0
 14 15  1  0  0  0  0
 15 21  1  0  0  0  0
 15 16  2  0  0  0  0
 16 22  1  0  0  0  0
 17 16  1  0  0  0  0
 18 17  2  0  0  0  0
 19 14  2  0  0  0  0
 19 18  1  0  0  0  0
 20 14  1  0  0  0  0
 23  3  1  0  0  0  0
 24 25  1  0  0  0  0
 24 23  1  0  0  0  0
M  END
>  <minimizedAffinity>
-5.152215

$$$$

 OpenBabel03252509123D

 25 27  0  0  0  0  0  0  0  0999 V2000
   36.9720   31.1990   40.6540 C   0  0  0  0  0  0  0  0  0  0  0  0
   37.9390   30.4730   41.3450 C   0  0  0  0  0  0  0  0  0  0  0  0
   39.2100   30.9540   41.5660 C   0  0  0  0  0  0  0  0  0  0  0  0
   39.5520   32.2220   41.0820 C   0  0  0  0  0  0  0  0  0  0  0  0
   40.6750   32.9900   41.1160 N   0  0  0  0  0  0  0  0  0  0  0  0
   40.4080   34.1610   40.4630 C   0  0  0  0  0  0  0  0  0  0  0  0
   39.1200   34.0940   40.0350 N   0  0  0  0  0  0  0  0  0  0  0  0
   38.5710   32.9150   40.4010 C   0  0  0  0  0  0  0  0  0  0  0  0
   37.2970   32.4620   40.1660 C   0  0  0  0  0  0  0  0  0  0  0  0
   36.0040   30.7870   40.5090 H   0  0  0  0  0  0  0  0  0  0  0  0
   41.5700   32.7120   41.5680 H   0  0  0  0  0  0  0  0  0  0  0  0
   41.1570   34.9380   40.3570 H   0  0  0  0  0  0  0  0  0  0  0  0
   36.5740   33.0610   39.6220 H   0  0  0  0  0  0  0  0  0  0  0  0
   37.0250   27.7890   43.6790 C   0  0  0  0  0  0  0  0  0  0  0  0
   36.9570   26.6680   42.8570 C   0  0  0  0  0  0  0  0  0  0  0  0
   37.2270   26.8450   41.4960 C   0  0  0  0  0  0  0  0  0  0  0  0
   37.5420   28.0950   41.0380 N   0  0  0  0  0  0  0  0  0  0  0  0
   37.6000   29.1660   41.8700 C   0  0  0  0  0  0  0  0  0  0  0  0
   37.3400   28.9900   43.1610 N   0  0  0  0  0  0  0  0  0  0  0  0
   36.8270   27.7340   44.7500 H   0  0  0  0  0  0  0  0  0  0  0  0
   36.7040   25.7040   43.2590 H   0  0  0  0  0  0  0  0  0  0  0  0
   37.1890   25.9980   40.8000 H   0  0  0  0  0  0  0  0  0  0  0  0
   40.3320   30.2730   42.2620 C   0  0  0  0  0  2  0  0  0  0  0  0
   41.1710   29.4200   41.3640 C   0  0  0  0  0  2  0  0  0  0  0  0
   42.1980   29.8590   41.2680 H   0  0  0  0  0  0  0  0  0  0  0  0
  1  2  1  0  0  0  0
  2  3  2  0  0  0  0
  2 18  1  0  0  0  0
  3 23  1  0  0  0  0
  4  5  1  0  0  0  0
  4  3  1  0  0  0  0
  5 11  1  0  0  0  0
  6  5  1  0  0  0  0
  7  8  1  0  0  0  0
  7  6  2  0  0  0  0
  8  4  2  0  0  0  0
  9  8  1  0  0  0  0
  9  1  2  0  0  0  0
 10  1  1  0  0  0  0
 12  6  1  0  0  0  0
 13  9  1  0  0  0  0
 14 20  1  0  0  0  0
 15 21  1  0  0  0  0
 15 14  2  0  0  0  0
 16 15  1  0  0  0  0
 17 16  2  0  0  0  0
 17 18  1  0  0  0  0
 18 19  2  0  0  0  0
 19 14  1  0  0  0  0
 22 16  1  0  0  0  0
 24 23  1  0  0  0  0
 25 24  1  0  0  0  0
M  END
>  <minimizedAffinity>
-4.90814829

$$$$

 OpenBabel03252509123D

 25 27  0  0  0  0  0  0  0  0999 V2000
   36.5630   26.7230   39.5460 C   0  0  0  0  0  0  0  0  0  0  0  0
   36.1630   28.0440   39.3590 C   0  0  0  0  0  0  0  0  0  0  0  0
   36.2380   28.9900   40.3570 C   0  0  0  0  0  0  0  0  0  0  0  0
   36.7370   28.6180   41.6110 C   0  0  0  0  0  0  0  0  0  0  0  0
   36.9500   29.2670   42.7880 N   0  0  0  0  0  0  0  0  0  0  0  0
   37.4690   28.3700   43.6800 C   0  0  0  0  0  0  0  0  0  0  0  0
   37.5670   27.1780   43.0330 N   0  0  0  0  0  0  0  0  0  0  0  0
   37.1250   27.3020   41.7630 C   0  0  0  0  0  0  0  0  0  0  0  0
   37.0600   26.3380   40.7880 C   0  0  0  0  0  0  0  0  0  0  0  0
   36.4860   26.0290   38.7460 H   0  0  0  0  0  0  0  0  0  0  0  0
   36.7450   30.2730   42.9570 H   0  0  0  0  0  0  0  0  0  0  0  0
   37.7200   28.6550   44.6950 H   0  0  0  0  0  0  0  0  0  0  0  0
   37.3830   25.3190   40.9770 H   0  0  0  0  0  0  0  0  0  0  0  0
   36.0430   29.3010   35.9100 C   0  0  0  0  0  0  0  0  0  0  0  0
   34.6880   29.2330   35.5990 C   0  0  0  0  0  0  0  0  0  0  0  0
   33.8190   28.7510   36.5840 C   0  0  0  0  0  0  0  0  0  0  0  0
   34.3320   28.3730   37.7950 N   0  0  0  0  0  0  0  0  0  0  0  0
   35.6600   28.4530   38.0640 C   0  0  0  0  0  0  0  0  0  0  0  0
   36.4790   28.9110   37.1220 N   0  0  0  0  0  0  0  0  0  0  0  0
   36.7830   29.6640   35.1980 H   0  0  0  0  0  0  0  0  0  0  0  0
   34.3270   29.5400   34.6340 H   0  0  0  0  0  0  0  0  0  0  0  0
   32.7410   28.6750   36.3950 H   0  0  0  0  0  0  0  0  0  0  0  0
   35.8240   30.4150   40.2930 C   0  0  0  0  0  2  0  0  0  0  0  0
   36.9210   31.3450   39.8780 C   0  0  0  0  0  2  0  0  0  0  0  0
   36.6910   31.7850   38.8730 H   0  0  0  0  0  0  0  0  0  0  0  0
  1  9  1  0  0  0  0
  2  1  2  0  0  0  0
  2  3  1  0  0  0  0
  3  4  2  0  0  0  0
  4  8  1  0  0  0  0
  4  5  1  0  0  0  0
  5 11  1  0  0  0  0
  5  6  1  0  0  0  0
  6 12  1  0  0  0  0
  7  6  2  0  0  0  0
  8  7  1  0  0  0  0
  9 13  1  0  0  0  0
  9  8  2  0  0  0  0
 10  1  1  0  0  0  0
 14 19  1  0  0  0  0
 15 14  2  0  0  0  0
 15 16  1  0  0  0  0
 16 17  2  0  0  0  0
 17 18  1  0  0  0  0
 18  2  1  0  0  0  0
 19 18  2  0  0  0  0
 20 14  1  0  0  0  0
 21 15  1  0  0  0  0
 22 16  1  0  0  0  0
 23  3  1  0  0  0  0
 24 23  1  0  0  0  0
 25 24  1  0  0  0  0
M  END
>  <minimizedAffinity>
-4.62829685

$$$$

 OpenBabel03252509123D

 25 27  0  0  0  0  0  0  0  0999 V2000
   40.3370   29.6120   42.0050 C   0  0  0  0  0  0  0  0  0  0  0  0
   39.3750   30.4040   41.3830 C   0  0  0  0  0  0  0  0  0  0  0  0
   38.0240   30.1650   41.5050 C   0  0  0  0  0  0  0  0  0  0  0  0
   37.5920   29.0860   42.2860 C   0  0  0  0  0  0  0  0  0  0  0  0
   36.3780   28.5710   42.6200 N   0  0  0  0  0  0  0  0  0  0  0  0
   36.5840   27.4890   43.4300 C   0  0  0  0  0  0  0  0  0  0  0  0
   37.9280   27.3550   43.5800 N   0  0  0  0  0  0  0  0  0  0  0  0
   38.5710   28.3210   42.8890 C   0  0  0  0  0  0  0  0  0  0  0  0
   39.9220   28.5350   42.7840 C   0  0  0  0  0  0  0  0  0  0  0  0
   41.3670   29.8360   41.8820 H   0  0  0  0  0  0  0  0  0  0  0  0
   35.4630   28.9530   42.3030 H   0  0  0  0  0  0  0  0  0  0  0  0
   35.7590   26.9080   43.8260 H   0  0  0  0  0  0  0  0  0  0  0  0
   40.6380   27.8920   43.2870 H   0  0  0  0  0  0  0  0  0  0  0  0
   40.2860   33.8230   40.3980 C   0  0  0  0  0  0  0  0  0  0  0  0
   40.6110   33.6850   39.0510 C   0  0  0  0  0  0  0  0  0  0  0  0
   40.5140   32.4080   38.4880 C   0  0  0  0  0  0  0  0  0  0  0  0
   40.1100   31.3640   39.2740 N   0  0  0  0  0  0  0  0  0  0  0  0
   39.8000   31.5360   40.5850 C   0  0  0  0  0  0  0  0  0  0  0  0
   39.8960   32.7510   41.1130 N   0  0  0  0  0  0  0  0  0  0  0  0
   40.3370   34.7830   40.9100 H   0  0  0  0  0  0  0  0  0  0  0  0
   40.9250   34.5330   38.4700 H   0  0  0  0  0  0  0  0  0  0  0  0
   40.7570   32.2390   37.4320 H   0  0  0  0  0  0  0  0  0  0  0  0
   36.9070   30.9150   40.8770 C   0  0  0  0  0  2  0  0  0  0  0  0
   36.5250   30.4070   39.5220 C   0  0  0  0  0  2  0  0  0  0  0  0
   35.5000   29.9560   39.5560 H   0  0  0  0  0  0  0  0  0  0  0  0
  1  9  1  0  0  0  0
  2  3  1  0  0  0  0
  2  1  2  0  0  0  0
  3  4  2  0  0  0  0
  4  5  1  0  0  0  0
  4  8  1  0  0  0  0
  5  6  1  0  0  0  0
  6  7  2  0  0  0  0
  6 12  1  0  0  0  0
  8  7  1  0  0  0  0
  9  8  2  0  0  0  0
  9 13  1  0  0  0  0
 10  1  1  0  0  0  0
 11  5  1  0  0  0  0
 14 20  1  0  0  0  0
 14 19  1  0  0  0  0
 15 14  2  0  0  0  0
 16 15  1  0  0  0  0
 16 17  2  0  0  0  0
 17 18  1  0  0  0  0
 18 19  2  0  0  0  0
 18  2  1  0  0  0  0
 21 15  1  0  0  0  0
 22 16  1  0  0  0  0
 23  3  1  0  0  0  0
 24 25  1  0  0  0  0
 24 23  1  0  0  0  0
M  END
>  <minimizedAffinity>
-4.62480927

$$$$

 OpenBabel03252509123D

 25 27  0  0  0  0  0  0  0  0999 V2000
   37.0140   30.0780   36.9620 C   0  0  0  0  0  0  0  0  0  0  0  0
   36.2030   29.5030   37.9370 C   0  0  0  0  0  0  0  0  0  0  0  0
   36.0480   30.0500   39.1910 C   0  0  0  0  0  0  0  0  0  0  0  0
   36.7280   31.2320   39.5060 C   0  0  0  0  0  0  0  0  0  0  0  0
   36.8060   32.0280   40.6070 N   0  0  0  0  0  0  0  0  0  0  0  0
   37.6450   33.0690   40.3190 C   0  0  0  0  0  0  0  0  0  0  0  0
   38.0710   32.8950   39.0400 N   0  0  0  0  0  0  0  0  0  0  0  0
   37.5240   31.7760   38.5180 C   0  0  0  0  0  0  0  0  0  0  0  0
   37.6980   31.2530   37.2610 C   0  0  0  0  0  0  0  0  0  0  0  0
   37.1020   29.6190   36.0080 H   0  0  0  0  0  0  0  0  0  0  0  0
   36.3050   31.8540   41.5020 H   0  0  0  0  0  0  0  0  0  0  0  0
   37.8670   33.8400   41.0480 H   0  0  0  0  0  0  0  0  0  0  0  0
   38.3410   31.7340   36.5310 H   0  0  0  0  0  0  0  0  0  0  0  0
   35.3510   25.9470   37.5890 C   0  0  0  0  0  0  0  0  0  0  0  0
   34.0800   25.9830   37.0230 C   0  0  0  0  0  0  0  0  0  0  0  0
   33.5210   27.2390   36.7630 C   0  0  0  0  0  0  0  0  0  0  0  0
   34.2380   28.3620   37.0730 N   0  0  0  0  0  0  0  0  0  0  0  0
   35.4760   28.2890   37.6250 C   0  0  0  0  0  0  0  0  0  0  0  0
   35.9990   27.0930   37.8690 N   0  0  0  0  0  0  0  0  0  0  0  0
   35.8540   25.0090   37.8220 H   0  0  0  0  0  0  0  0  0  0  0  0
   33.5510   25.0750   36.7950 H   0  0  0  0  0  0  0  0  0  0  0  0
   32.5220   27.3290   36.3180 H   0  0  0  0  0  0  0  0  0  0  0  0
   35.2370   29.5250   40.3190 C   0  0  0  0  0  2  0  0  0  0  0  0
   35.9820   28.5820   41.2110 C   0  0  0  0  0  2  0  0  0  0  0  0
   36.1230   29.0420   42.2230 H   0  0  0  0  0  0  0  0  0  0  0  0
  1  9  2  0  0  0  0
  1  2  1  0  0  0  0
  2  3  2  0  0  0  0
  3  4  1  0  0  0  0
  3 23  1  0  0  0  0
  4  5  1  0  0  0  0
  5 11  1  0  0  0  0
  6  5  1  0  0  0  0
  6 12  1  0  0  0  0
  7  6  2  0  0  0  0
  8  7  1  0  0  0  0
  8  4  2  0  0  0  0
  9  8  1  0  0  0  0
 10  1  1  0  0  0  0
 13  9  1  0  0  0  0
 14 20  1  0  0  0  0
 14 19  1  0  0  0  0
 15 14  2  0  0  0  0
 16 15  1  0  0  0  0
 16 17  2  0  0  0  0
 17 18  1  0  0  0  0
 18 19  2  0  0  0  0
 18  2  1  0  0  0  0
 21 15  1  0  0  0  0
 22 16  1  0  0  0  0
 23 24  1  0  0  0  0
 24 25  1  0  0  0  0
M  END
>  <minimizedAffinity>
-4.51966572

$$$$

 OpenBabel03252509123D

 25 27  0  0  0  0  0  0  0  0999 V2000
   37.8860   26.4100   39.4360 C   0  0  0  0  0  0  0  0  0  0  0  0
   37.9740   26.8090   40.7670 C   0  0  0  0  0  0  0  0  0  0  0  0
   37.0980   27.7080   41.3320 C   0  0  0  0  0  0  0  0  0  0  0  0
   36.0730   28.2470   40.5440 C   0  0  0  0  0  0  0  0  0  0  0  0
   35.0600   29.1290   40.7610 N   0  0  0  0  0  0  0  0  0  0  0  0
   34.3630   29.2710   39.5940 C   0  0  0  0  0  0  0  0  0  0  0  0
   34.9610   28.4700   38.6730 N   0  0  0  0  0  0  0  0  0  0  0  0
   36.0130   27.8310   39.2290 C   0  0  0  0  0  0  0  0  0  0  0  0
   36.8720   26.9370   38.6390 C   0  0  0  0  0  0  0  0  0  0  0  0
   38.5840   25.7130   39.0440 H   0  0  0  0  0  0  0  0  0  0  0  0
   34.8690   29.6010   41.6690 H   0  0  0  0  0  0  0  0  0  0  0  0
   33.5050   29.9290   39.5190 H   0  0  0  0  0  0  0  0  0  0  0  0
   36.7670   26.6540   37.5970 H   0  0  0  0  0  0  0  0  0  0  0  0
   41.1750   26.3690   42.5120 C   0  0  0  0  0  0  0  0  0  0  0  0
   40.9950   25.1730   43.2010 C   0  0  0  0  0  0  0  0  0  0  0  0
   39.7650   24.5220   43.0590 C   0  0  0  0  0  0  0  0  0  0  0  0
   38.8050   25.0810   42.2610 N   0  0  0  0  0  0  0  0  0  0  0  0
   39.0160   26.2510   41.6040 C   0  0  0  0  0  0  0  0  0  0  0  0
   40.1870   26.8630   41.7440 N   0  0  0  0  0  0  0  0  0  0  0  0
   42.1040   26.9370   42.5710 H   0  0  0  0  0  0  0  0  0  0  0  0
   41.7770   24.7690   43.8180 H   0  0  0  0  0  0  0  0  0  0  0  0
   39.5660   23.5760   43.5780 H   0  0  0  0  0  0  0  0  0  0  0  0
   37.1000   28.2300   42.7220 C   0  0  0  0  0  2  0  0  0  0  0  0
   36.3020   27.4020   43.6800 C   0  0  0  0  0  2  0  0  0  0  0  0
   36.9830   26.9170   44.4260 H   0  0  0  0  0  0  0  0  0  0  0  0
  1  2  1  0  0  0  0
  2  3  2  0  0  0  0
  2 18  1  0  0  0  0
  3 23  1  0  0  0  0
  4  5  1  0  0  0  0
  4  3  1  0  0  0  0
  5 11  1  0  0  0  0
  6  5  1  0  0  0  0
  7  8  1  0  0  0  0
  7  6  2  0  0  0  0
  8  4  2  0  0  0  0
  9  8  1  0  0  0  0
  9  1  2  0  0  0  0
 10  1  1  0  0  0  0
 12  6  1  0  0  0  0
 13  9  1  0  0  0  0
 14 20  1  0  0  0  0
 14 15  1  0  0  0  0
 15 21  1  0  0  0  0
 16 15  2  0  0  0  0
 16 22  1  0  0  0  0
 17 16  1  0  0  0  0
 18 19  1  0  0  0  0
 18 17  2  0  0  0  0
 19 14  2  0  0  0  0
 23 24  1  0  0  0  0
 24 25  1  0  0  0  0
M  END
>  <minimizedAffinity>
-4.46316338

$$$$

 OpenBabel03252509123D

 25 27  0  0  0  0  0  0  0  0999 V2000
   39.7820   28.7380   42.6160 C   0  0  0  0  0  0  0  0  0  0  0  0
   38.7260   28.4490   41.7550 C   0  0  0  0  0  0  0  0  0  0  0  0
   38.2660   27.1680   41.5490 C   0  0  0  0  0  0  0  0  0  0  0  0
   38.8770   26.1070   42.2290 C   0  0  0  0  0  0  0  0  0  0  0  0
   38.6900   24.7610   42.2700 N   0  0  0  0  0  0  0  0  0  0  0  0
   39.6060   24.2300   43.1350 C   0  0  0  0  0  0  0  0  0  0  0  0
   40.3460   25.2650   43.6140 N   0  0  0  0  0  0  0  0  0  0  0  0
   39.9210   26.4280   43.0750 C   0  0  0  0  0  0  0  0  0  0  0  0
   40.4000   27.6940   43.2990 C   0  0  0  0  0  0  0  0  0  0  0  0
   40.1020   29.7420   42.7430 H   0  0  0  0  0  0  0  0  0  0  0  0
   37.9670   24.2450   41.7270 H   0  0  0  0  0  0  0  0  0  0  0  0
   39.6540   23.1650   43.3320 H   0  0  0  0  0  0  0  0  0  0  0  0
   41.2260   27.8740   43.9800 H   0  0  0  0  0  0  0  0  0  0  0  0
   36.3380   31.1110   40.9170 C   0  0  0  0  0  0  0  0  0  0  0  0
   36.8250   31.5990   39.7080 C   0  0  0  0  0  0  0  0  0  0  0  0
   37.9790   31.0060   39.1860 C   0  0  0  0  0  0  0  0  0  0  0  0
   38.5720   29.9840   39.8770 N   0  0  0  0  0  0  0  0  0  0  0  0
   38.0690   29.5330   41.0550 C   0  0  0  0  0  0  0  0  0  0  0  0
   36.9730   30.1030   41.5450 N   0  0  0  0  0  0  0  0  0  0  0  0
   35.4460   31.5200   41.3900 H   0  0  0  0  0  0  0  0  0  0  0  0
   36.3280   32.4050   39.1980 H   0  0  0  0  0  0  0  0  0  0  0  0
   38.4080   31.3490   38.2370 H   0  0  0  0  0  0  0  0  0  0  0  0
   37.1730   26.7280   40.6450 C   0  0  0  0  0  2  0  0  0  0  0  0
   37.6290   26.4060   39.2560 C   0  0  0  0  0  2  0  0  0  0  0  0
   37.5140   25.3080   39.0600 H   0  0  0  0  0  0  0  0  0  0  0  0
  1 10  1  0  0  0  0
  1  9  1  0  0  0  0
  2  1  2  0  0  0  0
  3  2  1  0  0  0  0
  3  4  2  0  0  0  0
  4  5  1  0  0  0  0
  4  8  1  0  0  0  0
  5  6  1  0  0  0  0
  6 12  1  0  0  0  0
  6  7  2  0  0  0  0
  8  9  2  0  0  0  0
  8  7  1  0  0  0  0
  9 13  1  0  0  0  0
 11  5  1  0  0  0  0
 14 20  1  0  0  0  0
 14 19  1  0  0  0  0
 15 14  2  0  0  0  0
 16 15  1  0  0  0  0
 16 17  2  0  0  0  0
 17 18  1  0  0  0  0
 18 19  2  0  0  0  0
 18  2  1  0  0  0  0
 21 15  1  0  0  0  0
 22 16  1  0  0  0  0
 23  3  1  0  0  0  0
 24 23  1  0  0  0  0
 25 24  1  0  0  0  0
M  END
>  <minimizedAffinity>
-4.37471008

$$$$

 OpenBabel03252509123D

 25 27  0  0  0  0  0  0  0  0999 V2000
   37.3320   28.6590   42.9750 C   0  0  0  0  0  0  0  0  0  0  0  0
   37.7050   28.9490   41.6660 C   0  0  0  0  0  0  0  0  0  0  0  0
   37.7870   27.9850   40.6860 C   0  0  0  0  0  0  0  0  0  0  0  0
   37.4830   26.6580   41.0110 C   0  0  0  0  0  0  0  0  0  0  0  0
   37.4550   25.4850   40.3220 N   0  0  0  0  0  0  0  0  0  0  0  0
   37.0730   24.4950   41.1840 C   0  0  0  0  0  0  0  0  0  0  0  0
   36.8720   25.0770   42.3950 N   0  0  0  0  0  0  0  0  0  0  0  0
   37.1160   26.4030   42.3180 C   0  0  0  0  0  0  0  0  0  0  0  0
   37.0260   27.3440   43.3140 C   0  0  0  0  0  0  0  0  0  0  0  0
   37.2820   29.4370   43.6970 H   0  0  0  0  0  0  0  0  0  0  0  0
   37.6880   25.3840   39.3130 H   0  0  0  0  0  0  0  0  0  0  0  0
   36.9800   23.4630   40.8620 H   0  0  0  0  0  0  0  0  0  0  0  0
   36.7310   27.0730   44.3230 H   0  0  0  0  0  0  0  0  0  0  0  0
   37.3520   32.3650   40.3620 C   0  0  0  0  0  0  0  0  0  0  0  0
   38.5980   32.9290   40.6200 C   0  0  0  0  0  0  0  0  0  0  0  0
   39.5570   32.1260   41.2450 C   0  0  0  0  0  0  0  0  0  0  0  0
   39.2340   30.8370   41.5720 N   0  0  0  0  0  0  0  0  0  0  0  0
   38.0070   30.3190   41.3050 C   0  0  0  0  0  0  0  0  0  0  0  0
   37.1020   31.0890   40.7120 N   0  0  0  0  0  0  0  0  0  0  0  0
   36.5520   32.9250   39.8790 H   0  0  0  0  0  0  0  0  0  0  0  0
   38.8100   33.9470   40.3470 H   0  0  0  0  0  0  0  0  0  0  0  0
   40.5560   32.5170   41.4740 H   0  0  0  0  0  0  0  0  0  0  0  0
   38.1940   28.1600   39.2690 C   0  0  0  0  0  2  0  0  0  0  0  0
   39.6670   28.0220   39.0410 C   0  0  0  0  0  2  0  0  0  0  0  0
   39.8760   27.1030   38.4340 H   0  0  0  0  0  0  0  0  0  0  0  0
  1  9  1  0  0  0  0
  1 10  1  0  0  0  0
  2  1  2  0  0  0  0
  3  4  2  0  0  0  0
  3  2  1  0  0  0  0
  4  8  1  0  0  0  0
  5  4  1  0  0  0  0
  5  6  1  0  0  0  0
  6  7  2  0  0  0  0
  8  7  1  0  0  0  0
  8  9  2  0  0  0  0
  9 13  1  0  0  0  0
 11  5  1  0  0  0  0
 12  6  1  0  0  0  0
 14 15  2  0  0  0  0
 14 19  1  0  0  0  0
 15 16  1  0  0  0  0
 16 22  1  0  0  0  0
 16 17  2  0  0  0  0
 18 17  1  0  0  0  0
 18  2  1  0  0  0  0
 19 18  2  0  0  0  0
 20 14  1  0  0  0  0
 21 15  1  0  0  0  0
 23  3  1  0  0  0  0
 24 23  1  0  0  0  0
 25 24  1  0  0  0  0
M  END
>  <minimizedAffinity>
-4.37279415

$$$$
