
 OpenBabel03252503543D

 30 31  0  0  1  0  0  0  0  0999 V2000
   37.5660   29.5750   40.7730 N   0  0  0  0  0  0  0  0  0  0  0  0
   38.1170   30.8990   40.9870 C   0  0  0  0  0  0  0  0  0  0  0  0
   37.1380   31.8910   40.4170 C   0  0  0  0  0  0  0  0  0  0  0  0
   37.0150   31.7390   38.9460 C   0  0  0  0  0  0  0  0  0  0  0  0
   36.9530   30.2870   38.5440 C   0  0  0  0  0  0  0  0  0  0  0  0
   36.6170   29.4200   39.7450 C   0  0  2  0  0  0  0  0  0  0  0  0
   38.1860   31.1290   42.0740 H   0  0  0  0  0  0  0  0  0  0  0  0
   39.0880   31.0380   40.4770 H   0  0  0  0  0  0  0  0  0  0  0  0
   37.6930   32.9020   40.5690 H   0  0  0  0  0  0  0  0  0  0  0  0
   36.2380   32.0580   41.0070 H   0  0  0  0  0  0  0  0  0  0  0  0
   37.8920   32.2330   38.4610 H   0  0  0  0  0  0  0  0  0  0  0  0
   36.0680   32.2050   38.5850 H   0  0  0  0  0  0  0  0  0  0  0  0
   37.9630   29.9350   38.1840 H   0  0  0  0  0  0  0  0  0  0  0  0
   36.2270   30.0750   37.7410 H   0  0  0  0  0  0  0  0  0  0  0  0
   36.8090   28.3670   39.3250 H   0  0  0  0  0  0  0  0  0  0  0  0
   38.0090   26.1490   42.1200 C   0  0  0  0  0  0  0  0  0  0  0  0
   37.5410   27.1990   41.3200 C   0  0  0  0  0  0  0  0  0  0  0  0
   37.9970   28.4850   41.5470 C   0  0  0  0  0  0  0  0  0  0  0  0
   38.8860   28.6610   42.5430 N   0  0  0  0  0  0  0  0  0  0  0  0
   39.3410   27.6450   43.3190 C   0  0  0  0  0  0  0  0  0  0  0  0
   38.8950   26.3890   43.0980 N   0  0  0  0  0  0  0  0  0  0  0  0
   36.8530   26.9590   40.5560 H   0  0  0  0  0  0  0  0  0  0  0  0
   40.0620   27.8620   44.1090 H   0  0  0  0  0  0  0  0  0  0  0  0
   37.4750   24.7860   41.8430 C   0  0  0  0  0  0  0  0  0  0  0  0
   38.4040   23.8040   42.0480 F   0  0  0  0  0  0  0  0  0  0  0  0
   36.3260   24.6210   42.6370 F   0  0  0  0  0  0  0  0  0  0  0  0
   36.9800   24.7430   40.5240 F   0  0  0  0  0  0  0  0  0  0  0  0
   35.1690   29.4630   40.0110 C   0  0  0  0  0  2  0  0  0  0  0  0
   34.3740   28.9170   38.7940 C   0  0  0  0  0  2  0  0  0  0  0  0
   35.0100   28.1090   38.3820 H   0  0  0  0  0  0  0  0  0  0  0  0
  1  2  1  0  0  0  0
  1 18  1  0  0  0  0
  2  7  1  0  0  0  0
  3  9  1  0  0  0  0
  3  2  1  0  0  0  0
  3 10  1  0  0  0  0
  4  3  1  0  0  0  0
  5  4  1  0  0  0  0
  5  6  1  0  0  0  0
  6 15  1  6  0  0  0
  6 28  1  0  0  0  0
  6  1  1  0  0  0  0
  8  2  1  0  0  0  0
 11  4  1  0  0  0  0
 12  4  1  0  0  0  0
 13  5  1  0  0  0  0
 14  5  1  0  0  0  0
 16 21  1  0  0  0  0
 17 18  1  0  0  0  0
 17 16  2  0  0  0  0
 18 19  2  0  0  0  0
 19 20  1  0  0  0  0
 20 23  1  0  0  0  0
 21 20  2  0  0  0  0
 22 17  1  0  0  0  0
 24 25  1  0  0  0  0
 24 16  1  0  0  0  0
 24 26  1  0  0  0  0
 27 24  1  0  0  0  0
 29 28  1  0  0  0  0
 30 29  1  0  0  0  0
M  END
>  <minimizedAffinity>
-4.96738434

$$$$

 OpenBabel03252503543D

 30 31  0  0  1  0  0  0  0  0999 V2000
   37.4840   30.1810   40.4680 N   0  0  0  0  0  0  0  0  0  0  0  0
   36.7950   30.0760   39.1960 C   0  0  0  0  0  0  0  0  0  0  0  0
   37.4460   31.0490   38.2490 C   0  0  0  0  0  0  0  0  0  0  0  0
   37.2480   32.4490   38.7000 C   0  0  0  0  0  0  0  0  0  0  0  0
   37.4450   32.5840   40.1890 C   0  0  0  0  0  0  0  0  0  0  0  0
   38.1820   31.3730   40.7360 C   0  0  2  0  0  0  0  0  0  0  0  0
   36.9430   29.0680   38.7460 H   0  0  0  0  0  0  0  0  0  0  0  0
   35.7230   30.3340   39.2760 H   0  0  0  0  0  0  0  0  0  0  0  0
   36.7890   30.9450   37.2950 H   0  0  0  0  0  0  0  0  0  0  0  0
   38.4200   30.7520   37.8630 H   0  0  0  0  0  0  0  0  0  0  0  0
   36.2150   32.7730   38.4200 H   0  0  0  0  0  0  0  0  0  0  0  0
   38.0000   33.1210   38.2230 H   0  0  0  0  0  0  0  0  0  0  0  0
   36.4470   32.6010   40.7170 H   0  0  0  0  0  0  0  0  0  0  0  0
   37.9890   33.4950   40.4890 H   0  0  0  0  0  0  0  0  0  0  0  0
   38.0670   31.5310   41.8690 H   0  0  0  0  0  0  0  0  0  0  0  0
   37.2470   26.8130   42.0000 C   0  0  0  0  0  0  0  0  0  0  0  0
   37.3000   27.8140   41.0220 C   0  0  0  0  0  0  0  0  0  0  0  0
   37.4220   29.1380   41.4050 C   0  0  0  0  0  0  0  0  0  0  0  0
   37.4870   29.3970   42.7250 N   0  0  0  0  0  0  0  0  0  0  0  0
   37.4360   28.4290   43.6740 C   0  0  0  0  0  0  0  0  0  0  0  0
   37.3160   27.1370   43.3000 N   0  0  0  0  0  0  0  0  0  0  0  0
   37.2530   27.5090   40.0110 H   0  0  0  0  0  0  0  0  0  0  0  0
   37.4940   28.7130   44.7270 H   0  0  0  0  0  0  0  0  0  0  0  0
   37.1010   25.4060   41.5330 C   0  0  0  0  0  0  0  0  0  0  0  0
   36.4290   25.3120   40.3450 F   0  0  0  0  0  0  0  0  0  0  0  0
   38.3920   24.8530   41.4710 F   0  0  0  0  0  0  0  0  0  0  0  0
   36.4600   24.6510   42.5360 F   0  0  0  0  0  0  0  0  0  0  0  0
   39.6260   31.5030   40.4800 C   0  0  0  0  0  2  0  0  0  0  0  0
   40.4280   31.3740   41.8040 C   0  0  0  0  0  2  0  0  0  0  0  0
   39.8640   30.6350   42.4040 H   0  0  0  0  0  0  0  0  0  0  0  0
  1  6  1  0  0  0  0
  1 18  1  0  0  0  0
  2  8  1  0  0  0  0
  2  1  1  0  0  0  0
  3  4  1  0  0  0  0
  3  2  1  0  0  0  0
  4  5  1  0  0  0  0
  5 14  1  0  0  0  0
  5 13  1  0  0  0  0
  5  6  1  0  0  0  0
  6 15  1  1  0  0  0
  7  2  1  0  0  0  0
  9  3  1  0  0  0  0
 10  3  1  0  0  0  0
 11  4  1  0  0  0  0
 12  4  1  0  0  0  0
 16 21  1  0  0  0  0
 17 18  1  0  0  0  0
 17 16  2  0  0  0  0
 18 19  2  0  0  0  0
 19 20  1  0  0  0  0
 20 23  1  0  0  0  0
 21 20  2  0  0  0  0
 22 17  1  0  0  0  0
 24 16  1  0  0  0  0
 24 27  1  0  0  0  0
 25 24  1  0  0  0  0
 26 24  1  0  0  0  0
 28  6  1  0  0  0  0
 28 29  1  0  0  0  0
 29 30  1  0  0  0  0
M  END
>  <minimizedAffinity>
-4.92126274

$$$$

 OpenBabel03252503543D

 30 31  0  0  1  0  0  0  0  0999 V2000
   38.3130   28.6710   42.2290 N   0  0  0  0  0  0  0  0  0  0  0  0
   36.8750   28.6120   42.4080 C   0  0  0  0  0  0  0  0  0  0  0  0
   36.5780   27.4110   43.2680 C   0  0  0  0  0  0  0  0  0  0  0  0
   36.9500   26.1520   42.5750 C   0  0  0  0  0  0  0  0  0  0  0  0
   38.2770   26.2780   41.8720 C   0  0  0  0  0  0  0  0  0  0  0  0
   39.0430   27.4790   42.4010 C   0  0  2  0  0  0  0  0  0  0  0  0
   36.5100   29.4940   42.9810 H   0  0  0  0  0  0  0  0  0  0  0  0
   36.3360   28.4950   41.4500 H   0  0  0  0  0  0  0  0  0  0  0  0
   35.4150   27.4070   43.2940 H   0  0  0  0  0  0  0  0  0  0  0  0
   36.8100   27.5190   44.3260 H   0  0  0  0  0  0  0  0  0  0  0  0
   36.1490   25.8990   41.8380 H   0  0  0  0  0  0  0  0  0  0  0  0
   37.0640   25.3220   43.3130 H   0  0  0  0  0  0  0  0  0  0  0  0
   38.1220   26.4720   40.7710 H   0  0  0  0  0  0  0  0  0  0  0  0
   38.9180   25.3850   41.9600 H   0  0  0  0  0  0  0  0  0  0  0  0
   39.9030   27.5510   41.6420 H   0  0  0  0  0  0  0  0  0  0  0  0
   39.0070   31.9720   40.6910 C   0  0  0  0  0  0  0  0  0  0  0  0
   38.3360   30.7880   41.0200 C   0  0  0  0  0  0  0  0  0  0  0  0
   38.9410   29.8720   41.8620 C   0  0  0  0  0  0  0  0  0  0  0  0
   40.1660   30.1770   42.3300 N   0  0  0  0  0  0  0  0  0  0  0  0
   40.8170   31.3240   42.0130 C   0  0  0  0  0  0  0  0  0  0  0  0
   40.2270   32.2170   41.1910 N   0  0  0  0  0  0  0  0  0  0  0  0
   37.3720   30.6450   40.6110 H   0  0  0  0  0  0  0  0  0  0  0  0
   41.8100   31.5040   42.4310 H   0  0  0  0  0  0  0  0  0  0  0  0
   38.3160   32.9170   39.7700 C   0  0  0  0  0  0  0  0  0  0  0  0
   38.9290   34.1390   39.7100 F   0  0  0  0  0  0  0  0  0  0  0  0
   38.2360   32.2890   38.5140 F   0  0  0  0  0  0  0  0  0  0  0  0
   36.9700   33.0490   40.1660 F   0  0  0  0  0  0  0  0  0  0  0  0
   39.6920   27.1430   43.6790 C   0  0  0  0  0  2  0  0  0  0  0  0
   40.4540   25.7950   43.5660 C   0  0  0  0  0  2  0  0  0  0  0  0
   40.8460   25.7790   42.5300 H   0  0  0  0  0  0  0  0  0  0  0  0
  1  6  1  0  0  0  0
  1  2  1  0  0  0  0
  2  7  1  0  0  0  0
  2  3  1  0  0  0  0
  3  9  1  0  0  0  0
  3 10  1  0  0  0  0
  4  3  1  0  0  0  0
  4 12  1  0  0  0  0
  5 14  1  0  0  0  0
  5  6  1  0  0  0  0
  5  4  1  0  0  0  0
  6 15  1  6  0  0  0
  6 28  1  0  0  0  0
  8  2  1  0  0  0  0
 11  4  1  0  0  0  0
 13  5  1  0  0  0  0
 16 17  2  0  0  0  0
 16 21  1  0  0  0  0
 17 18  1  0  0  0  0
 18  1  1  0  0  0  0
 18 19  2  0  0  0  0
 20 19  1  0  0  0  0
 20 23  1  0  0  0  0
 21 20  2  0  0  0  0
 22 17  1  0  0  0  0
 24 27  1  0  0  0  0
 24 16  1  0  0  0  0
 25 24  1  0  0  0  0
 26 24  1  0  0  0  0
 29 28  1  0  0  0  0
 30 29  1  0  0  0  0
M  END
>  <minimizedAffinity>
-4.79602003

$$$$

 OpenBabel03252503543D

 30 31  0  0  1  0  0  0  0  0999 V2000
   37.2580   29.8800   39.4170 N   0  0  0  0  0  0  0  0  0  0  0  0
   36.8320   30.5010   38.1780 C   0  0  0  0  0  0  0  0  0  0  0  0
   37.6140   31.7780   38.0210 C   0  0  0  0  0  0  0  0  0  0  0  0
   37.2770   32.7470   39.0940 C   0  0  0  0  0  0  0  0  0  0  0  0
   37.1780   32.0720   40.4380 C   0  0  0  0  0  0  0  0  0  0  0  0
   37.8440   30.7070   40.3940 C   0  0  2  0  0  0  0  0  0  0  0  0
   37.1040   29.8680   37.3030 H   0  0  0  0  0  0  0  0  0  0  0  0
   35.7550   30.7510   38.1820 H   0  0  0  0  0  0  0  0  0  0  0  0
   37.1570   32.2320   37.0520 H   0  0  0  0  0  0  0  0  0  0  0  0
   38.6550   31.6610   37.7240 H   0  0  0  0  0  0  0  0  0  0  0  0
   36.3060   33.2390   38.8400 H   0  0  0  0  0  0  0  0  0  0  0  0
   38.0800   33.5170   39.1880 H   0  0  0  0  0  0  0  0  0  0  0  0
   36.0980   31.8790   40.7020 H   0  0  0  0  0  0  0  0  0  0  0  0
   37.6180   32.6530   41.2660 H   0  0  0  0  0  0  0  0  0  0  0  0
   37.5070   30.2590   41.3970 H   0  0  0  0  0  0  0  0  0  0  0  0
   36.9750   26.5660   41.0550 C   0  0  0  0  0  0  0  0  0  0  0  0
   37.1910   27.9410   40.8920 C   0  0  0  0  0  0  0  0  0  0  0  0
   37.0580   28.5080   39.6380 C   0  0  0  0  0  0  0  0  0  0  0  0
   36.7170   27.6930   38.6220 N   0  0  0  0  0  0  0  0  0  0  0  0
   36.5070   26.3610   38.7780 C   0  0  0  0  0  0  0  0  0  0  0  0
   36.6380   25.8070   40.0020 N   0  0  0  0  0  0  0  0  0  0  0  0
   37.4430   28.4990   41.7530 H   0  0  0  0  0  0  0  0  0  0  0  0
   36.2330   25.7610   37.9080 H   0  0  0  0  0  0  0  0  0  0  0  0
   37.1460   26.0040   42.4240 C   0  0  0  0  0  0  0  0  0  0  0  0
   38.4560   25.9620   42.8170 F   0  0  0  0  0  0  0  0  0  0  0  0
   36.3450   26.7690   43.2910 F   0  0  0  0  0  0  0  0  0  0  0  0
   36.5640   24.7210   42.4730 F   0  0  0  0  0  0  0  0  0  0  0  0
   39.3040   30.8530   40.5160 C   0  0  0  0  0  2  0  0  0  0  0  0
   39.7090   31.0690   41.9990 C   0  0  0  0  0  2  0  0  0  0  0  0
   38.9930   30.4560   42.5790 H   0  0  0  0  0  0  0  0  0  0  0  0
  1 18  1  0  0  0  0
  1  6  1  0  0  0  0
  2  8  1  0  0  0  0
  2  1  1  0  0  0  0
  3  2  1  0  0  0  0
  3  4  1  0  0  0  0
  4 12  1  0  0  0  0
  4  5  1  0  0  0  0
  5 13  1  0  0  0  0
  5 14  1  0  0  0  0
  6  5  1  0  0  0  0
  6 28  1  0  0  0  0
  6 15  1  1  0  0  0
  7  2  1  0  0  0  0
  9  3  1  0  0  0  0
 10  3  1  0  0  0  0
 11  4  1  0  0  0  0
 16 24  1  0  0  0  0
 17 16  1  0  0  0  0
 17 22  1  0  0  0  0
 18 17  2  0  0  0  0
 19 20  2  0  0  0  0
 19 18  1  0  0  0  0
 20 21  1  0  0  0  0
 21 16  2  0  0  0  0
 23 20  1  0  0  0  0
 24 27  1  0  0  0  0
 24 25  1  0  0  0  0
 24 26  1  0  0  0  0
 28 29  1  0  0  0  0
 29 30  1  0  0  0  0
M  END
>  <minimizedAffinity>
-4.74754381

$$$$

 OpenBabel03252503543D

 30 31  0  0  1  0  0  0  0  0999 V2000
   36.8700   26.5980   40.4620 N   0  0  0  0  0  0  0  0  0  0  0  0
   36.6630   25.2090   40.1020 C   0  0  0  0  0  0  0  0  0  0  0  0
   36.6670   24.4080   41.3780 C   0  0  0  0  0  0  0  0  0  0  0  0
   37.9950   24.4600   42.0390 C   0  0  0  0  0  0  0  0  0  0  0  0
   38.5740   25.8510   42.0090 C   0  0  0  0  0  0  0  0  0  0  0  0
   37.4900   26.8690   41.6970 C   0  0  2  0  0  0  0  0  0  0  0  0
   35.6550   25.0610   39.6530 H   0  0  0  0  0  0  0  0  0  0  0  0
   37.4640   24.8200   39.4460 H   0  0  0  0  0  0  0  0  0  0  0  0
   36.5680   23.3170   40.9870 H   0  0  0  0  0  0  0  0  0  0  0  0
   35.7690   24.4910   41.9900 H   0  0  0  0  0  0  0  0  0  0  0  0
   38.6810   23.7480   41.5180 H   0  0  0  0  0  0  0  0  0  0  0  0
   37.9040   24.1820   43.1160 H   0  0  0  0  0  0  0  0  0  0  0  0
   39.3310   25.9440   41.1760 H   0  0  0  0  0  0  0  0  0  0  0  0
   39.0780   26.1480   42.9440 H   0  0  0  0  0  0  0  0  0  0  0  0
   38.1140   27.8150   41.5100 H   0  0  0  0  0  0  0  0  0  0  0  0
   36.6370   29.8850   38.7610 C   0  0  0  0  0  0  0  0  0  0  0  0
   37.0460   28.8950   39.6640 C   0  0  0  0  0  0  0  0  0  0  0  0
   36.4950   27.6290   39.5860 C   0  0  0  0  0  0  0  0  0  0  0  0
   35.5780   27.4120   38.6240 N   0  0  0  0  0  0  0  0  0  0  0  0
   35.1810   28.3680   37.7480 C   0  0  0  0  0  0  0  0  0  0  0  0
   35.7180   29.6050   37.8250 N   0  0  0  0  0  0  0  0  0  0  0  0
   37.7800   29.1600   40.3760 H   0  0  0  0  0  0  0  0  0  0  0  0
   34.4320   28.1200   36.9930 H   0  0  0  0  0  0  0  0  0  0  0  0
   37.2520   31.2340   38.8990 C   0  0  0  0  0  0  0  0  0  0  0  0
   37.2870   31.9210   37.7160 F   0  0  0  0  0  0  0  0  0  0  0  0
   36.5390   31.9160   39.9010 F   0  0  0  0  0  0  0  0  0  0  0  0
   38.5460   31.1000   39.4410 F   0  0  0  0  0  0  0  0  0  0  0  0
   36.7080   27.1630   42.9100 C   0  0  0  0  0  2  0  0  0  0  0  0
   37.3280   28.3610   43.6800 C   0  0  0  0  0  2  0  0  0  0  0  0
   37.7180   29.0320   42.8900 H   0  0  0  0  0  0  0  0  0  0  0  0
  1  6  1  0  0  0  0
  2  1  1  0  0  0  0
  2  3  1  0  0  0  0
  3 10  1  0  0  0  0
  3  4  1  0  0  0  0
  4 12  1  0  0  0  0
  5  4  1  0  0  0  0
  5 14  1  0  0  0  0
  6 15  1  6  0  0  0
  6  5  1  0  0  0  0
  6 28  1  0  0  0  0
  7  2  1  0  0  0  0
  8  2  1  0  0  0  0
  9  3  1  0  0  0  0
 11  4  1  0  0  0  0
 13  5  1  0  0  0  0
 16 24  1  0  0  0  0
 16 17  1  0  0  0  0
 17 22  1  0  0  0  0
 18 17  2  0  0  0  0
 18  1  1  0  0  0  0
 19 18  1  0  0  0  0
 20 21  1  0  0  0  0
 20 19  2  0  0  0  0
 21 16  2  0  0  0  0
 23 20  1  0  0  0  0
 24 27  1  0  0  0  0
 24 26  1  0  0  0  0
 25 24  1  0  0  0  0
 28 29  1  0  0  0  0
 30 29  1  0  0  0  0
M  END
>  <minimizedAffinity>
-4.74143171

$$$$

 OpenBabel03252503543D

 30 31  0  0  1  0  0  0  0  0999 V2000
   37.6280   28.5020   41.4580 N   0  0  0  0  0  0  0  0  0  0  0  0
   36.9040   27.4990   42.2160 C   0  0  0  0  0  0  0  0  0  0  0  0
   37.4320   27.5330   43.6260 C   0  0  0  0  0  0  0  0  0  0  0  0
   38.8580   27.1220   43.6740 C   0  0  0  0  0  0  0  0  0  0  0  0
   39.6490   27.7380   42.5480 C   0  0  0  0  0  0  0  0  0  0  0  0
   38.8870   28.9050   41.9440 C   0  0  2  0  0  0  0  0  0  0  0  0
   35.8240   27.7600   42.2880 H   0  0  0  0  0  0  0  0  0  0  0  0
   37.0520   26.4800   41.8140 H   0  0  0  0  0  0  0  0  0  0  0  0
   36.8510   26.6590   44.1290 H   0  0  0  0  0  0  0  0  0  0  0  0
   37.1040   28.3760   44.2330 H   0  0  0  0  0  0  0  0  0  0  0  0
   38.9110   26.0070   43.6150 H   0  0  0  0  0  0  0  0  0  0  0  0
   39.3320   27.4770   44.6200 H   0  0  0  0  0  0  0  0  0  0  0  0
   39.7850   26.9930   41.7110 H   0  0  0  0  0  0  0  0  0  0  0  0
   40.6530   28.0860   42.8430 H   0  0  0  0  0  0  0  0  0  0  0  0
   39.5090   29.1170   41.0010 H   0  0  0  0  0  0  0  0  0  0  0  0
   37.0510   30.6250   38.4740 C   0  0  0  0  0  0  0  0  0  0  0  0
   37.6160   30.1550   39.6670 C   0  0  0  0  0  0  0  0  0  0  0  0
   37.0990   29.0200   40.2660 C   0  0  0  0  0  0  0  0  0  0  0  0
   36.0620   28.4160   39.6560 N   0  0  0  0  0  0  0  0  0  0  0  0
   35.5130   28.8690   38.5010 C   0  0  0  0  0  0  0  0  0  0  0  0
   36.0170   29.9770   37.9170 N   0  0  0  0  0  0  0  0  0  0  0  0
   38.4350   30.6920   40.0620 H   0  0  0  0  0  0  0  0  0  0  0  0
   34.6730   28.3270   38.0630 H   0  0  0  0  0  0  0  0  0  0  0  0
   37.6370   31.8590   37.8790 C   0  0  0  0  0  0  0  0  0  0  0  0
   37.5200   31.8930   36.5160 F   0  0  0  0  0  0  0  0  0  0  0  0
   37.0180   32.9560   38.5040 F   0  0  0  0  0  0  0  0  0  0  0  0
   38.9860   31.9660   38.2720 F   0  0  0  0  0  0  0  0  0  0  0  0
   39.0490   30.1040   42.7830 C   0  0  0  0  0  2  0  0  0  0  0  0
   40.2770   30.9320   42.3190 C   0  0  0  0  0  2  0  0  0  0  0  0
   40.2990   30.8120   41.2190 H   0  0  0  0  0  0  0  0  0  0  0  0
  1  6  1  0  0  0  0
  1  2  1  0  0  0  0
  2  7  1  0  0  0  0
  2  3  1  0  0  0  0
  3  4  1  0  0  0  0
  3  9  1  0  0  0  0
  3 10  1  0  0  0  0
  4 12  1  0  0  0  0
  5 14  1  0  0  0  0
  5  4  1  0  0  0  0
  6 15  1  6  0  0  0
  6  5  1  0  0  0  0
  6 28  1  0  0  0  0
  8  2  1  0  0  0  0
 11  4  1  0  0  0  0
 13  5  1  0  0  0  0
 16 17  1  0  0  0  0
 17 22  1  0  0  0  0
 17 18  2  0  0  0  0
 18  1  1  0  0  0  0
 19 18  1  0  0  0  0
 20 19  2  0  0  0  0
 21 16  2  0  0  0  0
 21 20  1  0  0  0  0
 23 20  1  0  0  0  0
 24 27  1  0  0  0  0
 24 16  1  0  0  0  0
 24 26  1  0  0  0  0
 25 24  1  0  0  0  0
 29 28  1  0  0  0  0
 30 29  1  0  0  0  0
M  END
>  <minimizedAffinity>
-4.72709942

$$$$

 OpenBabel03252503543D

 30 31  0  0  1  0  0  0  0  0999 V2000
   37.7450   28.2090   41.0450 N   0  0  0  0  0  0  0  0  0  0  0  0
   38.8220   28.9020   41.7250 C   0  0  0  0  0  0  0  0  0  0  0  0
   39.5170   27.8990   42.6080 C   0  0  0  0  0  0  0  0  0  0  0  0
   38.6120   27.4110   43.6790 C   0  0  0  0  0  0  0  0  0  0  0  0
   37.2270   27.1340   43.1500 C   0  0  0  0  0  0  0  0  0  0  0  0
   37.2520   27.0290   41.6350 C   0  0  2  0  0  0  0  0  0  0  0  0
   39.5900   29.2510   40.9980 H   0  0  0  0  0  0  0  0  0  0  0  0
   38.4550   29.7290   42.3610 H   0  0  0  0  0  0  0  0  0  0  0  0
   40.3050   28.5550   43.1560 H   0  0  0  0  0  0  0  0  0  0  0  0
   40.1600   27.1850   42.0960 H   0  0  0  0  0  0  0  0  0  0  0  0
   38.5660   28.1820   44.4870 H   0  0  0  0  0  0  0  0  0  0  0  0
   38.9870   26.4460   44.0950 H   0  0  0  0  0  0  0  0  0  0  0  0
   36.5370   27.9950   43.3880 H   0  0  0  0  0  0  0  0  0  0  0  0
   36.7650   26.2210   43.5600 H   0  0  0  0  0  0  0  0  0  0  0  0
   36.1290   27.0270   41.3900 H   0  0  0  0  0  0  0  0  0  0  0  0
   35.3770   29.0620   38.3230 C   0  0  0  0  0  0  0  0  0  0  0  0
   35.8720   28.5210   39.5160 C   0  0  0  0  0  0  0  0  0  0  0  0
   37.1970   28.7230   39.8600 C   0  0  0  0  0  0  0  0  0  0  0  0
   37.9530   29.4470   39.0120 N   0  0  0  0  0  0  0  0  0  0  0  0
   37.4750   29.9720   37.8560 C   0  0  0  0  0  0  0  0  0  0  0  0
   36.1830   29.7730   37.5200 N   0  0  0  0  0  0  0  0  0  0  0  0
   35.1970   27.9780   40.1210 H   0  0  0  0  0  0  0  0  0  0  0  0
   38.1470   30.5480   37.2160 H   0  0  0  0  0  0  0  0  0  0  0  0
   33.9480   28.8020   37.9940 C   0  0  0  0  0  0  0  0  0  0  0  0
   33.0990   29.1730   39.0010 F   0  0  0  0  0  0  0  0  0  0  0  0
   33.6730   29.4610   36.7830 F   0  0  0  0  0  0  0  0  0  0  0  0
   33.7870   27.4380   37.6780 F   0  0  0  0  0  0  0  0  0  0  0  0
   37.7310   25.6980   41.2280 C   0  0  0  0  0  2  0  0  0  0  0  0
   36.8520   24.5850   41.8610 C   0  0  0  0  0  2  0  0  0  0  0  0
   35.8300   25.0100   41.8810 H   0  0  0  0  0  0  0  0  0  0  0  0
  1  6  1  0  0  0  0
  1  2  1  0  0  0  0
  2  8  1  0  0  0  0
  2  3  1  0  0  0  0
  3  9  1  0  0  0  0
  3  4  1  0  0  0  0
  4 12  1  0  0  0  0
  4 11  1  0  0  0  0
  5 13  1  0  0  0  0
  5 14  1  0  0  0  0
  5  4  1  0  0  0  0
  6 15  1  6  0  0  0
  6  5  1  0  0  0  0
  7  2  1  0  0  0  0
 10  3  1  0  0  0  0
 16 17  1  0  0  0  0
 17 18  2  0  0  0  0
 17 22  1  0  0  0  0
 18  1  1  0  0  0  0
 19 18  1  0  0  0  0
 20 19  2  0  0  0  0
 21 20  1  0  0  0  0
 21 16  2  0  0  0  0
 23 20  1  0  0  0  0
 24 16  1  0  0  0  0
 24 25  1  0  0  0  0
 26 24  1  0  0  0  0
 27 24  1  0  0  0  0
 28  6  1  0  0  0  0
 28 29  1  0  0  0  0
 29 30  1  0  0  0  0
M  END
>  <minimizedAffinity>
-4.69947577

$$$$

 OpenBabel03252503543D

 30 31  0  0  1  0  0  0  0  0999 V2000
   37.5630   28.5790   41.3250 N   0  0  0  0  0  0  0  0  0  0  0  0
   36.8060   27.6580   42.1510 C   0  0  0  0  0  0  0  0  0  0  0  0
   37.3090   27.8020   43.5630 C   0  0  0  0  0  0  0  0  0  0  0  0
   38.7250   27.3700   43.6730 C   0  0  0  0  0  0  0  0  0  0  0  0
   39.5480   27.8720   42.5150 C   0  0  0  0  0  0  0  0  0  0  0  0
   38.8210   28.9980   41.7990 C   0  0  2  0  0  0  0  0  0  0  0  0
   35.7300   27.9450   42.1800 H   0  0  0  0  0  0  0  0  0  0  0  0
   36.9400   26.6060   41.8400 H   0  0  0  0  0  0  0  0  0  0  0  0
   36.7010   26.9850   44.1270 H   0  0  0  0  0  0  0  0  0  0  0  0
   36.9890   28.6990   44.0900 H   0  0  0  0  0  0  0  0  0  0  0  0
   38.7570   26.2530   43.7100 H   0  0  0  0  0  0  0  0  0  0  0  0
   39.1900   27.7940   44.5950 H   0  0  0  0  0  0  0  0  0  0  0  0
   39.6840   27.0560   41.7470 H   0  0  0  0  0  0  0  0  0  0  0  0
   40.5540   28.2250   42.7980 H   0  0  0  0  0  0  0  0  0  0  0  0
   39.4640   29.1170   40.8540 H   0  0  0  0  0  0  0  0  0  0  0  0
   35.3210   29.1970   38.4380 C   0  0  0  0  0  0  0  0  0  0  0  0
   35.7660   28.7450   39.6870 C   0  0  0  0  0  0  0  0  0  0  0  0
   37.0660   29.0030   40.0830 C   0  0  0  0  0  0  0  0  0  0  0  0
   37.8470   29.6920   39.2300 N   0  0  0  0  0  0  0  0  0  0  0  0
   37.4180   30.1310   38.0200 C   0  0  0  0  0  0  0  0  0  0  0  0
   36.1500   29.8770   37.6330 N   0  0  0  0  0  0  0  0  0  0  0  0
   35.0730   28.2230   40.2910 H   0  0  0  0  0  0  0  0  0  0  0  0
   38.1090   30.6840   37.3800 H   0  0  0  0  0  0  0  0  0  0  0  0
   33.9170   28.8780   38.0550 C   0  0  0  0  0  0  0  0  0  0  0  0
   33.0130   29.2380   39.0180 F   0  0  0  0  0  0  0  0  0  0  0  0
   33.6710   29.5030   36.8210 F   0  0  0  0  0  0  0  0  0  0  0  0
   33.8180   27.5030   37.7610 F   0  0  0  0  0  0  0  0  0  0  0  0
   38.9930   30.2600   42.5360 C   0  0  0  0  0  2  0  0  0  0  0  0
   39.9370   31.2200   41.7620 C   0  0  0  0  0  2  0  0  0  0  0  0
   39.7160   31.0310   40.6940 H   0  0  0  0  0  0  0  0  0  0  0  0
  1  6  1  0  0  0  0
  1  2  1  0  0  0  0
  2  7  1  0  0  0  0
  2  3  1  0  0  0  0
  3  4  1  0  0  0  0
  3 10  1  0  0  0  0
  3  9  1  0  0  0  0
  4 11  1  0  0  0  0
  4 12  1  0  0  0  0
  5 14  1  0  0  0  0
  5  4  1  0  0  0  0
  6 15  1  6  0  0  0
  6  5  1  0  0  0  0
  6 28  1  0  0  0  0
  8  2  1  0  0  0  0
 13  5  1  0  0  0  0
 16 17  1  0  0  0  0
 17 18  2  0  0  0  0
 17 22  1  0  0  0  0
 18  1  1  0  0  0  0
 19 18  1  0  0  0  0
 20 19  2  0  0  0  0
 21 20  1  0  0  0  0
 21 16  2  0  0  0  0
 23 20  1  0  0  0  0
 24 16  1  0  0  0  0
 24 25  1  0  0  0  0
 26 24  1  0  0  0  0
 27 24  1  0  0  0  0
 29 28  1  0  0  0  0
 30 29  1  0  0  0  0
M  END
>  <minimizedAffinity>
-4.67068529

$$$$

 OpenBabel03252503543D

 30 31  0  0  1  0  0  0  0  0999 V2000
   37.9000   28.7400   41.0760 N   0  0  0  0  0  0  0  0  0  0  0  0
   36.5330   28.4190   41.4400 C   0  0  0  0  0  0  0  0  0  0  0  0
   36.5760   27.6970   42.7600 C   0  0  0  0  0  0  0  0  0  0  0  0
   37.2750   26.3940   42.6350 C   0  0  0  0  0  0  0  0  0  0  0  0
   38.5170   26.5110   41.7890 C   0  0  0  0  0  0  0  0  0  0  0  0
   38.9270   27.9680   41.6520 C   0  0  2  0  0  0  0  0  0  0  0  0
   35.9420   29.3460   41.6180 H   0  0  0  0  0  0  0  0  0  0  0  0
   36.0440   27.7600   40.6990 H   0  0  0  0  0  0  0  0  0  0  0  0
   35.4580   27.4220   42.9290 H   0  0  0  0  0  0  0  0  0  0  0  0
   36.7710   28.3190   43.6320 H   0  0  0  0  0  0  0  0  0  0  0  0
   36.5720   25.6520   42.1830 H   0  0  0  0  0  0  0  0  0  0  0  0
   37.6130   26.0360   43.6380 H   0  0  0  0  0  0  0  0  0  0  0  0
   38.3130   26.1490   40.7390 H   0  0  0  0  0  0  0  0  0  0  0  0
   39.3770   25.9370   42.1710 H   0  0  0  0  0  0  0  0  0  0  0  0
   39.7340   27.9000   40.8360 H   0  0  0  0  0  0  0  0  0  0  0  0
   38.4690   32.0750   39.5610 C   0  0  0  0  0  0  0  0  0  0  0  0
   38.1820   31.0960   40.5210 C   0  0  0  0  0  0  0  0  0  0  0  0
   38.1760   29.7630   40.1550 C   0  0  0  0  0  0  0  0  0  0  0  0
   38.4540   29.4720   38.8700 N   0  0  0  0  0  0  0  0  0  0  0  0
   38.7320   30.4190   37.9390 C   0  0  0  0  0  0  0  0  0  0  0  0
   38.7380   31.7210   38.2960 N   0  0  0  0  0  0  0  0  0  0  0  0
   37.9880   31.4240   41.5070 H   0  0  0  0  0  0  0  0  0  0  0  0
   38.9490   30.1090   36.9140 H   0  0  0  0  0  0  0  0  0  0  0  0
   38.4480   33.4970   40.0060 C   0  0  0  0  0  0  0  0  0  0  0  0
   37.2950   34.1430   39.6530 F   0  0  0  0  0  0  0  0  0  0  0  0
   38.6690   33.5020   41.3940 F   0  0  0  0  0  0  0  0  0  0  0  0
   39.5770   34.1610   39.4840 F   0  0  0  0  0  0  0  0  0  0  0  0
   39.6450   28.4070   42.8600 C   0  0  0  0  0  2  0  0  0  0  0  0
   41.0210   29.0220   42.4830 C   0  0  0  0  0  2  0  0  0  0  0  0
   40.8450   29.5370   41.5190 H   0  0  0  0  0  0  0  0  0  0  0  0
  1  2  1  0  0  0  0
  1  6  1  0  0  0  0
  2  7  1  0  0  0  0
  2  3  1  0  0  0  0
  3  9  1  0  0  0  0
  3 10  1  0  0  0  0
  4  3  1  0  0  0  0
  4 12  1  0  0  0  0
  5 14  1  0  0  0  0
  5  4  1  0  0  0  0
  6 15  1  6  0  0  0
  6  5  1  0  0  0  0
  6 28  1  0  0  0  0
  8  2  1  0  0  0  0
 11  4  1  0  0  0  0
 13  5  1  0  0  0  0
 16 24  1  0  0  0  0
 16 17  1  0  0  0  0
 17 22  1  0  0  0  0
 18 17  2  0  0  0  0
 18  1  1  0  0  0  0
 19 18  1  0  0  0  0
 20 21  1  0  0  0  0
 20 19  2  0  0  0  0
 21 16  2  0  0  0  0
 23 20  1  0  0  0  0
 24 26  1  0  0  0  0
 25 24  1  0  0  0  0
 27 24  1  0  0  0  0
 29 28  1  0  0  0  0
 30 29  1  0  0  0  0
M  END
>  <minimizedAffinity>
-4.64273596

$$$$
