
 OpenBabel03252506553D

 32 35  0  0  0  0  0  0  0  0999 V2000
   47.3950   31.3620   45.2410 C   0  0  0  0  0  0  0  0  0  0  0  0
   46.9160   32.6570   45.1170 C   0  0  0  0  0  0  0  0  0  0  0  0
   46.2080   33.2840   46.1330 C   0  0  0  0  0  0  0  0  0  0  0  0
   45.9560   32.6180   47.3240 C   0  0  0  0  0  0  0  0  0  0  0  0
   45.3190   32.9110   48.4920 N   0  0  0  0  0  0  0  0  0  0  0  0
   45.4030   31.8310   49.3060 C   0  0  0  0  0  0  0  0  0  0  0  0
   46.0970   30.8770   48.6290 N   0  0  0  0  0  0  0  0  0  0  0  0
   46.4450   31.3400   47.4090 C   0  0  0  0  0  0  0  0  0  0  0  0
   47.1410   30.6910   46.4400 C   0  0  0  0  0  0  0  0  0  0  0  0
   47.9440   30.8920   44.4380 H   0  0  0  0  0  0  0  0  0  0  0  0
   45.8390   34.2880   46.0320 H   0  0  0  0  0  0  0  0  0  0  0  0
   44.8660   33.8540   48.6350 H   0  0  0  0  0  0  0  0  0  0  0  0
   44.9690   31.8170   50.3000 H   0  0  0  0  0  0  0  0  0  0  0  0
   46.5910   35.0980   42.3950 C   0  0  0  0  0  0  0  0  0  0  0  0
   47.6410   34.7600   41.5550 C   0  0  0  0  0  0  0  0  0  0  0  0
   48.4620   33.6940   41.9230 C   0  0  0  0  0  0  0  0  0  0  0  0
   48.1850   33.0400   43.0910 N   0  0  0  0  0  0  0  0  0  0  0  0
   47.1570   33.3920   43.8890 C   0  0  0  0  0  0  0  0  0  0  0  0
   46.3570   34.4180   43.5470 N   0  0  0  0  0  0  0  0  0  0  0  0
   45.9690   35.9360   42.0800 H   0  0  0  0  0  0  0  0  0  0  0  0
   47.8600   35.2780   40.6290 H   0  0  0  0  0  0  0  0  0  0  0  0
   49.2700   33.4240   41.2870 H   0  0  0  0  0  0  0  0  0  0  0  0
   47.6200   29.3150   46.6410 C   0  0  0  0  0  0  0  0  0  0  0  0
   48.9530   28.9360   46.6260 C   0  0  0  0  0  0  0  0  0  0  0  0
   48.9250   27.5620   46.8560 C   0  0  0  0  0  0  0  0  0  0  0  0
   47.6010   27.1870   46.9970 C   0  0  0  0  0  0  0  0  0  0  0  0
   46.8670   28.2800   46.8580 O   0  0  0  0  0  0  0  0  0  0  0  0
   49.7740   29.6040   46.4650 H   0  0  0  0  0  0  0  0  0  0  0  0
   49.8010   26.9310   46.9100 H   0  0  0  0  0  0  0  0  0  0  0  0
   47.0670   25.8330   47.2540 C   0  0  0  0  0  0  0  0  0  0  0  0
   47.4900   25.3390   48.6450 C   0  0  0  0  0  0  0  0  0  0  0  0
   47.3580   26.2070   49.3560 H   0  0  0  0  0  0  0  0  0  0  0  0
  1  9  1  0  0  0  0
  2  1  2  0  0  0  0
  2  3  1  0  0  0  0
  3  4  2  0  0  0  0
  4  8  1  0  0  0  0
  4  5  1  0  0  0  0
  5 12  1  0  0  0  0
  5  6  1  0  0  0  0
  6 13  1  0  0  0  0
  7  6  2  0  0  0  0
  8  7  1  0  0  0  0
  9 23  1  0  0  0  0
  9  8  2  0  0  0  0
 10  1  1  0  0  0  0
 11  3  1  0  0  0  0
 14 19  1  0  0  0  0
 15 16  1  0  0  0  0
 15 14  2  0  0  0  0
 16 17  2  0  0  0  0
 17 18  1  0  0  0  0
 18  2  1  0  0  0  0
 19 18  2  0  0  0  0
 20 14  1  0  0  0  0
 21 15  1  0  0  0  0
 22 16  1  0  0  0  0
 23 27  1  0  0  0  0
 24 23  2  0  0  0  0
 24 25  1  0  0  0  0
 25 29  1  0  0  0  0
 25 26  2  0  0  0  0
 26 30  1  0  0  0  0
 27 26  1  0  0  0  0
 28 24  1  0  0  0  0
 30 31  1  0  0  0  0
 31 32  1  0  0  0  0
M  END
>  <minimizedAffinity>
-5.18218946

>  <minimizedRMSD>
0.455226898

$$$$
