
 OpenBabel03252507293D

 37 39  0  0  1  0  0  0  0  0999 V2000
   37.5140   26.3570   40.2180 C   0  0  2  0  0  0  0  0  0  0  0  0
   36.5620   25.1910   40.1270 C   0  0  0  0  0  0  0  0  0  0  0  0
   37.3400   23.9400   40.4840 C   0  0  0  0  0  0  0  0  0  0  0  0
   38.2090   24.0260   41.6810 C   0  0  0  0  0  0  0  0  0  0  0  0
   38.9320   25.3090   41.8430 C   0  0  0  0  0  0  0  0  0  0  0  0
   37.9560   26.4740   41.6250 C   0  0  2  0  0  0  0  0  0  0  0  0
   38.3860   26.0500   39.5700 H   0  0  0  0  0  0  0  0  0  0  0  0
   35.6300   25.2940   40.6650 H   0  0  0  0  0  0  0  0  0  0  0  0
   36.2860   25.0860   39.0490 H   0  0  0  0  0  0  0  0  0  0  0  0
   36.6860   23.0400   40.5620 H   0  0  0  0  0  0  0  0  0  0  0  0
   37.9860   23.7180   39.5840 H   0  0  0  0  0  0  0  0  0  0  0  0
   39.0330   23.2600   41.5150 H   0  0  0  0  0  0  0  0  0  0  0  0
   37.7480   23.6200   42.6290 H   0  0  0  0  0  0  0  0  0  0  0  0
   39.8180   25.3830   41.2160 H   0  0  0  0  0  0  0  0  0  0  0  0
   39.2450   25.3920   42.9230 H   0  0  0  0  0  0  0  0  0  0  0  0
   38.6910   27.2830   41.8230 H   0  0  0  0  0  0  0  0  0  0  0  0
   36.9970   27.5970   39.6550 C   0  0  0  0  0  0  0  0  0  0  0  0
   35.9710   27.5220   38.7150 C   0  0  0  0  0  0  0  0  0  0  0  0
   35.4940   28.7130   38.1510 C   0  0  0  0  0  0  0  0  0  0  0  0
   36.0700   29.8920   38.5600 N   0  0  0  0  0  0  0  0  0  0  0  0
   37.0650   29.8960   39.4790 C   0  0  0  0  0  0  0  0  0  0  0  0
   37.5350   28.7800   40.0280 N   0  0  0  0  0  0  0  0  0  0  0  0
   35.4810   26.6810   38.3590 H   0  0  0  0  0  0  0  0  0  0  0  0
   34.7090   28.7540   37.4230 H   0  0  0  0  0  0  0  0  0  0  0  0
   37.6290   31.1930   39.8660 C   0  0  0  0  0  0  0  0  0  0  0  0
   37.0960   32.3600   39.3580 C   0  0  0  0  0  0  0  0  0  0  0  0
   37.5510   33.6280   39.6500 C   0  0  0  0  0  0  0  0  0  0  0  0
   38.6360   33.6420   40.5350 C   0  0  0  0  0  0  0  0  0  0  0  0
   39.1960   32.4800   41.0660 C   0  0  0  0  0  0  0  0  0  0  0  0
   38.6720   31.2720   40.7130 N   0  0  0  0  0  0  0  0  0  0  0  0
   36.2660   32.2490   38.6860 H   0  0  0  0  0  0  0  0  0  0  0  0
   37.1320   34.5290   39.2510 H   0  0  0  0  0  0  0  0  0  0  0  0
   39.0760   34.5810   40.8370 H   0  0  0  0  0  0  0  0  0  0  0  0
   40.0250   32.5030   41.7420 H   0  0  0  0  0  0  0  0  0  0  0  0
   36.9470   26.2950   42.6890 C   0  0  0  0  0  2  0  0  0  0  0  0
   36.5350   27.4360   43.5220 C   0  0  0  0  0  2  0  0  0  0  0  0
   36.1510   28.3270   43.0190 H   0  0  0  0  0  0  0  0  0  0  0  0
  1  7  1  6  0  0  0
  1  6  1  0  0  0  0
  2  1  1  0  0  0  0
  2  3  1  0  0  0  0
  2  8  1  0  0  0  0
  3 10  1  0  0  0  0
  3  4  1  0  0  0  0
  4  5  1  0  0  0  0
  4 13  1  0  0  0  0
  5 15  1  0  0  0  0
  6 16  1  1  0  0  0
  6  5  1  0  0  0  0
  6 35  1  0  0  0  0
  9  2  1  0  0  0  0
 11  3  1  0  0  0  0
 12  4  1  0  0  0  0
 14  5  1  0  0  0  0
 17 22  1  0  0  0  0
 17  1  1  0  0  0  0
 18 17  2  0  0  0  0
 19 20  2  0  0  0  0
 19 18  1  0  0  0  0
 20 21  1  0  0  0  0
 21 25  1  0  0  0  0
 21 22  2  0  0  0  0
 23 18  1  0  0  0  0
 24 19  1  0  0  0  0
 25 30  1  0  0  0  0
 26 27  1  0  0  0  0
 26 25  2  0  0  0  0
 27 28  2  0  0  0  0
 28 33  1  0  0  0  0
 28 29  1  0  0  0  0
 29 34  1  0  0  0  0
 30 29  2  0  0  0  0
 31 26  1  0  0  0  0
 32 27  1  0  0  0  0
 35 36  1  0  0  0  0
 37 36  1  0  0  0  0
M  END
>  <minimizedAffinity>
-5.40086889

$$$$

 OpenBabel03252507293D

 37 39  0  0  1  0  0  0  0  0999 V2000
   38.1640   31.8150   40.7120 C   0  0  2  0  0  0  0  0  0  0  0  0
   37.4000   32.7960   39.8600 C   0  0  0  0  0  0  0  0  0  0  0  0
   38.0720   34.1470   40.0060 C   0  0  0  0  0  0  0  0  0  0  0  0
   39.5510   34.1590   39.9100 C   0  0  0  0  0  0  0  0  0  0  0  0
   40.2330   33.0180   40.5650 C   0  0  0  0  0  0  0  0  0  0  0  0
   39.5350   31.7100   40.1650 C   0  0  2  0  0  0  0  0  0  0  0  0
   38.1970   32.3040   41.7290 H   0  0  0  0  0  0  0  0  0  0  0  0
   37.2280   32.5030   38.8330 H   0  0  0  0  0  0  0  0  0  0  0  0
   36.3880   32.9030   40.3230 H   0  0  0  0  0  0  0  0  0  0  0  0
   37.6480   34.9110   39.3140 H   0  0  0  0  0  0  0  0  0  0  0  0
   37.7740   34.5230   41.0290 H   0  0  0  0  0  0  0  0  0  0  0  0
   39.8880   35.0660   40.5060 H   0  0  0  0  0  0  0  0  0  0  0  0
   39.9550   34.4290   38.8900 H   0  0  0  0  0  0  0  0  0  0  0  0
   40.3200   33.1330   41.6430 H   0  0  0  0  0  0  0  0  0  0  0  0
   41.2680   32.9400   40.1240 H   0  0  0  0  0  0  0  0  0  0  0  0
   40.2170   31.0360   40.7270 H   0  0  0  0  0  0  0  0  0  0  0  0
   37.4980   30.5320   40.8920 C   0  0  0  0  0  0  0  0  0  0  0  0
   36.1560   30.4250   40.5350 C   0  0  0  0  0  0  0  0  0  0  0  0
   35.5070   29.1990   40.7350 C   0  0  0  0  0  0  0  0  0  0  0  0
   36.2380   28.1680   41.2750 N   0  0  0  0  0  0  0  0  0  0  0  0
   37.5420   28.3370   41.5990 C   0  0  0  0  0  0  0  0  0  0  0  0
   38.1790   29.4900   41.4200 N   0  0  0  0  0  0  0  0  0  0  0  0
   35.5380   31.1470   40.1200 H   0  0  0  0  0  0  0  0  0  0  0  0
   34.4780   29.0240   40.4910 H   0  0  0  0  0  0  0  0  0  0  0  0
   38.2550   27.1900   42.1700 C   0  0  0  0  0  0  0  0  0  0  0  0
   39.2660   27.3880   43.0860 C   0  0  0  0  0  0  0  0  0  0  0  0
   40.0020   26.3830   43.6780 C   0  0  0  0  0  0  0  0  0  0  0  0
   39.6300   25.0990   43.2630 C   0  0  0  0  0  0  0  0  0  0  0  0
   38.6110   24.8670   42.3400 C   0  0  0  0  0  0  0  0  0  0  0  0
   37.9430   25.9310   41.8100 N   0  0  0  0  0  0  0  0  0  0  0  0
   39.4810   28.4080   43.3420 H   0  0  0  0  0  0  0  0  0  0  0  0
   40.7870   26.5460   44.3890 H   0  0  0  0  0  0  0  0  0  0  0  0
   40.1380   24.2330   43.6620 H   0  0  0  0  0  0  0  0  0  0  0  0
   38.3360   23.8800   42.0300 H   0  0  0  0  0  0  0  0  0  0  0  0
   39.6970   31.6550   38.6980 C   0  0  0  0  0  2  0  0  0  0  0  0
   39.7400   30.3580   38.0040 C   0  0  0  0  0  2  0  0  0  0  0  0
   38.9030   29.6700   38.1470 H   0  0  0  0  0  0  0  0  0  0  0  0
  1 17  1  0  0  0  0
  1  7  1  1  0  0  0
  2  3  1  0  0  0  0
  2  9  1  0  0  0  0
  2  1  1  0  0  0  0
  3 11  1  0  0  0  0
  4  3  1  0  0  0  0
  4 12  1  0  0  0  0
  4  5  1  0  0  0  0
  5 14  1  0  0  0  0
  6  5  1  0  0  0  0
  6  1  1  0  0  0  0
  6 16  1  1  0  0  0
  8  2  1  0  0  0  0
 10  3  1  0  0  0  0
 13  4  1  0  0  0  0
 15  5  1  0  0  0  0
 17 22  1  0  0  0  0
 18 19  1  0  0  0  0
 18 17  2  0  0  0  0
 19 20  2  0  0  0  0
 20 21  1  0  0  0  0
 21 25  1  0  0  0  0
 22 21  2  0  0  0  0
 23 18  1  0  0  0  0
 24 19  1  0  0  0  0
 25 26  1  0  0  0  0
 26 31  1  0  0  0  0
 26 27  2  0  0  0  0
 27 32  1  0  0  0  0
 28 33  1  0  0  0  0
 28 27  1  0  0  0  0
 29 28  2  0  0  0  0
 30 25  2  0  0  0  0
 30 29  1  0  0  0  0
 34 29  1  0  0  0  0
 35  6  1  0  0  0  0
 36 37  1  0  0  0  0
 36 35  1  0  0  0  0
M  END
>  <minimizedAffinity>
-5.38816833

$$$$

 OpenBabel03252507293D

 37 39  0  0  1  0  0  0  0  0999 V2000
   38.1710   27.2180   42.3660 C   0  0  2  0  0  0  0  0  0  0  0  0
   39.5840   27.5260   42.7930 C   0  0  0  0  0  0  0  0  0  0  0  0
   40.0490   26.3880   43.6800 C   0  0  0  0  0  0  0  0  0  0  0  0
   39.7600   25.0180   43.1980 C   0  0  0  0  0  0  0  0  0  0  0  0
   38.4350   24.8430   42.5570 C   0  0  0  0  0  0  0  0  0  0  0  0
   38.2000   25.9810   41.5540 C   0  0  2  0  0  0  0  0  0  0  0  0
   37.6280   27.0230   43.3370 H   0  0  0  0  0  0  0  0  0  0  0  0
   40.2780   27.7730   42.0010 H   0  0  0  0  0  0  0  0  0  0  0  0
   39.5310   28.4280   43.4490 H   0  0  0  0  0  0  0  0  0  0  0  0
   41.1290   26.4700   43.9450 H   0  0  0  0  0  0  0  0  0  0  0  0
   39.5240   26.5410   44.6680 H   0  0  0  0  0  0  0  0  0  0  0  0
   39.7070   24.3710   44.1310 H   0  0  0  0  0  0  0  0  0  0  0  0
   40.6170   24.5170   42.6560 H   0  0  0  0  0  0  0  0  0  0  0  0
   37.6230   24.7430   43.2740 H   0  0  0  0  0  0  0  0  0  0  0  0
   38.4800   23.9080   41.9280 H   0  0  0  0  0  0  0  0  0  0  0  0
   37.2090   25.6250   41.2010 H   0  0  0  0  0  0  0  0  0  0  0  0
   37.4830   28.3310   41.7250 C   0  0  0  0  0  0  0  0  0  0  0  0
   36.1610   28.1500   41.3230 C   0  0  0  0  0  0  0  0  0  0  0  0
   35.5080   29.2110   40.6810 C   0  0  0  0  0  0  0  0  0  0  0  0
   36.2140   30.3730   40.4840 N   0  0  0  0  0  0  0  0  0  0  0  0
   37.4970   30.4850   40.9010 C   0  0  0  0  0  0  0  0  0  0  0  0
   38.1390   29.4930   41.5120 N   0  0  0  0  0  0  0  0  0  0  0  0
   35.5600   27.3140   41.4370 H   0  0  0  0  0  0  0  0  0  0  0  0
   34.4940   29.1640   40.3370 H   0  0  0  0  0  0  0  0  0  0  0  0
   38.1840   31.7580   40.6560 C   0  0  0  0  0  0  0  0  0  0  0  0
   37.4830   32.8400   40.1670 C   0  0  0  0  0  0  0  0  0  0  0  0
   38.0290   34.0770   39.8970 C   0  0  0  0  0  0  0  0  0  0  0  0
   39.4010   34.1530   40.1690 C   0  0  0  0  0  0  0  0  0  0  0  0
   40.1360   33.0770   40.6650 C   0  0  0  0  0  0  0  0  0  0  0  0
   39.5010   31.8930   40.8980 N   0  0  0  0  0  0  0  0  0  0  0  0
   36.4360   32.6860   39.9890 H   0  0  0  0  0  0  0  0  0  0  0  0
   37.4780   34.9130   39.5160 H   0  0  0  0  0  0  0  0  0  0  0  0
   39.9370   35.0760   39.9960 H   0  0  0  0  0  0  0  0  0  0  0  0
   41.1840   33.1470   40.8690 H   0  0  0  0  0  0  0  0  0  0  0  0
   39.2910   25.8200   40.5720 C   0  0  0  0  0  2  0  0  0  0  0  0
   39.0920   26.2180   39.1690 C   0  0  0  0  0  2  0  0  0  0  0  0
   38.7790   27.2450   38.9660 H   0  0  0  0  0  0  0  0  0  0  0  0
  1  2  1  0  0  0  0
  1  7  1  1  0  0  0
  2  9  1  0  0  0  0
  2  3  1  0  0  0  0
  3 10  1  0  0  0  0
  3 11  1  0  0  0  0
  4  3  1  0  0  0  0
  4 12  1  0  0  0  0
  5  4  1  0  0  0  0
  5 14  1  0  0  0  0
  6 16  1  6  0  0  0
  6  1  1  0  0  0  0
  6  5  1  0  0  0  0
  8  2  1  0  0  0  0
 13  4  1  0  0  0  0
 15  5  1  0  0  0  0
 17  1  1  0  0  0  0
 18 23  1  0  0  0  0
 18 17  2  0  0  0  0
 19 18  1  0  0  0  0
 20 19  2  0  0  0  0
 20 21  1  0  0  0  0
 21 22  2  0  0  0  0
 22 17  1  0  0  0  0
 24 19  1  0  0  0  0
 25 30  1  0  0  0  0
 25 21  1  0  0  0  0
 26 25  2  0  0  0  0
 27 26  1  0  0  0  0
 27 28  2  0  0  0  0
 28 29  1  0  0  0  0
 29 34  1  0  0  0  0
 29 30  2  0  0  0  0
 31 26  1  0  0  0  0
 32 27  1  0  0  0  0
 33 28  1  0  0  0  0
 35  6  1  0  0  0  0
 36 35  1  0  0  0  0
 37 36  1  0  0  0  0
M  END
>  <minimizedAffinity>
-5.35118341

$$$$

 OpenBabel03252507293D

 37 39  0  0  1  0  0  0  0  0999 V2000
   38.4990   26.5560   41.1340 C   0  0  2  0  0  0  0  0  0  0  0  0
   37.3610   26.6480   40.1490 C   0  0  0  0  0  0  0  0  0  0  0  0
   36.9300   25.2330   39.8200 C   0  0  0  0  0  0  0  0  0  0  0  0
   36.7730   24.3090   40.9670 C   0  0  0  0  0  0  0  0  0  0  0  0
   37.7960   24.4460   42.0300 C   0  0  0  0  0  0  0  0  0  0  0  0
   37.9800   25.9310   42.3710 C   0  0  2  0  0  0  0  0  0  0  0  0
   39.2360   25.8600   40.6370 H   0  0  0  0  0  0  0  0  0  0  0  0
   36.5440   27.3000   40.4250 H   0  0  0  0  0  0  0  0  0  0  0  0
   37.7880   27.0690   39.2060 H   0  0  0  0  0  0  0  0  0  0  0  0
   36.0110   25.2040   39.1900 H   0  0  0  0  0  0  0  0  0  0  0  0
   37.7310   24.8240   39.1350 H   0  0  0  0  0  0  0  0  0  0  0  0
   36.9440   23.2670   40.5460 H   0  0  0  0  0  0  0  0  0  0  0  0
   35.7120   24.2000   41.3430 H   0  0  0  0  0  0  0  0  0  0  0  0
   38.7350   23.9540   41.7850 H   0  0  0  0  0  0  0  0  0  0  0  0
   37.3780   23.9830   42.9690 H   0  0  0  0  0  0  0  0  0  0  0  0
   38.7330   25.7760   43.1730 H   0  0  0  0  0  0  0  0  0  0  0  0
   39.2030   27.8120   41.3560 C   0  0  0  0  0  0  0  0  0  0  0  0
   40.4090   27.7830   42.0520 C   0  0  0  0  0  0  0  0  0  0  0  0
   41.0730   28.9940   42.2900 C   0  0  0  0  0  0  0  0  0  0  0  0
   40.4900   30.1470   41.8210 N   0  0  0  0  0  0  0  0  0  0  0  0
   39.3150   30.1060   41.1490 C   0  0  0  0  0  0  0  0  0  0  0  0
   38.6660   28.9700   40.9110 N   0  0  0  0  0  0  0  0  0  0  0  0
   40.9160   26.9630   42.4330 H   0  0  0  0  0  0  0  0  0  0  0  0
   42.0030   29.0690   42.8160 H   0  0  0  0  0  0  0  0  0  0  0  0
   38.7570   31.3780   40.6780 C   0  0  0  0  0  0  0  0  0  0  0  0
   37.7030   31.3860   39.7870 C   0  0  0  0  0  0  0  0  0  0  0  0
   37.1090   32.5210   39.2790 C   0  0  0  0  0  0  0  0  0  0  0  0
   37.6770   33.7100   39.7530 C   0  0  0  0  0  0  0  0  0  0  0  0
   38.7410   33.7340   40.6530 C   0  0  0  0  0  0  0  0  0  0  0  0
   39.2600   32.5540   41.0970 N   0  0  0  0  0  0  0  0  0  0  0  0
   37.3360   30.4260   39.4800 H   0  0  0  0  0  0  0  0  0  0  0  0
   36.2910   32.5190   38.5860 H   0  0  0  0  0  0  0  0  0  0  0  0
   37.2910   34.6640   39.4220 H   0  0  0  0  0  0  0  0  0  0  0  0
   39.1670   34.6500   41.0090 H   0  0  0  0  0  0  0  0  0  0  0  0
   36.6500   26.3510   42.8580 C   0  0  0  0  0  2  0  0  0  0  0  0
   36.5080   27.5690   43.6720 C   0  0  0  0  0  2  0  0  0  0  0  0
   36.8860   28.5080   43.2620 H   0  0  0  0  0  0  0  0  0  0  0  0
  1  7  1  6  0  0  0
  1 17  1  0  0  0  0
  1  6  1  0  0  0  0
  2  8  1  0  0  0  0
  2  1  1  0  0  0  0
  3  2  1  0  0  0  0
  3  4  1  0  0  0  0
  4 13  1  0  0  0  0
  4  5  1  0  0  0  0
  5  6  1  0  0  0  0
  5 15  1  0  0  0  0
  6 35  1  0  0  0  0
  6 16  1  1  0  0  0
  9  2  1  0  0  0  0
 10  3  1  0  0  0  0
 11  3  1  0  0  0  0
 12  4  1  0  0  0  0
 14  5  1  0  0  0  0
 17 18  1  0  0  0  0
 18 19  2  0  0  0  0
 18 23  1  0  0  0  0
 19 24  1  0  0  0  0
 20 19  1  0  0  0  0
 21 20  2  0  0  0  0
 22 21  1  0  0  0  0
 22 17  2  0  0  0  0
 25 30  1  0  0  0  0
 25 21  1  0  0  0  0
 26 25  2  0  0  0  0
 27 28  2  0  0  0  0
 27 26  1  0  0  0  0
 28 29  1  0  0  0  0
 29 34  1  0  0  0  0
 29 30  2  0  0  0  0
 31 26  1  0  0  0  0
 32 27  1  0  0  0  0
 33 28  1  0  0  0  0
 35 36  1  0  0  0  0
 37 36  1  0  0  0  0
M  END
>  <minimizedAffinity>
-5.25489092

$$$$

 OpenBabel03252507293D

 37 39  0  0  1  0  0  0  0  0999 V2000
   37.0450   25.9330   40.6650 C   0  0  2  0  0  0  0  0  0  0  0  0
   36.6930   24.6890   41.4400 C   0  0  0  0  0  0  0  0  0  0  0  0
   36.1940   23.6600   40.4460 C   0  0  0  0  0  0  0  0  0  0  0  0
   36.9960   23.4960   39.2110 C   0  0  0  0  0  0  0  0  0  0  0  0
   37.5250   24.7530   38.6340 C   0  0  0  0  0  0  0  0  0  0  0  0
   38.1580   25.5990   39.7490 C   0  0  2  0  0  0  0  0  0  0  0  0
   36.1140   26.1550   40.0670 H   0  0  0  0  0  0  0  0  0  0  0  0
   37.4540   24.3140   42.1110 H   0  0  0  0  0  0  0  0  0  0  0  0
   35.8170   24.9490   42.0830 H   0  0  0  0  0  0  0  0  0  0  0  0
   36.0250   22.6620   40.9150 H   0  0  0  0  0  0  0  0  0  0  0  0
   35.1540   23.9950   40.1600 H   0  0  0  0  0  0  0  0  0  0  0  0
   36.2690   23.1110   38.4250 H   0  0  0  0  0  0  0  0  0  0  0  0
   37.7330   22.6400   39.2360 H   0  0  0  0  0  0  0  0  0  0  0  0
   36.7850   25.3060   38.0590 H   0  0  0  0  0  0  0  0  0  0  0  0
   38.3840   24.4830   37.9540 H   0  0  0  0  0  0  0  0  0  0  0  0
   38.4940   26.4290   39.0920 H   0  0  0  0  0  0  0  0  0  0  0  0
   37.2930   27.1060   41.4940 C   0  0  0  0  0  0  0  0  0  0  0  0
   37.3410   26.9430   42.8760 C   0  0  0  0  0  0  0  0  0  0  0  0
   37.5500   28.0750   43.6760 C   0  0  0  0  0  0  0  0  0  0  0  0
   37.6960   29.2860   43.0440 N   0  0  0  0  0  0  0  0  0  0  0  0
   37.6400   29.3770   41.6940 C   0  0  0  0  0  0  0  0  0  0  0  0
   37.4420   28.3180   40.9140 N   0  0  0  0  0  0  0  0  0  0  0  0
   37.2470   26.0700   43.4280 H   0  0  0  0  0  0  0  0  0  0  0  0
   37.6020   28.0460   44.7460 H   0  0  0  0  0  0  0  0  0  0  0  0
   37.8060   30.7050   41.0940 C   0  0  0  0  0  0  0  0  0  0  0  0
   36.8850   31.1720   40.1790 C   0  0  0  0  0  0  0  0  0  0  0  0
   36.9480   32.3990   39.5530 C   0  0  0  0  0  0  0  0  0  0  0  0
   38.0590   33.1620   39.9300 C   0  0  0  0  0  0  0  0  0  0  0  0
   39.0060   32.7180   40.8520 C   0  0  0  0  0  0  0  0  0  0  0  0
   38.8530   31.4860   41.4160 N   0  0  0  0  0  0  0  0  0  0  0  0
   36.0670   30.5150   39.9520 H   0  0  0  0  0  0  0  0  0  0  0  0
   36.2290   32.7540   38.8430 H   0  0  0  0  0  0  0  0  0  0  0  0
   38.2120   34.1440   39.5040 H   0  0  0  0  0  0  0  0  0  0  0  0
   39.8520   33.3110   41.1330 H   0  0  0  0  0  0  0  0  0  0  0  0
   39.2500   24.7480   40.2630 C   0  0  0  0  0  2  0  0  0  0  0  0
   40.4790   25.3590   40.7950 C   0  0  0  0  0  2  0  0  0  0  0  0
   40.3820   26.0860   41.6050 H   0  0  0  0  0  0  0  0  0  0  0  0
  1  7  1  6  0  0  0
  1  2  1  0  0  0  0
  1 17  1  0  0  0  0
  2  9  1  0  0  0  0
  2  8  1  0  0  0  0
  3 10  1  0  0  0  0
  3  2  1  0  0  0  0
  4 13  1  0  0  0  0
  4  3  1  0  0  0  0
  5  4  1  0  0  0  0
  5  6  1  0  0  0  0
  6 16  1  6  0  0  0
  6 35  1  0  0  0  0
  6  1  1  0  0  0  0
 11  3  1  0  0  0  0
 12  4  1  0  0  0  0
 14  5  1  0  0  0  0
 15  5  1  0  0  0  0
 17 18  1  0  0  0  0
 18 23  1  0  0  0  0
 18 19  2  0  0  0  0
 19 24  1  0  0  0  0
 20 19  1  0  0  0  0
 21 20  2  0  0  0  0
 22 17  2  0  0  0  0
 22 21  1  0  0  0  0
 25 30  1  0  0  0  0
 25 21  1  0  0  0  0
 26 25  2  0  0  0  0
 27 28  2  0  0  0  0
 27 26  1  0  0  0  0
 28 29  1  0  0  0  0
 29 34  1  0  0  0  0
 29 30  2  0  0  0  0
 31 26  1  0  0  0  0
 32 27  1  0  0  0  0
 33 28  1  0  0  0  0
 35 36  1  0  0  0  0
 36 37  1  0  0  0  0
M  END
>  <minimizedAffinity>
-5.210742

$$$$

 OpenBabel03252507293D

 37 39  0  0  1  0  0  0  0  0999 V2000
   36.9860   25.5560   41.1660 C   0  0  2  0  0  0  0  0  0  0  0  0
   38.1830   24.6620   41.3640 C   0  0  0  0  0  0  0  0  0  0  0  0
   37.7480   23.2440   41.0540 C   0  0  0  0  0  0  0  0  0  0  0  0
   36.9460   23.0560   39.8230 C   0  0  0  0  0  0  0  0  0  0  0  0
   35.9460   24.1150   39.5560 C   0  0  0  0  0  0  0  0  0  0  0  0
   36.6010   25.4920   39.7390 C   0  0  2  0  0  0  0  0  0  0  0  0
   36.1810   25.0790   41.7980 H   0  0  0  0  0  0  0  0  0  0  0  0
   39.0900   24.9610   40.8560 H   0  0  0  0  0  0  0  0  0  0  0  0
   38.4210   24.6820   42.4550 H   0  0  0  0  0  0  0  0  0  0  0  0
   38.6020   22.5270   41.0550 H   0  0  0  0  0  0  0  0  0  0  0  0
   37.1290   22.9170   41.9410 H   0  0  0  0  0  0  0  0  0  0  0  0
   36.3230   22.1220   40.0040 H   0  0  0  0  0  0  0  0  0  0  0  0
   37.5390   22.7270   38.9190 H   0  0  0  0  0  0  0  0  0  0  0  0
   35.0370   24.0040   40.1440 H   0  0  0  0  0  0  0  0  0  0  0  0
   35.6780   24.0660   38.4620 H   0  0  0  0  0  0  0  0  0  0  0  0
   35.7040   26.0870   39.4640 H   0  0  0  0  0  0  0  0  0  0  0  0
   37.1590   26.9110   41.6720 C   0  0  0  0  0  0  0  0  0  0  0  0
   37.2940   27.0930   43.0470 C   0  0  0  0  0  0  0  0  0  0  0  0
   37.4330   28.3990   43.5370 C   0  0  0  0  0  0  0  0  0  0  0  0
   37.4260   29.4290   42.6270 N   0  0  0  0  0  0  0  0  0  0  0  0
   37.2920   29.1840   41.3020 C   0  0  0  0  0  0  0  0  0  0  0  0
   37.1590   27.9540   40.8130 N   0  0  0  0  0  0  0  0  0  0  0  0
   37.3150   26.3760   43.7950 H   0  0  0  0  0  0  0  0  0  0  0  0
   37.5420   28.6360   44.5770 H   0  0  0  0  0  0  0  0  0  0  0  0
   37.2950   30.3350   40.3930 C   0  0  0  0  0  0  0  0  0  0  0  0
   37.1790   30.1440   39.0320 C   0  0  0  0  0  0  0  0  0  0  0  0
   37.1760   31.1530   38.0920 C   0  0  0  0  0  0  0  0  0  0  0  0
   37.3040   32.4330   38.6450 C   0  0  0  0  0  0  0  0  0  0  0  0
   37.4220   32.6570   40.0160 C   0  0  0  0  0  0  0  0  0  0  0  0
   37.4150   31.5900   40.8650 N   0  0  0  0  0  0  0  0  0  0  0  0
   37.0860   29.1270   38.7020 H   0  0  0  0  0  0  0  0  0  0  0  0
   37.0860   30.9960   37.0360 H   0  0  0  0  0  0  0  0  0  0  0  0
   37.3130   33.3020   38.0020 H   0  0  0  0  0  0  0  0  0  0  0  0
   37.5200   33.6410   40.4270 H   0  0  0  0  0  0  0  0  0  0  0  0
   37.6760   25.5100   38.7270 C   0  0  0  0  0  2  0  0  0  0  0  0
   37.5900   26.4130   37.5680 C   0  0  0  0  0  2  0  0  0  0  0  0
   37.4650   27.4820   37.7570 H   0  0  0  0  0  0  0  0  0  0  0  0
  1  2  1  0  0  0  0
  1 17  1  0  0  0  0
  1  7  1  1  0  0  0
  2  9  1  0  0  0  0
  3 10  1  0  0  0  0
  3  2  1  0  0  0  0
  3 11  1  0  0  0  0
  4 12  1  0  0  0  0
  4  3  1  0  0  0  0
  5  6  1  0  0  0  0
  5  4  1  0  0  0  0
  5 14  1  0  0  0  0
  6 16  1  6  0  0  0
  6  1  1  0  0  0  0
  8  2  1  0  0  0  0
 13  4  1  0  0  0  0
 15  5  1  0  0  0  0
 17 18  1  0  0  0  0
 18 19  2  0  0  0  0
 18 23  1  0  0  0  0
 19 24  1  0  0  0  0
 20 19  1  0  0  0  0
 21 20  2  0  0  0  0
 22 21  1  0  0  0  0
 22 17  2  0  0  0  0
 25 30  1  0  0  0  0
 25 21  1  0  0  0  0
 26 25  2  0  0  0  0
 27 28  2  0  0  0  0
 27 26  1  0  0  0  0
 28 29  1  0  0  0  0
 29 34  1  0  0  0  0
 29 30  2  0  0  0  0
 31 26  1  0  0  0  0
 32 27  1  0  0  0  0
 33 28  1  0  0  0  0
 35  6  1  0  0  0  0
 36 37  1  0  0  0  0
 36 35  1  0  0  0  0
M  END
>  <minimizedAffinity>
-5.16791201

$$$$

 OpenBabel03252507293D

 37 39  0  0  1  0  0  0  0  0999 V2000
   37.5060   29.9540   40.2880 C   0  0  2  0  0  0  0  0  0  0  0  0
   36.7460   31.1700   40.7540 C   0  0  0  0  0  0  0  0  0  0  0  0
   37.2410   32.3520   39.9460 C   0  0  0  0  0  0  0  0  0  0  0  0
   37.3730   32.1420   38.4850 C   0  0  0  0  0  0  0  0  0  0  0  0
   37.8990   30.8170   38.0860 C   0  0  0  0  0  0  0  0  0  0  0  0
   37.1630   29.7190   38.8680 C   0  0  2  0  0  0  0  0  0  0  0  0
   38.5900   30.2600   40.3710 H   0  0  0  0  0  0  0  0  0  0  0  0
   35.6680   31.0780   40.7780 H   0  0  0  0  0  0  0  0  0  0  0  0
   37.0620   31.3610   41.8080 H   0  0  0  0  0  0  0  0  0  0  0  0
   36.6470   33.2770   40.1370 H   0  0  0  0  0  0  0  0  0  0  0  0
   38.2590   32.6020   40.3680 H   0  0  0  0  0  0  0  0  0  0  0  0
   38.1710   32.8750   38.1430 H   0  0  0  0  0  0  0  0  0  0  0  0
   36.4930   32.5060   37.8750 H   0  0  0  0  0  0  0  0  0  0  0  0
   38.9800   30.7400   38.1760 H   0  0  0  0  0  0  0  0  0  0  0  0
   37.6130   30.6450   37.0080 H   0  0  0  0  0  0  0  0  0  0  0  0
   37.6850   28.8630   38.3910 H   0  0  0  0  0  0  0  0  0  0  0  0
   37.3410   28.7820   41.1380 C   0  0  0  0  0  0  0  0  0  0  0  0
   37.2150   28.9720   42.5120 C   0  0  0  0  0  0  0  0  0  0  0  0
   37.0860   27.8440   43.3340 C   0  0  0  0  0  0  0  0  0  0  0  0
   37.0920   26.6090   42.7310 N   0  0  0  0  0  0  0  0  0  0  0  0
   37.2160   26.4930   41.3870 C   0  0  0  0  0  0  0  0  0  0  0  0
   37.3410   27.5470   40.5870 N   0  0  0  0  0  0  0  0  0  0  0  0
   37.1960   29.8620   43.0420 H   0  0  0  0  0  0  0  0  0  0  0  0
   36.9850   27.8920   44.3990 H   0  0  0  0  0  0  0  0  0  0  0  0
   37.2120   25.1410   40.8180 C   0  0  0  0  0  0  0  0  0  0  0  0
   38.1750   24.2280   41.1930 C   0  0  0  0  0  0  0  0  0  0  0  0
   38.2660   22.9370   40.7180 C   0  0  0  0  0  0  0  0  0  0  0  0
   37.2690   22.6110   39.7900 C   0  0  0  0  0  0  0  0  0  0  0  0
   36.2820   23.5120   39.3920 C   0  0  0  0  0  0  0  0  0  0  0  0
   36.2790   24.7680   39.9220 N   0  0  0  0  0  0  0  0  0  0  0  0
   38.8990   24.5690   41.9090 H   0  0  0  0  0  0  0  0  0  0  0  0
   39.0180   22.2330   41.0140 H   0  0  0  0  0  0  0  0  0  0  0  0
   37.2400   21.6250   39.3500 H   0  0  0  0  0  0  0  0  0  0  0  0
   35.5240   23.2520   38.6830 H   0  0  0  0  0  0  0  0  0  0  0  0
   35.7530   29.8770   38.4580 C   0  0  0  0  0  2  0  0  0  0  0  0
   34.8880   28.6950   38.3030 C   0  0  0  0  0  2  0  0  0  0  0  0
   34.7830   28.0210   39.1550 H   0  0  0  0  0  0  0  0  0  0  0  0
  1  7  1  1  0  0  0
  1  2  1  0  0  0  0
  1 17  1  0  0  0  0
  2  8  1  0  0  0  0
  2  9  1  0  0  0  0
  3 10  1  0  0  0  0
  3 11  1  0  0  0  0
  3  2  1  0  0  0  0
  4  3  1  0  0  0  0
  5 14  1  0  0  0  0
  5  4  1  0  0  0  0
  5  6  1  0  0  0  0
  6 16  1  6  0  0  0
  6  1  1  0  0  0  0
 12  4  1  0  0  0  0
 13  4  1  0  0  0  0
 15  5  1  0  0  0  0
 17 18  1  0  0  0  0
 18 23  1  0  0  0  0
 18 19  2  0  0  0  0
 19 24  1  0  0  0  0
 20 19  1  0  0  0  0
 21 20  2  0  0  0  0
 22 17  2  0  0  0  0
 22 21  1  0  0  0  0
 25 26  1  0  0  0  0
 25 21  1  0  0  0  0
 26 31  1  0  0  0  0
 27 32  1  0  0  0  0
 27 26  2  0  0  0  0
 28 27  1  0  0  0  0
 29 28  2  0  0  0  0
 29 30  1  0  0  0  0
 30 25  2  0  0  0  0
 33 28  1  0  0  0  0
 34 29  1  0  0  0  0
 35  6  1  0  0  0  0
 36 35  1  0  0  0  0
 36 37  1  0  0  0  0
M  END
>  <minimizedAffinity>
-5.15864706

$$$$

 OpenBabel03252507293D

 37 39  0  0  1  0  0  0  0  0999 V2000
   35.0490   28.2370   38.7320 C   0  0  2  0  0  0  0  0  0  0  0  0
   35.4900   26.9520   38.0780 C   0  0  0  0  0  0  0  0  0  0  0  0
   34.4020   26.5400   37.1070 C   0  0  0  0  0  0  0  0  0  0  0  0
   33.8630   27.6060   36.2320 C   0  0  0  0  0  0  0  0  0  0  0  0
   33.6870   28.9250   36.8830 C   0  0  0  0  0  0  0  0  0  0  0  0
   34.9530   29.2730   37.6800 C   0  0  2  0  0  0  0  0  0  0  0  0
   34.0190   28.0020   39.1300 H   0  0  0  0  0  0  0  0  0  0  0  0
   36.4820   26.9520   37.6480 H   0  0  0  0  0  0  0  0  0  0  0  0
   35.5010   26.1720   38.8790 H   0  0  0  0  0  0  0  0  0  0  0  0
   34.6960   25.6620   36.4860 H   0  0  0  0  0  0  0  0  0  0  0  0
   33.5610   26.1390   37.7470 H   0  0  0  0  0  0  0  0  0  0  0  0
   32.8060   27.2800   35.9690 H   0  0  0  0  0  0  0  0  0  0  0  0
   34.3210   27.6460   35.1990 H   0  0  0  0  0  0  0  0  0  0  0  0
   32.7830   28.9870   37.4860 H   0  0  0  0  0  0  0  0  0  0  0  0
   33.6340   29.7050   36.0690 H   0  0  0  0  0  0  0  0  0  0  0  0
   34.6040   30.2680   38.0280 H   0  0  0  0  0  0  0  0  0  0  0  0
   35.8550   28.6320   39.8800 C   0  0  0  0  0  0  0  0  0  0  0  0
   35.7880   29.9540   40.3130 C   0  0  0  0  0  0  0  0  0  0  0  0
   36.5840   30.3420   41.3990 C   0  0  0  0  0  0  0  0  0  0  0  0
   37.3890   29.3890   41.9760 N   0  0  0  0  0  0  0  0  0  0  0  0
   37.4070   28.1190   41.5070 C   0  0  0  0  0  0  0  0  0  0  0  0
   36.6610   27.7270   40.4780 N   0  0  0  0  0  0  0  0  0  0  0  0
   35.2070   30.7280   39.9410 H   0  0  0  0  0  0  0  0  0  0  0  0
   36.5990   31.3360   41.8010 H   0  0  0  0  0  0  0  0  0  0  0  0
   38.2910   27.1590   42.1760 C   0  0  0  0  0  0  0  0  0  0  0  0
   38.1750   25.8100   41.9130 C   0  0  0  0  0  0  0  0  0  0  0  0
   38.9500   24.8260   42.4880 C   0  0  0  0  0  0  0  0  0  0  0  0
   39.8990   25.3180   43.3930 C   0  0  0  0  0  0  0  0  0  0  0  0
   40.0400   26.6750   43.6780 C   0  0  0  0  0  0  0  0  0  0  0  0
   39.2230   27.5710   43.0550 N   0  0  0  0  0  0  0  0  0  0  0  0
   37.4190   25.5280   41.2060 H   0  0  0  0  0  0  0  0  0  0  0  0
   38.8530   23.7790   42.2790 H   0  0  0  0  0  0  0  0  0  0  0  0
   40.5630   24.6360   43.9050 H   0  0  0  0  0  0  0  0  0  0  0  0
   40.7690   27.0400   44.3720 H   0  0  0  0  0  0  0  0  0  0  0  0
   36.0140   29.3240   36.6550 C   0  0  0  0  0  2  0  0  0  0  0  0
   37.1220   30.2860   36.7800 C   0  0  0  0  0  2  0  0  0  0  0  0
   37.7170   30.2660   37.6960 H   0  0  0  0  0  0  0  0  0  0  0  0
  1  7  1  1  0  0  0
  1 17  1  0  0  0  0
  2  1  1  0  0  0  0
  2  9  1  0  0  0  0
  3 11  1  0  0  0  0
  3  2  1  0  0  0  0
  4  5  1  0  0  0  0
  4  3  1  0  0  0  0
  5 14  1  0  0  0  0
  5  6  1  0  0  0  0
  6 16  1  1  0  0  0
  6  1  1  0  0  0  0
  8  2  1  0  0  0  0
 10  3  1  0  0  0  0
 12  4  1  0  0  0  0
 13  4  1  0  0  0  0
 15  5  1  0  0  0  0
 17 18  2  0  0  0  0
 17 22  1  0  0  0  0
 18 19  1  0  0  0  0
 19 24  1  0  0  0  0
 19 20  2  0  0  0  0
 21 20  1  0  0  0  0
 21 25  1  0  0  0  0
 22 21  2  0  0  0  0
 23 18  1  0  0  0  0
 25 30  1  0  0  0  0
 26 25  2  0  0  0  0
 26 27  1  0  0  0  0
 27 28  2  0  0  0  0
 28 29  1  0  0  0  0
 28 33  1  0  0  0  0
 29 34  1  0  0  0  0
 30 29  2  0  0  0  0
 31 26  1  0  0  0  0
 32 27  1  0  0  0  0
 35 36  1  0  0  0  0
 35  6  1  0  0  0  0
 36 37  1  0  0  0  0
M  END
>  <minimizedAffinity>
-5.11099625

$$$$

 OpenBabel03252507293D

 37 39  0  0  1  0  0  0  0  0999 V2000
   37.4280   31.2710   39.6910 C   0  0  2  0  0  0  0  0  0  0  0  0
   37.1960   32.4750   38.8140 C   0  0  0  0  0  0  0  0  0  0  0  0
   37.4720   33.7080   39.6510 C   0  0  0  0  0  0  0  0  0  0  0  0
   38.7050   33.6830   40.4730 C   0  0  0  0  0  0  0  0  0  0  0  0
   39.0080   32.3810   41.1120 C   0  0  0  0  0  0  0  0  0  0  0  0
   38.8560   31.2570   40.0770 C   0  0  2  0  0  0  0  0  0  0  0  0
   36.7890   31.4700   40.6020 H   0  0  0  0  0  0  0  0  0  0  0  0
   37.7040   32.4740   37.8590 H   0  0  0  0  0  0  0  0  0  0  0  0
   36.1030   32.4970   38.5820 H   0  0  0  0  0  0  0  0  0  0  0  0
   37.4450   34.6460   39.0490 H   0  0  0  0  0  0  0  0  0  0  0  0
   36.5820   33.8110   40.3400 H   0  0  0  0  0  0  0  0  0  0  0  0
   38.5040   34.3840   41.3450 H   0  0  0  0  0  0  0  0  0  0  0  0
   39.5950   34.1980   40.0040 H   0  0  0  0  0  0  0  0  0  0  0  0
   38.4250   32.2010   42.0130 H   0  0  0  0  0  0  0  0  0  0  0  0
   40.1030   32.3790   41.3820 H   0  0  0  0  0  0  0  0  0  0  0  0
   39.1530   30.4300   40.7560 H   0  0  0  0  0  0  0  0  0  0  0  0
   36.9550   30.0160   39.1230 C   0  0  0  0  0  0  0  0  0  0  0  0
   36.3940   30.0340   37.8480 C   0  0  0  0  0  0  0  0  0  0  0  0
   35.9140   28.8320   37.3120 C   0  0  0  0  0  0  0  0  0  0  0  0
   36.0250   27.6980   38.0810 N   0  0  0  0  0  0  0  0  0  0  0  0
   36.5830   27.7480   39.3140 C   0  0  0  0  0  0  0  0  0  0  0  0
   37.0450   28.8760   39.8440 N   0  0  0  0  0  0  0  0  0  0  0  0
   36.2790   30.8390   37.2040 H   0  0  0  0  0  0  0  0  0  0  0  0
   35.4670   28.7490   36.3410 H   0  0  0  0  0  0  0  0  0  0  0  0
   36.6670   26.4960   40.0730 C   0  0  0  0  0  0  0  0  0  0  0  0
   37.1000   26.5070   41.3820 C   0  0  0  0  0  0  0  0  0  0  0  0
   37.2210   25.3910   42.1820 C   0  0  0  0  0  0  0  0  0  0  0  0
   36.8570   24.2000   41.5410 C   0  0  0  0  0  0  0  0  0  0  0  0
   36.4140   24.1580   40.2190 C   0  0  0  0  0  0  0  0  0  0  0  0
   36.3310   25.3200   39.5110 N   0  0  0  0  0  0  0  0  0  0  0  0
   37.3580   27.4660   41.7880 H   0  0  0  0  0  0  0  0  0  0  0  0
   37.5590   25.4070   43.1990 H   0  0  0  0  0  0  0  0  0  0  0  0
   36.9110   23.2610   42.0710 H   0  0  0  0  0  0  0  0  0  0  0  0
   36.1380   23.2420   39.7390 H   0  0  0  0  0  0  0  0  0  0  0  0
   39.8580   31.5880   39.0450 C   0  0  0  0  0  2  0  0  0  0  0  0
   40.4630   30.5220   38.2290 C   0  0  0  0  0  2  0  0  0  0  0  0
   39.7960   29.8640   37.6680 H   0  0  0  0  0  0  0  0  0  0  0  0
  1  6  1  0  0  0  0
  1  7  1  1  0  0  0
  2  3  1  0  0  0  0
  2  1  1  0  0  0  0
  3 11  1  0  0  0  0
  3  4  1  0  0  0  0
  4  5  1  0  0  0  0
  4 12  1  0  0  0  0
  5 15  1  0  0  0  0
  5 14  1  0  0  0  0
  6 16  1  1  0  0  0
  6  5  1  0  0  0  0
  8  2  1  0  0  0  0
  9  2  1  0  0  0  0
 10  3  1  0  0  0  0
 13  4  1  0  0  0  0
 17  1  1  0  0  0  0
 17 22  1  0  0  0  0
 18 17  2  0  0  0  0
 19 18  1  0  0  0  0
 19 20  2  0  0  0  0
 20 21  1  0  0  0  0
 21 22  2  0  0  0  0
 21 25  1  0  0  0  0
 23 18  1  0  0  0  0
 24 19  1  0  0  0  0
 25 26  1  0  0  0  0
 26 31  1  0  0  0  0
 26 27  2  0  0  0  0
 27 32  1  0  0  0  0
 28 33  1  0  0  0  0
 28 27  1  0  0  0  0
 29 28  2  0  0  0  0
 30 25  2  0  0  0  0
 30 29  1  0  0  0  0
 34 29  1  0  0  0  0
 35  6  1  0  0  0  0
 36 35  1  0  0  0  0
 37 36  1  0  0  0  0
M  END
>  <minimizedAffinity>
-5.01654673

$$$$
