
 OpenBabel03252509213D

 19 20  0  0  0  0  0  0  0  0999 V2000
   45.3700   34.2280   44.6770 C   0  0  0  0  0  0  0  0  0  0  0  0
   45.7380   34.9100   43.5010 C   0  0  0  0  0  0  0  0  0  0  0  0
   46.9210   34.4470   42.9250 C   0  0  0  0  0  0  0  0  0  0  0  0
   47.6330   33.4050   43.4970 N   0  0  0  0  0  0  0  0  0  0  0  0
   47.2250   32.7970   44.6200 C   0  0  0  0  0  0  0  0  0  0  0  0
   46.0780   33.2240   45.2060 N   0  0  0  0  0  0  0  0  0  0  0  0
   44.4450   34.5390   45.1900 H   0  0  0  0  0  0  0  0  0  0  0  0
   47.8860   32.0210   44.9220 H   0  0  0  0  0  0  0  0  0  0  0  0
   47.3470   35.0550   41.6080 C   0  0  0  0  0  0  0  0  0  0  0  0
   48.7690   35.6330   41.7220 C   0  0  0  0  0  0  0  0  0  0  0  0
   48.3760   34.3910   40.8590 C   0  0  0  0  0  0  0  0  0  0  0  0
   46.7020   35.8690   41.2150 H   0  0  0  0  0  0  0  0  0  0  0  0
   49.3390   35.4080   42.6380 H   0  0  0  0  0  0  0  0  0  0  0  0
   49.0140   36.5370   41.1410 H   0  0  0  0  0  0  0  0  0  0  0  0
   48.5200   34.5240   39.7570 H   0  0  0  0  0  0  0  0  0  0  0  0
   48.7690   33.4080   41.2540 H   0  0  0  0  0  0  0  0  0  0  0  0
   44.9480   36.0010   42.9430 C   0  0  0  0  0  2  0  0  0  0  0  0
   45.1290   37.3340   43.5870 C   0  0  0  0  0  2  0  0  0  0  0  0
   45.7700   37.3210   44.4930 H   0  0  0  0  0  0  0  0  0  0  0  0
  1  7  1  0  0  0  0
  1  6  1  0  0  0  0
  2  1  2  0  0  0  0
  3  4  2  0  0  0  0
  3  2  1  0  0  0  0
  4  5  1  0  0  0  0
  5  8  1  0  0  0  0
  5  6  2  0  0  0  0
  9 10  1  0  0  0  0
  9  3  1  0  0  0  0
 10 13  1  0  0  0  0
 11 16  1  0  0  0  0
 11  9  1  0  0  0  0
 11 10  1  0  0  0  0
 12  9  1  0  0  0  0
 14 10  1  0  0  0  0
 15 11  1  0  0  0  0
 17  2  1  0  0  0  0
 17 18  1  0  0  0  0
 18 19  1  0  0  0  0
M  END
>  <minimizedAffinity>
-3.70485425

>  <minimizedRMSD>
1.40344679

$$$$
