
 OpenBabel03252504203D

 13 13  0  0  0  0  0  0  0  0999 V2000
   45.8500   34.0150   45.0190 C   0  0  0  0  0  0  0  0  0  0  0  0
   44.9130   35.0310   45.2310 C   0  0  0  0  0  0  0  0  0  0  0  0
   44.7040   35.9710   44.2120 C   0  0  0  0  0  0  0  0  0  0  0  0
   45.4320   35.8410   43.0660 N   0  0  0  0  0  0  0  0  0  0  0  0
   46.3250   34.8510   42.8970 C   0  0  0  0  0  0  0  0  0  0  0  0
   46.5450   33.9360   43.8570 N   0  0  0  0  0  0  0  0  0  0  0  0
   44.3410   35.1150   46.1560 H   0  0  0  0  0  0  0  0  0  0  0  0
   44.0060   36.7640   44.3150 H   0  0  0  0  0  0  0  0  0  0  0  0
   46.0390   32.8650   46.3850 S   0  0  0  0  0  0  0  0  0  0  0  0
   45.4970   31.6290   45.9510 H   0  0  0  0  0  0  0  0  0  0  0  0
   47.0760   34.7840   41.6140 C   0  0  0  0  0  0  0  0  0  0  0  0
   48.4320   35.4630   41.7960 C   0  0  0  0  0  0  0  0  0  0  0  0
   48.2190   36.4750   42.2310 H   0  0  0  0  0  0  0  0  0  0  0  0
  1  2  1  0  0  0  0
  1  9  1  0  0  0  0
  2  7  1  0  0  0  0
  3  8  1  0  0  0  0
  3  2  2  0  0  0  0
  4  3  1  0  0  0  0
  5  4  2  0  0  0  0
  5  6  1  0  0  0  0
  6  1  2  0  0  0  0
 10  9  1  0  0  0  0
 11 12  1  0  0  0  0
 11  5  1  0  0  0  0
 12 13  1  0  0  0  0
M  END
>  <minimizedAffinity>
-3.59639144

>  <minimizedRMSD>
4.51848745

$$$$
