
 OpenBabel03252505383D

 15 15  0  0  0  0  0  0  0  0999 V2000
   37.4300   30.7530   41.0130 C   0  0  0  0  0  0  0  0  0  0  0  0
   36.3230   30.7170   40.1470 C   0  0  0  0  0  0  0  0  0  0  0  0
   35.4820   29.6170   40.2440 C   0  0  0  0  0  0  0  0  0  0  0  0
   35.7540   28.6380   41.1480 N   0  0  0  0  0  0  0  0  0  0  0  0
   36.8350   28.7160   41.9620 C   0  0  0  0  0  0  0  0  0  0  0  0
   37.6610   29.7710   41.8870 N   0  0  0  0  0  0  0  0  0  0  0  0
   36.0930   31.4930   39.4180 H   0  0  0  0  0  0  0  0  0  0  0  0
   34.6070   29.5500   39.5870 H   0  0  0  0  0  0  0  0  0  0  0  0
   36.9750   27.5630   42.8840 C   0  0  0  0  0  0  0  0  0  0  0  0
   35.8850   27.3850   43.6800 F   0  0  0  0  0  0  0  0  0  0  0  0
   38.1160   27.7280   43.6790 F   0  0  0  0  0  0  0  0  0  0  0  0
   37.2420   26.4080   42.1350 F   0  0  0  0  0  0  0  0  0  0  0  0
   38.3310   31.9320   40.9090 C   0  0  0  0  0  2  0  0  0  0  0  0
   37.6590   32.9020   39.9400 C   0  0  0  0  0  2  0  0  0  0  0  0
   38.1230   33.9060   39.9890 H   0  0  0  0  0  0  0  0  0  0  0  0
  1  6  1  0  0  0  0
  2  3  1  0  0  0  0
  2  1  2  0  0  0  0
  3  4  2  0  0  0  0
  4  5  1  0  0  0  0
  5  9  1  0  0  0  0
  6  5  2  0  0  0  0
  7  2  1  0  0  0  0
  8  3  1  0  0  0  0
  9 11  1  0  0  0  0
  9 10  1  0  0  0  0
 12  9  1  0  0  0  0
 13  1  1  0  0  0  0
 14 15  1  0  0  0  0
 14 13  1  0  0  0  0
M  END
>  <minimizedAffinity>
-4.08096075

$$$$

 OpenBabel03252505383D

 15 15  0  0  0  0  0  0  0  0999 V2000
   37.2550   26.7970   42.2860 C   0  0  0  0  0  0  0  0  0  0  0  0
   38.0290   27.3910   43.2990 C   0  0  0  0  0  0  0  0  0  0  0  0
   38.0420   28.7770   43.3530 C   0  0  0  0  0  0  0  0  0  0  0  0
   37.3250   29.4940   42.4460 N   0  0  0  0  0  0  0  0  0  0  0  0
   36.5940   28.8780   41.4860 C   0  0  0  0  0  0  0  0  0  0  0  0
   36.5660   27.5380   41.4160 N   0  0  0  0  0  0  0  0  0  0  0  0
   38.6080   26.8290   44.0320 H   0  0  0  0  0  0  0  0  0  0  0  0
   38.6330   29.2800   44.1290 H   0  0  0  0  0  0  0  0  0  0  0  0
   35.8770   29.8130   40.5850 C   0  0  0  0  0  0  0  0  0  0  0  0
   34.6080   29.4100   40.3050 F   0  0  0  0  0  0  0  0  0  0  0  0
   36.5960   29.9680   39.3940 F   0  0  0  0  0  0  0  0  0  0  0  0
   35.8820   31.0920   41.1590 F   0  0  0  0  0  0  0  0  0  0  0  0
   37.2410   25.3110   42.2290 C   0  0  0  0  0  2  0  0  0  0  0  0
   36.8800   24.9400   40.7930 C   0  0  0  0  0  2  0  0  0  0  0  0
   37.0870   23.8720   40.5890 H   0  0  0  0  0  0  0  0  0  0  0  0
  1  2  1  0  0  0  0
  2  3  2  0  0  0  0
  2  7  1  0  0  0  0
  3  8  1  0  0  0  0
  4  3  1  0  0  0  0
  5  4  2  0  0  0  0
  6  5  1  0  0  0  0
  6  1  2  0  0  0  0
  9 12  1  0  0  0  0
  9  5  1  0  0  0  0
 10  9  1  0  0  0  0
 11  9  1  0  0  0  0
 13  1  1  0  0  0  0
 14 13  1  0  0  0  0
 15 14  1  0  0  0  0
M  END
>  <minimizedAffinity>
-3.96354699

$$$$

 OpenBabel03252505383D

 15 15  0  0  0  0  0  0  0  0999 V2000
   37.2270   26.7760   42.2900 C   0  0  0  0  0  0  0  0  0  0  0  0
   38.0040   27.3520   43.3110 C   0  0  0  0  0  0  0  0  0  0  0  0
   38.0360   28.7380   43.3730 C   0  0  0  0  0  0  0  0  0  0  0  0
   37.3350   29.4700   42.4650 N   0  0  0  0  0  0  0  0  0  0  0  0
   36.6010   28.8700   41.4980 C   0  0  0  0  0  0  0  0  0  0  0  0
   36.5540   27.5310   41.4200 N   0  0  0  0  0  0  0  0  0  0  0  0
   38.5700   26.7780   44.0440 H   0  0  0  0  0  0  0  0  0  0  0  0
   38.6300   29.2280   44.1540 H   0  0  0  0  0  0  0  0  0  0  0  0
   35.9030   29.8200   40.5990 C   0  0  0  0  0  0  0  0  0  0  0  0
   35.8590   31.0860   41.0970 F   0  0  0  0  0  0  0  0  0  0  0  0
   34.6020   29.3670   40.3490 F   0  0  0  0  0  0  0  0  0  0  0  0
   36.5220   29.7980   39.3410 F   0  0  0  0  0  0  0  0  0  0  0  0
   37.1920   25.2900   42.2250 C   0  0  0  0  0  2  0  0  0  0  0  0
   36.8760   24.9310   40.7750 C   0  0  0  0  0  2  0  0  0  0  0  0
   37.0720   23.8610   40.5730 H   0  0  0  0  0  0  0  0  0  0  0  0
  1  2  1  0  0  0  0
  2  3  2  0  0  0  0
  2  7  1  0  0  0  0
  3  8  1  0  0  0  0
  4  3  1  0  0  0  0
  5  4  2  0  0  0  0
  6  5  1  0  0  0  0
  6  1  2  0  0  0  0
  9 10  1  0  0  0  0
  9  5  1  0  0  0  0
 11  9  1  0  0  0  0
 12  9  1  0  0  0  0
 13  1  1  0  0  0  0
 14 13  1  0  0  0  0
 15 14  1  0  0  0  0
M  END
>  <minimizedAffinity>
-3.9574666

$$$$

 OpenBabel03252505383D

 15 15  0  0  0  0  0  0  0  0999 V2000
   37.2510   29.3900   42.0340 C   0  0  0  0  0  0  0  0  0  0  0  0
   36.1410   28.8320   41.3760 C   0  0  0  0  0  0  0  0  0  0  0  0
   35.6330   29.5320   40.2920 C   0  0  0  0  0  0  0  0  0  0  0  0
   36.2110   30.7050   39.9150 N   0  0  0  0  0  0  0  0  0  0  0  0
   37.2800   31.2050   40.5800 C   0  0  0  0  0  0  0  0  0  0  0  0
   37.7890   30.5430   41.6310 N   0  0  0  0  0  0  0  0  0  0  0  0
   35.6680   27.8940   41.6670 H   0  0  0  0  0  0  0  0  0  0  0  0
   34.7660   29.1320   39.7510 H   0  0  0  0  0  0  0  0  0  0  0  0
   37.7810   32.4880   40.0330 C   0  0  0  0  0  0  0  0  0  0  0  0
   36.8170   33.2000   39.3860 F   0  0  0  0  0  0  0  0  0  0  0  0
   38.8510   32.2470   39.1630 F   0  0  0  0  0  0  0  0  0  0  0  0
   38.3450   33.2400   41.0730 F   0  0  0  0  0  0  0  0  0  0  0  0
   37.7960   28.6380   43.1960 C   0  0  0  0  0  2  0  0  0  0  0  0
   36.7300   27.6170   43.5850 C   0  0  0  0  0  2  0  0  0  0  0  0
   37.1380   26.8510   44.2720 H   0  0  0  0  0  0  0  0  0  0  0  0
  1 13  1  0  0  0  0
  2  7  1  0  0  0  0
  2  1  2  0  0  0  0
  3  2  1  0  0  0  0
  4  3  2  0  0  0  0
  4  5  1  0  0  0  0
  5  6  2  0  0  0  0
  6  1  1  0  0  0  0
  8  3  1  0  0  0  0
  9  5  1  0  0  0  0
  9 12  1  0  0  0  0
 10  9  1  0  0  0  0
 11  9  1  0  0  0  0
 13 14  1  0  0  0  0
 14 15  1  0  0  0  0
M  END
>  <minimizedAffinity>
-3.86631131

$$$$

 OpenBabel03252505383D

 15 15  0  0  0  0  0  0  0  0999 V2000
   37.4180   30.4890   40.8940 C   0  0  0  0  0  0  0  0  0  0  0  0
   38.5940   31.0230   41.4500 C   0  0  0  0  0  0  0  0  0  0  0  0
   39.2020   30.2940   42.4620 C   0  0  0  0  0  0  0  0  0  0  0  0
   38.6510   29.1180   42.8700 N   0  0  0  0  0  0  0  0  0  0  0  0
   37.5150   28.6430   42.3050 C   0  0  0  0  0  0  0  0  0  0  0  0
   36.9110   29.3310   41.3240 N   0  0  0  0  0  0  0  0  0  0  0  0
   39.0450   31.9630   41.1340 H   0  0  0  0  0  0  0  0  0  0  0  0
   40.1210   30.6760   42.9230 H   0  0  0  0  0  0  0  0  0  0  0  0
   37.0600   27.3510   42.8710 C   0  0  0  0  0  0  0  0  0  0  0  0
   35.9710   27.4800   43.6790 F   0  0  0  0  0  0  0  0  0  0  0  0
   38.1050   26.7500   43.5830 F   0  0  0  0  0  0  0  0  0  0  0  0
   36.8010   26.4580   41.8220 F   0  0  0  0  0  0  0  0  0  0  0  0
   36.7670   31.2710   39.8100 C   0  0  0  0  0  2  0  0  0  0  0  0
   36.4520   30.2780   38.6940 C   0  0  0  0  0  2  0  0  0  0  0  0
   35.7490   30.7110   37.9560 H   0  0  0  0  0  0  0  0  0  0  0  0
  1  6  2  0  0  0  0
  1  2  1  0  0  0  0
  2  3  2  0  0  0  0
  3  4  1  0  0  0  0
  3  8  1  0  0  0  0
  5  4  2  0  0  0  0
  5  9  1  0  0  0  0
  6  5  1  0  0  0  0
  7  2  1  0  0  0  0
  9 11  1  0  0  0  0
  9 10  1  0  0  0  0
 12  9  1  0  0  0  0
 13  1  1  0  0  0  0
 14 13  1  0  0  0  0
 15 14  1  0  0  0  0
M  END
>  <minimizedAffinity>
-3.78101015

$$$$

 OpenBabel03252505383D

 15 15  0  0  0  0  0  0  0  0999 V2000
   36.0630   29.2370   39.7730 C   0  0  0  0  0  0  0  0  0  0  0  0
   36.5880   30.4920   40.1270 C   0  0  0  0  0  0  0  0  0  0  0  0
   37.2000   30.5920   41.3690 C   0  0  0  0  0  0  0  0  0  0  0  0
   37.2660   29.5010   42.1780 N   0  0  0  0  0  0  0  0  0  0  0  0
   36.7440   28.3110   41.7940 C   0  0  0  0  0  0  0  0  0  0  0  0
   36.1490   28.1910   40.5970 N   0  0  0  0  0  0  0  0  0  0  0  0
   36.5430   31.3740   39.4890 H   0  0  0  0  0  0  0  0  0  0  0  0
   37.6220   31.5540   41.6840 H   0  0  0  0  0  0  0  0  0  0  0  0
   36.9060   27.2330   42.7990 C   0  0  0  0  0  0  0  0  0  0  0  0
   38.0820   27.3160   43.4810 F   0  0  0  0  0  0  0  0  0  0  0  0
   36.8120   25.9840   42.1740 F   0  0  0  0  0  0  0  0  0  0  0  0
   35.8150   27.2600   43.6790 F   0  0  0  0  0  0  0  0  0  0  0  0
   35.4080   29.1300   38.4420 C   0  0  0  0  0  2  0  0  0  0  0  0
   35.1550   27.6420   38.2060 C   0  0  0  0  0  2  0  0  0  0  0  0
   34.4540   27.4810   37.3650 H   0  0  0  0  0  0  0  0  0  0  0  0
  1  2  2  0  0  0  0
  1  6  1  0  0  0  0
  2  3  1  0  0  0  0
  3  8  1  0  0  0  0
  3  4  2  0  0  0  0
  5  4  1  0  0  0  0
  5  9  1  0  0  0  0
  6  5  2  0  0  0  0
  7  2  1  0  0  0  0
  9 10  1  0  0  0  0
  9 12  1  0  0  0  0
 11  9  1  0  0  0  0
 13  1  1  0  0  0  0
 14 13  1  0  0  0  0
 15 14  1  0  0  0  0
M  END
>  <minimizedAffinity>
-3.75543118

$$$$

 OpenBabel03252505383D

 15 15  0  0  0  0  0  0  0  0999 V2000
   37.4800   29.0080   42.0360 C   0  0  0  0  0  0  0  0  0  0  0  0
   38.5880   29.0810   42.8980 C   0  0  0  0  0  0  0  0  0  0  0  0
   39.4270   30.1780   42.7560 C   0  0  0  0  0  0  0  0  0  0  0  0
   39.1540   31.1170   41.8100 N   0  0  0  0  0  0  0  0  0  0  0  0
   38.0740   31.0030   41.0000 C   0  0  0  0  0  0  0  0  0  0  0  0
   37.2490   29.9520   41.1210 N   0  0  0  0  0  0  0  0  0  0  0  0
   38.8190   28.3370   43.6600 H   0  0  0  0  0  0  0  0  0  0  0  0
   40.3030   30.2740   43.4090 H   0  0  0  0  0  0  0  0  0  0  0  0
   37.9310   32.1160   40.0310 C   0  0  0  0  0  0  0  0  0  0  0  0
   38.8290   32.0470   39.0100 F   0  0  0  0  0  0  0  0  0  0  0  0
   38.0650   33.3420   40.6930 F   0  0  0  0  0  0  0  0  0  0  0  0
   36.6170   32.1300   39.5420 F   0  0  0  0  0  0  0  0  0  0  0  0
   36.5820   27.8320   42.1890 C   0  0  0  0  0  2  0  0  0  0  0  0
   36.5580   27.5010   43.6800 C   0  0  0  0  0  2  0  0  0  0  0  0
   35.7320   26.8060   43.9250 H   0  0  0  0  0  0  0  0  0  0  0  0
  1 13  1  0  0  0  0
  1  2  1  0  0  0  0
  2  7  1  0  0  0  0
  3  2  2  0  0  0  0
  3  8  1  0  0  0  0
  4  3  1  0  0  0  0
  5  6  1  0  0  0  0
  5  4  2  0  0  0  0
  6  1  2  0  0  0  0
  9 11  1  0  0  0  0
  9  5  1  0  0  0  0
 10  9  1  0  0  0  0
 12  9  1  0  0  0  0
 13 14  1  0  0  0  0
 14 15  1  0  0  0  0
M  END
>  <minimizedAffinity>
-3.71837521

$$$$

 OpenBabel03252505383D

 15 15  0  0  0  0  0  0  0  0999 V2000
   38.6770   30.4690   41.9190 C   0  0  0  0  0  0  0  0  0  0  0  0
   37.7530   31.0140   41.0100 C   0  0  0  0  0  0  0  0  0  0  0  0
   36.5940   30.2880   40.7760 C   0  0  0  0  0  0  0  0  0  0  0  0
   36.3990   29.1040   41.4170 N   0  0  0  0  0  0  0  0  0  0  0  0
   37.3200   28.6160   42.2840 C   0  0  0  0  0  0  0  0  0  0  0  0
   38.4470   29.3020   42.5260 N   0  0  0  0  0  0  0  0  0  0  0  0
   37.8950   31.9620   40.4910 H   0  0  0  0  0  0  0  0  0  0  0  0
   35.8470   30.6790   40.0750 H   0  0  0  0  0  0  0  0  0  0  0  0
   36.9430   27.3160   42.8890 C   0  0  0  0  0  0  0  0  0  0  0  0
   35.8350   27.3980   43.6760 F   0  0  0  0  0  0  0  0  0  0  0  0
   38.0150   26.8140   43.6370 F   0  0  0  0  0  0  0  0  0  0  0  0
   36.7630   26.3720   41.8680 F   0  0  0  0  0  0  0  0  0  0  0  0
   39.9190   31.2470   42.1690 C   0  0  0  0  0  2  0  0  0  0  0  0
   40.9910   30.2320   42.5580 C   0  0  0  0  0  2  0  0  0  0  0  0
   42.0030   30.6810   42.5220 H   0  0  0  0  0  0  0  0  0  0  0  0
  1 13  1  0  0  0  0
  1  6  1  0  0  0  0
  2  1  2  0  0  0  0
  3  2  1  0  0  0  0
  3  4  2  0  0  0  0
  4  5  1  0  0  0  0
  5  6  2  0  0  0  0
  5  9  1  0  0  0  0
  7  2  1  0  0  0  0
  8  3  1  0  0  0  0
  9 11  1  0  0  0  0
  9 10  1  0  0  0  0
 12  9  1  0  0  0  0
 13 14  1  0  0  0  0
 15 14  1  0  0  0  0
M  END
>  <minimizedAffinity>
-3.66120315

$$$$

 OpenBabel03252505383D

 15 15  0  0  0  0  0  0  0  0999 V2000
   35.8680   28.1850   39.4630 C   0  0  0  0  0  0  0  0  0  0  0  0
   36.5490   27.1220   38.8440 C   0  0  0  0  0  0  0  0  0  0  0  0
   37.3490   26.3290   39.6540 C   0  0  0  0  0  0  0  0  0  0  0  0
   37.4440   26.6020   40.9830 N   0  0  0  0  0  0  0  0  0  0  0  0
   36.7700   27.6390   41.5350 C   0  0  0  0  0  0  0  0  0  0  0  0
   35.9890   28.4190   40.7720 N   0  0  0  0  0  0  0  0  0  0  0  0
   36.4810   26.8920   37.7810 H   0  0  0  0  0  0  0  0  0  0  0  0
   37.8970   25.4890   39.2100 H   0  0  0  0  0  0  0  0  0  0  0  0
   36.9900   27.7890   42.9940 C   0  0  0  0  0  0  0  0  0  0  0  0
   37.2630   29.0710   43.3600 F   0  0  0  0  0  0  0  0  0  0  0  0
   38.0330   26.9500   43.4040 F   0  0  0  0  0  0  0  0  0  0  0  0
   35.8680   27.3010   43.6780 F   0  0  0  0  0  0  0  0  0  0  0  0
   35.0100   29.0350   38.5950 C   0  0  0  0  0  2  0  0  0  0  0  0
   35.8870   29.4790   37.4270 C   0  0  0  0  0  2  0  0  0  0  0  0
   35.2790   29.9050   36.6050 H   0  0  0  0  0  0  0  0  0  0  0  0
  1  6  1  0  0  0  0
  2  1  2  0  0  0  0
  2  3  1  0  0  0  0
  3  4  2  0  0  0  0
  4  5  1  0  0  0  0
  5  9  1  0  0  0  0
  6  5  2  0  0  0  0
  7  2  1  0  0  0  0
  8  3  1  0  0  0  0
  9 10  1  0  0  0  0
  9 11  1  0  0  0  0
  9 12  1  0  0  0  0
 13  1  1  0  0  0  0
 14 13  1  0  0  0  0
 15 14  1  0  0  0  0
M  END
>  <minimizedAffinity>
-3.64236712

$$$$
