
 OpenBabel03252508123D

 24 25  0  0  1  0  0  0  0  0999 V2000
   36.3870   28.1850   41.0520 C   0  0  0  0  0  0  0  0  0  0  0  0
   36.6880   27.4570   40.2900 H   0  0  0  0  0  0  0  0  0  0  0  0
   35.3240   28.1650   41.3410 H   0  0  0  0  0  0  0  0  0  0  0  0
   37.2070   27.8910   42.2900 C   0  0  1  0  0  0  0  0  0  0  0  0
   36.5400   27.3290   43.4850 C   0  0  0  0  0  0  0  0  0  0  0  0
   37.3940   26.4640   42.6930 C   0  0  1  0  0  0  0  0  0  0  0  0
   37.9430   28.6890   42.5750 H   0  0  0  0  0  0  0  0  0  0  0  0
   35.4260   27.3210   43.4250 H   0  0  0  0  0  0  0  0  0  0  0  0
   36.8530   27.5970   44.5160 H   0  0  0  0  0  0  0  0  0  0  0  0
   38.4220   26.2800   43.1070 H   0  0  0  0  0  0  0  0  0  0  0  0
   36.9450   25.3600   41.8140 C   0  0  0  0  0  2  0  0  0  0  0  0
   37.7140   24.1020   41.8200 C   0  0  0  0  0  2  0  0  0  0  0  0
   37.0580   23.2260   42.0120 H   0  0  0  0  0  0  0  0  0  0  0  0
   37.4030   30.3380   41.2800 C   0  0  0  0  0  3  0  0  0  0  0  0
   36.7620   29.5400   40.4920 C   0  0  0  0  0  3  0  0  0  0  0  0
   37.3240   33.5680   39.5440 C   0  0  0  0  0  0  0  0  0  0  0  0
   38.5370   34.1610   39.9180 C   0  0  0  0  0  0  0  0  0  0  0  0
   39.3560   33.4370   40.7500 C   0  0  0  0  0  0  0  0  0  0  0  0
   38.9440   32.2230   41.1460 N   0  0  0  0  0  0  0  0  0  0  0  0
   37.7870   31.6580   40.7890 C   0  0  0  0  0  0  0  0  0  0  0  0
   37.0020   32.3510   39.9920 N   0  0  0  0  0  0  0  0  0  0  0  0
   36.6510   34.1080   38.8890 H   0  0  0  0  0  0  0  0  0  0  0  0
   38.7580   35.1310   39.5410 H   0  0  0  0  0  0  0  0  0  0  0  0
   40.2920   33.8400   41.0660 H   0  0  0  0  0  0  0  0  0  0  0  0
  1  3  1  0  0  0  0
  1  4  1  0  0  0  0
  2  1  1  0  0  0  0
  4  7  1  1  0  0  0
  4  6  1  0  0  0  0
  4  5  1  0  0  0  0
  5  9  1  0  0  0  0
  6 10  1  1  0  0  0
  6  5  1  0  0  0  0
  8  5  1  0  0  0  0
 11 12  1  0  0  0  0
 11  6  1  0  0  0  0
 12 13  1  0  0  0  0
 15  1  1  0  0  0  0
 15 14  2  0  0  0  0
 16 17  2  0  0  0  0
 16 21  1  0  0  0  0
 17 18  1  0  0  0  0
 18 24  1  0  0  0  0
 18 19  2  0  0  0  0
 20 19  1  0  0  0  0
 20 14  1  0  0  0  0
 21 20  2  0  0  0  0
 22 16  1  0  0  0  0
 23 17  1  0  0  0  0
M  END
>  <minimizedAffinity>
-4.28826332

$$$$

 OpenBabel03252508123D

 24 25  0  0  1  0  0  0  0  0999 V2000
   37.7800   28.0800   43.4260 C   0  0  0  0  0  0  0  0  0  0  0  0
   37.3770   28.2930   44.4230 H   0  0  0  0  0  0  0  0  0  0  0  0
   38.8420   27.7860   43.3910 H   0  0  0  0  0  0  0  0  0  0  0  0
   36.9680   26.9350   42.8590 C   0  0  1  0  0  0  0  0  0  0  0  0
   37.0210   26.6570   41.4070 C   0  0  0  0  0  0  0  0  0  0  0  0
   37.6970   25.7500   42.3150 C   0  0  1  0  0  0  0  0  0  0  0  0
   35.9170   26.8570   43.2480 H   0  0  0  0  0  0  0  0  0  0  0  0
   37.5450   27.4400   40.8110 H   0  0  0  0  0  0  0  0  0  0  0  0
   36.1360   26.2930   40.8440 H   0  0  0  0  0  0  0  0  0  0  0  0
   37.1580   24.7890   42.5390 H   0  0  0  0  0  0  0  0  0  0  0  0
   39.1630   25.6150   42.4840 C   0  0  0  0  0  2  0  0  0  0  0  0
   39.6870   24.3800   43.0970 C   0  0  0  0  0  2  0  0  0  0  0  0
   40.4630   23.9080   42.4580 H   0  0  0  0  0  0  0  0  0  0  0  0
   38.5930   29.9510   42.1800 C   0  0  0  0  0  3  0  0  0  0  0  0
   37.5450   29.3340   42.6140 C   0  0  0  0  0  3  0  0  0  0  0  0
   39.1970   33.2410   40.6740 C   0  0  0  0  0  0  0  0  0  0  0  0
   38.0720   33.4320   39.8630 C   0  0  0  0  0  0  0  0  0  0  0  0
   37.1280   32.4330   39.8570 C   0  0  0  0  0  0  0  0  0  0  0  0
   37.3470   31.3510   40.6200 N   0  0  0  0  0  0  0  0  0  0  0  0
   38.4210   31.1690   41.3930 C   0  0  0  0  0  0  0  0  0  0  0  0
   39.3250   32.1250   41.4000 N   0  0  0  0  0  0  0  0  0  0  0  0
   39.9640   34.0060   40.7060 H   0  0  0  0  0  0  0  0  0  0  0  0
   38.0060   34.3330   39.3000 H   0  0  0  0  0  0  0  0  0  0  0  0
   36.2500   32.5260   39.2580 H   0  0  0  0  0  0  0  0  0  0  0  0
  1  2  1  0  0  0  0
  3  1  1  0  0  0  0
  4  7  1  1  0  0  0
  4  1  1  0  0  0  0
  5  6  1  0  0  0  0
  5  4  1  0  0  0  0
  6 11  1  0  0  0  0
  6 10  1  1  0  0  0
  6  4  1  0  0  0  0
  8  5  1  0  0  0  0
  9  5  1  0  0  0  0
 11 12  1  0  0  0  0
 13 12  1  0  0  0  0
 14 15  2  0  0  0  0
 15  1  1  0  0  0  0
 16 22  1  0  0  0  0
 16 21  1  0  0  0  0
 17 16  2  0  0  0  0
 18 17  1  0  0  0  0
 18 19  2  0  0  0  0
 19 20  1  0  0  0  0
 20 21  2  0  0  0  0
 20 14  1  0  0  0  0
 23 17  1  0  0  0  0
 24 18  1  0  0  0  0
M  END
>  <minimizedAffinity>
-4.25250101

$$$$

 OpenBabel03252508123D

 24 25  0  0  1  0  0  0  0  0999 V2000
   38.9860   28.1500   42.8180 C   0  0  0  0  0  0  0  0  0  0  0  0
   39.8420   28.2220   43.5000 H   0  0  0  0  0  0  0  0  0  0  0  0
   39.1380   27.5260   41.9220 H   0  0  0  0  0  0  0  0  0  0  0  0
   37.8430   27.5490   43.6090 C   0  0  1  0  0  0  0  0  0  0  0  0
   36.4540   27.7600   43.1490 C   0  0  0  0  0  0  0  0  0  0  0  0
   37.0510   26.4480   42.9840 C   0  0  1  0  0  0  0  0  0  0  0  0
   37.9230   27.6630   44.7240 H   0  0  0  0  0  0  0  0  0  0  0  0
   36.3530   28.5020   42.3230 H   0  0  0  0  0  0  0  0  0  0  0  0
   35.6090   27.8800   43.8600 H   0  0  0  0  0  0  0  0  0  0  0  0
   36.7470   25.6720   43.7380 H   0  0  0  0  0  0  0  0  0  0  0  0
   37.4760   25.8370   41.7030 C   0  0  0  0  0  2  0  0  0  0  0  0
   37.4810   24.3660   41.5950 C   0  0  0  0  0  2  0  0  0  0  0  0
   36.8990   24.0220   40.7130 H   0  0  0  0  0  0  0  0  0  0  0  0
   38.7720   29.8770   41.1780 C   0  0  0  0  0  3  0  0  0  0  0  0
   38.6550   29.5730   42.4280 C   0  0  0  0  0  3  0  0  0  0  0  0
   38.8910   33.5250   40.8160 C   0  0  0  0  0  0  0  0  0  0  0  0
   37.8780   33.7860   39.8850 C   0  0  0  0  0  0  0  0  0  0  0  0
   37.1730   32.7070   39.4080 C   0  0  0  0  0  0  0  0  0  0  0  0
   37.5000   31.4870   39.8620 N   0  0  0  0  0  0  0  0  0  0  0  0
   38.4660   31.2380   40.7500 C   0  0  0  0  0  0  0  0  0  0  0  0
   39.1410   32.2710   41.2070 N   0  0  0  0  0  0  0  0  0  0  0  0
   39.4690   34.3500   41.2150 H   0  0  0  0  0  0  0  0  0  0  0  0
   37.7080   34.7970   39.5980 H   0  0  0  0  0  0  0  0  0  0  0  0
   36.3900   32.8470   38.6980 H   0  0  0  0  0  0  0  0  0  0  0  0
  1  2  1  0  0  0  0
  1  4  1  0  0  0  0
  3  1  1  0  0  0  0
  4  7  1  1  0  0  0
  5  4  1  0  0  0  0
  5  9  1  0  0  0  0
  6  5  1  0  0  0  0
  6  4  1  0  0  0  0
  6 10  1  1  0  0  0
  8  5  1  0  0  0  0
 11  6  1  0  0  0  0
 12 11  1  0  0  0  0
 13 12  1  0  0  0  0
 14 15  2  0  0  0  0
 15  1  1  0  0  0  0
 16 21  1  0  0  0  0
 16 22  1  0  0  0  0
 17 16  2  0  0  0  0
 18 19  2  0  0  0  0
 18 17  1  0  0  0  0
 19 20  1  0  0  0  0
 20 14  1  0  0  0  0
 20 21  2  0  0  0  0
 23 17  1  0  0  0  0
 24 18  1  0  0  0  0
M  END
>  <minimizedAffinity>
-4.17143202

$$$$

 OpenBabel03252508123D

 24 25  0  0  1  0  0  0  0  0999 V2000
   39.0610   28.2580   43.0280 C   0  0  0  0  0  0  0  0  0  0  0  0
   39.7580   28.4730   43.8460 H   0  0  0  0  0  0  0  0  0  0  0  0
   39.4630   27.6480   42.2030 H   0  0  0  0  0  0  0  0  0  0  0  0
   37.8940   27.5050   43.6310 C   0  0  1  0  0  0  0  0  0  0  0  0
   36.5260   27.7640   43.1310 C   0  0  0  0  0  0  0  0  0  0  0  0
   37.1720   26.5140   42.7770 C   0  0  1  0  0  0  0  0  0  0  0  0
   37.9060   27.4240   44.7510 H   0  0  0  0  0  0  0  0  0  0  0  0
   36.4500   28.6380   42.4410 H   0  0  0  0  0  0  0  0  0  0  0  0
   35.6400   27.7410   43.7980 H   0  0  0  0  0  0  0  0  0  0  0  0
   36.8500   25.6130   43.3650 H   0  0  0  0  0  0  0  0  0  0  0  0
   37.6880   26.1460   41.4380 C   0  0  0  0  0  2  0  0  0  0  0  0
   36.9250   26.5730   40.2510 C   0  0  0  0  0  2  0  0  0  0  0  0
   37.5680   27.1230   39.5310 H   0  0  0  0  0  0  0  0  0  0  0  0
   38.9140   29.9090   41.3040 C   0  0  0  0  0  3  0  0  0  0  0  0
   38.6000   29.6070   42.5200 C   0  0  0  0  0  3  0  0  0  0  0  0
   37.1100   32.4660   39.3910 C   0  0  0  0  0  0  0  0  0  0  0  0
   37.7140   33.6600   39.8050 C   0  0  0  0  0  0  0  0  0  0  0  0
   38.7310   33.5600   40.7250 C   0  0  0  0  0  0  0  0  0  0  0  0
   39.0720   32.3380   41.1610 N   0  0  0  0  0  0  0  0  0  0  0  0
   38.4950   31.2000   40.7660 C   0  0  0  0  0  0  0  0  0  0  0  0
   37.5220   31.2950   39.8850 N   0  0  0  0  0  0  0  0  0  0  0  0
   36.3050   32.5040   38.6670 H   0  0  0  0  0  0  0  0  0  0  0  0
   37.3590   34.5730   39.3900 H   0  0  0  0  0  0  0  0  0  0  0  0
   39.2270   34.4370   41.0750 H   0  0  0  0  0  0  0  0  0  0  0  0
  1  4  1  0  0  0  0
  1  2  1  0  0  0  0
  3  1  1  0  0  0  0
  4  7  1  1  0  0  0
  5  4  1  0  0  0  0
  5  9  1  0  0  0  0
  6  5  1  0  0  0  0
  6 10  1  1  0  0  0
  6  4  1  0  0  0  0
  8  5  1  0  0  0  0
 11  6  1  0  0  0  0
 12 11  1  0  0  0  0
 13 12  1  0  0  0  0
 14 15  2  0  0  0  0
 15  1  1  0  0  0  0
 16 17  2  0  0  0  0
 16 21  1  0  0  0  0
 17 18  1  0  0  0  0
 18 24  1  0  0  0  0
 18 19  2  0  0  0  0
 20 19  1  0  0  0  0
 20 14  1  0  0  0  0
 21 20  2  0  0  0  0
 22 16  1  0  0  0  0
 23 17  1  0  0  0  0
M  END
>  <minimizedAffinity>
-4.16926956

$$$$

 OpenBabel03252508123D

 24 25  0  0  1  0  0  0  0  0999 V2000
   35.8950   29.3400   40.9690 C   0  0  0  0  0  0  0  0  0  0  0  0
   35.1220   29.1960   41.7330 H   0  0  0  0  0  0  0  0  0  0  0  0
   35.5450   29.3290   39.9240 H   0  0  0  0  0  0  0  0  0  0  0  0
   36.5240   30.6920   41.2290 C   0  0  1  0  0  0  0  0  0  0  0  0
   37.9680   30.8830   40.9710 C   0  0  0  0  0  0  0  0  0  0  0  0
   37.0120   31.4840   40.0590 C   0  0  1  0  0  0  0  0  0  0  0  0
   36.2170   31.1850   42.1900 H   0  0  0  0  0  0  0  0  0  0  0  0
   38.5220   29.9390   40.7530 H   0  0  0  0  0  0  0  0  0  0  0  0
   38.5980   31.5440   41.6010 H   0  0  0  0  0  0  0  0  0  0  0  0
   36.8310   32.5840   40.1950 H   0  0  0  0  0  0  0  0  0  0  0  0
   36.7320   31.0440   38.6730 C   0  0  0  0  0  2  0  0  0  0  0  0
   37.8690   30.6670   37.8130 C   0  0  0  0  0  2  0  0  0  0  0  0
   37.7290   29.6570   37.3740 H   0  0  0  0  0  0  0  0  0  0  0  0
   36.8670   27.6460   42.3480 C   0  0  0  0  0  3  0  0  0  0  0  0
   36.9100   28.2430   41.2040 C   0  0  0  0  0  3  0  0  0  0  0  0
   38.5460   24.3850   42.3590 C   0  0  0  0  0  0  0  0  0  0  0  0
   39.6810   24.6130   43.1470 C   0  0  0  0  0  0  0  0  0  0  0  0
   39.8410   25.8770   43.6630 C   0  0  0  0  0  0  0  0  0  0  0  0
   38.9080   26.7990   43.3780 N   0  0  0  0  0  0  0  0  0  0  0  0
   37.8260   26.5810   42.6260 C   0  0  0  0  0  0  0  0  0  0  0  0
   37.6730   25.3710   42.1320 N   0  0  0  0  0  0  0  0  0  0  0  0
   38.3850   23.4010   41.9340 H   0  0  0  0  0  0  0  0  0  0  0  0
   40.3530   23.8030   43.3050 H   0  0  0  0  0  0  0  0  0  0  0  0
   40.6860   26.1060   44.2710 H   0  0  0  0  0  0  0  0  0  0  0  0
  1 15  1  0  0  0  0
  1  4  1  0  0  0  0
  1  2  1  0  0  0  0
  3  1  1  0  0  0  0
  4  7  1  1  0  0  0
  5  4  1  0  0  0  0
  5  9  1  0  0  0  0
  6 10  1  1  0  0  0
  6  5  1  0  0  0  0
  6  4  1  0  0  0  0
  8  5  1  0  0  0  0
 11  6  1  0  0  0  0
 12 11  1  0  0  0  0
 13 12  1  0  0  0  0
 14 20  1  0  0  0  0
 15 14  2  0  0  0  0
 16 17  1  0  0  0  0
 17 23  1  0  0  0  0
 17 18  2  0  0  0  0
 18 24  1  0  0  0  0
 19 18  1  0  0  0  0
 20 19  2  0  0  0  0
 21 16  2  0  0  0  0
 21 20  1  0  0  0  0
 22 16  1  0  0  0  0
M  END
>  <minimizedAffinity>
-4.08274317

$$$$

 OpenBabel03252508123D

 24 25  0  0  1  0  0  0  0  0999 V2000
   37.1710   26.5040   42.5660 C   0  0  0  0  0  0  0  0  0  0  0  0
   36.2190   26.0840   42.2220 H   0  0  0  0  0  0  0  0  0  0  0  0
   37.3310   26.5000   43.6560 H   0  0  0  0  0  0  0  0  0  0  0  0
   38.2710   25.6760   41.9350 C   0  0  1  0  0  0  0  0  0  0  0  0
   38.5950   24.3490   42.5020 C   0  0  0  0  0  0  0  0  0  0  0  0
   37.8920   24.4120   41.2340 C   0  0  1  0  0  0  0  0  0  0  0  0
   39.2040   26.2430   41.6730 H   0  0  0  0  0  0  0  0  0  0  0  0
   38.0950   24.1330   43.4760 H   0  0  0  0  0  0  0  0  0  0  0  0
   39.6320   23.9540   42.5230 H   0  0  0  0  0  0  0  0  0  0  0  0
   38.5190   24.2400   40.3180 H   0  0  0  0  0  0  0  0  0  0  0  0
   36.4700   24.0650   41.0050 C   0  0  0  0  0  2  0  0  0  0  0  0
   35.9650   24.0580   39.6200 C   0  0  0  0  0  2  0  0  0  0  0  0
   35.4710   23.0940   39.3730 H   0  0  0  0  0  0  0  0  0  0  0  0
   36.9670   28.0660   40.7660 C   0  0  0  0  0  3  0  0  0  0  0  0
   37.2120   27.9170   42.0250 C   0  0  0  0  0  3  0  0  0  0  0  0
   36.9590   30.8230   38.3470 C   0  0  0  0  0  0  0  0  0  0  0  0
   37.0170   31.9610   39.1610 C   0  0  0  0  0  0  0  0  0  0  0  0
   37.0640   31.7570   40.5190 C   0  0  0  0  0  0  0  0  0  0  0  0
   37.0520   30.4940   40.9700 N   0  0  0  0  0  0  0  0  0  0  0  0
   36.9960   29.4080   40.1940 C   0  0  0  0  0  0  0  0  0  0  0  0
   36.9510   29.6030   38.8930 N   0  0  0  0  0  0  0  0  0  0  0  0
   36.9200   30.9420   37.2710 H   0  0  0  0  0  0  0  0  0  0  0  0
   37.0210   32.9150   38.6890 H   0  0  0  0  0  0  0  0  0  0  0  0
   37.1100   32.5880   41.1860 H   0  0  0  0  0  0  0  0  0  0  0  0
  1  3  1  0  0  0  0
  2  1  1  0  0  0  0
  4  7  1  6  0  0  0
  4  5  1  0  0  0  0
  4  1  1  0  0  0  0
  5  9  1  0  0  0  0
  5  8  1  0  0  0  0
  6 10  1  6  0  0  0
  6  4  1  0  0  0  0
  6  5  1  0  0  0  0
 11  6  1  0  0  0  0
 12 11  1  0  0  0  0
 13 12  1  0  0  0  0
 14 15  2  0  0  0  0
 15  1  1  0  0  0  0
 16 21  2  0  0  0  0
 16 17  1  0  0  0  0
 17 18  2  0  0  0  0
 18 19  1  0  0  0  0
 18 24  1  0  0  0  0
 20 14  1  0  0  0  0
 20 19  2  0  0  0  0
 21 20  1  0  0  0  0
 22 16  1  0  0  0  0
 23 17  1  0  0  0  0
M  END
>  <minimizedAffinity>
-3.77182007

$$$$

 OpenBabel03252508123D

 24 25  0  0  1  0  0  0  0  0999 V2000
   35.6770   28.6430   40.4820 C   0  0  0  0  0  0  0  0  0  0  0  0
   35.3670   29.2830   41.3170 H   0  0  0  0  0  0  0  0  0  0  0  0
   34.9360   27.9000   40.1460 H   0  0  0  0  0  0  0  0  0  0  0  0
   35.9740   29.5590   39.3130 C   0  0  1  0  0  0  0  0  0  0  0  0
   36.5330   28.9880   38.0680 C   0  0  0  0  0  0  0  0  0  0  0  0
   35.1480   29.4180   38.0760 C   0  0  1  0  0  0  0  0  0  0  0  0
   36.4810   30.5240   39.5800 H   0  0  0  0  0  0  0  0  0  0  0  0
   36.8510   27.9230   38.1560 H   0  0  0  0  0  0  0  0  0  0  0  0
   37.2640   29.5420   37.4420 H   0  0  0  0  0  0  0  0  0  0  0  0
   34.9410   30.4130   37.5970 H   0  0  0  0  0  0  0  0  0  0  0  0
   33.9590   28.5340   38.0510 C   0  0  0  0  0  2  0  0  0  0  0  0
   33.9560   27.3890   37.1220 C   0  0  0  0  0  2  0  0  0  0  0  0
   33.7330   26.4380   37.6510 H   0  0  0  0  0  0  0  0  0  0  0  0
   36.9240   27.4120   42.1090 C   0  0  0  0  0  3  0  0  0  0  0  0
   36.9470   27.9610   40.9400 C   0  0  0  0  0  3  0  0  0  0  0  0
   40.1840   26.8130   43.6800 C   0  0  0  0  0  0  0  0  0  0  0  0
   40.3560   25.4300   43.5410 C   0  0  0  0  0  0  0  0  0  0  0  0
   39.3530   24.7360   42.9070 C   0  0  0  0  0  0  0  0  0  0  0  0
   38.2880   25.4230   42.4670 N   0  0  0  0  0  0  0  0  0  0  0  0
   38.1250   26.7420   42.6000 C   0  0  0  0  0  0  0  0  0  0  0  0
   39.0840   27.4070   43.2070 N   0  0  0  0  0  0  0  0  0  0  0  0
   40.9520   27.3950   44.1750 H   0  0  0  0  0  0  0  0  0  0  0  0
   41.2440   24.9930   43.9310 H   0  0  0  0  0  0  0  0  0  0  0  0
   39.4320   23.6810   42.7730 H   0  0  0  0  0  0  0  0  0  0  0  0
  1 15  1  0  0  0  0
  1  2  1  0  0  0  0
  3  1  1  0  0  0  0
  4  7  1  1  0  0  0
  4  1  1  0  0  0  0
  5  6  1  0  0  0  0
  5  8  1  0  0  0  0
  5  4  1  0  0  0  0
  6 10  1  6  0  0  0
  6  4  1  0  0  0  0
  9  5  1  0  0  0  0
 11  6  1  0  0  0  0
 12 13  1  0  0  0  0
 12 11  1  0  0  0  0
 14 20  1  0  0  0  0
 15 14  2  0  0  0  0
 16 22  1  0  0  0  0
 17 16  1  0  0  0  0
 17 23  1  0  0  0  0
 18 17  2  0  0  0  0
 19 20  2  0  0  0  0
 19 18  1  0  0  0  0
 20 21  1  0  0  0  0
 21 16  2  0  0  0  0
 24 18  1  0  0  0  0
M  END
>  <minimizedAffinity>
-3.69642472

$$$$

 OpenBabel03252508123D

 24 25  0  0  1  0  0  0  0  0999 V2000
   36.4190   29.0900   41.3540 C   0  0  0  0  0  0  0  0  0  0  0  0
   36.1360   29.9090   42.0250 H   0  0  0  0  0  0  0  0  0  0  0  0
   37.4490   29.1250   40.9610 H   0  0  0  0  0  0  0  0  0  0  0  0
   36.2730   27.8050   42.1420 C   0  0  1  0  0  0  0  0  0  0  0  0
   37.1480   26.6560   41.8260 C   0  0  0  0  0  0  0  0  0  0  0  0
   37.3880   27.3990   43.0490 C   0  0  1  0  0  0  0  0  0  0  0  0
   35.2150   27.4720   42.3180 H   0  0  0  0  0  0  0  0  0  0  0  0
   37.7520   26.7830   40.8970 H   0  0  0  0  0  0  0  0  0  0  0  0
   36.7930   25.6070   41.8960 H   0  0  0  0  0  0  0  0  0  0  0  0
   37.0070   26.9250   43.9930 H   0  0  0  0  0  0  0  0  0  0  0  0
   38.5280   28.3100   43.3090 C   0  0  0  0  0  2  0  0  0  0  0  0
   39.8950   27.7610   43.2350 C   0  0  0  0  0  2  0  0  0  0  0  0
   40.5340   28.3560   42.5490 H   0  0  0  0  0  0  0  0  0  0  0  0
   35.8740   28.9430   39.0310 C   0  0  0  0  0  3  0  0  0  0  0  0
   35.4140   29.1220   40.2240 C   0  0  0  0  0  3  0  0  0  0  0  0
   32.7730   28.9920   37.0720 C   0  0  0  0  0  0  0  0  0  0  0  0
   33.2310   29.0500   35.7500 C   0  0  0  0  0  0  0  0  0  0  0  0
   34.5920   29.0630   35.5610 C   0  0  0  0  0  0  0  0  0  0  0  0
   35.3830   29.0210   36.6440 N   0  0  0  0  0  0  0  0  0  0  0  0
   34.9450   28.9670   37.9040 C   0  0  0  0  0  0  0  0  0  0  0  0
   33.6420   28.9540   38.0870 N   0  0  0  0  0  0  0  0  0  0  0  0
   31.7060   28.9810   37.2630 H   0  0  0  0  0  0  0  0  0  0  0  0
   32.5090   29.0800   34.9690 H   0  0  0  0  0  0  0  0  0  0  0  0
   34.9970   29.1060   34.5740 H   0  0  0  0  0  0  0  0  0  0  0  0
  1  2  1  0  0  0  0
  1  4  1  0  0  0  0
  3  1  1  0  0  0  0
  4  7  1  1  0  0  0
  4  6  1  0  0  0  0
  5  9  1  0  0  0  0
  5  4  1  0  0  0  0
  5  6  1  0  0  0  0
  6 11  1  0  0  0  0
  6 10  1  1  0  0  0
  8  5  1  0  0  0  0
 12 11  1  0  0  0  0
 13 12  1  0  0  0  0
 14 15  2  0  0  0  0
 15  1  1  0  0  0  0
 16 22  1  0  0  0  0
 16 21  1  0  0  0  0
 17 16  2  0  0  0  0
 18 17  1  0  0  0  0
 18 19  2  0  0  0  0
 19 20  1  0  0  0  0
 20 21  2  0  0  0  0
 20 14  1  0  0  0  0
 23 17  1  0  0  0  0
 24 18  1  0  0  0  0
M  END
>  <minimizedAffinity>
-3.6851685

$$$$

 OpenBabel03252508123D

 24 25  0  0  1  0  0  0  0  0999 V2000
   39.3800   28.4890   42.9610 C   0  0  0  0  0  0  0  0  0  0  0  0
   38.4200   28.8200   43.3740 H   0  0  0  0  0  0  0  0  0  0  0  0
   40.1300   28.1560   43.6970 H   0  0  0  0  0  0  0  0  0  0  0  0
   39.0840   27.3190   42.0450 C   0  0  1  0  0  0  0  0  0  0  0  0
   38.4030   26.1250   42.5900 C   0  0  0  0  0  0  0  0  0  0  0  0
   37.6570   27.0160   41.7210 C   0  0  1  0  0  0  0  0  0  0  0  0
   39.9220   27.0280   41.3570 H   0  0  0  0  0  0  0  0  0  0  0  0
   38.3070   26.1210   43.7010 H   0  0  0  0  0  0  0  0  0  0  0  0
   38.6360   25.1000   42.2350 H   0  0  0  0  0  0  0  0  0  0  0  0
   37.5340   26.6740   40.6580 H   0  0  0  0  0  0  0  0  0  0  0  0
   36.5710   27.9340   42.1360 C   0  0  0  0  0  2  0  0  0  0  0  0
   35.8650   28.7020   41.0930 C   0  0  0  0  0  2  0  0  0  0  0  0
   34.7650   28.5610   41.1600 H   0  0  0  0  0  0  0  0  0  0  0  0
   39.2140   30.7490   42.1980 C   0  0  0  0  0  3  0  0  0  0  0  0
   39.9030   29.6580   42.1550 C   0  0  0  0  0  3  0  0  0  0  0  0
   41.3940   33.1340   40.4610 C   0  0  0  0  0  0  0  0  0  0  0  0
   40.4940   34.0860   39.9650 C   0  0  0  0  0  0  0  0  0  0  0  0
   39.1620   33.8920   40.2440 C   0  0  0  0  0  0  0  0  0  0  0  0
   38.8160   32.8140   40.9640 N   0  0  0  0  0  0  0  0  0  0  0  0
   39.6750   31.9060   41.4370 C   0  0  0  0  0  0  0  0  0  0  0  0
   40.9500   32.0910   41.1710 N   0  0  0  0  0  0  0  0  0  0  0  0
   42.4520   33.2520   40.2630 H   0  0  0  0  0  0  0  0  0  0  0  0
   40.8850   34.9010   39.4050 H   0  0  0  0  0  0  0  0  0  0  0  0
   38.4330   34.5860   39.8910 H   0  0  0  0  0  0  0  0  0  0  0  0
  1  2  1  0  0  0  0
  1  3  1  0  0  0  0
  4  7  1  6  0  0  0
  4  5  1  0  0  0  0
  4  1  1  0  0  0  0
  5  8  1  0  0  0  0
  6 10  1  6  0  0  0
  6  4  1  0  0  0  0
  6 11  1  0  0  0  0
  6  5  1  0  0  0  0
  9  5  1  0  0  0  0
 12 13  1  0  0  0  0
 12 11  1  0  0  0  0
 15 14  2  0  0  0  0
 15  1  1  0  0  0  0
 16 21  1  0  0  0  0
 17 18  1  0  0  0  0
 17 16  2  0  0  0  0
 18 19  2  0  0  0  0
 19 20  1  0  0  0  0
 20 14  1  0  0  0  0
 21 20  2  0  0  0  0
 22 16  1  0  0  0  0
 23 17  1  0  0  0  0
 24 18  1  0  0  0  0
M  END
>  <minimizedAffinity>
-3.68298888

$$$$
