
 OpenBabel03252503533D

 30 31  0  0  1  0  0  0  0  0999 V2000
   45.6100   32.8460   46.5920 N   0  0  0  0  0  0  0  0  0  0  0  0
   45.1460   33.1270   47.9370 C   0  0  0  0  0  0  0  0  0  0  0  0
   45.8160   32.1420   48.8580 C   0  0  0  0  0  0  0  0  0  0  0  0
   45.3820   30.7530   48.5640 C   0  0  0  0  0  0  0  0  0  0  0  0
   45.3250   30.4940   47.0800 C   0  0  0  0  0  0  0  0  0  0  0  0
   46.1080   31.5560   46.3280 C   0  0  2  0  0  0  0  0  0  0  0  0
   45.4830   34.1340   48.2700 H   0  0  0  0  0  0  0  0  0  0  0  0
   44.0520   33.0080   48.0380 H   0  0  0  0  0  0  0  0  0  0  0  0
   45.3330   32.3960   49.8860 H   0  0  0  0  0  0  0  0  0  0  0  0
   46.8670   32.3330   49.0700 H   0  0  0  0  0  0  0  0  0  0  0  0
   44.3750   30.5880   49.0210 H   0  0  0  0  0  0  0  0  0  0  0  0
   46.1130   30.0210   48.9820 H   0  0  0  0  0  0  0  0  0  0  0  0
   44.2630   30.5730   46.7080 H   0  0  0  0  0  0  0  0  0  0  0  0
   45.7020   29.5010   46.7840 H   0  0  0  0  0  0  0  0  0  0  0  0
   45.7990   31.3390   45.2430 H   0  0  0  0  0  0  0  0  0  0  0  0
   46.1180   34.7250   43.4360 C   0  0  0  0  0  0  0  0  0  0  0  0
   46.2420   33.7230   44.4070 C   0  0  0  0  0  0  0  0  0  0  0  0
   45.5270   33.8230   45.5860 C   0  0  0  0  0  0  0  0  0  0  0  0
   44.7310   34.8980   45.7390 N   0  0  0  0  0  0  0  0  0  0  0  0
   44.6090   35.8700   44.8000 C   0  0  0  0  0  0  0  0  0  0  0  0
   45.3080   35.7730   43.6490 N   0  0  0  0  0  0  0  0  0  0  0  0
   46.8830   32.9120   44.1890 H   0  0  0  0  0  0  0  0  0  0  0  0
   43.9430   36.7140   44.9920 H   0  0  0  0  0  0  0  0  0  0  0  0
   46.9220   34.5760   42.1910 C   0  0  0  0  0  0  0  0  0  0  0  0
   46.1440   34.4090   41.0780 F   0  0  0  0  0  0  0  0  0  0  0  0
   47.7620   35.6990   42.1020 F   0  0  0  0  0  0  0  0  0  0  0  0
   47.8170   33.4980   42.3450 F   0  0  0  0  0  0  0  0  0  0  0  0
   47.5490   31.2540   46.3790 C   0  0  0  0  0  0  0  0  0  0  0  0
   47.8520   29.9180   45.6480 C   0  0  0  0  0  0  0  0  0  0  0  0
   47.1370   29.8910   44.8030 H   0  0  0  0  0  0  0  0  0  0  0  0
  1  2  1  0  0  0  0
  2  8  1  0  0  0  0
  2  7  1  0  0  0  0
  2  3  1  0  0  0  0
  3 10  1  0  0  0  0
  3  9  1  0  0  0  0
  4  3  1  0  0  0  0
  4 12  1  0  0  0  0
  4 11  1  0  0  0  0
  5  4  1  0  0  0  0
  6 15  1  6  0  0  0
  6 28  1  0  0  0  0
  6  1  1  0  0  0  0
  6  5  1  0  0  0  0
 13  5  1  0  0  0  0
 14  5  1  0  0  0  0
 16 21  2  0  0  0  0
 16 17  1  0  0  0  0
 17 18  2  0  0  0  0
 18 19  1  0  0  0  0
 18  1  1  0  0  0  0
 20 23  1  0  0  0  0
 20 19  2  0  0  0  0
 21 20  1  0  0  0  0
 22 17  1  0  0  0  0
 24 27  1  0  0  0  0
 24 16  1  0  0  0  0
 25 24  1  0  0  0  0
 26 24  1  0  0  0  0
 29 28  1  0  0  0  0
 30 29  1  0  0  0  0
M  END
>  <minimizedAffinity>
-5.17120934

>  <minimizedRMSD>
0.588196933

$$$$
