
 OpenBabel03252509203D

 19 20  0  0  0  0  0  0  0  0999 V2000
   45.3370   33.9220   44.4280 C   0  0  0  0  0  0  0  0  0  0  0  0
   45.8240   34.8020   43.4430 C   0  0  0  0  0  0  0  0  0  0  0  0
   47.1110   34.4990   43.0010 C   0  0  0  0  0  0  0  0  0  0  0  0
   47.8060   33.4170   43.5150 N   0  0  0  0  0  0  0  0  0  0  0  0
   47.2810   32.6160   44.4530 C   0  0  0  0  0  0  0  0  0  0  0  0
   46.0310   32.8840   44.9060 N   0  0  0  0  0  0  0  0  0  0  0  0
   44.3240   34.0990   44.8280 H   0  0  0  0  0  0  0  0  0  0  0  0
   47.9460   31.8360   44.7360 H   0  0  0  0  0  0  0  0  0  0  0  0
   47.6820   35.3320   41.8750 C   0  0  0  0  0  0  0  0  0  0  0  0
   49.2200   35.3540   41.9550 C   0  0  0  0  0  0  0  0  0  0  0  0
   48.3930   34.6550   40.8270 C   0  0  0  0  0  0  0  0  0  0  0  0
   47.3490   36.3900   41.8340 H   0  0  0  0  0  0  0  0  0  0  0  0
   49.7030   34.6730   42.6750 H   0  0  0  0  0  0  0  0  0  0  0  0
   49.7470   36.2690   41.6380 H   0  0  0  0  0  0  0  0  0  0  0  0
   48.5420   35.0850   39.8050 H   0  0  0  0  0  0  0  0  0  0  0  0
   48.4310   33.5260   40.8560 H   0  0  0  0  0  0  0  0  0  0  0  0
   45.0460   35.9280   42.9370 C   0  0  0  0  0  2  0  0  0  0  0  0
   44.9910   37.1310   43.8170 C   0  0  0  0  0  2  0  0  0  0  0  0
   45.4630   36.9920   44.8110 H   0  0  0  0  0  0  0  0  0  0  0  0
  1  7  1  0  0  0  0
  1  6  1  0  0  0  0
  2  1  2  0  0  0  0
  3  2  1  0  0  0  0
  3  4  2  0  0  0  0
  4  5  1  0  0  0  0
  5  8  1  0  0  0  0
  5  6  2  0  0  0  0
  9 10  1  0  0  0  0
  9  3  1  0  0  0  0
 10 13  1  0  0  0  0
 11 16  1  0  0  0  0
 11  9  1  0  0  0  0
 11 10  1  0  0  0  0
 12  9  1  0  0  0  0
 14 10  1  0  0  0  0
 15 11  1  0  0  0  0
 17  2  1  0  0  0  0
 17 18  1  0  0  0  0
 18 19  1  0  0  0  0
M  END
>  <minimizedAffinity>
-3.72427058

>  <minimizedRMSD>
1.60557508

$$$$
