
 OpenBabel03242518193D

 24 25  0  0  0  0  0  0  0  0999 V2000
   45.6030   32.2410   44.1470 C   0  0  0  0  0  0  0  0  0  0  0  0
   44.6440   31.7460   43.9830 H   0  0  0  0  0  0  0  0  0  0  0  0
   46.3300   31.8220   43.4030 H   0  0  0  0  0  0  0  0  0  0  0  0
   44.7540   35.7780   44.6370 C   0  0  0  0  0  0  0  0  0  0  0  0
   45.2380   36.4050   43.4880 C   0  0  0  0  0  0  0  0  0  0  0  0
   45.8560   35.6080   42.5500 C   0  0  0  0  0  0  0  0  0  0  0  0
   45.9650   34.2870   42.7700 N   0  0  0  0  0  0  0  0  0  0  0  0
   45.4840   33.7030   43.8980 C   0  0  0  0  0  0  0  0  0  0  0  0
   44.8680   34.4640   44.8480 N   0  0  0  0  0  0  0  0  0  0  0  0
   44.2450   36.3060   45.4530 H   0  0  0  0  0  0  0  0  0  0  0  0
   46.2160   36.1050   41.6840 H   0  0  0  0  0  0  0  0  0  0  0  0
   45.0400   37.8050   43.4140 N   0  0  0  0  0  0  0  0  0  0  0  0
   45.0850   38.3860   44.2610 H   0  0  0  0  0  0  0  0  0  0  0  0
   44.8520   38.1900   42.4820 H   0  0  0  0  0  0  0  0  0  0  0  0
   46.1040   31.9880   45.5400 C   0  0  0  0  0  0  0  0  0  0  0  0
   47.2720   31.3270   45.8180 C   0  0  0  0  0  0  0  0  0  0  0  0
   47.4130   31.2800   47.2080 C   0  0  0  0  0  0  0  0  0  0  0  0
   46.2950   31.9300   47.6970 C   0  0  0  0  0  0  0  0  0  0  0  0
   45.5950   32.3070   46.6850 O   0  0  0  0  0  0  0  0  0  0  0  0
   48.0230   30.8820   45.1530 H   0  0  0  0  0  0  0  0  0  0  0  0
   48.1790   30.8570   47.8430 H   0  0  0  0  0  0  0  0  0  0  0  0
   45.9330   32.1720   49.1310 C   0  0  0  0  0  0  0  0  0  0  0  0
   44.9830   31.0740   49.5610 C   0  0  0  0  0  0  0  0  0  0  0  0
   44.4500   30.7080   48.6460 H   0  0  0  0  0  0  0  0  0  0  0  0
  1 15  1  0  0  0  0
  2  1  1  0  0  0  0
  3  1  1  0  0  0  0
  4  9  1  0  0  0  0
  4 10  1  0  0  0  0
  5  4  2  0  0  0  0
  6  7  2  0  0  0  0
  6  5  1  0  0  0  0
  7  8  1  0  0  0  0
  8  1  1  0  0  0  0
  8  9  2  0  0  0  0
 11  6  1  0  0  0  0
 12  5  1  0  0  0  0
 12 13  1  0  0  0  0
 14 12  1  0  0  0  0
 15 16  2  0  0  0  0
 15 19  1  0  0  0  0
 16 17  1  0  0  0  0
 17 18  2  0  0  0  0
 17 21  1  0  0  0  0
 18 22  1  0  0  0  0
 19 18  1  0  0  0  0
 20 16  1  0  0  0  0
 22 23  1  0  0  0  0
 24 23  1  0  0  0  0
M  END
>  <minimizedAffinity>
-4.27258158

>  <minimizedRMSD>
1.13368118

$$$$
