
 OpenBabel03252509203D

 19 20  0  0  0  0  0  0  0  0999 V2000
   44.7510   35.0820   45.0610 C   0  0  0  0  0  0  0  0  0  0  0  0
   45.3950   35.1560   43.8110 C   0  0  0  0  0  0  0  0  0  0  0  0
   46.4680   34.2780   43.6740 C   0  0  0  0  0  0  0  0  0  0  0  0
   46.8300   33.4260   44.7050 N   0  0  0  0  0  0  0  0  0  0  0  0
   46.1720   33.4050   45.8730 C   0  0  0  0  0  0  0  0  0  0  0  0
   45.1220   34.2490   46.0390 N   0  0  0  0  0  0  0  0  0  0  0  0
   43.8920   35.7480   45.2430 H   0  0  0  0  0  0  0  0  0  0  0  0
   46.5780   32.6950   46.5520 H   0  0  0  0  0  0  0  0  0  0  0  0
   47.1630   34.2190   42.3310 C   0  0  0  0  0  0  0  0  0  0  0  0
   48.6350   34.6460   42.4730 C   0  0  0  0  0  0  0  0  0  0  0  0
   48.1530   33.2000   42.1270 C   0  0  0  0  0  0  0  0  0  0  0  0
   46.7240   34.8460   41.5270 H   0  0  0  0  0  0  0  0  0  0  0  0
   49.0320   34.7780   43.4930 H   0  0  0  0  0  0  0  0  0  0  0  0
   49.1060   35.1860   41.6350 H   0  0  0  0  0  0  0  0  0  0  0  0
   48.4620   32.8340   41.1160 H   0  0  0  0  0  0  0  0  0  0  0  0
   48.3170   32.4460   42.9530 H   0  0  0  0  0  0  0  0  0  0  0  0
   44.9700   36.0740   42.7590 C   0  0  0  0  0  2  0  0  0  0  0  0
   43.8510   35.6050   41.8950 C   0  0  0  0  0  2  0  0  0  0  0  0
   43.5350   34.5570   42.0830 H   0  0  0  0  0  0  0  0  0  0  0  0
  1  7  1  0  0  0  0
  1  6  1  0  0  0  0
  2  1  2  0  0  0  0
  3  2  1  0  0  0  0
  3  4  2  0  0  0  0
  4  5  1  0  0  0  0
  5  6  2  0  0  0  0
  5  8  1  0  0  0  0
  9 10  1  0  0  0  0
  9  3  1  0  0  0  0
 10 13  1  0  0  0  0
 11  9  1  0  0  0  0
 11 10  1  0  0  0  0
 11 16  1  0  0  0  0
 12  9  1  0  0  0  0
 14 10  1  0  0  0  0
 15 11  1  0  0  0  0
 17  2  1  0  0  0  0
 18 19  1  0  0  0  0
 18 17  1  0  0  0  0
M  END
>  <minimizedAffinity>
-3.67291832

>  <minimizedRMSD>
1.06828821

$$$$
