
 OpenBabel03252508383D

 35 37  0  0  0  0  0  0  0  0999 V2000
   45.1160   33.9590   40.7310 C   0  0  0  0  0  0  0  0  0  0  0  0
   44.0770   33.6360   39.8950 C   0  0  0  0  0  0  0  0  0  0  0  0
   44.3800   33.1380   38.6600 C   0  0  0  0  0  0  0  0  0  0  0  0
   45.6650   32.9430   38.2120 C   0  0  0  0  0  0  0  0  0  0  0  0
   46.6920   33.2690   39.0600 C   0  0  0  0  0  0  0  0  0  0  0  0
   46.4390   33.7790   40.3280 C   0  0  0  0  0  0  0  0  0  0  0  0
   43.5260   32.8970   38.0350 H   0  0  0  0  0  0  0  0  0  0  0  0
   45.8490   32.5470   37.2300 H   0  0  0  0  0  0  0  0  0  0  0  0
   47.7140   33.1190   38.7210 H   0  0  0  0  0  0  0  0  0  0  0  0
   40.7920   35.2590   40.7940 C   0  0  0  0  0  0  0  0  0  0  0  0
   42.0900   35.0990   40.2810 C   0  0  0  0  0  0  0  0  0  0  0  0
   42.7380   33.8550   40.4070 C   0  0  0  0  0  0  0  0  0  0  0  0
   42.0190   32.8830   41.0400 N   0  0  0  0  0  0  0  0  0  0  0  0
   40.7870   33.0660   41.5160 C   0  0  0  0  0  0  0  0  0  0  0  0
   40.1760   34.2610   41.3900 N   0  0  0  0  0  0  0  0  0  0  0  0
   40.1930   36.5320   40.6390 N   0  0  0  0  0  0  0  0  0  0  0  0
   42.6240   35.9050   39.7870 H   0  0  0  0  0  0  0  0  0  0  0  0
   40.2280   32.2850   42.0170 H   0  0  0  0  0  0  0  0  0  0  0  0
   40.7600   37.3930   40.4850 H   0  0  0  0  0  0  0  0  0  0  0  0
   39.1810   36.7520   40.6590 H   0  0  0  0  0  0  0  0  0  0  0  0
   47.5910   34.0970   41.1460 C   0  0  0  0  0  0  0  0  0  0  0  0
   48.1410   35.3490   40.9300 C   0  0  0  0  0  0  0  0  0  0  0  0
   49.2500   35.8340   41.6210 C   0  0  0  0  0  0  0  0  0  0  0  0
   49.8170   35.0030   42.5690 C   0  0  0  0  0  0  0  0  0  0  0  0
   49.2820   33.7570   42.7940 C   0  0  0  0  0  0  0  0  0  0  0  0
   48.1700   33.2940   42.0890 C   0  0  0  0  0  0  0  0  0  0  0  0
   47.7280   36.0490   40.1860 H   0  0  0  0  0  0  0  0  0  0  0  0
   49.6440   36.8180   41.4140 H   0  0  0  0  0  0  0  0  0  0  0  0
   50.6760   35.4080   43.0860 H   0  0  0  0  0  0  0  0  0  0  0  0
   49.7670   33.1500   43.5470 H   0  0  0  0  0  0  0  0  0  0  0  0
   47.6340   31.9390   42.3430 C   0  0  0  0  0  2  0  0  0  0  0  0
   48.6270   30.8400   42.3840 C   0  0  0  0  0  2  0  0  0  0  0  0
   48.1800   29.8800   41.9950 H   0  0  0  0  0  0  0  0  0  0  0  0
   44.6970   34.9090   43.1150 N   0  0  0  0  0  0  0  0  0  0  0  0
   44.8830   34.4900   42.0410 C   0  0  0  0  0  0  0  0  0  0  0  0
  1 35  1  0  0  0  0
  2 12  1  0  0  0  0
  2  1  2  0  0  0  0
  3  2  1  0  0  0  0
  4  3  2  0  0  0  0
  4  5  1  0  0  0  0
  5  6  2  0  0  0  0
  6  1  1  0  0  0  0
  6 21  1  0  0  0  0
  7  3  1  0  0  0  0
  8  4  1  0  0  0  0
  9  5  1  0  0  0  0
 10 15  1  0  0  0  0
 11 12  1  0  0  0  0
 11 10  2  0  0  0  0
 12 13  2  0  0  0  0
 13 14  1  0  0  0  0
 14 18  1  0  0  0  0
 15 14  2  0  0  0  0
 16 20  1  0  0  0  0
 16 10  1  0  0  0  0
 17 11  1  0  0  0  0
 19 16  1  0  0  0  0
 21 26  1  0  0  0  0
 22 21  2  0  0  0  0
 22 23  1  0  0  0  0
 23 24  2  0  0  0  0
 24 25  1  0  0  0  0
 24 29  1  0  0  0  0
 25 30  1  0  0  0  0
 26 31  1  0  0  0  0
 26 25  2  0  0  0  0
 27 22  1  0  0  0  0
 28 23  1  0  0  0  0
 31 32  1  0  0  0  0
 33 32  1  0  0  0  0
 35 34  3  0  0  0  0
M  END
>  <minimizedAffinity>
-5.79647255

>  <minimizedRMSD>
0.0739740282

$$$$
