
 OpenBabel03252505353D

 24 25  0  0  0  0  0  0  0  0999 V2000
   37.6930   29.4200   41.5180 C   0  0  0  0  0  0  0  0  0  0  0  0
   38.2180   29.3050   42.7880 C   0  0  0  0  0  0  0  0  0  0  0  0
   37.8330   28.3080   43.6800 C   0  0  0  0  0  0  0  0  0  0  0  0
   36.8860   27.3860   43.2940 C   0  0  0  0  0  0  0  0  0  0  0  0
   36.3700   27.5120   42.0240 C   0  0  0  0  0  0  0  0  0  0  0  0
   36.7440   28.4960   41.1310 C   0  0  0  0  0  0  0  0  0  0  0  0
   38.9710   30.0210   43.1240 H   0  0  0  0  0  0  0  0  0  0  0  0
   38.2720   28.2610   44.6560 H   0  0  0  0  0  0  0  0  0  0  0  0
   36.5850   26.6170   43.9740 H   0  0  0  0  0  0  0  0  0  0  0  0
   35.6310   26.7860   41.7340 H   0  0  0  0  0  0  0  0  0  0  0  0
   39.7230   31.5400   39.1640 C   0  0  0  0  0  0  0  0  0  0  0  0
   39.3590   30.4380   39.9540 C   0  0  0  0  0  0  0  0  0  0  0  0
   38.1630   30.4910   40.6780 C   0  0  0  0  0  0  0  0  0  0  0  0
   37.4060   31.6050   40.5850 N   0  0  0  0  0  0  0  0  0  0  0  0
   37.7890   32.6530   39.8090 C   0  0  0  0  0  0  0  0  0  0  0  0
   38.9460   32.6200   39.1000 N   0  0  0  0  0  0  0  0  0  0  0  0
   36.9730   33.8260   39.7240 N   0  0  0  0  0  0  0  0  0  0  0  0
   40.6480   31.5000   38.6030 H   0  0  0  0  0  0  0  0  0  0  0  0
   39.9690   29.5500   40.0240 H   0  0  0  0  0  0  0  0  0  0  0  0
   36.2440   34.0750   39.0140 H   0  0  0  0  0  0  0  0  0  0  0  0
   37.3030   34.3620   40.5610 H   0  0  0  0  0  0  0  0  0  0  0  0
   36.1720   28.6130   39.7630 C   0  0  0  0  0  2  0  0  0  0  0  0
   34.7760   29.2330   39.8340 C   0  0  0  0  0  2  0  0  0  0  0  0
   34.2950   29.1060   38.8360 H   0  0  0  0  0  0  0  0  0  0  0  0
  1  2  1  0  0  0  0
  2  7  1  0  0  0  0
  2  3  2  0  0  0  0
  3  8  1  0  0  0  0
  4  3  1  0  0  0  0
  4  9  1  0  0  0  0
  5  4  2  0  0  0  0
  6  1  2  0  0  0  0
  6  5  1  0  0  0  0
 10  5  1  0  0  0  0
 11 12  1  0  0  0  0
 12 19  1  0  0  0  0
 12 13  2  0  0  0  0
 13  1  1  0  0  0  0
 14 13  1  0  0  0  0
 15 14  2  0  0  0  0
 16 11  2  0  0  0  0
 16 15  1  0  0  0  0
 17 15  1  0  0  0  0
 17 21  1  0  0  0  0
 18 11  1  0  0  0  0
 20 17  1  0  0  0  0
 22 23  1  0  0  0  0
 22  6  1  0  0  0  0
 24 23  1  0  0  0  0
M  END
>  <minimizedAffinity>
-4.99974489

$$$$

 OpenBabel03252505353D

 24 25  0  0  0  0  0  0  0  0999 V2000
   37.4940   29.2380   41.5160 C   0  0  0  0  0  0  0  0  0  0  0  0
   36.4210   28.3960   41.7120 C   0  0  0  0  0  0  0  0  0  0  0  0
   36.3460   27.4990   42.7750 C   0  0  0  0  0  0  0  0  0  0  0  0
   37.3820   27.4360   43.6780 C   0  0  0  0  0  0  0  0  0  0  0  0
   38.4480   28.2810   43.4710 C   0  0  0  0  0  0  0  0  0  0  0  0
   38.5330   29.1750   42.4220 C   0  0  0  0  0  0  0  0  0  0  0  0
   35.5830   28.4220   41.0130 H   0  0  0  0  0  0  0  0  0  0  0  0
   35.4890   26.8650   42.8840 H   0  0  0  0  0  0  0  0  0  0  0  0
   37.3320   26.7480   44.4980 H   0  0  0  0  0  0  0  0  0  0  0  0
   39.2510   28.2220   44.1840 H   0  0  0  0  0  0  0  0  0  0  0  0
   37.6000   30.6550   38.0320 C   0  0  0  0  0  0  0  0  0  0  0  0
   37.6450   29.7020   39.0620 C   0  0  0  0  0  0  0  0  0  0  0  0
   37.4680   30.1270   40.3830 C   0  0  0  0  0  0  0  0  0  0  0  0
   37.2590   31.4410   40.6120 N   0  0  0  0  0  0  0  0  0  0  0  0
   37.2210   32.3360   39.5890 C   0  0  0  0  0  0  0  0  0  0  0  0
   37.3910   31.9430   38.3010 N   0  0  0  0  0  0  0  0  0  0  0  0
   36.9980   33.7250   39.8520 N   0  0  0  0  0  0  0  0  0  0  0  0
   37.7370   30.3270   37.0090 H   0  0  0  0  0  0  0  0  0  0  0  0
   37.8120   28.6530   38.8720 H   0  0  0  0  0  0  0  0  0  0  0  0
   36.1020   34.2670   39.8380 H   0  0  0  0  0  0  0  0  0  0  0  0
   37.9730   34.0480   40.0600 H   0  0  0  0  0  0  0  0  0  0  0  0
   39.6950   30.0800   42.2170 C   0  0  0  0  0  2  0  0  0  0  0  0
   40.9960   29.3280   42.5020 C   0  0  0  0  0  2  0  0  0  0  0  0
   41.8190   30.0790   42.5530 H   0  0  0  0  0  0  0  0  0  0  0  0
  1  2  2  0  0  0  0
  1  6  1  0  0  0  0
  2  3  1  0  0  0  0
  3  8  1  0  0  0  0
  3  4  2  0  0  0  0
  4  9  1  0  0  0  0
  5  4  1  0  0  0  0
  5 10  1  0  0  0  0
  6  5  2  0  0  0  0
  7  2  1  0  0  0  0
 11 16  2  0  0  0  0
 11 12  1  0  0  0  0
 12 13  2  0  0  0  0
 13 14  1  0  0  0  0
 13  1  1  0  0  0  0
 15 17  1  0  0  0  0
 15 14  2  0  0  0  0
 16 15  1  0  0  0  0
 17 21  1  0  0  0  0
 18 11  1  0  0  0  0
 19 12  1  0  0  0  0
 20 17  1  0  0  0  0
 22  6  1  0  0  0  0
 22 23  1  0  0  0  0
 23 24  1  0  0  0  0
M  END
>  <minimizedAffinity>
-4.90342855

$$$$

 OpenBabel03252505353D

 24 25  0  0  0  0  0  0  0  0999 V2000
   37.1690   26.7860   40.9010 C   0  0  0  0  0  0  0  0  0  0  0  0
   36.7150   26.0530   39.8260 C   0  0  0  0  0  0  0  0  0  0  0  0
   36.4150   24.6950   39.9070 C   0  0  0  0  0  0  0  0  0  0  0  0
   36.5730   24.0400   41.1060 C   0  0  0  0  0  0  0  0  0  0  0  0
   37.0270   24.7830   42.1720 C   0  0  0  0  0  0  0  0  0  0  0  0
   37.3280   26.1290   42.1040 C   0  0  0  0  0  0  0  0  0  0  0  0
   36.5790   26.5440   38.8600 H   0  0  0  0  0  0  0  0  0  0  0  0
   36.0640   24.1700   39.0410 H   0  0  0  0  0  0  0  0  0  0  0  0
   36.3440   22.9960   41.1760 H   0  0  0  0  0  0  0  0  0  0  0  0
   37.1470   24.2600   43.1040 H   0  0  0  0  0  0  0  0  0  0  0  0
   38.8050   30.0510   39.9930 C   0  0  0  0  0  0  0  0  0  0  0  0
   38.6350   28.6640   40.1390 C   0  0  0  0  0  0  0  0  0  0  0  0
   37.4500   28.1850   40.7050 C   0  0  0  0  0  0  0  0  0  0  0  0
   36.5150   29.0800   41.0900 N   0  0  0  0  0  0  0  0  0  0  0  0
   36.7130   30.4150   40.9340 C   0  0  0  0  0  0  0  0  0  0  0  0
   37.8570   30.8990   40.3860 N   0  0  0  0  0  0  0  0  0  0  0  0
   35.7100   31.3490   41.3480 N   0  0  0  0  0  0  0  0  0  0  0  0
   39.7230   30.4220   39.5540 H   0  0  0  0  0  0  0  0  0  0  0  0
   39.3860   27.9540   39.8290 H   0  0  0  0  0  0  0  0  0  0  0  0
   34.9470   31.7950   40.7850 H   0  0  0  0  0  0  0  0  0  0  0  0
   35.9480   31.4620   42.3620 H   0  0  0  0  0  0  0  0  0  0  0  0
   37.8180   26.9130   43.2690 C   0  0  0  0  0  2  0  0  0  0  0  0
   39.2990   26.6190   43.5070 C   0  0  0  0  0  2  0  0  0  0  0  0
   39.5760   27.0440   44.5010 H   0  0  0  0  0  0  0  0  0  0  0  0
  1  6  1  0  0  0  0
  2  3  1  0  0  0  0
  2  1  2  0  0  0  0
  3  4  2  0  0  0  0
  4  9  1  0  0  0  0
  4  5  1  0  0  0  0
  5 10  1  0  0  0  0
  6  5  2  0  0  0  0
  6 22  1  0  0  0  0
  7  2  1  0  0  0  0
  8  3  1  0  0  0  0
 11 12  2  0  0  0  0
 11 16  1  0  0  0  0
 12 13  1  0  0  0  0
 13  1  1  0  0  0  0
 13 14  2  0  0  0  0
 15 14  1  0  0  0  0
 15 17  1  0  0  0  0
 16 15  2  0  0  0  0
 17 21  1  0  0  0  0
 18 11  1  0  0  0  0
 19 12  1  0  0  0  0
 20 17  1  0  0  0  0
 22 23  1  0  0  0  0
 23 24  1  0  0  0  0
M  END
>  <minimizedAffinity>
-4.89766216

$$$$

 OpenBabel03252505353D

 24 25  0  0  0  0  0  0  0  0999 V2000
   39.3190   25.8240   42.5580 C   0  0  0  0  0  0  0  0  0  0  0  0
   39.1720   24.6570   41.8400 C   0  0  0  0  0  0  0  0  0  0  0  0
   37.9320   24.1540   41.4550 C   0  0  0  0  0  0  0  0  0  0  0  0
   36.7900   24.8410   41.7980 C   0  0  0  0  0  0  0  0  0  0  0  0
   36.9490   26.0050   42.5150 C   0  0  0  0  0  0  0  0  0  0  0  0
   38.1740   26.5130   42.9020 C   0  0  0  0  0  0  0  0  0  0  0  0
   40.0590   24.0890   41.5510 H   0  0  0  0  0  0  0  0  0  0  0  0
   37.8710   23.2410   40.8960 H   0  0  0  0  0  0  0  0  0  0  0  0
   35.8330   24.4600   41.5060 H   0  0  0  0  0  0  0  0  0  0  0  0
   36.0500   26.5320   42.7780 H   0  0  0  0  0  0  0  0  0  0  0  0
   42.3510   27.9000   43.3690 C   0  0  0  0  0  0  0  0  0  0  0  0
   41.0230   27.5940   43.0260 C   0  0  0  0  0  0  0  0  0  0  0  0
   40.6500   26.2520   42.9030 C   0  0  0  0  0  0  0  0  0  0  0  0
   41.5860   25.3030   43.1200 N   0  0  0  0  0  0  0  0  0  0  0  0
   42.8610   25.6360   43.4500 C   0  0  0  0  0  0  0  0  0  0  0  0
   43.2420   26.9330   43.5740 N   0  0  0  0  0  0  0  0  0  0  0  0
   43.8390   24.6160   43.6760 N   0  0  0  0  0  0  0  0  0  0  0  0
   42.6400   28.9390   43.4640 H   0  0  0  0  0  0  0  0  0  0  0  0
   40.2800   28.3570   42.8540 H   0  0  0  0  0  0  0  0  0  0  0  0
   44.1390   24.1730   44.5770 H   0  0  0  0  0  0  0  0  0  0  0  0
   44.1700   24.4360   42.6990 H   0  0  0  0  0  0  0  0  0  0  0  0
   38.3230   27.7730   43.6770 C   0  0  0  0  0  2  0  0  0  0  0  0
   37.4980   28.8850   43.0260 C   0  0  0  0  0  2  0  0  0  0  0  0
   37.7990   29.8510   43.4930 H   0  0  0  0  0  0  0  0  0  0  0  0
  1  6  1  0  0  0  0
  1 13  1  0  0  0  0
  2  1  2  0  0  0  0
  3  4  2  0  0  0  0
  3  2  1  0  0  0  0
  4  5  1  0  0  0  0
  5 10  1  0  0  0  0
  5  6  2  0  0  0  0
  6 22  1  0  0  0  0
  7  2  1  0  0  0  0
  8  3  1  0  0  0  0
  9  4  1  0  0  0  0
 11 18  1  0  0  0  0
 11 16  1  0  0  0  0
 12 11  2  0  0  0  0
 13 12  1  0  0  0  0
 13 14  2  0  0  0  0
 14 15  1  0  0  0  0
 15 16  2  0  0  0  0
 15 17  1  0  0  0  0
 17 20  1  0  0  0  0
 19 12  1  0  0  0  0
 21 17  1  0  0  0  0
 23 24  1  0  0  0  0
 23 22  1  0  0  0  0
M  END
>  <minimizedAffinity>
-4.79367065

$$$$

 OpenBabel03252505353D

 24 25  0  0  0  0  0  0  0  0999 V2000
   37.5340   29.2100   41.7560 C   0  0  0  0  0  0  0  0  0  0  0  0
   37.5170   28.9890   43.1160 C   0  0  0  0  0  0  0  0  0  0  0  0
   37.2310   27.7480   43.6790 C   0  0  0  0  0  0  0  0  0  0  0  0
   36.9510   26.6820   42.8540 C   0  0  0  0  0  0  0  0  0  0  0  0
   36.9710   26.9160   41.4980 C   0  0  0  0  0  0  0  0  0  0  0  0
   37.2530   28.1420   40.9290 C   0  0  0  0  0  0  0  0  0  0  0  0
   37.7360   29.8140   43.7980 H   0  0  0  0  0  0  0  0  0  0  0  0
   37.2310   27.6270   44.7440 H   0  0  0  0  0  0  0  0  0  0  0  0
   36.7300   25.7250   43.2800 H   0  0  0  0  0  0  0  0  0  0  0  0
   36.7500   26.0760   40.8640 H   0  0  0  0  0  0  0  0  0  0  0  0
   37.3240   32.6370   40.2160 C   0  0  0  0  0  0  0  0  0  0  0  0
   36.9170   31.3610   40.6370 C   0  0  0  0  0  0  0  0  0  0  0  0
   37.8430   30.5350   41.2820 C   0  0  0  0  0  0  0  0  0  0  0  0
   39.0950   31.0030   41.4740 N   0  0  0  0  0  0  0  0  0  0  0  0
   39.4540   32.2440   41.0530 C   0  0  0  0  0  0  0  0  0  0  0  0
   38.5690   33.0590   40.4250 N   0  0  0  0  0  0  0  0  0  0  0  0
   40.7870   32.7220   41.2650 N   0  0  0  0  0  0  0  0  0  0  0  0
   36.6070   33.2770   39.7170 H   0  0  0  0  0  0  0  0  0  0  0  0
   35.9140   30.9930   40.4810 H   0  0  0  0  0  0  0  0  0  0  0  0
   41.1640   33.3070   42.0480 H   0  0  0  0  0  0  0  0  0  0  0  0
   41.2760   32.3280   40.4280 H   0  0  0  0  0  0  0  0  0  0  0  0
   37.2690   28.3720   39.4600 C   0  0  0  0  0  2  0  0  0  0  0  0
   35.8860   28.0890   38.8740 C   0  0  0  0  0  2  0  0  0  0  0  0
   35.9850   28.0580   37.7640 H   0  0  0  0  0  0  0  0  0  0  0  0
  1  2  1  0  0  0  0
  2  3  2  0  0  0  0
  2  7  1  0  0  0  0
  3  8  1  0  0  0  0
  4  9  1  0  0  0  0
  4  3  1  0  0  0  0
  5  4  2  0  0  0  0
  6  5  1  0  0  0  0
  6  1  2  0  0  0  0
 10  5  1  0  0  0  0
 11 16  2  0  0  0  0
 11 12  1  0  0  0  0
 12 13  2  0  0  0  0
 13 14  1  0  0  0  0
 13  1  1  0  0  0  0
 15 17  1  0  0  0  0
 15 14  2  0  0  0  0
 16 15  1  0  0  0  0
 17 20  1  0  0  0  0
 18 11  1  0  0  0  0
 19 12  1  0  0  0  0
 21 17  1  0  0  0  0
 22  6  1  0  0  0  0
 23 22  1  0  0  0  0
 24 23  1  0  0  0  0
M  END
>  <minimizedAffinity>
-4.75009584

$$$$

 OpenBabel03252505353D

 24 25  0  0  0  0  0  0  0  0999 V2000
   37.9040   29.1160   41.8690 C   0  0  0  0  0  0  0  0  0  0  0  0
   37.5080   28.9550   43.1790 C   0  0  0  0  0  0  0  0  0  0  0  0
   37.0190   27.7510   43.6800 C   0  0  0  0  0  0  0  0  0  0  0  0
   36.9190   26.6630   42.8430 C   0  0  0  0  0  0  0  0  0  0  0  0
   37.3180   26.8370   41.5370 C   0  0  0  0  0  0  0  0  0  0  0  0
   37.8050   28.0250   41.0300 C   0  0  0  0  0  0  0  0  0  0  0  0
   37.5750   29.7990   43.8680 H   0  0  0  0  0  0  0  0  0  0  0  0
   36.7240   27.6760   44.7080 H   0  0  0  0  0  0  0  0  0  0  0  0
   36.5440   25.7340   43.2210 H   0  0  0  0  0  0  0  0  0  0  0  0
   37.2350   25.9800   40.8930 H   0  0  0  0  0  0  0  0  0  0  0  0
   40.1040   32.0800   41.1380 C   0  0  0  0  0  0  0  0  0  0  0  0
   39.7330   30.7970   41.5720 C   0  0  0  0  0  0  0  0  0  0  0  0
   38.3950   30.4060   41.4570 C   0  0  0  0  0  0  0  0  0  0  0  0
   37.5130   31.2830   40.9310 N   0  0  0  0  0  0  0  0  0  0  0  0
   37.9080   32.5170   40.5210 C   0  0  0  0  0  0  0  0  0  0  0  0
   39.2020   32.9150   40.6250 N   0  0  0  0  0  0  0  0  0  0  0  0
   36.9580   33.4330   39.9670 N   0  0  0  0  0  0  0  0  0  0  0  0
   41.1400   32.3830   41.2260 H   0  0  0  0  0  0  0  0  0  0  0  0
   40.4430   30.1010   41.9910 H   0  0  0  0  0  0  0  0  0  0  0  0
   36.7150   33.6090   38.9630 H   0  0  0  0  0  0  0  0  0  0  0  0
   36.5760   33.8760   40.8350 H   0  0  0  0  0  0  0  0  0  0  0  0
   38.2300   28.1910   39.6140 C   0  0  0  0  0  2  0  0  0  0  0  0
   38.9560   26.9330   39.1390 C   0  0  0  0  0  2  0  0  0  0  0  0
   39.4460   27.1690   38.1650 H   0  0  0  0  0  0  0  0  0  0  0  0
  1  2  1  0  0  0  0
  2  3  2  0  0  0  0
  2  7  1  0  0  0  0
  3  8  1  0  0  0  0
  4  9  1  0  0  0  0
  4  3  1  0  0  0  0
  5  4  2  0  0  0  0
  6  5  1  0  0  0  0
  6  1  2  0  0  0  0
 10  5  1  0  0  0  0
 11 18  1  0  0  0  0
 11 12  1  0  0  0  0
 12 19  1  0  0  0  0
 13 12  2  0  0  0  0
 13  1  1  0  0  0  0
 14 13  1  0  0  0  0
 15 16  1  0  0  0  0
 15 14  2  0  0  0  0
 16 11  2  0  0  0  0
 17 15  1  0  0  0  0
 17 21  1  0  0  0  0
 20 17  1  0  0  0  0
 22  6  1  0  0  0  0
 23 22  1  0  0  0  0
 24 23  1  0  0  0  0
M  END
>  <minimizedAffinity>
-4.7311635

$$$$

 OpenBabel03252505353D

 24 25  0  0  0  0  0  0  0  0999 V2000
   36.9620   27.1010   40.9860 C   0  0  0  0  0  0  0  0  0  0  0  0
   36.6760   26.3440   39.8700 C   0  0  0  0  0  0  0  0  0  0  0  0
   36.5390   24.9590   39.9090 C   0  0  0  0  0  0  0  0  0  0  0  0
   36.6930   24.2990   41.1070 C   0  0  0  0  0  0  0  0  0  0  0  0
   36.9790   25.0660   42.2140 C   0  0  0  0  0  0  0  0  0  0  0  0
   37.1160   26.4400   42.1870 C   0  0  0  0  0  0  0  0  0  0  0  0
   36.5480   26.8380   38.9050 H   0  0  0  0  0  0  0  0  0  0  0  0
   36.3160   24.4150   39.0130 H   0  0  0  0  0  0  0  0  0  0  0  0
   36.5900   23.2340   41.1440 H   0  0  0  0  0  0  0  0  0  0  0  0
   37.0970   24.5390   43.1430 H   0  0  0  0  0  0  0  0  0  0  0  0
   36.2410   30.7900   40.8160 C   0  0  0  0  0  0  0  0  0  0  0  0
   36.0120   29.4160   40.9890 C   0  0  0  0  0  0  0  0  0  0  0  0
   37.0820   28.5280   40.8320 C   0  0  0  0  0  0  0  0  0  0  0  0
   38.2940   29.0330   40.5180 N   0  0  0  0  0  0  0  0  0  0  0  0
   38.4790   30.3700   40.3590 C   0  0  0  0  0  0  0  0  0  0  0  0
   37.4530   31.2470   40.5070 N   0  0  0  0  0  0  0  0  0  0  0  0
   39.7720   30.8870   40.0260 N   0  0  0  0  0  0  0  0  0  0  0  0
   35.4130   31.4780   40.9390 H   0  0  0  0  0  0  0  0  0  0  0  0
   35.0410   29.0180   41.2400 H   0  0  0  0  0  0  0  0  0  0  0  0
   40.5200   31.2580   40.6590 H   0  0  0  0  0  0  0  0  0  0  0  0
   39.7630   30.7930   38.9830 H   0  0  0  0  0  0  0  0  0  0  0  0
   37.4250   27.2490   43.3960 C   0  0  0  0  0  2  0  0  0  0  0  0
   38.9270   27.2100   43.6790 C   0  0  0  0  0  2  0  0  0  0  0  0
   39.0940   27.6350   44.6960 H   0  0  0  0  0  0  0  0  0  0  0  0
  1  6  1  0  0  0  0
  2  3  1  0  0  0  0
  2  1  2  0  0  0  0
  3  4  2  0  0  0  0
  4  9  1  0  0  0  0
  4  5  1  0  0  0  0
  5 10  1  0  0  0  0
  6  5  2  0  0  0  0
  6 22  1  0  0  0  0
  7  2  1  0  0  0  0
  8  3  1  0  0  0  0
 11 18  1  0  0  0  0
 11 12  1  0  0  0  0
 12 19  1  0  0  0  0
 13  1  1  0  0  0  0
 13 12  2  0  0  0  0
 14 13  1  0  0  0  0
 15 16  1  0  0  0  0
 15 14  2  0  0  0  0
 16 11  2  0  0  0  0
 17 15  1  0  0  0  0
 17 20  1  0  0  0  0
 21 17  1  0  0  0  0
 22 23  1  0  0  0  0
 23 24  1  0  0  0  0
M  END
>  <minimizedAffinity>
-4.72232246

$$$$

 OpenBabel03252505353D

 24 25  0  0  0  0  0  0  0  0999 V2000
   37.2030   26.6070   40.9240 C   0  0  0  0  0  0  0  0  0  0  0  0
   37.1870   25.8430   42.0710 C   0  0  0  0  0  0  0  0  0  0  0  0
   36.8840   24.4840   42.0720 C   0  0  0  0  0  0  0  0  0  0  0  0
   36.5840   23.8590   40.8840 C   0  0  0  0  0  0  0  0  0  0  0  0
   36.6020   24.6330   39.7450 C   0  0  0  0  0  0  0  0  0  0  0  0
   36.9010   25.9800   39.7320 C   0  0  0  0  0  0  0  0  0  0  0  0
   37.4220   26.3100   43.0300 H   0  0  0  0  0  0  0  0  0  0  0  0
   36.8860   23.9330   42.9920 H   0  0  0  0  0  0  0  0  0  0  0  0
   36.3490   22.8140   40.8770 H   0  0  0  0  0  0  0  0  0  0  0  0
   36.3650   24.1330   38.8230 H   0  0  0  0  0  0  0  0  0  0  0  0
   39.0460   29.8780   41.1700 C   0  0  0  0  0  0  0  0  0  0  0  0
   38.8400   28.4940   41.0550 C   0  0  0  0  0  0  0  0  0  0  0  0
   37.5300   28.0050   41.0380 C   0  0  0  0  0  0  0  0  0  0  0  0
   36.5140   28.8900   41.1320 N   0  0  0  0  0  0  0  0  0  0  0  0
   36.7500   30.2240   41.2410 C   0  0  0  0  0  0  0  0  0  0  0  0
   38.0150   30.7160   41.2600 N   0  0  0  0  0  0  0  0  0  0  0  0
   35.6600   31.1460   41.3400 N   0  0  0  0  0  0  0  0  0  0  0  0
   40.0610   30.2570   41.1830 H   0  0  0  0  0  0  0  0  0  0  0  0
   39.6570   27.7920   40.9800 H   0  0  0  0  0  0  0  0  0  0  0  0
   35.1840   31.6920   40.5830 H   0  0  0  0  0  0  0  0  0  0  0  0
   35.4720   31.1240   42.3700 H   0  0  0  0  0  0  0  0  0  0  0  0
   36.9150   26.7980   38.4900 C   0  0  0  0  0  2  0  0  0  0  0  0
   35.4830   27.0440   38.0130 C   0  0  0  0  0  2  0  0  0  0  0  0
   35.5350   27.4630   36.9810 H   0  0  0  0  0  0  0  0  0  0  0  0
  1 13  1  0  0  0  0
  1  2  1  0  0  0  0
  2  3  2  0  0  0  0
  2  7  1  0  0  0  0
  3  8  1  0  0  0  0
  4  3  1  0  0  0  0
  5  4  2  0  0  0  0
  6  5  1  0  0  0  0
  6  1  2  0  0  0  0
  9  4  1  0  0  0  0
 10  5  1  0  0  0  0
 11 18  1  0  0  0  0
 11 16  1  0  0  0  0
 12 11  2  0  0  0  0
 13 12  1  0  0  0  0
 13 14  2  0  0  0  0
 14 15  1  0  0  0  0
 15 16  2  0  0  0  0
 15 17  1  0  0  0  0
 17 21  1  0  0  0  0
 19 12  1  0  0  0  0
 20 17  1  0  0  0  0
 22  6  1  0  0  0  0
 23 22  1  0  0  0  0
 24 23  1  0  0  0  0
M  END
>  <minimizedAffinity>
-4.69441748

$$$$

 OpenBabel03252505353D

 24 25  0  0  0  0  0  0  0  0999 V2000
   38.6630   27.1250   41.8250 C   0  0  0  0  0  0  0  0  0  0  0  0
   39.6940   27.4050   42.6970 C   0  0  0  0  0  0  0  0  0  0  0  0
   40.2570   26.4480   43.5370 C   0  0  0  0  0  0  0  0  0  0  0  0
   39.7740   25.1600   43.5110 C   0  0  0  0  0  0  0  0  0  0  0  0
   38.7450   24.8930   42.6370 C   0  0  0  0  0  0  0  0  0  0  0  0
   38.1800   25.8330   41.7990 C   0  0  0  0  0  0  0  0  0  0  0  0
   40.1000   28.4180   42.7410 H   0  0  0  0  0  0  0  0  0  0  0  0
   41.0580   26.7160   44.1970 H   0  0  0  0  0  0  0  0  0  0  0  0
   40.2020   24.4190   44.1550 H   0  0  0  0  0  0  0  0  0  0  0  0
   38.3760   23.8830   42.6260 H   0  0  0  0  0  0  0  0  0  0  0  0
   38.0370   29.5080   38.9810 C   0  0  0  0  0  0  0  0  0  0  0  0
   38.6010   28.4400   39.6980 C   0  0  0  0  0  0  0  0  0  0  0  0
   38.1560   28.1910   41.0000 C   0  0  0  0  0  0  0  0  0  0  0  0
   37.2000   28.9930   41.5160 N   0  0  0  0  0  0  0  0  0  0  0  0
   36.6760   30.0180   40.7930 C   0  0  0  0  0  0  0  0  0  0  0  0
   37.0950   30.2740   39.5270 N   0  0  0  0  0  0  0  0  0  0  0  0
   35.6630   30.8570   41.3570 N   0  0  0  0  0  0  0  0  0  0  0  0
   38.3800   29.7000   37.9720 H   0  0  0  0  0  0  0  0  0  0  0  0
   39.3650   27.8020   39.2800 H   0  0  0  0  0  0  0  0  0  0  0  0
   34.6210   30.7850   41.2720 H   0  0  0  0  0  0  0  0  0  0  0  0
   36.2460   31.5570   41.8720 H   0  0  0  0  0  0  0  0  0  0  0  0
   37.0670   25.5230   40.8620 C   0  0  0  0  0  2  0  0  0  0  0  0
   36.5730   24.0950   41.0960 C   0  0  0  0  0  2  0  0  0  0  0  0
   35.9020   23.8220   40.2480 H   0  0  0  0  0  0  0  0  0  0  0  0
  1  2  1  0  0  0  0
  2  7  1  0  0  0  0
  2  3  2  0  0  0  0
  3  8  1  0  0  0  0
  4  3  1  0  0  0  0
  4  9  1  0  0  0  0
  5  4  2  0  0  0  0
  6  1  2  0  0  0  0
  6  5  1  0  0  0  0
 10  5  1  0  0  0  0
 11 16  2  0  0  0  0
 11 12  1  0  0  0  0
 12 13  2  0  0  0  0
 13 14  1  0  0  0  0
 13  1  1  0  0  0  0
 15 17  1  0  0  0  0
 15 14  2  0  0  0  0
 16 15  1  0  0  0  0
 17 21  1  0  0  0  0
 18 11  1  0  0  0  0
 19 12  1  0  0  0  0
 20 17  1  0  0  0  0
 22 23  1  0  0  0  0
 22  6  1  0  0  0  0
 24 23  1  0  0  0  0
M  END
>  <minimizedAffinity>
-4.66918039

$$$$
