
 OpenBabel03242516033D

 28 30  0  0  0  0  0  0  0  0999 V2000
   38.0350   28.1740   39.3570 Cl  0  0  0  0  0  0  0  0  0  0  0  0
   37.6480   28.0500   41.0560 C   0  0  0  0  0  0  0  0  0  0  0  0
   37.6330   29.1350   41.8770 C   0  0  0  0  0  0  0  0  0  0  0  0
   37.3130   28.8980   43.1890 C   0  0  0  0  0  0  0  0  0  0  0  0
   37.0260   27.6800   43.6750 C   0  0  0  0  0  0  0  0  0  0  0  0
   37.0410   26.5910   42.8500 C   0  0  0  0  0  0  0  0  0  0  0  0
   37.3600   26.7780   41.5140 C   0  0  0  0  0  0  0  0  0  0  0  0
   37.2920   29.7460   43.8690 H   0  0  0  0  0  0  0  0  0  0  0  0
   36.7690   27.4470   44.7000 H   0  0  0  0  0  0  0  0  0  0  0  0
   36.8190   25.5770   43.1770 H   0  0  0  0  0  0  0  0  0  0  0  0
   37.3160   32.4930   40.1450 C   0  0  0  0  0  0  0  0  0  0  0  0
   36.9960   31.2450   40.6930 C   0  0  0  0  0  0  0  0  0  0  0  0
   37.9490   30.4260   41.3070 C   0  0  0  0  0  0  0  0  0  0  0  0
   39.2150   30.9410   41.3300 N   0  0  0  0  0  0  0  0  0  0  0  0
   39.4970   32.1380   40.7990 C   0  0  0  0  0  0  0  0  0  0  0  0
   38.5710   32.9090   40.2150 N   0  0  0  0  0  0  0  0  0  0  0  0
   36.4780   33.0040   39.7080 H   0  0  0  0  0  0  0  0  0  0  0  0
   35.9810   30.8400   40.6700 H   0  0  0  0  0  0  0  0  0  0  0  0
   40.5030   32.5370   40.8230 H   0  0  0  0  0  0  0  0  0  0  0  0
   37.3810   25.6010   40.6040 C   0  0  0  0  0  0  0  0  0  0  0  0
   38.5700   24.8910   40.3370 C   0  0  0  0  0  0  0  0  0  0  0  0
   37.9970   23.5950   39.1910 S   0  0  0  0  0  0  0  0  0  0  0  0
   36.2200   24.2420   39.2670 C   0  0  0  0  0  0  0  0  0  0  0  0
   36.3810   25.0970   39.9710 N   0  0  0  0  0  0  0  0  0  0  0  0
   39.5830   25.1490   40.7820 H   0  0  0  0  0  0  0  0  0  0  0  0
   35.1430   23.5620   38.4780 C   0  0  0  0  0  2  0  0  0  0  0  0
   34.1950   22.7770   39.3450 C   0  0  0  0  0  2  0  0  0  0  0  0
   33.9310   23.3130   40.2890 H   0  0  0  0  0  0  0  0  0  0  0  0
  1  2  1  0  0  0  0
  2  7  2  0  0  0  0
  2  3  1  0  0  0  0
  3  4  2  0  0  0  0
  4  5  1  0  0  0  0
  4  8  1  0  0  0  0
  5  9  1  0  0  0  0
  6 10  1  0  0  0  0
  6  5  2  0  0  0  0
  7  6  1  0  0  0  0
 11 16  2  0  0  0  0
 11 12  1  0  0  0  0
 12 13  2  0  0  0  0
 13 14  1  0  0  0  0
 13  3  1  0  0  0  0
 15 19  1  0  0  0  0
 15 14  2  0  0  0  0
 16 15  1  0  0  0  0
 17 11  1  0  0  0  0
 18 12  1  0  0  0  0
 20  7  1  0  0  0  0
 21 20  2  0  0  0  0
 21 25  1  0  0  0  0
 22 23  1  0  0  0  0
 22 21  1  0  0  0  0
 23 24  2  0  0  0  0
 24 20  1  0  0  0  0
 26 23  1  0  0  0  0
 26 27  1  0  0  0  0
 27 28  1  0  0  0  0
M  END
>  <minimizedAffinity>
-4.94053078

$$$$

 OpenBabel03242516033D

 28 30  0  0  0  0  0  0  0  0999 V2000
   38.3330   27.0050   39.3630 Cl  0  0  0  0  0  0  0  0  0  0  0  0
   37.7210   27.1270   40.9950 C   0  0  0  0  0  0  0  0  0  0  0  0
   37.2030   26.0570   41.6570 C   0  0  0  0  0  0  0  0  0  0  0  0
   36.7580   26.2910   42.9330 C   0  0  0  0  0  0  0  0  0  0  0  0
   36.8140   27.4930   43.5300 C   0  0  0  0  0  0  0  0  0  0  0  0
   37.3350   28.5670   42.8640 C   0  0  0  0  0  0  0  0  0  0  0  0
   37.7970   28.3820   41.5700 C   0  0  0  0  0  0  0  0  0  0  0  0
   36.3400   25.4550   43.4880 H   0  0  0  0  0  0  0  0  0  0  0  0
   36.4760   27.7220   44.5310 H   0  0  0  0  0  0  0  0  0  0  0  0
   37.4090   29.5660   43.2870 H   0  0  0  0  0  0  0  0  0  0  0  0
   38.0880   22.5640   40.4760 C   0  0  0  0  0  0  0  0  0  0  0  0
   38.1370   23.7930   41.1460 C   0  0  0  0  0  0  0  0  0  0  0  0
   37.1660   24.7840   40.9720 C   0  0  0  0  0  0  0  0  0  0  0  0
   36.1670   24.4580   40.0980 N   0  0  0  0  0  0  0  0  0  0  0  0
   36.1410   23.2750   39.4690 C   0  0  0  0  0  0  0  0  0  0  0  0
   37.0800   22.3380   39.6490 N   0  0  0  0  0  0  0  0  0  0  0  0
   38.9050   21.9080   40.7130 H   0  0  0  0  0  0  0  0  0  0  0  0
   38.9400   24.0460   41.8430 H   0  0  0  0  0  0  0  0  0  0  0  0
   35.3450   23.0260   38.7790 H   0  0  0  0  0  0  0  0  0  0  0  0
   38.3670   29.5420   40.8330 C   0  0  0  0  0  0  0  0  0  0  0  0
   39.7520   29.8040   40.8200 C   0  0  0  0  0  0  0  0  0  0  0  0
   39.8510   31.3040   39.7910 S   0  0  0  0  0  0  0  0  0  0  0  0
   37.9750   31.3230   39.5480 C   0  0  0  0  0  0  0  0  0  0  0  0
   37.7160   30.4150   40.1480 N   0  0  0  0  0  0  0  0  0  0  0  0
   40.5290   29.1710   41.3550 H   0  0  0  0  0  0  0  0  0  0  0  0
   37.3390   32.4010   38.7220 C   0  0  0  0  0  2  0  0  0  0  0  0
   37.2300   33.7090   39.4580 C   0  0  0  0  0  2  0  0  0  0  0  0
   38.1430   33.9430   40.0600 H   0  0  0  0  0  0  0  0  0  0  0  0
  1  2  1  0  0  0  0
  2  7  2  0  0  0  0
  2  3  1  0  0  0  0
  3  4  2  0  0  0  0
  4  8  1  0  0  0  0
  4  5  1  0  0  0  0
  5  9  1  0  0  0  0
  6 10  1  0  0  0  0
  6  5  2  0  0  0  0
  7  6  1  0  0  0  0
 11 17  1  0  0  0  0
 11 12  1  0  0  0  0
 12 18  1  0  0  0  0
 13 12  2  0  0  0  0
 13  3  1  0  0  0  0
 14 13  1  0  0  0  0
 15 16  1  0  0  0  0
 15 14  2  0  0  0  0
 16 11  2  0  0  0  0
 19 15  1  0  0  0  0
 20  7  1  0  0  0  0
 21 20  2  0  0  0  0
 21 25  1  0  0  0  0
 22 21  1  0  0  0  0
 23 22  1  0  0  0  0
 23 24  2  0  0  0  0
 24 20  1  0  0  0  0
 26 27  1  0  0  0  0
 26 23  1  0  0  0  0
 27 28  1  0  0  0  0
M  END
>  <minimizedAffinity>
-4.92883873

$$$$

 OpenBabel03242516033D

 28 30  0  0  0  0  0  0  0  0999 V2000
   39.1520   27.9750   39.7780 Cl  0  0  0  0  0  0  0  0  0  0  0  0
   38.2850   27.8380   41.2890 C   0  0  0  0  0  0  0  0  0  0  0  0
   37.5810   26.7230   41.6210 C   0  0  0  0  0  0  0  0  0  0  0  0
   36.9470   26.7460   42.8370 C   0  0  0  0  0  0  0  0  0  0  0  0
   36.9950   27.7920   43.6790 C   0  0  0  0  0  0  0  0  0  0  0  0
   37.7030   28.9110   43.3440 C   0  0  0  0  0  0  0  0  0  0  0  0
   38.3610   28.9360   42.1240 C   0  0  0  0  0  0  0  0  0  0  0  0
   36.3760   25.8690   43.1320 H   0  0  0  0  0  0  0  0  0  0  0  0
   36.5120   27.8540   44.6450 H   0  0  0  0  0  0  0  0  0  0  0  0
   37.7830   29.7910   43.9770 H   0  0  0  0  0  0  0  0  0  0  0  0
   36.5810   24.4170   38.7820 C   0  0  0  0  0  0  0  0  0  0  0  0
   36.5890   25.4870   39.6850 C   0  0  0  0  0  0  0  0  0  0  0  0
   37.5600   25.6230   40.6820 C   0  0  0  0  0  0  0  0  0  0  0  0
   38.4980   24.6290   40.7060 N   0  0  0  0  0  0  0  0  0  0  0  0
   38.4700   23.6140   39.8310 C   0  0  0  0  0  0  0  0  0  0  0  0
   37.5320   23.5020   38.8820 N   0  0  0  0  0  0  0  0  0  0  0  0
   35.7730   24.4510   38.0750 H   0  0  0  0  0  0  0  0  0  0  0  0
   35.8350   26.2780   39.6600 H   0  0  0  0  0  0  0  0  0  0  0  0
   39.2180   22.8330   39.8580 H   0  0  0  0  0  0  0  0  0  0  0  0
   39.1360   30.1490   41.7460 C   0  0  0  0  0  0  0  0  0  0  0  0
   40.5150   30.2630   42.0180 C   0  0  0  0  0  0  0  0  0  0  0  0
   40.9060   31.9110   41.3490 S   0  0  0  0  0  0  0  0  0  0  0  0
   39.1130   32.1720   40.8050 C   0  0  0  0  0  0  0  0  0  0  0  0
   38.6850   31.1990   41.1550 N   0  0  0  0  0  0  0  0  0  0  0  0
   41.1340   29.4620   42.5340 H   0  0  0  0  0  0  0  0  0  0  0  0
   38.7160   33.4470   40.1240 C   0  0  0  0  0  2  0  0  0  0  0  0
   37.3240   33.3930   39.5550 C   0  0  0  0  0  2  0  0  0  0  0  0
   36.5990   32.8850   40.2370 H   0  0  0  0  0  0  0  0  0  0  0  0
  1  2  1  0  0  0  0
  2  3  2  0  0  0  0
  2  7  1  0  0  0  0
  3  4  1  0  0  0  0
  4  8  1  0  0  0  0
  4  5  2  0  0  0  0
  5  9  1  0  0  0  0
  6  5  1  0  0  0  0
  6 10  1  0  0  0  0
  7  6  2  0  0  0  0
 11 16  2  0  0  0  0
 11 12  1  0  0  0  0
 12 13  2  0  0  0  0
 13 14  1  0  0  0  0
 13  3  1  0  0  0  0
 15 19  1  0  0  0  0
 15 14  2  0  0  0  0
 16 15  1  0  0  0  0
 17 11  1  0  0  0  0
 18 12  1  0  0  0  0
 20 21  2  0  0  0  0
 20  7  1  0  0  0  0
 21 25  1  0  0  0  0
 22 21  1  0  0  0  0
 23 24  2  0  0  0  0
 23 22  1  0  0  0  0
 24 20  1  0  0  0  0
 26 23  1  0  0  0  0
 27 26  1  0  0  0  0
 27 28  1  0  0  0  0
M  END
>  <minimizedAffinity>
-4.90543699

$$$$

 OpenBabel03242516033D

 28 30  0  0  0  0  0  0  0  0999 V2000
   40.7740   30.3320   40.5690 Cl  0  0  0  0  0  0  0  0  0  0  0  0
   39.3080   31.2370   40.2840 C   0  0  0  0  0  0  0  0  0  0  0  0
   39.3010   32.4060   39.5880 C   0  0  0  0  0  0  0  0  0  0  0  0
   38.0820   33.0150   39.4370 C   0  0  0  0  0  0  0  0  0  0  0  0
   36.9370   32.5190   39.9340 C   0  0  0  0  0  0  0  0  0  0  0  0
   36.9450   31.3450   40.6330 C   0  0  0  0  0  0  0  0  0  0  0  0
   38.1540   30.6900   40.8140 C   0  0  0  0  0  0  0  0  0  0  0  0
   38.0440   33.9510   38.8840 H   0  0  0  0  0  0  0  0  0  0  0  0
   35.9560   32.9640   39.8400 H   0  0  0  0  0  0  0  0  0  0  0  0
   36.0560   30.8870   41.0620 H   0  0  0  0  0  0  0  0  0  0  0  0
   42.2240   33.1330   37.2840 C   0  0  0  0  0  0  0  0  0  0  0  0
   41.0040   32.6480   37.7710 C   0  0  0  0  0  0  0  0  0  0  0  0
   40.5590   32.9000   39.0720 C   0  0  0  0  0  0  0  0  0  0  0  0
   41.4080   33.6560   39.8300 N   0  0  0  0  0  0  0  0  0  0  0  0
   42.5720   34.1090   39.3430 C   0  0  0  0  0  0  0  0  0  0  0  0
   42.9800   33.8580   38.0930 N   0  0  0  0  0  0  0  0  0  0  0  0
   42.4270   32.8560   36.2670 H   0  0  0  0  0  0  0  0  0  0  0  0
   40.3300   32.0440   37.1580 H   0  0  0  0  0  0  0  0  0  0  0  0
   43.2370   34.7080   39.9510 H   0  0  0  0  0  0  0  0  0  0  0  0
   38.1770   29.4110   41.5730 C   0  0  0  0  0  0  0  0  0  0  0  0
   38.4500   29.3750   42.9560 C   0  0  0  0  0  0  0  0  0  0  0  0
   38.3450   27.5930   43.3230 S   0  0  0  0  0  0  0  0  0  0  0  0
   37.9430   27.1930   41.5180 C   0  0  0  0  0  0  0  0  0  0  0  0
   37.9650   28.2320   41.1040 N   0  0  0  0  0  0  0  0  0  0  0  0
   38.6690   30.2920   43.5900 H   0  0  0  0  0  0  0  0  0  0  0  0
   37.7180   25.7710   41.1010 C   0  0  0  0  0  2  0  0  0  0  0  0
   37.0170   24.9590   42.1570 C   0  0  0  0  0  2  0  0  0  0  0  0
   36.1920   25.5230   42.6570 H   0  0  0  0  0  0  0  0  0  0  0  0
  2  1  1  0  0  0  0
  2  7  1  0  0  0  0
  3  2  2  0  0  0  0
  4  3  1  0  0  0  0
  4  5  2  0  0  0  0
  5  6  1  0  0  0  0
  6  7  2  0  0  0  0
  6 10  1  0  0  0  0
  7 20  1  0  0  0  0
  8  4  1  0  0  0  0
  9  5  1  0  0  0  0
 11 12  2  0  0  0  0
 11 16  1  0  0  0  0
 12 13  1  0  0  0  0
 13  3  1  0  0  0  0
 13 14  2  0  0  0  0
 15 14  1  0  0  0  0
 15 19  1  0  0  0  0
 16 15  2  0  0  0  0
 17 11  1  0  0  0  0
 18 12  1  0  0  0  0
 20 21  2  0  0  0  0
 21 22  1  0  0  0  0
 21 25  1  0  0  0  0
 23 22  1  0  0  0  0
 24 23  2  0  0  0  0
 24 20  1  0  0  0  0
 26 23  1  0  0  0  0
 26 27  1  0  0  0  0
 27 28  1  0  0  0  0
M  END
>  <minimizedAffinity>
-4.89903927

$$$$

 OpenBabel03242516033D

 28 30  0  0  0  0  0  0  0  0999 V2000
   40.3700   30.0750   39.2160 Cl  0  0  0  0  0  0  0  0  0  0  0  0
   39.1840   31.3400   39.4300 C   0  0  0  0  0  0  0  0  0  0  0  0
   39.4970   32.6570   39.3000 C   0  0  0  0  0  0  0  0  0  0  0  0
   38.4710   33.5460   39.4940 C   0  0  0  0  0  0  0  0  0  0  0  0
   37.2160   33.1770   39.7970 C   0  0  0  0  0  0  0  0  0  0  0  0
   36.9020   31.8540   39.9280 C   0  0  0  0  0  0  0  0  0  0  0  0
   37.9060   30.9150   39.7420 C   0  0  0  0  0  0  0  0  0  0  0  0
   38.6910   34.6070   39.3960 H   0  0  0  0  0  0  0  0  0  0  0  0
   36.3790   33.8420   39.9580 H   0  0  0  0  0  0  0  0  0  0  0  0
   35.9090   31.4860   40.1710 H   0  0  0  0  0  0  0  0  0  0  0  0
   43.1550   33.6090   39.6060 C   0  0  0  0  0  0  0  0  0  0  0  0
   41.8360   33.2740   39.9380 C   0  0  0  0  0  0  0  0  0  0  0  0
   40.8620   33.0040   38.9720 C   0  0  0  0  0  0  0  0  0  0  0  0
   41.2990   33.0950   37.6790 N   0  0  0  0  0  0  0  0  0  0  0  0
   42.5660   33.4170   37.3860 C   0  0  0  0  0  0  0  0  0  0  0  0
   43.4850   33.6710   38.3250 N   0  0  0  0  0  0  0  0  0  0  0  0
   43.7850   33.7880   40.4570 H   0  0  0  0  0  0  0  0  0  0  0  0
   41.4950   33.2040   40.9740 H   0  0  0  0  0  0  0  0  0  0  0  0
   42.9020   33.4850   36.3590 H   0  0  0  0  0  0  0  0  0  0  0  0
   37.5780   29.4700   39.8810 C   0  0  0  0  0  0  0  0  0  0  0  0
   37.2150   28.6820   38.7690 C   0  0  0  0  0  0  0  0  0  0  0  0
   36.9380   27.0490   39.5280 S   0  0  0  0  0  0  0  0  0  0  0  0
   37.3670   27.7180   41.2460 C   0  0  0  0  0  0  0  0  0  0  0  0
   37.5800   28.7800   40.9660 N   0  0  0  0  0  0  0  0  0  0  0  0
   37.1440   29.0700   37.7040 H   0  0  0  0  0  0  0  0  0  0  0  0
   37.3300   26.8050   42.4340 C   0  0  0  0  0  2  0  0  0  0  0  0
   36.4830   27.3440   43.5550 C   0  0  0  0  0  2  0  0  0  0  0  0
   35.5360   27.8140   43.1920 H   0  0  0  0  0  0  0  0  0  0  0  0
  1  2  1  0  0  0  0
  2  7  1  0  0  0  0
  3  2  2  0  0  0  0
  3  4  1  0  0  0  0
  4  5  2  0  0  0  0
  5  6  1  0  0  0  0
  5  9  1  0  0  0  0
  6 10  1  0  0  0  0
  7 20  1  0  0  0  0
  7  6  2  0  0  0  0
  8  4  1  0  0  0  0
 11 12  1  0  0  0  0
 11 17  1  0  0  0  0
 12 18  1  0  0  0  0
 13  3  1  0  0  0  0
 13 12  2  0  0  0  0
 14 13  1  0  0  0  0
 15 14  2  0  0  0  0
 15 16  1  0  0  0  0
 16 11  2  0  0  0  0
 19 15  1  0  0  0  0
 20 24  1  0  0  0  0
 21 22  1  0  0  0  0
 21 20  2  0  0  0  0
 22 23  1  0  0  0  0
 23 26  1  0  0  0  0
 24 23  2  0  0  0  0
 25 21  1  0  0  0  0
 26 27  1  0  0  0  0
 28 27  1  0  0  0  0
M  END
>  <minimizedAffinity>
-4.76225758

$$$$

 OpenBabel03242516033D

 28 30  0  0  0  0  0  0  0  0999 V2000
   40.4780   30.1370   41.2160 Cl  0  0  0  0  0  0  0  0  0  0  0  0
   39.0890   31.0630   40.7020 C   0  0  0  0  0  0  0  0  0  0  0  0
   37.8150   30.6550   40.9490 C   0  0  0  0  0  0  0  0  0  0  0  0
   36.8160   31.4760   40.4900 C   0  0  0  0  0  0  0  0  0  0  0  0
   37.0420   32.6240   39.8320 C   0  0  0  0  0  0  0  0  0  0  0  0
   38.3220   33.0330   39.5840 C   0  0  0  0  0  0  0  0  0  0  0  0
   39.3680   32.2370   40.0270 C   0  0  0  0  0  0  0  0  0  0  0  0
   35.7870   31.1770   40.6730 H   0  0  0  0  0  0  0  0  0  0  0  0
   36.2870   33.3000   39.4530 H   0  0  0  0  0  0  0  0  0  0  0  0
   38.5760   33.9490   39.0570 H   0  0  0  0  0  0  0  0  0  0  0  0
   37.2110   26.9940   41.7270 C   0  0  0  0  0  0  0  0  0  0  0  0
   37.3960   28.1900   41.0230 C   0  0  0  0  0  0  0  0  0  0  0  0
   37.6220   29.4120   41.6620 C   0  0  0  0  0  0  0  0  0  0  0  0
   37.6490   29.3460   43.0280 N   0  0  0  0  0  0  0  0  0  0  0  0
   37.4690   28.1900   43.6800 C   0  0  0  0  0  0  0  0  0  0  0  0
   37.2540   27.0280   43.0490 N   0  0  0  0  0  0  0  0  0  0  0  0
   37.0470   26.1400   41.0960 H   0  0  0  0  0  0  0  0  0  0  0  0
   37.3720   28.2340   39.9310 H   0  0  0  0  0  0  0  0  0  0  0  0
   37.4930   28.1480   44.7610 H   0  0  0  0  0  0  0  0  0  0  0  0
   40.7670   32.6700   39.7650 C   0  0  0  0  0  0  0  0  0  0  0  0
   41.4350   33.5750   40.6150 C   0  0  0  0  0  0  0  0  0  0  0  0
   43.0650   33.7260   39.8150 S   0  0  0  0  0  0  0  0  0  0  0  0
   42.5600   32.5210   38.4460 C   0  0  0  0  0  0  0  0  0  0  0  0
   41.5170   32.3030   38.7870 N   0  0  0  0  0  0  0  0  0  0  0  0
   40.9750   34.0380   41.5460 H   0  0  0  0  0  0  0  0  0  0  0  0
   43.5330   32.1750   37.3590 C   0  0  0  0  0  2  0  0  0  0  0  0
   43.1100   30.9710   36.5620 C   0  0  0  0  0  2  0  0  0  0  0  0
   42.0140   30.9620   36.3430 H   0  0  0  0  0  0  0  0  0  0  0  0
  2  3  1  0  0  0  0
  2  1  1  0  0  0  0
  3 13  1  0  0  0  0
  4  8  1  0  0  0  0
  4  3  2  0  0  0  0
  5  4  1  0  0  0  0
  6  5  2  0  0  0  0
  6  7  1  0  0  0  0
  7  2  2  0  0  0  0
  9  5  1  0  0  0  0
 10  6  1  0  0  0  0
 11 16  1  0  0  0  0
 12 13  1  0  0  0  0
 12 11  2  0  0  0  0
 13 14  2  0  0  0  0
 14 15  1  0  0  0  0
 15 19  1  0  0  0  0
 16 15  2  0  0  0  0
 17 11  1  0  0  0  0
 18 12  1  0  0  0  0
 20  7  1  0  0  0  0
 20 21  2  0  0  0  0
 21 25  1  0  0  0  0
 22 21  1  0  0  0  0
 23 24  2  0  0  0  0
 23 22  1  0  0  0  0
 24 20  1  0  0  0  0
 26 23  1  0  0  0  0
 27 26  1  0  0  0  0
 28 27  1  0  0  0  0
M  END
>  <minimizedAffinity>
-4.70725012

$$$$

 OpenBabel03242516033D

 28 30  0  0  0  0  0  0  0  0999 V2000
   36.5970   26.4260   38.4070 Cl  0  0  0  0  0  0  0  0  0  0  0  0
   36.4730   27.7570   39.5320 C   0  0  0  0  0  0  0  0  0  0  0  0
   36.9900   27.6930   40.7890 C   0  0  0  0  0  0  0  0  0  0  0  0
   36.8230   28.8080   41.5700 C   0  0  0  0  0  0  0  0  0  0  0  0
   36.1910   29.9180   41.1550 C   0  0  0  0  0  0  0  0  0  0  0  0
   35.6720   29.9810   39.8930 C   0  0  0  0  0  0  0  0  0  0  0  0
   35.8150   28.8780   39.0640 C   0  0  0  0  0  0  0  0  0  0  0  0
   37.2260   28.7870   42.5800 H   0  0  0  0  0  0  0  0  0  0  0  0
   36.0370   30.8170   41.7360 H   0  0  0  0  0  0  0  0  0  0  0  0
   35.1500   30.8460   39.4930 H   0  0  0  0  0  0  0  0  0  0  0  0
   37.6620   24.2190   42.1530 C   0  0  0  0  0  0  0  0  0  0  0  0
   36.9980   25.3910   41.7690 C   0  0  0  0  0  0  0  0  0  0  0  0
   37.6620   26.4770   41.1900 C   0  0  0  0  0  0  0  0  0  0  0  0
   39.0080   26.3030   41.0280 N   0  0  0  0  0  0  0  0  0  0  0  0
   39.6220   25.1720   41.4030 C   0  0  0  0  0  0  0  0  0  0  0  0
   38.9680   24.1430   41.9550 N   0  0  0  0  0  0  0  0  0  0  0  0
   37.0170   23.4760   42.5830 H   0  0  0  0  0  0  0  0  0  0  0  0
   35.9210   25.5220   41.9020 H   0  0  0  0  0  0  0  0  0  0  0  0
   40.6880   25.0440   41.2690 H   0  0  0  0  0  0  0  0  0  0  0  0
   35.2550   28.9330   37.6860 C   0  0  0  0  0  0  0  0  0  0  0  0
   33.8850   28.7100   37.4330 C   0  0  0  0  0  0  0  0  0  0  0  0
   33.7920   28.8990   35.6230 S   0  0  0  0  0  0  0  0  0  0  0  0
   35.6470   29.2520   35.5130 C   0  0  0  0  0  0  0  0  0  0  0  0
   35.9000   29.1740   36.6000 N   0  0  0  0  0  0  0  0  0  0  0  0
   33.1150   28.4780   38.2350 H   0  0  0  0  0  0  0  0  0  0  0  0
   36.2790   29.5190   34.1800 C   0  0  0  0  0  2  0  0  0  0  0  0
   36.1390   30.9530   33.7470 C   0  0  0  0  0  2  0  0  0  0  0  0
   36.2970   31.6750   34.5860 H   0  0  0  0  0  0  0  0  0  0  0  0
  1  2  1  0  0  0  0
  2  3  1  0  0  0  0
  3 13  1  0  0  0  0
  3  4  2  0  0  0  0
  4  8  1  0  0  0  0
  5  4  1  0  0  0  0
  5  9  1  0  0  0  0
  6  5  2  0  0  0  0
  7  2  2  0  0  0  0
  7  6  1  0  0  0  0
 10  6  1  0  0  0  0
 11 17  1  0  0  0  0
 12 18  1  0  0  0  0
 12 11  2  0  0  0  0
 13 12  1  0  0  0  0
 14 13  2  0  0  0  0
 14 15  1  0  0  0  0
 15 16  2  0  0  0  0
 16 11  1  0  0  0  0
 19 15  1  0  0  0  0
 20  7  1  0  0  0  0
 21 20  2  0  0  0  0
 21 25  1  0  0  0  0
 22 21  1  0  0  0  0
 23 22  1  0  0  0  0
 23 24  2  0  0  0  0
 24 20  1  0  0  0  0
 26 23  1  0  0  0  0
 27 26  1  0  0  0  0
 27 28  1  0  0  0  0
M  END
>  <minimizedAffinity>
-4.68464231

$$$$

 OpenBabel03242516033D

 28 30  0  0  0  0  0  0  0  0999 V2000
   40.3250   30.8670   37.6400 Cl  0  0  0  0  0  0  0  0  0  0  0  0
   39.3450   32.0000   38.5390 C   0  0  0  0  0  0  0  0  0  0  0  0
   39.8850   33.0550   39.2050 C   0  0  0  0  0  0  0  0  0  0  0  0
   39.0030   33.8680   39.8710 C   0  0  0  0  0  0  0  0  0  0  0  0
   37.6760   33.6660   39.8890 C   0  0  0  0  0  0  0  0  0  0  0  0
   37.1340   32.6050   39.2190 C   0  0  0  0  0  0  0  0  0  0  0  0
   37.9850   31.7530   38.5300 C   0  0  0  0  0  0  0  0  0  0  0  0
   39.4050   34.7210   40.4130 H   0  0  0  0  0  0  0  0  0  0  0  0
   36.9450   34.2790   40.3990 H   0  0  0  0  0  0  0  0  0  0  0  0
   36.0700   32.3830   39.1910 H   0  0  0  0  0  0  0  0  0  0  0  0
   43.3540   34.1600   38.1450 C   0  0  0  0  0  0  0  0  0  0  0  0
   41.9640   33.9980   38.1810 C   0  0  0  0  0  0  0  0  0  0  0  0
   41.3200   33.2320   39.1570 C   0  0  0  0  0  0  0  0  0  0  0  0
   42.1540   32.6540   40.0720 N   0  0  0  0  0  0  0  0  0  0  0  0
   43.4820   32.8230   40.0190 C   0  0  0  0  0  0  0  0  0  0  0  0
   44.0810   33.5620   39.0760 N   0  0  0  0  0  0  0  0  0  0  0  0
   43.6990   34.7760   37.3360 H   0  0  0  0  0  0  0  0  0  0  0  0
   41.3030   34.4630   37.4440 H   0  0  0  0  0  0  0  0  0  0  0  0
   44.1350   32.3620   40.7490 H   0  0  0  0  0  0  0  0  0  0  0  0
   37.4090   30.5940   37.7970 C   0  0  0  0  0  0  0  0  0  0  0  0
   37.1280   29.3730   38.4430 C   0  0  0  0  0  0  0  0  0  0  0  0
   36.4610   28.3610   37.0830 S   0  0  0  0  0  0  0  0  0  0  0  0
   36.6770   29.7810   35.8520 C   0  0  0  0  0  0  0  0  0  0  0  0
   37.1050   30.5460   36.5480 N   0  0  0  0  0  0  0  0  0  0  0  0
   37.3120   29.1750   39.5470 H   0  0  0  0  0  0  0  0  0  0  0  0
   36.2830   29.5940   34.4180 C   0  0  0  0  0  2  0  0  0  0  0  0
   36.1670   30.8960   33.6720 C   0  0  0  0  0  2  0  0  0  0  0  0
   36.9840   31.6140   33.9290 H   0  0  0  0  0  0  0  0  0  0  0  0
  1  2  1  0  0  0  0
  2  3  1  0  0  0  0
  3  4  2  0  0  0  0
  4  5  1  0  0  0  0
  4  8  1  0  0  0  0
  5  9  1  0  0  0  0
  6  5  2  0  0  0  0
  7  2  2  0  0  0  0
  7  6  1  0  0  0  0
 10  6  1  0  0  0  0
 11 12  2  0  0  0  0
 11 16  1  0  0  0  0
 12 13  1  0  0  0  0
 13  3  1  0  0  0  0
 13 14  2  0  0  0  0
 15 14  1  0  0  0  0
 15 19  1  0  0  0  0
 16 15  2  0  0  0  0
 17 11  1  0  0  0  0
 18 12  1  0  0  0  0
 20 21  2  0  0  0  0
 20  7  1  0  0  0  0
 21 25  1  0  0  0  0
 22 21  1  0  0  0  0
 23 24  2  0  0  0  0
 23 22  1  0  0  0  0
 24 20  1  0  0  0  0
 26 23  1  0  0  0  0
 27 28  1  0  0  0  0
 27 26  1  0  0  0  0
M  END
>  <minimizedAffinity>
-4.68089914

$$$$

 OpenBabel03242516033D

 28 30  0  0  0  0  0  0  0  0999 V2000
   40.5010   30.2330   40.5420 Cl  0  0  0  0  0  0  0  0  0  0  0  0
   39.1310   30.4580   39.4820 C   0  0  0  0  0  0  0  0  0  0  0  0
   39.2070   31.2070   38.3490 C   0  0  0  0  0  0  0  0  0  0  0  0
   38.0570   31.3020   37.6070 C   0  0  0  0  0  0  0  0  0  0  0  0
   36.9030   30.7040   37.9460 C   0  0  0  0  0  0  0  0  0  0  0  0
   36.8290   29.9520   39.0840 C   0  0  0  0  0  0  0  0  0  0  0  0
   37.9640   29.8260   39.8690 C   0  0  0  0  0  0  0  0  0  0  0  0
   38.0870   31.8930   36.6950 H   0  0  0  0  0  0  0  0  0  0  0  0
   35.9750   30.7510   37.3920 H   0  0  0  0  0  0  0  0  0  0  0  0
   35.9280   29.4420   39.4170 H   0  0  0  0  0  0  0  0  0  0  0  0
   42.0530   33.7040   38.1360 C   0  0  0  0  0  0  0  0  0  0  0  0
   40.8250   33.1120   38.4570 C   0  0  0  0  0  0  0  0  0  0  0  0
   40.4710   31.8300   38.0260 C   0  0  0  0  0  0  0  0  0  0  0  0
   41.4190   31.2010   37.2670 N   0  0  0  0  0  0  0  0  0  0  0  0
   42.5870   31.7870   36.9730 C   0  0  0  0  0  0  0  0  0  0  0  0
   42.9080   33.0160   37.3960 N   0  0  0  0  0  0  0  0  0  0  0  0
   42.1780   34.6910   38.5400 H   0  0  0  0  0  0  0  0  0  0  0  0
   40.0720   33.6230   39.0630 H   0  0  0  0  0  0  0  0  0  0  0  0
   43.3310   31.2800   36.3730 H   0  0  0  0  0  0  0  0  0  0  0  0
   37.8980   29.0100   41.1110 C   0  0  0  0  0  0  0  0  0  0  0  0
   37.8330   29.6060   42.3880 C   0  0  0  0  0  0  0  0  0  0  0  0
   37.7730   28.1560   43.4890 S   0  0  0  0  0  0  0  0  0  0  0  0
   37.8450   26.9710   42.0160 C   0  0  0  0  0  0  0  0  0  0  0  0
   37.8900   27.7260   41.1910 N   0  0  0  0  0  0  0  0  0  0  0  0
   37.8270   30.7270   42.5720 H   0  0  0  0  0  0  0  0  0  0  0  0
   37.8300   25.4900   42.2460 C   0  0  0  0  0  2  0  0  0  0  0  0
   36.9510   24.7580   41.2680 C   0  0  0  0  0  2  0  0  0  0  0  0
   37.0450   25.1520   40.2260 H   0  0  0  0  0  0  0  0  0  0  0  0
  2  7  1  0  0  0  0
  2  1  1  0  0  0  0
  3  2  2  0  0  0  0
  4  5  2  0  0  0  0
  4  3  1  0  0  0  0
  5  6  1  0  0  0  0
  6 10  1  0  0  0  0
  6  7  2  0  0  0  0
  7 20  1  0  0  0  0
  8  4  1  0  0  0  0
  9  5  1  0  0  0  0
 11 12  1  0  0  0  0
 11 17  1  0  0  0  0
 12 18  1  0  0  0  0
 13  3  1  0  0  0  0
 13 12  2  0  0  0  0
 14 13  1  0  0  0  0
 15 14  2  0  0  0  0
 15 16  1  0  0  0  0
 16 11  2  0  0  0  0
 19 15  1  0  0  0  0
 20 24  1  0  0  0  0
 20 21  2  0  0  0  0
 21 25  1  0  0  0  0
 21 22  1  0  0  0  0
 23 26  1  0  0  0  0
 23 22  1  0  0  0  0
 24 23  2  0  0  0  0
 27 26  1  0  0  0  0
 28 27  1  0  0  0  0
M  END
>  <minimizedAffinity>
-4.65995073

$$$$
