
 OpenBabel03252508383D

 35 37  0  0  0  0  0  0  0  0999 V2000
   45.1210   33.9510   40.7210 C   0  0  0  0  0  0  0  0  0  0  0  0
   44.0800   33.6380   39.8840 C   0  0  0  0  0  0  0  0  0  0  0  0
   44.3800   33.1490   38.6450 C   0  0  0  0  0  0  0  0  0  0  0  0
   45.6650   32.9550   38.1940 C   0  0  0  0  0  0  0  0  0  0  0  0
   46.6940   33.2730   39.0430 C   0  0  0  0  0  0  0  0  0  0  0  0
   46.4430   33.7730   40.3150 C   0  0  0  0  0  0  0  0  0  0  0  0
   43.5250   32.9140   38.0190 H   0  0  0  0  0  0  0  0  0  0  0  0
   45.8470   32.5680   37.2080 H   0  0  0  0  0  0  0  0  0  0  0  0
   47.7140   33.1250   38.7010 H   0  0  0  0  0  0  0  0  0  0  0  0
   40.7960   35.2550   40.7930 C   0  0  0  0  0  0  0  0  0  0  0  0
   42.0920   35.0970   40.2760 C   0  0  0  0  0  0  0  0  0  0  0  0
   42.7420   33.8540   40.4000 C   0  0  0  0  0  0  0  0  0  0  0  0
   42.0270   32.8810   41.0340 N   0  0  0  0  0  0  0  0  0  0  0  0
   40.7950   33.0620   41.5130 C   0  0  0  0  0  0  0  0  0  0  0  0
   40.1820   34.2560   41.3900 N   0  0  0  0  0  0  0  0  0  0  0  0
   40.1940   36.5270   40.6400 N   0  0  0  0  0  0  0  0  0  0  0  0
   42.6240   35.9040   39.7810 H   0  0  0  0  0  0  0  0  0  0  0  0
   40.2390   32.2800   42.0150 H   0  0  0  0  0  0  0  0  0  0  0  0
   40.7590   37.3900   40.4860 H   0  0  0  0  0  0  0  0  0  0  0  0
   39.1820   36.7460   40.6630 H   0  0  0  0  0  0  0  0  0  0  0  0
   47.5960   34.0820   41.1340 C   0  0  0  0  0  0  0  0  0  0  0  0
   48.1390   35.3410   40.9400 C   0  0  0  0  0  0  0  0  0  0  0  0
   49.2480   35.8200   41.6350 C   0  0  0  0  0  0  0  0  0  0  0  0
   49.8240   34.9740   42.5640 C   0  0  0  0  0  0  0  0  0  0  0  0
   49.2960   33.7210   42.7690 C   0  0  0  0  0  0  0  0  0  0  0  0
   48.1840   33.2650   42.0590 C   0  0  0  0  0  0  0  0  0  0  0  0
   47.7180   36.0530   40.2100 H   0  0  0  0  0  0  0  0  0  0  0  0
   49.6360   36.8100   41.4450 H   0  0  0  0  0  0  0  0  0  0  0  0
   50.6820   35.3740   43.0860 H   0  0  0  0  0  0  0  0  0  0  0  0
   49.7880   33.1030   43.5080 H   0  0  0  0  0  0  0  0  0  0  0  0
   47.6570   31.9020   42.2900 C   0  0  0  0  0  2  0  0  0  0  0  0
   48.4010   31.0690   43.2630 C   0  0  0  0  0  2  0  0  0  0  0  0
   48.3570   29.9790   42.9750 H   0  0  0  0  0  0  0  0  0  0  0  0
   44.7060   34.8820   43.1140 N   0  0  0  0  0  0  0  0  0  0  0  0
   44.8910   34.4720   42.0360 C   0  0  0  0  0  0  0  0  0  0  0  0
  1 35  1  0  0  0  0
  2 12  1  0  0  0  0
  2  1  2  0  0  0  0
  3  2  1  0  0  0  0
  4  3  2  0  0  0  0
  4  5  1  0  0  0  0
  5  6  2  0  0  0  0
  6  1  1  0  0  0  0
  6 21  1  0  0  0  0
  7  3  1  0  0  0  0
  8  4  1  0  0  0  0
  9  5  1  0  0  0  0
 10 15  1  0  0  0  0
 11 12  1  0  0  0  0
 11 10  2  0  0  0  0
 12 13  2  0  0  0  0
 13 14  1  0  0  0  0
 14 18  1  0  0  0  0
 15 14  2  0  0  0  0
 16 20  1  0  0  0  0
 16 10  1  0  0  0  0
 17 11  1  0  0  0  0
 19 16  1  0  0  0  0
 21 26  1  0  0  0  0
 22 21  2  0  0  0  0
 22 23  1  0  0  0  0
 23 24  2  0  0  0  0
 24 25  1  0  0  0  0
 24 29  1  0  0  0  0
 25 30  1  0  0  0  0
 26 31  1  0  0  0  0
 26 25  2  0  0  0  0
 27 22  1  0  0  0  0
 28 23  1  0  0  0  0
 31 32  1  0  0  0  0
 33 32  1  0  0  0  0
 35 34  3  0  0  0  0
M  END
>  <minimizedAffinity>
-5.83250093

>  <minimizedRMSD>
0.0454392433

$$$$
