
 OpenBabel03252508383D

 35 37  0  0  0  0  0  0  0  0999 V2000
   45.1180   33.9570   40.7280 C   0  0  0  0  0  0  0  0  0  0  0  0
   44.0790   33.6370   39.8910 C   0  0  0  0  0  0  0  0  0  0  0  0
   44.3810   33.1410   38.6560 C   0  0  0  0  0  0  0  0  0  0  0  0
   45.6650   32.9470   38.2070 C   0  0  0  0  0  0  0  0  0  0  0  0
   46.6930   33.2710   39.0550 C   0  0  0  0  0  0  0  0  0  0  0  0
   46.4410   33.7790   40.3230 C   0  0  0  0  0  0  0  0  0  0  0  0
   43.5260   32.9010   38.0310 H   0  0  0  0  0  0  0  0  0  0  0  0
   45.8490   32.5540   37.2230 H   0  0  0  0  0  0  0  0  0  0  0  0
   47.7150   33.1220   38.7140 H   0  0  0  0  0  0  0  0  0  0  0  0
   40.7940   35.2580   40.7930 C   0  0  0  0  0  0  0  0  0  0  0  0
   42.0910   35.0980   40.2800 C   0  0  0  0  0  0  0  0  0  0  0  0
   42.7400   33.8540   40.4050 C   0  0  0  0  0  0  0  0  0  0  0  0
   42.0230   32.8820   41.0380 N   0  0  0  0  0  0  0  0  0  0  0  0
   40.7910   33.0640   41.5150 C   0  0  0  0  0  0  0  0  0  0  0  0
   40.1790   34.2590   41.3900 N   0  0  0  0  0  0  0  0  0  0  0  0
   40.1930   36.5300   40.6390 N   0  0  0  0  0  0  0  0  0  0  0  0
   42.6240   35.9050   39.7850 H   0  0  0  0  0  0  0  0  0  0  0  0
   40.2330   32.2830   42.0170 H   0  0  0  0  0  0  0  0  0  0  0  0
   40.7590   37.3920   40.4850 H   0  0  0  0  0  0  0  0  0  0  0  0
   39.1810   36.7490   40.6600 H   0  0  0  0  0  0  0  0  0  0  0  0
   47.5930   34.0940   41.1420 C   0  0  0  0  0  0  0  0  0  0  0  0
   48.1410   35.3480   40.9310 C   0  0  0  0  0  0  0  0  0  0  0  0
   49.2500   35.8320   41.6230 C   0  0  0  0  0  0  0  0  0  0  0  0
   49.8200   34.9980   42.5660 C   0  0  0  0  0  0  0  0  0  0  0  0
   49.2870   33.7500   42.7860 C   0  0  0  0  0  0  0  0  0  0  0  0
   48.1750   33.2880   42.0800 C   0  0  0  0  0  0  0  0  0  0  0  0
   47.7260   36.0520   40.1910 H   0  0  0  0  0  0  0  0  0  0  0  0
   49.6420   36.8180   41.4210 H   0  0  0  0  0  0  0  0  0  0  0  0
   50.6790   35.4010   43.0840 H   0  0  0  0  0  0  0  0  0  0  0  0
   49.7740   33.1390   43.5350 H   0  0  0  0  0  0  0  0  0  0  0  0
   47.6420   31.9310   42.3280 C   0  0  0  0  0  2  0  0  0  0  0  0
   48.5480   30.9900   43.0260 C   0  0  0  0  0  2  0  0  0  0  0  0
   48.3750   29.9320   42.6760 H   0  0  0  0  0  0  0  0  0  0  0  0
   44.7000   34.9030   43.1140 N   0  0  0  0  0  0  0  0  0  0  0  0
   44.8860   34.4860   42.0390 C   0  0  0  0  0  0  0  0  0  0  0  0
  1 35  1  0  0  0  0
  2 12  1  0  0  0  0
  2  1  2  0  0  0  0
  3  2  1  0  0  0  0
  4  3  2  0  0  0  0
  4  5  1  0  0  0  0
  5  6  2  0  0  0  0
  6  1  1  0  0  0  0
  6 21  1  0  0  0  0
  7  3  1  0  0  0  0
  8  4  1  0  0  0  0
  9  5  1  0  0  0  0
 10 15  1  0  0  0  0
 11 12  1  0  0  0  0
 11 10  2  0  0  0  0
 12 13  2  0  0  0  0
 13 14  1  0  0  0  0
 14 18  1  0  0  0  0
 15 14  2  0  0  0  0
 16 20  1  0  0  0  0
 16 10  1  0  0  0  0
 17 11  1  0  0  0  0
 19 16  1  0  0  0  0
 21 26  1  0  0  0  0
 22 21  2  0  0  0  0
 22 23  1  0  0  0  0
 23 24  2  0  0  0  0
 24 25  1  0  0  0  0
 24 29  1  0  0  0  0
 25 30  1  0  0  0  0
 26 31  1  0  0  0  0
 26 25  2  0  0  0  0
 27 22  1  0  0  0  0
 28 23  1  0  0  0  0
 31 32  1  0  0  0  0
 33 32  1  0  0  0  0
 35 34  3  0  0  0  0
M  END
>  <minimizedAffinity>
-5.83095074

>  <minimizedRMSD>
0.066644311

$$$$
