
 OpenBabel03252500093D

 25 26  0  0  0  0  0  0  0  0999 V2000
   45.4300   32.1480   40.6630 Cl  0  0  0  0  0  0  0  0  0  0  0  0
   46.6860   33.2600   40.2190 C   0  0  0  0  0  0  0  0  0  0  0  0
   47.2910   34.0660   41.1590 C   0  0  0  0  0  0  0  0  0  0  0  0
   48.2990   34.9660   40.8340 C   0  0  0  0  0  0  0  0  0  0  0  0
   48.6640   35.0060   39.5020 C   0  0  0  0  0  0  0  0  0  0  0  0
   48.0700   34.2100   38.5540 C   0  0  0  0  0  0  0  0  0  0  0  0
   47.0950   33.3450   38.9000 C   0  0  0  0  0  0  0  0  0  0  0  0
   48.7720   35.5970   41.5740 H   0  0  0  0  0  0  0  0  0  0  0  0
   49.4380   35.6740   39.1510 H   0  0  0  0  0  0  0  0  0  0  0  0
   48.3700   34.2550   37.5070 H   0  0  0  0  0  0  0  0  0  0  0  0
   46.9310   32.9060   44.6350 C   0  0  0  0  0  0  0  0  0  0  0  0
   46.0030   33.8210   45.1700 C   0  0  0  0  0  0  0  0  0  0  0  0
   45.5180   34.8160   44.3340 C   0  0  0  0  0  0  0  0  0  0  0  0
   45.9480   34.8730   43.0460 N   0  0  0  0  0  0  0  0  0  0  0  0
   46.8520   33.9710   42.5530 C   0  0  0  0  0  0  0  0  0  0  0  0
   47.3320   33.0000   43.3510 N   0  0  0  0  0  0  0  0  0  0  0  0
   47.3000   32.1330   45.2930 H   0  0  0  0  0  0  0  0  0  0  0  0
   45.6440   33.7970   46.1880 H   0  0  0  0  0  0  0  0  0  0  0  0
   44.5190   35.8560   44.7780 C   0  0  0  0  0  0  0  0  0  0  0  0
   44.9950   37.1270   44.5370 F   0  0  0  0  0  0  0  0  0  0  0  0
   43.3410   35.6750   44.0690 F   0  0  0  0  0  0  0  0  0  0  0  0
   44.3060   35.6450   46.1170 F   0  0  0  0  0  0  0  0  0  0  0  0
   46.4150   32.4470   37.8980 C   0  0  0  0  0  0  0  0  0  0  0  0
   45.5940   33.2830   36.9290 C   0  0  0  0  0  0  0  0  0  0  0  0
   45.3420   34.2770   37.3650 H   0  0  0  0  0  0  0  0  0  0  0  0
  2  1  1  0  0  0  0
  2  3  1  0  0  0  0
  3 15  1  0  0  0  0
  4  3  2  0  0  0  0
  4  8  1  0  0  0  0
  5  4  1  0  0  0  0
  6  7  1  0  0  0  0
  6  5  2  0  0  0  0
  7  2  2  0  0  0  0
  9  5  1  0  0  0  0
 10  6  1  0  0  0  0
 11 12  1  0  0  0  0
 11 17  1  0  0  0  0
 12 18  1  0  0  0  0
 13 19  1  0  0  0  0
 13 12  2  0  0  0  0
 14 13  1  0  0  0  0
 15 14  2  0  0  0  0
 15 16  1  0  0  0  0
 16 11  2  0  0  0  0
 19 22  1  0  0  0  0
 20 19  1  0  0  0  0
 21 19  1  0  0  0  0
 23  7  1  0  0  0  0
 24 25  1  0  0  0  0
 24 23  1  0  0  0  0
M  END
>  <minimizedAffinity>
-5.13580465

>  <minimizedRMSD>
1.37627089

$$$$
