
 OpenBabel03252504563D

 25 26  0  0  1  0  0  0  0  0999 V2000
   36.8050   29.3440   41.6460 N   0  0  0  0  0  0  0  0  0  0  0  0
   38.0530   29.7750   42.1960 C   0  0  0  0  0  0  0  0  0  0  0  0
   38.1760   28.8560   43.3860 C   0  0  0  0  0  0  0  0  0  0  0  0
   37.0200   27.8940   43.4030 C   0  0  0  0  0  0  0  0  0  0  0  0
   36.4370   28.0530   41.9780 C   0  0  2  0  0  0  0  0  0  0  0  0
   38.8270   30.4670   42.0360 H   0  0  0  0  0  0  0  0  0  0  0  0
   38.9870   28.8220   44.1230 H   0  0  0  0  0  0  0  0  0  0  0  0
   37.4650   26.8890   43.4850 H   0  0  0  0  0  0  0  0  0  0  0  0
   36.2880   28.1140   44.1790 H   0  0  0  0  0  0  0  0  0  0  0  0
   35.3660   27.8210   42.0940 H   0  0  0  0  0  0  0  0  0  0  0  0
   36.0710   30.2570   40.9510 C   0  0  0  0  0  0  0  0  0  0  0  0
   36.0790   31.2500   41.5150 H   0  0  0  0  0  0  0  0  0  0  0  0
   34.9620   30.0930   40.8600 H   0  0  0  0  0  0  0  0  0  0  0  0
   37.5750   31.9410   37.9250 C   0  0  0  0  0  0  0  0  0  0  0  0
   37.1270   31.8050   39.2660 C   0  0  0  0  0  0  0  0  0  0  0  0
   36.5410   30.5980   39.6160 C   0  0  0  0  0  0  0  0  0  0  0  0
   36.4310   29.6380   38.6720 N   0  0  0  0  0  0  0  0  0  0  0  0
   36.8710   29.7930   37.3820 C   0  0  0  0  0  0  0  0  0  0  0  0
   37.4470   30.9510   37.0100 N   0  0  0  0  0  0  0  0  0  0  0  0
   38.0220   32.9030   37.7200 H   0  0  0  0  0  0  0  0  0  0  0  0
   37.2160   32.5700   40.0020 H   0  0  0  0  0  0  0  0  0  0  0  0
   36.7270   28.9520   36.7190 H   0  0  0  0  0  0  0  0  0  0  0  0
   37.0190   26.9560   41.1200 C   0  0  0  0  0  2  0  0  0  0  0  0
   37.1510   25.6360   41.8310 C   0  0  0  0  0  2  0  0  0  0  0  0
   37.6980   25.7570   42.7690 H   0  0  0  0  0  0  0  0  0  0  0  0
  1  5  1  0  0  0  0
  1  2  1  0  0  0  0
  2  3  2  0  0  0  0
  3  4  1  0  0  0  0
  3  7  1  0  0  0  0
  4  8  1  0  0  0  0
  4  9  1  0  0  0  0
  5 10  1  1  0  0  0
  5  4  1  0  0  0  0
  6  2  1  0  0  0  0
 11 12  1  0  0  0  0
 11  1  1  0  0  0  0
 13 11  1  0  0  0  0
 14 15  1  0  0  0  0
 15 16  2  0  0  0  0
 15 21  1  0  0  0  0
 16 11  1  0  0  0  0
 17 16  1  0  0  0  0
 18 17  2  0  0  0  0
 19 18  1  0  0  0  0
 19 14  2  0  0  0  0
 20 14  1  0  0  0  0
 22 18  1  0  0  0  0
 23 24  1  0  0  0  0
 23  5  1  0  0  0  0
 24 25  1  0  0  0  0
M  END
>  <minimizedAffinity>
-4.20362377

$$$$

 OpenBabel03252504563D

 25 26  0  0  1  0  0  0  0  0999 V2000
   37.0410   31.1030   40.3190 N   0  0  0  0  0  0  0  0  0  0  0  0
   37.3910   30.4550   39.0930 C   0  0  0  0  0  0  0  0  0  0  0  0
   37.4490   31.6330   38.1510 C   0  0  0  0  0  0  0  0  0  0  0  0
   37.2030   32.9050   38.9170 C   0  0  0  0  0  0  0  0  0  0  0  0
   37.3740   32.4440   40.3850 C   0  0  2  0  0  0  0  0  0  0  0  0
   37.5960   29.5050   38.6950 H   0  0  0  0  0  0  0  0  0  0  0  0
   37.6800   31.6200   37.0800 H   0  0  0  0  0  0  0  0  0  0  0  0
   38.0400   33.5750   38.6640 H   0  0  0  0  0  0  0  0  0  0  0  0
   36.2220   33.3380   38.7280 H   0  0  0  0  0  0  0  0  0  0  0  0
   36.7240   33.1230   40.9600 H   0  0  0  0  0  0  0  0  0  0  0  0
   36.3420   30.3820   41.2400 C   0  0  0  0  0  0  0  0  0  0  0  0
   35.4800   29.8460   40.7180 H   0  0  0  0  0  0  0  0  0  0  0  0
   35.7740   30.9380   42.0340 H   0  0  0  0  0  0  0  0  0  0  0  0
   38.8230   28.3320   43.2140 C   0  0  0  0  0  0  0  0  0  0  0  0
   38.2940   29.4680   42.5470 C   0  0  0  0  0  0  0  0  0  0  0  0
   37.0630   29.3190   41.9260 C   0  0  0  0  0  0  0  0  0  0  0  0
   36.4510   28.1170   41.9900 N   0  0  0  0  0  0  0  0  0  0  0  0
   36.9830   27.0320   42.6410 C   0  0  0  0  0  0  0  0  0  0  0  0
   38.1750   27.1440   43.2560 N   0  0  0  0  0  0  0  0  0  0  0  0
   39.7820   28.5170   43.6780 H   0  0  0  0  0  0  0  0  0  0  0  0
   38.7870   30.4120   42.5010 H   0  0  0  0  0  0  0  0  0  0  0  0
   36.3980   26.1240   42.6220 H   0  0  0  0  0  0  0  0  0  0  0  0
   38.7900   32.7570   40.8010 C   0  0  0  0  0  2  0  0  0  0  0  0
   39.2250   34.1590   40.4690 C   0  0  0  0  0  2  0  0  0  0  0  0
   39.0500   34.3750   39.4120 H   0  0  0  0  0  0  0  0  0  0  0  0
  1  5  1  0  0  0  0
  1 11  1  0  0  0  0
  2  1  1  0  0  0  0
  3  4  1  0  0  0  0
  3  2  2  0  0  0  0
  4  5  1  0  0  0  0
  5 23  1  0  0  0  0
  5 10  1  1  0  0  0
  6  2  1  0  0  0  0
  7  3  1  0  0  0  0
  8  4  1  0  0  0  0
  9  4  1  0  0  0  0
 11 16  1  0  0  0  0
 11 13  1  0  0  0  0
 12 11  1  0  0  0  0
 14 19  1  0  0  0  0
 14 20  1  0  0  0  0
 15 14  2  0  0  0  0
 16 17  2  0  0  0  0
 16 15  1  0  0  0  0
 17 18  1  0  0  0  0
 18 19  2  0  0  0  0
 21 15  1  0  0  0  0
 22 18  1  0  0  0  0
 24 23  1  0  0  0  0
 25 24  1  0  0  0  0
M  END
>  <minimizedAffinity>
-4.12988281

$$$$

 OpenBabel03252504563D

 25 26  0  0  1  0  0  0  0  0999 V2000
   36.7060   28.6170   41.8370 N   0  0  0  0  0  0  0  0  0  0  0  0
   36.0330   28.3410   40.6050 C   0  0  0  0  0  0  0  0  0  0  0  0
   35.7040   29.7370   40.1380 C   0  0  0  0  0  0  0  0  0  0  0  0
   36.2810   30.7410   41.0990 C   0  0  0  0  0  0  0  0  0  0  0  0
   37.2660   29.8780   41.9250 C   0  0  2  0  0  0  0  0  0  0  0  0
   35.7310   27.5410   39.9950 H   0  0  0  0  0  0  0  0  0  0  0  0
   35.1740   30.0280   39.2230 H   0  0  0  0  0  0  0  0  0  0  0  0
   36.8670   31.4440   40.4850 H   0  0  0  0  0  0  0  0  0  0  0  0
   35.5290   31.2230   41.7210 H   0  0  0  0  0  0  0  0  0  0  0  0
   37.3020   30.3740   42.9080 H   0  0  0  0  0  0  0  0  0  0  0  0
   36.6450   27.6720   42.8170 C   0  0  0  0  0  0  0  0  0  0  0  0
   35.7540   26.9870   42.6190 H   0  0  0  0  0  0  0  0  0  0  0  0
   36.4070   28.0040   43.8640 H   0  0  0  0  0  0  0  0  0  0  0  0
   39.9200   26.0040   43.6790 C   0  0  0  0  0  0  0  0  0  0  0  0
   38.9390   27.0300   43.6390 C   0  0  0  0  0  0  0  0  0  0  0  0
   37.7790   26.7660   42.9270 C   0  0  0  0  0  0  0  0  0  0  0  0
   37.6560   25.5660   42.3200 N   0  0  0  0  0  0  0  0  0  0  0  0
   38.6190   24.5900   42.3720 C   0  0  0  0  0  0  0  0  0  0  0  0
   39.7550   24.8130   43.0580 N   0  0  0  0  0  0  0  0  0  0  0  0
   40.7970   26.2730   44.2520 H   0  0  0  0  0  0  0  0  0  0  0  0
   39.0480   27.9750   44.1200 H   0  0  0  0  0  0  0  0  0  0  0  0
   38.4030   23.6720   41.8460 H   0  0  0  0  0  0  0  0  0  0  0  0
   38.6380   30.0400   41.3160 C   0  0  0  0  0  2  0  0  0  0  0  0
   39.1530   31.4530   41.3490 C   0  0  0  0  0  2  0  0  0  0  0  0
   38.4250   32.1380   40.9090 H   0  0  0  0  0  0  0  0  0  0  0  0
  1  5  1  0  0  0  0
  1 11  1  0  0  0  0
  2  1  1  0  0  0  0
  3  2  2  0  0  0  0
  3  4  1  0  0  0  0
  4  9  1  0  0  0  0
  4  5  1  0  0  0  0
  5 10  1  1  0  0  0
  6  2  1  0  0  0  0
  7  3  1  0  0  0  0
  8  4  1  0  0  0  0
 11 16  1  0  0  0  0
 11 13  1  0  0  0  0
 12 11  1  0  0  0  0
 14 20  1  0  0  0  0
 15 14  1  0  0  0  0
 15 21  1  0  0  0  0
 16 15  2  0  0  0  0
 17 18  2  0  0  0  0
 17 16  1  0  0  0  0
 18 19  1  0  0  0  0
 19 14  2  0  0  0  0
 22 18  1  0  0  0  0
 23 24  1  0  0  0  0
 23  5  1  0  0  0  0
 25 24  1  0  0  0  0
M  END
>  <minimizedAffinity>
-4.10461092

$$$$

 OpenBabel03252504563D

 25 26  0  0  1  0  0  0  0  0999 V2000
   38.4100   29.1390   40.9500 N   0  0  0  0  0  0  0  0  0  0  0  0
   39.6720   28.5290   41.2370 C   0  0  0  0  0  0  0  0  0  0  0  0
   39.6870   28.5940   42.7440 C   0  0  0  0  0  0  0  0  0  0  0  0
   38.3880   29.1710   43.2390 C   0  0  0  0  0  0  0  0  0  0  0  0
   37.4890   29.0860   41.9810 C   0  0  2  0  0  0  0  0  0  0  0  0
   40.5020   28.0970   40.7610 H   0  0  0  0  0  0  0  0  0  0  0  0
   40.4750   28.2420   43.4200 H   0  0  0  0  0  0  0  0  0  0  0  0
   38.0060   28.4580   43.9870 H   0  0  0  0  0  0  0  0  0  0  0  0
   38.4840   30.1890   43.6130 H   0  0  0  0  0  0  0  0  0  0  0  0
   36.7770   29.9180   42.0990 H   0  0  0  0  0  0  0  0  0  0  0  0
   38.2750   29.7850   39.7580 C   0  0  0  0  0  0  0  0  0  0  0  0
   37.2980   29.4590   39.2660 H   0  0  0  0  0  0  0  0  0  0  0  0
   38.9990   29.5420   38.9340 H   0  0  0  0  0  0  0  0  0  0  0  0
   37.2080   33.3940   39.4520 C   0  0  0  0  0  0  0  0  0  0  0  0
   37.1550   31.9880   39.2620 C   0  0  0  0  0  0  0  0  0  0  0  0
   38.1870   31.2380   39.8060 C   0  0  0  0  0  0  0  0  0  0  0  0
   39.1690   31.8820   40.4730 N   0  0  0  0  0  0  0  0  0  0  0  0
   39.1990   33.2430   40.6430 C   0  0  0  0  0  0  0  0  0  0  0  0
   38.2110   34.0000   40.1300 N   0  0  0  0  0  0  0  0  0  0  0  0
   36.3740   33.9170   39.0060 H   0  0  0  0  0  0  0  0  0  0  0  0
   36.3760   31.4900   38.7320 H   0  0  0  0  0  0  0  0  0  0  0  0
   40.0380   33.6410   41.1960 H   0  0  0  0  0  0  0  0  0  0  0  0
   36.6800   27.8160   42.0830 C   0  0  0  0  0  2  0  0  0  0  0  0
   36.4060   27.3820   43.4970 C   0  0  0  0  0  2  0  0  0  0  0  0
   37.3350   27.3230   44.0680 H   0  0  0  0  0  0  0  0  0  0  0  0
  1  2  1  0  0  0  0
  1  5  1  0  0  0  0
  2  3  2  0  0  0  0
  3  4  1  0  0  0  0
  3  7  1  0  0  0  0
  4  9  1  0  0  0  0
  4  8  1  0  0  0  0
  5 23  1  0  0  0  0
  5 10  1  6  0  0  0
  5  4  1  0  0  0  0
  6  2  1  0  0  0  0
 11 16  1  0  0  0  0
 11  1  1  0  0  0  0
 12 11  1  0  0  0  0
 13 11  1  0  0  0  0
 14 19  1  0  0  0  0
 15 14  2  0  0  0  0
 15 16  1  0  0  0  0
 16 17  2  0  0  0  0
 17 18  1  0  0  0  0
 18 22  1  0  0  0  0
 19 18  2  0  0  0  0
 20 14  1  0  0  0  0
 21 15  1  0  0  0  0
 23 24  1  0  0  0  0
 24 25  1  0  0  0  0
M  END
>  <minimizedAffinity>
-4.07603359

$$$$

 OpenBabel03252504563D

 25 26  0  0  1  0  0  0  0  0999 V2000
   38.4940   29.2470   42.2600 N   0  0  0  0  0  0  0  0  0  0  0  0
   39.4710   28.2310   42.5000 C   0  0  0  0  0  0  0  0  0  0  0  0
   38.7330   27.3480   43.4770 C   0  0  0  0  0  0  0  0  0  0  0  0
   37.3380   27.8730   43.6790 C   0  0  0  0  0  0  0  0  0  0  0  0
   37.1860   28.8670   42.5020 C   0  0  2  0  0  0  0  0  0  0  0  0
   40.4450   27.9470   42.2300 H   0  0  0  0  0  0  0  0  0  0  0  0
   39.0960   26.4290   43.9530 H   0  0  0  0  0  0  0  0  0  0  0  0
   36.6650   27.0190   43.5000 H   0  0  0  0  0  0  0  0  0  0  0  0
   37.1940   28.3500   44.6470 H   0  0  0  0  0  0  0  0  0  0  0  0
   36.4750   29.6230   42.8740 H   0  0  0  0  0  0  0  0  0  0  0  0
   38.9410   30.4890   41.9210 C   0  0  0  0  0  0  0  0  0  0  0  0
   40.0800   30.4670   41.8450 H   0  0  0  0  0  0  0  0  0  0  0  0
   38.8120   31.3240   42.6630 H   0  0  0  0  0  0  0  0  0  0  0  0
   38.1990   31.0480   38.2620 C   0  0  0  0  0  0  0  0  0  0  0  0
   38.7500   30.4180   39.4090 C   0  0  0  0  0  0  0  0  0  0  0  0
   38.5040   31.0160   40.6360 C   0  0  0  0  0  0  0  0  0  0  0  0
   37.7680   32.1480   40.6650 N   0  0  0  0  0  0  0  0  0  0  0  0
   37.2470   32.7390   39.5420 C   0  0  0  0  0  0  0  0  0  0  0  0
   37.4640   32.1830   38.3360 N   0  0  0  0  0  0  0  0  0  0  0  0
   38.4260   30.5310   37.3400 H   0  0  0  0  0  0  0  0  0  0  0  0
   39.3310   29.5260   39.3750 H   0  0  0  0  0  0  0  0  0  0  0  0
   36.6740   33.6420   39.6950 H   0  0  0  0  0  0  0  0  0  0  0  0
   36.4860   28.1420   41.3780 C   0  0  0  0  0  2  0  0  0  0  0  0
   35.4390   28.9690   40.6830 C   0  0  0  0  0  2  0  0  0  0  0  0
   34.7330   29.3830   41.4060 H   0  0  0  0  0  0  0  0  0  0  0  0
  1  2  1  0  0  0  0
  1  5  1  0  0  0  0
  2  3  2  0  0  0  0
  3  4  1  0  0  0  0
  3  7  1  0  0  0  0
  4  9  1  0  0  0  0
  5 10  1  1  0  0  0
  5  4  1  0  0  0  0
  6  2  1  0  0  0  0
  8  4  1  0  0  0  0
 11  1  1  0  0  0  0
 11 13  1  0  0  0  0
 12 11  1  0  0  0  0
 14 19  2  0  0  0  0
 14 15  1  0  0  0  0
 15 16  2  0  0  0  0
 16 17  1  0  0  0  0
 16 11  1  0  0  0  0
 18 22  1  0  0  0  0
 18 17  2  0  0  0  0
 19 18  1  0  0  0  0
 20 14  1  0  0  0  0
 21 15  1  0  0  0  0
 23  5  1  0  0  0  0
 24 23  1  0  0  0  0
 24 25  1  0  0  0  0
M  END
>  <minimizedAffinity>
-4.06712246

$$$$

 OpenBabel03252504563D

 25 26  0  0  1  0  0  0  0  0999 V2000
   38.5320   28.3010   42.5910 N   0  0  0  0  0  0  0  0  0  0  0  0
   37.4880   28.6860   43.4900 C   0  0  0  0  0  0  0  0  0  0  0  0
   36.6110   27.4580   43.4540 C   0  0  0  0  0  0  0  0  0  0  0  0
   37.2500   26.4050   42.5900 C   0  0  0  0  0  0  0  0  0  0  0  0
   38.6960   26.9360   42.4380 C   0  0  2  0  0  0  0  0  0  0  0  0
   37.1820   29.4830   44.1010 H   0  0  0  0  0  0  0  0  0  0  0  0
   35.6720   27.2920   43.9950 H   0  0  0  0  0  0  0  0  0  0  0  0
   37.2800   25.4890   43.2030 H   0  0  0  0  0  0  0  0  0  0  0  0
   36.7520   26.2750   41.6310 H   0  0  0  0  0  0  0  0  0  0  0  0
   39.0270   26.5490   41.4610 H   0  0  0  0  0  0  0  0  0  0  0  0
   39.1800   29.2900   41.9130 C   0  0  0  0  0  0  0  0  0  0  0  0
   40.0180   28.8270   41.2910 H   0  0  0  0  0  0  0  0  0  0  0  0
   39.7670   30.0450   42.5020 H   0  0  0  0  0  0  0  0  0  0  0  0
   36.9300   30.3850   39.0850 C   0  0  0  0  0  0  0  0  0  0  0  0
   37.6850   29.4950   39.8940 C   0  0  0  0  0  0  0  0  0  0  0  0
   38.3940   30.0480   40.9490 C   0  0  0  0  0  0  0  0  0  0  0  0
   38.3260   31.3830   41.1410 N   0  0  0  0  0  0  0  0  0  0  0  0
   37.5890   32.2240   40.3460 C   0  0  0  0  0  0  0  0  0  0  0  0
   36.8880   31.7180   39.3140 N   0  0  0  0  0  0  0  0  0  0  0  0
   36.4010   29.8900   38.2830 H   0  0  0  0  0  0  0  0  0  0  0  0
   37.7340   28.4420   39.7320 H   0  0  0  0  0  0  0  0  0  0  0  0
   37.6140   33.2730   40.6010 H   0  0  0  0  0  0  0  0  0  0  0  0
   39.5480   26.2500   43.4780 C   0  0  0  0  0  2  0  0  0  0  0  0
   39.7960   24.7930   43.1940 C   0  0  0  0  0  2  0  0  0  0  0  0
   38.8530   24.2690   43.0240 H   0  0  0  0  0  0  0  0  0  0  0  0
  1  2  1  0  0  0  0
  2  6  1  0  0  0  0
  3  2  2  0  0  0  0
  3  7  1  0  0  0  0
  4  8  1  0  0  0  0
  4  3  1  0  0  0  0
  5 10  1  6  0  0  0
  5  4  1  0  0  0  0
  5  1  1  0  0  0  0
  5 23  1  0  0  0  0
  9  4  1  0  0  0  0
 11 13  1  0  0  0  0
 11  1  1  0  0  0  0
 12 11  1  0  0  0  0
 14 19  2  0  0  0  0
 14 15  1  0  0  0  0
 15 16  2  0  0  0  0
 16 17  1  0  0  0  0
 16 11  1  0  0  0  0
 18 22  1  0  0  0  0
 18 17  2  0  0  0  0
 19 18  1  0  0  0  0
 20 14  1  0  0  0  0
 21 15  1  0  0  0  0
 24 23  1  0  0  0  0
 25 24  1  0  0  0  0
M  END
>  <minimizedAffinity>
-4.02443266

$$$$

 OpenBabel03252504563D

 25 26  0  0  1  0  0  0  0  0999 V2000
   39.0600   27.7250   42.4850 N   0  0  0  0  0  0  0  0  0  0  0  0
   40.0520   27.5060   41.4790 C   0  0  0  0  0  0  0  0  0  0  0  0
   40.3680   26.0470   41.6990 C   0  0  0  0  0  0  0  0  0  0  0  0
   39.4750   25.4930   42.7750 C   0  0  0  0  0  0  0  0  0  0  0  0
   38.3880   26.5890   42.8980 C   0  0  2  0  0  0  0  0  0  0  0  0
   40.5720   28.0050   40.7140 H   0  0  0  0  0  0  0  0  0  0  0  0
   41.0910   25.4300   41.1510 H   0  0  0  0  0  0  0  0  0  0  0  0
   39.0100   24.5900   42.3470 H   0  0  0  0  0  0  0  0  0  0  0  0
   39.9940   25.3150   43.7160 H   0  0  0  0  0  0  0  0  0  0  0  0
   38.0530   26.5230   43.9460 H   0  0  0  0  0  0  0  0  0  0  0  0
   38.9450   28.9820   42.9990 C   0  0  0  0  0  0  0  0  0  0  0  0
   39.9880   29.3910   43.2180 H   0  0  0  0  0  0  0  0  0  0  0  0
   38.4710   29.1040   44.0100 H   0  0  0  0  0  0  0  0  0  0  0  0
   38.2700   31.8920   40.6900 C   0  0  0  0  0  0  0  0  0  0  0  0
   39.0190   31.0360   41.5410 C   0  0  0  0  0  0  0  0  0  0  0  0
   38.3370   29.9880   42.1410 C   0  0  0  0  0  0  0  0  0  0  0  0
   37.0180   29.8490   41.8860 N   0  0  0  0  0  0  0  0  0  0  0  0
   36.3150   30.6900   41.0600 C   0  0  0  0  0  0  0  0  0  0  0  0
   36.9480   31.7150   40.4600 N   0  0  0  0  0  0  0  0  0  0  0  0
   38.8610   32.6850   40.2540 H   0  0  0  0  0  0  0  0  0  0  0  0
   40.0590   31.1570   41.7370 H   0  0  0  0  0  0  0  0  0  0  0  0
   35.2640   30.4740   40.9340 H   0  0  0  0  0  0  0  0  0  0  0  0
   37.2140   26.1660   42.0490 C   0  0  0  0  0  2  0  0  0  0  0  0
   36.9340   24.6880   42.0940 C   0  0  0  0  0  2  0  0  0  0  0  0
   37.8360   24.1190   41.8600 H   0  0  0  0  0  0  0  0  0  0  0  0
  1  5  1  0  0  0  0
  1 11  1  0  0  0  0
  2  3  2  0  0  0  0
  2  1  1  0  0  0  0
  3  4  1  0  0  0  0
  4  5  1  0  0  0  0
  4  9  1  0  0  0  0
  5 10  1  1  0  0  0
  6  2  1  0  0  0  0
  7  3  1  0  0  0  0
  8  4  1  0  0  0  0
 11 12  1  0  0  0  0
 11 13  1  0  0  0  0
 14 15  1  0  0  0  0
 15 21  1  0  0  0  0
 15 16  2  0  0  0  0
 16 11  1  0  0  0  0
 17 16  1  0  0  0  0
 18 17  2  0  0  0  0
 19 14  2  0  0  0  0
 19 18  1  0  0  0  0
 20 14  1  0  0  0  0
 22 18  1  0  0  0  0
 23 24  1  0  0  0  0
 23  5  1  0  0  0  0
 25 24  1  0  0  0  0
M  END
>  <minimizedAffinity>
-3.90092587

$$$$

 OpenBabel03252504563D

 25 26  0  0  1  0  0  0  0  0999 V2000
   37.1560   31.3030   40.0080 N   0  0  0  0  0  0  0  0  0  0  0  0
   37.4780   32.6950   40.0650 C   0  0  0  0  0  0  0  0  0  0  0  0
   38.8190   32.7090   39.3720 C   0  0  0  0  0  0  0  0  0  0  0  0
   39.1510   31.3240   38.8870 C   0  0  0  0  0  0  0  0  0  0  0  0
   37.7880   30.5990   38.9990 C   0  0  2  0  0  0  0  0  0  0  0  0
   37.1010   33.6120   40.4100 H   0  0  0  0  0  0  0  0  0  0  0  0
   39.4640   33.5750   39.1820 H   0  0  0  0  0  0  0  0  0  0  0  0
   39.4000   31.4300   37.8180 H   0  0  0  0  0  0  0  0  0  0  0  0
   39.9300   30.8380   39.4720 H   0  0  0  0  0  0  0  0  0  0  0  0
   38.0540   29.5450   39.1750 H   0  0  0  0  0  0  0  0  0  0  0  0
   36.3580   30.7960   40.9900 C   0  0  0  0  0  0  0  0  0  0  0  0
   35.3660   30.4680   40.5300 H   0  0  0  0  0  0  0  0  0  0  0  0
   35.9820   31.4950   41.7860 H   0  0  0  0  0  0  0  0  0  0  0  0
   36.9460   27.2930   42.2670 C   0  0  0  0  0  0  0  0  0  0  0  0
   36.3080   28.3400   41.5510 C   0  0  0  0  0  0  0  0  0  0  0  0
   36.8430   29.6130   41.6840 C   0  0  0  0  0  0  0  0  0  0  0  0
   37.9230   29.7770   42.4780 N   0  0  0  0  0  0  0  0  0  0  0  0
   38.5230   28.7490   43.1610 C   0  0  0  0  0  0  0  0  0  0  0  0
   38.0300   27.5010   43.0510 N   0  0  0  0  0  0  0  0  0  0  0  0
   36.4810   26.3290   42.1180 H   0  0  0  0  0  0  0  0  0  0  0  0
   35.4540   28.1990   40.9290 H   0  0  0  0  0  0  0  0  0  0  0  0
   39.3810   29.0070   43.7640 H   0  0  0  0  0  0  0  0  0  0  0  0
   37.1290   30.6500   37.6410 C   0  0  0  0  0  2  0  0  0  0  0  0
   36.1000   29.5740   37.4250 C   0  0  0  0  0  2  0  0  0  0  0  0
   36.5230   28.5900   37.6400 H   0  0  0  0  0  0  0  0  0  0  0  0
  1  2  1  0  0  0  0
  1 11  1  0  0  0  0
  2  6  1  0  0  0  0
  3  2  2  0  0  0  0
  4  5  1  0  0  0  0
  4  3  1  0  0  0  0
  4  9  1  0  0  0  0
  5 10  1  1  0  0  0
  5  1  1  0  0  0  0
  7  3  1  0  0  0  0
  8  4  1  0  0  0  0
 11 16  1  0  0  0  0
 11 13  1  0  0  0  0
 12 11  1  0  0  0  0
 14 19  1  0  0  0  0
 15 16  1  0  0  0  0
 15 14  2  0  0  0  0
 16 17  2  0  0  0  0
 17 18  1  0  0  0  0
 18 22  1  0  0  0  0
 19 18  2  0  0  0  0
 20 14  1  0  0  0  0
 21 15  1  0  0  0  0
 23  5  1  0  0  0  0
 24 25  1  0  0  0  0
 24 23  1  0  0  0  0
M  END
>  <minimizedAffinity>
-3.89858699

$$$$

 OpenBabel03252504563D

 25 26  0  0  1  0  0  0  0  0999 V2000
   37.2370   28.2190   42.4770 N   0  0  0  0  0  0  0  0  0  0  0  0
   37.9420   29.0470   43.4060 C   0  0  0  0  0  0  0  0  0  0  0  0
   38.8420   29.8230   42.4750 C   0  0  0  0  0  0  0  0  0  0  0  0
   38.5410   29.4450   41.0500 C   0  0  0  0  0  0  0  0  0  0  0  0
   37.1870   28.7070   41.1830 C   0  0  2  0  0  0  0  0  0  0  0  0
   38.0140   29.2530   44.4330 H   0  0  0  0  0  0  0  0  0  0  0  0
   39.5790   30.5890   42.7420 H   0  0  0  0  0  0  0  0  0  0  0  0
   38.3670   30.3940   40.5170 H   0  0  0  0  0  0  0  0  0  0  0  0
   39.3110   28.8220   40.5980 H   0  0  0  0  0  0  0  0  0  0  0  0
   37.1840   27.9890   40.3470 H   0  0  0  0  0  0  0  0  0  0  0  0
   36.7830   27.0140   42.9210 C   0  0  0  0  0  0  0  0  0  0  0  0
   35.6830   26.9010   42.6330 H   0  0  0  0  0  0  0  0  0  0  0  0
   36.7120   26.8450   44.0300 H   0  0  0  0  0  0  0  0  0  0  0  0
   37.5640   23.7700   41.1540 C   0  0  0  0  0  0  0  0  0  0  0  0
   36.7670   24.8280   41.6660 C   0  0  0  0  0  0  0  0  0  0  0  0
   37.4220   25.8280   42.3700 C   0  0  0  0  0  0  0  0  0  0  0  0
   38.7600   25.7340   42.5270 N   0  0  0  0  0  0  0  0  0  0  0  0
   39.5090   24.7000   42.0230 C   0  0  0  0  0  0  0  0  0  0  0  0
   38.9050   23.7160   41.3330 N   0  0  0  0  0  0  0  0  0  0  0  0
   36.9930   23.0270   40.6160 H   0  0  0  0  0  0  0  0  0  0  0  0
   35.7110   24.8910   41.5380 H   0  0  0  0  0  0  0  0  0  0  0  0
   40.5720   24.7370   42.2150 H   0  0  0  0  0  0  0  0  0  0  0  0
   36.0910   29.7030   40.8920 C   0  0  0  0  0  2  0  0  0  0  0  0
   34.9390   29.1280   40.1130 C   0  0  0  0  0  2  0  0  0  0  0  0
   35.2970   28.6340   39.2070 H   0  0  0  0  0  0  0  0  0  0  0  0
  1 11  1  0  0  0  0
  1  2  1  0  0  0  0
  2  6  1  0  0  0  0
  3  7  1  0  0  0  0
  3  2  2  0  0  0  0
  4  5  1  0  0  0  0
  4  3  1  0  0  0  0
  5 10  1  6  0  0  0
  5  1  1  0  0  0  0
  8  4  1  0  0  0  0
  9  4  1  0  0  0  0
 11 13  1  0  0  0  0
 12 11  1  0  0  0  0
 14 19  2  0  0  0  0
 14 15  1  0  0  0  0
 15 16  2  0  0  0  0
 16 17  1  0  0  0  0
 16 11  1  0  0  0  0
 18 22  1  0  0  0  0
 18 17  2  0  0  0  0
 19 18  1  0  0  0  0
 20 14  1  0  0  0  0
 21 15  1  0  0  0  0
 23  5  1  0  0  0  0
 24 23  1  0  0  0  0
 25 24  1  0  0  0  0
M  END
>  <minimizedAffinity>
-3.88466668

$$$$
