
 OpenBabel03242516013D

 22 23  0  0  0  0  0  0  0  0999 V2000
   37.5250   28.1340   39.2170 Cl  0  0  0  0  0  0  0  0  0  0  0  0
   37.4240   28.1000   40.9660 C   0  0  0  0  0  0  0  0  0  0  0  0
   37.6320   29.2270   41.7100 C   0  0  0  0  0  0  0  0  0  0  0  0
   37.5260   29.0910   43.0760 C   0  0  0  0  0  0  0  0  0  0  0  0
   37.2330   27.9070   43.6790 C   0  0  0  0  0  0  0  0  0  0  0  0
   37.0260   26.7810   42.9210 C   0  0  0  0  0  0  0  0  0  0  0  0
   37.1260   26.8930   41.5570 C   0  0  0  0  0  0  0  0  0  0  0  0
   37.6890   29.9740   43.6880 H   0  0  0  0  0  0  0  0  0  0  0  0
   37.1680   27.8830   44.7590 H   0  0  0  0  0  0  0  0  0  0  0  0
   36.7910   25.8400   43.4220 H   0  0  0  0  0  0  0  0  0  0  0  0
   37.2980   32.5670   39.9690 C   0  0  0  0  0  0  0  0  0  0  0  0
   36.9690   31.3830   40.6240 C   0  0  0  0  0  0  0  0  0  0  0  0
   37.9460   30.4760   41.0200 C   0  0  0  0  0  0  0  0  0  0  0  0
   39.2310   30.8060   40.7360 N   0  0  0  0  0  0  0  0  0  0  0  0
   39.5340   31.9530   40.1020 C   0  0  0  0  0  0  0  0  0  0  0  0
   38.5860   32.8360   39.7160 N   0  0  0  0  0  0  0  0  0  0  0  0
   36.4190   33.1730   39.7230 H   0  0  0  0  0  0  0  0  0  0  0  0
   35.9470   31.0650   40.8820 H   0  0  0  0  0  0  0  0  0  0  0  0
   40.5680   32.1350   39.9170 H   0  0  0  0  0  0  0  0  0  0  0  0
   36.9030   25.6810   40.7170 C   0  0  0  0  0  2  0  0  0  0  0  0
   36.8360   24.4040   41.5000 C   0  0  0  0  0  2  0  0  0  0  0  0
   37.1650   23.5510   40.8630 H   0  0  0  0  0  0  0  0  0  0  0  0
  1  2  1  0  0  0  0
  2  7  2  0  0  0  0
  2  3  1  0  0  0  0
  3  4  2  0  0  0  0
  4  5  1  0  0  0  0
  4  8  1  0  0  0  0
  5  9  1  0  0  0  0
  6 10  1  0  0  0  0
  6  5  2  0  0  0  0
  7  6  1  0  0  0  0
 11 12  1  0  0  0  0
 12 18  1  0  0  0  0
 12 13  2  0  0  0  0
 13  3  1  0  0  0  0
 14 13  1  0  0  0  0
 15 14  2  0  0  0  0
 16 11  2  0  0  0  0
 16 15  1  0  0  0  0
 17 11  1  0  0  0  0
 19 15  1  0  0  0  0
 20 21  1  0  0  0  0
 20  7  1  0  0  0  0
 22 21  1  0  0  0  0
M  END
>  <minimizedAffinity>
-4.619205

$$$$

 OpenBabel03242516013D

 22 23  0  0  0  0  0  0  0  0999 V2000
   39.2520   30.2510   42.4730 Cl  0  0  0  0  0  0  0  0  0  0  0  0
   37.8080   30.0480   41.5020 C   0  0  0  0  0  0  0  0  0  0  0  0
   37.5400   30.8750   40.4480 C   0  0  0  0  0  0  0  0  0  0  0  0
   36.3800   30.6270   39.7490 C   0  0  0  0  0  0  0  0  0  0  0  0
   35.5270   29.6160   40.0710 C   0  0  0  0  0  0  0  0  0  0  0  0
   35.8060   28.7910   41.1330 C   0  0  0  0  0  0  0  0  0  0  0  0
   36.9580   29.0210   41.8430 C   0  0  0  0  0  0  0  0  0  0  0  0
   36.1460   31.2730   38.9080 H   0  0  0  0  0  0  0  0  0  0  0  0
   34.6350   29.4870   39.4720 H   0  0  0  0  0  0  0  0  0  0  0  0
   35.1110   27.9860   41.3760 H   0  0  0  0  0  0  0  0  0  0  0  0
   40.4210   32.8290   38.9690 C   0  0  0  0  0  0  0  0  0  0  0  0
   39.5370   31.7890   39.2450 C   0  0  0  0  0  0  0  0  0  0  0  0
   38.4830   31.9470   40.1390 C   0  0  0  0  0  0  0  0  0  0  0  0
   38.3630   33.1650   40.7250 N   0  0  0  0  0  0  0  0  0  0  0  0
   39.2240   34.1610   40.4490 C   0  0  0  0  0  0  0  0  0  0  0  0
   40.2490   34.0080   39.5800 N   0  0  0  0  0  0  0  0  0  0  0  0
   41.1940   32.5460   38.2460 H   0  0  0  0  0  0  0  0  0  0  0  0
   39.5840   30.7830   38.8000 H   0  0  0  0  0  0  0  0  0  0  0  0
   39.0590   35.0860   40.9520 H   0  0  0  0  0  0  0  0  0  0  0  0
   37.2790   28.1330   42.9990 C   0  0  0  0  0  2  0  0  0  0  0  0
   37.0200   26.6800   42.7390 C   0  0  0  0  0  2  0  0  0  0  0  0
   36.7910   26.1590   43.6970 H   0  0  0  0  0  0  0  0  0  0  0  0
  2  7  1  0  0  0  0
  2  1  1  0  0  0  0
  3  2  2  0  0  0  0
  4  5  2  0  0  0  0
  4  3  1  0  0  0  0
  5  6  1  0  0  0  0
  6 10  1  0  0  0  0
  6  7  2  0  0  0  0
  7 20  1  0  0  0  0
  8  4  1  0  0  0  0
  9  5  1  0  0  0  0
 11 12  2  0  0  0  0
 11 16  1  0  0  0  0
 12 13  1  0  0  0  0
 13  3  1  0  0  0  0
 13 14  2  0  0  0  0
 15 14  1  0  0  0  0
 15 19  1  0  0  0  0
 16 15  2  0  0  0  0
 17 11  1  0  0  0  0
 18 12  1  0  0  0  0
 21 20  1  0  0  0  0
 21 22  1  0  0  0  0
M  END
>  <minimizedAffinity>
-4.60102081

$$$$

 OpenBabel03242516013D

 22 23  0  0  0  0  0  0  0  0999 V2000
   37.5380   31.1440   37.0440 Cl  0  0  0  0  0  0  0  0  0  0  0  0
   36.5530   30.4420   38.3120 C   0  0  0  0  0  0  0  0  0  0  0  0
   36.6960   30.8280   39.6160 C   0  0  0  0  0  0  0  0  0  0  0  0
   35.8700   30.2160   40.5330 C   0  0  0  0  0  0  0  0  0  0  0  0
   34.9530   29.2730   40.1850 C   0  0  0  0  0  0  0  0  0  0  0  0
   34.8180   28.8930   38.8720 C   0  0  0  0  0  0  0  0  0  0  0  0
   35.6300   29.4910   37.9420 C   0  0  0  0  0  0  0  0  0  0  0  0
   35.9670   30.5050   41.5750 H   0  0  0  0  0  0  0  0  0  0  0  0
   34.3420   28.8390   40.9660 H   0  0  0  0  0  0  0  0  0  0  0  0
   34.0770   28.1360   38.6120 H   0  0  0  0  0  0  0  0  0  0  0  0
   38.4190   34.1520   40.1460 C   0  0  0  0  0  0  0  0  0  0  0  0
   37.4480   33.2060   39.8250 C   0  0  0  0  0  0  0  0  0  0  0  0
   37.6940   31.8420   39.9430 C   0  0  0  0  0  0  0  0  0  0  0  0
   38.9260   31.4840   40.3860 N   0  0  0  0  0  0  0  0  0  0  0  0
   39.8540   32.4090   40.6910 C   0  0  0  0  0  0  0  0  0  0  0  0
   39.6170   33.7350   40.5770 N   0  0  0  0  0  0  0  0  0  0  0  0
   38.0720   35.1810   39.9990 H   0  0  0  0  0  0  0  0  0  0  0  0
   36.4340   33.4380   39.4650 H   0  0  0  0  0  0  0  0  0  0  0  0
   40.7960   32.0430   41.0310 H   0  0  0  0  0  0  0  0  0  0  0  0
   35.4980   29.0930   36.5100 C   0  0  0  0  0  2  0  0  0  0  0  0
   34.0790   28.9560   36.0470 C   0  0  0  0  0  2  0  0  0  0  0  0
   34.0220   28.2200   35.2120 H   0  0  0  0  0  0  0  0  0  0  0  0
  1  2  1  0  0  0  0
  2  3  1  0  0  0  0
  3 13  1  0  0  0  0
  3  4  2  0  0  0  0
  4  8  1  0  0  0  0
  5  4  1  0  0  0  0
  5  9  1  0  0  0  0
  6  5  2  0  0  0  0
  7  2  2  0  0  0  0
  7  6  1  0  0  0  0
 10  6  1  0  0  0  0
 11 16  1  0  0  0  0
 12 13  1  0  0  0  0
 12 11  2  0  0  0  0
 13 14  2  0  0  0  0
 14 15  1  0  0  0  0
 15 19  1  0  0  0  0
 16 15  2  0  0  0  0
 17 11  1  0  0  0  0
 18 12  1  0  0  0  0
 20  7  1  0  0  0  0
 21 20  1  0  0  0  0
 22 21  1  0  0  0  0
M  END
>  <minimizedAffinity>
-4.59481955

$$$$

 OpenBabel03242516013D

 22 23  0  0  0  0  0  0  0  0999 V2000
   37.6710   28.2270   39.2640 Cl  0  0  0  0  0  0  0  0  0  0  0  0
   37.4560   28.1040   40.9980 C   0  0  0  0  0  0  0  0  0  0  0  0
   37.6100   29.1920   41.8110 C   0  0  0  0  0  0  0  0  0  0  0  0
   37.4160   28.9860   43.1580 C   0  0  0  0  0  0  0  0  0  0  0  0
   37.0880   27.7730   43.6790 C   0  0  0  0  0  0  0  0  0  0  0  0
   36.9360   26.6860   42.8530 C   0  0  0  0  0  0  0  0  0  0  0  0
   37.1240   26.8690   41.5070 C   0  0  0  0  0  0  0  0  0  0  0  0
   37.5350   29.8370   43.8240 H   0  0  0  0  0  0  0  0  0  0  0  0
   36.9530   27.6940   44.7500 H   0  0  0  0  0  0  0  0  0  0  0  0
   36.6720   25.7210   43.2890 H   0  0  0  0  0  0  0  0  0  0  0  0
   39.5770   32.1770   40.5780 C   0  0  0  0  0  0  0  0  0  0  0  0
   39.2690   30.9510   41.1610 C   0  0  0  0  0  0  0  0  0  0  0  0
   37.9640   30.4740   41.2070 C   0  0  0  0  0  0  0  0  0  0  0  0
   37.0100   31.2660   40.6550 N   0  0  0  0  0  0  0  0  0  0  0  0
   37.3220   32.4490   40.0950 C   0  0  0  0  0  0  0  0  0  0  0  0
   38.5910   32.9130   40.0500 N   0  0  0  0  0  0  0  0  0  0  0  0
   40.6470   32.4100   40.6220 H   0  0  0  0  0  0  0  0  0  0  0  0
   40.0000   30.2670   41.6210 H   0  0  0  0  0  0  0  0  0  0  0  0
   36.5130   33.0080   39.6840 H   0  0  0  0  0  0  0  0  0  0  0  0
   36.9620   25.7010   40.5930 C   0  0  0  0  0  2  0  0  0  0  0  0
   36.9420   24.3770   41.2970 C   0  0  0  0  0  2  0  0  0  0  0  0
   37.3140   23.5790   40.6140 H   0  0  0  0  0  0  0  0  0  0  0  0
  1  2  1  0  0  0  0
  2  7  2  0  0  0  0
  2  3  1  0  0  0  0
  3  4  2  0  0  0  0
  4  5  1  0  0  0  0
  4  8  1  0  0  0  0
  5  9  1  0  0  0  0
  6 10  1  0  0  0  0
  6  5  2  0  0  0  0
  7  6  1  0  0  0  0
 11 17  1  0  0  0  0
 11 12  1  0  0  0  0
 12 13  2  0  0  0  0
 12 18  1  0  0  0  0
 13  3  1  0  0  0  0
 14 13  1  0  0  0  0
 15 14  2  0  0  0  0
 16 15  1  0  0  0  0
 16 11  2  0  0  0  0
 19 15  1  0  0  0  0
 20 21  1  0  0  0  0
 20  7  1  0  0  0  0
 22 21  1  0  0  0  0
M  END
>  <minimizedAffinity>
-4.54539394

$$$$

 OpenBabel03242516013D

 22 23  0  0  0  0  0  0  0  0999 V2000
   37.1210   26.6310   39.6070 Cl  0  0  0  0  0  0  0  0  0  0  0  0
   37.2930   27.4480   41.1470 C   0  0  0  0  0  0  0  0  0  0  0  0
   37.5770   28.7830   41.2140 C   0  0  0  0  0  0  0  0  0  0  0  0
   37.6890   29.3270   42.4750 C   0  0  0  0  0  0  0  0  0  0  0  0
   37.5310   28.5940   43.6100 C   0  0  0  0  0  0  0  0  0  0  0  0
   37.2460   27.2530   43.5310 C   0  0  0  0  0  0  0  0  0  0  0  0
   37.1300   26.6900   42.2850 C   0  0  0  0  0  0  0  0  0  0  0  0
   37.9160   30.3860   42.5520 H   0  0  0  0  0  0  0  0  0  0  0  0
   37.6360   29.0960   44.5630 H   0  0  0  0  0  0  0  0  0  0  0  0
   37.1230   26.6810   44.4530 H   0  0  0  0  0  0  0  0  0  0  0  0
   36.8820   30.9360   38.1840 C   0  0  0  0  0  0  0  0  0  0  0  0
   36.6980   30.2320   39.3710 C   0  0  0  0  0  0  0  0  0  0  0  0
   37.7390   29.5290   39.9690 C   0  0  0  0  0  0  0  0  0  0  0  0
   38.9390   29.5680   39.3360 N   0  0  0  0  0  0  0  0  0  0  0  0
   39.1020   30.2530   38.1900 C   0  0  0  0  0  0  0  0  0  0  0  0
   38.0910   30.9360   37.6070 N   0  0  0  0  0  0  0  0  0  0  0  0
   35.9690   31.4340   37.8420 H   0  0  0  0  0  0  0  0  0  0  0  0
   35.7510   30.1670   39.9290 H   0  0  0  0  0  0  0  0  0  0  0  0
   40.0760   30.2310   37.7580 H   0  0  0  0  0  0  0  0  0  0  0  0
   36.8190   25.2350   42.1780 C   0  0  0  0  0  2  0  0  0  0  0  0
   38.0300   24.3510   42.2270 C   0  0  0  0  0  2  0  0  0  0  0  0
   37.8310   23.4060   41.6710 H   0  0  0  0  0  0  0  0  0  0  0  0
  1  2  1  0  0  0  0
  2  3  2  0  0  0  0
  2  7  1  0  0  0  0
  3  4  1  0  0  0  0
  4  8  1  0  0  0  0
  4  5  2  0  0  0  0
  5  9  1  0  0  0  0
  6  5  1  0  0  0  0
  6 10  1  0  0  0  0
  7  6  2  0  0  0  0
 11 12  1  0  0  0  0
 12 18  1  0  0  0  0
 12 13  2  0  0  0  0
 13  3  1  0  0  0  0
 14 13  1  0  0  0  0
 15 14  2  0  0  0  0
 16 11  2  0  0  0  0
 16 15  1  0  0  0  0
 17 11  1  0  0  0  0
 19 15  1  0  0  0  0
 20 21  1  0  0  0  0
 20  7  1  0  0  0  0
 22 21  1  0  0  0  0
M  END
>  <minimizedAffinity>
-4.39909554

$$$$

 OpenBabel03242516013D

 22 23  0  0  0  0  0  0  0  0999 V2000
   35.9220   28.6390   40.9260 Cl  0  0  0  0  0  0  0  0  0  0  0  0
   37.5200   28.6980   41.6400 C   0  0  0  0  0  0  0  0  0  0  0  0
   38.4300   29.6460   41.2640 C   0  0  0  0  0  0  0  0  0  0  0  0
   39.6570   29.6050   41.8900 C   0  0  0  0  0  0  0  0  0  0  0  0
   39.9710   28.6790   42.8360 C   0  0  0  0  0  0  0  0  0  0  0  0
   39.0490   27.7310   43.2060 C   0  0  0  0  0  0  0  0  0  0  0  0
   37.8210   27.7530   42.5950 C   0  0  0  0  0  0  0  0  0  0  0  0
   40.3960   30.3480   41.6060 H   0  0  0  0  0  0  0  0  0  0  0  0
   40.9580   28.7140   43.2800 H   0  0  0  0  0  0  0  0  0  0  0  0
   39.3190   26.9960   43.9660 H   0  0  0  0  0  0  0  0  0  0  0  0
   37.1850   32.7850   39.5620 C   0  0  0  0  0  0  0  0  0  0  0  0
   37.5390   31.8760   40.5560 C   0  0  0  0  0  0  0  0  0  0  0  0
   38.0490   30.6200   40.2450 C   0  0  0  0  0  0  0  0  0  0  0  0
   38.1830   30.3300   38.9260 N   0  0  0  0  0  0  0  0  0  0  0  0
   37.8370   31.2180   37.9770 C   0  0  0  0  0  0  0  0  0  0  0  0
   37.3410   32.4390   38.2780 N   0  0  0  0  0  0  0  0  0  0  0  0
   36.8000   33.7270   39.9680 H   0  0  0  0  0  0  0  0  0  0  0  0
   37.4550   32.0570   41.6390 H   0  0  0  0  0  0  0  0  0  0  0  0
   37.9740   30.9100   36.9650 H   0  0  0  0  0  0  0  0  0  0  0  0
   36.8050   26.7320   42.9850 C   0  0  0  0  0  2  0  0  0  0  0  0
   36.9850   25.4070   42.3060 C   0  0  0  0  0  2  0  0  0  0  0  0
   36.0030   24.8870   42.2230 H   0  0  0  0  0  0  0  0  0  0  0  0
  1  2  1  0  0  0  0
  2  7  1  0  0  0  0
  3  2  2  0  0  0  0
  3  4  1  0  0  0  0
  4  5  2  0  0  0  0
  5  6  1  0  0  0  0
  5  9  1  0  0  0  0
  6 10  1  0  0  0  0
  7 20  1  0  0  0  0
  7  6  2  0  0  0  0
  8  4  1  0  0  0  0
 11 17  1  0  0  0  0
 11 12  1  0  0  0  0
 12 18  1  0  0  0  0
 13 12  2  0  0  0  0
 13  3  1  0  0  0  0
 14 13  1  0  0  0  0
 15 16  1  0  0  0  0
 15 14  2  0  0  0  0
 16 11  2  0  0  0  0
 19 15  1  0  0  0  0
 21 20  1  0  0  0  0
 22 21  1  0  0  0  0
M  END
>  <minimizedAffinity>
-4.362813

$$$$

 OpenBabel03242516013D

 22 23  0  0  0  0  0  0  0  0999 V2000
   38.9160   28.0470   39.7030 Cl  0  0  0  0  0  0  0  0  0  0  0  0
   38.1280   27.9660   41.2660 C   0  0  0  0  0  0  0  0  0  0  0  0
   38.1660   29.0210   42.1340 C   0  0  0  0  0  0  0  0  0  0  0  0
   37.5130   28.8540   43.3350 C   0  0  0  0  0  0  0  0  0  0  0  0
   36.8570   27.7080   43.6650 C   0  0  0  0  0  0  0  0  0  0  0  0
   36.8260   26.6540   42.7840 C   0  0  0  0  0  0  0  0  0  0  0  0
   37.4700   26.8000   41.5820 C   0  0  0  0  0  0  0  0  0  0  0  0
   37.5310   29.6790   44.0420 H   0  0  0  0  0  0  0  0  0  0  0  0
   36.3690   27.6560   44.6290 H   0  0  0  0  0  0  0  0  0  0  0  0
   36.2960   25.7430   43.0660 H   0  0  0  0  0  0  0  0  0  0  0  0
   40.8840   31.6030   41.6360 C   0  0  0  0  0  0  0  0  0  0  0  0
   40.2260   30.4390   42.0270 C   0  0  0  0  0  0  0  0  0  0  0  0
   38.8820   30.2310   41.7390 C   0  0  0  0  0  0  0  0  0  0  0  0
   38.2480   31.2190   41.0570 N   0  0  0  0  0  0  0  0  0  0  0  0
   38.8960   32.3380   40.6850 C   0  0  0  0  0  0  0  0  0  0  0  0
   40.2030   32.5410   40.9650 N   0  0  0  0  0  0  0  0  0  0  0  0
   41.9370   31.6160   41.9380 H   0  0  0  0  0  0  0  0  0  0  0  0
   40.6890   29.6060   42.5790 H   0  0  0  0  0  0  0  0  0  0  0  0
   38.3250   33.0640   40.1530 H   0  0  0  0  0  0  0  0  0  0  0  0
   37.4470   25.6660   40.6110 C   0  0  0  0  0  2  0  0  0  0  0  0
   36.8490   24.4070   41.1630 C   0  0  0  0  0  2  0  0  0  0  0  0
   37.2830   23.5220   40.6440 H   0  0  0  0  0  0  0  0  0  0  0  0
  1  2  1  0  0  0  0
  2  7  2  0  0  0  0
  2  3  1  0  0  0  0
  3  4  2  0  0  0  0
  4  5  1  0  0  0  0
  4  8  1  0  0  0  0
  5  9  1  0  0  0  0
  6 10  1  0  0  0  0
  6  5  2  0  0  0  0
  7  6  1  0  0  0  0
 11 17  1  0  0  0  0
 11 12  1  0  0  0  0
 12 18  1  0  0  0  0
 13 12  2  0  0  0  0
 13  3  1  0  0  0  0
 14 13  1  0  0  0  0
 15 16  1  0  0  0  0
 15 14  2  0  0  0  0
 16 11  2  0  0  0  0
 19 15  1  0  0  0  0
 20 21  1  0  0  0  0
 20  7  1  0  0  0  0
 22 21  1  0  0  0  0
M  END
>  <minimizedAffinity>
-4.33515644

$$$$

 OpenBabel03242516013D

 22 23  0  0  0  0  0  0  0  0999 V2000
   36.7450   26.5700   40.5200 Cl  0  0  0  0  0  0  0  0  0  0  0  0
   37.9910   26.8220   41.7260 C   0  0  0  0  0  0  0  0  0  0  0  0
   38.4850   28.0700   41.9850 C   0  0  0  0  0  0  0  0  0  0  0  0
   39.4600   28.1580   42.9540 C   0  0  0  0  0  0  0  0  0  0  0  0
   39.9260   27.0730   43.6310 C   0  0  0  0  0  0  0  0  0  0  0  0
   39.4220   25.8240   43.3620 C   0  0  0  0  0  0  0  0  0  0  0  0
   38.4490   25.7140   42.4010 C   0  0  0  0  0  0  0  0  0  0  0  0
   39.8680   29.1390   43.1750 H   0  0  0  0  0  0  0  0  0  0  0  0
   40.6950   27.2260   44.3770 H   0  0  0  0  0  0  0  0  0  0  0  0
   39.8080   24.9660   43.9150 H   0  0  0  0  0  0  0  0  0  0  0  0
   36.3650   31.0130   40.9140 C   0  0  0  0  0  0  0  0  0  0  0  0
   36.8470   29.9340   41.6510 C   0  0  0  0  0  0  0  0  0  0  0  0
   37.9550   29.2050   41.2330 C   0  0  0  0  0  0  0  0  0  0  0  0
   38.5400   29.6000   40.0740 N   0  0  0  0  0  0  0  0  0  0  0  0
   38.0630   30.6440   39.3720 C   0  0  0  0  0  0  0  0  0  0  0  0
   36.9860   31.3540   39.7770 N   0  0  0  0  0  0  0  0  0  0  0  0
   35.4880   31.4820   41.3740 H   0  0  0  0  0  0  0  0  0  0  0  0
   36.4160   29.5710   42.5970 H   0  0  0  0  0  0  0  0  0  0  0  0
   38.5800   30.8890   38.4730 H   0  0  0  0  0  0  0  0  0  0  0  0
   37.8890   24.3650   42.0950 C   0  0  0  0  0  2  0  0  0  0  0  0
   38.6790   23.5950   41.0800 C   0  0  0  0  0  2  0  0  0  0  0  0
   38.0120   22.8860   40.5390 H   0  0  0  0  0  0  0  0  0  0  0  0
  1  2  1  0  0  0  0
  2  3  2  0  0  0  0
  2  7  1  0  0  0  0
  3  4  1  0  0  0  0
  4  8  1  0  0  0  0
  4  5  2  0  0  0  0
  5  9  1  0  0  0  0
  6  5  1  0  0  0  0
  6 10  1  0  0  0  0
  7  6  2  0  0  0  0
 11 17  1  0  0  0  0
 11 12  1  0  0  0  0
 12 18  1  0  0  0  0
 13 12  2  0  0  0  0
 13  3  1  0  0  0  0
 14 13  1  0  0  0  0
 15 16  1  0  0  0  0
 15 14  2  0  0  0  0
 16 11  2  0  0  0  0
 19 15  1  0  0  0  0
 20  7  1  0  0  0  0
 21 20  1  0  0  0  0
 22 21  1  0  0  0  0
M  END
>  <minimizedAffinity>
-4.31674051

$$$$

 OpenBabel03242516013D

 22 23  0  0  0  0  0  0  0  0999 V2000
   38.1780   30.1450   39.9780 Cl  0  0  0  0  0  0  0  0  0  0  0  0
   37.6710   29.2070   41.3680 C   0  0  0  0  0  0  0  0  0  0  0  0
   36.6240   28.3320   41.2900 C   0  0  0  0  0  0  0  0  0  0  0  0
   36.3090   27.6430   42.4400 C   0  0  0  0  0  0  0  0  0  0  0  0
   36.9880   27.8080   43.6070 C   0  0  0  0  0  0  0  0  0  0  0  0
   38.0390   28.6900   43.6750 C   0  0  0  0  0  0  0  0  0  0  0  0
   38.3700   29.3870   42.5400 C   0  0  0  0  0  0  0  0  0  0  0  0
   35.4790   26.9430   42.4010 H   0  0  0  0  0  0  0  0  0  0  0  0
   36.6780   27.2290   44.4670 H   0  0  0  0  0  0  0  0  0  0  0  0
   38.5720   28.8090   44.6200 H   0  0  0  0  0  0  0  0  0  0  0  0
   34.2130   28.8480   38.4220 C   0  0  0  0  0  0  0  0  0  0  0  0
   34.8620   29.0070   39.6440 C   0  0  0  0  0  0  0  0  0  0  0  0
   35.9230   28.1890   40.0160 C   0  0  0  0  0  0  0  0  0  0  0  0
   36.2910   27.2310   39.1270 N   0  0  0  0  0  0  0  0  0  0  0  0
   35.6550   27.0890   37.9500 C   0  0  0  0  0  0  0  0  0  0  0  0
   34.6240   27.8840   37.5880 N   0  0  0  0  0  0  0  0  0  0  0  0
   33.4000   29.5670   38.2780 H   0  0  0  0  0  0  0  0  0  0  0  0
   34.6090   29.7650   40.4010 H   0  0  0  0  0  0  0  0  0  0  0  0
   36.0070   26.3130   37.3100 H   0  0  0  0  0  0  0  0  0  0  0  0
   39.5090   30.3490   42.5940 C   0  0  0  0  0  2  0  0  0  0  0  0
   40.8560   29.7030   42.4600 C   0  0  0  0  0  2  0  0  0  0  0  0
   41.6240   30.3190   42.9810 H   0  0  0  0  0  0  0  0  0  0  0  0
  1  2  1  0  0  0  0
  2  7  1  0  0  0  0
  3  2  2  0  0  0  0
  3  4  1  0  0  0  0
  4  5  2  0  0  0  0
  5  6  1  0  0  0  0
  5  9  1  0  0  0  0
  6 10  1  0  0  0  0
  7 20  1  0  0  0  0
  7  6  2  0  0  0  0
  8  4  1  0  0  0  0
 11 12  1  0  0  0  0
 12 13  2  0  0  0  0
 12 18  1  0  0  0  0
 13  3  1  0  0  0  0
 14 13  1  0  0  0  0
 15 14  2  0  0  0  0
 16 15  1  0  0  0  0
 16 11  2  0  0  0  0
 17 11  1  0  0  0  0
 19 15  1  0  0  0  0
 21 20  1  0  0  0  0
 21 22  1  0  0  0  0
M  END
>  <minimizedAffinity>
-4.29212475

$$$$
