
 OpenBabel03252501183D

 15 15  0  0  0  0  0  0  0  0999 V2000
   44.7570   35.1690   44.9180 C   0  0  0  0  0  0  0  0  0  0  0  0
   45.4560   35.1880   43.6790 C   0  0  0  0  0  0  0  0  0  0  0  0
   46.5110   34.2990   43.5780 C   0  0  0  0  0  0  0  0  0  0  0  0
   46.8140   33.4800   44.6400 N   0  0  0  0  0  0  0  0  0  0  0  0
   46.1140   33.5070   45.7920 C   0  0  0  0  0  0  0  0  0  0  0  0
   45.0860   34.3590   45.9180 N   0  0  0  0  0  0  0  0  0  0  0  0
   43.9170   35.8180   45.1130 H   0  0  0  0  0  0  0  0  0  0  0  0
   46.3600   32.8590   46.6200 H   0  0  0  0  0  0  0  0  0  0  0  0
   47.2290   34.3110   42.3050 C   0  0  0  0  0  0  0  0  0  0  0  0
   48.3630   33.5050   42.4010 F   0  0  0  0  0  0  0  0  0  0  0  0
   47.7210   35.5820   42.1360 F   0  0  0  0  0  0  0  0  0  0  0  0
   46.4970   33.8410   41.2490 F   0  0  0  0  0  0  0  0  0  0  0  0
   44.9520   36.1510   42.7250 C   0  0  0  0  0  0  0  0  0  0  0  0
   43.7940   35.5850   41.9270 C   0  0  0  0  0  0  0  0  0  0  0  0
   43.6920   34.5140   42.1530 H   0  0  0  0  0  0  0  0  0  0  0  0
  1  7  1  0  0  0  0
  1  6  1  0  0  0  0
  2  1  2  0  0  0  0
  3  2  1  0  0  0  0
  3  4  2  0  0  0  0
  4  5  1  0  0  0  0
  5  6  2  0  0  0  0
  5  8  1  0  0  0  0
  9 10  1  0  0  0  0
  9  3  1  0  0  0  0
 11  9  1  0  0  0  0
 12  9  1  0  0  0  0
 13  2  1  0  0  0  0
 14 15  1  0  0  0  0
 14 13  1  0  0  0  0
M  END
>  <minimizedAffinity>
-3.85517716

>  <minimizedRMSD>
1.00488424

$$$$
