
 OpenBabel03252500353D

 40 42  0  0  1  0  0  0  0  0999 V2000
   45.9880   32.3640   45.4250 C   0  0  0  0  0  0  0  0  0  0  0  0
   45.1620   32.0870   44.7460 H   0  0  0  0  0  0  0  0  0  0  0  0
   46.9760   31.9890   45.0370 H   0  0  0  0  0  0  0  0  0  0  0  0
   45.7440   31.8880   46.7390 N   0  0  0  0  0  0  0  0  0  0  0  0
   46.2790   32.6060   47.8130 C   0  0  0  0  0  0  0  0  0  0  0  0
   47.6820   32.0880   48.1890 C   0  0  0  0  0  0  0  0  0  0  0  0
   47.4840   30.7090   48.7580 C   0  0  0  0  0  0  0  0  0  0  0  0
   46.8780   29.8770   47.6440 C   0  0  0  0  0  0  0  0  0  0  0  0
   45.6910   30.5080   46.9720 C   0  0  2  0  0  0  0  0  0  0  0  0
   46.2070   33.6930   47.8270 H   0  0  0  0  0  0  0  0  0  0  0  0
   45.6650   32.3040   48.7170 H   0  0  0  0  0  0  0  0  0  0  0  0
   48.2350   31.9540   47.2330 H   0  0  0  0  0  0  0  0  0  0  0  0
   48.1760   32.7800   48.8990 H   0  0  0  0  0  0  0  0  0  0  0  0
   48.3960   30.2070   49.0730 H   0  0  0  0  0  0  0  0  0  0  0  0
   46.7080   30.7820   49.5530 H   0  0  0  0  0  0  0  0  0  0  0  0
   46.5280   28.9420   48.1260 H   0  0  0  0  0  0  0  0  0  0  0  0
   47.6390   29.5860   46.9100 H   0  0  0  0  0  0  0  0  0  0  0  0
   44.8000   30.3030   47.6160 H   0  0  0  0  0  0  0  0  0  0  0  0
   45.4430   29.7230   45.6920 C   0  0  0  0  0  0  0  0  0  0  0  0
   45.9700   30.2020   44.8310 H   0  0  0  0  0  0  0  0  0  0  0  0
   45.8310   28.6890   45.7900 H   0  0  0  0  0  0  0  0  0  0  0  0
   44.3650   29.6750   45.4590 H   0  0  0  0  0  0  0  0  0  0  0  0
   45.8670   34.6870   44.2160 C   0  0  1  0  0  0  0  0  0  0  0  0
   44.9070   34.6850   45.2310 C   0  0  0  0  0  0  0  0  0  0  0  0
   46.0850   33.8430   45.5040 C   0  0  1  0  0  0  0  0  0  0  0  0
   46.5750   35.5540   44.0950 H   0  0  0  0  0  0  0  0  0  0  0  0
   43.9470   34.1060   45.1290 H   0  0  0  0  0  0  0  0  0  0  0  0
   44.7120   35.6270   45.8210 H   0  0  0  0  0  0  0  0  0  0  0  0
   46.9760   34.2000   46.0420 H   0  0  0  0  0  0  0  0  0  0  0  0
   44.5150   33.5740   42.4330 C   0  0  0  0  0  0  0  0  0  0  0  0
   45.8100   33.9280   42.9300 C   0  0  0  0  0  0  0  0  0  0  0  0
   46.9220   33.5700   42.2350 C   0  0  0  0  0  0  0  0  0  0  0  0
   46.7510   32.8740   41.0690 N   0  0  0  0  0  0  0  0  0  0  0  0
   45.5060   32.5410   40.6070 C   0  0  0  0  0  0  0  0  0  0  0  0
   44.3570   32.8850   41.2810 N   0  0  0  0  0  0  0  0  0  0  0  0
   43.6220   33.8510   42.9750 H   0  0  0  0  0  0  0  0  0  0  0  0
   47.9080   33.8270   42.5920 H   0  0  0  0  0  0  0  0  0  0  0  0
   45.3240   31.7950   39.3560 C   0  0  0  0  0  0  0  0  0  0  0  0
   45.3120   32.7500   38.2040 C   0  0  0  0  0  0  0  0  0  0  0  0
   44.4910   33.4580   38.3410 H   0  0  0  0  0  0  0  0  0  0  0  0
  1 25  1  0  0  0  0
  1  4  1  0  0  0  0
  2  1  1  0  0  0  0
  3  1  1  0  0  0  0
  4  9  1  0  0  0  0
  4  5  1  0  0  0  0
  5 10  1  0  0  0  0
  5  6  1  0  0  0  0
  5 11  1  0  0  0  0
  6  7  1  0  0  0  0
  6 13  1  0  0  0  0
  7 14  1  0  0  0  0
  7 15  1  0  0  0  0
  8 16  1  0  0  0  0
  8  7  1  0  0  0  0
  9 18  1  1  0  0  0
  9  8  1  0  0  0  0
 12  6  1  0  0  0  0
 17  8  1  0  0  0  0
 19 21  1  0  0  0  0
 19  9  1  0  0  0  0
 20 19  1  0  0  0  0
 22 19  1  0  0  0  0
 23 26  1  6  0  0  0
 23 24  1  0  0  0  0
 23 25  1  0  0  0  0
 24 25  1  0  0  0  0
 24 28  1  0  0  0  0
 25 29  1  1  0  0  0
 27 24  1  0  0  0  0
 30 31  1  0  0  0  0
 30 36  1  0  0  0  0
 31 23  1  0  0  0  0
 32 37  1  0  0  0  0
 32 31  2  0  0  0  0
 33 32  1  0  0  0  0
 34 33  2  0  0  0  0
 34 35  1  0  0  0  0
 35 30  2  0  0  0  0
 38 34  1  0  0  0  0
 39 40  1  0  0  0  0
 39 38  1  0  0  0  0
M  END
>  <minimizedAffinity>
-3.71708179

>  <minimizedRMSD>
0.387751013

$$$$
