
 OpenBabel03252509183D

 35 37  0  0  1  0  0  0  0  0999 V2000
   36.5820   27.0850   40.9130 C   0  0  1  0  0  0  0  0  0  0  0  0
   36.7300   26.3570   39.6200 C   0  0  0  0  0  0  0  0  0  0  0  0
   37.3310   24.9850   39.7390 C   0  0  0  0  0  0  0  0  0  0  0  0
   36.7970   24.1930   40.9120 C   0  0  0  0  0  0  0  0  0  0  0  0
   36.6930   25.0060   42.1750 C   0  0  0  0  0  0  0  0  0  0  0  0
   37.4080   26.3330   41.9770 C   0  0  2  0  0  0  0  0  0  0  0  0
   35.5130   26.9910   41.2430 H   0  0  0  0  0  0  0  0  0  0  0  0
   37.4410   26.9670   38.9890 H   0  0  0  0  0  0  0  0  0  0  0  0
   35.7800   26.2990   39.0270 H   0  0  0  0  0  0  0  0  0  0  0  0
   37.0450   24.4350   38.8120 H   0  0  0  0  0  0  0  0  0  0  0  0
   38.4340   24.9820   39.8020 H   0  0  0  0  0  0  0  0  0  0  0  0
   37.4340   23.3040   41.0270 H   0  0  0  0  0  0  0  0  0  0  0  0
   35.7680   23.8460   40.6160 H   0  0  0  0  0  0  0  0  0  0  0  0
   35.6380   25.2640   42.4240 H   0  0  0  0  0  0  0  0  0  0  0  0
   37.1180   24.4880   43.0510 H   0  0  0  0  0  0  0  0  0  0  0  0
   38.4120   26.1950   41.5300 H   0  0  0  0  0  0  0  0  0  0  0  0
   38.1780   30.8140   40.3780 C   0  0  0  0  0  0  0  0  0  0  0  0
   36.8550   30.8680   40.8400 C   0  0  0  0  0  0  0  0  0  0  0  0
   36.2220   29.6920   41.0610 C   0  0  0  0  0  0  0  0  0  0  0  0
   36.8880   28.4760   40.8270 C   0  0  0  0  0  0  0  0  0  0  0  0
   38.5330   29.0200   40.2530 S   0  0  0  0  0  0  0  0  0  0  0  0
   36.3460   31.8020   41.0170 H   0  0  0  0  0  0  0  0  0  0  0  0
   35.2200   29.5270   41.4120 H   0  0  0  0  0  0  0  0  0  0  0  0
   39.8130   34.1610   40.3660 C   0  0  0  0  0  0  0  0  0  0  0  0
   40.7050   33.9780   39.2740 C   0  0  0  0  0  0  0  0  0  0  0  0
   40.7060   32.7480   38.6070 C   0  0  0  0  0  0  0  0  0  0  0  0
   39.8420   31.7840   39.0480 N   0  0  0  0  0  0  0  0  0  0  0  0
   39.0090   31.9940   40.0890 C   0  0  0  0  0  0  0  0  0  0  0  0
   38.9870   33.1820   40.7570 N   0  0  0  0  0  0  0  0  0  0  0  0
   39.7890   35.1030   40.9020 H   0  0  0  0  0  0  0  0  0  0  0  0
   41.3590   34.7630   38.9700 H   0  0  0  0  0  0  0  0  0  0  0  0
   41.3640   32.5590   37.7720 H   0  0  0  0  0  0  0  0  0  0  0  0
   37.4940   27.1060   43.2690 C   0  0  0  0  0  2  0  0  0  0  0  0
   38.9530   27.1760   43.6770 C   0  0  0  0  0  2  0  0  0  0  0  0
   39.6300   26.9160   42.8100 H   0  0  0  0  0  0  0  0  0  0  0  0
  1  7  1  1  0  0  0
  1  6  1  0  0  0  0
  2  3  1  0  0  0  0
  2  1  1  0  0  0  0
  3 11  1  0  0  0  0
  3  4  1  0  0  0  0
  4 12  1  0  0  0  0
  4  5  1  0  0  0  0
  5 14  1  0  0  0  0
  5 15  1  0  0  0  0
  6 16  1  6  0  0  0
  6  5  1  0  0  0  0
  6 33  1  0  0  0  0
  8  2  1  0  0  0  0
  9  2  1  0  0  0  0
 10  3  1  0  0  0  0
 13  4  1  0  0  0  0
 17 18  2  0  0  0  0
 18 22  1  0  0  0  0
 18 19  1  0  0  0  0
 19 23  1  0  0  0  0
 20  1  1  0  0  0  0
 20 19  2  0  0  0  0
 21 17  1  0  0  0  0
 21 20  1  0  0  0  0
 24 29  1  0  0  0  0
 24 30  1  0  0  0  0
 25 24  2  0  0  0  0
 26 27  2  0  0  0  0
 26 25  1  0  0  0  0
 27 28  1  0  0  0  0
 28 17  1  0  0  0  0
 28 29  2  0  0  0  0
 31 25  1  0  0  0  0
 32 26  1  0  0  0  0
 33 34  1  0  0  0  0
 35 34  1  0  0  0  0
M  END
>  <minimizedAffinity>
-5.15268517

$$$$

 OpenBabel03252509183D

 35 37  0  0  1  0  0  0  0  0999 V2000
   37.7900   26.5150   42.0400 C   0  0  1  0  0  0  0  0  0  0  0  0
   36.9260   26.2460   40.8560 C   0  0  0  0  0  0  0  0  0  0  0  0
   37.1830   24.9290   40.1790 C   0  0  0  0  0  0  0  0  0  0  0  0
   37.3940   23.7850   41.1460 C   0  0  0  0  0  0  0  0  0  0  0  0
   38.2880   24.1460   42.3020 C   0  0  0  0  0  0  0  0  0  0  0  0
   38.9430   25.4900   42.0280 C   0  0  2  0  0  0  0  0  0  0  0  0
   37.1950   26.2830   42.9640 H   0  0  0  0  0  0  0  0  0  0  0  0
   37.1600   27.0500   40.0990 H   0  0  0  0  0  0  0  0  0  0  0  0
   35.8290   26.3480   41.0690 H   0  0  0  0  0  0  0  0  0  0  0  0
   36.2670   24.6960   39.5860 H   0  0  0  0  0  0  0  0  0  0  0  0
   38.0380   24.9430   39.4800 H   0  0  0  0  0  0  0  0  0  0  0  0
   37.7670   22.9280   40.5660 H   0  0  0  0  0  0  0  0  0  0  0  0
   36.3750   23.5160   41.5430 H   0  0  0  0  0  0  0  0  0  0  0  0
   37.7180   24.2740   43.2510 H   0  0  0  0  0  0  0  0  0  0  0  0
   39.0680   23.3890   42.4890 H   0  0  0  0  0  0  0  0  0  0  0  0
   39.3700   25.5370   41.0060 H   0  0  0  0  0  0  0  0  0  0  0  0
   39.1350   30.3410   41.5040 C   0  0  0  0  0  0  0  0  0  0  0  0
   38.8100   30.0790   42.8430 C   0  0  0  0  0  0  0  0  0  0  0  0
   38.3580   28.8400   43.1450 C   0  0  0  0  0  0  0  0  0  0  0  0
   38.2280   27.8690   42.1350 C   0  0  0  0  0  0  0  0  0  0  0  0
   38.7830   28.7620   40.6430 S   0  0  0  0  0  0  0  0  0  0  0  0
   38.9090   30.8260   43.6140 H   0  0  0  0  0  0  0  0  0  0  0  0
   38.0620   28.4500   44.1010 H   0  0  0  0  0  0  0  0  0  0  0  0
   41.2110   33.1330   40.1710 C   0  0  0  0  0  0  0  0  0  0  0  0
   40.2230   34.1540   40.1280 C   0  0  0  0  0  0  0  0  0  0  0  0
   38.9240   33.8500   40.5490 C   0  0  0  0  0  0  0  0  0  0  0  0
   38.6760   32.5750   40.9780 N   0  0  0  0  0  0  0  0  0  0  0  0
   39.6390   31.6310   41.0050 C   0  0  0  0  0  0  0  0  0  0  0  0
   40.9130   31.8990   40.6010 N   0  0  0  0  0  0  0  0  0  0  0  0
   42.2260   33.3380   39.8520 H   0  0  0  0  0  0  0  0  0  0  0  0
   40.4690   35.1330   39.7840 H   0  0  0  0  0  0  0  0  0  0  0  0
   38.1380   34.5920   40.5360 H   0  0  0  0  0  0  0  0  0  0  0  0
   39.9900   25.8100   43.0650 C   0  0  0  0  0  2  0  0  0  0  0  0
   41.2450   25.0340   42.7200 C   0  0  0  0  0  2  0  0  0  0  0  0
   41.2100   24.6580   41.6540 H   0  0  0  0  0  0  0  0  0  0  0  0
  1 20  1  0  0  0  0
  1  7  1  1  0  0  0
  2  9  1  0  0  0  0
  2  1  1  0  0  0  0
  3  2  1  0  0  0  0
  3  4  1  0  0  0  0
  4 13  1  0  0  0  0
  4  5  1  0  0  0  0
  5 15  1  0  0  0  0
  5 14  1  0  0  0  0
  6 16  1  6  0  0  0
  6  1  1  0  0  0  0
  6  5  1  0  0  0  0
  6 33  1  0  0  0  0
  8  2  1  0  0  0  0
 10  3  1  0  0  0  0
 11  3  1  0  0  0  0
 12  4  1  0  0  0  0
 17 18  2  0  0  0  0
 18 19  1  0  0  0  0
 18 22  1  0  0  0  0
 19 23  1  0  0  0  0
 20 19  2  0  0  0  0
 21 17  1  0  0  0  0
 21 20  1  0  0  0  0
 24 29  1  0  0  0  0
 25 24  2  0  0  0  0
 25 26  1  0  0  0  0
 26 27  2  0  0  0  0
 27 28  1  0  0  0  0
 28 17  1  0  0  0  0
 29 28  2  0  0  0  0
 30 24  1  0  0  0  0
 31 25  1  0  0  0  0
 32 26  1  0  0  0  0
 34 33  1  0  0  0  0
 35 34  1  0  0  0  0
M  END
>  <minimizedAffinity>
-4.95056295

$$$$

 OpenBabel03252509183D

 35 37  0  0  1  0  0  0  0  0999 V2000
   38.0820   27.2990   41.3950 C   0  0  1  0  0  0  0  0  0  0  0  0
   38.7300   28.2350   42.3570 C   0  0  0  0  0  0  0  0  0  0  0  0
   39.1380   27.6110   43.6610 C   0  0  0  0  0  0  0  0  0  0  0  0
   39.7720   26.2460   43.5040 C   0  0  0  0  0  0  0  0  0  0  0  0
   39.0430   25.3660   42.5230 C   0  0  0  0  0  0  0  0  0  0  0  0
   37.7150   26.0110   42.1620 C   0  0  2  0  0  0  0  0  0  0  0  0
   38.8540   26.9870   40.6410 H   0  0  0  0  0  0  0  0  0  0  0  0
   37.9610   29.0240   42.6040 H   0  0  0  0  0  0  0  0  0  0  0  0
   39.6000   28.7940   41.9220 H   0  0  0  0  0  0  0  0  0  0  0  0
   39.9100   28.2830   44.1050 H   0  0  0  0  0  0  0  0  0  0  0  0
   38.3160   27.5190   44.3930 H   0  0  0  0  0  0  0  0  0  0  0  0
   39.8460   25.7990   44.5060 H   0  0  0  0  0  0  0  0  0  0  0  0
   40.8180   26.4250   43.1270 H   0  0  0  0  0  0  0  0  0  0  0  0
   39.5980   25.2580   41.5630 H   0  0  0  0  0  0  0  0  0  0  0  0
   38.8650   24.3510   42.9130 H   0  0  0  0  0  0  0  0  0  0  0  0
   37.1660   26.3490   43.0640 H   0  0  0  0  0  0  0  0  0  0  0  0
   35.2640   28.5620   38.7120 C   0  0  0  0  0  0  0  0  0  0  0  0
   34.9910   29.0090   40.0130 C   0  0  0  0  0  0  0  0  0  0  0  0
   35.8610   28.6580   40.9890 C   0  0  0  0  0  0  0  0  0  0  0  0
   36.9870   27.8730   40.6840 C   0  0  0  0  0  0  0  0  0  0  0  0
   36.8180   27.6050   38.8870 S   0  0  0  0  0  0  0  0  0  0  0  0
   34.1260   29.6090   40.2440 H   0  0  0  0  0  0  0  0  0  0  0  0
   35.8250   28.9000   42.0350 H   0  0  0  0  0  0  0  0  0  0  0  0
   32.4620   29.3160   36.3750 C   0  0  0  0  0  0  0  0  0  0  0  0
   33.1890   29.3720   35.1550 C   0  0  0  0  0  0  0  0  0  0  0  0
   34.5710   29.1540   35.1860 C   0  0  0  0  0  0  0  0  0  0  0  0
   35.1480   28.8980   36.3990 N   0  0  0  0  0  0  0  0  0  0  0  0
   34.4260   28.8520   37.5370 C   0  0  0  0  0  0  0  0  0  0  0  0
   33.0780   29.0610   37.5370 N   0  0  0  0  0  0  0  0  0  0  0  0
   31.3910   29.4800   36.3840 H   0  0  0  0  0  0  0  0  0  0  0  0
   32.6900   29.5760   34.2350 H   0  0  0  0  0  0  0  0  0  0  0  0
   35.1680   29.1860   34.2850 H   0  0  0  0  0  0  0  0  0  0  0  0
   36.8650   25.0840   41.3300 C   0  0  0  0  0  2  0  0  0  0  0  0
   37.4930   23.7050   41.3750 C   0  0  0  0  0  2  0  0  0  0  0  0
   38.2360   23.6250   42.2230 H   0  0  0  0  0  0  0  0  0  0  0  0
  1  7  1  6  0  0  0
  1  6  1  0  0  0  0
  1  2  1  0  0  0  0
  2  8  1  0  0  0  0
  2  3  1  0  0  0  0
  3 10  1  0  0  0  0
  3 11  1  0  0  0  0
  4  3  1  0  0  0  0
  4 12  1  0  0  0  0
  5 15  1  0  0  0  0
  5  4  1  0  0  0  0
  6  5  1  0  0  0  0
  6 16  1  1  0  0  0
  9  2  1  0  0  0  0
 13  4  1  0  0  0  0
 14  5  1  0  0  0  0
 17 21  1  0  0  0  0
 17 18  2  0  0  0  0
 18 22  1  0  0  0  0
 18 19  1  0  0  0  0
 19 23  1  0  0  0  0
 20 19  2  0  0  0  0
 20  1  1  0  0  0  0
 21 20  1  0  0  0  0
 24 30  1  0  0  0  0
 24 29  1  0  0  0  0
 25 26  1  0  0  0  0
 25 24  2  0  0  0  0
 26 27  2  0  0  0  0
 27 28  1  0  0  0  0
 28 17  1  0  0  0  0
 29 28  2  0  0  0  0
 31 25  1  0  0  0  0
 32 26  1  0  0  0  0
 33 34  1  0  0  0  0
 33  6  1  0  0  0  0
 34 35  1  0  0  0  0
M  END
>  <minimizedAffinity>
-4.84021568

$$$$

 OpenBabel03252509183D

 35 37  0  0  1  0  0  0  0  0999 V2000
   37.3690   27.2150   42.0010 C   0  0  1  0  0  0  0  0  0  0  0  0
   37.2140   25.7320   42.0160 C   0  0  0  0  0  0  0  0  0  0  0  0
   38.4970   24.9700   42.1900 C   0  0  0  0  0  0  0  0  0  0  0  0
   39.4210   25.5720   43.2270 C   0  0  0  0  0  0  0  0  0  0  0  0
   39.5230   27.0710   43.1270 C   0  0  0  0  0  0  0  0  0  0  0  0
   38.8700   27.5330   41.8340 C   0  0  2  0  0  0  0  0  0  0  0  0
   37.0930   27.6030   43.0180 H   0  0  0  0  0  0  0  0  0  0  0  0
   36.8010   25.4420   41.0060 H   0  0  0  0  0  0  0  0  0  0  0  0
   36.4600   25.3680   42.7610 H   0  0  0  0  0  0  0  0  0  0  0  0
   38.2140   23.9530   42.5510 H   0  0  0  0  0  0  0  0  0  0  0  0
   39.0750   24.8430   41.2570 H   0  0  0  0  0  0  0  0  0  0  0  0
   40.3940   25.0690   43.1340 H   0  0  0  0  0  0  0  0  0  0  0  0
   38.9860   25.3020   44.2300 H   0  0  0  0  0  0  0  0  0  0  0  0
   38.9710   27.5850   43.9470 H   0  0  0  0  0  0  0  0  0  0  0  0
   40.5650   27.4290   43.1600 H   0  0  0  0  0  0  0  0  0  0  0  0
   39.2060   26.9300   40.9670 H   0  0  0  0  0  0  0  0  0  0  0  0
   35.2800   28.5390   38.7420 C   0  0  0  0  0  0  0  0  0  0  0  0
   34.9590   29.2590   39.9020 C   0  0  0  0  0  0  0  0  0  0  0  0
   35.5940   28.9140   41.0470 C   0  0  0  0  0  0  0  0  0  0  0  0
   36.5360   27.8690   41.0450 C   0  0  0  0  0  0  0  0  0  0  0  0
   36.5340   27.3250   39.3030 S   0  0  0  0  0  0  0  0  0  0  0  0
   34.2360   30.0590   39.9000 H   0  0  0  0  0  0  0  0  0  0  0  0
   35.4870   29.3410   42.0260 H   0  0  0  0  0  0  0  0  0  0  0  0
   34.6590   29.0660   35.1060 C   0  0  0  0  0  0  0  0  0  0  0  0
   33.2520   29.2610   35.1390 C   0  0  0  0  0  0  0  0  0  0  0  0
   32.5950   29.2060   36.3730 C   0  0  0  0  0  0  0  0  0  0  0  0
   33.3510   28.9640   37.4870 N   0  0  0  0  0  0  0  0  0  0  0  0
   34.6860   28.7840   37.4170 C   0  0  0  0  0  0  0  0  0  0  0  0
   35.3520   28.8320   36.2290 N   0  0  0  0  0  0  0  0  0  0  0  0
   35.1970   29.1030   34.1660 H   0  0  0  0  0  0  0  0  0  0  0  0
   32.7090   29.4460   34.2410 H   0  0  0  0  0  0  0  0  0  0  0  0
   31.5260   29.3480   36.4510 H   0  0  0  0  0  0  0  0  0  0  0  0
   39.1090   29.0020   41.5960 C   0  0  0  0  0  2  0  0  0  0  0  0
   38.9700   29.7220   42.9230 C   0  0  0  0  0  2  0  0  0  0  0  0
   39.0220   28.9940   43.7860 H   0  0  0  0  0  0  0  0  0  0  0  0
  1  2  1  0  0  0  0
  1  7  1  1  0  0  0
  2  3  1  0  0  0  0
  2  9  1  0  0  0  0
  3 10  1  0  0  0  0
  3  4  1  0  0  0  0
  4 13  1  0  0  0  0
  5 15  1  0  0  0  0
  5  4  1  0  0  0  0
  5 14  1  0  0  0  0
  6 16  1  6  0  0  0
  6  1  1  0  0  0  0
  6  5  1  0  0  0  0
  8  2  1  0  0  0  0
 11  3  1  0  0  0  0
 12  4  1  0  0  0  0
 17 21  1  0  0  0  0
 17 18  2  0  0  0  0
 18 19  1  0  0  0  0
 19 23  1  0  0  0  0
 20 19  2  0  0  0  0
 20  1  1  0  0  0  0
 21 20  1  0  0  0  0
 22 18  1  0  0  0  0
 24 25  2  0  0  0  0
 24 29  1  0  0  0  0
 25 26  1  0  0  0  0
 26 32  1  0  0  0  0
 26 27  2  0  0  0  0
 28 27  1  0  0  0  0
 28 17  1  0  0  0  0
 29 28  2  0  0  0  0
 30 24  1  0  0  0  0
 31 25  1  0  0  0  0
 33  6  1  0  0  0  0
 33 34  1  0  0  0  0
 34 35  1  0  0  0  0
M  END
>  <minimizedAffinity>
-4.79282951

$$$$

 OpenBabel03252509183D

 35 37  0  0  1  0  0  0  0  0999 V2000
   36.4850   30.8740   39.1040 C   0  0  1  0  0  0  0  0  0  0  0  0
   36.3850   30.2400   37.7580 C   0  0  0  0  0  0  0  0  0  0  0  0
   35.9490   28.8020   37.7730 C   0  0  0  0  0  0  0  0  0  0  0  0
   34.8230   28.5240   38.7450 C   0  0  0  0  0  0  0  0  0  0  0  0
   35.0160   29.1940   40.0790 C   0  0  0  0  0  0  0  0  0  0  0  0
   36.4280   29.7510   40.1610 C   0  0  2  0  0  0  0  0  0  0  0  0
   35.5580   31.4860   39.2690 H   0  0  0  0  0  0  0  0  0  0  0  0
   37.4250   30.2570   37.3180 H   0  0  0  0  0  0  0  0  0  0  0  0
   35.7480   30.8160   37.0380 H   0  0  0  0  0  0  0  0  0  0  0  0
   35.5640   28.5790   36.7500 H   0  0  0  0  0  0  0  0  0  0  0  0
   36.7640   28.0880   37.9860 H   0  0  0  0  0  0  0  0  0  0  0  0
   34.7190   27.4320   38.8250 H   0  0  0  0  0  0  0  0  0  0  0  0
   33.8870   28.9260   38.2660 H   0  0  0  0  0  0  0  0  0  0  0  0
   34.3380   30.0680   40.2130 H   0  0  0  0  0  0  0  0  0  0  0  0
   34.8410   28.5120   40.9270 H   0  0  0  0  0  0  0  0  0  0  0  0
   37.1820   29.0040   39.8410 H   0  0  0  0  0  0  0  0  0  0  0  0
   40.0770   32.8300   39.0190 C   0  0  0  0  0  0  0  0  0  0  0  0
   39.1210   33.5150   39.7820 C   0  0  0  0  0  0  0  0  0  0  0  0
   37.8920   32.9600   39.8890 C   0  0  0  0  0  0  0  0  0  0  0  0
   37.6090   31.7400   39.2480 C   0  0  0  0  0  0  0  0  0  0  0  0
   39.1900   31.3370   38.4320 S   0  0  0  0  0  0  0  0  0  0  0  0
   39.3400   34.4510   40.2710 H   0  0  0  0  0  0  0  0  0  0  0  0
   37.0350   33.3280   40.4230 H   0  0  0  0  0  0  0  0  0  0  0  0
   43.2640   34.1360   37.6000 C   0  0  0  0  0  0  0  0  0  0  0  0
   44.0780   34.0720   38.7630 C   0  0  0  0  0  0  0  0  0  0  0  0
   43.5140   33.5950   39.9510 C   0  0  0  0  0  0  0  0  0  0  0  0
   42.2000   33.2160   39.9250 N   0  0  0  0  0  0  0  0  0  0  0  0
   41.4580   33.2910   38.8020 C   0  0  0  0  0  0  0  0  0  0  0  0
   41.9810   33.7520   37.6300 N   0  0  0  0  0  0  0  0  0  0  0  0
   43.6730   34.5000   36.6640 H   0  0  0  0  0  0  0  0  0  0  0  0
   45.0980   34.3800   38.7290 H   0  0  0  0  0  0  0  0  0  0  0  0
   44.0910   33.5260   40.8620 H   0  0  0  0  0  0  0  0  0  0  0  0
   36.7340   30.2670   41.5450 C   0  0  0  0  0  2  0  0  0  0  0  0
   37.4790   29.1810   42.2970 C   0  0  0  0  0  2  0  0  0  0  0  0
   37.8820   28.3990   41.5860 H   0  0  0  0  0  0  0  0  0  0  0  0
  1 20  1  0  0  0  0
  1  7  1  1  0  0  0
  1  6  1  0  0  0  0
  2  3  1  0  0  0  0
  2  1  1  0  0  0  0
  3 11  1  0  0  0  0
  3  4  1  0  0  0  0
  4 12  1  0  0  0  0
  4  5  1  0  0  0  0
  5  6  1  0  0  0  0
  5 14  1  0  0  0  0
  5 15  1  0  0  0  0
  6 16  1  6  0  0  0
  6 33  1  0  0  0  0
  8  2  1  0  0  0  0
  9  2  1  0  0  0  0
 10  3  1  0  0  0  0
 13  4  1  0  0  0  0
 17 18  2  0  0  0  0
 18 19  1  0  0  0  0
 18 22  1  0  0  0  0
 19 23  1  0  0  0  0
 20 19  2  0  0  0  0
 21 17  1  0  0  0  0
 21 20  1  0  0  0  0
 24 29  2  0  0  0  0
 24 25  1  0  0  0  0
 25 26  2  0  0  0  0
 26 32  1  0  0  0  0
 27 26  1  0  0  0  0
 28 17  1  0  0  0  0
 28 27  2  0  0  0  0
 29 28  1  0  0  0  0
 30 24  1  0  0  0  0
 31 25  1  0  0  0  0
 33 34  1  0  0  0  0
 35 34  1  0  0  0  0
M  END
>  <minimizedAffinity>
-4.78912544

$$$$

 OpenBabel03252509183D

 35 37  0  0  1  0  0  0  0  0999 V2000
   37.6960   25.9780   40.5690 C   0  0  1  0  0  0  0  0  0  0  0  0
   37.9780   25.2800   41.8550 C   0  0  0  0  0  0  0  0  0  0  0  0
   37.3900   23.9020   41.9620 C   0  0  0  0  0  0  0  0  0  0  0  0
   37.5330   23.0850   40.6960 C   0  0  0  0  0  0  0  0  0  0  0  0
   37.2170   23.8690   39.4500 C   0  0  0  0  0  0  0  0  0  0  0  0
   36.5840   25.1950   39.8390 C   0  0  2  0  0  0  0  0  0  0  0  0
   38.6050   25.8830   39.9160 H   0  0  0  0  0  0  0  0  0  0  0  0
   37.4980   25.9000   42.6680 H   0  0  0  0  0  0  0  0  0  0  0  0
   39.0680   25.2420   42.1150 H   0  0  0  0  0  0  0  0  0  0  0  0
   37.9650   23.3750   42.7600 H   0  0  0  0  0  0  0  0  0  0  0  0
   36.3250   23.8890   42.2550 H   0  0  0  0  0  0  0  0  0  0  0  0
   36.9060   22.1890   40.8090 H   0  0  0  0  0  0  0  0  0  0  0  0
   38.6080   22.7520   40.6550 H   0  0  0  0  0  0  0  0  0  0  0  0
   38.1340   24.1280   38.8720 H   0  0  0  0  0  0  0  0  0  0  0  0
   36.5430   23.3270   38.7670 H   0  0  0  0  0  0  0  0  0  0  0  0
   35.7770   25.0610   40.5860 H   0  0  0  0  0  0  0  0  0  0  0  0
   37.5210   30.0650   40.5020 C   0  0  0  0  0  0  0  0  0  0  0  0
   36.4840   29.5050   41.2630 C   0  0  0  0  0  0  0  0  0  0  0  0
   36.4420   28.1560   41.3640 C   0  0  0  0  0  0  0  0  0  0  0  0
   37.4130   27.3680   40.7200 C   0  0  0  0  0  0  0  0  0  0  0  0
   38.4710   28.6140   39.9080 S   0  0  0  0  0  0  0  0  0  0  0  0
   35.7410   30.1120   41.7550 H   0  0  0  0  0  0  0  0  0  0  0  0
   35.7350   27.5460   41.8960 H   0  0  0  0  0  0  0  0  0  0  0  0
   37.2560   33.6230   39.4290 C   0  0  0  0  0  0  0  0  0  0  0  0
   38.3700   34.1590   40.1310 C   0  0  0  0  0  0  0  0  0  0  0  0
   39.1430   33.2990   40.9190 C   0  0  0  0  0  0  0  0  0  0  0  0
   38.7790   31.9820   40.9710 N   0  0  0  0  0  0  0  0  0  0  0  0
   37.7140   31.5090   40.2910 C   0  0  0  0  0  0  0  0  0  0  0  0
   36.9430   32.3230   39.5150 N   0  0  0  0  0  0  0  0  0  0  0  0
   36.6380   34.2630   38.8100 H   0  0  0  0  0  0  0  0  0  0  0  0
   38.6110   35.1940   40.0570 H   0  0  0  0  0  0  0  0  0  0  0  0
   40.0000   33.6580   41.4720 H   0  0  0  0  0  0  0  0  0  0  0  0
   36.0790   25.9360   38.6270 C   0  0  0  0  0  2  0  0  0  0  0  0
   35.2960   24.9590   37.7720 C   0  0  0  0  0  2  0  0  0  0  0  0
   35.0270   24.0320   38.3590 H   0  0  0  0  0  0  0  0  0  0  0  0
  1  7  1  6  0  0  0
  1 20  1  0  0  0  0
  1  2  1  0  0  0  0
  2  3  1  0  0  0  0
  2  9  1  0  0  0  0
  2  8  1  0  0  0  0
  3 11  1  0  0  0  0
  3 10  1  0  0  0  0
  4 12  1  0  0  0  0
  4  3  1  0  0  0  0
  5  6  1  0  0  0  0
  5  4  1  0  0  0  0
  6  1  1  0  0  0  0
  6 16  1  1  0  0  0
 13  4  1  0  0  0  0
 14  5  1  0  0  0  0
 15  5  1  0  0  0  0
 17 18  2  0  0  0  0
 18 19  1  0  0  0  0
 18 22  1  0  0  0  0
 19 23  1  0  0  0  0
 20 19  2  0  0  0  0
 21 17  1  0  0  0  0
 21 20  1  0  0  0  0
 24 29  2  0  0  0  0
 24 25  1  0  0  0  0
 25 26  2  0  0  0  0
 26 27  1  0  0  0  0
 26 32  1  0  0  0  0
 28 17  1  0  0  0  0
 28 27  2  0  0  0  0
 29 28  1  0  0  0  0
 30 24  1  0  0  0  0
 31 25  1  0  0  0  0
 33  6  1  0  0  0  0
 34 35  1  0  0  0  0
 34 33  1  0  0  0  0
M  END
>  <minimizedAffinity>
-4.72399282

$$$$

 OpenBabel03252509183D

 35 37  0  0  1  0  0  0  0  0999 V2000
   38.3200   31.2130   39.9960 C   0  0  1  0  0  0  0  0  0  0  0  0
   37.3840   32.1100   39.2600 C   0  0  0  0  0  0  0  0  0  0  0  0
   37.4140   33.5460   39.6990 C   0  0  0  0  0  0  0  0  0  0  0  0
   38.8120   34.0720   39.9460 C   0  0  0  0  0  0  0  0  0  0  0  0
   39.6810   33.1050   40.7050 C   0  0  0  0  0  0  0  0  0  0  0  0
   38.8200   31.9730   41.2430 C   0  0  2  0  0  0  0  0  0  0  0  0
   39.2300   31.0610   39.3560 H   0  0  0  0  0  0  0  0  0  0  0  0
   36.3420   31.7290   39.4720 H   0  0  0  0  0  0  0  0  0  0  0  0
   37.4970   32.0580   38.1450 H   0  0  0  0  0  0  0  0  0  0  0  0
   36.9810   34.1410   38.8610 H   0  0  0  0  0  0  0  0  0  0  0  0
   36.8120   33.7530   40.6020 H   0  0  0  0  0  0  0  0  0  0  0  0
   38.7150   35.0450   40.4470 H   0  0  0  0  0  0  0  0  0  0  0  0
   39.2650   34.2490   38.9300 H   0  0  0  0  0  0  0  0  0  0  0  0
   40.4430   32.6210   40.0520 H   0  0  0  0  0  0  0  0  0  0  0  0
   40.2210   33.5830   41.5390 H   0  0  0  0  0  0  0  0  0  0  0  0
   37.9070   32.3550   41.7430 H   0  0  0  0  0  0  0  0  0  0  0  0
   37.4380   27.2490   40.4900 C   0  0  0  0  0  0  0  0  0  0  0  0
   36.4550   28.0820   41.0460 C   0  0  0  0  0  0  0  0  0  0  0  0
   36.6350   29.4190   40.9380 C   0  0  0  0  0  0  0  0  0  0  0  0
   37.7740   29.9290   40.2890 C   0  0  0  0  0  0  0  0  0  0  0  0
   38.6640   28.4170   39.7880 S   0  0  0  0  0  0  0  0  0  0  0  0
   35.5840   27.6880   41.5440 H   0  0  0  0  0  0  0  0  0  0  0  0
   36.0020   30.2100   41.2950 H   0  0  0  0  0  0  0  0  0  0  0  0
   36.5300   23.6560   40.1120 C   0  0  0  0  0  0  0  0  0  0  0  0
   37.6560   23.0660   40.7480 C   0  0  0  0  0  0  0  0  0  0  0  0
   38.6500   23.9040   41.2660 C   0  0  0  0  0  0  0  0  0  0  0  0
   38.4810   25.2540   41.1280 N   0  0  0  0  0  0  0  0  0  0  0  0
   37.3980   25.7780   40.5180 C   0  0  0  0  0  0  0  0  0  0  0  0
   36.4140   24.9860   40.0040 N   0  0  0  0  0  0  0  0  0  0  0  0
   35.7440   23.0340   39.7010 H   0  0  0  0  0  0  0  0  0  0  0  0
   37.7400   22.0060   40.8290 H   0  0  0  0  0  0  0  0  0  0  0  0
   39.5250   23.5040   41.7590 H   0  0  0  0  0  0  0  0  0  0  0  0
   39.6070   31.0790   42.1670 C   0  0  0  0  0  2  0  0  0  0  0  0
   41.0790   31.2590   41.8530 C   0  0  0  0  0  2  0  0  0  0  0  0
   41.2530   32.1970   41.2470 H   0  0  0  0  0  0  0  0  0  0  0  0
  1  7  1  6  0  0  0
  1 20  1  0  0  0  0
  1  6  1  0  0  0  0
  2  8  1  0  0  0  0
  2  3  1  0  0  0  0
  2  1  1  0  0  0  0
  3  4  1  0  0  0  0
  3 11  1  0  0  0  0
  4 12  1  0  0  0  0
  4  5  1  0  0  0  0
  5  6  1  0  0  0  0
  5 15  1  0  0  0  0
  6 16  1  1  0  0  0
  6 33  1  0  0  0  0
  9  2  1  0  0  0  0
 10  3  1  0  0  0  0
 13  4  1  0  0  0  0
 14  5  1  0  0  0  0
 17 28  1  0  0  0  0
 17 18  2  0  0  0  0
 18 22  1  0  0  0  0
 19 18  1  0  0  0  0
 19 23  1  0  0  0  0
 20 19  2  0  0  0  0
 21 20  1  0  0  0  0
 21 17  1  0  0  0  0
 24 25  1  0  0  0  0
 25 31  1  0  0  0  0
 25 26  2  0  0  0  0
 26 32  1  0  0  0  0
 27 26  1  0  0  0  0
 28 27  2  0  0  0  0
 29 24  2  0  0  0  0
 29 28  1  0  0  0  0
 30 24  1  0  0  0  0
 34 33  1  0  0  0  0
 35 34  1  0  0  0  0
M  END
>  <minimizedAffinity>
-4.51051712

$$$$

 OpenBabel03252509183D

 35 37  0  0  1  0  0  0  0  0999 V2000
   38.5490   26.7200   41.1030 C   0  0  1  0  0  0  0  0  0  0  0  0
   39.0970   25.5320   40.3900 C   0  0  0  0  0  0  0  0  0  0  0  0
   38.8800   24.2220   41.0940 C   0  0  0  0  0  0  0  0  0  0  0  0
   37.4970   24.0820   41.6930 C   0  0  0  0  0  0  0  0  0  0  0  0
   37.0320   25.3260   42.4020 C   0  0  0  0  0  0  0  0  0  0  0  0
   38.2000   26.2890   42.5430 C   0  0  2  0  0  0  0  0  0  0  0  0
   37.5680   26.9880   40.6270 H   0  0  0  0  0  0  0  0  0  0  0  0
   40.2150   25.6830   40.3280 H   0  0  0  0  0  0  0  0  0  0  0  0
   38.7500   25.4460   39.3270 H   0  0  0  0  0  0  0  0  0  0  0  0
   38.9860   23.4260   40.3190 H   0  0  0  0  0  0  0  0  0  0  0  0
   39.6160   24.0130   41.8910 H   0  0  0  0  0  0  0  0  0  0  0  0
   37.5080   23.1960   42.3440 H   0  0  0  0  0  0  0  0  0  0  0  0
   36.8020   23.8700   40.8330 H   0  0  0  0  0  0  0  0  0  0  0  0
   36.2550   25.8750   41.8220 H   0  0  0  0  0  0  0  0  0  0  0  0
   36.6080   25.1140   43.3980 H   0  0  0  0  0  0  0  0  0  0  0  0
   39.1060   25.7800   42.9280 H   0  0  0  0  0  0  0  0  0  0  0  0
   40.3650   30.3300   40.4650 C   0  0  0  0  0  0  0  0  0  0  0  0
   41.1280   29.4950   41.2950 C   0  0  0  0  0  0  0  0  0  0  0  0
   40.6300   28.2670   41.5730 C   0  0  0  0  0  0  0  0  0  0  0  0
   39.3920   27.8690   41.0380 C   0  0  0  0  0  0  0  0  0  0  0  0
   38.8830   29.3270   40.0670 S   0  0  0  0  0  0  0  0  0  0  0  0
   42.0760   29.8040   41.7050 H   0  0  0  0  0  0  0  0  0  0  0  0
   41.0600   27.4930   42.1810 H   0  0  0  0  0  0  0  0  0  0  0  0
   41.4390   33.8960   40.3680 C   0  0  0  0  0  0  0  0  0  0  0  0
   41.4370   34.0990   38.9620 C   0  0  0  0  0  0  0  0  0  0  0  0
   41.0750   33.0330   38.1300 C   0  0  0  0  0  0  0  0  0  0  0  0
   40.7440   31.8470   38.7240 N   0  0  0  0  0  0  0  0  0  0  0  0
   40.7580   31.6900   40.0630 C   0  0  0  0  0  0  0  0  0  0  0  0
   41.1060   32.7110   40.8980 N   0  0  0  0  0  0  0  0  0  0  0  0
   41.7140   34.7020   41.0390 H   0  0  0  0  0  0  0  0  0  0  0  0
   41.7040   35.0450   38.5500 H   0  0  0  0  0  0  0  0  0  0  0  0
   41.0570   33.1370   37.0550 H   0  0  0  0  0  0  0  0  0  0  0  0
   37.8350   27.4680   43.4100 C   0  0  0  0  0  2  0  0  0  0  0  0
   36.3450   27.4080   43.6800 C   0  0  0  0  0  2  0  0  0  0  0  0
   35.9300   26.3840   43.4410 H   0  0  0  0  0  0  0  0  0  0  0  0
  1  7  1  6  0  0  0
  1  6  1  0  0  0  0
  2  3  1  0  0  0  0
  2  1  1  0  0  0  0
  3  4  1  0  0  0  0
  3 11  1  0  0  0  0
  4 12  1  0  0  0  0
  4  5  1  0  0  0  0
  5  6  1  0  0  0  0
  5 15  1  0  0  0  0
  6 16  1  1  0  0  0
  6 33  1  0  0  0  0
  8  2  1  0  0  0  0
  9  2  1  0  0  0  0
 10  3  1  0  0  0  0
 13  4  1  0  0  0  0
 14  5  1  0  0  0  0
 17 18  2  0  0  0  0
 18 19  1  0  0  0  0
 18 22  1  0  0  0  0
 19 23  1  0  0  0  0
 20  1  1  0  0  0  0
 20 19  2  0  0  0  0
 21 17  1  0  0  0  0
 21 20  1  0  0  0  0
 24 29  1  0  0  0  0
 24 30  1  0  0  0  0
 25 24  2  0  0  0  0
 26 27  2  0  0  0  0
 26 25  1  0  0  0  0
 27 28  1  0  0  0  0
 28 17  1  0  0  0  0
 28 29  2  0  0  0  0
 31 25  1  0  0  0  0
 32 26  1  0  0  0  0
 33 34  1  0  0  0  0
 35 34  1  0  0  0  0
M  END
>  <minimizedAffinity>
-4.50573397

$$$$

 OpenBabel03252509183D

 35 37  0  0  1  0  0  0  0  0999 V2000
   37.8140   29.9060   38.8930 C   0  0  1  0  0  0  0  0  0  0  0  0
   37.5040   30.3100   40.2940 C   0  0  0  0  0  0  0  0  0  0  0  0
   36.0440   30.5280   40.5750 C   0  0  0  0  0  0  0  0  0  0  0  0
   35.1470   29.4810   39.9510 C   0  0  0  0  0  0  0  0  0  0  0  0
   35.5290   29.1460   38.5340 C   0  0  0  0  0  0  0  0  0  0  0  0
   36.5530   30.1540   38.0390 C   0  0  2  0  0  0  0  0  0  0  0  0
   37.9700   28.7940   38.8790 H   0  0  0  0  0  0  0  0  0  0  0  0
   38.0170   31.3010   40.4630 H   0  0  0  0  0  0  0  0  0  0  0  0
   37.9340   29.6180   41.0660 H   0  0  0  0  0  0  0  0  0  0  0  0
   35.9210   30.4500   41.6810 H   0  0  0  0  0  0  0  0  0  0  0  0
   35.6710   31.5200   40.2670 H   0  0  0  0  0  0  0  0  0  0  0  0
   34.1110   29.8370   40.0430 H   0  0  0  0  0  0  0  0  0  0  0  0
   35.2530   28.5570   40.5860 H   0  0  0  0  0  0  0  0  0  0  0  0
   36.0210   28.1490   38.4550 H   0  0  0  0  0  0  0  0  0  0  0  0
   34.6630   29.1380   37.8510 H   0  0  0  0  0  0  0  0  0  0  0  0
   36.2450   31.1950   38.2620 H   0  0  0  0  0  0  0  0  0  0  0  0
   41.4480   30.8870   37.2900 C   0  0  0  0  0  0  0  0  0  0  0  0
   40.6610   32.0190   37.5450 C   0  0  0  0  0  0  0  0  0  0  0  0
   39.4360   31.8200   38.0840 C   0  0  0  0  0  0  0  0  0  0  0  0
   38.9920   30.5150   38.3670 C   0  0  0  0  0  0  0  0  0  0  0  0
   40.4010   29.4850   37.8380 S   0  0  0  0  0  0  0  0  0  0  0  0
   41.0040   33.0180   37.3260 H   0  0  0  0  0  0  0  0  0  0  0  0
   38.6940   32.5510   38.3500 H   0  0  0  0  0  0  0  0  0  0  0  0
   44.5160   30.3350   35.2500 C   0  0  0  0  0  0  0  0  0  0  0  0
   45.3870   31.2570   35.8900 C   0  0  0  0  0  0  0  0  0  0  0  0
   44.8980   32.0070   36.9650 C   0  0  0  0  0  0  0  0  0  0  0  0
   43.5980   31.8090   37.3410 N   0  0  0  0  0  0  0  0  0  0  0  0
   42.8000   30.9240   36.7090 C   0  0  0  0  0  0  0  0  0  0  0  0
   43.2490   30.1800   35.6590 N   0  0  0  0  0  0  0  0  0  0  0  0
   44.8660   29.7390   34.4150 H   0  0  0  0  0  0  0  0  0  0  0  0
   46.3930   31.3740   35.5580 H   0  0  0  0  0  0  0  0  0  0  0  0
   45.5210   32.7210   37.4860 H   0  0  0  0  0  0  0  0  0  0  0  0
   36.8290   29.9770   36.5670 C   0  0  0  0  0  2  0  0  0  0  0  0
   36.6990   28.5020   36.2400 C   0  0  0  0  0  2  0  0  0  0  0  0
   36.1540   27.9500   37.0630 H   0  0  0  0  0  0  0  0  0  0  0  0
  1  7  1  1  0  0  0
  1  2  1  0  0  0  0
  2  8  1  0  0  0  0
  2  3  1  0  0  0  0
  2  9  1  0  0  0  0
  3 10  1  0  0  0  0
  4 12  1  0  0  0  0
  4  3  1  0  0  0  0
  4 13  1  0  0  0  0
  5  4  1  0  0  0  0
  6 16  1  1  0  0  0
  6  5  1  0  0  0  0
  6  1  1  0  0  0  0
 11  3  1  0  0  0  0
 14  5  1  0  0  0  0
 15  5  1  0  0  0  0
 17 18  2  0  0  0  0
 17 21  1  0  0  0  0
 18 19  1  0  0  0  0
 19 23  1  0  0  0  0
 19 20  2  0  0  0  0
 20  1  1  0  0  0  0
 21 20  1  0  0  0  0
 22 18  1  0  0  0  0
 24 29  2  0  0  0  0
 24 25  1  0  0  0  0
 25 26  2  0  0  0  0
 26 27  1  0  0  0  0
 26 32  1  0  0  0  0
 28 17  1  0  0  0  0
 28 27  2  0  0  0  0
 29 28  1  0  0  0  0
 30 24  1  0  0  0  0
 31 25  1  0  0  0  0
 33  6  1  0  0  0  0
 34 33  1  0  0  0  0
 34 35  1  0  0  0  0
M  END
>  <minimizedAffinity>
-4.49175024

$$$$
