
 OpenBabel03252501183D

 15 15  0  0  0  0  0  0  0  0999 V2000
   39.2400   24.7210   42.7730 C   0  0  0  0  0  0  0  0  0  0  0  0
   38.0470   25.4710   42.5780 C   0  0  0  0  0  0  0  0  0  0  0  0
   38.1110   26.8000   42.9560 C   0  0  0  0  0  0  0  0  0  0  0  0
   39.2790   27.3020   43.4800 N   0  0  0  0  0  0  0  0  0  0  0  0
   40.3810   26.5420   43.6410 C   0  0  0  0  0  0  0  0  0  0  0  0
   40.3470   25.2500   43.2830 N   0  0  0  0  0  0  0  0  0  0  0  0
   39.3100   23.6760   42.5150 H   0  0  0  0  0  0  0  0  0  0  0  0
   41.2920   26.9460   44.0530 H   0  0  0  0  0  0  0  0  0  0  0  0
   36.8890   27.5750   42.7540 C   0  0  0  0  0  0  0  0  0  0  0  0
   37.1170   28.9070   43.0990 F   0  0  0  0  0  0  0  0  0  0  0  0
   35.9750   27.1290   43.6780 F   0  0  0  0  0  0  0  0  0  0  0  0
   36.4360   27.5730   41.4630 F   0  0  0  0  0  0  0  0  0  0  0  0
   36.9490   24.7100   42.0240 C   0  0  0  0  0  2  0  0  0  0  0  0
   37.3850   23.9150   40.8090 C   0  0  0  0  0  2  0  0  0  0  0  0
   38.4080   24.2110   40.5340 H   0  0  0  0  0  0  0  0  0  0  0  0
  1  6  1  0  0  0  0
  2  1  2  0  0  0  0
  2  3  1  0  0  0  0
  3  4  2  0  0  0  0
  4  5  1  0  0  0  0
  5  8  1  0  0  0  0
  6  5  2  0  0  0  0
  7  1  1  0  0  0  0
  9  3  1  0  0  0  0
  9 10  1  0  0  0  0
  9 11  1  0  0  0  0
 12  9  1  0  0  0  0
 13  2  1  0  0  0  0
 14 13  1  0  0  0  0
 15 14  1  0  0  0  0
M  END
>  <minimizedAffinity>
-4.02994204

$$$$

 OpenBabel03252501183D

 15 15  0  0  0  0  0  0  0  0999 V2000
   40.3320   27.8140   43.3060 C   0  0  0  0  0  0  0  0  0  0  0  0
   38.9280   27.7790   43.0810 C   0  0  0  0  0  0  0  0  0  0  0  0
   38.3850   26.5190   42.8990 C   0  0  0  0  0  0  0  0  0  0  0  0
   39.2020   25.4150   42.9420 N   0  0  0  0  0  0  0  0  0  0  0  0
   40.5300   25.5100   43.1590 C   0  0  0  0  0  0  0  0  0  0  0  0
   41.0820   26.7180   43.3390 N   0  0  0  0  0  0  0  0  0  0  0  0
   40.8660   28.7380   43.4610 H   0  0  0  0  0  0  0  0  0  0  0  0
   41.1620   24.6360   43.1920 H   0  0  0  0  0  0  0  0  0  0  0  0
   36.9420   26.4790   42.6720 C   0  0  0  0  0  0  0  0  0  0  0  0
   36.5250   25.1530   42.5550 F   0  0  0  0  0  0  0  0  0  0  0  0
   36.7170   27.0240   41.4310 F   0  0  0  0  0  0  0  0  0  0  0  0
   36.2050   27.0380   43.6800 F   0  0  0  0  0  0  0  0  0  0  0  0
   38.2940   29.0790   43.0670 C   0  0  0  0  0  2  0  0  0  0  0  0
   39.2400   30.1500   42.5570 C   0  0  0  0  0  2  0  0  0  0  0  0
   40.2450   29.7190   42.4510 H   0  0  0  0  0  0  0  0  0  0  0  0
  1  6  1  0  0  0  0
  1  7  1  0  0  0  0
  2  1  2  0  0  0  0
  3  4  2  0  0  0  0
  3  2  1  0  0  0  0
  4  5  1  0  0  0  0
  5  8  1  0  0  0  0
  5  6  2  0  0  0  0
  9  3  1  0  0  0  0
  9 12  1  0  0  0  0
 10  9  1  0  0  0  0
 11  9  1  0  0  0  0
 13  2  1  0  0  0  0
 14 13  1  0  0  0  0
 15 14  1  0  0  0  0
M  END
>  <minimizedAffinity>
-3.89147353

$$$$

 OpenBabel03252501183D

 15 15  0  0  0  0  0  0  0  0999 V2000
   36.8560   25.7620   39.8800 C   0  0  0  0  0  0  0  0  0  0  0  0
   36.9630   26.0410   41.2710 C   0  0  0  0  0  0  0  0  0  0  0  0
   37.0130   27.3820   41.6070 C   0  0  0  0  0  0  0  0  0  0  0  0
   36.9600   28.3330   40.6160 N   0  0  0  0  0  0  0  0  0  0  0  0
   36.8580   28.0080   39.3110 C   0  0  0  0  0  0  0  0  0  0  0  0
   36.8080   26.7160   38.9570 N   0  0  0  0  0  0  0  0  0  0  0  0
   36.8090   24.7540   39.4980 H   0  0  0  0  0  0  0  0  0  0  0  0
   36.8170   28.7630   38.5410 H   0  0  0  0  0  0  0  0  0  0  0  0
   37.1200   27.6730   43.0350 C   0  0  0  0  0  0  0  0  0  0  0  0
   35.9460   27.2820   43.6800 F   0  0  0  0  0  0  0  0  0  0  0  0
   37.1480   29.0400   43.1640 F   0  0  0  0  0  0  0  0  0  0  0  0
   38.1490   27.0230   43.6600 F   0  0  0  0  0  0  0  0  0  0  0  0
   37.0160   24.8650   42.1120 C   0  0  0  0  0  2  0  0  0  0  0  0
   38.2860   24.0710   41.8740 C   0  0  0  0  0  2  0  0  0  0  0  0
   38.8140   24.4920   41.0070 H   0  0  0  0  0  0  0  0  0  0  0  0
  1  2  1  0  0  0  0
  2  3  2  0  0  0  0
  2 13  1  0  0  0  0
  3  9  1  0  0  0  0
  4  3  1  0  0  0  0
  5  4  2  0  0  0  0
  6  5  1  0  0  0  0
  6  1  2  0  0  0  0
  7  1  1  0  0  0  0
  8  5  1  0  0  0  0
  9 11  1  0  0  0  0
  9 12  1  0  0  0  0
  9 10  1  0  0  0  0
 14 13  1  0  0  0  0
 15 14  1  0  0  0  0
M  END
>  <minimizedAffinity>
-3.76836395

$$$$

 OpenBabel03252501183D

 15 15  0  0  0  0  0  0  0  0999 V2000
   36.9860   25.8090   39.8390 C   0  0  0  0  0  0  0  0  0  0  0  0
   36.9940   26.0570   41.2400 C   0  0  0  0  0  0  0  0  0  0  0  0
   37.0930   27.3870   41.6080 C   0  0  0  0  0  0  0  0  0  0  0  0
   37.1770   28.3560   40.6370 N   0  0  0  0  0  0  0  0  0  0  0  0
   37.1640   28.0600   39.3210 C   0  0  0  0  0  0  0  0  0  0  0  0
   37.0690   26.7800   38.9360 N   0  0  0  0  0  0  0  0  0  0  0  0
   36.9120   24.8120   39.4330 H   0  0  0  0  0  0  0  0  0  0  0  0
   37.2300   28.8290   38.5670 H   0  0  0  0  0  0  0  0  0  0  0  0
   37.0980   27.6470   43.0460 C   0  0  0  0  0  0  0  0  0  0  0  0
   37.2930   29.0080   43.2740 F   0  0  0  0  0  0  0  0  0  0  0  0
   38.2220   27.0450   43.5570 F   0  0  0  0  0  0  0  0  0  0  0  0
   35.9330   27.3020   43.6770 F   0  0  0  0  0  0  0  0  0  0  0  0
   36.9090   24.8660   42.0560 C   0  0  0  0  0  2  0  0  0  0  0  0
   38.1760   24.0390   41.9600 C   0  0  0  0  0  2  0  0  0  0  0  0
   38.8200   24.4580   41.1740 H   0  0  0  0  0  0  0  0  0  0  0  0
  1  2  1  0  0  0  0
  2  3  2  0  0  0  0
  2 13  1  0  0  0  0
  3  9  1  0  0  0  0
  4  3  1  0  0  0  0
  5  4  2  0  0  0  0
  6  5  1  0  0  0  0
  6  1  2  0  0  0  0
  7  1  1  0  0  0  0
  8  5  1  0  0  0  0
  9 10  1  0  0  0  0
  9 11  1  0  0  0  0
  9 12  1  0  0  0  0
 14 13  1  0  0  0  0
 15 14  1  0  0  0  0
M  END
>  <minimizedAffinity>
-3.75072694

$$$$

 OpenBabel03252501183D

 15 15  0  0  0  0  0  0  0  0999 V2000
   37.5360   29.5430   40.5860 C   0  0  0  0  0  0  0  0  0  0  0  0
   37.5500   28.7320   41.7550 C   0  0  0  0  0  0  0  0  0  0  0  0
   37.0600   27.4480   41.5940 C   0  0  0  0  0  0  0  0  0  0  0  0
   36.6010   27.0450   40.3620 N   0  0  0  0  0  0  0  0  0  0  0  0
   36.6120   27.8610   39.2880 C   0  0  0  0  0  0  0  0  0  0  0  0
   37.0820   29.1100   39.4150 N   0  0  0  0  0  0  0  0  0  0  0  0
   37.8930   30.5610   40.5900 H   0  0  0  0  0  0  0  0  0  0  0  0
   36.2500   27.5340   38.3250 H   0  0  0  0  0  0  0  0  0  0  0  0
   37.0770   26.6090   42.7900 C   0  0  0  0  0  0  0  0  0  0  0  0
   36.6370   25.3260   42.4680 F   0  0  0  0  0  0  0  0  0  0  0  0
   36.1160   27.1030   43.6390 F   0  0  0  0  0  0  0  0  0  0  0  0
   38.3160   26.4720   43.3550 F   0  0  0  0  0  0  0  0  0  0  0  0
   38.0690   29.3920   42.9320 C   0  0  0  0  0  2  0  0  0  0  0  0
   39.3050   30.2090   42.6090 C   0  0  0  0  0  2  0  0  0  0  0  0
   39.6150   29.9970   41.5760 H   0  0  0  0  0  0  0  0  0  0  0  0
  1  7  1  0  0  0  0
  1  2  1  0  0  0  0
  2 13  1  0  0  0  0
  3  2  2  0  0  0  0
  3  9  1  0  0  0  0
  4  3  1  0  0  0  0
  5  6  1  0  0  0  0
  5  4  2  0  0  0  0
  6  1  2  0  0  0  0
  8  5  1  0  0  0  0
  9 12  1  0  0  0  0
  9 11  1  0  0  0  0
 10  9  1  0  0  0  0
 14 13  1  0  0  0  0
 15 14  1  0  0  0  0
M  END
>  <minimizedAffinity>
-3.66698575

$$$$

 OpenBabel03252501183D

 15 15  0  0  0  0  0  0  0  0999 V2000
   36.8100   30.8560   40.6400 C   0  0  0  0  0  0  0  0  0  0  0  0
   36.4630   29.5580   41.1070 C   0  0  0  0  0  0  0  0  0  0  0  0
   37.4000   28.9500   41.9230 C   0  0  0  0  0  0  0  0  0  0  0  0
   38.5690   29.6080   42.2240 N   0  0  0  0  0  0  0  0  0  0  0  0
   38.8430   30.8400   41.7500 C   0  0  0  0  0  0  0  0  0  0  0  0
   37.9530   31.4530   40.9560 N   0  0  0  0  0  0  0  0  0  0  0  0
   36.1580   31.4280   39.9970 H   0  0  0  0  0  0  0  0  0  0  0  0
   39.7640   31.3480   41.9920 H   0  0  0  0  0  0  0  0  0  0  0  0
   37.0460   27.6180   42.4100 C   0  0  0  0  0  0  0  0  0  0  0  0
   38.1100   27.0890   43.1390 F   0  0  0  0  0  0  0  0  0  0  0  0
   36.9420   26.8050   41.3080 F   0  0  0  0  0  0  0  0  0  0  0  0
   35.9540   27.5990   43.2340 F   0  0  0  0  0  0  0  0  0  0  0  0
   35.1820   29.0780   40.6380 C   0  0  0  0  0  2  0  0  0  0  0  0
   35.2050   28.8080   39.1460 C   0  0  0  0  0  2  0  0  0  0  0  0
   36.1520   29.1780   38.7290 H   0  0  0  0  0  0  0  0  0  0  0  0
  1  6  2  0  0  0  0
  1  2  1  0  0  0  0
  2  3  2  0  0  0  0
  3  4  1  0  0  0  0
  3  9  1  0  0  0  0
  5  8  1  0  0  0  0
  5  4  2  0  0  0  0
  6  5  1  0  0  0  0
  7  1  1  0  0  0  0
  9 10  1  0  0  0  0
  9 12  1  0  0  0  0
 11  9  1  0  0  0  0
 13  2  1  0  0  0  0
 14 13  1  0  0  0  0
 15 14  1  0  0  0  0
M  END
>  <minimizedAffinity>
-3.66469979

$$$$

 OpenBabel03252501183D

 15 15  0  0  0  0  0  0  0  0999 V2000
   39.2480   25.3660   41.6410 C   0  0  0  0  0  0  0  0  0  0  0  0
   38.5300   26.3410   42.3880 C   0  0  0  0  0  0  0  0  0  0  0  0
   37.4020   26.8520   41.7710 C   0  0  0  0  0  0  0  0  0  0  0  0
   37.0520   26.4070   40.5180 N   0  0  0  0  0  0  0  0  0  0  0  0
   37.7730   25.4780   39.8570 C   0  0  0  0  0  0  0  0  0  0  0  0
   38.8710   24.9660   40.4310 N   0  0  0  0  0  0  0  0  0  0  0  0
   40.1430   24.8970   42.0190 H   0  0  0  0  0  0  0  0  0  0  0  0
   37.4890   25.1350   38.8740 H   0  0  0  0  0  0  0  0  0  0  0  0
   36.6590   27.8500   42.5370 C   0  0  0  0  0  0  0  0  0  0  0  0
   35.6760   28.4220   41.7300 F   0  0  0  0  0  0  0  0  0  0  0  0
   37.5300   28.8780   42.8040 F   0  0  0  0  0  0  0  0  0  0  0  0
   36.0230   27.3460   43.6380 F   0  0  0  0  0  0  0  0  0  0  0  0
   39.1100   26.6500   43.6760 C   0  0  0  0  0  2  0  0  0  0  0  0
   40.4740   27.2960   43.5280 C   0  0  0  0  0  2  0  0  0  0  0  0
   40.7800   27.2500   42.4730 H   0  0  0  0  0  0  0  0  0  0  0  0
  1  7  1  0  0  0  0
  1  2  1  0  0  0  0
  2 13  1  0  0  0  0
  3  2  2  0  0  0  0
  3  9  1  0  0  0  0
  4  3  1  0  0  0  0
  5  6  1  0  0  0  0
  5  4  2  0  0  0  0
  6  1  2  0  0  0  0
  8  5  1  0  0  0  0
  9 11  1  0  0  0  0
  9 12  1  0  0  0  0
 10  9  1  0  0  0  0
 14 13  1  0  0  0  0
 15 14  1  0  0  0  0
M  END
>  <minimizedAffinity>
-3.57642221

$$$$

 OpenBabel03252501183D

 15 15  0  0  0  0  0  0  0  0999 V2000
   37.1190   31.4770   38.2510 C   0  0  0  0  0  0  0  0  0  0  0  0
   36.3740   30.3040   38.5520 C   0  0  0  0  0  0  0  0  0  0  0  0
   36.1490   30.0710   39.8970 C   0  0  0  0  0  0  0  0  0  0  0  0
   36.6400   30.9520   40.8310 N   0  0  0  0  0  0  0  0  0  0  0  0
   37.3420   32.0500   40.4850 C   0  0  0  0  0  0  0  0  0  0  0  0
   37.5750   32.3010   39.1880 N   0  0  0  0  0  0  0  0  0  0  0  0
   37.3570   31.7620   37.2370 H   0  0  0  0  0  0  0  0  0  0  0  0
   37.7230   32.7360   41.2260 H   0  0  0  0  0  0  0  0  0  0  0  0
   35.3790   28.8690   40.2110 C   0  0  0  0  0  0  0  0  0  0  0  0
   34.0240   29.1120   39.9940 F   0  0  0  0  0  0  0  0  0  0  0  0
   35.4840   28.6690   41.5660 F   0  0  0  0  0  0  0  0  0  0  0  0
   35.7130   27.7810   39.4500 F   0  0  0  0  0  0  0  0  0  0  0  0
   35.9810   29.5330   37.3920 C   0  0  0  0  0  2  0  0  0  0  0  0
   36.8490   29.8590   36.1920 C   0  0  0  0  0  2  0  0  0  0  0  0
   37.4900   30.7180   36.4360 H   0  0  0  0  0  0  0  0  0  0  0  0
  1  2  2  0  0  0  0
  1  6  1  0  0  0  0
  2  3  1  0  0  0  0
  3  9  1  0  0  0  0
  3  4  2  0  0  0  0
  5  4  1  0  0  0  0
  5  8  1  0  0  0  0
  6  5  2  0  0  0  0
  7  1  1  0  0  0  0
  9 11  1  0  0  0  0
 10  9  1  0  0  0  0
 12  9  1  0  0  0  0
 13  2  1  0  0  0  0
 14 15  1  0  0  0  0
 14 13  1  0  0  0  0
M  END
>  <minimizedAffinity>
-3.56510067

$$$$

 OpenBabel03252501183D

 15 15  0  0  0  0  0  0  0  0999 V2000
   37.0470   31.9970   40.2940 C   0  0  0  0  0  0  0  0  0  0  0  0
   37.0780   30.7390   40.9570 C   0  0  0  0  0  0  0  0  0  0  0  0
   38.2340   30.4680   41.6670 C   0  0  0  0  0  0  0  0  0  0  0  0
   39.2500   31.3940   41.6890 N   0  0  0  0  0  0  0  0  0  0  0  0
   39.1640   32.5730   41.0390 C   0  0  0  0  0  0  0  0  0  0  0  0
   38.0550   32.8610   40.3430 N   0  0  0  0  0  0  0  0  0  0  0  0
   36.1990   32.3180   39.7090 H   0  0  0  0  0  0  0  0  0  0  0  0
   39.9680   33.2930   41.0640 H   0  0  0  0  0  0  0  0  0  0  0  0
   38.2680   29.1790   42.3540 C   0  0  0  0  0  0  0  0  0  0  0  0
   37.2710   29.1420   43.3280 F   0  0  0  0  0  0  0  0  0  0  0  0
   39.4450   29.1320   43.0590 F   0  0  0  0  0  0  0  0  0  0  0  0
   38.0570   28.1050   41.5310 F   0  0  0  0  0  0  0  0  0  0  0  0
   35.8890   29.9370   40.7680 C   0  0  0  0  0  2  0  0  0  0  0  0
   35.7080   29.5510   39.3130 C   0  0  0  0  0  2  0  0  0  0  0  0
   36.4450   30.0920   38.7040 H   0  0  0  0  0  0  0  0  0  0  0  0
  1  6  2  0  0  0  0
  1  2  1  0  0  0  0
  2  3  2  0  0  0  0
  3  4  1  0  0  0  0
  3  9  1  0  0  0  0
  5  8  1  0  0  0  0
  5  4  2  0  0  0  0
  6  5  1  0  0  0  0
  7  1  1  0  0  0  0
  9 11  1  0  0  0  0
  9 10  1  0  0  0  0
 12  9  1  0  0  0  0
 13  2  1  0  0  0  0
 14 13  1  0  0  0  0
 15 14  1  0  0  0  0
M  END
>  <minimizedAffinity>
-3.47282004

$$$$
