
 OpenBabel03252501263D

 29 31  0  0  0  0  0  0  0  0999 V2000
   40.0630   32.9080   39.7520 C   0  0  0  0  0  0  0  0  0  0  0  0
   39.0310   33.7750   40.0990 C   0  0  0  0  0  0  0  0  0  0  0  0
   38.0030   33.0450   40.6130 C   0  0  0  0  0  0  0  0  0  0  0  0
   38.3900   31.7660   40.5820 N   0  0  0  0  0  0  0  0  0  0  0  0
   39.6230   31.6960   40.0660 N   0  0  0  0  0  0  0  0  0  0  0  0
   39.0320   34.8450   39.9870 H   0  0  0  0  0  0  0  0  0  0  0  0
   37.0180   33.3490   40.9980 H   0  0  0  0  0  0  0  0  0  0  0  0
   39.0120   30.3030   42.9200 F   0  0  0  0  0  0  0  0  0  0  0  0
   37.9910   29.9020   42.1310 C   0  0  0  0  0  0  0  0  0  0  0  0
   37.6970   30.6220   40.9960 C   0  0  0  0  0  0  0  0  0  0  0  0
   36.6520   30.2180   40.1830 C   0  0  0  0  0  0  0  0  0  0  0  0
   35.8780   29.1130   40.4590 C   0  0  0  0  0  0  0  0  0  0  0  0
   36.1980   28.4150   41.6010 C   0  0  0  0  0  0  0  0  0  0  0  0
   37.2290   28.7860   42.4340 C   0  0  0  0  0  0  0  0  0  0  0  0
   36.3930   30.7690   39.2750 H   0  0  0  0  0  0  0  0  0  0  0  0
   35.0630   28.8210   39.8010 H   0  0  0  0  0  0  0  0  0  0  0  0
   35.6180   27.5350   41.8650 H   0  0  0  0  0  0  0  0  0  0  0  0
   37.5950   28.0520   43.6770 C   0  0  0  0  0  2  0  0  0  0  0  0
   38.6750   27.0310   43.3870 C   0  0  0  0  0  2  0  0  0  0  0  0
   39.0920   27.2730   42.3850 H   0  0  0  0  0  0  0  0  0  0  0  0
   42.6370   33.7900   37.3070 C   0  0  0  0  0  0  0  0  0  0  0  0
   43.7430   34.0820   38.1100 C   0  0  0  0  0  0  0  0  0  0  0  0
   43.5930   33.9710   39.5070 C   0  0  0  0  0  0  0  0  0  0  0  0
   42.3750   33.5870   39.9600 N   0  0  0  0  0  0  0  0  0  0  0  0
   41.3310   33.3130   39.1700 C   0  0  0  0  0  0  0  0  0  0  0  0
   41.4520   33.4130   37.8290 N   0  0  0  0  0  0  0  0  0  0  0  0
   42.7700   33.8800   36.2390 H   0  0  0  0  0  0  0  0  0  0  0  0
   44.7100   34.3870   37.7350 H   0  0  0  0  0  0  0  0  0  0  0  0
   44.3860   34.1730   40.2290 H   0  0  0  0  0  0  0  0  0  0  0  0
  1  5  2  0  0  0  0
  1  2  1  0  0  0  0
  2  3  2  0  0  0  0
  3  7  1  0  0  0  0
  4  3  1  0  0  0  0
  4 10  1  0  0  0  0
  5  4  1  0  0  0  0
  6  2  1  0  0  0  0
  9 14  1  0  0  0  0
  9  8  1  0  0  0  0
 10  9  2  0  0  0  0
 11 12  2  0  0  0  0
 11 10  1  0  0  0  0
 12 13  1  0  0  0  0
 13 17  1  0  0  0  0
 13 14  2  0  0  0  0
 14 18  1  0  0  0  0
 15 11  1  0  0  0  0
 16 12  1  0  0  0  0
 19 18  1  0  0  0  0
 20 19  1  0  0  0  0
 21 26  2  0  0  0  0
 21 22  1  0  0  0  0
 22 23  2  0  0  0  0
 23 24  1  0  0  0  0
 23 29  1  0  0  0  0
 25  1  1  0  0  0  0
 25 24  2  0  0  0  0
 26 25  1  0  0  0  0
 27 21  1  0  0  0  0
 28 22  1  0  0  0  0
M  END
>  <minimizedAffinity>
-5.41276836

$$$$

 OpenBabel03252501263D

 29 31  0  0  0  0  0  0  0  0999 V2000
   38.8590   31.5740   39.7780 C   0  0  0  0  0  0  0  0  0  0  0  0
   37.5810   32.0680   40.0210 C   0  0  0  0  0  0  0  0  0  0  0  0
   36.8750   31.1300   40.7090 C   0  0  0  0  0  0  0  0  0  0  0  0
   37.6940   30.0880   40.8830 N   0  0  0  0  0  0  0  0  0  0  0  0
   38.8770   30.3640   40.3230 N   0  0  0  0  0  0  0  0  0  0  0  0
   37.2010   33.0300   39.7230 H   0  0  0  0  0  0  0  0  0  0  0  0
   35.8420   31.1310   41.0880 H   0  0  0  0  0  0  0  0  0  0  0  0
   37.4380   27.6130   39.5400 F   0  0  0  0  0  0  0  0  0  0  0  0
   37.3230   27.6590   40.8860 C   0  0  0  0  0  0  0  0  0  0  0  0
   37.4500   28.8700   41.5290 C   0  0  0  0  0  0  0  0  0  0  0  0
   37.3340   28.9240   42.9070 C   0  0  0  0  0  0  0  0  0  0  0  0
   37.0950   27.8100   43.6790 C   0  0  0  0  0  0  0  0  0  0  0  0
   36.9740   26.6170   43.0060 C   0  0  0  0  0  0  0  0  0  0  0  0
   37.0830   26.5210   41.6380 C   0  0  0  0  0  0  0  0  0  0  0  0
   37.4300   29.8710   43.4470 H   0  0  0  0  0  0  0  0  0  0  0  0
   37.0100   27.8860   44.7610 H   0  0  0  0  0  0  0  0  0  0  0  0
   36.7860   25.7060   43.5690 H   0  0  0  0  0  0  0  0  0  0  0  0
   36.9600   25.2430   40.8830 C   0  0  0  0  0  2  0  0  0  0  0  0
   37.2100   24.0630   41.8000 C   0  0  0  0  0  2  0  0  0  0  0  0
   37.1650   24.4470   42.8430 H   0  0  0  0  0  0  0  0  0  0  0  0
   41.3560   32.4680   37.2580 C   0  0  0  0  0  0  0  0  0  0  0  0
   41.8840   33.6640   37.7530 C   0  0  0  0  0  0  0  0  0  0  0  0
   41.3700   34.1610   38.9670 C   0  0  0  0  0  0  0  0  0  0  0  0
   40.3950   33.4300   39.5600 N   0  0  0  0  0  0  0  0  0  0  0  0
   39.9060   32.2870   39.0660 C   0  0  0  0  0  0  0  0  0  0  0  0
   40.3840   31.7930   37.9040 N   0  0  0  0  0  0  0  0  0  0  0  0
   41.7620   32.1030   36.3260 H   0  0  0  0  0  0  0  0  0  0  0  0
   42.6620   34.2380   37.2690 H   0  0  0  0  0  0  0  0  0  0  0  0
   41.7050   35.0830   39.4460 H   0  0  0  0  0  0  0  0  0  0  0  0
  1  2  1  0  0  0  0
  1  5  2  0  0  0  0
  2  3  2  0  0  0  0
  3  4  1  0  0  0  0
  3  7  1  0  0  0  0
  4 10  1  0  0  0  0
  5  4  1  0  0  0  0
  6  2  1  0  0  0  0
  8  9  1  0  0  0  0
  9 10  2  0  0  0  0
  9 14  1  0  0  0  0
 10 11  1  0  0  0  0
 11 15  1  0  0  0  0
 11 12  2  0  0  0  0
 12 16  1  0  0  0  0
 13 17  1  0  0  0  0
 13 12  1  0  0  0  0
 14 13  2  0  0  0  0
 18 14  1  0  0  0  0
 18 19  1  0  0  0  0
 19 20  1  0  0  0  0
 21 22  2  0  0  0  0
 21 26  1  0  0  0  0
 22 23  1  0  0  0  0
 23 29  1  0  0  0  0
 23 24  2  0  0  0  0
 25 24  1  0  0  0  0
 25  1  1  0  0  0  0
 26 25  2  0  0  0  0
 27 21  1  0  0  0  0
 28 22  1  0  0  0  0
M  END
>  <minimizedAffinity>
-5.38534451

$$$$

 OpenBabel03252501263D

 29 31  0  0  0  0  0  0  0  0999 V2000
   39.7700   33.0640   39.3490 C   0  0  0  0  0  0  0  0  0  0  0  0
   38.8620   33.9190   39.9650 C   0  0  0  0  0  0  0  0  0  0  0  0
   37.6690   33.2730   40.0860 C   0  0  0  0  0  0  0  0  0  0  0  0
   37.8390   32.0560   39.5590 N   0  0  0  0  0  0  0  0  0  0  0  0
   39.0990   31.9420   39.1210 N   0  0  0  0  0  0  0  0  0  0  0  0
   39.0550   34.9240   40.2970 H   0  0  0  0  0  0  0  0  0  0  0  0
   36.7080   33.5960   40.5120 H   0  0  0  0  0  0  0  0  0  0  0  0
   37.0230   30.9490   37.0880 F   0  0  0  0  0  0  0  0  0  0  0  0
   36.5140   30.4610   38.2420 C   0  0  0  0  0  0  0  0  0  0  0  0
   36.9190   31.0090   39.4380 C   0  0  0  0  0  0  0  0  0  0  0  0
   36.4020   30.5140   40.6230 C   0  0  0  0  0  0  0  0  0  0  0  0
   35.4880   29.4860   40.6650 C   0  0  0  0  0  0  0  0  0  0  0  0
   35.1040   28.9610   39.4530 C   0  0  0  0  0  0  0  0  0  0  0  0
   35.5950   29.4250   38.2540 C   0  0  0  0  0  0  0  0  0  0  0  0
   36.7040   30.9270   41.5900 H   0  0  0  0  0  0  0  0  0  0  0  0
   35.1000   29.1180   41.6130 H   0  0  0  0  0  0  0  0  0  0  0  0
   34.3850   28.1470   39.4300 H   0  0  0  0  0  0  0  0  0  0  0  0
   35.2000   28.8750   36.9270 C   0  0  0  0  0  2  0  0  0  0  0  0
   33.7000   28.9700   36.7430 C   0  0  0  0  0  2  0  0  0  0  0  0
   33.3180   29.6560   37.5310 H   0  0  0  0  0  0  0  0  0  0  0  0
   42.8220   33.8690   37.4980 C   0  0  0  0  0  0  0  0  0  0  0  0
   43.7710   34.0240   38.5140 C   0  0  0  0  0  0  0  0  0  0  0  0
   43.3470   33.8470   39.8460 C   0  0  0  0  0  0  0  0  0  0  0  0
   42.0410   33.5390   40.0340 N   0  0  0  0  0  0  0  0  0  0  0  0
   41.1520   33.3960   39.0450 C   0  0  0  0  0  0  0  0  0  0  0  0
   41.5360   33.5610   37.7610 N   0  0  0  0  0  0  0  0  0  0  0  0
   43.1640   34.0080   36.4840 H   0  0  0  0  0  0  0  0  0  0  0  0
   44.8110   34.2700   38.3490 H   0  0  0  0  0  0  0  0  0  0  0  0
   43.9990   33.9420   40.7170 H   0  0  0  0  0  0  0  0  0  0  0  0
  1  2  1  0  0  0  0
  2  3  2  0  0  0  0
  2  6  1  0  0  0  0
  3  7  1  0  0  0  0
  4  3  1  0  0  0  0
  5  1  2  0  0  0  0
  5  4  1  0  0  0  0
  8  9  1  0  0  0  0
  9 14  2  0  0  0  0
  9 10  1  0  0  0  0
 10  4  1  0  0  0  0
 10 11  2  0  0  0  0
 11 12  1  0  0  0  0
 11 15  1  0  0  0  0
 12 16  1  0  0  0  0
 13 12  2  0  0  0  0
 14 13  1  0  0  0  0
 17 13  1  0  0  0  0
 18 14  1  0  0  0  0
 19 18  1  0  0  0  0
 19 20  1  0  0  0  0
 21 26  2  0  0  0  0
 21 22  1  0  0  0  0
 22 23  2  0  0  0  0
 23 24  1  0  0  0  0
 23 29  1  0  0  0  0
 25  1  1  0  0  0  0
 25 24  2  0  0  0  0
 26 25  1  0  0  0  0
 27 21  1  0  0  0  0
 28 22  1  0  0  0  0
M  END
>  <minimizedAffinity>
-5.14101696

$$$$

 OpenBabel03252501263D

 29 31  0  0  0  0  0  0  0  0999 V2000
   37.6040   30.7240   40.6750 C   0  0  0  0  0  0  0  0  0  0  0  0
   36.2140   30.7810   40.6820 C   0  0  0  0  0  0  0  0  0  0  0  0
   35.7260   29.5130   40.7710 C   0  0  0  0  0  0  0  0  0  0  0  0
   36.7850   28.6990   40.8150 N   0  0  0  0  0  0  0  0  0  0  0  0
   37.9030   29.4330   40.7580 N   0  0  0  0  0  0  0  0  0  0  0  0
   35.6110   31.6720   40.6280 H   0  0  0  0  0  0  0  0  0  0  0  0
   34.6940   29.1330   40.8030 H   0  0  0  0  0  0  0  0  0  0  0  0
   36.2760   26.9590   38.6450 F   0  0  0  0  0  0  0  0  0  0  0  0
   36.5780   26.4460   39.8590 C   0  0  0  0  0  0  0  0  0  0  0  0
   36.8240   27.3030   40.9080 C   0  0  0  0  0  0  0  0  0  0  0  0
   37.1340   26.7840   42.1530 C   0  0  0  0  0  0  0  0  0  0  0  0
   37.2100   25.4320   42.3990 C   0  0  0  0  0  0  0  0  0  0  0  0
   36.9590   24.6030   41.3300 C   0  0  0  0  0  0  0  0  0  0  0  0
   36.6480   25.0800   40.0770 C   0  0  0  0  0  0  0  0  0  0  0  0
   37.3350   27.4390   43.0060 H   0  0  0  0  0  0  0  0  0  0  0  0
   37.4560   25.0550   43.3890 H   0  0  0  0  0  0  0  0  0  0  0  0
   37.0070   23.5270   41.4700 H   0  0  0  0  0  0  0  0  0  0  0  0
   36.3750   24.2070   38.9020 C   0  0  0  0  0  2  0  0  0  0  0  0
   37.6130   23.4170   38.5330 C   0  0  0  0  0  2  0  0  0  0  0  0
   38.3200   23.5010   39.3880 H   0  0  0  0  0  0  0  0  0  0  0  0
   38.8000   34.1600   40.2920 C   0  0  0  0  0  0  0  0  0  0  0  0
   40.1840   34.0260   40.4380 C   0  0  0  0  0  0  0  0  0  0  0  0
   40.7030   32.7370   40.6700 C   0  0  0  0  0  0  0  0  0  0  0  0
   39.8070   31.7220   40.7340 N   0  0  0  0  0  0  0  0  0  0  0  0
   38.4850   31.8760   40.5900 C   0  0  0  0  0  0  0  0  0  0  0  0
   37.9670   33.1030   40.3670 N   0  0  0  0  0  0  0  0  0  0  0  0
   38.4210   35.1550   40.1150 H   0  0  0  0  0  0  0  0  0  0  0  0
   40.8890   34.8450   40.3860 H   0  0  0  0  0  0  0  0  0  0  0  0
   41.7640   32.5140   40.8000 H   0  0  0  0  0  0  0  0  0  0  0  0
  1  2  1  0  0  0  0
  1  5  2  0  0  0  0
  2  3  2  0  0  0  0
  3  7  1  0  0  0  0
  3  4  1  0  0  0  0
  4 10  1  0  0  0  0
  5  4  1  0  0  0  0
  6  2  1  0  0  0  0
  8  9  1  0  0  0  0
  9 14  2  0  0  0  0
  9 10  1  0  0  0  0
 10 11  2  0  0  0  0
 11 12  1  0  0  0  0
 11 15  1  0  0  0  0
 12 16  1  0  0  0  0
 13 17  1  0  0  0  0
 13 12  2  0  0  0  0
 14 13  1  0  0  0  0
 18 14  1  0  0  0  0
 19 18  1  0  0  0  0
 19 20  1  0  0  0  0
 21 26  2  0  0  0  0
 21 22  1  0  0  0  0
 22 23  2  0  0  0  0
 23 24  1  0  0  0  0
 23 29  1  0  0  0  0
 25  1  1  0  0  0  0
 25 24  2  0  0  0  0
 26 25  1  0  0  0  0
 27 21  1  0  0  0  0
 28 22  1  0  0  0  0
M  END
>  <minimizedAffinity>
-5.05967569

$$$$

 OpenBabel03252501263D

 29 31  0  0  0  0  0  0  0  0999 V2000
   38.2060   27.6430   41.9250 C   0  0  0  0  0  0  0  0  0  0  0  0
   38.4460   28.1900   43.1810 C   0  0  0  0  0  0  0  0  0  0  0  0
   38.5160   29.5440   43.0600 C   0  0  0  0  0  0  0  0  0  0  0  0
   38.3260   29.8220   41.7670 N   0  0  0  0  0  0  0  0  0  0  0  0
   38.1410   28.6780   41.0970 N   0  0  0  0  0  0  0  0  0  0  0  0
   38.5580   27.6470   44.1040 H   0  0  0  0  0  0  0  0  0  0  0  0
   38.6910   30.3320   43.8080 H   0  0  0  0  0  0  0  0  0  0  0  0
   40.5180   31.6080   41.7110 F   0  0  0  0  0  0  0  0  0  0  0  0
   39.3650   31.9430   41.0900 C   0  0  0  0  0  0  0  0  0  0  0  0
   38.3050   31.0650   41.1240 C   0  0  0  0  0  0  0  0  0  0  0  0
   37.1220   31.4010   40.4890 C   0  0  0  0  0  0  0  0  0  0  0  0
   36.9500   32.5890   39.8140 C   0  0  0  0  0  0  0  0  0  0  0  0
   38.0280   33.4430   39.7990 C   0  0  0  0  0  0  0  0  0  0  0  0
   39.2200   33.1450   40.4170 C   0  0  0  0  0  0  0  0  0  0  0  0
   36.2620   30.7250   40.4970 H   0  0  0  0  0  0  0  0  0  0  0  0
   36.0070   32.8240   39.3240 H   0  0  0  0  0  0  0  0  0  0  0  0
   37.9450   34.3940   39.2790 H   0  0  0  0  0  0  0  0  0  0  0  0
   40.4040   34.0490   40.4150 C   0  0  0  0  0  2  0  0  0  0  0  0
   41.1710   33.9100   39.1160 C   0  0  0  0  0  2  0  0  0  0  0  0
   40.5100   33.3660   38.4050 H   0  0  0  0  0  0  0  0  0  0  0  0
   38.8680   24.0470   41.8060 C   0  0  0  0  0  0  0  0  0  0  0  0
   37.7660   23.5500   41.1020 C   0  0  0  0  0  0  0  0  0  0  0  0
   36.7910   24.4690   40.6680 C   0  0  0  0  0  0  0  0  0  0  0  0
   37.0030   25.7730   40.9720 N   0  0  0  0  0  0  0  0  0  0  0  0
   38.0670   26.2240   41.6470 C   0  0  0  0  0  0  0  0  0  0  0  0
   39.0140   25.3600   42.0730 N   0  0  0  0  0  0  0  0  0  0  0  0
   39.6050   23.3280   42.1310 H   0  0  0  0  0  0  0  0  0  0  0  0
   37.6090   22.5070   40.8660 H   0  0  0  0  0  0  0  0  0  0  0  0
   35.8920   24.1960   40.1110 H   0  0  0  0  0  0  0  0  0  0  0  0
  1  2  1  0  0  0  0
  2  6  1  0  0  0  0
  3  2  2  0  0  0  0
  3  7  1  0  0  0  0
  4  3  1  0  0  0  0
  5  4  1  0  0  0  0
  5  1  2  0  0  0  0
  9 10  1  0  0  0  0
  9  8  1  0  0  0  0
 10  4  1  0  0  0  0
 11 15  1  0  0  0  0
 11 10  2  0  0  0  0
 12 11  1  0  0  0  0
 13 12  2  0  0  0  0
 13 14  1  0  0  0  0
 14  9  2  0  0  0  0
 16 12  1  0  0  0  0
 17 13  1  0  0  0  0
 18 14  1  0  0  0  0
 19 18  1  0  0  0  0
 20 19  1  0  0  0  0
 21 26  1  0  0  0  0
 21 27  1  0  0  0  0
 22 21  2  0  0  0  0
 23 24  2  0  0  0  0
 23 22  1  0  0  0  0
 24 25  1  0  0  0  0
 25  1  1  0  0  0  0
 25 26  2  0  0  0  0
 28 22  1  0  0  0  0
 29 23  1  0  0  0  0
M  END
>  <minimizedAffinity>
-5.05829954

$$$$

 OpenBabel03252501263D

 29 31  0  0  0  0  0  0  0  0999 V2000
   38.3830   29.9840   41.5600 C   0  0  0  0  0  0  0  0  0  0  0  0
   38.8120   29.7110   42.8550 C   0  0  0  0  0  0  0  0  0  0  0  0
   38.7990   28.3620   43.0430 C   0  0  0  0  0  0  0  0  0  0  0  0
   38.3740   27.8220   41.8980 N   0  0  0  0  0  0  0  0  0  0  0  0
   38.1280   28.8000   41.0180 N   0  0  0  0  0  0  0  0  0  0  0  0
   39.1080   30.4340   43.5950 H   0  0  0  0  0  0  0  0  0  0  0  0
   39.0630   27.7490   43.9170 H   0  0  0  0  0  0  0  0  0  0  0  0
   39.9200   26.4250   39.9860 F   0  0  0  0  0  0  0  0  0  0  0  0
   38.9300   25.7820   40.6450 C   0  0  0  0  0  0  0  0  0  0  0  0
   38.1840   26.4730   41.5740 C   0  0  0  0  0  0  0  0  0  0  0  0
   37.1700   25.8210   42.2530 C   0  0  0  0  0  0  0  0  0  0  0  0
   36.8640   24.4950   42.0430 C   0  0  0  0  0  0  0  0  0  0  0  0
   37.6280   23.8350   41.1090 C   0  0  0  0  0  0  0  0  0  0  0  0
   38.6450   24.4470   40.4140 C   0  0  0  0  0  0  0  0  0  0  0  0
   36.5600   26.3410   42.9980 H   0  0  0  0  0  0  0  0  0  0  0  0
   36.0600   24.0110   42.5940 H   0  0  0  0  0  0  0  0  0  0  0  0
   37.4280   22.7860   40.9050 H   0  0  0  0  0  0  0  0  0  0  0  0
   39.4900   23.7560   39.3990 C   0  0  0  0  0  2  0  0  0  0  0  0
   38.8300   22.4680   38.9540 C   0  0  0  0  0  2  0  0  0  0  0  0
   37.7750   22.5030   39.3050 H   0  0  0  0  0  0  0  0  0  0  0  0
   39.0240   33.4980   40.7700 C   0  0  0  0  0  0  0  0  0  0  0  0
   37.9950   33.8090   39.8760 C   0  0  0  0  0  0  0  0  0  0  0  0
   37.0750   32.7930   39.5480 C   0  0  0  0  0  0  0  0  0  0  0  0
   37.2670   31.5850   40.1320 N   0  0  0  0  0  0  0  0  0  0  0  0
   38.2600   31.3120   40.9850 C   0  0  0  0  0  0  0  0  0  0  0  0
   39.1530   32.2710   41.3130 N   0  0  0  0  0  0  0  0  0  0  0  0
   39.7190   34.2880   41.0100 H   0  0  0  0  0  0  0  0  0  0  0  0
   37.8530   34.7770   39.4170 H   0  0  0  0  0  0  0  0  0  0  0  0
   36.2340   32.9220   38.8630 H   0  0  0  0  0  0  0  0  0  0  0  0
  1  2  1  0  0  0  0
  2  3  2  0  0  0  0
  2  6  1  0  0  0  0
  3  7  1  0  0  0  0
  4  3  1  0  0  0  0
  5  1  2  0  0  0  0
  5  4  1  0  0  0  0
  8  9  1  0  0  0  0
  9 10  1  0  0  0  0
 10  4  1  0  0  0  0
 10 11  2  0  0  0  0
 11 15  1  0  0  0  0
 12 11  1  0  0  0  0
 12 16  1  0  0  0  0
 13 12  2  0  0  0  0
 14  9  2  0  0  0  0
 14 13  1  0  0  0  0
 17 13  1  0  0  0  0
 18 14  1  0  0  0  0
 19 20  1  0  0  0  0
 19 18  1  0  0  0  0
 21 27  1  0  0  0  0
 21 26  1  0  0  0  0
 22 21  2  0  0  0  0
 23 22  1  0  0  0  0
 23 24  2  0  0  0  0
 24 25  1  0  0  0  0
 25 26  2  0  0  0  0
 25  1  1  0  0  0  0
 28 22  1  0  0  0  0
 29 23  1  0  0  0  0
M  END
>  <minimizedAffinity>
-5.04222441

$$$$

 OpenBabel03252501263D

 29 31  0  0  0  0  0  0  0  0999 V2000
   37.4020   26.2390   41.5510 C   0  0  0  0  0  0  0  0  0  0  0  0
   36.9180   26.5610   42.8160 C   0  0  0  0  0  0  0  0  0  0  0  0
   37.1380   27.8850   43.0430 C   0  0  0  0  0  0  0  0  0  0  0  0
   37.7410   28.3640   41.9510 N   0  0  0  0  0  0  0  0  0  0  0  0
   37.8940   27.3720   41.0650 N   0  0  0  0  0  0  0  0  0  0  0  0
   36.4460   25.8860   43.5090 H   0  0  0  0  0  0  0  0  0  0  0  0
   36.9080   28.5210   43.9100 H   0  0  0  0  0  0  0  0  0  0  0  0
   36.3360   30.1930   40.3140 F   0  0  0  0  0  0  0  0  0  0  0  0
   37.5030   30.5660   40.8860 C   0  0  0  0  0  0  0  0  0  0  0  0
   38.1770   29.6670   41.6810 C   0  0  0  0  0  0  0  0  0  0  0  0
   39.3710   30.0420   42.2710 C   0  0  0  0  0  0  0  0  0  0  0  0
   39.9280   31.2900   42.1000 C   0  0  0  0  0  0  0  0  0  0  0  0
   39.2290   32.1640   41.3000 C   0  0  0  0  0  0  0  0  0  0  0  0
   38.0390   31.8290   40.6970 C   0  0  0  0  0  0  0  0  0  0  0  0
   39.9310   29.3510   42.9090 H   0  0  0  0  0  0  0  0  0  0  0  0
   40.8680   31.5550   42.5780 H   0  0  0  0  0  0  0  0  0  0  0  0
   39.6230   33.1630   41.1330 H   0  0  0  0  0  0  0  0  0  0  0  0
   37.2590   32.7550   39.8290 C   0  0  0  0  0  2  0  0  0  0  0  0
   37.4350   32.3840   38.3710 C   0  0  0  0  0  2  0  0  0  0  0  0
   37.8870   31.3690   38.3450 H   0  0  0  0  0  0  0  0  0  0  0  0
   36.2300   23.3120   39.6970 C   0  0  0  0  0  0  0  0  0  0  0  0
   37.2930   22.4130   39.8290 C   0  0  0  0  0  0  0  0  0  0  0  0
   38.4200   22.8270   40.5660 C   0  0  0  0  0  0  0  0  0  0  0  0
   38.3810   24.0760   41.0900 N   0  0  0  0  0  0  0  0  0  0  0  0
   37.3500   24.9180   40.9500 C   0  0  0  0  0  0  0  0  0  0  0  0
   36.2600   24.5420   40.2480 N   0  0  0  0  0  0  0  0  0  0  0  0
   35.3740   22.9780   39.1290 H   0  0  0  0  0  0  0  0  0  0  0  0
   37.3120   21.4190   39.4050 H   0  0  0  0  0  0  0  0  0  0  0  0
   39.3060   22.2110   40.7340 H   0  0  0  0  0  0  0  0  0  0  0  0
  1  2  1  0  0  0  0
  2  3  2  0  0  0  0
  2  6  1  0  0  0  0
  3  7  1  0  0  0  0
  4  3  1  0  0  0  0
  5  1  2  0  0  0  0
  5  4  1  0  0  0  0
  8  9  1  0  0  0  0
  9 10  1  0  0  0  0
 10  4  1  0  0  0  0
 10 11  2  0  0  0  0
 11 15  1  0  0  0  0
 12 11  1  0  0  0  0
 12 16  1  0  0  0  0
 13 12  2  0  0  0  0
 14  9  2  0  0  0  0
 14 13  1  0  0  0  0
 17 13  1  0  0  0  0
 18 14  1  0  0  0  0
 19 18  1  0  0  0  0
 20 19  1  0  0  0  0
 21 22  2  0  0  0  0
 21 26  1  0  0  0  0
 22 23  1  0  0  0  0
 23 29  1  0  0  0  0
 23 24  2  0  0  0  0
 25 24  1  0  0  0  0
 25  1  1  0  0  0  0
 26 25  2  0  0  0  0
 27 21  1  0  0  0  0
 28 22  1  0  0  0  0
M  END
>  <minimizedAffinity>
-4.84970236

$$$$

 OpenBabel03252501263D

 29 31  0  0  0  0  0  0  0  0999 V2000
   36.6860   27.5880   40.6910 C   0  0  0  0  0  0  0  0  0  0  0  0
   36.5070   28.8950   41.1310 C   0  0  0  0  0  0  0  0  0  0  0  0
   35.7080   29.5480   40.2420 C   0  0  0  0  0  0  0  0  0  0  0  0
   35.4060   28.6680   39.2830 N   0  0  0  0  0  0  0  0  0  0  0  0
   35.9950   27.4990   39.5620 N   0  0  0  0  0  0  0  0  0  0  0  0
   36.9230   29.3320   42.0230 H   0  0  0  0  0  0  0  0  0  0  0  0
   35.3340   30.5830   40.2260 H   0  0  0  0  0  0  0  0  0  0  0  0
   32.6650   29.3640   39.3520 F   0  0  0  0  0  0  0  0  0  0  0  0
   33.2800   29.1800   38.1620 C   0  0  0  0  0  0  0  0  0  0  0  0
   34.6140   28.8420   38.1420 C   0  0  0  0  0  0  0  0  0  0  0  0
   35.2510   28.6520   36.9270 C   0  0  0  0  0  0  0  0  0  0  0  0
   34.6050   28.7880   35.7190 C   0  0  0  0  0  0  0  0  0  0  0  0
   33.2730   29.1260   35.7740 C   0  0  0  0  0  0  0  0  0  0  0  0
   32.6060   29.3230   36.9610 C   0  0  0  0  0  0  0  0  0  0  0  0
   36.3100   28.3840   36.8770 H   0  0  0  0  0  0  0  0  0  0  0  0
   35.1330   28.6330   34.7800 H   0  0  0  0  0  0  0  0  0  0  0  0
   32.7160   29.2470   34.8490 H   0  0  0  0  0  0  0  0  0  0  0  0
   31.1650   29.6930   37.0520 C   0  0  0  0  0  2  0  0  0  0  0  0
   30.9190   31.0220   36.3680 C   0  0  0  0  0  2  0  0  0  0  0  0
   31.8210   31.2470   35.7580 H   0  0  0  0  0  0  0  0  0  0  0  0
   39.3880   25.9700   42.5540 C   0  0  0  0  0  0  0  0  0  0  0  0
   38.9470   24.6480   42.6570 C   0  0  0  0  0  0  0  0  0  0  0  0
   37.7070   24.3170   42.0760 C   0  0  0  0  0  0  0  0  0  0  0  0
   37.0360   25.3210   41.4600 N   0  0  0  0  0  0  0  0  0  0  0  0
   37.4800   26.5800   41.3740 C   0  0  0  0  0  0  0  0  0  0  0  0
   38.6660   26.9190   41.9240 N   0  0  0  0  0  0  0  0  0  0  0  0
   40.3410   26.2050   43.0040 H   0  0  0  0  0  0  0  0  0  0  0  0
   39.4930   23.8560   43.1520 H   0  0  0  0  0  0  0  0  0  0  0  0
   37.2640   23.3190   42.0950 H   0  0  0  0  0  0  0  0  0  0  0  0
  1  2  1  0  0  0  0
  1 25  1  0  0  0  0
  2  6  1  0  0  0  0
  3  2  2  0  0  0  0
  4  5  1  0  0  0  0
  4  3  1  0  0  0  0
  5  1  2  0  0  0  0
  7  3  1  0  0  0  0
  9  8  1  0  0  0  0
 10  9  1  0  0  0  0
 10  4  1  0  0  0  0
 11 10  2  0  0  0  0
 12 13  2  0  0  0  0
 12 11  1  0  0  0  0
 13 14  1  0  0  0  0
 14 18  1  0  0  0  0
 14  9  2  0  0  0  0
 15 11  1  0  0  0  0
 16 12  1  0  0  0  0
 17 13  1  0  0  0  0
 19 18  1  0  0  0  0
 20 19  1  0  0  0  0
 21 22  1  0  0  0  0
 21 27  1  0  0  0  0
 22 28  1  0  0  0  0
 23 29  1  0  0  0  0
 23 22  2  0  0  0  0
 24 23  1  0  0  0  0
 25 24  2  0  0  0  0
 25 26  1  0  0  0  0
 26 21  2  0  0  0  0
M  END
>  <minimizedAffinity>
-4.76179886

$$$$

 OpenBabel03252501263D

 29 31  0  0  0  0  0  0  0  0999 V2000
   38.0010   29.7400   40.8260 C   0  0  0  0  0  0  0  0  0  0  0  0
   36.9290   29.7650   41.7130 C   0  0  0  0  0  0  0  0  0  0  0  0
   36.5370   28.4850   41.9590 C   0  0  0  0  0  0  0  0  0  0  0  0
   37.3440   27.6950   41.2430 N   0  0  0  0  0  0  0  0  0  0  0  0
   38.2150   28.4560   40.5700 N   0  0  0  0  0  0  0  0  0  0  0  0
   36.4750   30.6420   42.1420 H   0  0  0  0  0  0  0  0  0  0  0  0
   35.7360   28.0800   42.5940 H   0  0  0  0  0  0  0  0  0  0  0  0
   36.0860   26.2440   39.1670 F   0  0  0  0  0  0  0  0  0  0  0  0
   36.7470   25.5810   40.1420 C   0  0  0  0  0  0  0  0  0  0  0  0
   37.3560   26.2990   41.1470 C   0  0  0  0  0  0  0  0  0  0  0  0
   38.0360   25.6260   42.1480 C   0  0  0  0  0  0  0  0  0  0  0  0
   38.1350   24.2540   42.1890 C   0  0  0  0  0  0  0  0  0  0  0  0
   37.5160   23.5680   41.1700 C   0  0  0  0  0  0  0  0  0  0  0  0
   36.8320   24.1990   40.1570 C   0  0  0  0  0  0  0  0  0  0  0  0
   38.5300   26.1670   42.9600 H   0  0  0  0  0  0  0  0  0  0  0  0
   38.6780   23.7550   42.9890 H   0  0  0  0  0  0  0  0  0  0  0  0
   37.5650   22.4820   41.1540 H   0  0  0  0  0  0  0  0  0  0  0  0
   36.1550   23.4820   39.0400 C   0  0  0  0  0  2  0  0  0  0  0  0
   34.7480   23.0920   39.4410 C   0  0  0  0  0  2  0  0  0  0  0  0
   34.5000   23.6640   40.3620 H   0  0  0  0  0  0  0  0  0  0  0  0
   40.1610   31.9020   38.8150 C   0  0  0  0  0  0  0  0  0  0  0  0
   39.9830   33.1560   39.4050 C   0  0  0  0  0  0  0  0  0  0  0  0
   39.1100   33.2510   40.5070 C   0  0  0  0  0  0  0  0  0  0  0  0
   38.5070   32.1040   40.9060 N   0  0  0  0  0  0  0  0  0  0  0  0
   38.6940   30.9140   40.3240 C   0  0  0  0  0  0  0  0  0  0  0  0
   39.5270   30.8010   39.2670 N   0  0  0  0  0  0  0  0  0  0  0  0
   40.8340   31.8480   37.9720 H   0  0  0  0  0  0  0  0  0  0  0  0
   40.4710   34.0640   39.0760 H   0  0  0  0  0  0  0  0  0  0  0  0
   38.8950   34.1760   41.0450 H   0  0  0  0  0  0  0  0  0  0  0  0
  1  2  1  0  0  0  0
  2  3  2  0  0  0  0
  2  6  1  0  0  0  0
  3  7  1  0  0  0  0
  4  3  1  0  0  0  0
  5  1  2  0  0  0  0
  5  4  1  0  0  0  0
  8  9  1  0  0  0  0
  9 14  2  0  0  0  0
  9 10  1  0  0  0  0
 10  4  1  0  0  0  0
 10 11  2  0  0  0  0
 11 12  1  0  0  0  0
 11 15  1  0  0  0  0
 12 16  1  0  0  0  0
 13 12  2  0  0  0  0
 14 13  1  0  0  0  0
 17 13  1  0  0  0  0
 18 19  1  0  0  0  0
 18 14  1  0  0  0  0
 19 20  1  0  0  0  0
 21 26  2  0  0  0  0
 21 22  1  0  0  0  0
 22 23  2  0  0  0  0
 23 24  1  0  0  0  0
 23 29  1  0  0  0  0
 25  1  1  0  0  0  0
 25 24  2  0  0  0  0
 26 25  1  0  0  0  0
 27 21  1  0  0  0  0
 28 22  1  0  0  0  0
M  END
>  <minimizedAffinity>
-4.75350094

$$$$
