
 OpenBabel03242516003D

 22 23  0  0  0  0  0  0  0  0999 V2000
   44.7670   33.1930   41.1910 Cl  0  0  0  0  0  0  0  0  0  0  0  0
   46.3030   34.0160   41.0140 C   0  0  0  0  0  0  0  0  0  0  0  0
   46.8310   34.7590   42.0320 C   0  0  0  0  0  0  0  0  0  0  0  0
   48.0450   35.3620   41.7890 C   0  0  0  0  0  0  0  0  0  0  0  0
   48.7050   35.2410   40.6050 C   0  0  0  0  0  0  0  0  0  0  0  0
   48.1650   34.4910   39.5890 C   0  0  0  0  0  0  0  0  0  0  0  0
   46.9560   33.8810   39.8100 C   0  0  0  0  0  0  0  0  0  0  0  0
   48.4830   35.9600   42.5830 H   0  0  0  0  0  0  0  0  0  0  0  0
   49.6550   35.7470   40.4930 H   0  0  0  0  0  0  0  0  0  0  0  0
   48.7090   34.4050   38.6460 H   0  0  0  0  0  0  0  0  0  0  0  0
   44.4800   35.9550   44.7420 C   0  0  0  0  0  0  0  0  0  0  0  0
   45.1770   35.8820   43.5380 C   0  0  0  0  0  0  0  0  0  0  0  0
   46.0880   34.8620   43.2840 C   0  0  0  0  0  0  0  0  0  0  0  0
   46.2590   33.9440   44.2700 N   0  0  0  0  0  0  0  0  0  0  0  0
   45.5800   34.0270   45.4270 C   0  0  0  0  0  0  0  0  0  0  0  0
   44.6950   35.0180   45.6750 N   0  0  0  0  0  0  0  0  0  0  0  0
   43.8030   36.8150   44.7880 H   0  0  0  0  0  0  0  0  0  0  0  0
   45.0760   36.5950   42.7050 H   0  0  0  0  0  0  0  0  0  0  0  0
   45.7740   33.2660   46.1480 H   0  0  0  0  0  0  0  0  0  0  0  0
   46.3540   33.0610   38.7180 C   0  0  0  0  0  0  0  0  0  0  0  0
   46.8670   33.4000   37.3510 C   0  0  0  0  0  0  0  0  0  0  0  0
   46.0920   33.1630   36.5860 H   0  0  0  0  0  0  0  0  0  0  0  0
  2  1  1  0  0  0  0
  2  3  1  0  0  0  0
  3 13  1  0  0  0  0
  4  3  2  0  0  0  0
  4  8  1  0  0  0  0
  5  4  1  0  0  0  0
  6  7  1  0  0  0  0
  6  5  2  0  0  0  0
  7  2  2  0  0  0  0
  9  5  1  0  0  0  0
 10  6  1  0  0  0  0
 11 17  1  0  0  0  0
 11 16  1  0  0  0  0
 12 11  2  0  0  0  0
 13 12  1  0  0  0  0
 13 14  2  0  0  0  0
 14 15  1  0  0  0  0
 15 16  2  0  0  0  0
 15 19  1  0  0  0  0
 18 12  1  0  0  0  0
 20  7  1  0  0  0  0
 21 20  1  0  0  0  0
 22 21  1  0  0  0  0
M  END
>  <minimizedAffinity>
-5.22456264

>  <minimizedRMSD>
0.166168585

$$$$
