
 OpenBabel03252505363D

 27 28  0  0  0  0  0  0  0  0999 V2000
   46.6500   34.7350   42.2500 C   0  0  0  0  0  0  0  0  0  0  0  0
   47.9190   35.2710   42.1840 C   0  0  0  0  0  0  0  0  0  0  0  0
   48.6990   35.2150   41.0250 C   0  0  0  0  0  0  0  0  0  0  0  0
   48.1790   34.6010   39.9040 C   0  0  0  0  0  0  0  0  0  0  0  0
   46.9150   34.0660   39.9660 C   0  0  0  0  0  0  0  0  0  0  0  0
   46.1610   34.1340   41.1250 C   0  0  0  0  0  0  0  0  0  0  0  0
   48.3420   35.7600   43.0540 H   0  0  0  0  0  0  0  0  0  0  0  0
   49.6960   35.6690   41.0530 H   0  0  0  0  0  0  0  0  0  0  0  0
   48.7810   34.5500   38.9970 H   0  0  0  0  0  0  0  0  0  0  0  0
   46.4640   33.5740   39.1000 H   0  0  0  0  0  0  0  0  0  0  0  0
   44.4810   35.8780   45.0890 C   0  0  0  0  0  0  0  0  0  0  0  0
   45.1190   35.9100   43.8220 C   0  0  0  0  0  0  0  0  0  0  0  0
   45.9410   34.8500   43.5040 C   0  0  0  0  0  0  0  0  0  0  0  0
   46.1010   33.8450   44.4050 N   0  0  0  0  0  0  0  0  0  0  0  0
   45.4710   33.8580   45.6140 C   0  0  0  0  0  0  0  0  0  0  0  0
   44.6610   34.8790   45.9460 N   0  0  0  0  0  0  0  0  0  0  0  0
   45.6730   32.8120   46.5560 N   0  0  0  0  0  0  0  0  0  0  0  0
   43.8130   36.6820   45.4090 H   0  0  0  0  0  0  0  0  0  0  0  0
   45.1220   31.9280   46.3810 H   0  0  0  0  0  0  0  0  0  0  0  0
   46.3640   33.1420   47.2830 H   0  0  0  0  0  0  0  0  0  0  0  0
   44.9630   37.0910   42.9470 C   0  0  0  0  0  0  0  0  0  0  0  0
   45.3390   38.3240   43.7110 C   0  0  0  0  0  0  0  0  0  0  0  0
   46.4430   38.5370   43.6400 H   0  0  0  0  0  0  0  0  0  0  0  0
   44.7960   33.5400   41.1860 C   0  0  0  0  0  0  0  0  0  0  0  0
   44.6140   32.7660   40.0430 F   0  0  0  0  0  0  0  0  0  0  0  0
   43.8600   34.5520   41.2280 F   0  0  0  0  0  0  0  0  0  0  0  0
   44.5730   32.7590   42.2870 F   0  0  0  0  0  0  0  0  0  0  0  0
  1 13  1  0  0  0  0
  2  1  1  0  0  0  0
  2  7  1  0  0  0  0
  3  8  1  0  0  0  0
  3  2  2  0  0  0  0
  4  5  2  0  0  0  0
  4  3  1  0  0  0  0
  5  6  1  0  0  0  0
  6 24  1  0  0  0  0
  6  1  2  0  0  0  0
  9  4  1  0  0  0  0
 10  5  1  0  0  0  0
 11 18  1  0  0  0  0
 11 16  1  0  0  0  0
 12 11  2  0  0  0  0
 13 12  1  0  0  0  0
 13 14  2  0  0  0  0
 14 15  1  0  0  0  0
 15 16  2  0  0  0  0
 15 17  1  0  0  0  0
 17 20  1  0  0  0  0
 19 17  1  0  0  0  0
 21 22  1  0  0  0  0
 21 12  1  0  0  0  0
 23 22  1  0  0  0  0
 24 26  1  0  0  0  0
 24 27  1  0  0  0  0
 25 24  1  0  0  0  0
M  END
>  <minimizedAffinity>
-5.31312513

>  <minimizedRMSD>
0.356434196

$$$$
