
 OpenBabel03252508163D

 31 33  0  0  1  0  0  0  0  0999 V2000
   39.2440   26.8290   43.5800 C   0  0  0  0  0  0  0  0  0  0  0  0
   38.2070   26.5210   43.8510 H   0  0  0  0  0  0  0  0  0  0  0  0
   39.8500   27.1080   44.4470 H   0  0  0  0  0  0  0  0  0  0  0  0
   39.8520   25.7340   42.7380 C   0  0  1  0  0  0  0  0  0  0  0  0
   39.7770   24.3520   43.2780 C   0  0  0  0  0  0  0  0  0  0  0  0
   38.9750   24.7100   42.1230 C   0  0  1  0  0  0  0  0  0  0  0  0
   40.7140   26.0380   42.0970 H   0  0  0  0  0  0  0  0  0  0  0  0
   39.2150   24.2230   44.2400 H   0  0  0  0  0  0  0  0  0  0  0  0
   40.6300   23.6600   43.1930 H   0  0  0  0  0  0  0  0  0  0  0  0
   39.3240   24.2400   41.1520 H   0  0  0  0  0  0  0  0  0  0  0  0
   37.5150   24.9490   42.1490 C   0  0  0  0  0  0  0  0  0  0  0  0
   36.7060   24.1010   41.1320 C   0  0  0  0  0  0  0  0  0  0  0  0
   36.9010   25.5440   40.8610 C   0  0  0  0  0  0  0  0  0  0  0  0
   37.0270   25.1900   43.0950 H   0  0  0  0  0  0  0  0  0  0  0  0
   35.7100   23.7560   41.4760 H   0  0  0  0  0  0  0  0  0  0  0  0
   37.2640   23.3990   40.4960 H   0  0  0  0  0  0  0  0  0  0  0  0
   37.5870   25.8560   40.0530 H   0  0  0  0  0  0  0  0  0  0  0  0
   36.0310   26.2070   41.0420 H   0  0  0  0  0  0  0  0  0  0  0  0
   37.9280   28.6160   42.7450 C   0  0  0  0  0  3  0  0  0  0  0  0
   39.0910   28.0950   42.7520 C   0  0  0  0  0  3  0  0  0  0  0  0
   36.3370   31.2130   40.6800 C   0  0  0  0  0  0  0  0  0  0  0  0
   37.3780   32.0990   40.4320 C   0  0  0  0  0  0  0  0  0  0  0  0
   38.5920   31.8060   40.9790 C   0  0  0  0  0  0  0  0  0  0  0  0
   38.7180   30.6810   41.7230 N   0  0  0  0  0  0  0  0  0  0  0  0
   37.7110   29.8250   41.9600 C   0  0  0  0  0  0  0  0  0  0  0  0
   36.5300   30.1200   41.4230 N   0  0  0  0  0  0  0  0  0  0  0  0
   35.3850   31.4690   40.2350 H   0  0  0  0  0  0  0  0  0  0  0  0
   37.3140   33.0060   39.8430 H   0  0  0  0  0  0  0  0  0  0  0  0
   39.8040   32.6750   40.7930 C   0  0  0  0  0  2  0  0  0  0  0  0
   39.2460   34.0410   40.3940 C   0  0  0  0  0  2  0  0  0  0  0  0
   38.3970   33.8970   39.6640 H   0  0  0  0  0  0  0  0  0  0  0  0
  1  2  1  0  0  0  0
  1  3  1  0  0  0  0
  4  7  1  6  0  0  0
  4  5  1  0  0  0  0
  4  1  1  0  0  0  0
  5  8  1  0  0  0  0
  6 10  1  6  0  0  0
  6 11  1  0  0  0  0
  6  4  1  0  0  0  0
  6  5  1  0  0  0  0
  9  5  1  0  0  0  0
 11 14  1  0  0  0  0
 12 15  1  0  0  0  0
 12 11  1  0  0  0  0
 13 18  1  0  0  0  0
 13 12  1  0  0  0  0
 13 11  1  0  0  0  0
 16 12  1  0  0  0  0
 17 13  1  0  0  0  0
 19 20  2  0  0  0  0
 20  1  1  0  0  0  0
 21 26  1  0  0  0  0
 22 21  2  0  0  0  0
 22 23  1  0  0  0  0
 23 24  2  0  0  0  0
 24 25  1  0  0  0  0
 25 19  1  0  0  0  0
 26 25  2  0  0  0  0
 27 21  1  0  0  0  0
 28 22  1  0  0  0  0
 29 23  1  0  0  0  0
 30 29  1  0  0  0  0
 31 30  1  0  0  0  0
M  END
>  <minimizedAffinity>
-4.79816055

$$$$

 OpenBabel03252508163D

 31 33  0  0  1  0  0  0  0  0999 V2000
   38.8040   28.2630   43.3420 C   0  0  0  0  0  0  0  0  0  0  0  0
   37.7370   27.9400   43.3050 H   0  0  0  0  0  0  0  0  0  0  0  0
   39.1080   28.6240   44.3290 H   0  0  0  0  0  0  0  0  0  0  0  0
   39.6540   27.1310   42.8190 C   0  0  1  0  0  0  0  0  0  0  0  0
   39.7700   25.9250   43.6790 C   0  0  0  0  0  0  0  0  0  0  0  0
   39.0150   25.8480   42.4420 C   0  0  1  0  0  0  0  0  0  0  0  0
   40.5020   27.4280   42.1560 H   0  0  0  0  0  0  0  0  0  0  0  0
   39.1610   25.9250   44.6210 H   0  0  0  0  0  0  0  0  0  0  0  0
   40.7310   25.4000   43.7990 H   0  0  0  0  0  0  0  0  0  0  0  0
   39.5150   25.2350   41.6310 H   0  0  0  0  0  0  0  0  0  0  0  0
   37.5380   25.8150   42.3540 C   0  0  0  0  0  0  0  0  0  0  0  0
   36.9620   24.5490   41.6650 C   0  0  0  0  0  0  0  0  0  0  0  0
   36.9430   25.8330   40.9280 C   0  0  0  0  0  0  0  0  0  0  0  0
   36.9420   26.2620   43.1510 H   0  0  0  0  0  0  0  0  0  0  0  0
   36.0110   24.1630   42.0840 H   0  0  0  0  0  0  0  0  0  0  0  0
   37.6770   23.7900   41.3170 H   0  0  0  0  0  0  0  0  0  0  0  0
   37.6320   25.9800   40.0770 H   0  0  0  0  0  0  0  0  0  0  0  0
   35.9640   26.3500   40.8550 H   0  0  0  0  0  0  0  0  0  0  0  0
   39.9010   30.2290   42.5980 C   0  0  0  0  0  3  0  0  0  0  0  0
   38.9020   29.4590   42.4090 C   0  0  0  0  0  3  0  0  0  0  0  0
   41.3560   33.0720   40.7700 C   0  0  0  0  0  0  0  0  0  0  0  0
   40.2500   33.6570   40.1660 C   0  0  0  0  0  0  0  0  0  0  0  0
   39.0380   33.0700   40.3800 C   0  0  0  0  0  0  0  0  0  0  0  0
   38.9760   31.9650   41.1600 N   0  0  0  0  0  0  0  0  0  0  0  0
   40.0460   31.4020   41.7450 C   0  0  0  0  0  0  0  0  0  0  0  0
   41.2250   31.9800   41.5290 N   0  0  0  0  0  0  0  0  0  0  0  0
   42.3050   33.5560   40.5840 H   0  0  0  0  0  0  0  0  0  0  0  0
   40.2620   34.5380   39.5370 H   0  0  0  0  0  0  0  0  0  0  0  0
   37.7600   33.5950   39.7890 C   0  0  0  0  0  2  0  0  0  0  0  0
   37.0240   32.3510   39.2870 C   0  0  0  0  0  2  0  0  0  0  0  0
   37.7640   31.6560   38.7930 H   0  0  0  0  0  0  0  0  0  0  0  0
  1  3  1  0  0  0  0
  2  1  1  0  0  0  0
  4  7  1  6  0  0  0
  4  1  1  0  0  0  0
  4  5  1  0  0  0  0
  5  9  1  0  0  0  0
  5  8  1  0  0  0  0
  6 10  1  6  0  0  0
  6  4  1  0  0  0  0
  6  5  1  0  0  0  0
 11  6  1  0  0  0  0
 11 14  1  0  0  0  0
 12 15  1  0  0  0  0
 12 11  1  0  0  0  0
 13 12  1  0  0  0  0
 13 11  1  0  0  0  0
 16 12  1  0  0  0  0
 17 13  1  0  0  0  0
 18 13  1  0  0  0  0
 20 19  2  0  0  0  0
 20  1  1  0  0  0  0
 21 26  1  0  0  0  0
 22 23  1  0  0  0  0
 22 21  2  0  0  0  0
 23 24  2  0  0  0  0
 24 25  1  0  0  0  0
 25 19  1  0  0  0  0
 26 25  2  0  0  0  0
 27 21  1  0  0  0  0
 28 22  1  0  0  0  0
 29 23  1  0  0  0  0
 30 29  1  0  0  0  0
 31 30  1  0  0  0  0
M  END
>  <minimizedAffinity>
-4.54707813

$$$$

 OpenBabel03252508163D

 31 33  0  0  1  0  0  0  0  0999 V2000
   36.7070   31.2360   40.8880 C   0  0  0  0  0  0  0  0  0  0  0  0
   37.1820   31.8690   41.6730 H   0  0  0  0  0  0  0  0  0  0  0  0
   35.6140   31.2380   40.9390 H   0  0  0  0  0  0  0  0  0  0  0  0
   37.2550   31.6620   39.5480 C   0  0  1  0  0  0  0  0  0  0  0  0
   37.0950   33.0930   39.1810 C   0  0  0  0  0  0  0  0  0  0  0  0
   38.4170   32.5810   39.4910 C   0  0  1  0  0  0  0  0  0  0  0  0
   37.2570   30.8780   38.7530 H   0  0  0  0  0  0  0  0  0  0  0  0
   36.6370   33.7580   39.9600 H   0  0  0  0  0  0  0  0  0  0  0  0
   36.8200   33.3920   38.1570 H   0  0  0  0  0  0  0  0  0  0  0  0
   39.1040   32.4970   38.5930 H   0  0  0  0  0  0  0  0  0  0  0  0
   39.1510   32.8410   40.7490 C   0  0  0  0  0  0  0  0  0  0  0  0
   40.5630   33.4550   40.5540 C   0  0  0  0  0  0  0  0  0  0  0  0
   40.4530   32.0340   40.9540 C   0  0  0  0  0  0  0  0  0  0  0  0
   38.5990   33.1370   41.6420 H   0  0  0  0  0  0  0  0  0  0  0  0
   40.8750   34.1980   41.3160 H   0  0  0  0  0  0  0  0  0  0  0  0
   40.8940   33.6550   39.5250 H   0  0  0  0  0  0  0  0  0  0  0  0
   40.6980   31.2440   40.2210 H   0  0  0  0  0  0  0  0  0  0  0  0
   40.6730   31.7960   42.0150 H   0  0  0  0  0  0  0  0  0  0  0  0
   37.8780   29.6630   42.2220 C   0  0  0  0  0  3  0  0  0  0  0  0
   37.1370   29.8110   41.1940 C   0  0  0  0  0  3  0  0  0  0  0  0
   39.9170   26.8760   43.4910 C   0  0  0  0  0  0  0  0  0  0  0  0
   39.1790   25.7560   43.1300 C   0  0  0  0  0  0  0  0  0  0  0  0
   38.0020   25.9680   42.4760 C   0  0  0  0  0  0  0  0  0  0  0  0
   37.6200   27.2410   42.2150 N   0  0  0  0  0  0  0  0  0  0  0  0
   38.3360   28.3230   42.5630 C   0  0  0  0  0  0  0  0  0  0  0  0
   39.4830   28.1070   43.2020 N   0  0  0  0  0  0  0  0  0  0  0  0
   40.8470   26.6810   44.0090 H   0  0  0  0  0  0  0  0  0  0  0  0
   39.4530   24.7270   43.3220 H   0  0  0  0  0  0  0  0  0  0  0  0
   37.1030   24.8510   42.0270 C   0  0  0  0  0  2  0  0  0  0  0  0
   36.8520   25.1260   40.5440 C   0  0  0  0  0  2  0  0  0  0  0  0
   36.6850   26.2320   40.3940 H   0  0  0  0  0  0  0  0  0  0  0  0
  1  3  1  0  0  0  0
  1 20  1  0  0  0  0
  1  2  1  0  0  0  0
  4  7  1  6  0  0  0
  4  1  1  0  0  0  0
  5  6  1  0  0  0  0
  5  4  1  0  0  0  0
  5  8  1  0  0  0  0
  6 10  1  6  0  0  0
  6  4  1  0  0  0  0
  6 11  1  0  0  0  0
  9  5  1  0  0  0  0
 11 13  1  0  0  0  0
 11 14  1  0  0  0  0
 12 11  1  0  0  0  0
 12 13  1  0  0  0  0
 12 15  1  0  0  0  0
 13 18  1  0  0  0  0
 16 12  1  0  0  0  0
 17 13  1  0  0  0  0
 19 25  1  0  0  0  0
 20 19  2  0  0  0  0
 21 27  1  0  0  0  0
 22 28  1  0  0  0  0
 22 21  2  0  0  0  0
 23 22  1  0  0  0  0
 24 23  2  0  0  0  0
 24 25  1  0  0  0  0
 25 26  2  0  0  0  0
 26 21  1  0  0  0  0
 29 23  1  0  0  0  0
 30 29  1  0  0  0  0
 31 30  1  0  0  0  0
M  END
>  <minimizedAffinity>
-4.3893671

$$$$

 OpenBabel03252508163D

 31 33  0  0  1  0  0  0  0  0999 V2000
   38.1750   27.3210   43.5200 C   0  0  0  0  0  0  0  0  0  0  0  0
   37.3760   26.5570   43.6710 H   0  0  0  0  0  0  0  0  0  0  0  0
   38.4110   27.8800   44.4310 H   0  0  0  0  0  0  0  0  0  0  0  0
   39.3680   26.6340   42.9010 C   0  0  1  0  0  0  0  0  0  0  0  0
   39.9560   25.4970   43.6560 C   0  0  0  0  0  0  0  0  0  0  0  0
   39.2410   25.2370   42.4210 C   0  0  1  0  0  0  0  0  0  0  0  0
   40.0200   27.2760   42.2620 H   0  0  0  0  0  0  0  0  0  0  0  0
   39.4240   25.1970   44.5980 H   0  0  0  0  0  0  0  0  0  0  0  0
   41.0470   25.3640   43.7290 H   0  0  0  0  0  0  0  0  0  0  0  0
   39.9060   24.9210   41.5590 H   0  0  0  0  0  0  0  0  0  0  0  0
   37.8820   24.6600   42.3350 C   0  0  0  0  0  0  0  0  0  0  0  0
   37.7140   23.5670   41.2450 C   0  0  0  0  0  0  0  0  0  0  0  0
   37.1220   24.9050   41.0110 C   0  0  0  0  0  0  0  0  0  0  0  0
   37.2850   24.5520   43.2420 H   0  0  0  0  0  0  0  0  0  0  0  0
   37.0400   22.7270   41.5050 H   0  0  0  0  0  0  0  0  0  0  0  0
   38.5980   23.3060   40.6460 H   0  0  0  0  0  0  0  0  0  0  0  0
   37.5800   25.5770   40.2640 H   0  0  0  0  0  0  0  0  0  0  0  0
   36.0230   24.9910   41.1330 H   0  0  0  0  0  0  0  0  0  0  0  0
   38.4420   28.9560   41.8240 C   0  0  0  0  0  3  0  0  0  0  0  0
   37.5960   28.3320   42.5450 C   0  0  0  0  0  3  0  0  0  0  0  0
   37.5630   32.1670   40.2570 C   0  0  0  0  0  0  0  0  0  0  0  0
   36.9520   31.7810   39.0700 C   0  0  0  0  0  0  0  0  0  0  0  0
   36.8620   30.4430   38.8200 C   0  0  0  0  0  0  0  0  0  0  0  0
   37.3640   29.5740   39.7290 N   0  0  0  0  0  0  0  0  0  0  0  0
   37.9530   29.9490   40.8770 C   0  0  0  0  0  0  0  0  0  0  0  0
   38.0370   31.2560   41.1120 N   0  0  0  0  0  0  0  0  0  0  0  0
   37.6220   33.2330   40.4310 H   0  0  0  0  0  0  0  0  0  0  0  0
   36.5410   32.4460   38.3220 H   0  0  0  0  0  0  0  0  0  0  0  0
   36.2290   29.8850   37.5780 C   0  0  0  0  0  2  0  0  0  0  0  0
   34.9890   29.1390   38.0750 C   0  0  0  0  0  2  0  0  0  0  0  0
   35.2480   28.5740   39.0170 H   0  0  0  0  0  0  0  0  0  0  0  0
  1  2  1  0  0  0  0
  1  3  1  0  0  0  0
  4  7  1  6  0  0  0
  4  1  1  0  0  0  0
  4  5  1  0  0  0  0
  5  9  1  0  0  0  0
  5  8  1  0  0  0  0
  6 10  1  6  0  0  0
  6  4  1  0  0  0  0
  6  5  1  0  0  0  0
 11  6  1  0  0  0  0
 11 14  1  0  0  0  0
 12 15  1  0  0  0  0
 12 11  1  0  0  0  0
 13 18  1  0  0  0  0
 13 12  1  0  0  0  0
 13 11  1  0  0  0  0
 16 12  1  0  0  0  0
 17 13  1  0  0  0  0
 19 20  2  0  0  0  0
 20  1  1  0  0  0  0
 21 27  1  0  0  0  0
 21 26  1  0  0  0  0
 22 21  2  0  0  0  0
 23 22  1  0  0  0  0
 23 24  2  0  0  0  0
 24 25  1  0  0  0  0
 25 26  2  0  0  0  0
 25 19  1  0  0  0  0
 28 22  1  0  0  0  0
 29 30  1  0  0  0  0
 29 23  1  0  0  0  0
 30 31  1  0  0  0  0
M  END
>  <minimizedAffinity>
-4.37812185

$$$$

 OpenBabel03252508163D

 31 33  0  0  1  0  0  0  0  0999 V2000
   33.9780   29.1530   39.3670 C   0  0  0  0  0  0  0  0  0  0  0  0
   33.5690   30.1840   39.4780 H   0  0  0  0  0  0  0  0  0  0  0  0
   33.3060   28.3810   39.7550 H   0  0  0  0  0  0  0  0  0  0  0  0
   34.3630   28.9550   37.9210 C   0  0  1  0  0  0  0  0  0  0  0  0
   33.9050   27.7000   37.2700 C   0  0  0  0  0  0  0  0  0  0  0  0
   33.3130   28.9640   36.8760 C   0  0  1  0  0  0  0  0  0  0  0  0
   35.3220   29.4300   37.6060 H   0  0  0  0  0  0  0  0  0  0  0  0
   33.2520   27.0280   37.8880 H   0  0  0  0  0  0  0  0  0  0  0  0
   34.5650   27.1370   36.5900 H   0  0  0  0  0  0  0  0  0  0  0  0
   33.6120   29.3130   35.8400 H   0  0  0  0  0  0  0  0  0  0  0  0
   31.9600   29.4210   37.2630 C   0  0  0  0  0  0  0  0  0  0  0  0
   30.8480   29.0850   36.2340 C   0  0  0  0  0  0  0  0  0  0  0  0
   31.3150   30.4860   36.3470 C   0  0  0  0  0  0  0  0  0  0  0  0
   31.6760   29.4290   38.3170 H   0  0  0  0  0  0  0  0  0  0  0  0
   29.8600   28.8190   36.6610 H   0  0  0  0  0  0  0  0  0  0  0  0
   31.1420   28.5380   35.3270 H   0  0  0  0  0  0  0  0  0  0  0  0
   31.9300   30.9190   35.5380 H   0  0  0  0  0  0  0  0  0  0  0  0
   30.6460   31.1920   36.8800 H   0  0  0  0  0  0  0  0  0  0  0  0
   35.8840   30.1920   40.3220 C   0  0  0  0  0  3  0  0  0  0  0  0
   35.2180   29.1070   40.2440 C   0  0  0  0  0  3  0  0  0  0  0  0
   38.3450   29.4500   42.9540 C   0  0  0  0  0  0  0  0  0  0  0  0
   39.3780   30.3370   42.6780 C   0  0  0  0  0  0  0  0  0  0  0  0
   39.2260   31.1580   41.6000 C   0  0  0  0  0  0  0  0  0  0  0  0
   38.0900   31.0690   40.8670 N   0  0  0  0  0  0  0  0  0  0  0  0
   37.0910   30.2110   41.1370 C   0  0  0  0  0  0  0  0  0  0  0  0
   37.2500   29.4130   42.1890 N   0  0  0  0  0  0  0  0  0  0  0  0
   38.4910   28.8100   43.8140 H   0  0  0  0  0  0  0  0  0  0  0  0
   40.2980   30.4360   43.2400 H   0  0  0  0  0  0  0  0  0  0  0  0
   40.2610   32.1640   41.1850 C   0  0  0  0  0  2  0  0  0  0  0  0
   39.4750   33.2490   40.4450 C   0  0  0  0  0  2  0  0  0  0  0  0
   38.7010   32.7610   39.7850 H   0  0  0  0  0  0  0  0  0  0  0  0
  1  2  1  0  0  0  0
  1  3  1  0  0  0  0
  1 20  1  0  0  0  0
  4  7  1  6  0  0  0
  4  1  1  0  0  0  0
  5  8  1  0  0  0  0
  5  4  1  0  0  0  0
  6 10  1  6  0  0  0
  6 11  1  0  0  0  0
  6  5  1  0  0  0  0
  6  4  1  0  0  0  0
  9  5  1  0  0  0  0
 11 14  1  0  0  0  0
 12 13  1  0  0  0  0
 12 15  1  0  0  0  0
 12 11  1  0  0  0  0
 13 18  1  0  0  0  0
 13 11  1  0  0  0  0
 16 12  1  0  0  0  0
 17 13  1  0  0  0  0
 19 25  1  0  0  0  0
 20 19  2  0  0  0  0
 21 27  1  0  0  0  0
 22 21  1  0  0  0  0
 22 28  1  0  0  0  0
 23 22  2  0  0  0  0
 24 25  2  0  0  0  0
 24 23  1  0  0  0  0
 25 26  1  0  0  0  0
 26 21  2  0  0  0  0
 29 23  1  0  0  0  0
 30 29  1  0  0  0  0
 31 30  1  0  0  0  0
M  END
>  <minimizedAffinity>
-4.28309155

$$$$

 OpenBabel03252508163D

 31 33  0  0  1  0  0  0  0  0999 V2000
   33.2990   28.5360   37.4340 C   0  0  0  0  0  0  0  0  0  0  0  0
   32.4420   28.6060   38.1440 H   0  0  0  0  0  0  0  0  0  0  0  0
   33.4890   27.5150   37.0900 H   0  0  0  0  0  0  0  0  0  0  0  0
   33.0600   29.5210   36.3150 C   0  0  1  0  0  0  0  0  0  0  0  0
   32.1320   29.0980   35.2340 C   0  0  0  0  0  0  0  0  0  0  0  0
   31.7230   30.1400   36.1570 C   0  0  1  0  0  0  0  0  0  0  0  0
   33.9090   30.2080   36.0850 H   0  0  0  0  0  0  0  0  0  0  0  0
   31.6300   28.1040   35.3700 H   0  0  0  0  0  0  0  0  0  0  0  0
   32.3500   29.3190   34.1770 H   0  0  0  0  0  0  0  0  0  0  0  0
   31.6790   31.1750   35.6970 H   0  0  0  0  0  0  0  0  0  0  0  0
   30.7480   29.9620   37.2550 C   0  0  0  0  0  0  0  0  0  0  0  0
   29.3160   30.4680   36.9330 C   0  0  0  0  0  0  0  0  0  0  0  0
   30.1610   31.2580   37.8590 C   0  0  0  0  0  0  0  0  0  0  0  0
   30.8330   29.0960   37.9140 H   0  0  0  0  0  0  0  0  0  0  0  0
   28.4860   29.8660   37.3550 H   0  0  0  0  0  0  0  0  0  0  0  0
   29.1400   30.8970   35.9370 H   0  0  0  0  0  0  0  0  0  0  0  0
   30.5760   32.2240   37.5220 H   0  0  0  0  0  0  0  0  0  0  0  0
   29.9210   31.1830   38.9390 H   0  0  0  0  0  0  0  0  0  0  0  0
   34.3750   28.9930   39.4960 C   0  0  0  0  0  3  0  0  0  0  0  0
   34.5260   28.9450   38.2310 C   0  0  0  0  0  3  0  0  0  0  0  0
   37.2530   30.8610   40.8260 C   0  0  0  0  0  0  0  0  0  0  0  0
   37.6910   30.0610   41.8740 C   0  0  0  0  0  0  0  0  0  0  0  0
   36.9960   28.9130   42.1160 C   0  0  0  0  0  0  0  0  0  0  0  0
   35.9320   28.6160   41.3320 N   0  0  0  0  0  0  0  0  0  0  0  0
   35.5110   29.3910   40.3180 C   0  0  0  0  0  0  0  0  0  0  0  0
   36.1940   30.5100   40.0910 N   0  0  0  0  0  0  0  0  0  0  0  0
   37.8210   31.7660   40.6550 H   0  0  0  0  0  0  0  0  0  0  0  0
   38.5350   30.2660   42.5200 H   0  0  0  0  0  0  0  0  0  0  0  0
   37.3570   27.9540   43.2150 C   0  0  0  0  0  2  0  0  0  0  0  0
   38.8710   27.7690   43.0870 C   0  0  0  0  0  2  0  0  0  0  0  0
   39.1440   27.6830   41.9960 H   0  0  0  0  0  0  0  0  0  0  0  0
  1  2  1  0  0  0  0
  1 20  1  0  0  0  0
  3  1  1  0  0  0  0
  4  7  1  6  0  0  0
  4  1  1  0  0  0  0
  5  8  1  0  0  0  0
  5  6  1  0  0  0  0
  5  4  1  0  0  0  0
  6 10  1  6  0  0  0
  6  4  1  0  0  0  0
  6 11  1  0  0  0  0
  9  5  1  0  0  0  0
 11 13  1  0  0  0  0
 11 14  1  0  0  0  0
 12 11  1  0  0  0  0
 12 15  1  0  0  0  0
 12 13  1  0  0  0  0
 13 18  1  0  0  0  0
 16 12  1  0  0  0  0
 17 13  1  0  0  0  0
 19 25  1  0  0  0  0
 20 19  2  0  0  0  0
 21 22  1  0  0  0  0
 22 23  2  0  0  0  0
 22 28  1  0  0  0  0
 23 29  1  0  0  0  0
 24 23  1  0  0  0  0
 25 24  2  0  0  0  0
 26 25  1  0  0  0  0
 26 21  2  0  0  0  0
 27 21  1  0  0  0  0
 30 29  1  0  0  0  0
 31 30  1  0  0  0  0
M  END
>  <minimizedAffinity>
-4.28039598

$$$$

 OpenBabel03252508163D

 31 33  0  0  1  0  0  0  0  0999 V2000
   37.1910   28.3150   41.2120 C   0  0  0  0  0  0  0  0  0  0  0  0
   37.7880   27.4120   40.9390 H   0  0  0  0  0  0  0  0  0  0  0  0
   36.1770   28.2990   40.8020 H   0  0  0  0  0  0  0  0  0  0  0  0
   37.2390   28.4700   42.7120 C   0  0  1  0  0  0  0  0  0  0  0  0
   36.5790   27.4110   43.5190 C   0  0  0  0  0  0  0  0  0  0  0  0
   38.0260   27.5110   43.5240 C   0  0  1  0  0  0  0  0  0  0  0  0
   37.2740   29.5200   43.0900 H   0  0  0  0  0  0  0  0  0  0  0  0
   36.1530   26.5440   42.9480 H   0  0  0  0  0  0  0  0  0  0  0  0
   35.9820   27.6630   44.4110 H   0  0  0  0  0  0  0  0  0  0  0  0
   38.4620   27.8890   44.5000 H   0  0  0  0  0  0  0  0  0  0  0  0
   38.9390   26.5920   42.8090 C   0  0  0  0  0  0  0  0  0  0  0  0
   40.0900   26.0220   43.6800 C   0  0  0  0  0  0  0  0  0  0  0  0
   40.4050   27.0620   42.6720 C   0  0  0  0  0  0  0  0  0  0  0  0
   38.5440   25.9470   42.0220 H   0  0  0  0  0  0  0  0  0  0  0  0
   40.3810   24.9730   43.4690 H   0  0  0  0  0  0  0  0  0  0  0  0
   40.1300   26.3280   44.7350 H   0  0  0  0  0  0  0  0  0  0  0  0
   40.6580   28.0830   43.0090 H   0  0  0  0  0  0  0  0  0  0  0  0
   40.9030   26.7190   41.7430 H   0  0  0  0  0  0  0  0  0  0  0  0
   38.1520   30.4810   41.3030 C   0  0  0  0  0  3  0  0  0  0  0  0
   37.8940   29.4860   40.5470 C   0  0  0  0  0  3  0  0  0  0  0  0
   39.0700   33.9540   40.5070 C   0  0  0  0  0  0  0  0  0  0  0  0
   40.0640   33.8040   39.5480 C   0  0  0  0  0  0  0  0  0  0  0  0
   40.4110   32.5330   39.2000 C   0  0  0  0  0  0  0  0  0  0  0  0
   39.7760   31.4960   39.7980 N   0  0  0  0  0  0  0  0  0  0  0  0
   38.8140   31.6420   40.7240 C   0  0  0  0  0  0  0  0  0  0  0  0
   38.4830   32.8870   41.0580 N   0  0  0  0  0  0  0  0  0  0  0  0
   38.8130   34.9720   40.7650 H   0  0  0  0  0  0  0  0  0  0  0  0
   40.5920   34.6080   39.0500 H   0  0  0  0  0  0  0  0  0  0  0  0
   41.4680   32.2230   38.1780 C   0  0  0  0  0  2  0  0  0  0  0  0
   41.9380   33.5910   37.6790 C   0  0  0  0  0  2  0  0  0  0  0  0
   41.0440   34.2650   37.5460 H   0  0  0  0  0  0  0  0  0  0  0  0
  1  4  1  0  0  0  0
  2  1  1  0  0  0  0
  3  1  1  0  0  0  0
  4  7  1  1  0  0  0
  4  5  1  0  0  0  0
  4  6  1  0  0  0  0
  5  6  1  0  0  0  0
  5  9  1  0  0  0  0
  6 10  1  1  0  0  0
  8  5  1  0  0  0  0
 11  6  1  0  0  0  0
 11 12  1  0  0  0  0
 12 16  1  0  0  0  0
 13 11  1  0  0  0  0
 13 17  1  0  0  0  0
 13 12  1  0  0  0  0
 14 11  1  0  0  0  0
 15 12  1  0  0  0  0
 18 13  1  0  0  0  0
 20  1  1  0  0  0  0
 20 19  2  0  0  0  0
 21 27  1  0  0  0  0
 21 26  1  0  0  0  0
 22 21  2  0  0  0  0
 23 22  1  0  0  0  0
 23 24  2  0  0  0  0
 24 25  1  0  0  0  0
 25 26  2  0  0  0  0
 25 19  1  0  0  0  0
 28 22  1  0  0  0  0
 29 23  1  0  0  0  0
 30 29  1  0  0  0  0
 31 30  1  0  0  0  0
M  END
>  <minimizedAffinity>
-4.25475073

$$$$

 OpenBabel03252508163D

 31 33  0  0  1  0  0  0  0  0999 V2000
   35.7910   29.6550   38.0840 C   0  0  0  0  0  0  0  0  0  0  0  0
   35.3830   30.4530   38.7480 H   0  0  0  0  0  0  0  0  0  0  0  0
   35.1610   29.4600   37.2110 H   0  0  0  0  0  0  0  0  0  0  0  0
   37.2150   30.0180   37.7380 C   0  0  1  0  0  0  0  0  0  0  0  0
   37.4090   31.1130   36.7520 C   0  0  0  0  0  0  0  0  0  0  0  0
   37.7530   31.3380   38.1430 C   0  0  1  0  0  0  0  0  0  0  0  0
   37.9560   29.1860   37.8020 H   0  0  0  0  0  0  0  0  0  0  0  0
   36.4790   31.6270   36.3910 H   0  0  0  0  0  0  0  0  0  0  0  0
   38.1830   31.0460   35.9710 H   0  0  0  0  0  0  0  0  0  0  0  0
   38.8670   31.4080   38.3390 H   0  0  0  0  0  0  0  0  0  0  0  0
   36.9550   32.1460   39.0910 C   0  0  0  0  0  0  0  0  0  0  0  0
   37.7810   33.1550   39.9320 C   0  0  0  0  0  0  0  0  0  0  0  0
   37.2630   31.9340   40.5910 C   0  0  0  0  0  0  0  0  0  0  0  0
   35.9370   32.4360   38.8260 H   0  0  0  0  0  0  0  0  0  0  0  0
   37.2860   34.1240   40.1460 H   0  0  0  0  0  0  0  0  0  0  0  0
   38.8650   33.1990   39.7530 H   0  0  0  0  0  0  0  0  0  0  0  0
   37.9670   31.1290   40.8690 H   0  0  0  0  0  0  0  0  0  0  0  0
   36.3840   32.0610   41.2540 H   0  0  0  0  0  0  0  0  0  0  0  0
   36.7770   28.1900   39.6660 C   0  0  0  0  0  3  0  0  0  0  0  0
   35.7670   28.3810   38.9110 C   0  0  0  0  0  3  0  0  0  0  0  0
   37.1770   25.8940   42.5130 C   0  0  0  0  0  0  0  0  0  0  0  0
   36.9520   24.6460   41.9450 C   0  0  0  0  0  0  0  0  0  0  0  0
   36.6580   24.6090   40.6140 C   0  0  0  0  0  0  0  0  0  0  0  0
   36.6030   25.7740   39.9250 N   0  0  0  0  0  0  0  0  0  0  0  0
   36.8230   26.9800   40.4760 C   0  0  0  0  0  0  0  0  0  0  0  0
   37.1070   27.0060   41.7750 N   0  0  0  0  0  0  0  0  0  0  0  0
   37.4080   25.8960   43.5700 H   0  0  0  0  0  0  0  0  0  0  0  0
   36.9870   23.6970   42.4640 H   0  0  0  0  0  0  0  0  0  0  0  0
   36.3920   23.3310   39.8710 C   0  0  0  0  0  2  0  0  0  0  0  0
   37.6660   22.5050   40.0500 C   0  0  0  0  0  2  0  0  0  0  0  0
   38.5650   23.1780   39.9400 H   0  0  0  0  0  0  0  0  0  0  0  0
  1  2  1  0  0  0  0
  1 20  1  0  0  0  0
  3  1  1  0  0  0  0
  4  7  1  6  0  0  0
  4  1  1  0  0  0  0
  4  6  1  0  0  0  0
  5  4  1  0  0  0  0
  5  6  1  0  0  0  0
  6 10  1  1  0  0  0
  6 11  1  0  0  0  0
  8  5  1  0  0  0  0
  9  5  1  0  0  0  0
 11 12  1  0  0  0  0
 11 13  1  0  0  0  0
 12 15  1  0  0  0  0
 12 13  1  0  0  0  0
 13 17  1  0  0  0  0
 13 18  1  0  0  0  0
 14 11  1  0  0  0  0
 16 12  1  0  0  0  0
 19 25  1  0  0  0  0
 20 19  2  0  0  0  0
 21 27  1  0  0  0  0
 22 28  1  0  0  0  0
 22 21  1  0  0  0  0
 23 22  2  0  0  0  0
 24 25  2  0  0  0  0
 24 23  1  0  0  0  0
 25 26  1  0  0  0  0
 26 21  2  0  0  0  0
 29 30  1  0  0  0  0
 29 23  1  0  0  0  0
 31 30  1  0  0  0  0
M  END
>  <minimizedAffinity>
-4.237535

$$$$

 OpenBabel03252508163D

 31 33  0  0  1  0  0  0  0  0999 V2000
   36.5440   28.5530   41.3460 C   0  0  0  0  0  0  0  0  0  0  0  0
   36.5370   27.6720   40.6620 H   0  0  0  0  0  0  0  0  0  0  0  0
   35.5440   28.9530   41.5410 H   0  0  0  0  0  0  0  0  0  0  0  0
   37.3010   28.1710   42.5940 C   0  0  1  0  0  0  0  0  0  0  0  0
   36.5230   27.5180   43.6790 C   0  0  0  0  0  0  0  0  0  0  0  0
   37.4880   26.7380   42.9270 C   0  0  1  0  0  0  0  0  0  0  0  0
   38.1790   28.8130   42.8450 H   0  0  0  0  0  0  0  0  0  0  0  0
   35.4440   27.3020   43.4560 H   0  0  0  0  0  0  0  0  0  0  0  0
   36.6910   27.7770   44.7360 H   0  0  0  0  0  0  0  0  0  0  0  0
   38.4150   26.4570   43.5150 H   0  0  0  0  0  0  0  0  0  0  0  0
   37.1450   25.7400   41.8900 C   0  0  0  0  0  0  0  0  0  0  0  0
   37.7490   24.3310   42.1290 C   0  0  0  0  0  0  0  0  0  0  0  0
   38.3290   25.1840   41.0660 C   0  0  0  0  0  0  0  0  0  0  0  0
   36.1720   25.7880   41.4000 H   0  0  0  0  0  0  0  0  0  0  0  0
   37.1090   23.4750   41.8330 H   0  0  0  0  0  0  0  0  0  0  0  0
   38.3580   24.1840   43.0330 H   0  0  0  0  0  0  0  0  0  0  0  0
   39.3260   25.6340   41.2170 H   0  0  0  0  0  0  0  0  0  0  0  0
   38.0660   24.9240   40.0210 H   0  0  0  0  0  0  0  0  0  0  0  0
   38.4240   29.3100   40.1140 C   0  0  0  0  0  3  0  0  0  0  0  0
   37.2930   29.6450   40.6000 C   0  0  0  0  0  3  0  0  0  0  0  0
   40.6740   30.9290   37.6950 C   0  0  0  0  0  0  0  0  0  0  0  0
   40.6930   32.2520   38.1190 C   0  0  0  0  0  0  0  0  0  0  0  0
   39.9360   32.5700   39.2070 C   0  0  0  0  0  0  0  0  0  0  0  0
   39.2150   31.5940   39.8090 N   0  0  0  0  0  0  0  0  0  0  0  0
   39.1990   30.3150   39.3980 C   0  0  0  0  0  0  0  0  0  0  0  0
   39.9400   30.0140   38.3350 N   0  0  0  0  0  0  0  0  0  0  0  0
   41.2830   30.7030   36.8300 H   0  0  0  0  0  0  0  0  0  0  0  0
   41.2560   33.0570   37.6630 H   0  0  0  0  0  0  0  0  0  0  0  0
   39.8620   33.9590   39.7740 C   0  0  0  0  0  2  0  0  0  0  0  0
   38.3910   34.1490   40.1470 C   0  0  0  0  0  2  0  0  0  0  0  0
   37.7420   33.7150   39.3330 H   0  0  0  0  0  0  0  0  0  0  0  0
  1  3  1  0  0  0  0
  1  4  1  0  0  0  0
  2  1  1  0  0  0  0
  4  7  1  1  0  0  0
  4  6  1  0  0  0  0
  4  5  1  0  0  0  0
  5  9  1  0  0  0  0
  6 10  1  1  0  0  0
  6  5  1  0  0  0  0
  8  5  1  0  0  0  0
 11 12  1  0  0  0  0
 11  6  1  0  0  0  0
 12 16  1  0  0  0  0
 13 17  1  0  0  0  0
 13 11  1  0  0  0  0
 13 12  1  0  0  0  0
 14 11  1  0  0  0  0
 15 12  1  0  0  0  0
 18 13  1  0  0  0  0
 19 20  2  0  0  0  0
 20  1  1  0  0  0  0
 21 22  2  0  0  0  0
 21 26  1  0  0  0  0
 22 23  1  0  0  0  0
 23 29  1  0  0  0  0
 23 24  2  0  0  0  0
 25 24  1  0  0  0  0
 25 19  1  0  0  0  0
 26 25  2  0  0  0  0
 27 21  1  0  0  0  0
 28 22  1  0  0  0  0
 29 30  1  0  0  0  0
 31 30  1  0  0  0  0
M  END
>  <minimizedAffinity>
-4.21033764

$$$$
