
 OpenBabel03252508133D

 31 33  0  0  1  0  0  0  0  0999 V2000
   46.2640   30.8930   46.7190 C   0  0  0  0  0  0  0  0  0  0  0  0
   47.3340   30.5820   46.6830 H   0  0  0  0  0  0  0  0  0  0  0  0
   45.5720   30.0760   46.4950 H   0  0  0  0  0  0  0  0  0  0  0  0
   46.0140   31.5560   48.0520 C   0  0  1  0  0  0  0  0  0  0  0  0
   45.7640   30.6600   49.2110 C   0  0  0  0  0  0  0  0  0  0  0  0
   47.0060   31.4060   49.1420 C   0  0  1  0  0  0  0  0  0  0  0  0
   45.5330   32.5630   48.0100 H   0  0  0  0  0  0  0  0  0  0  0  0
   45.8470   29.5580   49.0150 H   0  0  0  0  0  0  0  0  0  0  0  0
   44.9910   30.8980   49.9590 H   0  0  0  0  0  0  0  0  0  0  0  0
   47.0830   32.2490   49.8960 H   0  0  0  0  0  0  0  0  0  0  0  0
   48.3230   30.8250   48.7990 C   0  0  0  0  0  0  0  0  0  0  0  0
   49.1880   30.4220   50.0230 C   0  0  0  0  0  0  0  0  0  0  0  0
   49.5600   31.6320   49.2540 C   0  0  0  0  0  0  0  0  0  0  0  0
   48.4250   30.2190   47.8970 H   0  0  0  0  0  0  0  0  0  0  0  0
   49.8000   29.5060   49.9000 H   0  0  0  0  0  0  0  0  0  0  0  0
   48.7610   30.5840   51.0230 H   0  0  0  0  0  0  0  0  0  0  0  0
   49.3970   32.6290   49.7000 H   0  0  0  0  0  0  0  0  0  0  0  0
   50.4320   31.5410   48.5750 H   0  0  0  0  0  0  0  0  0  0  0  0
   45.8990   33.1110   45.9630 C   0  0  0  0  0  0  0  0  0  0  0  0
   46.0940   31.9050   45.5980 C   0  0  0  0  0  0  0  0  0  0  0  0
   44.6800   36.0630   44.1360 C   0  0  0  0  0  0  0  0  0  0  0  0
   45.3680   35.9930   42.9310 C   0  0  0  0  0  0  0  0  0  0  0  0
   46.2380   34.9570   42.7670 C   0  0  0  0  0  0  0  0  0  0  0  0
   46.3830   34.0610   43.7730 N   0  0  0  0  0  0  0  0  0  0  0  0
   45.7150   34.1290   44.9370 C   0  0  0  0  0  0  0  0  0  0  0  0
   44.8700   35.1450   45.0880 N   0  0  0  0  0  0  0  0  0  0  0  0
   43.9960   36.8950   44.2400 H   0  0  0  0  0  0  0  0  0  0  0  0
   45.2770   36.6900   42.1070 H   0  0  0  0  0  0  0  0  0  0  0  0
   47.0480   34.7580   41.5180 C   0  0  0  0  0  0  0  0  0  0  0  0
   48.3820   35.4480   41.8050 C   0  0  0  0  0  0  0  0  0  0  0  0
   48.1890   36.4230   42.3390 H   0  0  0  0  0  0  0  0  0  0  0  0
  1  4  1  0  0  0  0
  2  1  1  0  0  0  0
  3  1  1  0  0  0  0
  4  7  1  6  0  0  0
  4  6  1  0  0  0  0
  4  5  1  0  0  0  0
  5  9  1  0  0  0  0
  6  5  1  0  0  0  0
  6 10  1  1  0  0  0
  8  5  1  0  0  0  0
 11  6  1  0  0  0  0
 11 13  1  0  0  0  0
 11 12  1  0  0  0  0
 12 16  1  0  0  0  0
 13 17  1  0  0  0  0
 13 12  1  0  0  0  0
 14 11  1  0  0  0  0
 15 12  1  0  0  0  0
 18 13  1  0  0  0  0
 20 19  2  0  0  0  0
 20  1  1  0  0  0  0
 21 27  1  0  0  0  0
 21 26  1  0  0  0  0
 22 21  2  0  0  0  0
 23 22  1  0  0  0  0
 23 24  2  0  0  0  0
 24 25  1  0  0  0  0
 25 26  2  0  0  0  0
 25 19  1  0  0  0  0
 28 22  1  0  0  0  0
 29 30  1  0  0  0  0
 29 23  1  0  0  0  0
 30 31  1  0  0  0  0
M  END
>  <minimizedAffinity>
-5.12635612

>  <minimizedRMSD>
0.716812074

$$$$
