
 OpenBabel03252509183D

 35 37  0  0  1  0  0  0  0  0999 V2000
   48.1020   30.2050   47.3130 C   0  0  1  0  0  0  0  0  0  0  0  0
   47.8540   30.9810   48.5610 C   0  0  0  0  0  0  0  0  0  0  0  0
   48.8020   30.6780   49.6870 C   0  0  0  0  0  0  0  0  0  0  0  0
   50.2420   30.5420   49.2420 C   0  0  0  0  0  0  0  0  0  0  0  0
   50.3960   29.7340   47.9800 C   0  0  0  0  0  0  0  0  0  0  0  0
   49.0740   29.0570   47.6540 C   0  0  2  0  0  0  0  0  0  0  0  0
   48.6620   30.8670   46.5990 H   0  0  0  0  0  0  0  0  0  0  0  0
   46.8230   30.6890   48.9200 H   0  0  0  0  0  0  0  0  0  0  0  0
   47.8090   32.0900   48.3990 H   0  0  0  0  0  0  0  0  0  0  0  0
   48.7530   31.5480   50.3830 H   0  0  0  0  0  0  0  0  0  0  0  0
   48.5400   29.7730   50.2640 H   0  0  0  0  0  0  0  0  0  0  0  0
   50.8110   30.1290   50.0870 H   0  0  0  0  0  0  0  0  0  0  0  0
   50.6130   31.5880   49.0530 H   0  0  0  0  0  0  0  0  0  0  0  0
   50.6360   30.3720   47.0990 H   0  0  0  0  0  0  0  0  0  0  0  0
   51.1890   28.9720   48.0580 H   0  0  0  0  0  0  0  0  0  0  0  0
   48.6410   28.5560   48.5420 H   0  0  0  0  0  0  0  0  0  0  0  0
   44.5270   28.5920   46.1480 C   0  0  0  0  0  0  0  0  0  0  0  0
   45.1000   29.3860   45.1440 C   0  0  0  0  0  0  0  0  0  0  0  0
   46.2910   29.9690   45.4120 C   0  0  0  0  0  0  0  0  0  0  0  0
   46.9100   29.7720   46.6590 C   0  0  0  0  0  0  0  0  0  0  0  0
   45.7320   28.6820   47.5270 S   0  0  0  0  0  0  0  0  0  0  0  0
   44.6220   29.5370   44.1890 H   0  0  0  0  0  0  0  0  0  0  0  0
   46.8830   30.6050   44.7790 H   0  0  0  0  0  0  0  0  0  0  0  0
   41.0340   27.5710   45.3520 C   0  0  0  0  0  0  0  0  0  0  0  0
   41.0150   26.3010   45.9890 C   0  0  0  0  0  0  0  0  0  0  0  0
   42.1690   25.8620   46.6460 C   0  0  0  0  0  0  0  0  0  0  0  0
   43.2590   26.6870   46.6380 N   0  0  0  0  0  0  0  0  0  0  0  0
   43.2410   27.8880   46.0230 C   0  0  0  0  0  0  0  0  0  0  0  0
   42.1310   28.3410   45.3740 N   0  0  0  0  0  0  0  0  0  0  0  0
   40.1550   27.9390   44.8350 H   0  0  0  0  0  0  0  0  0  0  0  0
   40.1370   25.6950   45.9660 H   0  0  0  0  0  0  0  0  0  0  0  0
   42.2050   24.9040   47.1460 H   0  0  0  0  0  0  0  0  0  0  0  0
   49.2240   28.0890   46.5080 C   0  0  0  0  0  2  0  0  0  0  0  0
   50.2680   28.6460   45.5570 C   0  0  0  0  0  2  0  0  0  0  0  0
   50.8790   29.4550   46.0550 H   0  0  0  0  0  0  0  0  0  0  0  0
  1  7  1  6  0  0  0
  1  6  1  0  0  0  0
  1  2  1  0  0  0  0
  2  8  1  0  0  0  0
  2  3  1  0  0  0  0
  3 11  1  0  0  0  0
  3 10  1  0  0  0  0
  4  3  1  0  0  0  0
  4 12  1  0  0  0  0
  5 15  1  0  0  0  0
  5  4  1  0  0  0  0
  6  5  1  0  0  0  0
  6 16  1  1  0  0  0
  9  2  1  0  0  0  0
 13  4  1  0  0  0  0
 14  5  1  0  0  0  0
 17 21  1  0  0  0  0
 18 19  1  0  0  0  0
 18 17  2  0  0  0  0
 19 20  2  0  0  0  0
 20  1  1  0  0  0  0
 20 21  1  0  0  0  0
 22 18  1  0  0  0  0
 23 19  1  0  0  0  0
 24 29  2  0  0  0  0
 24 25  1  0  0  0  0
 25 26  2  0  0  0  0
 26 32  1  0  0  0  0
 27 26  1  0  0  0  0
 28 17  1  0  0  0  0
 28 27  2  0  0  0  0
 29 28  1  0  0  0  0
 30 24  1  0  0  0  0
 31 25  1  0  0  0  0
 33  6  1  0  0  0  0
 34 35  1  0  0  0  0
 34 33  1  0  0  0  0
M  END
>  <minimizedAffinity>
-3.53701186

>  <minimizedRMSD>
5.70955753

$$$$
