
 OpenBabel03252505183D

 28 30  0  0  0  0  0  0  0  0999 V2000
   44.5710   35.8740   44.6210 C   0  0  0  0  0  0  0  0  0  0  0  0
   45.2240   35.8530   43.3840 C   0  0  0  0  0  0  0  0  0  0  0  0
   46.1300   34.8320   43.2100 C   0  0  0  0  0  0  0  0  0  0  0  0
   46.3570   33.9050   44.2050 N   0  0  0  0  0  0  0  0  0  0  0  0
   45.6870   33.9770   45.3930 C   0  0  0  0  0  0  0  0  0  0  0  0
   44.7980   34.9600   45.5970 N   0  0  0  0  0  0  0  0  0  0  0  0
   43.8480   36.6520   44.8190 H   0  0  0  0  0  0  0  0  0  0  0  0
   45.0350   36.5780   42.6280 H   0  0  0  0  0  0  0  0  0  0  0  0
   45.9500   32.9600   46.4100 C   0  0  0  0  0  0  0  0  0  0  0  0
   45.2290   33.0150   47.5870 C   0  0  0  0  0  0  0  0  0  0  0  0
   45.4530   32.0600   48.5680 C   0  0  0  0  0  0  0  0  0  0  0  0
   46.3980   31.0890   48.3210 C   0  0  0  0  0  0  0  0  0  0  0  0
   47.0940   31.0830   47.1190 C   0  0  0  0  0  0  0  0  0  0  0  0
   46.8750   32.0160   46.1600 N   0  0  0  0  0  0  0  0  0  0  0  0
   44.4970   33.7930   47.7400 H   0  0  0  0  0  0  0  0  0  0  0  0
   44.9110   32.0630   49.5070 H   0  0  0  0  0  0  0  0  0  0  0  0
   46.6210   30.3240   49.0340 H   0  0  0  0  0  0  0  0  0  0  0  0
   48.1340   30.0780   46.7550 C   0  0  0  0  0  0  0  0  0  0  0  0
   48.9760   29.6380   47.9050 C   0  0  0  0  0  0  0  0  0  0  0  0
   49.3270   30.4540   48.5620 H   0  0  0  0  0  0  0  0  0  0  0  0
   46.8780   34.6750   41.9120 C   0  0  0  0  0  0  0  0  0  0  0  0
   48.2340   35.3860   41.9250 C   0  0  0  0  0  0  0  0  0  0  0  0
   48.0470   33.8400   41.8630 C   0  0  0  0  0  0  0  0  0  0  0  0
   46.2790   34.8470   40.9730 H   0  0  0  0  0  0  0  0  0  0  0  0
   48.6240   35.8270   41.0040 H   0  0  0  0  0  0  0  0  0  0  0  0
   48.5940   35.8110   42.8610 H   0  0  0  0  0  0  0  0  0  0  0  0
   48.4490   33.3250   42.7570 H   0  0  0  0  0  0  0  0  0  0  0  0
   48.3240   33.3570   40.8990 H   0  0  0  0  0  0  0  0  0  0  0  0
  1  7  1  0  0  0  0
  1  6  1  0  0  0  0
  2  1  2  0  0  0  0
  3  2  1  0  0  0  0
  3  4  2  0  0  0  0
  4  5  1  0  0  0  0
  5  6  2  0  0  0  0
  5  9  1  0  0  0  0
  8  2  1  0  0  0  0
  9 10  1  0  0  0  0
 10 15  1  0  0  0  0
 10 11  2  0  0  0  0
 11 16  1  0  0  0  0
 12 11  1  0  0  0  0
 12 17  1  0  0  0  0
 13 12  2  0  0  0  0
 14  9  2  0  0  0  0
 14 13  1  0  0  0  0
 18 13  1  0  0  0  0
 18 19  1  0  0  0  0
 19 20  1  0  0  0  0
 21 22  1  0  0  0  0
 21  3  1  0  0  0  0
 22 26  1  0  0  0  0
 23 21  1  0  0  0  0
 23 22  1  0  0  0  0
 23 27  1  0  0  0  0
 24 21  1  0  0  0  0
 25 22  1  0  0  0  0
 28 23  1  0  0  0  0
M  END
>  <minimizedAffinity>
-5.34912872

>  <minimizedRMSD>
0.307740331

$$$$
