
 OpenBabel03252504433D

 39 41  0  0  0  0  0  0  0  0999 V2000
   37.4710   31.8480   40.3060 C   0  0  0  0  0  0  0  0  0  0  0  0
   37.1820   32.7830   39.3570 C   0  0  0  0  0  0  0  0  0  0  0  0
   38.3440   33.2840   38.9350 N   0  0  0  0  0  0  0  0  0  0  0  0
   39.3650   32.7060   39.5770 C   0  0  0  0  0  0  0  0  0  0  0  0
   38.8090   31.8100   40.4310 N   0  0  0  0  0  0  0  0  0  0  0  0
   40.7710   32.8940   39.4810 N   0  0  0  0  0  0  0  0  0  0  0  0
   41.5040   32.0900   38.4880 C   0  0  0  0  0  0  0  0  0  0  0  0
   41.8020   33.0620   37.3460 C   0  0  0  0  0  0  0  0  0  0  0  0
   42.3810   34.3480   37.9020 C   0  0  0  0  0  0  0  0  0  0  0  0
   42.8580   34.1250   39.3270 C   0  0  0  0  0  0  0  0  0  0  0  0
   41.6810   33.7530   40.1910 C   0  0  0  0  0  0  0  0  0  0  0  0
   36.2020   33.0930   38.9830 H   0  0  0  0  0  0  0  0  0  0  0  0
   38.4850   34.0190   38.2120 H   0  0  0  0  0  0  0  0  0  0  0  0
   40.8510   31.2890   38.0760 H   0  0  0  0  0  0  0  0  0  0  0  0
   42.4380   31.6890   38.8870 H   0  0  0  0  0  0  0  0  0  0  0  0
   40.9250   33.2310   36.7060 H   0  0  0  0  0  0  0  0  0  0  0  0
   42.6080   32.5780   36.7550 H   0  0  0  0  0  0  0  0  0  0  0  0
   43.1430   34.7920   37.2570 H   0  0  0  0  0  0  0  0  0  0  0  0
   41.5160   35.0570   37.9900 H   0  0  0  0  0  0  0  0  0  0  0  0
   43.3320   35.0420   39.7040 H   0  0  0  0  0  0  0  0  0  0  0  0
   43.6160   33.3350   39.2890 H   0  0  0  0  0  0  0  0  0  0  0  0
   42.0450   33.3320   41.1330 H   0  0  0  0  0  0  0  0  0  0  0  0
   41.1430   34.7140   40.4240 H   0  0  0  0  0  0  0  0  0  0  0  0
   36.4970   31.0180   41.0680 C   0  0  0  0  0  0  0  0  0  0  0  0
   35.5550   31.0260   40.4700 H   0  0  0  0  0  0  0  0  0  0  0  0
   36.2360   31.4860   42.0490 H   0  0  0  0  0  0  0  0  0  0  0  0
   37.3020   29.1970   42.5210 C   0  0  0  0  0  3  0  0  0  0  0  0
   37.0300   29.6640   41.3120 C   0  0  0  0  0  3  0  0  0  0  0  0
   37.8290   27.8300   42.6230 C   0  0  0  0  0  0  0  0  0  0  0  0
   39.0920   27.5530   43.2080 C   0  0  0  0  0  0  0  0  0  0  0  0
   39.5000   26.2310   43.2560 C   0  0  0  0  0  0  0  0  0  0  0  0
   38.7000   25.2760   42.7570 N   0  0  0  0  0  0  0  0  0  0  0  0
   37.4900   25.5580   42.1980 C   0  0  0  0  0  0  0  0  0  0  0  0
   37.0620   26.8130   42.1320 N   0  0  0  0  0  0  0  0  0  0  0  0
   39.6660   28.3980   43.5840 H   0  0  0  0  0  0  0  0  0  0  0  0
   40.4480   26.0540   43.7000 H   0  0  0  0  0  0  0  0  0  0  0  0
   36.7910   24.3580   41.7210 C   0  0  0  0  0  2  0  0  0  0  0  0
   37.0210   24.1390   40.2420 C   0  0  0  0  0  2  0  0  0  0  0  0
   37.9710   23.5760   40.0970 H   0  0  0  0  0  0  0  0  0  0  0  0
  1  5  1  0  0  0  0
  1 24  1  0  0  0  0
  2  1  2  0  0  0  0
  3  2  1  0  0  0  0
  3  4  1  0  0  0  0
  4  5  2  0  0  0  0
  6  4  1  0  0  0  0
  6 11  1  0  0  0  0
  7 15  1  0  0  0  0
  7  6  1  0  0  0  0
  8  9  1  0  0  0  0
  8  7  1  0  0  0  0
  9 19  1  0  0  0  0
  9 10  1  0  0  0  0
 10 20  1  0  0  0  0
 10 11  1  0  0  0  0
 11 23  1  0  0  0  0
 11 22  1  0  0  0  0
 12  2  1  0  0  0  0
 13  3  1  0  0  0  0
 14  7  1  0  0  0  0
 16  8  1  0  0  0  0
 17  8  1  0  0  0  0
 18  9  1  0  0  0  0
 21 10  1  0  0  0  0
 24 28  1  0  0  0  0
 24 26  1  0  0  0  0
 25 24  1  0  0  0  0
 27 29  1  0  0  0  0
 28 27  2  0  0  0  0
 29 30  1  0  0  0  0
 30 31  2  0  0  0  0
 30 35  1  0  0  0  0
 31 36  1  0  0  0  0
 32 31  1  0  0  0  0
 33 32  2  0  0  0  0
 34 33  1  0  0  0  0
 34 29  2  0  0  0  0
 37 33  1  0  0  0  0
 38 37  1  0  0  0  0
 39 38  1  0  0  0  0
M  END
>  <minimizedAffinity>
-5.67882633

$$$$

 OpenBabel03252504433D

 39 41  0  0  0  0  0  0  0  0999 V2000
   38.4000   28.1000   42.9350 C   0  0  0  0  0  0  0  0  0  0  0  0
   37.2200   28.7040   43.2520 C   0  0  0  0  0  0  0  0  0  0  0  0
   37.1540   29.8300   42.5390 N   0  0  0  0  0  0  0  0  0  0  0  0
   38.2440   29.9680   41.7780 C   0  0  0  0  0  0  0  0  0  0  0  0
   39.0170   28.8820   42.0320 N   0  0  0  0  0  0  0  0  0  0  0  0
   38.6350   30.9800   40.8590 N   0  0  0  0  0  0  0  0  0  0  0  0
   38.2030   30.8380   39.4580 C   0  0  0  0  0  0  0  0  0  0  0  0
   37.0590   31.8400   39.3010 C   0  0  0  0  0  0  0  0  0  0  0  0
   37.4700   33.1850   39.8670 C   0  0  0  0  0  0  0  0  0  0  0  0
   38.9800   33.2360   40.0290 C   0  0  0  0  0  0  0  0  0  0  0  0
   39.4080   32.1840   41.0190 C   0  0  0  0  0  0  0  0  0  0  0  0
   36.4480   28.3670   43.9500 H   0  0  0  0  0  0  0  0  0  0  0  0
   36.3830   30.5290   42.5410 H   0  0  0  0  0  0  0  0  0  0  0  0
   37.7800   29.8250   39.2810 H   0  0  0  0  0  0  0  0  0  0  0  0
   39.0020   31.0740   38.7520 H   0  0  0  0  0  0  0  0  0  0  0  0
   36.1190   31.4670   39.7310 H   0  0  0  0  0  0  0  0  0  0  0  0
   36.9400   31.9770   38.2050 H   0  0  0  0  0  0  0  0  0  0  0  0
   37.0680   34.0310   39.3030 H   0  0  0  0  0  0  0  0  0  0  0  0
   37.0620   33.2120   40.9110 H   0  0  0  0  0  0  0  0  0  0  0  0
   39.2790   34.2330   40.3810 H   0  0  0  0  0  0  0  0  0  0  0  0
   39.4120   33.0770   39.0350 H   0  0  0  0  0  0  0  0  0  0  0  0
   40.4880   32.0310   40.9370 H   0  0  0  0  0  0  0  0  0  0  0  0
   39.1920   32.6040   42.0400 H   0  0  0  0  0  0  0  0  0  0  0  0
   38.9190   26.8140   43.4790 C   0  0  0  0  0  0  0  0  0  0  0  0
   38.4350   26.6860   44.4760 H   0  0  0  0  0  0  0  0  0  0  0  0
   40.0170   26.8660   43.6800 H   0  0  0  0  0  0  0  0  0  0  0  0
   37.4470   25.3900   42.1070 C   0  0  0  0  0  3  0  0  0  0  0  0
   38.6570   25.6990   42.5480 C   0  0  0  0  0  3  0  0  0  0  0  0
   37.3270   24.2550   41.1820 C   0  0  0  0  0  0  0  0  0  0  0  0
   38.3720   23.3100   41.0130 C   0  0  0  0  0  0  0  0  0  0  0  0
   38.1630   22.2760   40.1170 C   0  0  0  0  0  0  0  0  0  0  0  0
   36.9980   22.2050   39.4530 N   0  0  0  0  0  0  0  0  0  0  0  0
   36.0040   23.1210   39.6260 C   0  0  0  0  0  0  0  0  0  0  0  0
   36.1660   24.1280   40.4750 N   0  0  0  0  0  0  0  0  0  0  0  0
   39.2780   23.4560   41.5990 H   0  0  0  0  0  0  0  0  0  0  0  0
   38.9610   21.5840   40.0120 H   0  0  0  0  0  0  0  0  0  0  0  0
   34.8250   22.8430   38.7960 C   0  0  0  0  0  2  0  0  0  0  0  0
   33.5930   22.6270   39.6460 C   0  0  0  0  0  2  0  0  0  0  0  0
   33.1290   23.6120   39.8770 H   0  0  0  0  0  0  0  0  0  0  0  0
  1  2  2  0  0  0  0
  1 24  1  0  0  0  0
  2 12  1  0  0  0  0
  3 13  1  0  0  0  0
  3  2  1  0  0  0  0
  4  5  2  0  0  0  0
  4  3  1  0  0  0  0
  5  1  1  0  0  0  0
  6 11  1  0  0  0  0
  6  4  1  0  0  0  0
  7  6  1  0  0  0  0
  8  7  1  0  0  0  0
  8 16  1  0  0  0  0
  8  9  1  0  0  0  0
  9 10  1  0  0  0  0
  9 19  1  0  0  0  0
 10 20  1  0  0  0  0
 10 11  1  0  0  0  0
 11 23  1  0  0  0  0
 14  7  1  0  0  0  0
 15  7  1  0  0  0  0
 17  8  1  0  0  0  0
 18  9  1  0  0  0  0
 21 10  1  0  0  0  0
 22 11  1  0  0  0  0
 24 26  1  0  0  0  0
 24 25  1  0  0  0  0
 27 28  2  0  0  0  0
 28 24  1  0  0  0  0
 29 27  1  0  0  0  0
 30 29  1  0  0  0  0
 30 35  1  0  0  0  0
 31 30  2  0  0  0  0
 32 33  2  0  0  0  0
 32 31  1  0  0  0  0
 33 34  1  0  0  0  0
 34 29  2  0  0  0  0
 36 31  1  0  0  0  0
 37 33  1  0  0  0  0
 37 38  1  0  0  0  0
 38 39  1  0  0  0  0
M  END
>  <minimizedAffinity>
-5.62300873

$$$$

 OpenBabel03252504433D

 39 41  0  0  0  0  0  0  0  0999 V2000
   38.5670   28.1370   43.0820 C   0  0  0  0  0  0  0  0  0  0  0  0
   37.3190   28.6280   43.3240 C   0  0  0  0  0  0  0  0  0  0  0  0
   37.1830   29.7300   42.5850 N   0  0  0  0  0  0  0  0  0  0  0  0
   38.2940   29.9620   41.8790 C   0  0  0  0  0  0  0  0  0  0  0  0
   39.1540   28.9600   42.1960 N   0  0  0  0  0  0  0  0  0  0  0  0
   38.6350   30.9930   40.9610 N   0  0  0  0  0  0  0  0  0  0  0  0
   38.2950   30.7870   39.5430 C   0  0  0  0  0  0  0  0  0  0  0  0
   37.0690   31.6700   39.3060 C   0  0  0  0  0  0  0  0  0  0  0  0
   37.3180   33.0580   39.8630 C   0  0  0  0  0  0  0  0  0  0  0  0
   38.8040   33.2590   40.1030 C   0  0  0  0  0  0  0  0  0  0  0  0
   39.2780   32.2690   41.1360 C   0  0  0  0  0  0  0  0  0  0  0  0
   36.5460   28.2280   43.9880 H   0  0  0  0  0  0  0  0  0  0  0  0
   36.3490   30.3510   42.5320 H   0  0  0  0  0  0  0  0  0  0  0  0
   37.9820   29.7350   39.3650 H   0  0  0  0  0  0  0  0  0  0  0  0
   39.1040   31.0880   38.8740 H   0  0  0  0  0  0  0  0  0  0  0  0
   36.1480   31.2140   39.6930 H   0  0  0  0  0  0  0  0  0  0  0  0
   36.9970   31.7770   38.2020 H   0  0  0  0  0  0  0  0  0  0  0  0
   36.8670   33.8510   39.2620 H   0  0  0  0  0  0  0  0  0  0  0  0
   36.8530   33.0610   40.8840 H   0  0  0  0  0  0  0  0  0  0  0  0
   38.9860   34.2850   40.4490 H   0  0  0  0  0  0  0  0  0  0  0  0
   39.3030   33.1270   39.1360 H   0  0  0  0  0  0  0  0  0  0  0  0
   40.3710   32.2200   41.1140 H   0  0  0  0  0  0  0  0  0  0  0  0
   38.9670   32.6810   42.1350 H   0  0  0  0  0  0  0  0  0  0  0  0
   39.1780   26.9160   43.6790 C   0  0  0  0  0  0  0  0  0  0  0  0
   38.5460   26.6590   44.5610 H   0  0  0  0  0  0  0  0  0  0  0  0
   40.1970   27.1240   44.0870 H   0  0  0  0  0  0  0  0  0  0  0  0
   38.2870   25.5070   41.8630 C   0  0  0  0  0  3  0  0  0  0  0  0
   39.2740   25.8300   42.6850 C   0  0  0  0  0  3  0  0  0  0  0  0
   38.5170   24.4040   40.9210 C   0  0  0  0  0  0  0  0  0  0  0  0
   37.7800   23.1920   40.9880 C   0  0  0  0  0  0  0  0  0  0  0  0
   38.0700   22.2120   40.0550 C   0  0  0  0  0  0  0  0  0  0  0  0
   39.0220   22.4400   39.1360 N   0  0  0  0  0  0  0  0  0  0  0  0
   39.7210   23.6080   39.0840 C   0  0  0  0  0  0  0  0  0  0  0  0
   39.4720   24.5730   39.9610 N   0  0  0  0  0  0  0  0  0  0  0  0
   37.0290   23.1060   41.7730 H   0  0  0  0  0  0  0  0  0  0  0  0
   37.5040   21.3180   40.1290 H   0  0  0  0  0  0  0  0  0  0  0  0
   40.7080   23.6310   37.9970 C   0  0  0  0  0  2  0  0  0  0  0  0
   40.6060   24.9060   37.1890 C   0  0  0  0  0  2  0  0  0  0  0  0
   41.2110   25.7020   37.6800 H   0  0  0  0  0  0  0  0  0  0  0  0
  1  2  2  0  0  0  0
  1 24  1  0  0  0  0
  2 12  1  0  0  0  0
  3  2  1  0  0  0  0
  4  5  2  0  0  0  0
  4  3  1  0  0  0  0
  5  1  1  0  0  0  0
  6 11  1  0  0  0  0
  6  4  1  0  0  0  0
  7  6  1  0  0  0  0
  8  7  1  0  0  0  0
  8 16  1  0  0  0  0
  8  9  1  0  0  0  0
  9 10  1  0  0  0  0
  9 19  1  0  0  0  0
 10 20  1  0  0  0  0
 10 11  1  0  0  0  0
 11 23  1  0  0  0  0
 13  3  1  0  0  0  0
 14  7  1  0  0  0  0
 15  7  1  0  0  0  0
 17  8  1  0  0  0  0
 18  9  1  0  0  0  0
 21 10  1  0  0  0  0
 22 11  1  0  0  0  0
 24 26  1  0  0  0  0
 24 25  1  0  0  0  0
 27 28  2  0  0  0  0
 28 24  1  0  0  0  0
 29 30  1  0  0  0  0
 29 27  1  0  0  0  0
 30 35  1  0  0  0  0
 31 36  1  0  0  0  0
 31 30  2  0  0  0  0
 32 31  1  0  0  0  0
 33 32  2  0  0  0  0
 33 34  1  0  0  0  0
 34 29  2  0  0  0  0
 37 33  1  0  0  0  0
 38 39  1  0  0  0  0
 38 37  1  0  0  0  0
M  END
>  <minimizedAffinity>
-5.18658781

$$$$

 OpenBabel03252504433D

 39 41  0  0  0  0  0  0  0  0999 V2000
   37.6070   30.5020   37.6890 C   0  0  0  0  0  0  0  0  0  0  0  0
   37.6830   31.2730   36.5680 C   0  0  0  0  0  0  0  0  0  0  0  0
   38.7160   32.1010   36.7330 N   0  0  0  0  0  0  0  0  0  0  0  0
   39.3040   31.8880   37.9140 C   0  0  0  0  0  0  0  0  0  0  0  0
   38.6030   30.8860   38.5050 N   0  0  0  0  0  0  0  0  0  0  0  0
   40.4230   32.5030   38.5390 N   0  0  0  0  0  0  0  0  0  0  0  0
   41.7570   31.9420   38.2620 C   0  0  0  0  0  0  0  0  0  0  0  0
   42.3960   32.9270   37.2840 C   0  0  0  0  0  0  0  0  0  0  0  0
   42.2280   34.3450   37.7950 C   0  0  0  0  0  0  0  0  0  0  0  0
   41.8590   34.3210   39.2690 C   0  0  0  0  0  0  0  0  0  0  0  0
   40.5340   33.6230   39.4360 C   0  0  0  0  0  0  0  0  0  0  0  0
   37.0420   31.2520   35.6810 H   0  0  0  0  0  0  0  0  0  0  0  0
   39.0540   32.8230   36.0640 H   0  0  0  0  0  0  0  0  0  0  0  0
   41.6680   30.9660   37.7360 H   0  0  0  0  0  0  0  0  0  0  0  0
   42.3690   31.8630   39.1630 H   0  0  0  0  0  0  0  0  0  0  0  0
   42.0220   32.7970   36.2590 H   0  0  0  0  0  0  0  0  0  0  0  0
   43.4840   32.7030   37.3150 H   0  0  0  0  0  0  0  0  0  0  0  0
   43.0850   34.9870   37.5760 H   0  0  0  0  0  0  0  0  0  0  0  0
   41.3220   34.7490   37.2730 H   0  0  0  0  0  0  0  0  0  0  0  0
   41.7980   35.3490   39.6500 H   0  0  0  0  0  0  0  0  0  0  0  0
   42.6730   33.8060   39.7920 H   0  0  0  0  0  0  0  0  0  0  0  0
   40.3960   33.3620   40.4900 H   0  0  0  0  0  0  0  0  0  0  0  0
   39.7440   34.3730   39.1570 H   0  0  0  0  0  0  0  0  0  0  0  0
   36.6110   29.4290   37.9690 C   0  0  0  0  0  0  0  0  0  0  0  0
   36.3620   28.9780   36.9800 H   0  0  0  0  0  0  0  0  0  0  0  0
   35.6530   29.8510   38.3590 H   0  0  0  0  0  0  0  0  0  0  0  0
   36.3640   27.7170   39.7240 C   0  0  0  0  0  3  0  0  0  0  0  0
   37.1390   28.4570   38.9470 C   0  0  0  0  0  3  0  0  0  0  0  0
   37.0210   26.7870   40.6540 C   0  0  0  0  0  0  0  0  0  0  0  0
   36.9010   25.3800   40.5190 C   0  0  0  0  0  0  0  0  0  0  0  0
   37.5570   24.5880   41.4460 C   0  0  0  0  0  0  0  0  0  0  0  0
   38.2700   25.1710   42.4220 N   0  0  0  0  0  0  0  0  0  0  0  0
   38.3750   26.5240   42.5390 C   0  0  0  0  0  0  0  0  0  0  0  0
   37.7610   27.3180   41.6710 N   0  0  0  0  0  0  0  0  0  0  0  0
   36.2990   25.0060   39.6920 H   0  0  0  0  0  0  0  0  0  0  0  0
   37.4500   23.5400   41.3190 H   0  0  0  0  0  0  0  0  0  0  0  0
   39.2040   26.9330   43.6800 C   0  0  0  0  0  2  0  0  0  0  0  0
   40.4100   27.7270   43.2270 C   0  0  0  0  0  2  0  0  0  0  0  0
   40.1260   28.7980   43.1220 H   0  0  0  0  0  0  0  0  0  0  0  0
  1 24  1  0  0  0  0
  1  5  1  0  0  0  0
  2  3  1  0  0  0  0
  2  1  2  0  0  0  0
  3  4  1  0  0  0  0
  4  5  2  0  0  0  0
  4  6  1  0  0  0  0
  6 11  1  0  0  0  0
  7  6  1  0  0  0  0
  7 15  1  0  0  0  0
  8 17  1  0  0  0  0
  8  9  1  0  0  0  0
  8  7  1  0  0  0  0
  9 10  1  0  0  0  0
 10 11  1  0  0  0  0
 10 20  1  0  0  0  0
 10 21  1  0  0  0  0
 11 22  1  0  0  0  0
 12  2  1  0  0  0  0
 13  3  1  0  0  0  0
 14  7  1  0  0  0  0
 16  8  1  0  0  0  0
 18  9  1  0  0  0  0
 19  9  1  0  0  0  0
 23 11  1  0  0  0  0
 24 26  1  0  0  0  0
 24 28  1  0  0  0  0
 25 24  1  0  0  0  0
 27 29  1  0  0  0  0
 28 27  2  0  0  0  0
 29 34  1  0  0  0  0
 30 29  2  0  0  0  0
 30 31  1  0  0  0  0
 31 32  2  0  0  0  0
 32 33  1  0  0  0  0
 33 37  1  0  0  0  0
 34 33  2  0  0  0  0
 35 30  1  0  0  0  0
 36 31  1  0  0  0  0
 38 37  1  0  0  0  0
 39 38  1  0  0  0  0
M  END
>  <minimizedAffinity>
-5.13770771

$$$$

 OpenBabel03252504433D

 39 41  0  0  0  0  0  0  0  0999 V2000
   35.7210   29.3010   36.8690 C   0  0  0  0  0  0  0  0  0  0  0  0
   36.7650   29.5720   36.0380 C   0  0  0  0  0  0  0  0  0  0  0  0
   37.5760   30.4080   36.6890 N   0  0  0  0  0  0  0  0  0  0  0  0
   37.0900   30.6810   37.9040 C   0  0  0  0  0  0  0  0  0  0  0  0
   35.9300   29.9850   38.0070 N   0  0  0  0  0  0  0  0  0  0  0  0
   37.5790   31.5030   38.9560 N   0  0  0  0  0  0  0  0  0  0  0  0
   38.4950   30.8920   39.9340 C   0  0  0  0  0  0  0  0  0  0  0  0
   39.8780   31.4210   39.5530 C   0  0  0  0  0  0  0  0  0  0  0  0
   39.8200   32.9240   39.3600 C   0  0  0  0  0  0  0  0  0  0  0  0
   38.5510   33.4760   39.9880 C   0  0  0  0  0  0  0  0  0  0  0  0
   37.3550   32.8860   39.2860 C   0  0  0  0  0  0  0  0  0  0  0  0
   36.9460   29.1990   35.0250 H   0  0  0  0  0  0  0  0  0  0  0  0
   38.4690   30.8140   36.3420 H   0  0  0  0  0  0  0  0  0  0  0  0
   38.5190   29.7870   39.8080 H   0  0  0  0  0  0  0  0  0  0  0  0
   38.2580   31.1790   40.9610 H   0  0  0  0  0  0  0  0  0  0  0  0
   40.2990   30.8960   38.6850 H   0  0  0  0  0  0  0  0  0  0  0  0
   40.5150   31.2380   40.4450 H   0  0  0  0  0  0  0  0  0  0  0  0
   40.7240   33.4370   39.6960 H   0  0  0  0  0  0  0  0  0  0  0  0
   39.6940   33.0820   38.2570 H   0  0  0  0  0  0  0  0  0  0  0  0
   38.5420   34.5710   39.8990 H   0  0  0  0  0  0  0  0  0  0  0  0
   38.5830   33.2150   41.0520 H   0  0  0  0  0  0  0  0  0  0  0  0
   36.4600   33.0580   39.8930 H   0  0  0  0  0  0  0  0  0  0  0  0
   37.2380   33.4590   38.3250 H   0  0  0  0  0  0  0  0  0  0  0  0
   34.5580   28.4140   36.5820 C   0  0  0  0  0  0  0  0  0  0  0  0
   34.5930   27.6060   37.3510 H   0  0  0  0  0  0  0  0  0  0  0  0
   34.6680   27.8990   35.5970 H   0  0  0  0  0  0  0  0  0  0  0  0
   32.4730   29.2200   37.6220 C   0  0  0  0  0  3  0  0  0  0  0  0
   33.2950   29.1770   36.5840 C   0  0  0  0  0  3  0  0  0  0  0  0
   31.2480   30.0190   37.4900 C   0  0  0  0  0  0  0  0  0  0  0  0
   30.2310   30.0040   38.4800 C   0  0  0  0  0  0  0  0  0  0  0  0
   29.1140   30.7920   38.2650 C   0  0  0  0  0  0  0  0  0  0  0  0
   29.0340   31.5290   37.1450 N   0  0  0  0  0  0  0  0  0  0  0  0
   30.0190   31.5320   36.2030 C   0  0  0  0  0  0  0  0  0  0  0  0
   31.1060   30.7900   36.3730 N   0  0  0  0  0  0  0  0  0  0  0  0
   30.3920   29.3720   39.3530 H   0  0  0  0  0  0  0  0  0  0  0  0
   28.3710   30.7610   39.0220 H   0  0  0  0  0  0  0  0  0  0  0  0
   29.7150   32.4110   35.0670 C   0  0  0  0  0  2  0  0  0  0  0  0
   30.8340   32.4020   34.0500 C   0  0  0  0  0  2  0  0  0  0  0  0
   30.6900   31.5450   33.3530 H   0  0  0  0  0  0  0  0  0  0  0  0
  1  5  1  0  0  0  0
  2  3  1  0  0  0  0
  2  1  2  0  0  0  0
  3  4  1  0  0  0  0
  4  5  2  0  0  0  0
  4  6  1  0  0  0  0
  6 11  1  0  0  0  0
  6  7  1  0  0  0  0
  7 15  1  0  0  0  0
  8  7  1  0  0  0  0
  8 17  1  0  0  0  0
  9  8  1  0  0  0  0
  9 18  1  0  0  0  0
  9 10  1  0  0  0  0
 10 21  1  0  0  0  0
 11 22  1  0  0  0  0
 11 10  1  0  0  0  0
 12  2  1  0  0  0  0
 13  3  1  0  0  0  0
 14  7  1  0  0  0  0
 16  8  1  0  0  0  0
 19  9  1  0  0  0  0
 20 10  1  0  0  0  0
 23 11  1  0  0  0  0
 24 28  1  0  0  0  0
 24  1  1  0  0  0  0
 24 25  1  0  0  0  0
 26 24  1  0  0  0  0
 28 27  2  0  0  0  0
 29 27  1  0  0  0  0
 29 30  1  0  0  0  0
 30 35  1  0  0  0  0
 31 30  2  0  0  0  0
 31 36  1  0  0  0  0
 32 31  1  0  0  0  0
 33 34  1  0  0  0  0
 33 32  2  0  0  0  0
 34 29  2  0  0  0  0
 37 33  1  0  0  0  0
 38 37  1  0  0  0  0
 39 38  1  0  0  0  0
M  END
>  <minimizedAffinity>
-5.09312582

$$$$

 OpenBabel03252504433D

 39 41  0  0  0  0  0  0  0  0999 V2000
   38.1040   27.3680   42.9810 C   0  0  0  0  0  0  0  0  0  0  0  0
   39.0690   26.4880   43.3670 C   0  0  0  0  0  0  0  0  0  0  0  0
   38.9920   25.4380   42.5460 N   0  0  0  0  0  0  0  0  0  0  0  0
   38.0160   25.6150   41.6500 C   0  0  0  0  0  0  0  0  0  0  0  0
   37.4660   26.8240   41.9300 N   0  0  0  0  0  0  0  0  0  0  0  0
   37.5500   24.7970   40.5850 N   0  0  0  0  0  0  0  0  0  0  0  0
   38.1950   24.9510   39.2700 C   0  0  0  0  0  0  0  0  0  0  0  0
   39.1070   23.7310   39.1400 C   0  0  0  0  0  0  0  0  0  0  0  0
   38.3400   22.4730   39.5000 C   0  0  0  0  0  0  0  0  0  0  0  0
   36.8480   22.7540   39.4740 C   0  0  0  0  0  0  0  0  0  0  0  0
   36.5210   23.7920   40.5170 C   0  0  0  0  0  0  0  0  0  0  0  0
   39.7890   26.5810   44.1850 H   0  0  0  0  0  0  0  0  0  0  0  0
   39.5860   24.5840   42.5620 H   0  0  0  0  0  0  0  0  0  0  0  0
   38.8460   25.8520   39.2580 H   0  0  0  0  0  0  0  0  0  0  0  0
   37.4720   24.9620   38.4510 H   0  0  0  0  0  0  0  0  0  0  0  0
   40.0350   23.8440   39.7170 H   0  0  0  0  0  0  0  0  0  0  0  0
   39.3470   23.6610   38.0580 H   0  0  0  0  0  0  0  0  0  0  0  0
   38.6260   21.6070   38.8980 H   0  0  0  0  0  0  0  0  0  0  0  0
   38.5820   22.2690   40.5760 H   0  0  0  0  0  0  0  0  0  0  0  0
   36.2940   21.8260   39.6750 H   0  0  0  0  0  0  0  0  0  0  0  0
   36.6040   23.0890   38.4600 H   0  0  0  0  0  0  0  0  0  0  0  0
   35.5210   24.1940   40.3240 H   0  0  0  0  0  0  0  0  0  0  0  0
   36.4960   23.2520   41.5030 H   0  0  0  0  0  0  0  0  0  0  0  0
   37.8030   28.6900   43.5980 C   0  0  0  0  0  0  0  0  0  0  0  0
   38.2320   28.6520   44.6270 H   0  0  0  0  0  0  0  0  0  0  0  0
   36.7030   28.8390   43.7350 H   0  0  0  0  0  0  0  0  0  0  0  0
   39.6300   30.0340   42.6340 C   0  0  0  0  0  3  0  0  0  0  0  0
   38.3350   29.7940   42.7760 C   0  0  0  0  0  3  0  0  0  0  0  0
   40.0240   31.1670   41.7860 C   0  0  0  0  0  0  0  0  0  0  0  0
   41.3690   31.3700   41.3800 C   0  0  0  0  0  0  0  0  0  0  0  0
   41.6400   32.4670   40.5810 C   0  0  0  0  0  0  0  0  0  0  0  0
   40.6370   33.2850   40.2250 N   0  0  0  0  0  0  0  0  0  0  0  0
   39.3510   33.0780   40.6220 C   0  0  0  0  0  0  0  0  0  0  0  0
   39.0490   32.0370   41.3890 N   0  0  0  0  0  0  0  0  0  0  0  0
   42.1090   30.6480   41.7230 H   0  0  0  0  0  0  0  0  0  0  0  0
   42.6530   32.5920   40.2920 H   0  0  0  0  0  0  0  0  0  0  0  0
   38.4270   34.0990   40.1120 C   0  0  0  0  0  2  0  0  0  0  0  0
   37.2250   33.4690   39.4430 C   0  0  0  0  0  2  0  0  0  0  0  0
   36.4560   33.2370   40.2130 H   0  0  0  0  0  0  0  0  0  0  0  0
  1  2  2  0  0  0  0
  1 24  1  0  0  0  0
  2 12  1  0  0  0  0
  3 13  1  0  0  0  0
  3  2  1  0  0  0  0
  4  5  2  0  0  0  0
  4  3  1  0  0  0  0
  5  1  1  0  0  0  0
  6  4  1  0  0  0  0
  7  6  1  0  0  0  0
  8  7  1  0  0  0  0
  8  9  1  0  0  0  0
  8 16  1  0  0  0  0
  9 19  1  0  0  0  0
 10  9  1  0  0  0  0
 10 20  1  0  0  0  0
 10 11  1  0  0  0  0
 11  6  1  0  0  0  0
 11 23  1  0  0  0  0
 14  7  1  0  0  0  0
 15  7  1  0  0  0  0
 17  8  1  0  0  0  0
 18  9  1  0  0  0  0
 21 10  1  0  0  0  0
 22 11  1  0  0  0  0
 24 26  1  0  0  0  0
 24 25  1  0  0  0  0
 27 28  2  0  0  0  0
 28 24  1  0  0  0  0
 29 27  1  0  0  0  0
 30 35  1  0  0  0  0
 30 29  2  0  0  0  0
 31 30  1  0  0  0  0
 32 31  2  0  0  0  0
 32 33  1  0  0  0  0
 33 34  2  0  0  0  0
 34 29  1  0  0  0  0
 36 31  1  0  0  0  0
 37 33  1  0  0  0  0
 38 37  1  0  0  0  0
 38 39  1  0  0  0  0
M  END
>  <minimizedAffinity>
-5.06133413

$$$$

 OpenBabel03252504433D

 39 41  0  0  0  0  0  0  0  0999 V2000
   37.6680   32.2500   40.1490 C   0  0  0  0  0  0  0  0  0  0  0  0
   37.6010   33.5350   39.7040 C   0  0  0  0  0  0  0  0  0  0  0  0
   38.8360   33.8890   39.3440 N   0  0  0  0  0  0  0  0  0  0  0  0
   39.6890   32.8790   39.5420 C   0  0  0  0  0  0  0  0  0  0  0  0
   38.9490   31.8580   40.0450 N   0  0  0  0  0  0  0  0  0  0  0  0
   41.0880   32.7640   39.3180 N   0  0  0  0  0  0  0  0  0  0  0  0
   41.5350   32.3110   37.9890 C   0  0  0  0  0  0  0  0  0  0  0  0
   42.0350   33.5780   37.2950 C   0  0  0  0  0  0  0  0  0  0  0  0
   42.9630   34.3410   38.2210 C   0  0  0  0  0  0  0  0  0  0  0  0
   43.4220   33.4350   39.3510 C   0  0  0  0  0  0  0  0  0  0  0  0
   42.2260   33.0120   40.1640 C   0  0  0  0  0  0  0  0  0  0  0  0
   36.7260   34.1890   39.6360 H   0  0  0  0  0  0  0  0  0  0  0  0
   39.1400   34.8070   38.9590 H   0  0  0  0  0  0  0  0  0  0  0  0
   40.6740   31.9300   37.3970 H   0  0  0  0  0  0  0  0  0  0  0  0
   42.3420   31.5780   38.0500 H   0  0  0  0  0  0  0  0  0  0  0  0
   41.2110   34.1960   36.9150 H   0  0  0  0  0  0  0  0  0  0  0  0
   42.6550   33.2190   36.4460 H   0  0  0  0  0  0  0  0  0  0  0  0
   43.7890   34.8290   37.6970 H   0  0  0  0  0  0  0  0  0  0  0  0
   42.3260   35.1220   38.7110 H   0  0  0  0  0  0  0  0  0  0  0  0
   44.1420   33.9720   39.9840 H   0  0  0  0  0  0  0  0  0  0  0  0
   43.9370   32.5850   38.8880 H   0  0  0  0  0  0  0  0  0  0  0  0
   42.5030   32.1620   40.7950 H   0  0  0  0  0  0  0  0  0  0  0  0
   41.9780   33.8790   40.8360 H   0  0  0  0  0  0  0  0  0  0  0  0
   36.5380   31.4210   40.6570 C   0  0  0  0  0  0  0  0  0  0  0  0
   35.6100   31.8880   40.2510 H   0  0  0  0  0  0  0  0  0  0  0  0
   36.4490   31.4860   41.7690 H   0  0  0  0  0  0  0  0  0  0  0  0
   36.0280   29.0160   40.8380 C   0  0  0  0  0  3  0  0  0  0  0  0
   36.7040   30.0050   40.2730 C   0  0  0  0  0  3  0  0  0  0  0  0
   36.2890   27.6520   40.3600 C   0  0  0  0  0  0  0  0  0  0  0  0
   36.0050   27.2540   39.0280 C   0  0  0  0  0  0  0  0  0  0  0  0
   36.2870   25.9460   38.6740 C   0  0  0  0  0  0  0  0  0  0  0  0
   36.8100   25.1150   39.5900 N   0  0  0  0  0  0  0  0  0  0  0  0
   37.0780   25.5110   40.8660 C   0  0  0  0  0  0  0  0  0  0  0  0
   36.8220   26.7570   41.2440 N   0  0  0  0  0  0  0  0  0  0  0  0
   35.5810   28.0040   38.3620 H   0  0  0  0  0  0  0  0  0  0  0  0
   36.0650   25.6780   37.6720 H   0  0  0  0  0  0  0  0  0  0  0  0
   37.6460   24.4350   41.6870 C   0  0  0  0  0  2  0  0  0  0  0  0
   37.9290   23.2020   40.8580 C   0  0  0  0  0  2  0  0  0  0  0  0
   38.9330   23.2970   40.3880 H   0  0  0  0  0  0  0  0  0  0  0  0
  1 24  1  0  0  0  0
  2  1  2  0  0  0  0
  3  4  1  0  0  0  0
  3  2  1  0  0  0  0
  4  5  2  0  0  0  0
  5  1  1  0  0  0  0
  6  4  1  0  0  0  0
  6 11  1  0  0  0  0
  7 15  1  0  0  0  0
  7  6  1  0  0  0  0
  8  7  1  0  0  0  0
  8  9  1  0  0  0  0
  9 19  1  0  0  0  0
  9 10  1  0  0  0  0
 10 20  1  0  0  0  0
 10 11  1  0  0  0  0
 11 22  1  0  0  0  0
 11 23  1  0  0  0  0
 12  2  1  0  0  0  0
 13  3  1  0  0  0  0
 14  7  1  0  0  0  0
 16  8  1  0  0  0  0
 17  8  1  0  0  0  0
 18  9  1  0  0  0  0
 21 10  1  0  0  0  0
 24 26  1  0  0  0  0
 25 24  1  0  0  0  0
 28 24  1  0  0  0  0
 28 27  2  0  0  0  0
 29 27  1  0  0  0  0
 29 34  1  0  0  0  0
 30 29  2  0  0  0  0
 31 30  1  0  0  0  0
 31 32  2  0  0  0  0
 32 33  1  0  0  0  0
 33 34  2  0  0  0  0
 33 37  1  0  0  0  0
 35 30  1  0  0  0  0
 36 31  1  0  0  0  0
 38 37  1  0  0  0  0
 39 38  1  0  0  0  0
M  END
>  <minimizedAffinity>
-5.0445447

$$$$

 OpenBabel03252504433D

 39 41  0  0  0  0  0  0  0  0999 V2000
   32.5700   28.4700   36.0680 C   0  0  0  0  0  0  0  0  0  0  0  0
   31.9230   27.9850   34.9710 C   0  0  0  0  0  0  0  0  0  0  0  0
   31.1050   28.9490   34.5430 N   0  0  0  0  0  0  0  0  0  0  0  0
   31.2050   30.0290   35.3230 C   0  0  0  0  0  0  0  0  0  0  0  0
   32.1240   29.7200   36.2740 N   0  0  0  0  0  0  0  0  0  0  0  0
   30.5520   31.2920   35.2800 N   0  0  0  0  0  0  0  0  0  0  0  0
   31.1680   32.3540   34.4660 C   0  0  0  0  0  0  0  0  0  0  0  0
   30.3050   32.4270   33.2060 C   0  0  0  0  0  0  0  0  0  0  0  0
   28.8380   32.4760   33.5880 C   0  0  0  0  0  0  0  0  0  0  0  0
   28.6990   32.8460   35.0550 C   0  0  0  0  0  0  0  0  0  0  0  0
   29.3470   31.7780   35.8980 C   0  0  0  0  0  0  0  0  0  0  0  0
   32.0240   27.0040   34.4980 H   0  0  0  0  0  0  0  0  0  0  0  0
   30.4650   28.9100   33.7240 H   0  0  0  0  0  0  0  0  0  0  0  0
   32.1910   32.0580   34.1480 H   0  0  0  0  0  0  0  0  0  0  0  0
   31.1650   33.3210   34.9750 H   0  0  0  0  0  0  0  0  0  0  0  0
   30.5340   31.6190   32.4990 H   0  0  0  0  0  0  0  0  0  0  0  0
   30.5480   33.4080   32.7440 H   0  0  0  0  0  0  0  0  0  0  0  0
   28.2410   33.1090   32.9260 H   0  0  0  0  0  0  0  0  0  0  0  0
   28.4710   31.4190   33.5160 H   0  0  0  0  0  0  0  0  0  0  0  0
   27.6350   32.9400   35.3120 H   0  0  0  0  0  0  0  0  0  0  0  0
   29.1740   33.8250   35.1830 H   0  0  0  0  0  0  0  0  0  0  0  0
   29.4920   32.1590   36.9140 H   0  0  0  0  0  0  0  0  0  0  0  0
   28.6130   30.9260   35.9480 H   0  0  0  0  0  0  0  0  0  0  0  0
   33.5860   27.7570   36.8930 C   0  0  0  0  0  0  0  0  0  0  0  0
   34.3080   27.3090   36.1700 H   0  0  0  0  0  0  0  0  0  0  0  0
   33.1360   26.8950   37.4440 H   0  0  0  0  0  0  0  0  0  0  0  0
   35.4800   28.5680   38.2460 C   0  0  0  0  0  3  0  0  0  0  0  0
   34.2150   28.6700   37.8670 C   0  0  0  0  0  3  0  0  0  0  0  0
   35.9800   29.5440   39.2230 C   0  0  0  0  0  0  0  0  0  0  0  0
   36.0070   29.2670   40.6150 C   0  0  0  0  0  0  0  0  0  0  0  0
   36.4970   30.2510   41.4560 C   0  0  0  0  0  0  0  0  0  0  0  0
   36.9200   31.4130   40.9330 N   0  0  0  0  0  0  0  0  0  0  0  0
   36.8870   31.6640   39.5940 C   0  0  0  0  0  0  0  0  0  0  0  0
   36.4250   30.7460   38.7540 N   0  0  0  0  0  0  0  0  0  0  0  0
   35.6410   28.2930   40.9390 H   0  0  0  0  0  0  0  0  0  0  0  0
   36.5070   30.0150   42.4910 H   0  0  0  0  0  0  0  0  0  0  0  0
   37.3990   32.9980   39.2540 C   0  0  0  0  0  2  0  0  0  0  0  0
   38.3490   33.5090   40.3150 C   0  0  0  0  0  2  0  0  0  0  0  0
   39.3730   33.1240   40.1080 H   0  0  0  0  0  0  0  0  0  0  0  0
  1  5  1  0  0  0  0
  1 24  1  0  0  0  0
  2  1  2  0  0  0  0
  3  2  1  0  0  0  0
  3  4  1  0  0  0  0
  4  5  2  0  0  0  0
  6  4  1  0  0  0  0
  6 11  1  0  0  0  0
  7 15  1  0  0  0  0
  7  6  1  0  0  0  0
  8  9  1  0  0  0  0
  8  7  1  0  0  0  0
  9 10  1  0  0  0  0
 10 21  1  0  0  0  0
 10 20  1  0  0  0  0
 10 11  1  0  0  0  0
 11 23  1  0  0  0  0
 11 22  1  0  0  0  0
 12  2  1  0  0  0  0
 13  3  1  0  0  0  0
 14  7  1  0  0  0  0
 16  8  1  0  0  0  0
 17  8  1  0  0  0  0
 18  9  1  0  0  0  0
 19  9  1  0  0  0  0
 24 26  1  0  0  0  0
 24 28  1  0  0  0  0
 25 24  1  0  0  0  0
 27 29  1  0  0  0  0
 28 27  2  0  0  0  0
 29 30  1  0  0  0  0
 30 35  1  0  0  0  0
 30 31  2  0  0  0  0
 31 36  1  0  0  0  0
 32 31  1  0  0  0  0
 33 32  2  0  0  0  0
 34 29  2  0  0  0  0
 34 33  1  0  0  0  0
 37 33  1  0  0  0  0
 37 38  1  0  0  0  0
 39 38  1  0  0  0  0
M  END
>  <minimizedAffinity>
-5.03270626

$$$$

 OpenBabel03252504433D

 39 41  0  0  0  0  0  0  0  0999 V2000
   36.2490   28.4080   38.2840 C   0  0  0  0  0  0  0  0  0  0  0  0
   35.5790   27.2620   37.9760 C   0  0  0  0  0  0  0  0  0  0  0  0
   36.0780   26.2970   38.7510 N   0  0  0  0  0  0  0  0  0  0  0  0
   37.0400   26.7820   39.5420 C   0  0  0  0  0  0  0  0  0  0  0  0
   37.1400   28.1020   39.2430 N   0  0  0  0  0  0  0  0  0  0  0  0
   37.8590   26.1620   40.5250 N   0  0  0  0  0  0  0  0  0  0  0  0
   37.3490   26.1080   41.9060 C   0  0  0  0  0  0  0  0  0  0  0  0
   36.8940   24.6600   42.0950 C   0  0  0  0  0  0  0  0  0  0  0  0
   37.9770   23.7130   41.6160 C   0  0  0  0  0  0  0  0  0  0  0  0
   39.2950   24.4580   41.4900 C   0  0  0  0  0  0  0  0  0  0  0  0
   39.1550   25.5410   40.4520 C   0  0  0  0  0  0  0  0  0  0  0  0
   34.7800   27.1160   37.2430 H   0  0  0  0  0  0  0  0  0  0  0  0
   35.7900   25.2970   38.7720 H   0  0  0  0  0  0  0  0  0  0  0  0
   36.4490   26.7520   42.0160 H   0  0  0  0  0  0  0  0  0  0  0  0
   38.1170   26.3540   42.6420 H   0  0  0  0  0  0  0  0  0  0  0  0
   35.9210   24.4660   41.6240 H   0  0  0  0  0  0  0  0  0  0  0  0
   36.8120   24.5220   43.1940 H   0  0  0  0  0  0  0  0  0  0  0  0
   38.0530   22.8040   42.2180 H   0  0  0  0  0  0  0  0  0  0  0  0
   37.6950   23.4370   40.5660 H   0  0  0  0  0  0  0  0  0  0  0  0
   40.0900   23.7560   41.2020 H   0  0  0  0  0  0  0  0  0  0  0  0
   39.5310   24.8580   42.4830 H   0  0  0  0  0  0  0  0  0  0  0  0
   39.9890   26.2430   40.5480 H   0  0  0  0  0  0  0  0  0  0  0  0
   39.2410   25.0330   39.4520 H   0  0  0  0  0  0  0  0  0  0  0  0
   36.0410   29.7540   37.6790 C   0  0  0  0  0  0  0  0  0  0  0  0
   35.0370   30.0930   38.0250 H   0  0  0  0  0  0  0  0  0  0  0  0
   35.9740   29.6970   36.5650 H   0  0  0  0  0  0  0  0  0  0  0  0
   36.9870   31.6740   38.9010 C   0  0  0  0  0  3  0  0  0  0  0  0
   37.1350   30.6740   38.0450 C   0  0  0  0  0  3  0  0  0  0  0  0
   38.1590   32.5150   39.1760 C   0  0  0  0  0  0  0  0  0  0  0  0
   38.1020   33.6130   40.0740 C   0  0  0  0  0  0  0  0  0  0  0  0
   39.2600   34.3460   40.2660 C   0  0  0  0  0  0  0  0  0  0  0  0
   40.3770   33.9970   39.6090 N   0  0  0  0  0  0  0  0  0  0  0  0
   40.4160   32.9400   38.7490 C   0  0  0  0  0  0  0  0  0  0  0  0
   39.3270   32.2120   38.5370 N   0  0  0  0  0  0  0  0  0  0  0  0
   37.1470   33.8140   40.5580 H   0  0  0  0  0  0  0  0  0  0  0  0
   39.1880   35.1600   40.9430 H   0  0  0  0  0  0  0  0  0  0  0  0
   41.7410   32.7470   38.1470 C   0  0  0  0  0  2  0  0  0  0  0  0
   41.7230   31.6360   37.1210 C   0  0  0  0  0  2  0  0  0  0  0  0
   41.3970   32.0470   36.1390 H   0  0  0  0  0  0  0  0  0  0  0  0
  1  5  1  0  0  0  0
  2  1  2  0  0  0  0
  2  3  1  0  0  0  0
  3 13  1  0  0  0  0
  3  4  1  0  0  0  0
  4  6  1  0  0  0  0
  5  4  2  0  0  0  0
  6  7  1  0  0  0  0
  7 14  1  0  0  0  0
  7  8  1  0  0  0  0
  7 15  1  0  0  0  0
  8 17  1  0  0  0  0
  9  8  1  0  0  0  0
  9 18  1  0  0  0  0
 10  9  1  0  0  0  0
 10 21  1  0  0  0  0
 11  6  1  0  0  0  0
 11 22  1  0  0  0  0
 11 10  1  0  0  0  0
 12  2  1  0  0  0  0
 16  8  1  0  0  0  0
 19  9  1  0  0  0  0
 20 10  1  0  0  0  0
 23 11  1  0  0  0  0
 24 25  1  0  0  0  0
 24 28  1  0  0  0  0
 24  1  1  0  0  0  0
 26 24  1  0  0  0  0
 27 29  1  0  0  0  0
 28 27  2  0  0  0  0
 29 30  1  0  0  0  0
 30 31  2  0  0  0  0
 30 35  1  0  0  0  0
 31 36  1  0  0  0  0
 32 31  1  0  0  0  0
 33 32  2  0  0  0  0
 34 33  1  0  0  0  0
 34 29  2  0  0  0  0
 37 33  1  0  0  0  0
 38 37  1  0  0  0  0
 39 38  1  0  0  0  0
M  END
>  <minimizedAffinity>
-5.03169966

$$$$
