
 OpenBabel03252504413D

 39 41  0  0  0  0  0  0  0  0999 V2000
   46.1480   32.3700   47.8990 C   0  0  0  0  0  0  0  0  0  0  0  0
   45.7220   31.7160   49.0160 C   0  0  0  0  0  0  0  0  0  0  0  0
   46.7670   31.0350   49.4910 N   0  0  0  0  0  0  0  0  0  0  0  0
   47.8430   31.2280   48.7220 C   0  0  0  0  0  0  0  0  0  0  0  0
   47.4460   32.0640   47.7290 N   0  0  0  0  0  0  0  0  0  0  0  0
   49.1710   30.7300   48.8100 N   0  0  0  0  0  0  0  0  0  0  0  0
   50.1400   31.4990   49.6100 C   0  0  0  0  0  0  0  0  0  0  0  0
   50.2900   30.7030   50.9070 C   0  0  0  0  0  0  0  0  0  0  0  0
   50.5160   29.2370   50.5900 C   0  0  0  0  0  0  0  0  0  0  0  0
   50.9260   29.0820   49.1350 C   0  0  0  0  0  0  0  0  0  0  0  0
   49.8050   29.5650   48.2510 C   0  0  0  0  0  0  0  0  0  0  0  0
   44.7270   31.7210   49.4710 H   0  0  0  0  0  0  0  0  0  0  0  0
   46.7880   30.4280   50.3370 H   0  0  0  0  0  0  0  0  0  0  0  0
   49.7210   32.4920   49.8810 H   0  0  0  0  0  0  0  0  0  0  0  0
   51.1090   31.5870   49.1150 H   0  0  0  0  0  0  0  0  0  0  0  0
   49.4480   30.8650   51.5930 H   0  0  0  0  0  0  0  0  0  0  0  0
   51.2270   31.0780   51.3710 H   0  0  0  0  0  0  0  0  0  0  0  0
   51.2020   28.7460   51.2850 H   0  0  0  0  0  0  0  0  0  0  0  0
   49.5080   28.7530   50.6640 H   0  0  0  0  0  0  0  0  0  0  0  0
   51.1480   28.0270   48.9250 H   0  0  0  0  0  0  0  0  0  0  0  0
   51.8460   29.6620   49.0000 H   0  0  0  0  0  0  0  0  0  0  0  0
   50.1860   29.7120   47.2350 H   0  0  0  0  0  0  0  0  0  0  0  0
   49.0460   28.7350   48.2210 H   0  0  0  0  0  0  0  0  0  0  0  0
   45.3370   33.2600   47.0210 C   0  0  0  0  0  0  0  0  0  0  0  0
   45.1250   34.1730   47.6250 H   0  0  0  0  0  0  0  0  0  0  0  0
   44.3400   32.8110   46.7910 H   0  0  0  0  0  0  0  0  0  0  0  0
   45.4110   33.7780   44.6130 C   0  0  0  0  0  0  0  0  0  0  0  0
   46.0390   33.5390   45.7540 C   0  0  0  0  0  0  0  0  0  0  0  0
   46.2320   34.0420   43.4240 C   0  0  0  0  0  0  0  0  0  0  0  0
   45.6700   34.1130   42.1230 C   0  0  0  0  0  0  0  0  0  0  0  0
   46.5270   34.3670   41.0660 C   0  0  0  0  0  0  0  0  0  0  0  0
   47.8370   34.5330   41.3060 N   0  0  0  0  0  0  0  0  0  0  0  0
   48.3630   34.4610   42.5610 C   0  0  0  0  0  0  0  0  0  0  0  0
   47.5740   34.2200   43.6020 N   0  0  0  0  0  0  0  0  0  0  0  0
   44.5950   33.9640   42.0340 H   0  0  0  0  0  0  0  0  0  0  0  0
   46.0780   34.4150   40.1050 H   0  0  0  0  0  0  0  0  0  0  0  0
   49.8150   34.6750   42.5820 C   0  0  0  0  0  0  0  0  0  0  0  0
   50.5640   33.3890   42.3110 C   0  0  0  0  0  0  0  0  0  0  0  0
   50.6570   33.2430   41.2110 H   0  0  0  0  0  0  0  0  0  0  0  0
  1  2  2  0  0  0  0
  2 12  1  0  0  0  0
  2  3  1  0  0  0  0
  3 13  1  0  0  0  0
  4  6  1  0  0  0  0
  4  3  1  0  0  0  0
  5  1  1  0  0  0  0
  5  4  2  0  0  0  0
  6  7  1  0  0  0  0
  7 14  1  0  0  0  0
  7  8  1  0  0  0  0
  8 17  1  0  0  0  0
  8 16  1  0  0  0  0
  9 19  1  0  0  0  0
  9  8  1  0  0  0  0
  9 18  1  0  0  0  0
 10  9  1  0  0  0  0
 11  6  1  0  0  0  0
 11 10  1  0  0  0  0
 15  7  1  0  0  0  0
 20 10  1  0  0  0  0
 21 10  1  0  0  0  0
 22 11  1  0  0  0  0
 23 11  1  0  0  0  0
 24 25  1  0  0  0  0
 24  1  1  0  0  0  0
 26 24  1  0  0  0  0
 27 28  2  0  0  0  0
 28 24  1  0  0  0  0
 29 34  1  0  0  0  0
 29 27  1  0  0  0  0
 30 29  2  0  0  0  0
 31 32  2  0  0  0  0
 31 30  1  0  0  0  0
 32 33  1  0  0  0  0
 33 37  1  0  0  0  0
 33 34  2  0  0  0  0
 35 30  1  0  0  0  0
 36 31  1  0  0  0  0
 38 37  1  0  0  0  0
 39 38  1  0  0  0  0
M  END
>  <minimizedAffinity>
-6.11847019

>  <minimizedRMSD>
0.996600389

$$$$
