
 OpenBabel03242518453D

 39 41  0  0  1  0  0  0  0  0999 V2000
   47.5240   33.0010   44.2580 C   0  0  2  0  0  0  0  0  0  0  0  0
   47.3920   33.4300   42.8410 C   0  0  1  0  0  0  0  0  0  0  0  0
   47.3100   32.2360   41.8870 C   0  0  0  0  0  0  0  0  0  0  0  0
   48.4500   31.4810   42.1890 O   0  0  0  0  0  0  0  0  0  0  0  0
   48.3140   30.8230   43.3930 C   0  0  0  0  0  0  0  0  0  0  0  0
   47.3590   31.4720   44.3460 C   0  0  1  0  0  0  0  0  0  0  0  0
   48.5190   33.2570   44.6490 H   0  0  0  0  0  0  0  0  0  0  0  0
   48.2920   34.0170   42.5490 H   0  0  0  0  0  0  0  0  0  0  0  0
   46.3830   31.6570   42.0140 H   0  0  0  0  0  0  0  0  0  0  0  0
   47.3750   32.5640   40.8400 H   0  0  0  0  0  0  0  0  0  0  0  0
   47.9390   29.7870   43.1730 H   0  0  0  0  0  0  0  0  0  0  0  0
   49.3050   30.7000   43.8950 H   0  0  0  0  0  0  0  0  0  0  0  0
   46.2940   31.3070   44.0780 H   0  0  0  0  0  0  0  0  0  0  0  0
   45.0320   36.2250   42.8340 C   0  0  0  0  0  0  0  0  0  0  0  0
   43.9900   35.8060   41.9700 C   0  0  0  0  0  0  0  0  0  0  0  0
   44.1560   34.5070   41.3970 C   0  0  0  0  0  0  0  0  0  0  0  0
   45.2580   33.7960   41.7090 N   0  0  0  0  0  0  0  0  0  0  0  0
   46.2090   34.2520   42.5360 C   0  0  0  0  0  0  0  0  0  0  0  0
   46.0950   35.4740   43.0990 N   0  0  0  0  0  0  0  0  0  0  0  0
   43.1340   36.4390   41.7690 H   0  0  0  0  0  0  0  0  0  0  0  0
   43.3630   34.1790   40.7340 H   0  0  0  0  0  0  0  0  0  0  0  0
   44.8860   37.4630   43.3910 O   0  0  0  0  0  0  0  0  0  0  0  0
   45.5540   37.7940   44.0870 H   0  0  0  0  0  0  0  0  0  0  0  0
   46.5810   33.5830   45.1130 O   0  0  0  0  0  0  0  0  0  0  0  0
   45.6890   33.1910   44.9120 H   0  0  0  0  0  0  0  0  0  0  0  0
   47.5660   31.1250   45.6600 O   0  0  0  0  0  0  0  0  0  0  0  0
   46.1220   28.8710   45.2990 F   0  0  0  0  0  0  0  0  0  0  0  0
   46.1100   29.6260   46.4180 C   0  0  0  0  0  0  0  0  0  0  0  0
   46.8150   30.7820   46.6900 C   0  0  0  0  0  0  0  0  0  0  0  0
   46.5910   31.3210   47.9480 C   0  0  0  0  0  0  0  0  0  0  0  0
   45.7600   30.8280   48.9180 C   0  0  0  0  0  0  0  0  0  0  0  0
   45.0930   29.6860   48.5940 C   0  0  0  0  0  0  0  0  0  0  0  0
   45.2400   29.0590   47.3610 C   0  0  0  0  0  0  0  0  0  0  0  0
   47.1880   32.2410   48.0880 H   0  0  0  0  0  0  0  0  0  0  0  0
   45.7000   31.3740   49.8500 H   0  0  0  0  0  0  0  0  0  0  0  0
   44.4210   29.2670   49.3590 H   0  0  0  0  0  0  0  0  0  0  0  0
   44.4500   27.8110   47.1770 C   0  0  0  0  0  0  0  0  0  0  0  0
   44.7250   26.9610   48.3970 C   0  0  0  0  0  0  0  0  0  0  0  0
   43.9790   26.1770   48.5890 H   0  0  0  0  0  0  0  0  0  0  0  0
  1  6  1  0  0  0  0
  1  7  1  1  0  0  0
  1 24  1  0  0  0  0
  2  8  1  6  0  0  0
  2  1  1  0  0  0  0
  3  9  1  0  0  0  0
  3  4  1  0  0  0  0
  3  2  1  0  0  0  0
  4  5  1  0  0  0  0
  5 12  1  0  0  0  0
  5  6  1  0  0  0  0
  6 13  1  6  0  0  0
  6 26  1  0  0  0  0
 10  3  1  0  0  0  0
 11  5  1  0  0  0  0
 14 19  1  0  0  0  0
 14 22  1  0  0  0  0
 15 14  2  0  0  0  0
 16 17  2  0  0  0  0
 16 15  1  0  0  0  0
 17 18  1  0  0  0  0
 18  2  1  0  0  0  0
 18 19  2  0  0  0  0
 20 15  1  0  0  0  0
 21 16  1  0  0  0  0
 22 23  1  0  0  0  0
 25 24  1  0  0  0  0
 26 29  1  0  0  0  0
 27 28  1  0  0  0  0
 28 29  2  0  0  0  0
 28 33  1  0  0  0  0
 29 30  1  0  0  0  0
 30 34  1  0  0  0  0
 30 31  2  0  0  0  0
 31 35  1  0  0  0  0
 32 31  1  0  0  0  0
 32 36  1  0  0  0  0
 33 32  2  0  0  0  0
 37 33  1  0  0  0  0
 37 38  1  0  0  0  0
 38 39  1  0  0  0  0
M  END
>  <minimizedAffinity>
-5.1431632

>  <minimizedRMSD>
0.730078816

$$$$
