
 OpenBabel03252502543D

 25 26  0  0  0  0  0  0  0  0999 V2000
   35.7910   29.0750   40.6860 Br  0  0  0  0  0  0  0  0  0  0  0  0
   37.3990   29.9220   41.3200 C   0  0  0  0  0  0  0  0  0  0  0  0
   37.9260   29.4180   42.4840 C   0  0  0  0  0  0  0  0  0  0  0  0
   39.0960   30.0500   42.9140 C   0  0  0  0  0  0  0  0  0  0  0  0
   39.6860   31.0980   42.2320 C   0  0  0  0  0  0  0  0  0  0  0  0
   39.0990   31.5370   41.0850 C   0  0  0  0  0  0  0  0  0  0  0  0
   37.9280   30.9560   40.5920 C   0  0  0  0  0  0  0  0  0  0  0  0
   39.5640   29.6990   43.8340 H   0  0  0  0  0  0  0  0  0  0  0  0
   40.5940   31.5780   42.5820 H   0  0  0  0  0  0  0  0  0  0  0  0
   39.5460   32.3490   40.5490 H   0  0  0  0  0  0  0  0  0  0  0  0
   37.3880   28.3110   43.2890 C   0  0  0  0  0  0  0  0  0  0  0  0
   37.5120   28.5840   44.3630 H   0  0  0  0  0  0  0  0  0  0  0  0
   36.3070   28.1700   43.0650 H   0  0  0  0  0  0  0  0  0  0  0  0
   39.9500   25.6080   43.4810 C   0  0  0  0  0  0  0  0  0  0  0  0
   39.3870   24.6110   42.6830 C   0  0  0  0  0  0  0  0  0  0  0  0
   38.1470   24.8890   42.0990 C   0  0  0  0  0  0  0  0  0  0  0  0
   37.5570   26.0820   42.3250 N   0  0  0  0  0  0  0  0  0  0  0  0
   38.1410   27.0310   43.1130 C   0  0  0  0  0  0  0  0  0  0  0  0
   39.3320   26.7770   43.6800 N   0  0  0  0  0  0  0  0  0  0  0  0
   40.9180   25.4480   43.9630 H   0  0  0  0  0  0  0  0  0  0  0  0
   39.9550   23.6830   42.5680 H   0  0  0  0  0  0  0  0  0  0  0  0
   37.7630   24.0960   41.5000 H   0  0  0  0  0  0  0  0  0  0  0  0
   37.3370   31.4880   39.3400 C   0  0  0  0  0  2  0  0  0  0  0  0
   37.3270   33.0250   39.3890 C   0  0  0  0  0  2  0  0  0  0  0  0
   38.1420   33.4380   38.7410 H   0  0  0  0  0  0  0  0  0  0  0  0
  1  2  1  0  0  0  0
  2  3  1  0  0  0  0
  3  4  2  0  0  0  0
  3 11  1  0  0  0  0
  4  8  1  0  0  0  0
  5  9  1  0  0  0  0
  5  4  1  0  0  0  0
  6  5  2  0  0  0  0
  7  6  1  0  0  0  0
  7  2  2  0  0  0  0
 10  6  1  0  0  0  0
 11 12  1  0  0  0  0
 13 11  1  0  0  0  0
 14 19  1  0  0  0  0
 14 20  1  0  0  0  0
 15 14  2  0  0  0  0
 16 17  2  0  0  0  0
 16 15  1  0  0  0  0
 17 18  1  0  0  0  0
 18 11  1  0  0  0  0
 18 19  2  0  0  0  0
 21 15  1  0  0  0  0
 22 16  1  0  0  0  0
 23 24  1  0  0  0  0
 23  7  1  0  0  0  0
 25 24  1  0  0  0  0
M  END
>  <minimizedAffinity>
-4.88300133

$$$$

 OpenBabel03252502543D

 25 26  0  0  0  0  0  0  0  0999 V2000
   36.6020   26.2000   39.5680 Br  0  0  0  0  0  0  0  0  0  0  0  0
   37.1650   26.9070   41.2680 C   0  0  0  0  0  0  0  0  0  0  0  0
   36.5980   28.1000   41.6420 C   0  0  0  0  0  0  0  0  0  0  0  0
   37.0230   28.5830   42.8830 C   0  0  0  0  0  0  0  0  0  0  0  0
   37.9390   27.9230   43.6790 C   0  0  0  0  0  0  0  0  0  0  0  0
   38.4550   26.7430   43.2340 C   0  0  0  0  0  0  0  0  0  0  0  0
   38.0780   26.1980   42.0050 C   0  0  0  0  0  0  0  0  0  0  0  0
   36.6120   29.5280   43.2370 H   0  0  0  0  0  0  0  0  0  0  0  0
   38.2590   28.3140   44.6400 H   0  0  0  0  0  0  0  0  0  0  0  0
   39.1660   26.2240   43.8420 H   0  0  0  0  0  0  0  0  0  0  0  0
   35.6160   28.8870   40.8800 C   0  0  0  0  0  0  0  0  0  0  0  0
   35.1970   28.2250   40.0860 H   0  0  0  0  0  0  0  0  0  0  0  0
   34.7960   29.2230   41.5530 H   0  0  0  0  0  0  0  0  0  0  0  0
   37.0730   32.2130   40.0310 C   0  0  0  0  0  0  0  0  0  0  0  0
   37.3340   32.0810   38.6660 C   0  0  0  0  0  0  0  0  0  0  0  0
   37.0040   30.8590   38.0710 C   0  0  0  0  0  0  0  0  0  0  0  0
   36.4600   29.8780   38.8220 N   0  0  0  0  0  0  0  0  0  0  0  0
   36.2210   30.0470   40.1550 C   0  0  0  0  0  0  0  0  0  0  0  0
   36.5330   31.2160   40.7390 N   0  0  0  0  0  0  0  0  0  0  0  0
   37.3090   33.1450   40.5500 H   0  0  0  0  0  0  0  0  0  0  0  0
   37.7760   32.9430   38.1560 H   0  0  0  0  0  0  0  0  0  0  0  0
   37.2230   30.8110   37.0290 H   0  0  0  0  0  0  0  0  0  0  0  0
   38.6840   24.9130   41.5770 C   0  0  0  0  0  2  0  0  0  0  0  0
   39.6120   24.3880   42.6850 C   0  0  0  0  0  2  0  0  0  0  0  0
   39.1200   23.5450   43.2360 H   0  0  0  0  0  0  0  0  0  0  0  0
  1  2  1  0  0  0  0
  2  3  2  0  0  0  0
  2  7  1  0  0  0  0
  3  4  1  0  0  0  0
  4  8  1  0  0  0  0
  4  5  2  0  0  0  0
  5  9  1  0  0  0  0
  6  5  1  0  0  0  0
  6 10  1  0  0  0  0
  7  6  2  0  0  0  0
 11 13  1  0  0  0  0
 11  3  1  0  0  0  0
 12 11  1  0  0  0  0
 14 20  1  0  0  0  0
 14 19  1  0  0  0  0
 15 14  2  0  0  0  0
 16 15  1  0  0  0  0
 16 17  2  0  0  0  0
 17 18  1  0  0  0  0
 18 19  2  0  0  0  0
 18 11  1  0  0  0  0
 21 15  1  0  0  0  0
 22 16  1  0  0  0  0
 23  7  1  0  0  0  0
 23 24  1  0  0  0  0
 24 25  1  0  0  0  0
M  END
>  <minimizedAffinity>
-4.86182833

$$$$

 OpenBabel03252502543D

 25 26  0  0  0  0  0  0  0  0999 V2000
   38.9980   27.5740   39.4420 Br  0  0  0  0  0  0  0  0  0  0  0  0
   38.2510   27.8410   41.1970 C   0  0  0  0  0  0  0  0  0  0  0  0
   38.6140   29.0010   41.8350 C   0  0  0  0  0  0  0  0  0  0  0  0
   38.0500   29.1670   43.1030 C   0  0  0  0  0  0  0  0  0  0  0  0
   37.1970   28.2470   43.6800 C   0  0  0  0  0  0  0  0  0  0  0  0
   36.8880   27.1210   42.9790 C   0  0  0  0  0  0  0  0  0  0  0  0
   37.4120   26.8840   41.7060 C   0  0  0  0  0  0  0  0  0  0  0  0
   38.3000   30.0680   43.6650 H   0  0  0  0  0  0  0  0  0  0  0  0
   36.7700   28.3920   44.6670 H   0  0  0  0  0  0  0  0  0  0  0  0
   36.2280   26.4000   43.4160 H   0  0  0  0  0  0  0  0  0  0  0  0
   39.5090   30.0480   41.3200 C   0  0  0  0  0  0  0  0  0  0  0  0
   40.0800   30.4590   42.1850 H   0  0  0  0  0  0  0  0  0  0  0  0
   40.2190   29.6110   40.5820 H   0  0  0  0  0  0  0  0  0  0  0  0
   37.1140   32.1870   39.4230 C   0  0  0  0  0  0  0  0  0  0  0  0
   37.5530   33.4730   39.7410 C   0  0  0  0  0  0  0  0  0  0  0  0
   38.6560   33.5760   40.5940 C   0  0  0  0  0  0  0  0  0  0  0  0
   39.2400   32.4550   41.0660 N   0  0  0  0  0  0  0  0  0  0  0  0
   38.7800   31.2140   40.7320 C   0  0  0  0  0  0  0  0  0  0  0  0
   37.7210   31.1010   39.9140 N   0  0  0  0  0  0  0  0  0  0  0  0
   36.2570   32.0440   38.7610 H   0  0  0  0  0  0  0  0  0  0  0  0
   37.0050   34.3120   39.2990 H   0  0  0  0  0  0  0  0  0  0  0  0
   38.9500   34.5790   40.8030 H   0  0  0  0  0  0  0  0  0  0  0  0
   37.0390   25.6340   41.0000 C   0  0  0  0  0  2  0  0  0  0  0  0
   36.9570   24.4780   42.0110 C   0  0  0  0  0  2  0  0  0  0  0  0
   35.8860   24.2320   42.2320 H   0  0  0  0  0  0  0  0  0  0  0  0
  1  2  1  0  0  0  0
  2  7  2  0  0  0  0
  2  3  1  0  0  0  0
  3  4  2  0  0  0  0
  4  8  1  0  0  0  0
  4  5  1  0  0  0  0
  5  9  1  0  0  0  0
  6 10  1  0  0  0  0
  6  5  2  0  0  0  0
  7  6  1  0  0  0  0
 11  3  1  0  0  0  0
 11 12  1  0  0  0  0
 13 11  1  0  0  0  0
 14 15  2  0  0  0  0
 14 19  1  0  0  0  0
 15 16  1  0  0  0  0
 16 22  1  0  0  0  0
 16 17  2  0  0  0  0
 18 17  1  0  0  0  0
 18 11  1  0  0  0  0
 19 18  2  0  0  0  0
 20 14  1  0  0  0  0
 21 15  1  0  0  0  0
 23  7  1  0  0  0  0
 23 24  1  0  0  0  0
 24 25  1  0  0  0  0
M  END
>  <minimizedAffinity>
-4.82558393

$$$$

 OpenBabel03252502543D

 25 26  0  0  0  0  0  0  0  0999 V2000
   41.4450   28.6850   42.8720 Br  0  0  0  0  0  0  0  0  0  0  0  0
   39.5440   28.3790   42.9040 C   0  0  0  0  0  0  0  0  0  0  0  0
   38.7570   29.4430   42.5390 C   0  0  0  0  0  0  0  0  0  0  0  0
   37.3830   29.1860   42.5670 C   0  0  0  0  0  0  0  0  0  0  0  0
   36.8480   27.9650   42.9300 C   0  0  0  0  0  0  0  0  0  0  0  0
   37.7000   26.9610   43.2790 C   0  0  0  0  0  0  0  0  0  0  0  0
   39.0840   27.1420   43.2750 C   0  0  0  0  0  0  0  0  0  0  0  0
   36.7020   29.9910   42.2900 H   0  0  0  0  0  0  0  0  0  0  0  0
   35.7780   27.7840   42.9470 H   0  0  0  0  0  0  0  0  0  0  0  0
   37.2960   26.0110   43.5630 H   0  0  0  0  0  0  0  0  0  0  0  0
   39.2140   30.7810   42.1340 C   0  0  0  0  0  0  0  0  0  0  0  0
   38.8330   31.5100   42.8860 H   0  0  0  0  0  0  0  0  0  0  0  0
   40.3270   30.8120   42.1200 H   0  0  0  0  0  0  0  0  0  0  0  0
   37.2990   32.5750   39.4850 C   0  0  0  0  0  0  0  0  0  0  0  0
   37.7190   31.9230   38.3250 C   0  0  0  0  0  0  0  0  0  0  0  0
   38.6460   30.8870   38.4780 C   0  0  0  0  0  0  0  0  0  0  0  0
   39.0870   30.5640   39.7120 N   0  0  0  0  0  0  0  0  0  0  0  0
   38.6510   31.2280   40.8230 C   0  0  0  0  0  0  0  0  0  0  0  0
   37.7620   32.2250   40.6900 N   0  0  0  0  0  0  0  0  0  0  0  0
   36.5760   33.3930   39.4280 H   0  0  0  0  0  0  0  0  0  0  0  0
   37.2940   32.2660   37.3760 H   0  0  0  0  0  0  0  0  0  0  0  0
   38.9320   30.4230   37.5620 H   0  0  0  0  0  0  0  0  0  0  0  0
   39.9540   26.0090   43.6730 C   0  0  0  0  0  2  0  0  0  0  0  0
   39.5670   24.7560   42.8690 C   0  0  0  0  0  2  0  0  0  0  0  0
   40.3210   24.5660   42.0620 H   0  0  0  0  0  0  0  0  0  0  0  0
  1  2  1  0  0  0  0
  2  7  1  0  0  0  0
  3  4  1  0  0  0  0
  3  2  2  0  0  0  0
  4  5  2  0  0  0  0
  5  9  1  0  0  0  0
  5  6  1  0  0  0  0
  6 10  1  0  0  0  0
  7  6  2  0  0  0  0
  7 23  1  0  0  0  0
  8  4  1  0  0  0  0
 11  3  1  0  0  0  0
 11 12  1  0  0  0  0
 13 11  1  0  0  0  0
 14 19  1  0  0  0  0
 15 16  1  0  0  0  0
 15 14  2  0  0  0  0
 16 17  2  0  0  0  0
 17 18  1  0  0  0  0
 18 11  1  0  0  0  0
 19 18  2  0  0  0  0
 20 14  1  0  0  0  0
 21 15  1  0  0  0  0
 22 16  1  0  0  0  0
 24 23  1  0  0  0  0
 25 24  1  0  0  0  0
M  END
>  <minimizedAffinity>
-4.75682497

$$$$

 OpenBabel03252502543D

 25 26  0  0  0  0  0  0  0  0999 V2000
   38.1890   30.9120   38.7170 Br  0  0  0  0  0  0  0  0  0  0  0  0
   36.4890   30.0150   38.6140 C   0  0  0  0  0  0  0  0  0  0  0  0
   35.8000   29.8940   39.7960 C   0  0  0  0  0  0  0  0  0  0  0  0
   34.5670   29.2440   39.6870 C   0  0  0  0  0  0  0  0  0  0  0  0
   34.0720   28.7560   38.4930 C   0  0  0  0  0  0  0  0  0  0  0  0
   34.8190   28.9160   37.3660 C   0  0  0  0  0  0  0  0  0  0  0  0
   36.0600   29.5560   37.3960 C   0  0  0  0  0  0  0  0  0  0  0  0
   33.9710   29.1140   40.5900 H   0  0  0  0  0  0  0  0  0  0  0  0
   33.1130   28.2510   38.4270 H   0  0  0  0  0  0  0  0  0  0  0  0
   34.4450   28.5420   36.4350 H   0  0  0  0  0  0  0  0  0  0  0  0
   36.2270   30.3740   41.1190 C   0  0  0  0  0  0  0  0  0  0  0  0
   36.9180   31.2350   40.9590 H   0  0  0  0  0  0  0  0  0  0  0  0
   35.3420   30.7140   41.7020 H   0  0  0  0  0  0  0  0  0  0  0  0
   38.9070   28.6370   43.0440 C   0  0  0  0  0  0  0  0  0  0  0  0
   38.3300   27.3900   43.2920 C   0  0  0  0  0  0  0  0  0  0  0  0
   37.0410   27.1750   42.7930 C   0  0  0  0  0  0  0  0  0  0  0  0
   36.4190   28.1590   42.1090 N   0  0  0  0  0  0  0  0  0  0  0  0
   37.0180   29.3650   41.8890 C   0  0  0  0  0  0  0  0  0  0  0  0
   38.2550   29.5850   42.3620 N   0  0  0  0  0  0  0  0  0  0  0  0
   39.9120   28.8630   43.4090 H   0  0  0  0  0  0  0  0  0  0  0  0
   38.9270   26.6670   43.8560 H   0  0  0  0  0  0  0  0  0  0  0  0
   36.6490   26.2080   43.0090 H   0  0  0  0  0  0  0  0  0  0  0  0
   36.8260   29.6910   36.1330 C   0  0  0  0  0  2  0  0  0  0  0  0
   37.5410   28.3660   35.8210 C   0  0  0  0  0  2  0  0  0  0  0  0
   37.0040   27.8210   35.0020 H   0  0  0  0  0  0  0  0  0  0  0  0
  2  1  1  0  0  0  0
  2  3  1  0  0  0  0
  3 11  1  0  0  0  0
  4  3  2  0  0  0  0
  4  8  1  0  0  0  0
  5  4  1  0  0  0  0
  6  7  1  0  0  0  0
  6  5  2  0  0  0  0
  7  2  2  0  0  0  0
  9  5  1  0  0  0  0
 10  6  1  0  0  0  0
 11 13  1  0  0  0  0
 11 18  1  0  0  0  0
 12 11  1  0  0  0  0
 14 15  1  0  0  0  0
 14 20  1  0  0  0  0
 15 21  1  0  0  0  0
 16 22  1  0  0  0  0
 16 15  2  0  0  0  0
 17 16  1  0  0  0  0
 18 17  2  0  0  0  0
 18 19  1  0  0  0  0
 19 14  2  0  0  0  0
 23  7  1  0  0  0  0
 24 23  1  0  0  0  0
 25 24  1  0  0  0  0
M  END
>  <minimizedAffinity>
-4.71868324

$$$$

 OpenBabel03252502543D

 25 26  0  0  0  0  0  0  0  0999 V2000
   39.2310   30.2570   42.5300 Br  0  0  0  0  0  0  0  0  0  0  0  0
   37.6890   29.8590   41.4480 C   0  0  0  0  0  0  0  0  0  0  0  0
   36.8630   28.8680   41.9190 C   0  0  0  0  0  0  0  0  0  0  0  0
   35.7500   28.6070   41.1150 C   0  0  0  0  0  0  0  0  0  0  0  0
   35.4910   29.2830   39.9380 C   0  0  0  0  0  0  0  0  0  0  0  0
   36.3610   30.2530   39.5410 C   0  0  0  0  0  0  0  0  0  0  0  0
   37.4950   30.5700   40.2930 C   0  0  0  0  0  0  0  0  0  0  0  0
   35.0550   27.8300   41.4320 H   0  0  0  0  0  0  0  0  0  0  0  0
   34.6220   29.0660   39.3250 H   0  0  0  0  0  0  0  0  0  0  0  0
   36.1710   30.7830   38.6310 H   0  0  0  0  0  0  0  0  0  0  0  0
   37.0380   28.0870   43.1530 C   0  0  0  0  0  0  0  0  0  0  0  0
   37.6470   28.7000   43.8570 H   0  0  0  0  0  0  0  0  0  0  0  0
   36.0450   27.8750   43.6110 H   0  0  0  0  0  0  0  0  0  0  0  0
   39.7190   25.4940   43.1310 C   0  0  0  0  0  0  0  0  0  0  0  0
   39.0880   24.4240   42.4950 C   0  0  0  0  0  0  0  0  0  0  0  0
   37.7630   24.6160   42.0900 C   0  0  0  0  0  0  0  0  0  0  0  0
   37.1600   25.8010   42.3230 N   0  0  0  0  0  0  0  0  0  0  0  0
   37.8120   26.8230   42.9490 C   0  0  0  0  0  0  0  0  0  0  0  0
   39.0840   26.6520   43.3440 N   0  0  0  0  0  0  0  0  0  0  0  0
   40.7540   25.4030   43.4700 H   0  0  0  0  0  0  0  0  0  0  0  0
   39.6740   23.5100   42.3560 H   0  0  0  0  0  0  0  0  0  0  0  0
   37.3300   23.7690   41.6090 H   0  0  0  0  0  0  0  0  0  0  0  0
   38.4060   31.6320   39.7990 C   0  0  0  0  0  2  0  0  0  0  0  0
   37.7760   33.0100   40.0590 C   0  0  0  0  0  2  0  0  0  0  0  0
   38.2760   33.5060   40.9310 H   0  0  0  0  0  0  0  0  0  0  0  0
  2  3  1  0  0  0  0
  2  1  1  0  0  0  0
  3 11  1  0  0  0  0
  4  8  1  0  0  0  0
  4  3  2  0  0  0  0
  5  4  1  0  0  0  0
  6  5  2  0  0  0  0
  6  7  1  0  0  0  0
  7  2  2  0  0  0  0
  9  5  1  0  0  0  0
 10  6  1  0  0  0  0
 11 13  1  0  0  0  0
 11 12  1  0  0  0  0
 14 19  1  0  0  0  0
 14 20  1  0  0  0  0
 15 14  2  0  0  0  0
 16 17  2  0  0  0  0
 16 15  1  0  0  0  0
 17 18  1  0  0  0  0
 18 11  1  0  0  0  0
 18 19  2  0  0  0  0
 21 15  1  0  0  0  0
 22 16  1  0  0  0  0
 23 24  1  0  0  0  0
 23  7  1  0  0  0  0
 24 25  1  0  0  0  0
M  END
>  <minimizedAffinity>
-4.63951302

$$$$

 OpenBabel03252502543D

 25 26  0  0  0  0  0  0  0  0999 V2000
   35.9730   27.7730   39.0930 Br  0  0  0  0  0  0  0  0  0  0  0  0
   36.6990   27.9060   40.8710 C   0  0  0  0  0  0  0  0  0  0  0  0
   36.7750   29.1730   41.3970 C   0  0  0  0  0  0  0  0  0  0  0  0
   37.3000   29.2350   42.6910 C   0  0  0  0  0  0  0  0  0  0  0  0
   37.7140   28.1200   43.3940 C   0  0  0  0  0  0  0  0  0  0  0  0
   37.6050   26.9000   42.8000 C   0  0  0  0  0  0  0  0  0  0  0  0
   37.0890   26.7580   41.5090 C   0  0  0  0  0  0  0  0  0  0  0  0
   37.3890   30.2120   43.1650 H   0  0  0  0  0  0  0  0  0  0  0  0
   38.1220   28.1870   44.3980 H   0  0  0  0  0  0  0  0  0  0  0  0
   37.9230   26.0290   43.3350 H   0  0  0  0  0  0  0  0  0  0  0  0
   36.3640   30.4250   40.7440 C   0  0  0  0  0  0  0  0  0  0  0  0
   35.7640   30.1550   39.8440 H   0  0  0  0  0  0  0  0  0  0  0  0
   35.7380   31.0270   41.4390 H   0  0  0  0  0  0  0  0  0  0  0  0
   39.5500   31.4860   39.1210 C   0  0  0  0  0  0  0  0  0  0  0  0
   39.5530   32.8630   39.3500 C   0  0  0  0  0  0  0  0  0  0  0  0
   38.4660   33.3920   40.0540 C   0  0  0  0  0  0  0  0  0  0  0  0
   37.4810   32.5720   40.4740 N   0  0  0  0  0  0  0  0  0  0  0  0
   37.5150   31.2300   40.2290 C   0  0  0  0  0  0  0  0  0  0  0  0
   38.5530   30.7080   39.5540 N   0  0  0  0  0  0  0  0  0  0  0  0
   40.3730   31.0150   38.5770 H   0  0  0  0  0  0  0  0  0  0  0  0
   40.4050   33.4310   38.9650 H   0  0  0  0  0  0  0  0  0  0  0  0
   38.5190   34.4460   40.2020 H   0  0  0  0  0  0  0  0  0  0  0  0
   37.0050   25.4000   40.9190 C   0  0  0  0  0  2  0  0  0  0  0  0
   37.2080   24.3470   42.0190 C   0  0  0  0  0  2  0  0  0  0  0  0
   36.2270   23.8820   42.2970 H   0  0  0  0  0  0  0  0  0  0  0  0
  1  2  1  0  0  0  0
  2  3  2  0  0  0  0
  2  7  1  0  0  0  0
  3  4  1  0  0  0  0
  4  8  1  0  0  0  0
  4  5  2  0  0  0  0
  5  9  1  0  0  0  0
  6 10  1  0  0  0  0
  6  5  1  0  0  0  0
  7  6  2  0  0  0  0
 11  3  1  0  0  0  0
 11 13  1  0  0  0  0
 12 11  1  0  0  0  0
 14 15  2  0  0  0  0
 14 19  1  0  0  0  0
 15 16  1  0  0  0  0
 16 22  1  0  0  0  0
 16 17  2  0  0  0  0
 18 17  1  0  0  0  0
 18 11  1  0  0  0  0
 19 18  2  0  0  0  0
 20 14  1  0  0  0  0
 21 15  1  0  0  0  0
 23  7  1  0  0  0  0
 23 24  1  0  0  0  0
 24 25  1  0  0  0  0
M  END
>  <minimizedAffinity>
-4.63520718

$$$$

 OpenBabel03252502543D

 25 26  0  0  0  0  0  0  0  0999 V2000
   39.5280   28.9850   38.6610 Br  0  0  0  0  0  0  0  0  0  0  0  0
   38.6750   30.6340   39.1710 C   0  0  0  0  0  0  0  0  0  0  0  0
   39.0250   31.1370   40.4000 C   0  0  0  0  0  0  0  0  0  0  0  0
   38.3930   32.3370   40.7380 C   0  0  0  0  0  0  0  0  0  0  0  0
   37.4880   32.9750   39.9130 C   0  0  0  0  0  0  0  0  0  0  0  0
   37.1960   32.4090   38.7090 C   0  0  0  0  0  0  0  0  0  0  0  0
   37.7870   31.2110   38.3020 C   0  0  0  0  0  0  0  0  0  0  0  0
   38.6260   32.7890   41.7030 H   0  0  0  0  0  0  0  0  0  0  0  0
   37.0060   33.9070   40.1930 H   0  0  0  0  0  0  0  0  0  0  0  0
   36.4950   32.8940   38.0620 H   0  0  0  0  0  0  0  0  0  0  0  0
   39.9730   30.5470   41.3570 C   0  0  0  0  0  0  0  0  0  0  0  0
   40.7950   30.0740   40.7700 H   0  0  0  0  0  0  0  0  0  0  0  0
   40.3960   31.3430   42.0110 H   0  0  0  0  0  0  0  0  0  0  0  0
   37.6330   28.3920   43.3030 C   0  0  0  0  0  0  0  0  0  0  0  0
   38.4550   27.3280   43.6770 C   0  0  0  0  0  0  0  0  0  0  0  0
   39.7870   27.3740   43.2550 C   0  0  0  0  0  0  0  0  0  0  0  0
   40.2170   28.4220   42.5200 N   0  0  0  0  0  0  0  0  0  0  0  0
   39.3810   29.4440   42.1750 C   0  0  0  0  0  0  0  0  0  0  0  0
   38.0990   29.4120   42.5740 N   0  0  0  0  0  0  0  0  0  0  0  0
   36.5820   28.4120   43.6040 H   0  0  0  0  0  0  0  0  0  0  0  0
   38.0000   26.5320   44.2750 H   0  0  0  0  0  0  0  0  0  0  0  0
   40.3700   26.5390   43.5670 H   0  0  0  0  0  0  0  0  0  0  0  0
   37.4190   30.6450   36.9810 C   0  0  0  0  0  2  0  0  0  0  0  0
   36.2160   29.7010   37.1430 C   0  0  0  0  0  2  0  0  0  0  0  0
   35.2810   30.1980   36.7750 H   0  0  0  0  0  0  0  0  0  0  0  0
  1  2  1  0  0  0  0
  2  3  1  0  0  0  0
  3  4  2  0  0  0  0
  3 11  1  0  0  0  0
  4  8  1  0  0  0  0
  5  9  1  0  0  0  0
  5  4  1  0  0  0  0
  6  5  2  0  0  0  0
  7  6  1  0  0  0  0
  7  2  2  0  0  0  0
 10  6  1  0  0  0  0
 11 13  1  0  0  0  0
 11 18  1  0  0  0  0
 12 11  1  0  0  0  0
 14 20  1  0  0  0  0
 14 15  1  0  0  0  0
 15 21  1  0  0  0  0
 16 22  1  0  0  0  0
 16 15  2  0  0  0  0
 17 16  1  0  0  0  0
 18 17  2  0  0  0  0
 18 19  1  0  0  0  0
 19 14  2  0  0  0  0
 23 24  1  0  0  0  0
 23  7  1  0  0  0  0
 25 24  1  0  0  0  0
M  END
>  <minimizedAffinity>
-4.21065474

$$$$

 OpenBabel03252502543D

 25 26  0  0  0  0  0  0  0  0999 V2000
   39.0890   24.9790   40.5750 Br  0  0  0  0  0  0  0  0  0  0  0  0
   38.2560   26.3190   41.6780 C   0  0  0  0  0  0  0  0  0  0  0  0
   37.1490   26.9320   41.1470 C   0  0  0  0  0  0  0  0  0  0  0  0
   36.5640   27.8950   41.9740 C   0  0  0  0  0  0  0  0  0  0  0  0
   37.0520   28.2140   43.2270 C   0  0  0  0  0  0  0  0  0  0  0  0
   38.1560   27.5580   43.6800 C   0  0  0  0  0  0  0  0  0  0  0  0
   38.7950   26.5830   42.9100 C   0  0  0  0  0  0  0  0  0  0  0  0
   35.6820   28.4210   41.6100 H   0  0  0  0  0  0  0  0  0  0  0  0
   36.5860   28.9660   43.8560 H   0  0  0  0  0  0  0  0  0  0  0  0
   38.5430   27.7970   44.6490 H   0  0  0  0  0  0  0  0  0  0  0  0
   36.5430   26.6740   39.8320 C   0  0  0  0  0  0  0  0  0  0  0  0
   37.0660   25.7960   39.3860 H   0  0  0  0  0  0  0  0  0  0  0  0
   35.4610   26.4380   39.9530 H   0  0  0  0  0  0  0  0  0  0  0  0
   38.0460   29.2140   37.5520 C   0  0  0  0  0  0  0  0  0  0  0  0
   36.9180   29.8700   37.0580 C   0  0  0  0  0  0  0  0  0  0  0  0
   35.6730   29.4280   37.5170 C   0  0  0  0  0  0  0  0  0  0  0  0
   35.6120   28.4080   38.3990 N   0  0  0  0  0  0  0  0  0  0  0  0
   36.7390   27.7920   38.8590 C   0  0  0  0  0  0  0  0  0  0  0  0
   37.9410   28.2070   38.4260 N   0  0  0  0  0  0  0  0  0  0  0  0
   39.0460   29.5150   37.2300 H   0  0  0  0  0  0  0  0  0  0  0  0
   37.0850   30.6860   36.3470 H   0  0  0  0  0  0  0  0  0  0  0  0
   34.8460   29.9630   37.1090 H   0  0  0  0  0  0  0  0  0  0  0  0
   39.9980   25.9120   43.4610 C   0  0  0  0  0  2  0  0  0  0  0  0
   41.1110   26.9500   43.6790 C   0  0  0  0  0  2  0  0  0  0  0  0
   41.2050   27.1930   44.7690 H   0  0  0  0  0  0  0  0  0  0  0  0
  1  2  1  0  0  0  0
  2  7  1  0  0  0  0
  3  2  2  0  0  0  0
  3  4  1  0  0  0  0
  4  5  2  0  0  0  0
  5  6  1  0  0  0  0
  5  9  1  0  0  0  0
  6 10  1  0  0  0  0
  7 23  1  0  0  0  0
  7  6  2  0  0  0  0
  8  4  1  0  0  0  0
 11 13  1  0  0  0  0
 11  3  1  0  0  0  0
 12 11  1  0  0  0  0
 14 19  1  0  0  0  0
 15 16  1  0  0  0  0
 15 14  2  0  0  0  0
 16 17  2  0  0  0  0
 17 18  1  0  0  0  0
 18 11  1  0  0  0  0
 19 18  2  0  0  0  0
 20 14  1  0  0  0  0
 21 15  1  0  0  0  0
 22 16  1  0  0  0  0
 23 24  1  0  0  0  0
 24 25  1  0  0  0  0
M  END
>  <minimizedAffinity>
-4.20338488

$$$$
