
 OpenBabel03242519343D

 30 31  0  0  0  0  0  0  0  0999 V2000
   42.3720   34.1670   40.8220 C   0  0  0  0  0  0  0  0  0  0  0  0
   42.2790   34.1660   39.3360 C   0  0  0  0  0  0  0  0  0  0  0  0
   41.6600   35.4010   38.7910 C   0  0  0  0  0  0  0  0  0  0  0  0
   40.2920   35.6680   39.4010 C   0  0  0  0  0  0  0  0  0  0  0  0
   40.2670   35.5360   40.8880 C   0  0  0  0  0  0  0  0  0  0  0  0
   41.6420   35.3200   41.4660 C   0  0  0  0  0  0  0  0  0  0  0  0
   41.9340   33.2240   41.2260 H   0  0  0  0  0  0  0  0  0  0  0  0
   41.7260   33.2950   38.9790 H   0  0  0  0  0  0  0  0  0  0  0  0
   43.3220   34.1250   38.9310 H   0  0  0  0  0  0  0  0  0  0  0  0
   42.2680   36.3190   38.8420 H   0  0  0  0  0  0  0  0  0  0  0  0
   41.4640   35.2150   37.7000 H   0  0  0  0  0  0  0  0  0  0  0  0
   39.6260   34.8560   38.9930 H   0  0  0  0  0  0  0  0  0  0  0  0
   39.8740   36.6050   39.0200 H   0  0  0  0  0  0  0  0  0  0  0  0
   39.8920   36.5010   41.2940 H   0  0  0  0  0  0  0  0  0  0  0  0
   39.5720   34.7640   41.2570 H   0  0  0  0  0  0  0  0  0  0  0  0
   42.1830   36.2780   41.3360 H   0  0  0  0  0  0  0  0  0  0  0  0
   41.5550   35.1310   42.5540 H   0  0  0  0  0  0  0  0  0  0  0  0
   43.7720   34.2420   41.2940 C   0  0  0  0  0  0  0  0  0  0  0  0
   43.9650   34.3120   42.6760 C   0  0  0  0  0  0  0  0  0  0  0  0
   45.2570   34.3860   43.1900 C   0  0  0  0  0  0  0  0  0  0  0  0
   46.2890   34.3850   42.2690 N   0  0  0  0  0  0  0  0  0  0  0  0
   46.0740   34.3170   40.9300 C   0  0  0  0  0  0  0  0  0  0  0  0
   44.8280   34.2450   40.4490 N   0  0  0  0  0  0  0  0  0  0  0  0
   47.2370   34.3280   40.1070 N   0  0  0  0  0  0  0  0  0  0  0  0
   43.1860   34.3140   43.4070 H   0  0  0  0  0  0  0  0  0  0  0  0
   48.0390   33.6610   40.1750 H   0  0  0  0  0  0  0  0  0  0  0  0
   47.2940   35.0810   39.3600 H   0  0  0  0  0  0  0  0  0  0  0  0
   45.5000   34.4610   44.6360 C   0  0  0  0  0  0  0  0  0  0  0  0
   44.5820   35.4900   45.2460 C   0  0  0  0  0  0  0  0  0  0  0  0
   44.7640   35.6370   46.3250 H   0  0  0  0  0  0  0  0  0  0  0  0
  1  7  1  0  0  0  0
  1 18  1  0  0  0  0
  1  6  1  0  0  0  0
  2  1  1  0  0  0  0
  3 10  1  0  0  0  0
  3  2  1  0  0  0  0
  3  4  1  0  0  0  0
  4  5  1  0  0  0  0
  5 15  1  0  0  0  0
  5 14  1  0  0  0  0
  5  6  1  0  0  0  0
  6 17  1  0  0  0  0
  8  2  1  0  0  0  0
  9  2  1  0  0  0  0
 11  3  1  0  0  0  0
 12  4  1  0  0  0  0
 13  4  1  0  0  0  0
 16  6  1  0  0  0  0
 18 19  1  0  0  0  0
 19 20  2  0  0  0  0
 19 25  1  0  0  0  0
 20 28  1  0  0  0  0
 21 20  1  0  0  0  0
 22 21  2  0  0  0  0
 23 22  1  0  0  0  0
 23 18  2  0  0  0  0
 24 26  1  0  0  0  0
 24 22  1  0  0  0  0
 27 24  1  0  0  0  0
 28 29  1  0  0  0  0
 29 30  1  0  0  0  0
M  END
>  <minimizedAffinity>
-4.50484324

>  <minimizedRMSD>
5.24248648

$$$$
