
 OpenBabel03242519343D

 30 31  0  0  0  0  0  0  0  0999 V2000
   37.4870   26.6030   42.6200 C   0  0  0  0  0  0  0  0  0  0  0  0
   38.2520   27.3220   43.6760 C   0  0  0  0  0  0  0  0  0  0  0  0
   39.7140   27.0800   43.6020 C   0  0  0  0  0  0  0  0  0  0  0  0
   40.0470   25.5960   43.6340 C   0  0  0  0  0  0  0  0  0  0  0  0
   39.2100   24.7780   42.7070 C   0  0  0  0  0  0  0  0  0  0  0  0
   38.3280   25.6290   41.8310 C   0  0  0  0  0  0  0  0  0  0  0  0
   36.6530   26.0260   43.0860 H   0  0  0  0  0  0  0  0  0  0  0  0
   37.8890   27.0570   44.6710 H   0  0  0  0  0  0  0  0  0  0  0  0
   38.1000   28.4200   43.5160 H   0  0  0  0  0  0  0  0  0  0  0  0
   40.2490   27.5560   42.7650 H   0  0  0  0  0  0  0  0  0  0  0  0
   40.1640   27.5030   44.5420 H   0  0  0  0  0  0  0  0  0  0  0  0
   39.7930   25.2620   44.6790 H   0  0  0  0  0  0  0  0  0  0  0  0
   41.1250   25.4380   43.5340 H   0  0  0  0  0  0  0  0  0  0  0  0
   39.9080   24.2330   42.0340 H   0  0  0  0  0  0  0  0  0  0  0  0
   38.6120   24.0020   43.2120 H   0  0  0  0  0  0  0  0  0  0  0  0
   39.0060   26.1460   41.1240 H   0  0  0  0  0  0  0  0  0  0  0  0
   37.6610   24.9740   41.2370 H   0  0  0  0  0  0  0  0  0  0  0  0
   36.8860   27.5300   41.6360 C   0  0  0  0  0  0  0  0  0  0  0  0
   36.6220   27.0110   40.3660 C   0  0  0  0  0  0  0  0  0  0  0  0
   36.0580   27.8280   39.3900 C   0  0  0  0  0  0  0  0  0  0  0  0
   35.7910   29.1350   39.7570 N   0  0  0  0  0  0  0  0  0  0  0  0
   36.0590   29.6150   40.9980 C   0  0  0  0  0  0  0  0  0  0  0  0
   36.6000   28.8190   41.9270 N   0  0  0  0  0  0  0  0  0  0  0  0
   35.7310   30.9830   41.2260 N   0  0  0  0  0  0  0  0  0  0  0  0
   36.8180   26.0070   40.0580 H   0  0  0  0  0  0  0  0  0  0  0  0
   34.7910   31.4160   41.0860 H   0  0  0  0  0  0  0  0  0  0  0  0
   36.5120   31.6170   41.5680 H   0  0  0  0  0  0  0  0  0  0  0  0
   35.7650   27.3200   38.0440 C   0  0  0  0  0  2  0  0  0  0  0  0
   34.4090   27.8150   37.6060 C   0  0  0  0  0  2  0  0  0  0  0  0
   34.1050   27.4120   36.6250 H   0  0  0  0  0  0  0  0  0  0  0  0
  1  7  1  0  0  0  0
  1  2  1  0  0  0  0
  2  8  1  0  0  0  0
  3  4  1  0  0  0  0
  3  2  1  0  0  0  0
  3 11  1  0  0  0  0
  4 12  1  0  0  0  0
  5 15  1  0  0  0  0
  5  4  1  0  0  0  0
  6  1  1  0  0  0  0
  6  5  1  0  0  0  0
  9  2  1  0  0  0  0
 10  3  1  0  0  0  0
 13  4  1  0  0  0  0
 14  5  1  0  0  0  0
 16  6  1  0  0  0  0
 17  6  1  0  0  0  0
 18 23  1  0  0  0  0
 18  1  1  0  0  0  0
 19 18  2  0  0  0  0
 20 21  2  0  0  0  0
 20 19  1  0  0  0  0
 21 22  1  0  0  0  0
 22 24  1  0  0  0  0
 22 23  2  0  0  0  0
 24 27  1  0  0  0  0
 25 19  1  0  0  0  0
 26 24  1  0  0  0  0
 28 20  1  0  0  0  0
 29 28  1  0  0  0  0
 30 29  1  0  0  0  0
M  END
>  <minimizedAffinity>
-5.19273233

$$$$

 OpenBabel03242519343D

 30 31  0  0  0  0  0  0  0  0999 V2000
   37.1310   29.4440   42.2330 C   0  0  0  0  0  0  0  0  0  0  0  0
   38.4760   29.5110   42.8690 C   0  0  0  0  0  0  0  0  0  0  0  0
   39.2230   28.2310   42.7870 C   0  0  0  0  0  0  0  0  0  0  0  0
   38.4270   27.0710   43.3670 C   0  0  0  0  0  0  0  0  0  0  0  0
   37.0120   27.0240   42.8940 C   0  0  0  0  0  0  0  0  0  0  0  0
   36.7330   28.0470   41.8230 C   0  0  0  0  0  0  0  0  0  0  0  0
   36.3590   29.8190   42.9460 H   0  0  0  0  0  0  0  0  0  0  0  0
   38.4010   29.8220   43.9120 H   0  0  0  0  0  0  0  0  0  0  0  0
   39.0780   30.2700   42.3070 H   0  0  0  0  0  0  0  0  0  0  0  0
   39.6070   27.9490   41.7930 H   0  0  0  0  0  0  0  0  0  0  0  0
   40.1220   28.3330   43.4540 H   0  0  0  0  0  0  0  0  0  0  0  0
   38.3910   27.2670   44.4760 H   0  0  0  0  0  0  0  0  0  0  0  0
   38.9760   26.1310   43.2570 H   0  0  0  0  0  0  0  0  0  0  0  0
   36.8560   26.0230   42.4340 H   0  0  0  0  0  0  0  0  0  0  0  0
   36.2670   27.1040   43.7020 H   0  0  0  0  0  0  0  0  0  0  0  0
   37.2810   27.7070   40.9230 H   0  0  0  0  0  0  0  0  0  0  0  0
   35.6520   28.0360   41.5810 H   0  0  0  0  0  0  0  0  0  0  0  0
   37.0470   30.2780   41.0140 C   0  0  0  0  0  0  0  0  0  0  0  0
   36.8130   29.6070   39.8100 C   0  0  0  0  0  0  0  0  0  0  0  0
   36.7240   30.3290   38.6240 C   0  0  0  0  0  0  0  0  0  0  0  0
   36.8780   31.7000   38.7220 N   0  0  0  0  0  0  0  0  0  0  0  0
   37.1060   32.3280   39.9040 C   0  0  0  0  0  0  0  0  0  0  0  0
   37.1880   31.6220   41.0380 N   0  0  0  0  0  0  0  0  0  0  0  0
   37.2450   33.7450   39.8450 N   0  0  0  0  0  0  0  0  0  0  0  0
   36.6900   28.5500   39.7080 H   0  0  0  0  0  0  0  0  0  0  0  0
   36.5480   34.4100   39.4430 H   0  0  0  0  0  0  0  0  0  0  0  0
   38.1370   34.1600   40.2460 H   0  0  0  0  0  0  0  0  0  0  0  0
   36.4780   29.6610   37.3390 C   0  0  0  0  0  2  0  0  0  0  0  0
   35.2070   28.8540   37.4300 C   0  0  0  0  0  2  0  0  0  0  0  0
   35.0030   28.2760   36.5130 H   0  0  0  0  0  0  0  0  0  0  0  0
  1  2  1  0  0  0  0
  1  7  1  0  0  0  0
  2  8  1  0  0  0  0
  3  2  1  0  0  0  0
  3  4  1  0  0  0  0
  3 11  1  0  0  0  0
  4 12  1  0  0  0  0
  5  4  1  0  0  0  0
  5 15  1  0  0  0  0
  6  1  1  0  0  0  0
  6  5  1  0  0  0  0
  9  2  1  0  0  0  0
 10  3  1  0  0  0  0
 13  4  1  0  0  0  0
 14  5  1  0  0  0  0
 16  6  1  0  0  0  0
 17  6  1  0  0  0  0
 18 23  1  0  0  0  0
 18  1  1  0  0  0  0
 19 18  2  0  0  0  0
 20 21  2  0  0  0  0
 20 19  1  0  0  0  0
 21 22  1  0  0  0  0
 22 23  2  0  0  0  0
 24 22  1  0  0  0  0
 24 27  1  0  0  0  0
 25 19  1  0  0  0  0
 26 24  1  0  0  0  0
 28 29  1  0  0  0  0
 28 20  1  0  0  0  0
 30 29  1  0  0  0  0
M  END
>  <minimizedAffinity>
-5.06275225

$$$$

 OpenBabel03242519343D

 30 31  0  0  0  0  0  0  0  0999 V2000
   37.8790   26.9270   43.0060 C   0  0  0  0  0  0  0  0  0  0  0  0
   39.2420   26.4130   43.3170 C   0  0  0  0  0  0  0  0  0  0  0  0
   39.6870   25.3460   42.3880 C   0  0  0  0  0  0  0  0  0  0  0  0
   38.6960   24.1930   42.3270 C   0  0  0  0  0  0  0  0  0  0  0  0
   37.2780   24.6360   42.1700 C   0  0  0  0  0  0  0  0  0  0  0  0
   37.1640   26.1220   41.9480 C   0  0  0  0  0  0  0  0  0  0  0  0
   37.2490   26.9050   43.9270 H   0  0  0  0  0  0  0  0  0  0  0  0
   39.2970   26.0480   44.3440 H   0  0  0  0  0  0  0  0  0  0  0  0
   39.9590   27.2640   43.1960 H   0  0  0  0  0  0  0  0  0  0  0  0
   39.9430   25.6620   41.3630 H   0  0  0  0  0  0  0  0  0  0  0  0
   40.6250   24.9040   42.8220 H   0  0  0  0  0  0  0  0  0  0  0  0
   38.7680   23.6930   43.3340 H   0  0  0  0  0  0  0  0  0  0  0  0
   39.0210   23.4390   41.6050 H   0  0  0  0  0  0  0  0  0  0  0  0
   36.8830   24.1390   41.2560 H   0  0  0  0  0  0  0  0  0  0  0  0
   36.6170   24.3200   42.9940 H   0  0  0  0  0  0  0  0  0  0  0  0
   37.5720   26.3130   40.9360 H   0  0  0  0  0  0  0  0  0  0  0  0
   36.0940   26.4080   41.9370 H   0  0  0  0  0  0  0  0  0  0  0  0
   37.9050   28.3250   42.5220 C   0  0  0  0  0  0  0  0  0  0  0  0
   39.1390   28.9780   42.5610 C   0  0  0  0  0  0  0  0  0  0  0  0
   39.2360   30.2960   42.1230 C   0  0  0  0  0  0  0  0  0  0  0  0
   38.0700   30.8820   41.6650 N   0  0  0  0  0  0  0  0  0  0  0  0
   36.8830   30.2250   41.6380 C   0  0  0  0  0  0  0  0  0  0  0  0
   36.8030   28.9580   42.0620 N   0  0  0  0  0  0  0  0  0  0  0  0
   35.7690   30.9620   41.1420 N   0  0  0  0  0  0  0  0  0  0  0  0
   40.0540   28.5480   42.9090 H   0  0  0  0  0  0  0  0  0  0  0  0
   35.7130   31.4300   40.2100 H   0  0  0  0  0  0  0  0  0  0  0  0
   34.9210   31.0420   41.7770 H   0  0  0  0  0  0  0  0  0  0  0  0
   40.5160   31.0170   42.1470 C   0  0  0  0  0  2  0  0  0  0  0  0
   41.5890   30.1130   42.6990 C   0  0  0  0  0  2  0  0  0  0  0  0
   42.5630   30.6220   42.8020 H   0  0  0  0  0  0  0  0  0  0  0  0
  1  2  1  0  0  0  0
  1  7  1  0  0  0  0
  2  8  1  0  0  0  0
  3 11  1  0  0  0  0
  3  2  1  0  0  0  0
  4  3  1  0  0  0  0
  4 12  1  0  0  0  0
  5  4  1  0  0  0  0
  5 15  1  0  0  0  0
  6  5  1  0  0  0  0
  6  1  1  0  0  0  0
  9  2  1  0  0  0  0
 10  3  1  0  0  0  0
 13  4  1  0  0  0  0
 14  5  1  0  0  0  0
 16  6  1  0  0  0  0
 17  6  1  0  0  0  0
 18 19  1  0  0  0  0
 18  1  1  0  0  0  0
 19 25  1  0  0  0  0
 20 28  1  0  0  0  0
 20 19  2  0  0  0  0
 21 20  1  0  0  0  0
 22 21  2  0  0  0  0
 22 23  1  0  0  0  0
 23 18  2  0  0  0  0
 24 22  1  0  0  0  0
 24 27  1  0  0  0  0
 26 24  1  0  0  0  0
 28 29  1  0  0  0  0
 29 30  1  0  0  0  0
M  END
>  <minimizedAffinity>
-5.05196571

$$$$

 OpenBabel03242519343D

 30 31  0  0  0  0  0  0  0  0999 V2000
   37.1000   29.5690   42.1270 C   0  0  0  0  0  0  0  0  0  0  0  0
   38.4490   29.6440   42.7540 C   0  0  0  0  0  0  0  0  0  0  0  0
   39.1020   28.3180   42.8900 C   0  0  0  0  0  0  0  0  0  0  0  0
   38.2280   27.3290   43.6470 C   0  0  0  0  0  0  0  0  0  0  0  0
   36.8110   27.3050   43.1770 C   0  0  0  0  0  0  0  0  0  0  0  0
   36.6010   28.1550   41.9510 C   0  0  0  0  0  0  0  0  0  0  0  0
   36.3600   30.1090   42.7630 H   0  0  0  0  0  0  0  0  0  0  0  0
   38.4000   30.1270   43.7310 H   0  0  0  0  0  0  0  0  0  0  0  0
   39.1010   30.2550   42.0790 H   0  0  0  0  0  0  0  0  0  0  0  0
   39.4610   27.8500   41.9600 H   0  0  0  0  0  0  0  0  0  0  0  0
   40.0090   28.4650   43.5380 H   0  0  0  0  0  0  0  0  0  0  0  0
   38.2110   27.7070   44.7080 H   0  0  0  0  0  0  0  0  0  0  0  0
   38.7080   26.3470   43.6980 H   0  0  0  0  0  0  0  0  0  0  0  0
   36.5820   26.2560   42.8880 H   0  0  0  0  0  0  0  0  0  0  0  0
   36.0770   27.5700   43.9560 H   0  0  0  0  0  0  0  0  0  0  0  0
   37.1200   27.6330   41.1230 H   0  0  0  0  0  0  0  0  0  0  0  0
   35.5210   28.1810   41.7050 H   0  0  0  0  0  0  0  0  0  0  0  0
   37.0700   30.1940   40.7870 C   0  0  0  0  0  0  0  0  0  0  0  0
   37.1750   31.5860   40.7420 C   0  0  0  0  0  0  0  0  0  0  0  0
   37.1520   32.2410   39.5140 C   0  0  0  0  0  0  0  0  0  0  0  0
   37.0240   31.4430   38.3910 N   0  0  0  0  0  0  0  0  0  0  0  0
   36.9230   30.0910   38.4620 C   0  0  0  0  0  0  0  0  0  0  0  0
   36.9470   29.4740   39.6490 N   0  0  0  0  0  0  0  0  0  0  0  0
   36.7940   29.4060   37.2190 N   0  0  0  0  0  0  0  0  0  0  0  0
   37.2750   32.2240   41.5940 H   0  0  0  0  0  0  0  0  0  0  0  0
   37.4550   29.4750   36.4130 H   0  0  0  0  0  0  0  0  0  0  0  0
   35.9520   28.7690   37.1040 H   0  0  0  0  0  0  0  0  0  0  0  0
   37.2600   33.7030   39.4250 C   0  0  0  0  0  2  0  0  0  0  0  0
   38.4860   34.1600   40.1750 C   0  0  0  0  0  2  0  0  0  0  0  0
   38.5860   35.2600   40.1980 H   0  0  0  0  0  0  0  0  0  0  0  0
  1  2  1  0  0  0  0
  1  7  1  0  0  0  0
  2  3  1  0  0  0  0
  2  8  1  0  0  0  0
  3 11  1  0  0  0  0
  3  4  1  0  0  0  0
  4 13  1  0  0  0  0
  4 12  1  0  0  0  0
  5  4  1  0  0  0  0
  5 15  1  0  0  0  0
  6  1  1  0  0  0  0
  6  5  1  0  0  0  0
  9  2  1  0  0  0  0
 10  3  1  0  0  0  0
 14  5  1  0  0  0  0
 16  6  1  0  0  0  0
 17  6  1  0  0  0  0
 18  1  1  0  0  0  0
 19 18  1  0  0  0  0
 19 25  1  0  0  0  0
 20 19  2  0  0  0  0
 21 22  2  0  0  0  0
 21 20  1  0  0  0  0
 22 23  1  0  0  0  0
 23 18  2  0  0  0  0
 24 22  1  0  0  0  0
 26 24  1  0  0  0  0
 27 24  1  0  0  0  0
 28 20  1  0  0  0  0
 28 29  1  0  0  0  0
 29 30  1  0  0  0  0
M  END
>  <minimizedAffinity>
-4.9778614

$$$$

 OpenBabel03242519343D

 30 31  0  0  0  0  0  0  0  0999 V2000
   38.2760   26.9030   43.1220 C   0  0  0  0  0  0  0  0  0  0  0  0
   39.6060   26.5310   43.6800 C   0  0  0  0  0  0  0  0  0  0  0  0
   40.3020   25.4920   42.8810 C   0  0  0  0  0  0  0  0  0  0  0  0
   39.4460   24.2480   42.6980 C   0  0  0  0  0  0  0  0  0  0  0  0
   38.0420   24.5470   42.2850 C   0  0  0  0  0  0  0  0  0  0  0  0
   37.8320   26.0090   41.9900 C   0  0  0  0  0  0  0  0  0  0  0  0
   37.5020   26.8400   43.9230 H   0  0  0  0  0  0  0  0  0  0  0  0
   39.5170   26.1960   44.7150 H   0  0  0  0  0  0  0  0  0  0  0  0
   40.2520   27.4450   43.6500 H   0  0  0  0  0  0  0  0  0  0  0  0
   40.7000   25.8080   41.9030 H   0  0  0  0  0  0  0  0  0  0  0  0
   41.1880   25.1530   43.4850 H   0  0  0  0  0  0  0  0  0  0  0  0
   39.3890   23.7790   43.7200 H   0  0  0  0  0  0  0  0  0  0  0  0
   39.9580   23.5130   42.0700 H   0  0  0  0  0  0  0  0  0  0  0  0
   37.8580   23.9940   41.3370 H   0  0  0  0  0  0  0  0  0  0  0  0
   37.2810   24.1860   42.9960 H   0  0  0  0  0  0  0  0  0  0  0  0
   38.3890   26.2160   41.0550 H   0  0  0  0  0  0  0  0  0  0  0  0
   36.7580   26.1900   41.7870 H   0  0  0  0  0  0  0  0  0  0  0  0
   38.2570   28.2860   42.5960 C   0  0  0  0  0  0  0  0  0  0  0  0
   37.1700   28.6350   41.7910 C   0  0  0  0  0  0  0  0  0  0  0  0
   37.0880   29.9190   41.2600 C   0  0  0  0  0  0  0  0  0  0  0  0
   38.1190   30.7850   41.5780 N   0  0  0  0  0  0  0  0  0  0  0  0
   39.1650   30.4200   42.3620 C   0  0  0  0  0  0  0  0  0  0  0  0
   39.2310   29.1830   42.8660 N   0  0  0  0  0  0  0  0  0  0  0  0
   40.1510   31.4210   42.5980 N   0  0  0  0  0  0  0  0  0  0  0  0
   36.3610   27.9850   41.5320 H   0  0  0  0  0  0  0  0  0  0  0  0
   39.9740   32.3700   42.9990 H   0  0  0  0  0  0  0  0  0  0  0  0
   41.1540   31.1810   42.3440 H   0  0  0  0  0  0  0  0  0  0  0  0
   35.9610   30.3250   40.4100 C   0  0  0  0  0  2  0  0  0  0  0  0
   35.0310   29.1530   40.2210 C   0  0  0  0  0  2  0  0  0  0  0  0
   34.1950   29.3790   39.5360 H   0  0  0  0  0  0  0  0  0  0  0  0
  1  2  1  0  0  0  0
  1  7  1  0  0  0  0
  2  8  1  0  0  0  0
  3 11  1  0  0  0  0
  3  2  1  0  0  0  0
  4  3  1  0  0  0  0
  4 12  1  0  0  0  0
  5  4  1  0  0  0  0
  5 15  1  0  0  0  0
  6  5  1  0  0  0  0
  6  1  1  0  0  0  0
  9  2  1  0  0  0  0
 10  3  1  0  0  0  0
 13  4  1  0  0  0  0
 14  5  1  0  0  0  0
 16  6  1  0  0  0  0
 17  6  1  0  0  0  0
 18 23  1  0  0  0  0
 18  1  1  0  0  0  0
 19 18  2  0  0  0  0
 20 21  2  0  0  0  0
 20 19  1  0  0  0  0
 21 22  1  0  0  0  0
 22 24  1  0  0  0  0
 22 23  2  0  0  0  0
 24 26  1  0  0  0  0
 25 19  1  0  0  0  0
 27 24  1  0  0  0  0
 28 20  1  0  0  0  0
 29 28  1  0  0  0  0
 30 29  1  0  0  0  0
M  END
>  <minimizedAffinity>
-4.90167189

$$$$

 OpenBabel03242519343D

 30 31  0  0  0  0  0  0  0  0999 V2000
   36.5710   28.3210   41.2990 C   0  0  0  0  0  0  0  0  0  0  0  0
   36.6560   27.6900   42.6450 C   0  0  0  0  0  0  0  0  0  0  0  0
   37.4950   26.4660   42.6620 C   0  0  0  0  0  0  0  0  0  0  0  0
   37.0320   25.4440   41.6340 C   0  0  0  0  0  0  0  0  0  0  0  0
   36.7740   26.0310   40.2860 C   0  0  0  0  0  0  0  0  0  0  0  0
   37.1820   27.4790   40.2050 C   0  0  0  0  0  0  0  0  0  0  0  0
   35.5010   28.4930   41.0320 H   0  0  0  0  0  0  0  0  0  0  0  0
   35.6620   27.4540   43.0310 H   0  0  0  0  0  0  0  0  0  0  0  0
   37.1460   28.4250   43.3320 H   0  0  0  0  0  0  0  0  0  0  0  0
   38.5830   26.6150   42.5640 H   0  0  0  0  0  0  0  0  0  0  0  0
   37.3350   25.9730   43.6600 H   0  0  0  0  0  0  0  0  0  0  0  0
   36.0410   25.0710   42.0190 H   0  0  0  0  0  0  0  0  0  0  0  0
   37.6900   24.5700   41.6320 H   0  0  0  0  0  0  0  0  0  0  0  0
   37.4090   25.4740   39.5620 H   0  0  0  0  0  0  0  0  0  0  0  0
   35.7370   25.9060   39.9350 H   0  0  0  0  0  0  0  0  0  0  0  0
   38.2890   27.4890   40.2450 H   0  0  0  0  0  0  0  0  0  0  0  0
   36.8800   27.8900   39.2210 H   0  0  0  0  0  0  0  0  0  0  0  0
   37.2550   29.6310   41.2520 C   0  0  0  0  0  0  0  0  0  0  0  0
   38.5040   29.7090   41.8720 C   0  0  0  0  0  0  0  0  0  0  0  0
   39.2030   30.9130   41.8680 C   0  0  0  0  0  0  0  0  0  0  0  0
   38.5940   31.9780   41.2300 N   0  0  0  0  0  0  0  0  0  0  0  0
   37.3780   31.8770   40.6350 C   0  0  0  0  0  0  0  0  0  0  0  0
   36.7170   30.7140   40.6460 N   0  0  0  0  0  0  0  0  0  0  0  0
   36.8790   33.0620   40.0210 N   0  0  0  0  0  0  0  0  0  0  0  0
   38.9960   28.9010   42.3710 H   0  0  0  0  0  0  0  0  0  0  0  0
   37.3690   33.6220   39.2880 H   0  0  0  0  0  0  0  0  0  0  0  0
   35.9250   33.4050   40.3370 H   0  0  0  0  0  0  0  0  0  0  0  0
   40.5190   31.0350   42.5080 C   0  0  0  0  0  2  0  0  0  0  0  0
   41.1890   29.6840   42.5360 C   0  0  0  0  0  2  0  0  0  0  0  0
   42.1580   29.6990   43.0650 H   0  0  0  0  0  0  0  0  0  0  0  0
  1  2  1  0  0  0  0
  2  3  1  0  0  0  0
  2  8  1  0  0  0  0
  2  9  1  0  0  0  0
  3 11  1  0  0  0  0
  4 12  1  0  0  0  0
  4  3  1  0  0  0  0
  5  4  1  0  0  0  0
  6 16  1  0  0  0  0
  6  5  1  0  0  0  0
  6  1  1  0  0  0  0
  7  1  1  0  0  0  0
 10  3  1  0  0  0  0
 13  4  1  0  0  0  0
 14  5  1  0  0  0  0
 15  5  1  0  0  0  0
 17  6  1  0  0  0  0
 18  1  1  0  0  0  0
 18 19  1  0  0  0  0
 19 25  1  0  0  0  0
 20 19  2  0  0  0  0
 20 28  1  0  0  0  0
 21 20  1  0  0  0  0
 22 23  1  0  0  0  0
 22 21  2  0  0  0  0
 23 18  2  0  0  0  0
 24 27  1  0  0  0  0
 24 22  1  0  0  0  0
 26 24  1  0  0  0  0
 28 29  1  0  0  0  0
 29 30  1  0  0  0  0
M  END
>  <minimizedAffinity>
-4.83019114

$$$$

 OpenBabel03242519343D

 30 31  0  0  0  0  0  0  0  0999 V2000
   38.4790   29.1420   41.6400 C   0  0  0  0  0  0  0  0  0  0  0  0
   37.3500   28.5060   40.9060 C   0  0  0  0  0  0  0  0  0  0  0  0
   36.1850   28.2080   41.7750 C   0  0  0  0  0  0  0  0  0  0  0  0
   36.5740   27.3580   42.9760 C   0  0  0  0  0  0  0  0  0  0  0  0
   37.7970   27.8460   43.6800 C   0  0  0  0  0  0  0  0  0  0  0  0
   38.2820   29.1650   43.1360 C   0  0  0  0  0  0  0  0  0  0  0  0
   39.4240   28.5850   41.4330 H   0  0  0  0  0  0  0  0  0  0  0  0
   37.6750   27.5910   40.4060 H   0  0  0  0  0  0  0  0  0  0  0  0
   36.9960   29.2350   40.1330 H   0  0  0  0  0  0  0  0  0  0  0  0
   35.5940   29.0730   42.1170 H   0  0  0  0  0  0  0  0  0  0  0  0
   35.4840   27.5660   41.1750 H   0  0  0  0  0  0  0  0  0  0  0  0
   36.8290   26.3470   42.5480 H   0  0  0  0  0  0  0  0  0  0  0  0
   35.7110   27.1870   43.6260 H   0  0  0  0  0  0  0  0  0  0  0  0
   37.5140   28.0170   44.7420 H   0  0  0  0  0  0  0  0  0  0  0  0
   38.6220   27.1150   43.7020 H   0  0  0  0  0  0  0  0  0  0  0  0
   37.5310   29.9180   43.4440 H   0  0  0  0  0  0  0  0  0  0  0  0
   39.2410   29.4300   43.6230 H   0  0  0  0  0  0  0  0  0  0  0  0
   38.6950   30.5460   41.2250 C   0  0  0  0  0  0  0  0  0  0  0  0
   40.0000   31.0360   41.3270 C   0  0  0  0  0  0  0  0  0  0  0  0
   40.2750   32.3490   40.9550 C   0  0  0  0  0  0  0  0  0  0  0  0
   39.2060   33.0980   40.4980 N   0  0  0  0  0  0  0  0  0  0  0  0
   37.9470   32.5980   40.4090 C   0  0  0  0  0  0  0  0  0  0  0  0
   37.6960   31.3340   40.7690 N   0  0  0  0  0  0  0  0  0  0  0  0
   36.9500   33.4920   39.9210 N   0  0  0  0  0  0  0  0  0  0  0  0
   40.8420   30.4780   41.6770 H   0  0  0  0  0  0  0  0  0  0  0  0
   36.9830   34.0040   39.0110 H   0  0  0  0  0  0  0  0  0  0  0  0
   36.1000   33.6490   40.5370 H   0  0  0  0  0  0  0  0  0  0  0  0
   41.6330   32.9000   41.0470 C   0  0  0  0  0  2  0  0  0  0  0  0
   42.5670   31.8440   41.5840 C   0  0  0  0  0  2  0  0  0  0  0  0
   43.5930   32.2210   41.7370 H   0  0  0  0  0  0  0  0  0  0  0  0
  1  6  1  0  0  0  0
  2  1  1  0  0  0  0
  2  3  1  0  0  0  0
  3 10  1  0  0  0  0
  3  4  1  0  0  0  0
  4 13  1  0  0  0  0
  4  5  1  0  0  0  0
  5 15  1  0  0  0  0
  5 14  1  0  0  0  0
  6 16  1  0  0  0  0
  6 17  1  0  0  0  0
  6  5  1  0  0  0  0
  7  1  1  0  0  0  0
  8  2  1  0  0  0  0
  9  2  1  0  0  0  0
 11  3  1  0  0  0  0
 12  4  1  0  0  0  0
 18 19  1  0  0  0  0
 18  1  1  0  0  0  0
 19 25  1  0  0  0  0
 20 28  1  0  0  0  0
 20 19  2  0  0  0  0
 21 20  1  0  0  0  0
 22 21  2  0  0  0  0
 22 23  1  0  0  0  0
 23 18  2  0  0  0  0
 24 22  1  0  0  0  0
 24 27  1  0  0  0  0
 26 24  1  0  0  0  0
 28 29  1  0  0  0  0
 29 30  1  0  0  0  0
M  END
>  <minimizedAffinity>
-4.7334795

$$$$

 OpenBabel03242519343D

 30 31  0  0  0  0  0  0  0  0999 V2000
   38.1090   26.6080   41.3310 C   0  0  0  0  0  0  0  0  0  0  0  0
   37.8340   26.1910   39.9280 C   0  0  0  0  0  0  0  0  0  0  0  0
   36.5700   25.4260   39.7850 C   0  0  0  0  0  0  0  0  0  0  0  0
   36.5310   24.2170   40.7080 C   0  0  0  0  0  0  0  0  0  0  0  0
   36.9450   24.5230   42.1090 C   0  0  0  0  0  0  0  0  0  0  0  0
   37.1600   25.9980   42.3330 C   0  0  0  0  0  0  0  0  0  0  0  0
   39.1430   26.3020   41.6180 H   0  0  0  0  0  0  0  0  0  0  0  0
   38.6620   25.6040   39.5250 H   0  0  0  0  0  0  0  0  0  0  0  0
   37.7170   27.1210   39.3160 H   0  0  0  0  0  0  0  0  0  0  0  0
   35.6350   25.9980   39.8940 H   0  0  0  0  0  0  0  0  0  0  0  0
   36.5600   25.0020   38.7440 H   0  0  0  0  0  0  0  0  0  0  0  0
   37.2990   23.5060   40.2910 H   0  0  0  0  0  0  0  0  0  0  0  0
   35.5740   23.6930   40.6200 H   0  0  0  0  0  0  0  0  0  0  0  0
   36.1060   24.2130   42.7710 H   0  0  0  0  0  0  0  0  0  0  0  0
   37.8240   23.9530   42.4500 H   0  0  0  0  0  0  0  0  0  0  0  0
   36.1560   26.4640   42.2890 H   0  0  0  0  0  0  0  0  0  0  0  0
   37.5590   26.1580   43.3540 H   0  0  0  0  0  0  0  0  0  0  0  0
   38.0180   28.0740   41.5060 C   0  0  0  0  0  0  0  0  0  0  0  0
   39.1810   28.7300   41.9190 C   0  0  0  0  0  0  0  0  0  0  0  0
   39.1660   30.1090   42.1060 C   0  0  0  0  0  0  0  0  0  0  0  0
   37.9660   30.7520   41.8630 N   0  0  0  0  0  0  0  0  0  0  0  0
   36.8500   30.0910   41.4630 C   0  0  0  0  0  0  0  0  0  0  0  0
   36.8770   28.7660   41.2860 N   0  0  0  0  0  0  0  0  0  0  0  0
   35.6890   30.8910   41.2540 N   0  0  0  0  0  0  0  0  0  0  0  0
   40.1190   28.2560   42.1130 H   0  0  0  0  0  0  0  0  0  0  0  0
   35.6220   31.7160   40.6170 H   0  0  0  0  0  0  0  0  0  0  0  0
   34.8140   30.6230   41.7940 H   0  0  0  0  0  0  0  0  0  0  0  0
   40.3670   30.8340   42.5390 C   0  0  0  0  0  2  0  0  0  0  0  0
   41.2410   31.1140   41.3420 C   0  0  0  0  0  2  0  0  0  0  0  0
   42.1930   31.6020   41.6140 H   0  0  0  0  0  0  0  0  0  0  0  0
  1 18  1  0  0  0  0
  1  7  1  0  0  0  0
  1  6  1  0  0  0  0
  2  1  1  0  0  0  0
  3 10  1  0  0  0  0
  3  2  1  0  0  0  0
  3  4  1  0  0  0  0
  4  5  1  0  0  0  0
  5  6  1  0  0  0  0
  5 15  1  0  0  0  0
  5 14  1  0  0  0  0
  6 17  1  0  0  0  0
  8  2  1  0  0  0  0
  9  2  1  0  0  0  0
 11  3  1  0  0  0  0
 12  4  1  0  0  0  0
 13  4  1  0  0  0  0
 16  6  1  0  0  0  0
 18 19  1  0  0  0  0
 19 20  2  0  0  0  0
 19 25  1  0  0  0  0
 20 28  1  0  0  0  0
 21 20  1  0  0  0  0
 22 21  2  0  0  0  0
 23 22  1  0  0  0  0
 23 18  2  0  0  0  0
 24 22  1  0  0  0  0
 24 27  1  0  0  0  0
 26 24  1  0  0  0  0
 29 30  1  0  0  0  0
 29 28  1  0  0  0  0
M  END
>  <minimizedAffinity>
-4.71241426

$$$$

 OpenBabel03242519343D

 30 31  0  0  0  0  0  0  0  0999 V2000
   37.5970   26.4700   40.4840 C   0  0  0  0  0  0  0  0  0  0  0  0
   36.9980   25.1540   40.1280 C   0  0  0  0  0  0  0  0  0  0  0  0
   36.6970   24.3130   41.3130 C   0  0  0  0  0  0  0  0  0  0  0  0
   37.9220   24.1090   42.1930 C   0  0  0  0  0  0  0  0  0  0  0  0
   38.6710   25.3700   42.4700 C   0  0  0  0  0  0  0  0  0  0  0  0
   37.9560   26.5880   41.9450 C   0  0  0  0  0  0  0  0  0  0  0  0
   38.5310   26.6290   39.8950 H   0  0  0  0  0  0  0  0  0  0  0  0
   37.6450   24.6010   39.4450 H   0  0  0  0  0  0  0  0  0  0  0  0
   36.0210   25.3540   39.6200 H   0  0  0  0  0  0  0  0  0  0  0  0
   35.8470   24.6320   41.9390 H   0  0  0  0  0  0  0  0  0  0  0  0
   36.4360   23.2890   40.9300 H   0  0  0  0  0  0  0  0  0  0  0  0
   38.6080   23.4510   41.5890 H   0  0  0  0  0  0  0  0  0  0  0  0
   37.6680   23.5250   43.0820 H   0  0  0  0  0  0  0  0  0  0  0  0
   38.7270   25.4780   43.5760 H   0  0  0  0  0  0  0  0  0  0  0  0
   39.7150   25.3570   42.1160 H   0  0  0  0  0  0  0  0  0  0  0  0
   37.0590   26.7160   42.5830 H   0  0  0  0  0  0  0  0  0  0  0  0
   38.5980   27.4790   42.0890 H   0  0  0  0  0  0  0  0  0  0  0  0
   36.6880   27.5980   40.1830 C   0  0  0  0  0  0  0  0  0  0  0  0
   35.8730   27.4620   39.0570 C   0  0  0  0  0  0  0  0  0  0  0  0
   34.9940   28.4870   38.7140 C   0  0  0  0  0  0  0  0  0  0  0  0
   34.9900   29.5980   39.5360 N   0  0  0  0  0  0  0  0  0  0  0  0
   35.7940   29.7050   40.6250 C   0  0  0  0  0  0  0  0  0  0  0  0
   36.6330   28.7140   40.9440 N   0  0  0  0  0  0  0  0  0  0  0  0
   35.6780   30.9120   41.3740 N   0  0  0  0  0  0  0  0  0  0  0  0
   35.8560   26.6150   38.4060 H   0  0  0  0  0  0  0  0  0  0  0  0
   34.7970   31.2910   41.7880 H   0  0  0  0  0  0  0  0  0  0  0  0
   36.5660   31.4750   41.5240 H   0  0  0  0  0  0  0  0  0  0  0  0
   34.1200   28.3820   37.5380 C   0  0  0  0  0  2  0  0  0  0  0  0
   34.0370   26.9400   37.1040 C   0  0  0  0  0  2  0  0  0  0  0  0
   33.4430   26.8060   36.1820 H   0  0  0  0  0  0  0  0  0  0  0  0
  1  6  1  0  0  0  0
  2  1  1  0  0  0  0
  2  3  1  0  0  0  0
  3 10  1  0  0  0  0
  3  4  1  0  0  0  0
  4  5  1  0  0  0  0
  4 13  1  0  0  0  0
  5 14  1  0  0  0  0
  6 17  1  0  0  0  0
  6  5  1  0  0  0  0
  6 16  1  0  0  0  0
  7  1  1  0  0  0  0
  8  2  1  0  0  0  0
  9  2  1  0  0  0  0
 11  3  1  0  0  0  0
 12  4  1  0  0  0  0
 15  5  1  0  0  0  0
 18  1  1  0  0  0  0
 18 23  1  0  0  0  0
 19 18  2  0  0  0  0
 20 19  1  0  0  0  0
 20 21  2  0  0  0  0
 21 22  1  0  0  0  0
 22 23  2  0  0  0  0
 22 24  1  0  0  0  0
 24 27  1  0  0  0  0
 24 26  1  0  0  0  0
 25 19  1  0  0  0  0
 28 20  1  0  0  0  0
 29 28  1  0  0  0  0
 30 29  1  0  0  0  0
M  END
>  <minimizedAffinity>
-4.6829524

$$$$
