
 OpenBabel03252505263D

 37 39  0  0  1  0  0  0  0  0999 V2000
   38.8620   28.0560   40.0920 F   0  0  0  0  0  0  0  0  0  0  0  0
   38.2280   27.9430   41.2950 C   0  0  0  0  0  0  0  0  0  0  0  0
   38.2250   29.0310   42.1320 C   0  0  0  0  0  0  0  0  0  0  0  0
   37.5880   28.9170   43.3380 C   0  0  0  0  0  0  0  0  0  0  0  0
   36.9740   27.7280   43.6790 C   0  0  0  0  0  0  0  0  0  0  0  0
   36.9730   26.6370   42.8490 C   0  0  0  0  0  0  0  0  0  0  0  0
   37.6310   26.7710   41.6140 C   0  0  0  0  0  0  0  0  0  0  0  0
   37.5930   29.7830   43.9880 H   0  0  0  0  0  0  0  0  0  0  0  0
   36.4860   27.6980   44.6450 H   0  0  0  0  0  0  0  0  0  0  0  0
   36.4840   25.7230   43.1440 H   0  0  0  0  0  0  0  0  0  0  0  0
   37.6000   25.6050   40.7880 N   0  0  0  0  0  0  0  0  0  0  0  0
   38.5210   24.5150   40.6610 C   0  0  0  0  0  0  0  0  0  0  0  0
   37.5990   23.2830   40.7580 C   0  0  0  0  0  0  0  0  0  0  0  0
   36.2440   23.8220   40.3630 C   0  0  0  0  0  0  0  0  0  0  0  0
   36.6060   25.1850   39.8230 C   0  0  2  0  0  0  0  0  0  0  0  0
   39.0910   24.5120   39.7220 H   0  0  0  0  0  0  0  0  0  0  0  0
   39.1710   24.4810   41.5620 H   0  0  0  0  0  0  0  0  0  0  0  0
   37.9090   22.5830   39.9760 H   0  0  0  0  0  0  0  0  0  0  0  0
   37.5820   22.8630   41.7650 H   0  0  0  0  0  0  0  0  0  0  0  0
   35.7530   23.2430   39.5810 H   0  0  0  0  0  0  0  0  0  0  0  0
   35.5940   24.0070   41.2550 H   0  0  0  0  0  0  0  0  0  0  0  0
   35.7050   25.8530   39.8920 H   0  0  0  0  0  0  0  0  0  0  0  0
   37.0730   25.1860   38.4120 C   0  0  0  0  0  0  0  0  0  0  0  0
   37.7860   24.4030   38.1530 H   0  0  0  0  0  0  0  0  0  0  0  0
   37.4950   26.1650   38.1830 H   0  0  0  0  0  0  0  0  0  0  0  0
   36.1680   24.9910   37.7880 H   0  0  0  0  0  0  0  0  0  0  0  0
   40.8150   31.5890   41.6470 C   0  0  0  0  0  0  0  0  0  0  0  0
   40.1180   32.6100   40.9550 C   0  0  0  0  0  0  0  0  0  0  0  0
   38.7760   32.3710   40.6820 C   0  0  0  0  0  0  0  0  0  0  0  0
   38.2230   31.2040   41.0850 N   0  0  0  0  0  0  0  0  0  0  0  0
   38.8870   30.2660   41.7280 C   0  0  0  0  0  0  0  0  0  0  0  0
   40.1860   30.4560   42.0110 N   0  0  0  0  0  0  0  0  0  0  0  0
   41.8530   31.7590   41.8640 H   0  0  0  0  0  0  0  0  0  0  0  0
   40.5740   33.5370   40.6390 H   0  0  0  0  0  0  0  0  0  0  0  0
   37.9290   33.3490   39.9670 C   0  0  0  0  0  2  0  0  0  0  0  0
   37.2490   32.6290   38.8240 C   0  0  0  0  0  2  0  0  0  0  0  0
   36.5560   31.8420   39.1720 H   0  0  0  0  0  0  0  0  0  0  0  0
  1  2  1  0  0  0  0
  2  7  2  0  0  0  0
  2  3  1  0  0  0  0
  3  4  2  0  0  0  0
  4  5  1  0  0  0  0
  4  8  1  0  0  0  0
  5  9  1  0  0  0  0
  6 10  1  0  0  0  0
  6  5  2  0  0  0  0
  7  6  1  0  0  0  0
 11  7  1  0  0  0  0
 12 13  1  0  0  0  0
 12 11  1  0  0  0  0
 12 17  1  0  0  0  0
 13 19  1  0  0  0  0
 14 13  1  0  0  0  0
 14 21  1  0  0  0  0
 15 22  1  1  0  0  0
 15 14  1  0  0  0  0
 15 11  1  0  0  0  0
 16 12  1  0  0  0  0
 18 13  1  0  0  0  0
 20 14  1  0  0  0  0
 23 15  1  0  0  0  0
 24 23  1  0  0  0  0
 25 23  1  0  0  0  0
 26 23  1  0  0  0  0
 27 33  1  0  0  0  0
 27 32  1  0  0  0  0
 28 27  2  0  0  0  0
 29 28  1  0  0  0  0
 29 30  2  0  0  0  0
 30 31  1  0  0  0  0
 31 32  2  0  0  0  0
 31  3  1  0  0  0  0
 34 28  1  0  0  0  0
 35 29  1  0  0  0  0
 36 37  1  0  0  0  0
 36 35  1  0  0  0  0
M  END
>  <minimizedAffinity>
-5.44837618

$$$$

 OpenBabel03252505263D

 37 39  0  0  1  0  0  0  0  0999 V2000
   37.9250   28.3100   39.6620 F   0  0  0  0  0  0  0  0  0  0  0  0
   37.7630   28.1690   41.0100 C   0  0  0  0  0  0  0  0  0  0  0  0
   37.7800   29.2990   41.7880 C   0  0  0  0  0  0  0  0  0  0  0  0
   37.6180   29.1550   43.1400 C   0  0  0  0  0  0  0  0  0  0  0  0
   37.4450   27.8950   43.6790 C   0  0  0  0  0  0  0  0  0  0  0  0
   37.4280   26.7620   42.9080 C   0  0  0  0  0  0  0  0  0  0  0  0
   37.5950   26.9270   41.5230 C   0  0  0  0  0  0  0  0  0  0  0  0
   37.6320   30.0550   43.7420 H   0  0  0  0  0  0  0  0  0  0  0  0
   37.3210   27.8440   44.7530 H   0  0  0  0  0  0  0  0  0  0  0  0
   37.2900   25.7930   43.3600 H   0  0  0  0  0  0  0  0  0  0  0  0
   37.5690   25.7140   40.7670 N   0  0  0  0  0  0  0  0  0  0  0  0
   38.5180   24.6460   40.6670 C   0  0  0  0  0  0  0  0  0  0  0  0
   37.6390   23.3960   40.8700 C   0  0  0  0  0  0  0  0  0  0  0  0
   36.2540   23.8710   40.4970 C   0  0  0  0  0  0  0  0  0  0  0  0
   36.5530   25.2100   39.8660 C   0  0  2  0  0  0  0  0  0  0  0  0
   39.0530   24.6040   39.7070 H   0  0  0  0  0  0  0  0  0  0  0  0
   39.2010   24.6830   41.5420 H   0  0  0  0  0  0  0  0  0  0  0  0
   37.9410   22.6600   40.1170 H   0  0  0  0  0  0  0  0  0  0  0  0
   37.6720   23.0350   41.8990 H   0  0  0  0  0  0  0  0  0  0  0  0
   35.7520   23.2350   39.7690 H   0  0  0  0  0  0  0  0  0  0  0  0
   35.6330   24.0900   41.4010 H   0  0  0  0  0  0  0  0  0  0  0  0
   35.6350   25.8560   39.9320 H   0  0  0  0  0  0  0  0  0  0  0  0
   36.9680   25.1430   38.4400 C   0  0  0  0  0  0  0  0  0  0  0  0
   37.6940   24.3670   38.2000 H   0  0  0  0  0  0  0  0  0  0  0  0
   37.3510   26.1180   38.1390 H   0  0  0  0  0  0  0  0  0  0  0  0
   36.0470   24.8860   37.8640 H   0  0  0  0  0  0  0  0  0  0  0  0
   37.0700   32.4560   40.0510 C   0  0  0  0  0  0  0  0  0  0  0  0
   38.3390   33.0830   40.0160 C   0  0  0  0  0  0  0  0  0  0  0  0
   39.3940   32.3870   40.5970 C   0  0  0  0  0  0  0  0  0  0  0  0
   39.1520   31.1760   41.1500 N   0  0  0  0  0  0  0  0  0  0  0  0
   37.9650   30.6080   41.1730 C   0  0  0  0  0  0  0  0  0  0  0  0
   36.9200   31.2460   40.6240 N   0  0  0  0  0  0  0  0  0  0  0  0
   36.2460   32.9810   39.6060 H   0  0  0  0  0  0  0  0  0  0  0  0
   38.5160   34.0520   39.5700 H   0  0  0  0  0  0  0  0  0  0  0  0
   40.7710   32.9230   40.6310 C   0  0  0  0  0  2  0  0  0  0  0  0
   40.8170   34.1470   39.7460 C   0  0  0  0  0  2  0  0  0  0  0  0
   40.1760   34.9650   40.1210 H   0  0  0  0  0  0  0  0  0  0  0  0
  1  2  1  0  0  0  0
  2  7  2  0  0  0  0
  2  3  1  0  0  0  0
  3  4  2  0  0  0  0
  4  5  1  0  0  0  0
  4  8  1  0  0  0  0
  5  9  1  0  0  0  0
  6 10  1  0  0  0  0
  6  5  2  0  0  0  0
  7  6  1  0  0  0  0
 11  7  1  0  0  0  0
 12 11  1  0  0  0  0
 12 13  1  0  0  0  0
 12 17  1  0  0  0  0
 13 19  1  0  0  0  0
 14 13  1  0  0  0  0
 14 21  1  0  0  0  0
 15 22  1  1  0  0  0
 15 14  1  0  0  0  0
 15 11  1  0  0  0  0
 16 12  1  0  0  0  0
 18 13  1  0  0  0  0
 20 14  1  0  0  0  0
 23 15  1  0  0  0  0
 24 23  1  0  0  0  0
 25 23  1  0  0  0  0
 26 23  1  0  0  0  0
 27 32  1  0  0  0  0
 28 27  2  0  0  0  0
 28 29  1  0  0  0  0
 29 35  1  0  0  0  0
 29 30  2  0  0  0  0
 30 31  1  0  0  0  0
 31  3  1  0  0  0  0
 32 31  2  0  0  0  0
 33 27  1  0  0  0  0
 34 28  1  0  0  0  0
 36 37  1  0  0  0  0
 36 35  1  0  0  0  0
M  END
>  <minimizedAffinity>
-5.32849741

$$$$

 OpenBabel03252505263D

 37 39  0  0  1  0  0  0  0  0999 V2000
   40.1240   30.3970   41.2570 F   0  0  0  0  0  0  0  0  0  0  0  0
   39.0610   31.1060   40.7810 C   0  0  0  0  0  0  0  0  0  0  0  0
   37.8010   30.5970   40.9750 C   0  0  0  0  0  0  0  0  0  0  0  0
   36.7350   31.3110   40.4960 C   0  0  0  0  0  0  0  0  0  0  0  0
   36.9490   32.5060   39.8400 C   0  0  0  0  0  0  0  0  0  0  0  0
   38.2040   33.0210   39.6420 C   0  0  0  0  0  0  0  0  0  0  0  0
   39.2880   32.2760   40.1390 C   0  0  0  0  0  0  0  0  0  0  0  0
   35.7470   30.8980   40.6570 H   0  0  0  0  0  0  0  0  0  0  0  0
   36.0690   33.0250   39.4850 H   0  0  0  0  0  0  0  0  0  0  0  0
   38.3390   33.9570   39.1260 H   0  0  0  0  0  0  0  0  0  0  0  0
   40.5730   32.8570   39.9060 N   0  0  0  0  0  0  0  0  0  0  0  0
   41.2390   33.9550   40.5410 C   0  0  0  0  0  0  0  0  0  0  0  0
   42.6350   33.3740   40.8400 C   0  0  0  0  0  0  0  0  0  0  0  0
   42.7670   32.2400   39.8490 C   0  0  0  0  0  0  0  0  0  0  0  0
   41.5890   32.4950   38.9400 C   0  0  2  0  0  0  0  0  0  0  0  0
   41.3100   34.8610   39.9210 H   0  0  0  0  0  0  0  0  0  0  0  0
   40.7700   34.1430   41.5300 H   0  0  0  0  0  0  0  0  0  0  0  0
   43.3720   34.1340   40.5600 H   0  0  0  0  0  0  0  0  0  0  0  0
   42.7180   33.0160   41.8670 H   0  0  0  0  0  0  0  0  0  0  0  0
   43.6860   32.2730   39.2640 H   0  0  0  0  0  0  0  0  0  0  0  0
   42.5780   31.2470   40.3270 H   0  0  0  0  0  0  0  0  0  0  0  0
   41.3040   31.5300   38.4370 H   0  0  0  0  0  0  0  0  0  0  0  0
   41.8310   33.5120   37.8840 C   0  0  0  0  0  0  0  0  0  0  0  0
   42.3400   34.4170   38.2130 H   0  0  0  0  0  0  0  0  0  0  0  0
   40.8780   33.7680   37.4180 H   0  0  0  0  0  0  0  0  0  0  0  0
   42.5150   33.0300   37.1450 H   0  0  0  0  0  0  0  0  0  0  0  0
   37.5380   28.1270   43.6800 C   0  0  0  0  0  0  0  0  0  0  0  0
   37.2850   26.9230   42.9770 C   0  0  0  0  0  0  0  0  0  0  0  0
   37.2160   27.0140   41.5910 C   0  0  0  0  0  0  0  0  0  0  0  0
   37.3890   28.2210   41.0050 N   0  0  0  0  0  0  0  0  0  0  0  0
   37.6240   29.3300   41.6750 C   0  0  0  0  0  0  0  0  0  0  0  0
   37.6980   29.2860   43.0150 N   0  0  0  0  0  0  0  0  0  0  0  0
   37.5940   28.0710   44.7500 H   0  0  0  0  0  0  0  0  0  0  0  0
   37.1480   25.9660   43.4600 H   0  0  0  0  0  0  0  0  0  0  0  0
   36.9580   25.8380   40.7340 C   0  0  0  0  0  2  0  0  0  0  0  0
   36.9490   24.6110   41.6160 C   0  0  0  0  0  2  0  0  0  0  0  0
   36.1240   24.6230   42.3500 H   0  0  0  0  0  0  0  0  0  0  0  0
  2  3  1  0  0  0  0
  2  1  1  0  0  0  0
  3 31  1  0  0  0  0
  4  8  1  0  0  0  0
  4  3  2  0  0  0  0
  5  4  1  0  0  0  0
  6  5  2  0  0  0  0
  6  7  1  0  0  0  0
  7  2  2  0  0  0  0
  9  5  1  0  0  0  0
 10  6  1  0  0  0  0
 11  7  1  0  0  0  0
 11 12  1  0  0  0  0
 12 13  1  0  0  0  0
 12 17  1  0  0  0  0
 13 19  1  0  0  0  0
 14 21  1  0  0  0  0
 14 13  1  0  0  0  0
 15 22  1  6  0  0  0
 15 14  1  0  0  0  0
 15 11  1  0  0  0  0
 16 12  1  0  0  0  0
 18 13  1  0  0  0  0
 20 14  1  0  0  0  0
 23 24  1  0  0  0  0
 23 15  1  0  0  0  0
 25 23  1  0  0  0  0
 26 23  1  0  0  0  0
 27 33  1  0  0  0  0
 28 34  1  0  0  0  0
 28 27  2  0  0  0  0
 29 28  1  0  0  0  0
 30 29  2  0  0  0  0
 30 31  1  0  0  0  0
 31 32  2  0  0  0  0
 32 27  1  0  0  0  0
 35 29  1  0  0  0  0
 35 36  1  0  0  0  0
 36 37  1  0  0  0  0
M  END
>  <minimizedAffinity>
-5.31371069

$$$$

 OpenBabel03252505263D

 37 39  0  0  1  0  0  0  0  0999 V2000
   39.1780   30.0550   41.3750 F   0  0  0  0  0  0  0  0  0  0  0  0
   38.1290   29.9520   40.5090 C   0  0  0  0  0  0  0  0  0  0  0  0
   37.9670   30.9330   39.5640 C   0  0  0  0  0  0  0  0  0  0  0  0
   36.9140   30.8270   38.6960 C   0  0  0  0  0  0  0  0  0  0  0  0
   36.0520   29.7520   38.7910 C   0  0  0  0  0  0  0  0  0  0  0  0
   36.2070   28.7680   39.7330 C   0  0  0  0  0  0  0  0  0  0  0  0
   37.2930   28.8920   40.6170 C   0  0  0  0  0  0  0  0  0  0  0  0
   36.7990   31.6080   37.9550 H   0  0  0  0  0  0  0  0  0  0  0  0
   35.2390   29.7220   38.0780 H   0  0  0  0  0  0  0  0  0  0  0  0
   35.5170   27.9420   39.7820 H   0  0  0  0  0  0  0  0  0  0  0  0
   37.4080   27.8400   41.5770 N   0  0  0  0  0  0  0  0  0  0  0  0
   37.5470   26.4230   41.4110 C   0  0  0  0  0  0  0  0  0  0  0  0
   38.7250   26.0900   42.3470 C   0  0  0  0  0  0  0  0  0  0  0  0
   38.7330   27.2350   43.3320 C   0  0  0  0  0  0  0  0  0  0  0  0
   37.4160   27.9070   43.0240 C   0  0  2  0  0  0  0  0  0  0  0  0
   36.6500   25.8460   41.6790 H   0  0  0  0  0  0  0  0  0  0  0  0
   37.9060   26.2110   40.3810 H   0  0  0  0  0  0  0  0  0  0  0  0
   38.4530   25.1870   42.9040 H   0  0  0  0  0  0  0  0  0  0  0  0
   39.6710   26.0240   41.8070 H   0  0  0  0  0  0  0  0  0  0  0  0
   38.7390   26.9180   44.3750 H   0  0  0  0  0  0  0  0  0  0  0  0
   39.5260   27.9860   43.0890 H   0  0  0  0  0  0  0  0  0  0  0  0
   37.4720   28.9810   43.3520 H   0  0  0  0  0  0  0  0  0  0  0  0
   36.2360   27.2860   43.6800 C   0  0  0  0  0  0  0  0  0  0  0  0
   36.1980   26.1970   43.6410 H   0  0  0  0  0  0  0  0  0  0  0  0
   35.3300   27.7070   43.2430 H   0  0  0  0  0  0  0  0  0  0  0  0
   36.3120   27.5490   44.7620 H   0  0  0  0  0  0  0  0  0  0  0  0
   39.5790   34.1610   40.2500 C   0  0  0  0  0  0  0  0  0  0  0  0
   40.6860   34.1500   39.3660 C   0  0  0  0  0  0  0  0  0  0  0  0
   40.8320   33.0210   38.5660 C   0  0  0  0  0  0  0  0  0  0  0  0
   39.9270   32.0210   38.6750 N   0  0  0  0  0  0  0  0  0  0  0  0
   38.9030   32.0490   39.5010 C   0  0  0  0  0  0  0  0  0  0  0  0
   38.7260   33.1200   40.2920 N   0  0  0  0  0  0  0  0  0  0  0  0
   39.4530   35.0260   40.8730 H   0  0  0  0  0  0  0  0  0  0  0  0
   41.4010   34.9570   39.2920 H   0  0  0  0  0  0  0  0  0  0  0  0
   41.9410   32.8750   37.6000 C   0  0  0  0  0  2  0  0  0  0  0  0
   41.8140   31.5170   36.9470 C   0  0  0  0  0  2  0  0  0  0  0  0
   40.8920   31.4200   36.3490 H   0  0  0  0  0  0  0  0  0  0  0  0
  2  7  1  0  0  0  0
  2  1  1  0  0  0  0
  3  2  2  0  0  0  0
  4  5  2  0  0  0  0
  4  3  1  0  0  0  0
  5  6  1  0  0  0  0
  6 10  1  0  0  0  0
  6  7  2  0  0  0  0
  7 11  1  0  0  0  0
  8  4  1  0  0  0  0
  9  5  1  0  0  0  0
 11 15  1  0  0  0  0
 12 11  1  0  0  0  0
 12 16  1  0  0  0  0
 12 13  1  0  0  0  0
 13 18  1  0  0  0  0
 13 14  1  0  0  0  0
 14 20  1  0  0  0  0
 15 14  1  0  0  0  0
 15 22  1  1  0  0  0
 15 23  1  0  0  0  0
 17 12  1  0  0  0  0
 19 13  1  0  0  0  0
 21 14  1  0  0  0  0
 23 26  1  0  0  0  0
 24 23  1  0  0  0  0
 25 23  1  0  0  0  0
 27 32  1  0  0  0  0
 27 33  1  0  0  0  0
 28 27  2  0  0  0  0
 29 30  2  0  0  0  0
 29 28  1  0  0  0  0
 30 31  1  0  0  0  0
 31  3  1  0  0  0  0
 31 32  2  0  0  0  0
 34 28  1  0  0  0  0
 35 29  1  0  0  0  0
 36 35  1  0  0  0  0
 37 36  1  0  0  0  0
M  END
>  <minimizedAffinity>
-5.26337814

$$$$

 OpenBabel03252505263D

 37 39  0  0  1  0  0  0  0  0999 V2000
   36.5370   27.9090   39.4580 F   0  0  0  0  0  0  0  0  0  0  0  0
   36.8580   29.2180   39.6690 C   0  0  0  0  0  0  0  0  0  0  0  0
   36.6270   30.1150   38.6560 C   0  0  0  0  0  0  0  0  0  0  0  0
   36.9490   31.4280   38.8700 C   0  0  0  0  0  0  0  0  0  0  0  0
   37.4900   31.8130   40.0800 C   0  0  0  0  0  0  0  0  0  0  0  0
   37.7240   30.9230   41.0970 C   0  0  0  0  0  0  0  0  0  0  0  0
   37.3870   29.5790   40.8610 C   0  0  0  0  0  0  0  0  0  0  0  0
   36.7610   32.1250   38.0620 H   0  0  0  0  0  0  0  0  0  0  0  0
   37.7240   32.8640   40.1910 H   0  0  0  0  0  0  0  0  0  0  0  0
   38.1470   31.2550   42.0310 H   0  0  0  0  0  0  0  0  0  0  0  0
   37.6510   28.6950   41.9530 N   0  0  0  0  0  0  0  0  0  0  0  0
   37.3240   28.7920   43.3450 C   0  0  0  0  0  0  0  0  0  0  0  0
   36.7090   27.4110   43.6430 C   0  0  0  0  0  0  0  0  0  0  0  0
   37.2740   26.5280   42.5550 C   0  0  0  0  0  0  0  0  0  0  0  0
   38.3390   27.4200   41.9640 C   0  0  2  0  0  0  0  0  0  0  0  0
   38.1850   28.9940   43.9980 H   0  0  0  0  0  0  0  0  0  0  0  0
   36.5010   29.5270   43.4750 H   0  0  0  0  0  0  0  0  0  0  0  0
   37.1320   27.0640   44.5920 H   0  0  0  0  0  0  0  0  0  0  0  0
   35.6190   27.4330   43.6120 H   0  0  0  0  0  0  0  0  0  0  0  0
   37.7360   25.6140   42.9270 H   0  0  0  0  0  0  0  0  0  0  0  0
   36.5310   26.3510   41.7370 H   0  0  0  0  0  0  0  0  0  0  0  0
   38.5420   27.0920   40.9080 H   0  0  0  0  0  0  0  0  0  0  0  0
   39.6280   27.4180   42.7030 C   0  0  0  0  0  0  0  0  0  0  0  0
   39.5460   27.4840   43.7880 H   0  0  0  0  0  0  0  0  0  0  0  0
   40.2510   28.2300   42.3250 H   0  0  0  0  0  0  0  0  0  0  0  0
   40.1000   26.4280   42.4940 H   0  0  0  0  0  0  0  0  0  0  0  0
   36.3010   29.2060   35.1130 C   0  0  0  0  0  0  0  0  0  0  0  0
   34.9470   28.8000   35.0190 C   0  0  0  0  0  0  0  0  0  0  0  0
   34.1990   28.8560   36.1900 C   0  0  0  0  0  0  0  0  0  0  0  0
   34.7930   29.2860   37.3270 N   0  0  0  0  0  0  0  0  0  0  0  0
   36.0530   29.6610   37.3950 C   0  0  0  0  0  0  0  0  0  0  0  0
   36.8110   29.6220   36.2870 N   0  0  0  0  0  0  0  0  0  0  0  0
   36.8900   29.1690   34.2160 H   0  0  0  0  0  0  0  0  0  0  0  0
   34.4860   28.4570   34.1040 H   0  0  0  0  0  0  0  0  0  0  0  0
   32.7750   28.4610   36.2380 C   0  0  0  0  0  2  0  0  0  0  0  0
   31.9740   29.6610   36.6890 C   0  0  0  0  0  2  0  0  0  0  0  0
   32.0210   30.4970   35.9690 H   0  0  0  0  0  0  0  0  0  0  0  0
  1  2  1  0  0  0  0
  2  7  1  0  0  0  0
  3  4  1  0  0  0  0
  3  2  2  0  0  0  0
  4  5  2  0  0  0  0
  5  9  1  0  0  0  0
  5  6  1  0  0  0  0
  6 10  1  0  0  0  0
  7  6  2  0  0  0  0
  7 11  1  0  0  0  0
  8  4  1  0  0  0  0
 11 15  1  0  0  0  0
 11 12  1  0  0  0  0
 12 17  1  0  0  0  0
 12 13  1  0  0  0  0
 12 16  1  0  0  0  0
 13 18  1  0  0  0  0
 14 20  1  0  0  0  0
 14 13  1  0  0  0  0
 15 22  1  6  0  0  0
 15 14  1  0  0  0  0
 15 23  1  0  0  0  0
 19 13  1  0  0  0  0
 21 14  1  0  0  0  0
 23 24  1  0  0  0  0
 25 23  1  0  0  0  0
 26 23  1  0  0  0  0
 27 32  1  0  0  0  0
 28 27  2  0  0  0  0
 28 29  1  0  0  0  0
 29 35  1  0  0  0  0
 29 30  2  0  0  0  0
 30 31  1  0  0  0  0
 31  3  1  0  0  0  0
 32 31  2  0  0  0  0
 33 27  1  0  0  0  0
 34 28  1  0  0  0  0
 35 36  1  0  0  0  0
 37 36  1  0  0  0  0
M  END
>  <minimizedAffinity>
-5.20482111

$$$$

 OpenBabel03252505263D

 37 39  0  0  1  0  0  0  0  0999 V2000
   36.2460   27.5790   39.2320 F   0  0  0  0  0  0  0  0  0  0  0  0
   36.6130   28.8550   39.5460 C   0  0  0  0  0  0  0  0  0  0  0  0
   36.3200   29.8550   38.6520 C   0  0  0  0  0  0  0  0  0  0  0  0
   36.6890   31.1340   38.9700 C   0  0  0  0  0  0  0  0  0  0  0  0
   37.3380   31.3850   40.1620 C   0  0  0  0  0  0  0  0  0  0  0  0
   37.6350   30.3920   41.0600 C   0  0  0  0  0  0  0  0  0  0  0  0
   37.2490   29.0840   40.7190 C   0  0  0  0  0  0  0  0  0  0  0  0
   36.4510   31.9130   38.2560 H   0  0  0  0  0  0  0  0  0  0  0  0
   37.6050   32.4150   40.3580 H   0  0  0  0  0  0  0  0  0  0  0  0
   38.1420   30.6200   41.9830 H   0  0  0  0  0  0  0  0  0  0  0  0
   37.5820   28.0890   41.6890 N   0  0  0  0  0  0  0  0  0  0  0  0
   36.7890   27.4560   42.7010 C   0  0  0  0  0  0  0  0  0  0  0  0
   37.1020   25.9620   42.4890 C   0  0  0  0  0  0  0  0  0  0  0  0
   38.4360   25.9760   41.7790 C   0  0  0  0  0  0  0  0  0  0  0  0
   38.8450   27.4220   41.9320 C   0  0  2  0  0  0  0  0  0  0  0  0
   37.0290   27.7710   43.7270 H   0  0  0  0  0  0  0  0  0  0  0  0
   35.7130   27.5810   42.4510 H   0  0  0  0  0  0  0  0  0  0  0  0
   37.2670   25.5200   43.4770 H   0  0  0  0  0  0  0  0  0  0  0  0
   36.3380   25.4650   41.8890 H   0  0  0  0  0  0  0  0  0  0  0  0
   39.1880   25.3380   42.2440 H   0  0  0  0  0  0  0  0  0  0  0  0
   38.3230   25.8030   40.6790 H   0  0  0  0  0  0  0  0  0  0  0  0
   39.5720   27.6810   41.1150 H   0  0  0  0  0  0  0  0  0  0  0  0
   39.4790   27.7500   43.2350 C   0  0  0  0  0  0  0  0  0  0  0  0
   38.9870   27.3330   44.1140 H   0  0  0  0  0  0  0  0  0  0  0  0
   39.5500   28.8340   43.3270 H   0  0  0  0  0  0  0  0  0  0  0  0
   40.4950   27.2880   43.2070 H   0  0  0  0  0  0  0  0  0  0  0  0
   33.6960   28.8550   36.2850 C   0  0  0  0  0  0  0  0  0  0  0  0
   34.3530   28.9540   35.0340 C   0  0  0  0  0  0  0  0  0  0  0  0
   35.6810   29.3650   35.0590 C   0  0  0  0  0  0  0  0  0  0  0  0
   36.2590   29.6410   36.2510 N   0  0  0  0  0  0  0  0  0  0  0  0
   35.6330   29.5420   37.4050 C   0  0  0  0  0  0  0  0  0  0  0  0
   34.3490   29.1490   37.4250 N   0  0  0  0  0  0  0  0  0  0  0  0
   32.6700   28.5390   36.2810 H   0  0  0  0  0  0  0  0  0  0  0  0
   33.8770   28.7320   34.0890 H   0  0  0  0  0  0  0  0  0  0  0  0
   36.4860   29.5130   33.8280 C   0  0  0  0  0  2  0  0  0  0  0  0
   36.3360   30.9360   33.3410 C   0  0  0  0  0  2  0  0  0  0  0  0
   36.7510   31.6720   34.0510 H   0  0  0  0  0  0  0  0  0  0  0  0
  1  2  1  0  0  0  0
  2  7  1  0  0  0  0
  3  4  1  0  0  0  0
  3  2  2  0  0  0  0
  4  5  2  0  0  0  0
  5  9  1  0  0  0  0
  5  6  1  0  0  0  0
  6 10  1  0  0  0  0
  7  6  2  0  0  0  0
  7 11  1  0  0  0  0
  8  4  1  0  0  0  0
 11 15  1  0  0  0  0
 11 12  1  0  0  0  0
 12 16  1  0  0  0  0
 13 12  1  0  0  0  0
 13 18  1  0  0  0  0
 14 15  1  0  0  0  0
 14 20  1  0  0  0  0
 14 13  1  0  0  0  0
 15 22  1  6  0  0  0
 15 23  1  0  0  0  0
 17 12  1  0  0  0  0
 19 13  1  0  0  0  0
 21 14  1  0  0  0  0
 23 25  1  0  0  0  0
 23 24  1  0  0  0  0
 26 23  1  0  0  0  0
 27 32  1  0  0  0  0
 28 29  1  0  0  0  0
 28 27  2  0  0  0  0
 29 30  2  0  0  0  0
 30 31  1  0  0  0  0
 31 32  2  0  0  0  0
 31  3  1  0  0  0  0
 33 27  1  0  0  0  0
 34 28  1  0  0  0  0
 35 29  1  0  0  0  0
 36 35  1  0  0  0  0
 36 37  1  0  0  0  0
M  END
>  <minimizedAffinity>
-5.19908714

$$$$

 OpenBabel03252505263D

 37 39  0  0  1  0  0  0  0  0999 V2000
   40.2330   29.9790   40.5040 F   0  0  0  0  0  0  0  0  0  0  0  0
   39.0260   30.6080   40.4030 C   0  0  0  0  0  0  0  0  0  0  0  0
   38.9370   31.7170   39.5990 C   0  0  0  0  0  0  0  0  0  0  0  0
   37.7260   32.3480   39.5000 C   0  0  0  0  0  0  0  0  0  0  0  0
   36.6400   31.8610   40.2000 C   0  0  0  0  0  0  0  0  0  0  0  0
   36.7210   30.7540   41.0050 C   0  0  0  0  0  0  0  0  0  0  0  0
   37.9720   30.1190   41.0960 C   0  0  0  0  0  0  0  0  0  0  0  0
   37.6700   33.2210   38.8620 H   0  0  0  0  0  0  0  0  0  0  0  0
   35.7090   32.4000   40.0820 H   0  0  0  0  0  0  0  0  0  0  0  0
   35.8550   30.3980   41.5390 H   0  0  0  0  0  0  0  0  0  0  0  0
   38.0010   28.9710   41.9480 N   0  0  0  0  0  0  0  0  0  0  0  0
   38.0560   28.8580   43.3750 C   0  0  0  0  0  0  0  0  0  0  0  0
   36.9330   27.8460   43.6760 C   0  0  0  0  0  0  0  0  0  0  0  0
   36.7690   27.0990   42.3720 C   0  0  0  0  0  0  0  0  0  0  0  0
   37.9830   27.5650   41.6030 C   0  0  2  0  0  0  0  0  0  0  0  0
   39.0230   28.5070   43.7640 H   0  0  0  0  0  0  0  0  0  0  0  0
   37.7300   29.8180   43.8290 H   0  0  0  0  0  0  0  0  0  0  0  0
   37.3250   27.1320   44.4080 H   0  0  0  0  0  0  0  0  0  0  0  0
   36.0060   28.3380   43.9710 H   0  0  0  0  0  0  0  0  0  0  0  0
   36.8050   26.0150   42.4790 H   0  0  0  0  0  0  0  0  0  0  0  0
   35.8820   27.4610   41.7950 H   0  0  0  0  0  0  0  0  0  0  0  0
   37.7810   27.4480   40.5030 H   0  0  0  0  0  0  0  0  0  0  0  0
   39.2360   26.8320   41.9220 C   0  0  0  0  0  0  0  0  0  0  0  0
   39.4210   26.6610   42.9820 H   0  0  0  0  0  0  0  0  0  0  0  0
   40.0770   27.3640   41.4770 H   0  0  0  0  0  0  0  0  0  0  0  0
   39.1240   25.8190   41.4660 H   0  0  0  0  0  0  0  0  0  0  0  0
   41.6480   33.9010   38.4290 C   0  0  0  0  0  0  0  0  0  0  0  0
   42.3350   33.0760   37.5050 C   0  0  0  0  0  0  0  0  0  0  0  0
   41.8320   31.7920   37.3240 C   0  0  0  0  0  0  0  0  0  0  0  0
   40.7380   31.4130   38.0250 N   0  0  0  0  0  0  0  0  0  0  0  0
   40.1110   32.1950   38.8790 C   0  0  0  0  0  0  0  0  0  0  0  0
   40.5650   33.4420   39.0840 N   0  0  0  0  0  0  0  0  0  0  0  0
   42.0250   34.8950   38.5790 H   0  0  0  0  0  0  0  0  0  0  0  0
   43.2080   33.3930   36.9530 H   0  0  0  0  0  0  0  0  0  0  0  0
   42.4490   30.8250   36.3920 C   0  0  0  0  0  2  0  0  0  0  0  0
   42.4000   29.4590   37.0380 C   0  0  0  0  0  2  0  0  0  0  0  0
   41.3670   29.1000   37.1890 H   0  0  0  0  0  0  0  0  0  0  0  0
  2  1  1  0  0  0  0
  2  7  1  0  0  0  0
  3  2  2  0  0  0  0
  4  3  1  0  0  0  0
  4  5  2  0  0  0  0
  5  6  1  0  0  0  0
  6  7  2  0  0  0  0
  6 10  1  0  0  0  0
  7 11  1  0  0  0  0
  8  4  1  0  0  0  0
  9  5  1  0  0  0  0
 11 12  1  0  0  0  0
 12 13  1  0  0  0  0
 12 16  1  0  0  0  0
 12 17  1  0  0  0  0
 13 19  1  0  0  0  0
 13 18  1  0  0  0  0
 14 20  1  0  0  0  0
 14 13  1  0  0  0  0
 15 22  1  6  0  0  0
 15 23  1  0  0  0  0
 15 11  1  0  0  0  0
 15 14  1  0  0  0  0
 21 14  1  0  0  0  0
 23 24  1  0  0  0  0
 25 23  1  0  0  0  0
 26 23  1  0  0  0  0
 27 33  1  0  0  0  0
 27 32  1  0  0  0  0
 28 27  2  0  0  0  0
 29 28  1  0  0  0  0
 29 30  2  0  0  0  0
 30 31  1  0  0  0  0
 31 32  2  0  0  0  0
 31  3  1  0  0  0  0
 34 28  1  0  0  0  0
 35 36  1  0  0  0  0
 35 29  1  0  0  0  0
 36 37  1  0  0  0  0
M  END
>  <minimizedAffinity>
-5.16408682

$$$$

 OpenBabel03252505263D

 37 39  0  0  1  0  0  0  0  0999 V2000
   37.9980   27.5870   39.3580 F   0  0  0  0  0  0  0  0  0  0  0  0
   37.8230   27.9450   40.6630 C   0  0  0  0  0  0  0  0  0  0  0  0
   37.6250   26.9520   41.5890 C   0  0  0  0  0  0  0  0  0  0  0  0
   37.4490   27.3140   42.8970 C   0  0  0  0  0  0  0  0  0  0  0  0
   37.4760   28.6490   43.2490 C   0  0  0  0  0  0  0  0  0  0  0  0
   37.6730   29.6470   42.3300 C   0  0  0  0  0  0  0  0  0  0  0  0
   37.8510   29.2580   40.9910 C   0  0  0  0  0  0  0  0  0  0  0  0
   37.2950   26.5200   43.6170 H   0  0  0  0  0  0  0  0  0  0  0  0
   37.3320   28.8740   44.2980 H   0  0  0  0  0  0  0  0  0  0  0  0
   37.6880   30.6800   42.6360 H   0  0  0  0  0  0  0  0  0  0  0  0
   38.0530   30.3370   40.0750 N   0  0  0  0  0  0  0  0  0  0  0  0
   39.2250   30.7720   39.3750 C   0  0  0  0  0  0  0  0  0  0  0  0
   38.7150   30.9240   37.9280 C   0  0  0  0  0  0  0  0  0  0  0  0
   37.2240   31.1040   38.0940 C   0  0  0  0  0  0  0  0  0  0  0  0
   37.1100   31.3200   39.5840 C   0  0  2  0  0  0  0  0  0  0  0  0
   39.6510   31.7150   39.7470 H   0  0  0  0  0  0  0  0  0  0  0  0
   39.9640   29.9430   39.3520 H   0  0  0  0  0  0  0  0  0  0  0  0
   39.1130   31.8670   37.5400 H   0  0  0  0  0  0  0  0  0  0  0  0
   38.9450   30.0480   37.3190 H   0  0  0  0  0  0  0  0  0  0  0  0
   36.8260   31.9740   37.5730 H   0  0  0  0  0  0  0  0  0  0  0  0
   36.6650   30.1590   37.8760 H   0  0  0  0  0  0  0  0  0  0  0  0
   36.0700   31.0430   39.9120 H   0  0  0  0  0  0  0  0  0  0  0  0
   37.3770   32.7120   40.0290 C   0  0  0  0  0  0  0  0  0  0  0  0
   38.2470   33.1900   39.5770 H   0  0  0  0  0  0  0  0  0  0  0  0
   37.4690   32.7220   41.1160 H   0  0  0  0  0  0  0  0  0  0  0  0
   36.4960   33.3140   39.7020 H   0  0  0  0  0  0  0  0  0  0  0  0
   38.6910   23.4910   40.9750 C   0  0  0  0  0  0  0  0  0  0  0  0
   37.5460   22.9160   40.3710 C   0  0  0  0  0  0  0  0  0  0  0  0
   36.4470   23.7510   40.2000 C   0  0  0  0  0  0  0  0  0  0  0  0
   36.5320   25.0380   40.6110 N   0  0  0  0  0  0  0  0  0  0  0  0
   37.6050   25.5550   41.1700 C   0  0  0  0  0  0  0  0  0  0  0  0
   38.6880   24.7830   41.3540 N   0  0  0  0  0  0  0  0  0  0  0  0
   39.5470   22.8590   41.1140 H   0  0  0  0  0  0  0  0  0  0  0  0
   37.4930   21.8860   40.0480 H   0  0  0  0  0  0  0  0  0  0  0  0
   35.1870   23.2830   39.5840 C   0  0  0  0  0  2  0  0  0  0  0  0
   35.4840   22.0080   38.8280 C   0  0  0  0  0  2  0  0  0  0  0  0
   35.8060   21.1870   39.4920 H   0  0  0  0  0  0  0  0  0  0  0  0
  1  2  1  0  0  0  0
  2  7  2  0  0  0  0
  2  3  1  0  0  0  0
  3  4  2  0  0  0  0
  4  5  1  0  0  0  0
  4  8  1  0  0  0  0
  5  9  1  0  0  0  0
  6 10  1  0  0  0  0
  6  5  2  0  0  0  0
  7  6  1  0  0  0  0
 11  7  1  0  0  0  0
 12 16  1  0  0  0  0
 12 11  1  0  0  0  0
 13 14  1  0  0  0  0
 13 12  1  0  0  0  0
 14 15  1  0  0  0  0
 15 22  1  1  0  0  0
 15 23  1  0  0  0  0
 15 11  1  0  0  0  0
 17 12  1  0  0  0  0
 18 13  1  0  0  0  0
 19 13  1  0  0  0  0
 20 14  1  0  0  0  0
 21 14  1  0  0  0  0
 23 25  1  0  0  0  0
 24 23  1  0  0  0  0
 26 23  1  0  0  0  0
 27 33  1  0  0  0  0
 27 32  1  0  0  0  0
 28 27  2  0  0  0  0
 29 28  1  0  0  0  0
 29 30  2  0  0  0  0
 30 31  1  0  0  0  0
 31 32  2  0  0  0  0
 31  3  1  0  0  0  0
 34 28  1  0  0  0  0
 35 29  1  0  0  0  0
 36 37  1  0  0  0  0
 36 35  1  0  0  0  0
M  END
>  <minimizedAffinity>
-5.06628609

$$$$

 OpenBabel03252505263D

 37 39  0  0  1  0  0  0  0  0999 V2000
   39.6660   27.9810   40.3930 F   0  0  0  0  0  0  0  0  0  0  0  0
   38.7670   27.8850   41.4160 C   0  0  0  0  0  0  0  0  0  0  0  0
   37.4720   28.2720   41.1800 C   0  0  0  0  0  0  0  0  0  0  0  0
   36.5720   28.1750   42.2080 C   0  0  0  0  0  0  0  0  0  0  0  0
   36.9830   27.6990   43.4370 C   0  0  0  0  0  0  0  0  0  0  0  0
   38.2750   27.3120   43.6800 C   0  0  0  0  0  0  0  0  0  0  0  0
   39.1870   27.4170   42.6150 C   0  0  0  0  0  0  0  0  0  0  0  0
   35.5530   28.4830   42.0080 H   0  0  0  0  0  0  0  0  0  0  0  0
   36.2270   27.6450   44.2100 H   0  0  0  0  0  0  0  0  0  0  0  0
   38.5650   26.9440   44.6500 H   0  0  0  0  0  0  0  0  0  0  0  0
   40.5190   27.0000   42.9220 N   0  0  0  0  0  0  0  0  0  0  0  0
   41.0060   25.8860   43.6800 C   0  0  0  0  0  0  0  0  0  0  0  0
   42.0740   25.2850   42.7440 C   0  0  0  0  0  0  0  0  0  0  0  0
   42.4490   26.4390   41.8440 C   0  0  0  0  0  0  0  0  0  0  0  0
   41.7830   27.5990   42.5470 C   0  0  2  0  0  0  0  0  0  0  0  0
   41.4380   26.1560   44.6540 H   0  0  0  0  0  0  0  0  0  0  0  0
   40.2050   25.1210   43.7590 H   0  0  0  0  0  0  0  0  0  0  0  0
   42.9520   25.0550   43.3570 H   0  0  0  0  0  0  0  0  0  0  0  0
   41.6860   24.4420   42.1690 H   0  0  0  0  0  0  0  0  0  0  0  0
   43.5220   26.6210   41.7870 H   0  0  0  0  0  0  0  0  0  0  0  0
   41.9550   26.3620   40.8430 H   0  0  0  0  0  0  0  0  0  0  0  0
   41.6060   28.4210   41.8010 H   0  0  0  0  0  0  0  0  0  0  0  0
   42.5610   28.1640   43.6790 C   0  0  0  0  0  0  0  0  0  0  0  0
   43.0060   27.4330   44.3540 H   0  0  0  0  0  0  0  0  0  0  0  0
   41.9210   28.8470   44.2390 H   0  0  0  0  0  0  0  0  0  0  0  0
   43.4180   28.7130   43.2200 H   0  0  0  0  0  0  0  0  0  0  0  0
   36.0100   28.4250   37.8150 C   0  0  0  0  0  0  0  0  0  0  0  0
   36.3620   29.7270   37.3820 C   0  0  0  0  0  0  0  0  0  0  0  0
   37.0920   30.5030   38.2760 C   0  0  0  0  0  0  0  0  0  0  0  0
   37.4190   29.9810   39.4810 N   0  0  0  0  0  0  0  0  0  0  0  0
   37.0840   28.7680   39.8650 C   0  0  0  0  0  0  0  0  0  0  0  0
   36.3780   27.9860   39.0330 N   0  0  0  0  0  0  0  0  0  0  0  0
   35.4460   27.8140   37.1350 H   0  0  0  0  0  0  0  0  0  0  0  0
   36.0920   30.1300   36.4160 H   0  0  0  0  0  0  0  0  0  0  0  0
   37.5260   31.8800   37.9560 C   0  0  0  0  0  2  0  0  0  0  0  0
   37.3240   32.7300   39.1900 C   0  0  0  0  0  2  0  0  0  0  0  0
   37.9620   32.4120   40.0320 H   0  0  0  0  0  0  0  0  0  0  0  0
  1  2  1  0  0  0  0
  2  7  1  0  0  0  0
  3  2  2  0  0  0  0
  3  4  1  0  0  0  0
  4  5  2  0  0  0  0
  5  6  1  0  0  0  0
  5  9  1  0  0  0  0
  6 10  1  0  0  0  0
  7 11  1  0  0  0  0
  7  6  2  0  0  0  0
  8  4  1  0  0  0  0
 11 12  1  0  0  0  0
 12 17  1  0  0  0  0
 12 16  1  0  0  0  0
 13 18  1  0  0  0  0
 13 12  1  0  0  0  0
 14 15  1  0  0  0  0
 14 13  1  0  0  0  0
 15 22  1  6  0  0  0
 15 11  1  0  0  0  0
 15 23  1  0  0  0  0
 19 13  1  0  0  0  0
 20 14  1  0  0  0  0
 21 14  1  0  0  0  0
 23 25  1  0  0  0  0
 23 24  1  0  0  0  0
 26 23  1  0  0  0  0
 27 32  1  0  0  0  0
 28 27  2  0  0  0  0
 28 29  1  0  0  0  0
 29 30  2  0  0  0  0
 30 31  1  0  0  0  0
 31  3  1  0  0  0  0
 32 31  2  0  0  0  0
 33 27  1  0  0  0  0
 34 28  1  0  0  0  0
 35 29  1  0  0  0  0
 35 36  1  0  0  0  0
 36 37  1  0  0  0  0
M  END
>  <minimizedAffinity>
-5.04627991

$$$$
