
 OpenBabel03242521233D

 36 38  0  0  0  0  0  0  0  0999 V2000
   45.3910   33.7000   45.6950 C   0  0  0  0  0  0  0  0  0  0  0  0
   44.8420   34.9020   46.0190 C   0  0  0  0  0  0  0  0  0  0  0  0
   44.3970   35.8110   45.0870 C   0  0  0  0  0  0  0  0  0  0  0  0
   44.5290   35.4510   43.7890 N   0  0  0  0  0  0  0  0  0  0  0  0
   45.0760   34.2530   43.4720 C   0  0  0  0  0  0  0  0  0  0  0  0
   45.5070   33.3720   44.3950 N   0  0  0  0  0  0  0  0  0  0  0  0
   44.7500   35.1620   47.0630 H   0  0  0  0  0  0  0  0  0  0  0  0
   43.9610   36.7670   45.3220 H   0  0  0  0  0  0  0  0  0  0  0  0
   45.2120   33.8760   42.0470 C   0  0  0  0  0  0  0  0  0  0  0  0
   44.1690   33.2360   41.4210 C   0  0  0  0  0  0  0  0  0  0  0  0
   44.1950   32.8400   40.0880 C   0  0  0  0  0  0  0  0  0  0  0  0
   45.3490   33.1180   39.3710 C   0  0  0  0  0  0  0  0  0  0  0  0
   46.3760   33.7510   39.9940 C   0  0  0  0  0  0  0  0  0  0  0  0
   46.3440   34.1430   41.3200 C   0  0  0  0  0  0  0  0  0  0  0  0
   43.2650   33.0180   41.9850 H   0  0  0  0  0  0  0  0  0  0  0  0
   43.3870   32.3400   39.5920 H   0  0  0  0  0  0  0  0  0  0  0  0
   45.5050   32.8680   38.3310 H   0  0  0  0  0  0  0  0  0  0  0  0
   47.2960   33.9900   39.4750 H   0  0  0  0  0  0  0  0  0  0  0  0
   47.3740   34.7870   41.9740 O   0  0  0  0  0  0  0  0  0  0  0  0
   49.8210   35.4190   42.6240 O   0  0  0  0  0  0  0  0  0  0  0  0
   48.9910   34.8330   41.4930 P   0  0  0  0  0  0  0  0  0  0  0  0
   49.6120   33.3500   41.0190 O   0  0  0  0  0  0  0  0  0  0  0  0
   50.5940   33.4500   40.9450 H   0  0  0  0  0  0  0  0  0  0  0  0
   49.1300   35.9100   40.1820 O   0  0  0  0  0  0  0  0  0  0  0  0
   49.6070   35.5150   39.4100 H   0  0  0  0  0  0  0  0  0  0  0  0
   45.7200   31.9630   48.9080 C   0  0  0  0  0  0  0  0  0  0  0  0
   46.7030   31.0140   48.6200 C   0  0  0  0  0  0  0  0  0  0  0  0
   47.2490   30.9640   47.3500 C   0  0  0  0  0  0  0  0  0  0  0  0
   46.8000   31.8570   46.4050 N   0  0  0  0  0  0  0  0  0  0  0  0
   45.8500   32.7640   46.7090 C   0  0  0  0  0  0  0  0  0  0  0  0
   45.3180   32.8140   47.9450 N   0  0  0  0  0  0  0  0  0  0  0  0
   45.2630   32.0420   49.8870 H   0  0  0  0  0  0  0  0  0  0  0  0
   47.0370   30.3200   49.3910 H   0  0  0  0  0  0  0  0  0  0  0  0
   48.2880   29.9930   46.9690 C   0  0  0  0  0  0  0  0  0  0  0  0
   49.1310   29.7150   48.1990 C   0  0  0  0  0  0  0  0  0  0  0  0
   50.1950   29.6490   47.8950 H   0  0  0  0  0  0  0  0  0  0  0  0
  1  2  1  0  0  0  0
  1 30  1  0  0  0  0
  2  7  1  0  0  0  0
  3  8  1  0  0  0  0
  3  2  2  0  0  0  0
  4  3  1  0  0  0  0
  5  4  2  0  0  0  0
  5  6  1  0  0  0  0
  6  1  2  0  0  0  0
  9  5  1  0  0  0  0
 10 15  1  0  0  0  0
 10  9  1  0  0  0  0
 11 10  2  0  0  0  0
 12 13  2  0  0  0  0
 12 11  1  0  0  0  0
 13 14  1  0  0  0  0
 14 19  1  0  0  0  0
 14  9  2  0  0  0  0
 16 11  1  0  0  0  0
 17 12  1  0  0  0  0
 18 13  1  0  0  0  0
 21 19  1  0  0  0  0
 21 20  2  0  0  0  0
 22 21  1  0  0  0  0
 23 22  1  0  0  0  0
 24 21  1  0  0  0  0
 25 24  1  0  0  0  0
 26 32  1  0  0  0  0
 27 26  1  0  0  0  0
 27 33  1  0  0  0  0
 28 27  2  0  0  0  0
 29 30  2  0  0  0  0
 29 28  1  0  0  0  0
 30 31  1  0  0  0  0
 31 26  2  0  0  0  0
 34 28  1  0  0  0  0
 34 35  1  0  0  0  0
 36 35  1  0  0  0  0
M  END
>  <minimizedAffinity>
-6.06470251

>  <minimizedRMSD>
0.499040633

$$$$
