
 OpenBabel03252501283D

 36 39  0  0  0  0  0  0  0  0999 V2000
   41.0340   31.2370   39.4190 F   0  0  0  0  0  0  0  0  0  0  0  0
   40.3860   32.3400   39.7920 C   0  0  0  0  0  0  0  0  0  0  0  0
   39.2560   32.2340   40.5510 C   0  0  0  0  0  0  0  0  0  0  0  0
   38.5640   33.3870   40.9500 C   0  0  0  0  0  0  0  0  0  0  0  0
   38.9860   34.6410   40.6010 C   0  0  0  0  0  0  0  0  0  0  0  0
   40.1310   34.7240   39.8320 C   0  0  0  0  0  0  0  0  0  0  0  0
   40.8240   33.6010   39.4300 C   0  0  0  0  0  0  0  0  0  0  0  0
   37.6610   33.3300   41.5560 H   0  0  0  0  0  0  0  0  0  0  0  0
   38.4410   35.5130   40.9160 H   0  0  0  0  0  0  0  0  0  0  0  0
   40.4570   35.7200   39.5600 H   0  0  0  0  0  0  0  0  0  0  0  0
   42.0210   33.8030   38.6200 C   0  0  0  0  0  0  0  0  0  0  0  0
   42.1970   33.9910   37.2780 C   0  0  0  0  0  0  0  0  0  0  0  0
   43.4940   34.1360   36.9620 N   0  0  0  0  0  0  0  0  0  0  0  0
   44.1570   34.0370   38.1330 C   0  0  0  0  0  0  0  0  0  0  0  0
   43.2730   33.8380   39.1220 N   0  0  0  0  0  0  0  0  0  0  0  0
   41.3360   34.0100   36.5950 H   0  0  0  0  0  0  0  0  0  0  0  0
   43.8920   34.2910   36.0140 H   0  0  0  0  0  0  0  0  0  0  0  0
   45.2330   34.1030   38.2960 H   0  0  0  0  0  0  0  0  0  0  0  0
   38.6740   29.0020   41.8310 C   0  0  0  0  0  0  0  0  0  0  0  0
   37.3780   29.3910   41.5130 C   0  0  0  0  0  0  0  0  0  0  0  0
   37.4080   30.6460   40.9940 C   0  0  0  0  0  0  0  0  0  0  0  0
   38.6990   31.0260   40.9890 N   0  0  0  0  0  0  0  0  0  0  0  0
   39.4490   30.0410   41.4900 N   0  0  0  0  0  0  0  0  0  0  0  0
   36.4660   28.7940   41.6540 H   0  0  0  0  0  0  0  0  0  0  0  0
   36.5540   31.2120   40.6560 H   0  0  0  0  0  0  0  0  0  0  0  0
   40.4340   26.4900   43.8100 C   0  0  0  0  0  0  0  0  0  0  0  0
   39.7530   25.2960   43.4810 C   0  0  0  0  0  0  0  0  0  0  0  0
   38.6920   25.3890   42.5740 C   0  0  0  0  0  0  0  0  0  0  0  0
   38.4040   26.6060   42.0880 N   0  0  0  0  0  0  0  0  0  0  0  0
   39.0540   27.7380   42.4030 C   0  0  0  0  0  0  0  0  0  0  0  0
   40.0860   27.6760   43.2790 N   0  0  0  0  0  0  0  0  0  0  0  0
   41.2570   26.3750   44.5220 H   0  0  0  0  0  0  0  0  0  0  0  0
   40.0100   24.3410   43.8890 H   0  0  0  0  0  0  0  0  0  0  0  0
   37.8990   24.2090   42.1490 C   0  0  0  0  0  2  0  0  0  0  0  0
   36.9250   24.5440   41.0400 C   0  0  0  0  0  2  0  0  0  0  0  0
   37.2940   24.1720   40.0660 H   0  0  0  0  0  0  0  0  0  0  0  0
  1  2  1  0  0  0  0
  2  3  1  0  0  0  0
  3  4  2  0  0  0  0
  3 22  1  0  0  0  0
  4  8  1  0  0  0  0
  5  9  1  0  0  0  0
  5  4  1  0  0  0  0
  6  5  2  0  0  0  0
  7  2  2  0  0  0  0
  7  6  1  0  0  0  0
 10  6  1  0  0  0  0
 11 15  1  0  0  0  0
 11  7  1  0  0  0  0
 12 11  2  0  0  0  0
 13 12  1  0  0  0  0
 13 14  1  0  0  0  0
 14 18  1  0  0  0  0
 14 15  2  0  0  0  0
 16 12  1  0  0  0  0
 17 13  1  0  0  0  0
 19 30  1  0  0  0  0
 20 24  1  0  0  0  0
 20 19  1  0  0  0  0
 21 20  2  0  0  0  0
 22 21  1  0  0  0  0
 22 23  1  0  0  0  0
 23 19  2  0  0  0  0
 25 21  1  0  0  0  0
 26 32  1  0  0  0  0
 27 26  1  0  0  0  0
 27 33  1  0  0  0  0
 28 27  2  0  0  0  0
 29 30  2  0  0  0  0
 29 28  1  0  0  0  0
 30 31  1  0  0  0  0
 31 26  2  0  0  0  0
 34 28  1  0  0  0  0
 35 34  1  0  0  0  0
 36 35  1  0  0  0  0
M  END
>  <minimizedAffinity>
-6.22806263

$$$$

 OpenBabel03252501283D

 36 39  0  0  0  0  0  0  0  0999 V2000
   40.5350   31.3630   38.4880 F   0  0  0  0  0  0  0  0  0  0  0  0
   40.0040   32.4310   39.0830 C   0  0  0  0  0  0  0  0  0  0  0  0
   38.7610   32.3420   39.6420 C   0  0  0  0  0  0  0  0  0  0  0  0
   38.1900   33.4580   40.2700 C   0  0  0  0  0  0  0  0  0  0  0  0
   38.8440   34.6580   40.3490 C   0  0  0  0  0  0  0  0  0  0  0  0
   40.0990   34.7240   39.7770 C   0  0  0  0  0  0  0  0  0  0  0  0
   40.6760   33.6370   39.1540 C   0  0  0  0  0  0  0  0  0  0  0  0
   37.2000   33.4140   40.7240 H   0  0  0  0  0  0  0  0  0  0  0  0
   38.3890   35.5020   40.8350 H   0  0  0  0  0  0  0  0  0  0  0  0
   40.6090   35.6770   39.8440 H   0  0  0  0  0  0  0  0  0  0  0  0
   42.0080   33.8160   38.5830 C   0  0  0  0  0  0  0  0  0  0  0  0
   42.4330   34.0200   37.3000 C   0  0  0  0  0  0  0  0  0  0  0  0
   43.7690   34.1320   37.2320 N   0  0  0  0  0  0  0  0  0  0  0  0
   44.2010   33.9970   38.5030 C   0  0  0  0  0  0  0  0  0  0  0  0
   43.1450   33.8080   39.3070 N   0  0  0  0  0  0  0  0  0  0  0  0
   41.7150   34.0750   36.4700 H   0  0  0  0  0  0  0  0  0  0  0  0
   44.3400   34.2910   36.3760 H   0  0  0  0  0  0  0  0  0  0  0  0
   45.2300   34.0290   38.8630 H   0  0  0  0  0  0  0  0  0  0  0  0
   37.2970   29.2010   40.2830 C   0  0  0  0  0  0  0  0  0  0  0  0
   36.4830   29.6590   39.2530 C   0  0  0  0  0  0  0  0  0  0  0  0
   36.9090   30.8910   38.8680 C   0  0  0  0  0  0  0  0  0  0  0  0
   37.9680   31.1890   39.6450 N   0  0  0  0  0  0  0  0  0  0  0  0
   38.1930   30.1760   40.4870 N   0  0  0  0  0  0  0  0  0  0  0  0
   35.6300   29.1270   38.8110 H   0  0  0  0  0  0  0  0  0  0  0  0
   36.4740   31.4970   38.0900 H   0  0  0  0  0  0  0  0  0  0  0  0
   36.9300   26.7130   42.9290 C   0  0  0  0  0  0  0  0  0  0  0  0
   36.9110   25.4940   42.2150 C   0  0  0  0  0  0  0  0  0  0  0  0
   37.0270   25.5620   40.8220 C   0  0  0  0  0  0  0  0  0  0  0  0
   37.1470   26.7810   40.2740 N   0  0  0  0  0  0  0  0  0  0  0  0
   37.1640   27.9370   40.9570 C   0  0  0  0  0  0  0  0  0  0  0  0
   37.0540   27.9000   42.3070 N   0  0  0  0  0  0  0  0  0  0  0  0
   36.8370   26.6180   44.0160 H   0  0  0  0  0  0  0  0  0  0  0  0
   36.8140   24.5380   42.6850 H   0  0  0  0  0  0  0  0  0  0  0  0
   37.0200   24.3540   39.9610 C   0  0  0  0  0  2  0  0  0  0  0  0
   37.7240   23.1830   40.6130 C   0  0  0  0  0  2  0  0  0  0  0  0
   36.9920   22.4480   40.9980 H   0  0  0  0  0  0  0  0  0  0  0  0
  1  2  1  0  0  0  0
  2  7  2  0  0  0  0
  2  3  1  0  0  0  0
  3 22  1  0  0  0  0
  3  4  2  0  0  0  0
  4  5  1  0  0  0  0
  4  8  1  0  0  0  0
  5  9  1  0  0  0  0
  6 10  1  0  0  0  0
  6  5  2  0  0  0  0
  7  6  1  0  0  0  0
 11  7  1  0  0  0  0
 11 15  1  0  0  0  0
 12 11  2  0  0  0  0
 13 12  1  0  0  0  0
 13 14  1  0  0  0  0
 14 18  1  0  0  0  0
 14 15  2  0  0  0  0
 16 12  1  0  0  0  0
 17 13  1  0  0  0  0
 19 23  2  0  0  0  0
 19 30  1  0  0  0  0
 20 19  1  0  0  0  0
 21 20  2  0  0  0  0
 21 22  1  0  0  0  0
 22 23  1  0  0  0  0
 24 20  1  0  0  0  0
 25 21  1  0  0  0  0
 26 32  1  0  0  0  0
 27 33  1  0  0  0  0
 27 26  2  0  0  0  0
 28 27  1  0  0  0  0
 29 28  2  0  0  0  0
 29 30  1  0  0  0  0
 30 31  2  0  0  0  0
 31 26  1  0  0  0  0
 34 35  1  0  0  0  0
 34 28  1  0  0  0  0
 35 36  1  0  0  0  0
M  END
>  <minimizedAffinity>
-6.12547064

$$$$

 OpenBabel03252501283D

 36 39  0  0  0  0  0  0  0  0999 V2000
   40.0690   27.7930   40.7150 F   0  0  0  0  0  0  0  0  0  0  0  0
   39.2000   27.7790   41.7250 C   0  0  0  0  0  0  0  0  0  0  0  0
   38.0150   28.4480   41.6050 C   0  0  0  0  0  0  0  0  0  0  0  0
   37.0920   28.4410   42.6610 C   0  0  0  0  0  0  0  0  0  0  0  0
   37.3360   27.7740   43.8310 C   0  0  0  0  0  0  0  0  0  0  0  0
   38.5400   27.1040   43.9290 C   0  0  0  0  0  0  0  0  0  0  0  0
   39.4600   27.1010   42.9020 C   0  0  0  0  0  0  0  0  0  0  0  0
   36.1410   28.9670   42.5910 H   0  0  0  0  0  0  0  0  0  0  0  0
   36.6150   27.7800   44.6290 H   0  0  0  0  0  0  0  0  0  0  0  0
   38.7240   26.5790   44.8590 H   0  0  0  0  0  0  0  0  0  0  0  0
   40.7010   26.3610   43.1120 C   0  0  0  0  0  0  0  0  0  0  0  0
   41.1180   25.1330   42.6790 C   0  0  0  0  0  0  0  0  0  0  0  0
   42.3540   24.8450   43.1190 N   0  0  0  0  0  0  0  0  0  0  0  0
   42.7290   25.9170   43.8470 C   0  0  0  0  0  0  0  0  0  0  0  0
   41.7380   26.8210   43.8410 N   0  0  0  0  0  0  0  0  0  0  0  0
   40.4700   24.5070   42.0500 H   0  0  0  0  0  0  0  0  0  0  0  0
   42.8970   23.9780   42.9310 H   0  0  0  0  0  0  0  0  0  0  0  0
   43.6730   26.0670   44.3720 H   0  0  0  0  0  0  0  0  0  0  0  0
   36.6060   29.5460   38.5670 C   0  0  0  0  0  0  0  0  0  0  0  0
   37.3040   30.6840   38.9540 C   0  0  0  0  0  0  0  0  0  0  0  0
   37.9270   30.4400   40.1370 C   0  0  0  0  0  0  0  0  0  0  0  0
   37.6200   29.1740   40.4760 N   0  0  0  0  0  0  0  0  0  0  0  0
   36.8320   28.6470   39.5350 N   0  0  0  0  0  0  0  0  0  0  0  0
   37.3550   31.6350   38.4060 H   0  0  0  0  0  0  0  0  0  0  0  0
   38.5430   31.1360   40.6840 H   0  0  0  0  0  0  0  0  0  0  0  0
   33.7740   28.9870   36.3330 C   0  0  0  0  0  0  0  0  0  0  0  0
   34.3440   29.1600   35.0520 C   0  0  0  0  0  0  0  0  0  0  0  0
   35.7080   29.4700   34.9900 C   0  0  0  0  0  0  0  0  0  0  0  0
   36.3660   29.5770   36.1550 N   0  0  0  0  0  0  0  0  0  0  0  0
   35.8200   29.4110   37.3700 C   0  0  0  0  0  0  0  0  0  0  0  0
   34.5010   29.1120   37.4580 N   0  0  0  0  0  0  0  0  0  0  0  0
   32.7060   28.7470   36.3390 H   0  0  0  0  0  0  0  0  0  0  0  0
   33.7880   29.0670   34.1430 H   0  0  0  0  0  0  0  0  0  0  0  0
   36.4220   29.6760   33.7070 C   0  0  0  0  0  2  0  0  0  0  0  0
   36.3580   31.1160   33.2420 C   0  0  0  0  0  2  0  0  0  0  0  0
   37.3200   31.6310   33.4240 H   0  0  0  0  0  0  0  0  0  0  0  0
  1  2  1  0  0  0  0
  2  7  1  0  0  0  0
  3  2  2  0  0  0  0
  3  4  1  0  0  0  0
  4  5  2  0  0  0  0
  5  6  1  0  0  0  0
  5  9  1  0  0  0  0
  6 10  1  0  0  0  0
  7 11  1  0  0  0  0
  7  6  2  0  0  0  0
  8  4  1  0  0  0  0
 11 15  1  0  0  0  0
 12 11  2  0  0  0  0
 12 13  1  0  0  0  0
 13 14  1  0  0  0  0
 14 18  1  0  0  0  0
 15 14  2  0  0  0  0
 16 12  1  0  0  0  0
 17 13  1  0  0  0  0
 19 20  1  0  0  0  0
 19 23  2  0  0  0  0
 20 21  2  0  0  0  0
 21 22  1  0  0  0  0
 21 25  1  0  0  0  0
 22  3  1  0  0  0  0
 23 22  1  0  0  0  0
 24 20  1  0  0  0  0
 26 32  1  0  0  0  0
 26 31  1  0  0  0  0
 27 26  2  0  0  0  0
 28 27  1  0  0  0  0
 28 29  2  0  0  0  0
 29 30  1  0  0  0  0
 30 31  2  0  0  0  0
 30 19  1  0  0  0  0
 33 27  1  0  0  0  0
 34 28  1  0  0  0  0
 35 36  1  0  0  0  0
 35 34  1  0  0  0  0
M  END
>  <minimizedAffinity>
-6.03179359

$$$$

 OpenBabel03252501283D

 36 39  0  0  0  0  0  0  0  0999 V2000
   37.7180   27.1470   39.6260 F   0  0  0  0  0  0  0  0  0  0  0  0
   37.4200   27.2780   40.9190 C   0  0  0  0  0  0  0  0  0  0  0  0
   37.2620   28.5260   41.4510 C   0  0  0  0  0  0  0  0  0  0  0  0
   36.9480   28.6780   42.8090 C   0  0  0  0  0  0  0  0  0  0  0  0
   36.7900   27.6020   43.6400 C   0  0  0  0  0  0  0  0  0  0  0  0
   36.9540   26.3510   43.0800 C   0  0  0  0  0  0  0  0  0  0  0  0
   37.2630   26.1810   41.7470 C   0  0  0  0  0  0  0  0  0  0  0  0
   36.8180   29.6620   43.2580 H   0  0  0  0  0  0  0  0  0  0  0  0
   36.5500   27.7400   44.6790 H   0  0  0  0  0  0  0  0  0  0  0  0
   36.8270   25.5050   43.7450 H   0  0  0  0  0  0  0  0  0  0  0  0
   37.4140   24.8140   41.2580 C   0  0  0  0  0  0  0  0  0  0  0  0
   38.3580   23.8560   41.4980 C   0  0  0  0  0  0  0  0  0  0  0  0
   38.0990   22.7230   40.8260 N   0  0  0  0  0  0  0  0  0  0  0  0
   36.9620   22.9700   40.1420 C   0  0  0  0  0  0  0  0  0  0  0  0
   36.5560   24.2210   40.4030 N   0  0  0  0  0  0  0  0  0  0  0  0
   39.2030   24.0540   42.1730 H   0  0  0  0  0  0  0  0  0  0  0  0
   38.6600   21.8470   40.8370 H   0  0  0  0  0  0  0  0  0  0  0  0
   36.4260   22.2930   39.4760 H   0  0  0  0  0  0  0  0  0  0  0  0
   38.3590   31.5560   40.0240 C   0  0  0  0  0  0  0  0  0  0  0  0
   37.0940   31.4460   39.4560 C   0  0  0  0  0  0  0  0  0  0  0  0
   36.5070   30.3060   39.9040 C   0  0  0  0  0  0  0  0  0  0  0  0
   37.3910   29.7210   40.7340 N   0  0  0  0  0  0  0  0  0  0  0  0
   38.4930   30.4730   40.8000 N   0  0  0  0  0  0  0  0  0  0  0  0
   36.6310   32.1550   38.7570 H   0  0  0  0  0  0  0  0  0  0  0  0
   35.5230   29.9540   39.6370 H   0  0  0  0  0  0  0  0  0  0  0  0
   40.1410   34.7240   40.3670 C   0  0  0  0  0  0  0  0  0  0  0  0
   41.0930   34.6640   39.3250 C   0  0  0  0  0  0  0  0  0  0  0  0
   41.0960   33.5190   38.5200 C   0  0  0  0  0  0  0  0  0  0  0  0
   40.1930   32.5670   38.8030 N   0  0  0  0  0  0  0  0  0  0  0  0
   39.2900   32.6280   39.7940 C   0  0  0  0  0  0  0  0  0  0  0  0
   39.2650   33.7260   40.5890 N   0  0  0  0  0  0  0  0  0  0  0  0
   40.1700   35.6350   40.9730 H   0  0  0  0  0  0  0  0  0  0  0  0
   41.7990   35.4430   39.1280 H   0  0  0  0  0  0  0  0  0  0  0  0
   42.0460   33.3370   37.3950 C   0  0  0  0  0  2  0  0  0  0  0  0
   43.3930   33.9710   37.6760 C   0  0  0  0  0  2  0  0  0  0  0  0
   44.1430   33.2010   37.9350 H   0  0  0  0  0  0  0  0  0  0  0  0
  1  2  1  0  0  0  0
  2  3  2  0  0  0  0
  2  7  1  0  0  0  0
  3  4  1  0  0  0  0
  4  8  1  0  0  0  0
  4  5  2  0  0  0  0
  5  9  1  0  0  0  0
  6  5  1  0  0  0  0
  6 10  1  0  0  0  0
  7  6  2  0  0  0  0
 11 12  2  0  0  0  0
 11  7  1  0  0  0  0
 12 16  1  0  0  0  0
 13 17  1  0  0  0  0
 13 12  1  0  0  0  0
 14 15  2  0  0  0  0
 14 13  1  0  0  0  0
 15 11  1  0  0  0  0
 18 14  1  0  0  0  0
 19 23  2  0  0  0  0
 20 21  2  0  0  0  0
 20 19  1  0  0  0  0
 21 22  1  0  0  0  0
 22 23  1  0  0  0  0
 22  3  1  0  0  0  0
 24 20  1  0  0  0  0
 25 21  1  0  0  0  0
 26 31  1  0  0  0  0
 26 32  1  0  0  0  0
 27 26  2  0  0  0  0
 28 29  2  0  0  0  0
 28 27  1  0  0  0  0
 29 30  1  0  0  0  0
 30 19  1  0  0  0  0
 30 31  2  0  0  0  0
 33 27  1  0  0  0  0
 34 35  1  0  0  0  0
 34 28  1  0  0  0  0
 35 36  1  0  0  0  0
M  END
>  <minimizedAffinity>
-5.96829605

$$$$

 OpenBabel03252501283D

 36 39  0  0  0  0  0  0  0  0999 V2000
   40.8470   30.7180   39.9190 F   0  0  0  0  0  0  0  0  0  0  0  0
   39.7530   31.4790   39.9330 C   0  0  0  0  0  0  0  0  0  0  0  0
   38.6610   31.0780   40.6490 C   0  0  0  0  0  0  0  0  0  0  0  0
   37.5040   31.8700   40.6710 C   0  0  0  0  0  0  0  0  0  0  0  0
   37.4240   33.0550   39.9920 C   0  0  0  0  0  0  0  0  0  0  0  0
   38.5410   33.4400   39.2750 C   0  0  0  0  0  0  0  0  0  0  0  0
   39.6870   32.6750   39.2400 C   0  0  0  0  0  0  0  0  0  0  0  0
   36.6200   31.5730   41.2340 H   0  0  0  0  0  0  0  0  0  0  0  0
   36.5280   33.6480   40.0210 H   0  0  0  0  0  0  0  0  0  0  0  0
   38.4690   34.3800   38.7400 H   0  0  0  0  0  0  0  0  0  0  0  0
   40.8090   33.1760   38.4520 C   0  0  0  0  0  0  0  0  0  0  0  0
   41.4080   32.7110   37.3150 C   0  0  0  0  0  0  0  0  0  0  0  0
   42.4230   33.5010   36.9310 N   0  0  0  0  0  0  0  0  0  0  0  0
   42.4690   34.4900   37.8470 C   0  0  0  0  0  0  0  0  0  0  0  0
   41.5030   34.2920   38.7550 N   0  0  0  0  0  0  0  0  0  0  0  0
   41.0510   31.7950   36.8240 H   0  0  0  0  0  0  0  0  0  0  0  0
   43.0380   33.3690   36.1010 H   0  0  0  0  0  0  0  0  0  0  0  0
   43.1610   35.3320   37.8820 H   0  0  0  0  0  0  0  0  0  0  0  0
   38.2730   27.7570   41.7630 C   0  0  0  0  0  0  0  0  0  0  0  0
   38.6000   28.3930   42.9550 C   0  0  0  0  0  0  0  0  0  0  0  0
   38.7910   29.7160   42.7120 C   0  0  0  0  0  0  0  0  0  0  0  0
   38.5860   29.8960   41.3940 N   0  0  0  0  0  0  0  0  0  0  0  0
   38.2770   28.7230   40.8350 N   0  0  0  0  0  0  0  0  0  0  0  0
   38.6940   27.9180   43.9420 H   0  0  0  0  0  0  0  0  0  0  0  0
   39.0550   30.4620   43.4450 H   0  0  0  0  0  0  0  0  0  0  0  0
   38.3030   24.1460   42.2990 C   0  0  0  0  0  0  0  0  0  0  0  0
   37.4420   23.6700   41.2860 C   0  0  0  0  0  0  0  0  0  0  0  0
   36.8660   24.6170   40.4320 C   0  0  0  0  0  0  0  0  0  0  0  0
   37.1770   25.9050   40.6450 N   0  0  0  0  0  0  0  0  0  0  0  0
   37.9960   26.3540   41.6100 C   0  0  0  0  0  0  0  0  0  0  0  0
   38.5680   25.4570   42.4500 N   0  0  0  0  0  0  0  0  0  0  0  0
   38.7340   23.3740   42.9460 H   0  0  0  0  0  0  0  0  0  0  0  0
   37.2160   22.6330   41.1450 H   0  0  0  0  0  0  0  0  0  0  0  0
   35.9450   24.2440   39.3300 C   0  0  0  0  0  2  0  0  0  0  0  0
   35.7980   25.3520   38.3090 C   0  0  0  0  0  2  0  0  0  0  0  0
   36.3760   25.1230   37.3940 H   0  0  0  0  0  0  0  0  0  0  0  0
  1  2  1  0  0  0  0
  2  3  1  0  0  0  0
  3  4  2  0  0  0  0
  3 22  1  0  0  0  0
  4  8  1  0  0  0  0
  5  9  1  0  0  0  0
  5  4  1  0  0  0  0
  6  5  2  0  0  0  0
  7  6  1  0  0  0  0
  7  2  2  0  0  0  0
 10  6  1  0  0  0  0
 11 15  1  0  0  0  0
 11  7  1  0  0  0  0
 12 11  2  0  0  0  0
 13 12  1  0  0  0  0
 13 14  1  0  0  0  0
 14 18  1  0  0  0  0
 14 15  2  0  0  0  0
 16 12  1  0  0  0  0
 17 13  1  0  0  0  0
 19 20  1  0  0  0  0
 20 24  1  0  0  0  0
 21 20  2  0  0  0  0
 21 25  1  0  0  0  0
 22 21  1  0  0  0  0
 23 22  1  0  0  0  0
 23 19  2  0  0  0  0
 26 31  1  0  0  0  0
 26 32  1  0  0  0  0
 27 26  2  0  0  0  0
 28 29  2  0  0  0  0
 28 27  1  0  0  0  0
 29 30  1  0  0  0  0
 30 19  1  0  0  0  0
 30 31  2  0  0  0  0
 33 27  1  0  0  0  0
 34 28  1  0  0  0  0
 35 34  1  0  0  0  0
 36 35  1  0  0  0  0
M  END
>  <minimizedAffinity>
-5.86810017

$$$$

 OpenBabel03252501283D

 36 39  0  0  0  0  0  0  0  0999 V2000
   41.8890   31.4310   40.2850 F   0  0  0  0  0  0  0  0  0  0  0  0
   40.9980   32.4220   40.3170 C   0  0  0  0  0  0  0  0  0  0  0  0
   39.7680   32.2060   40.8680 C   0  0  0  0  0  0  0  0  0  0  0  0
   38.8220   33.2400   40.9080 C   0  0  0  0  0  0  0  0  0  0  0  0
   39.0890   34.4850   40.4070 C   0  0  0  0  0  0  0  0  0  0  0  0
   40.3400   34.6800   39.8540 C   0  0  0  0  0  0  0  0  0  0  0  0
   41.2830   33.6750   39.8050 C   0  0  0  0  0  0  0  0  0  0  0  0
   37.8330   33.0930   41.3420 H   0  0  0  0  0  0  0  0  0  0  0  0
   38.3500   35.2650   40.4460 H   0  0  0  0  0  0  0  0  0  0  0  0
   40.5420   35.6690   39.4590 H   0  0  0  0  0  0  0  0  0  0  0  0
   42.5730   33.9900   39.1990 C   0  0  0  0  0  0  0  0  0  0  0  0
   42.9160   34.4100   37.9450 C   0  0  0  0  0  0  0  0  0  0  0  0
   44.2430   34.5790   37.8240 N   0  0  0  0  0  0  0  0  0  0  0  0
   44.7520   34.2590   39.0310 C   0  0  0  0  0  0  0  0  0  0  0  0
   43.7510   33.9070   39.8510 N   0  0  0  0  0  0  0  0  0  0  0  0
   42.1490   34.5710   37.1750 H   0  0  0  0  0  0  0  0  0  0  0  0
   44.7580   34.8920   36.9760 H   0  0  0  0  0  0  0  0  0  0  0  0
   45.8000   34.2700   39.3360 H   0  0  0  0  0  0  0  0  0  0  0  0
   38.5310   28.9550   41.4410 C   0  0  0  0  0  0  0  0  0  0  0  0
   38.8330   29.3490   42.7400 C   0  0  0  0  0  0  0  0  0  0  0  0
   39.3350   30.6110   42.7130 C   0  0  0  0  0  0  0  0  0  0  0  0
   39.3440   30.9920   41.4220 N   0  0  0  0  0  0  0  0  0  0  0  0
   38.8630   29.9980   40.6690 N   0  0  0  0  0  0  0  0  0  0  0  0
   38.6950   28.7510   43.6500 H   0  0  0  0  0  0  0  0  0  0  0  0
   39.6580   31.1820   43.5690 H   0  0  0  0  0  0  0  0  0  0  0  0
   36.5270   26.4270   39.7340 C   0  0  0  0  0  0  0  0  0  0  0  0
   36.9460   25.2250   40.3480 C   0  0  0  0  0  0  0  0  0  0  0  0
   37.9210   25.3180   41.3470 C   0  0  0  0  0  0  0  0  0  0  0  0
   38.3810   26.5440   41.6440 N   0  0  0  0  0  0  0  0  0  0  0  0
   37.9800   27.6830   41.0570 C   0  0  0  0  0  0  0  0  0  0  0  0
   37.0370   27.6210   40.0860 N   0  0  0  0  0  0  0  0  0  0  0  0
   35.7640   26.3110   38.9570 H   0  0  0  0  0  0  0  0  0  0  0  0
   36.5560   24.2640   40.0860 H   0  0  0  0  0  0  0  0  0  0  0  0
   38.4430   24.1300   42.0660 C   0  0  0  0  0  2  0  0  0  0  0  0
   39.5670   24.4870   43.0170 C   0  0  0  0  0  2  0  0  0  0  0  0
   39.2100   24.4910   44.0640 H   0  0  0  0  0  0  0  0  0  0  0  0
  1  2  1  0  0  0  0
  2  3  1  0  0  0  0
  3  4  2  0  0  0  0
  3 22  1  0  0  0  0
  4  8  1  0  0  0  0
  5  9  1  0  0  0  0
  5  4  1  0  0  0  0
  6  5  2  0  0  0  0
  7  6  1  0  0  0  0
  7  2  2  0  0  0  0
 10  6  1  0  0  0  0
 11  7  1  0  0  0  0
 11 15  1  0  0  0  0
 12 11  2  0  0  0  0
 13 12  1  0  0  0  0
 13 14  1  0  0  0  0
 14 18  1  0  0  0  0
 14 15  2  0  0  0  0
 16 12  1  0  0  0  0
 17 13  1  0  0  0  0
 19 20  1  0  0  0  0
 20 24  1  0  0  0  0
 21 20  2  0  0  0  0
 21 25  1  0  0  0  0
 22 21  1  0  0  0  0
 23 22  1  0  0  0  0
 23 19  2  0  0  0  0
 26 31  2  0  0  0  0
 26 27  1  0  0  0  0
 27 28  2  0  0  0  0
 28 29  1  0  0  0  0
 28 34  1  0  0  0  0
 30 19  1  0  0  0  0
 30 29  2  0  0  0  0
 31 30  1  0  0  0  0
 32 26  1  0  0  0  0
 33 27  1  0  0  0  0
 34 35  1  0  0  0  0
 35 36  1  0  0  0  0
M  END
>  <minimizedAffinity>
-5.82668257

$$$$

 OpenBabel03252501283D

 36 39  0  0  0  0  0  0  0  0999 V2000
   37.9210   30.6510   40.8190 F   0  0  0  0  0  0  0  0  0  0  0  0
   39.0990   30.5110   41.4260 C   0  0  0  0  0  0  0  0  0  0  0  0
   39.3940   29.3400   42.0650 C   0  0  0  0  0  0  0  0  0  0  0  0
   40.6300   29.1810   42.7080 C   0  0  0  0  0  0  0  0  0  0  0  0
   41.5730   30.1730   42.7200 C   0  0  0  0  0  0  0  0  0  0  0  0
   41.2520   31.3480   42.0690 C   0  0  0  0  0  0  0  0  0  0  0  0
   40.0420   31.5230   41.4310 C   0  0  0  0  0  0  0  0  0  0  0  0
   40.8900   28.2570   43.2240 H   0  0  0  0  0  0  0  0  0  0  0  0
   42.5150   30.0310   43.2200 H   0  0  0  0  0  0  0  0  0  0  0  0
   42.0050   32.1270   42.0830 H   0  0  0  0  0  0  0  0  0  0  0  0
   39.8060   32.8040   40.7730 C   0  0  0  0  0  0  0  0  0  0  0  0
   40.4790   33.4610   39.7800 C   0  0  0  0  0  0  0  0  0  0  0  0
   39.8990   34.6330   39.4790 N   0  0  0  0  0  0  0  0  0  0  0  0
   38.8330   34.7230   40.3000 C   0  0  0  0  0  0  0  0  0  0  0  0
   38.7810   33.6280   41.0720 N   0  0  0  0  0  0  0  0  0  0  0  0
   41.3800   33.0240   39.3260 H   0  0  0  0  0  0  0  0  0  0  0  0
   40.2130   35.3190   38.7620 H   0  0  0  0  0  0  0  0  0  0  0  0
   38.1060   35.5340   40.3610 H   0  0  0  0  0  0  0  0  0  0  0  0
   37.7300   26.2670   41.6090 C   0  0  0  0  0  0  0  0  0  0  0  0
   36.9880   26.8110   42.6530 C   0  0  0  0  0  0  0  0  0  0  0  0
   37.5000   28.0280   42.9710 C   0  0  0  0  0  0  0  0  0  0  0  0
   38.5380   28.2350   42.1400 N   0  0  0  0  0  0  0  0  0  0  0  0
   38.6700   27.1810   41.3310 N   0  0  0  0  0  0  0  0  0  0  0  0
   36.1270   26.3450   43.1510 H   0  0  0  0  0  0  0  0  0  0  0  0
   37.1330   28.6870   43.7420 H   0  0  0  0  0  0  0  0  0  0  0  0
   38.1540   22.7860   40.5980 C   0  0  0  0  0  0  0  0  0  0  0  0
   37.0180   22.5510   39.7930 C   0  0  0  0  0  0  0  0  0  0  0  0
   36.1230   23.6120   39.6160 C   0  0  0  0  0  0  0  0  0  0  0  0
   36.4160   24.7710   40.2270 N   0  0  0  0  0  0  0  0  0  0  0  0
   37.4970   24.9890   40.9920 C   0  0  0  0  0  0  0  0  0  0  0  0
   38.3800   23.9780   41.1800 N   0  0  0  0  0  0  0  0  0  0  0  0
   38.8290   21.9310   40.7120 H   0  0  0  0  0  0  0  0  0  0  0  0
   36.8150   21.6120   39.3190 H   0  0  0  0  0  0  0  0  0  0  0  0
   34.8940   23.4920   38.7940 C   0  0  0  0  0  2  0  0  0  0  0  0
   34.1260   22.2220   39.0970 C   0  0  0  0  0  2  0  0  0  0  0  0
   33.2340   22.4400   39.7150 H   0  0  0  0  0  0  0  0  0  0  0  0
  1  2  1  0  0  0  0
  2  7  2  0  0  0  0
  2  3  1  0  0  0  0
  3 22  1  0  0  0  0
  3  4  2  0  0  0  0
  4  5  1  0  0  0  0
  4  8  1  0  0  0  0
  5  9  1  0  0  0  0
  6 10  1  0  0  0  0
  6  5  2  0  0  0  0
  7  6  1  0  0  0  0
 11 15  1  0  0  0  0
 11  7  1  0  0  0  0
 12 11  2  0  0  0  0
 13 12  1  0  0  0  0
 13 14  1  0  0  0  0
 14 18  1  0  0  0  0
 14 15  2  0  0  0  0
 16 12  1  0  0  0  0
 17 13  1  0  0  0  0
 19 20  1  0  0  0  0
 20 21  2  0  0  0  0
 20 24  1  0  0  0  0
 21 25  1  0  0  0  0
 22 21  1  0  0  0  0
 23 19  2  0  0  0  0
 23 22  1  0  0  0  0
 26 32  1  0  0  0  0
 26 31  1  0  0  0  0
 27 26  2  0  0  0  0
 28 27  1  0  0  0  0
 28 29  2  0  0  0  0
 29 30  1  0  0  0  0
 30 31  2  0  0  0  0
 30 19  1  0  0  0  0
 33 27  1  0  0  0  0
 34 35  1  0  0  0  0
 34 28  1  0  0  0  0
 35 36  1  0  0  0  0
M  END
>  <minimizedAffinity>
-5.59798956

$$$$

 OpenBabel03252501283D

 36 39  0  0  0  0  0  0  0  0999 V2000
   39.4210   27.2770   40.4610 F   0  0  0  0  0  0  0  0  0  0  0  0
   38.7710   27.4620   41.6100 C   0  0  0  0  0  0  0  0  0  0  0  0
   37.5690   28.1110   41.6070 C   0  0  0  0  0  0  0  0  0  0  0  0
   36.8750   28.3120   42.8090 C   0  0  0  0  0  0  0  0  0  0  0  0
   37.3640   27.8740   44.0100 C   0  0  0  0  0  0  0  0  0  0  0  0
   38.5820   27.2220   43.9880 C   0  0  0  0  0  0  0  0  0  0  0  0
   39.2790   27.0150   42.8160 C   0  0  0  0  0  0  0  0  0  0  0  0
   35.9150   28.8260   42.8340 H   0  0  0  0  0  0  0  0  0  0  0  0
   36.8170   28.0390   44.9210 H   0  0  0  0  0  0  0  0  0  0  0  0
   38.9610   26.8780   44.9430 H   0  0  0  0  0  0  0  0  0  0  0  0
   40.5550   26.3130   42.9060 C   0  0  0  0  0  0  0  0  0  0  0  0
   40.8750   24.9850   42.8630 C   0  0  0  0  0  0  0  0  0  0  0  0
   42.1970   24.7880   42.9870 N   0  0  0  0  0  0  0  0  0  0  0  0
   42.7290   26.0210   43.1110 C   0  0  0  0  0  0  0  0  0  0  0  0
   41.7450   26.9300   43.0620 N   0  0  0  0  0  0  0  0  0  0  0  0
   40.0930   24.2220   42.7400 H   0  0  0  0  0  0  0  0  0  0  0  0
   42.6950   23.8740   42.9850 H   0  0  0  0  0  0  0  0  0  0  0  0
   43.7810   26.2830   43.2330 H   0  0  0  0  0  0  0  0  0  0  0  0
   35.5140   28.6610   38.7970 C   0  0  0  0  0  0  0  0  0  0  0  0
   36.3100   29.8000   38.7630 C   0  0  0  0  0  0  0  0  0  0  0  0
   37.1850   29.7600   39.8000 C   0  0  0  0  0  0  0  0  0  0  0  0
   36.9370   28.6160   40.4650 N   0  0  0  0  0  0  0  0  0  0  0  0
   35.9380   27.9660   39.8610 N   0  0  0  0  0  0  0  0  0  0  0  0
   36.2520   30.6120   38.0240 H   0  0  0  0  0  0  0  0  0  0  0  0
   37.9280   30.5060   40.0310 H   0  0  0  0  0  0  0  0  0  0  0  0
   33.5400   26.8940   36.2860 C   0  0  0  0  0  0  0  0  0  0  0  0
   32.4410   27.7580   36.0840 C   0  0  0  0  0  0  0  0  0  0  0  0
   32.4070   28.9430   36.8280 C   0  0  0  0  0  0  0  0  0  0  0  0
   33.4240   29.1650   37.6760 N   0  0  0  0  0  0  0  0  0  0  0  0
   34.4670   28.3400   37.8650 C   0  0  0  0  0  0  0  0  0  0  0  0
   34.5230   27.1860   37.1570 N   0  0  0  0  0  0  0  0  0  0  0  0
   33.5290   25.9780   35.6860 H   0  0  0  0  0  0  0  0  0  0  0  0
   31.6460   27.5490   35.3990 H   0  0  0  0  0  0  0  0  0  0  0  0
   31.3080   29.9310   36.7070 C   0  0  0  0  0  2  0  0  0  0  0  0
   30.5960   30.1590   38.0240 C   0  0  0  0  0  2  0  0  0  0  0  0
   30.9010   31.1220   38.4750 H   0  0  0  0  0  0  0  0  0  0  0  0
  1  2  1  0  0  0  0
  2  7  1  0  0  0  0
  3  2  2  0  0  0  0
  3  4  1  0  0  0  0
  4  8  1  0  0  0  0
  4  5  2  0  0  0  0
  5  9  1  0  0  0  0
  6  5  1  0  0  0  0
  6 10  1  0  0  0  0
  7 11  1  0  0  0  0
  7  6  2  0  0  0  0
 11 15  1  0  0  0  0
 12 11  2  0  0  0  0
 12 13  1  0  0  0  0
 13 14  1  0  0  0  0
 14 18  1  0  0  0  0
 15 14  2  0  0  0  0
 16 12  1  0  0  0  0
 17 13  1  0  0  0  0
 19 23  2  0  0  0  0
 20 19  1  0  0  0  0
 20 21  2  0  0  0  0
 21 25  1  0  0  0  0
 21 22  1  0  0  0  0
 22  3  1  0  0  0  0
 23 22  1  0  0  0  0
 24 20  1  0  0  0  0
 26 31  1  0  0  0  0
 27 26  2  0  0  0  0
 27 28  1  0  0  0  0
 28 29  2  0  0  0  0
 29 30  1  0  0  0  0
 30 19  1  0  0  0  0
 31 30  2  0  0  0  0
 32 26  1  0  0  0  0
 33 27  1  0  0  0  0
 34 28  1  0  0  0  0
 34 35  1  0  0  0  0
 35 36  1  0  0  0  0
M  END
>  <minimizedAffinity>
-5.58524704

$$$$

 OpenBabel03252501283D

 36 39  0  0  0  0  0  0  0  0999 V2000
   35.1570   29.6110   39.9290 F   0  0  0  0  0  0  0  0  0  0  0  0
   35.6110   28.4030   39.5940 C   0  0  0  0  0  0  0  0  0  0  0  0
   35.1830   27.8190   38.4360 C   0  0  0  0  0  0  0  0  0  0  0  0
   35.6530   26.5490   38.0720 C   0  0  0  0  0  0  0  0  0  0  0  0
   36.5440   25.8570   38.8470 C   0  0  0  0  0  0  0  0  0  0  0  0
   36.9610   26.4670   40.0140 C   0  0  0  0  0  0  0  0  0  0  0  0
   36.5100   27.7150   40.3890 C   0  0  0  0  0  0  0  0  0  0  0  0
   35.3280   26.0620   37.1530 H   0  0  0  0  0  0  0  0  0  0  0  0
   36.8920   24.8840   38.5510 H   0  0  0  0  0  0  0  0  0  0  0  0
   37.6660   25.9120   40.6220 H   0  0  0  0  0  0  0  0  0  0  0  0
   37.0160   28.2670   41.6410 C   0  0  0  0  0  0  0  0  0  0  0  0
   36.6360   28.0860   42.9420 C   0  0  0  0  0  0  0  0  0  0  0  0
   37.3930   28.8050   43.7850 N   0  0  0  0  0  0  0  0  0  0  0  0
   38.2760   29.4580   43.0010 C   0  0  0  0  0  0  0  0  0  0  0  0
   38.0470   29.1340   41.7200 N   0  0  0  0  0  0  0  0  0  0  0  0
   35.8010   27.4170   43.1960 H   0  0  0  0  0  0  0  0  0  0  0  0
   37.3100   28.8420   44.8220 H   0  0  0  0  0  0  0  0  0  0  0  0
   39.0620   30.1450   43.3140 H   0  0  0  0  0  0  0  0  0  0  0  0
   32.4770   29.4710   36.8960 C   0  0  0  0  0  0  0  0  0  0  0  0
   33.2290   29.1140   35.7820 C   0  0  0  0  0  0  0  0  0  0  0  0
   34.3410   28.4500   36.1940 C   0  0  0  0  0  0  0  0  0  0  0  0
   34.2780   28.3970   37.5380 N   0  0  0  0  0  0  0  0  0  0  0  0
   33.1640   29.0080   37.9490 N   0  0  0  0  0  0  0  0  0  0  0  0
   32.9800   29.3260   34.7340 H   0  0  0  0  0  0  0  0  0  0  0  0
   35.1120   28.0500   35.5560 H   0  0  0  0  0  0  0  0  0  0  0  0
   29.2430   30.8220   37.9150 C   0  0  0  0  0  0  0  0  0  0  0  0
   28.8450   31.5730   36.7870 C   0  0  0  0  0  0  0  0  0  0  0  0
   29.7130   31.5950   35.6890 C   0  0  0  0  0  0  0  0  0  0  0  0
   30.8560   30.8990   35.7960 N   0  0  0  0  0  0  0  0  0  0  0  0
   31.2300   30.1870   36.8710 C   0  0  0  0  0  0  0  0  0  0  0  0
   30.4080   30.1490   37.9470 N   0  0  0  0  0  0  0  0  0  0  0  0
   28.5370   30.8300   38.7520 H   0  0  0  0  0  0  0  0  0  0  0  0
   27.9250   32.1160   36.7360 H   0  0  0  0  0  0  0  0  0  0  0  0
   29.4100   32.3460   34.4460 C   0  0  0  0  0  2  0  0  0  0  0  0
   30.6450   32.5740   33.6010 C   0  0  0  0  0  2  0  0  0  0  0  0
   30.6600   31.8900   32.7320 H   0  0  0  0  0  0  0  0  0  0  0  0
  2  1  1  0  0  0  0
  2  7  1  0  0  0  0
  3  2  2  0  0  0  0
  4  3  1  0  0  0  0
  4  5  2  0  0  0  0
  5  6  1  0  0  0  0
  6  7  2  0  0  0  0
  6 10  1  0  0  0  0
  7 11  1  0  0  0  0
  8  4  1  0  0  0  0
  9  5  1  0  0  0  0
 11 15  1  0  0  0  0
 11 12  2  0  0  0  0
 12 16  1  0  0  0  0
 12 13  1  0  0  0  0
 13 17  1  0  0  0  0
 14 18  1  0  0  0  0
 14 13  1  0  0  0  0
 15 14  2  0  0  0  0
 19 23  2  0  0  0  0
 20 21  2  0  0  0  0
 20 19  1  0  0  0  0
 21 22  1  0  0  0  0
 22 23  1  0  0  0  0
 22  3  1  0  0  0  0
 24 20  1  0  0  0  0
 25 21  1  0  0  0  0
 26 31  1  0  0  0  0
 26 32  1  0  0  0  0
 27 26  2  0  0  0  0
 28 29  2  0  0  0  0
 28 27  1  0  0  0  0
 29 30  1  0  0  0  0
 30 19  1  0  0  0  0
 30 31  2  0  0  0  0
 33 27  1  0  0  0  0
 34 28  1  0  0  0  0
 35 34  1  0  0  0  0
 36 35  1  0  0  0  0
M  END
>  <minimizedAffinity>
-5.57602262

$$$$
