
 OpenBabel03252502523D

 25 26  0  0  0  0  0  0  0  0999 V2000
   45.8310   30.0120   44.4850 Br  0  0  0  0  0  0  0  0  0  0  0  0
   45.7380   30.6290   46.3060 C   0  0  0  0  0  0  0  0  0  0  0  0
   46.3460   31.8330   46.5650 C   0  0  0  0  0  0  0  0  0  0  0  0
   46.2550   32.2560   47.8940 C   0  0  0  0  0  0  0  0  0  0  0  0
   45.6090   31.5310   48.8770 C   0  0  0  0  0  0  0  0  0  0  0  0
   45.0320   30.3450   48.5360 C   0  0  0  0  0  0  0  0  0  0  0  0
   45.0810   29.8570   47.2280 C   0  0  0  0  0  0  0  0  0  0  0  0
   46.7190   33.2030   48.1670 H   0  0  0  0  0  0  0  0  0  0  0  0
   45.5500   31.8740   49.9060 H   0  0  0  0  0  0  0  0  0  0  0  0
   44.5300   29.7750   49.2900 H   0  0  0  0  0  0  0  0  0  0  0  0
   47.0570   32.6870   45.6020 C   0  0  0  0  0  0  0  0  0  0  0  0
   47.8880   33.1910   46.1480 H   0  0  0  0  0  0  0  0  0  0  0  0
   47.4770   32.0640   44.7810 H   0  0  0  0  0  0  0  0  0  0  0  0
   44.5270   35.3980   45.1990 C   0  0  0  0  0  0  0  0  0  0  0  0
   44.7490   35.8140   43.8850 C   0  0  0  0  0  0  0  0  0  0  0  0
   45.7570   35.1580   43.1720 C   0  0  0  0  0  0  0  0  0  0  0  0
   46.4590   34.1700   43.7660 N   0  0  0  0  0  0  0  0  0  0  0  0
   46.2110   33.7920   45.0540 C   0  0  0  0  0  0  0  0  0  0  0  0
   45.2460   34.4150   45.7510 N   0  0  0  0  0  0  0  0  0  0  0  0
   43.7520   35.8730   45.8060 H   0  0  0  0  0  0  0  0  0  0  0  0
   44.1180   36.6240   43.5050 H   0  0  0  0  0  0  0  0  0  0  0  0
   45.8840   35.5140   42.1750 H   0  0  0  0  0  0  0  0  0  0  0  0
   44.4380   28.5550   46.9270 C   0  0  0  0  0  0  0  0  0  0  0  0
   44.9280   27.4950   47.9260 C   0  0  0  0  0  0  0  0  0  0  0  0
   44.1360   27.2870   48.6900 H   0  0  0  0  0  0  0  0  0  0  0  0
  1  2  1  0  0  0  0
  2  3  2  0  0  0  0
  2  7  1  0  0  0  0
  3  4  1  0  0  0  0
  4  8  1  0  0  0  0
  4  5  2  0  0  0  0
  5  9  1  0  0  0  0
  6  5  1  0  0  0  0
  6 10  1  0  0  0  0
  7  6  2  0  0  0  0
 11 12  1  0  0  0  0
 11  3  1  0  0  0  0
 13 11  1  0  0  0  0
 14 19  1  0  0  0  0
 14 20  1  0  0  0  0
 15 14  2  0  0  0  0
 16 17  2  0  0  0  0
 16 15  1  0  0  0  0
 17 18  1  0  0  0  0
 18 11  1  0  0  0  0
 18 19  2  0  0  0  0
 21 15  1  0  0  0  0
 22 16  1  0  0  0  0
 23  7  1  0  0  0  0
 23 24  1  0  0  0  0
 24 25  1  0  0  0  0
M  END
>  <minimizedAffinity>
-4.69032621

>  <minimizedRMSD>
0.673818767

$$$$
