
 OpenBabel03252501293D

 32 33  0  0  0  0  0  0  0  0999 V2000
   46.4230   30.7330   46.9930 C   0  0  0  0  0  0  0  0  0  0  0  0
   45.1440   30.2350   46.9680 C   0  0  0  0  0  0  0  0  0  0  0  0
   44.8310   28.9290   47.1780 C   0  0  0  0  0  0  0  0  0  0  0  0
   45.8430   28.0550   47.4300 C   0  0  0  0  0  0  0  0  0  0  0  0
   47.1390   28.5290   47.4610 C   0  0  0  0  0  0  0  0  0  0  0  0
   47.4380   29.8630   47.2450 C   0  0  0  0  0  0  0  0  0  0  0  0
   44.3760   30.9970   46.7590 H   0  0  0  0  0  0  0  0  0  0  0  0
   43.7760   28.7020   47.1240 H   0  0  0  0  0  0  0  0  0  0  0  0
   47.8170   27.6860   47.6760 H   0  0  0  0  0  0  0  0  0  0  0  0
   49.3280   30.2590   48.6930 C   0  0  0  0  0  0  0  0  0  0  0  0
   48.8800   30.4890   49.8750 O   0  0  0  0  0  0  0  0  0  0  0  0
   48.8590   29.9750   47.3700 N   0  0  0  0  0  0  0  0  0  0  0  0
   50.3170   30.3760   49.1330 H   0  0  0  0  0  0  0  0  0  0  0  0
   49.6570   29.9000   46.7290 H   0  0  0  0  0  0  0  0  0  0  0  0
   46.8920   32.1040   46.7760 C   0  0  0  0  0  0  0  0  0  0  0  0
   47.9080   32.2660   47.2350 H   0  0  0  0  0  0  0  0  0  0  0  0
   46.2200   32.7900   47.3310 H   0  0  0  0  0  0  0  0  0  0  0  0
   46.9820   32.4340   45.3100 C   0  0  0  0  0  0  0  0  0  0  0  0
   48.0540   32.5950   45.0090 H   0  0  0  0  0  0  0  0  0  0  0  0
   46.6330   31.6060   44.6530 H   0  0  0  0  0  0  0  0  0  0  0  0
   44.5840   35.1730   45.7060 C   0  0  0  0  0  0  0  0  0  0  0  0
   44.6290   35.8150   44.4500 C   0  0  0  0  0  0  0  0  0  0  0  0
   45.5030   35.2650   43.5040 C   0  0  0  0  0  0  0  0  0  0  0  0
   46.2360   34.1880   43.8170 N   0  0  0  0  0  0  0  0  0  0  0  0
   46.1430   33.6210   45.0440 C   0  0  0  0  0  0  0  0  0  0  0  0
   45.3450   34.0860   45.9730 N   0  0  0  0  0  0  0  0  0  0  0  0
   43.9290   35.5390   46.4980 H   0  0  0  0  0  0  0  0  0  0  0  0
   43.9950   36.6740   44.3090 H   0  0  0  0  0  0  0  0  0  0  0  0
   45.5400   35.7560   42.5410 H   0  0  0  0  0  0  0  0  0  0  0  0
   45.4150   26.6280   47.6510 C   0  0  0  0  0  0  0  0  0  0  0  0
   44.4090   26.5430   48.7780 C   0  0  0  0  0  0  0  0  0  0  0  0
   44.4580   25.4930   49.1630 H   0  0  0  0  0  0  0  0  0  0  0  0
  1  6  1  0  0  0  0
  2  1  2  0  0  0  0
  2  3  1  0  0  0  0
  3  4  2  0  0  0  0
  4  5  1  0  0  0  0
  4 30  1  0  0  0  0
  5  9  1  0  0  0  0
  6 12  1  0  0  0  0
  6  5  2  0  0  0  0
  7  2  1  0  0  0  0
  8  3  1  0  0  0  0
 10 13  1  0  0  0  0
 10 11  2  0  0  0  0
 12 10  1  0  0  0  0
 14 12  1  0  0  0  0
 15  1  1  0  0  0  0
 15 16  1  0  0  0  0
 15 17  1  0  0  0  0
 18 15  1  0  0  0  0
 19 18  1  0  0  0  0
 20 18  1  0  0  0  0
 21 26  1  0  0  0  0
 21 27  1  0  0  0  0
 22 21  2  0  0  0  0
 23 24  2  0  0  0  0
 23 22  1  0  0  0  0
 24 25  1  0  0  0  0
 25 18  1  0  0  0  0
 25 26  2  0  0  0  0
 28 22  1  0  0  0  0
 29 23  1  0  0  0  0
 30 31  1  0  0  0  0
 31 32  1  0  0  0  0
M  END
>  <minimizedAffinity>
-4.51287222

>  <minimizedRMSD>
2.18964767

$$$$
