
 OpenBabel03242520213D

 38 40  0  0  0  0  0  0  0  0999 V2000
   41.0660   35.9510   39.3200 C   0  0  0  0  0  0  0  0  0  0  0  0
   41.2510   37.0370   39.2460 H   0  0  0  0  0  0  0  0  0  0  0  0
   40.8070   35.5410   38.3210 H   0  0  0  0  0  0  0  0  0  0  0  0
   43.9260   34.6700   41.4530 C   0  0  0  0  0  0  0  0  0  0  0  0
   42.8000   35.4310   41.0350 C   0  0  0  0  0  0  0  0  0  0  0  0
   42.2470   35.1870   39.7940 C   0  0  0  0  0  0  0  0  0  0  0  0
   42.8460   34.1980   39.0380 N   0  0  0  0  0  0  0  0  0  0  0  0
   43.9220   33.5030   39.4940 C   0  0  0  0  0  0  0  0  0  0  0  0
   44.4550   33.7380   40.6890 N   0  0  0  0  0  0  0  0  0  0  0  0
   42.3930   36.1970   41.7040 H   0  0  0  0  0  0  0  0  0  0  0  0
   44.2780   32.7650   38.7920 H   0  0  0  0  0  0  0  0  0  0  0  0
   44.5150   34.9610   42.7980 C   0  0  0  0  0  0  0  0  0  0  0  0
   46.0420   35.3430   42.6740 C   0  0  0  0  0  0  0  0  0  0  0  0
   45.0020   36.2110   43.2270 C   0  0  0  0  0  0  0  0  0  0  0  0
   44.3500   34.1310   43.5470 H   0  0  0  0  0  0  0  0  0  0  0  0
   46.4260   35.5370   41.6740 H   0  0  0  0  0  0  0  0  0  0  0  0
   46.7290   34.7590   43.3250 H   0  0  0  0  0  0  0  0  0  0  0  0
   45.0580   36.4520   44.2980 H   0  0  0  0  0  0  0  0  0  0  0  0
   44.7680   37.1310   42.6160 H   0  0  0  0  0  0  0  0  0  0  0  0
   39.8850   35.6950   40.2580 C   0  0  0  0  0  0  0  0  0  0  0  0
   40.3080   35.7330   41.2810 H   0  0  0  0  0  0  0  0  0  0  0  0
   39.1860   36.5700   40.1980 H   0  0  0  0  0  0  0  0  0  0  0  0
   39.3440   33.4090   40.9370 C   0  0  0  0  0  0  0  0  0  0  0  0
   39.8650   33.5470   42.0770 O   0  0  0  0  0  0  0  0  0  0  0  0
   39.2230   34.4430   39.9680 N   0  0  0  0  0  0  0  0  0  0  0  0
   38.7020   34.3600   39.0850 H   0  0  0  0  0  0  0  0  0  0  0  0
   38.8070   32.0860   40.5350 C   0  0  0  0  0  0  0  0  0  0  0  0
   38.6580   31.7890   39.1950 C   0  0  0  0  0  0  0  0  0  0  0  0
   38.1720   30.6040   38.6980 C   0  0  0  0  0  0  0  0  0  0  0  0
   37.8100   29.6520   39.6440 C   0  0  0  0  0  0  0  0  0  0  0  0
   37.9690   29.9760   40.9670 C   0  0  0  0  0  0  0  0  0  0  0  0
   38.4500   31.1510   41.4280 N   0  0  0  0  0  0  0  0  0  0  0  0
   38.9560   32.5690   38.4950 H   0  0  0  0  0  0  0  0  0  0  0  0
   38.0900   30.4560   37.6290 H   0  0  0  0  0  0  0  0  0  0  0  0
   37.4290   28.7170   39.3050 H   0  0  0  0  0  0  0  0  0  0  0  0
   37.5570   28.8980   41.9210 C   0  0  0  0  0  0  0  0  0  0  0  0
   37.3770   27.5770   41.2050 C   0  0  0  0  0  0  0  0  0  0  0  0
   38.3810   27.1510   40.9520 H   0  0  0  0  0  0  0  0  0  0  0  0
  1  6  1  0  0  0  0
  1 20  1  0  0  0  0
  2  1  1  0  0  0  0
  3  1  1  0  0  0  0
  4 12  1  0  0  0  0
  5  4  1  0  0  0  0
  5 10  1  0  0  0  0
  6  5  2  0  0  0  0
  7  8  2  0  0  0  0
  7  6  1  0  0  0  0
  8  9  1  0  0  0  0
  9  4  2  0  0  0  0
 11  8  1  0  0  0  0
 12 14  1  0  0  0  0
 12 15  1  0  0  0  0
 13 12  1  0  0  0  0
 13 14  1  0  0  0  0
 13 17  1  0  0  0  0
 14 18  1  0  0  0  0
 16 13  1  0  0  0  0
 19 14  1  0  0  0  0
 20 21  1  0  0  0  0
 22 20  1  0  0  0  0
 23 24  2  0  0  0  0
 25 20  1  0  0  0  0
 25 23  1  0  0  0  0
 26 25  1  0  0  0  0
 27 23  1  0  0  0  0
 27 32  1  0  0  0  0
 28 27  2  0  0  0  0
 29 28  1  0  0  0  0
 29 30  2  0  0  0  0
 30 31  1  0  0  0  0
 31 32  2  0  0  0  0
 31 36  1  0  0  0  0
 33 28  1  0  0  0  0
 34 29  1  0  0  0  0
 35 30  1  0  0  0  0
 37 36  1  0  0  0  0
 38 37  1  0  0  0  0
M  END
>  <minimizedAffinity>
-5.18727732

>  <minimizedRMSD>
0.325443327

$$$$
