
 OpenBabel03252508333D

 26 27  0  0  1  0  0  0  0  0999 V2000
   38.3480   31.5200   40.7590 N   0  0  0  0  0  0  0  0  0  0  0  0
   37.2200   31.7570   39.9180 C   0  0  1  0  0  0  0  0  0  0  0  0
   37.1540   33.0860   39.2740 C   0  0  0  0  0  0  0  0  0  0  0  0
   37.8300   34.1610   39.8590 N   0  0  0  0  0  0  0  0  0  0  0  0
   38.8450   33.9150   40.7820 C   0  0  0  0  0  0  0  0  0  0  0  0
   39.3750   32.4990   40.6230 C   0  0  0  0  0  0  0  0  0  0  0  0
   36.2910   31.5380   40.4670 H   0  0  0  0  0  0  0  0  0  0  0  0
   37.4680   33.0440   38.2000 H   0  0  0  0  0  0  0  0  0  0  0  0
   36.0610   33.3730   39.2040 H   0  0  0  0  0  0  0  0  0  0  0  0
   37.4240   35.0860   39.8100 H   0  0  0  0  0  0  0  0  0  0  0  0
   38.3880   33.9230   41.8150 H   0  0  0  0  0  0  0  0  0  0  0  0
   39.6710   34.6260   40.7600 H   0  0  0  0  0  0  0  0  0  0  0  0
   39.7010   32.4480   39.5400 H   0  0  0  0  0  0  0  0  0  0  0  0
   40.2700   32.3850   41.2170 H   0  0  0  0  0  0  0  0  0  0  0  0
   39.5860   29.8730   41.9460 C   0  0  0  0  0  0  0  0  0  0  0  0
   38.3270   30.3830   41.5960 C   0  0  0  0  0  0  0  0  0  0  0  0
   37.2070   29.7360   42.0870 C   0  0  0  0  0  0  0  0  0  0  0  0
   37.3400   28.6420   42.8800 N   0  0  0  0  0  0  0  0  0  0  0  0
   38.5640   28.1610   43.2080 C   0  0  0  0  0  0  0  0  0  0  0  0
   39.6630   28.7690   42.7470 N   0  0  0  0  0  0  0  0  0  0  0  0
   40.5680   30.2260   41.6720 H   0  0  0  0  0  0  0  0  0  0  0  0
   36.2450   30.1270   41.8240 H   0  0  0  0  0  0  0  0  0  0  0  0
   38.5640   27.2850   43.8440 H   0  0  0  0  0  0  0  0  0  0  0  0
   37.3300   30.7400   38.7700 C   0  0  0  0  0  2  0  0  0  0  0  0
   37.6770   31.4090   37.4650 C   0  0  0  0  0  2  0  0  0  0  0  0
   37.8410   32.4930   37.6420 H   0  0  0  0  0  0  0  0  0  0  0  0
  1 16  1  0  0  0  0
  2  7  1  1  0  0  0
  2  1  1  0  0  0  0
  3  4  1  0  0  0  0
  3  2  1  0  0  0  0
  4  5  1  0  0  0  0
  5 11  1  0  0  0  0
  6  1  1  0  0  0  0
  6  5  1  0  0  0  0
  6 14  1  0  0  0  0
  8  3  1  0  0  0  0
  9  3  1  0  0  0  0
 10  4  1  0  0  0  0
 12  5  1  0  0  0  0
 13  6  1  0  0  0  0
 15 20  1  0  0  0  0
 16 15  2  0  0  0  0
 16 17  1  0  0  0  0
 17 18  2  0  0  0  0
 18 19  1  0  0  0  0
 19 23  1  0  0  0  0
 20 19  2  0  0  0  0
 21 15  1  0  0  0  0
 22 17  1  0  0  0  0
 24  2  1  0  0  0  0
 25 26  1  0  0  0  0
 25 24  1  0  0  0  0
M  END
>  <minimizedAffinity>
-4.14260006

$$$$

 OpenBabel03252508333D

 26 27  0  0  1  0  0  0  0  0999 V2000
   38.1960   29.7480   41.3440 N   0  0  0  0  0  0  0  0  0  0  0  0
   36.8000   29.9550   41.5560 C   0  0  1  0  0  0  0  0  0  0  0  0
   36.2090   31.1410   40.9020 C   0  0  0  0  0  0  0  0  0  0  0  0
   37.0350   32.2200   40.5750 N   0  0  0  0  0  0  0  0  0  0  0  0
   38.4150   32.0340   40.5000 C   0  0  0  0  0  0  0  0  0  0  0  0
   38.7410   30.5620   40.3080 C   0  0  0  0  0  0  0  0  0  0  0  0
   36.5800   29.9480   42.6350 H   0  0  0  0  0  0  0  0  0  0  0  0
   35.6420   30.8670   39.9770 H   0  0  0  0  0  0  0  0  0  0  0  0
   35.3970   31.5340   41.5860 H   0  0  0  0  0  0  0  0  0  0  0  0
   36.6700   33.1620   40.6430 H   0  0  0  0  0  0  0  0  0  0  0  0
   38.8570   32.2840   41.5090 H   0  0  0  0  0  0  0  0  0  0  0  0
   38.9210   32.6290   39.7400 H   0  0  0  0  0  0  0  0  0  0  0  0
   38.1760   30.2750   39.3700 H   0  0  0  0  0  0  0  0  0  0  0  0
   39.7910   30.4570   40.0760 H   0  0  0  0  0  0  0  0  0  0  0  0
   40.2120   29.0590   42.4010 C   0  0  0  0  0  0  0  0  0  0  0  0
   38.8570   28.7950   42.1480 C   0  0  0  0  0  0  0  0  0  0  0  0
   38.3100   27.6470   42.6920 C   0  0  0  0  0  0  0  0  0  0  0  0
   39.0730   26.8120   43.4430 N   0  0  0  0  0  0  0  0  0  0  0  0
   40.3810   27.0830   43.6770 C   0  0  0  0  0  0  0  0  0  0  0  0
   40.9340   28.1870   43.1630 N   0  0  0  0  0  0  0  0  0  0  0  0
   40.8200   29.8890   42.0740 H   0  0  0  0  0  0  0  0  0  0  0  0
   37.2750   27.4450   42.5030 H   0  0  0  0  0  0  0  0  0  0  0  0
   40.9040   26.3570   44.2870 H   0  0  0  0  0  0  0  0  0  0  0  0
   36.0960   28.7380   40.9320 C   0  0  0  0  0  2  0  0  0  0  0  0
   34.8990   29.1470   40.1130 C   0  0  0  0  0  2  0  0  0  0  0  0
   34.8330   30.2550   40.0910 H   0  0  0  0  0  0  0  0  0  0  0  0
  1  2  1  0  0  0  0
  1 16  1  0  0  0  0
  2  7  1  1  0  0  0
  3  2  1  0  0  0  0
  3  9  1  0  0  0  0
  4 10  1  0  0  0  0
  4  3  1  0  0  0  0
  5  4  1  0  0  0  0
  5 11  1  0  0  0  0
  6  5  1  0  0  0  0
  6  1  1  0  0  0  0
  8  3  1  0  0  0  0
 12  5  1  0  0  0  0
 13  6  1  0  0  0  0
 14  6  1  0  0  0  0
 15 20  1  0  0  0  0
 16 15  2  0  0  0  0
 16 17  1  0  0  0  0
 17 18  2  0  0  0  0
 18 19  1  0  0  0  0
 19 23  1  0  0  0  0
 20 19  2  0  0  0  0
 21 15  1  0  0  0  0
 22 17  1  0  0  0  0
 24  2  1  0  0  0  0
 25 24  1  0  0  0  0
 26 25  1  0  0  0  0
M  END
>  <minimizedAffinity>
-4.12567568

$$$$

 OpenBabel03252508333D

 26 27  0  0  1  0  0  0  0  0999 V2000
   37.8000   29.9120   39.8060 N   0  0  0  0  0  0  0  0  0  0  0  0
   38.3280   31.2320   39.6820 C   0  0  1  0  0  0  0  0  0  0  0  0
   38.6720   31.6720   38.3140 C   0  0  0  0  0  0  0  0  0  0  0  0
   38.9570   30.7090   37.3410 N   0  0  0  0  0  0  0  0  0  0  0  0
   38.5490   29.3900   37.5360 C   0  0  0  0  0  0  0  0  0  0  0  0
   37.4270   29.3300   38.5600 C   0  0  0  0  0  0  0  0  0  0  0  0
   39.1840   31.3590   40.3640 H   0  0  0  0  0  0  0  0  0  0  0  0
   37.8930   32.3520   37.8870 H   0  0  0  0  0  0  0  0  0  0  0  0
   39.5770   32.3480   38.3940 H   0  0  0  0  0  0  0  0  0  0  0  0
   39.6590   30.9070   36.6400 H   0  0  0  0  0  0  0  0  0  0  0  0
   39.3990   28.8300   38.0260 H   0  0  0  0  0  0  0  0  0  0  0  0
   38.2560   28.8590   36.6310 H   0  0  0  0  0  0  0  0  0  0  0  0
   36.6290   30.0110   38.1340 H   0  0  0  0  0  0  0  0  0  0  0  0
   37.0060   28.3340   38.5680 H   0  0  0  0  0  0  0  0  0  0  0  0
   36.6550   28.4390   41.2800 C   0  0  0  0  0  0  0  0  0  0  0  0
   37.7050   29.3520   41.0990 C   0  0  0  0  0  0  0  0  0  0  0  0
   38.5250   29.6180   42.1800 C   0  0  0  0  0  0  0  0  0  0  0  0
   38.3070   29.0070   43.3730 N   0  0  0  0  0  0  0  0  0  0  0  0
   37.2870   28.1280   43.5310 C   0  0  0  0  0  0  0  0  0  0  0  0
   36.4800   27.8540   42.5010 N   0  0  0  0  0  0  0  0  0  0  0  0
   35.9130   28.1000   40.5740 H   0  0  0  0  0  0  0  0  0  0  0  0
   39.3300   30.3110   42.0410 H   0  0  0  0  0  0  0  0  0  0  0  0
   37.1970   27.6950   44.5200 H   0  0  0  0  0  0  0  0  0  0  0  0
   37.2120   32.1770   40.1580 C   0  0  0  0  0  2  0  0  0  0  0  0
   37.2470   33.4930   39.4240 C   0  0  0  0  0  2  0  0  0  0  0  0
   38.0400   33.4580   38.6490 H   0  0  0  0  0  0  0  0  0  0  0  0
  1 16  1  0  0  0  0
  2  1  1  0  0  0  0
  2 24  1  0  0  0  0
  2  7  1  1  0  0  0
  3  9  1  0  0  0  0
  3  2  1  0  0  0  0
  4  5  1  0  0  0  0
  4  3  1  0  0  0  0
  5 11  1  0  0  0  0
  5  6  1  0  0  0  0
  6 14  1  0  0  0  0
  6  1  1  0  0  0  0
  8  3  1  0  0  0  0
 10  4  1  0  0  0  0
 12  5  1  0  0  0  0
 13  6  1  0  0  0  0
 15 20  1  0  0  0  0
 16 15  2  0  0  0  0
 16 17  1  0  0  0  0
 17 18  2  0  0  0  0
 18 19  1  0  0  0  0
 19 23  1  0  0  0  0
 20 19  2  0  0  0  0
 21 15  1  0  0  0  0
 22 17  1  0  0  0  0
 25 24  1  0  0  0  0
 26 25  1  0  0  0  0
M  END
>  <minimizedAffinity>
-3.92621422

$$$$

 OpenBabel03252508333D

 26 27  0  0  1  0  0  0  0  0999 V2000
   38.0700   26.7510   42.2190 N   0  0  0  0  0  0  0  0  0  0  0  0
   38.3090   25.3720   41.9370 C   0  0  1  0  0  0  0  0  0  0  0  0
   39.2590   24.6790   42.8330 C   0  0  0  0  0  0  0  0  0  0  0  0
   40.2140   25.4290   43.5250 N   0  0  0  0  0  0  0  0  0  0  0  0
   40.0320   26.8020   43.6790 C   0  0  0  0  0  0  0  0  0  0  0  0
   38.5690   27.1670   43.4870 C   0  0  0  0  0  0  0  0  0  0  0  0
   38.6010   25.2510   40.8820 H   0  0  0  0  0  0  0  0  0  0  0  0
   38.7300   24.0420   43.5870 H   0  0  0  0  0  0  0  0  0  0  0  0
   39.8170   23.9170   42.2090 H   0  0  0  0  0  0  0  0  0  0  0  0
   41.1320   25.0340   43.6840 H   0  0  0  0  0  0  0  0  0  0  0  0
   40.5590   27.3230   42.8260 H   0  0  0  0  0  0  0  0  0  0  0  0
   40.3970   27.2140   44.6190 H   0  0  0  0  0  0  0  0  0  0  0  0
   38.0250   26.5310   44.2500 H   0  0  0  0  0  0  0  0  0  0  0  0
   38.4170   28.1950   43.7830 H   0  0  0  0  0  0  0  0  0  0  0  0
   36.3390   28.3100   41.7430 C   0  0  0  0  0  0  0  0  0  0  0  0
   37.3870   27.5190   41.2510 C   0  0  0  0  0  0  0  0  0  0  0  0
   37.6440   27.5570   39.8920 C   0  0  0  0  0  0  0  0  0  0  0  0
   36.8950   28.3420   39.0750 N   0  0  0  0  0  0  0  0  0  0  0  0
   35.8850   29.1000   39.5680 C   0  0  0  0  0  0  0  0  0  0  0  0
   35.6170   29.0810   40.8780 N   0  0  0  0  0  0  0  0  0  0  0  0
   35.9820   28.4210   42.7570 H   0  0  0  0  0  0  0  0  0  0  0  0
   38.4460   26.9560   39.5150 H   0  0  0  0  0  0  0  0  0  0  0  0
   35.3470   29.6900   38.8360 H   0  0  0  0  0  0  0  0  0  0  0  0
   36.9580   24.6630   42.1290 C   0  0  0  0  0  2  0  0  0  0  0  0
   36.5260   23.9430   40.8780 C   0  0  0  0  0  2  0  0  0  0  0  0
   37.3230   24.0330   40.1100 H   0  0  0  0  0  0  0  0  0  0  0  0
  1  6  1  0  0  0  0
  2  7  1  6  0  0  0
  2 24  1  0  0  0  0
  2  1  1  0  0  0  0
  2  3  1  0  0  0  0
  3  4  1  0  0  0  0
  3  8  1  0  0  0  0
  4  5  1  0  0  0  0
  4 10  1  0  0  0  0
  5 12  1  0  0  0  0
  6  5  1  0  0  0  0
  6 14  1  0  0  0  0
  6 13  1  0  0  0  0
  9  3  1  0  0  0  0
 11  5  1  0  0  0  0
 15 21  1  0  0  0  0
 16 15  1  0  0  0  0
 16  1  1  0  0  0  0
 17 16  2  0  0  0  0
 18 19  2  0  0  0  0
 18 17  1  0  0  0  0
 19 20  1  0  0  0  0
 20 15  2  0  0  0  0
 22 17  1  0  0  0  0
 23 19  1  0  0  0  0
 25 24  1  0  0  0  0
 26 25  1  0  0  0  0
M  END
>  <minimizedAffinity>
-3.87574911

$$$$

 OpenBabel03252508333D

 26 27  0  0  1  0  0  0  0  0999 V2000
   37.8690   30.8460   40.3240 N   0  0  0  0  0  0  0  0  0  0  0  0
   37.8700   30.4620   38.9490 C   0  0  1  0  0  0  0  0  0  0  0  0
   37.9030   31.5630   37.9640 C   0  0  0  0  0  0  0  0  0  0  0  0
   37.4360   32.8260   38.3380 N   0  0  0  0  0  0  0  0  0  0  0  0
   37.3150   33.1430   39.6900 C   0  0  0  0  0  0  0  0  0  0  0  0
   38.1830   32.2210   40.5300 C   0  0  0  0  0  0  0  0  0  0  0  0
   37.0280   29.7800   38.7510 H   0  0  0  0  0  0  0  0  0  0  0  0
   38.9270   31.7040   37.5320 H   0  0  0  0  0  0  0  0  0  0  0  0
   37.2970   31.2310   37.0670 H   0  0  0  0  0  0  0  0  0  0  0  0
   36.9570   33.3990   37.6550 H   0  0  0  0  0  0  0  0  0  0  0  0
   36.2610   32.8980   40.0140 H   0  0  0  0  0  0  0  0  0  0  0  0
   37.5240   34.1820   39.9420 H   0  0  0  0  0  0  0  0  0  0  0  0
   39.2230   32.3610   40.1050 H   0  0  0  0  0  0  0  0  0  0  0  0
   38.2160   32.5900   41.5450 H   0  0  0  0  0  0  0  0  0  0  0  0
   38.4240   29.8410   42.4060 C   0  0  0  0  0  0  0  0  0  0  0  0
   37.5740   29.8600   41.2900 C   0  0  0  0  0  0  0  0  0  0  0  0
   36.5540   28.9280   41.2380 C   0  0  0  0  0  0  0  0  0  0  0  0
   36.3950   28.0280   42.2430 N   0  0  0  0  0  0  0  0  0  0  0  0
   37.2250   28.0240   43.3140 C   0  0  0  0  0  0  0  0  0  0  0  0
   38.2190   28.9160   43.3890 N   0  0  0  0  0  0  0  0  0  0  0  0
   39.2670   30.4750   42.6350 H   0  0  0  0  0  0  0  0  0  0  0  0
   35.9020   28.9430   40.3880 H   0  0  0  0  0  0  0  0  0  0  0  0
   37.0160   27.2690   44.0610 H   0  0  0  0  0  0  0  0  0  0  0  0
   39.1690   29.6680   38.7350 C   0  0  0  0  0  2  0  0  0  0  0  0
   40.1490   30.4260   37.8780 C   0  0  0  0  0  2  0  0  0  0  0  0
   39.7320   31.4280   37.6450 H   0  0  0  0  0  0  0  0  0  0  0  0
  1  6  1  0  0  0  0
  1 16  1  0  0  0  0
  2  7  1  6  0  0  0
  2  1  1  0  0  0  0
  3  4  1  0  0  0  0
  3  2  1  0  0  0  0
  4  5  1  0  0  0  0
  5 12  1  0  0  0  0
  5 11  1  0  0  0  0
  5  6  1  0  0  0  0
  6 14  1  0  0  0  0
  8  3  1  0  0  0  0
  9  3  1  0  0  0  0
 10  4  1  0  0  0  0
 13  6  1  0  0  0  0
 15 21  1  0  0  0  0
 15 20  1  0  0  0  0
 16 15  2  0  0  0  0
 17 16  1  0  0  0  0
 17 18  2  0  0  0  0
 18 19  1  0  0  0  0
 19 20  2  0  0  0  0
 19 23  1  0  0  0  0
 22 17  1  0  0  0  0
 24  2  1  0  0  0  0
 25 24  1  0  0  0  0
 26 25  1  0  0  0  0
M  END
>  <minimizedAffinity>
-3.79809165

$$$$

 OpenBabel03252508333D

 26 27  0  0  1  0  0  0  0  0999 V2000
   38.1760   29.9230   40.9970 N   0  0  0  0  0  0  0  0  0  0  0  0
   38.3350   29.6660   42.3920 C   0  0  1  0  0  0  0  0  0  0  0  0
   37.4240   28.6610   42.9790 C   0  0  0  0  0  0  0  0  0  0  0  0
   36.2000   28.4030   42.3540 N   0  0  0  0  0  0  0  0  0  0  0  0
   36.0130   28.7800   41.0250 C   0  0  0  0  0  0  0  0  0  0  0  0
   37.3530   28.9660   40.3330 C   0  0  0  0  0  0  0  0  0  0  0  0
   38.2920   30.6130   42.9540 H   0  0  0  0  0  0  0  0  0  0  0  0
   37.9330   27.6740   43.1260 H   0  0  0  0  0  0  0  0  0  0  0  0
   37.2000   28.9870   44.0390 H   0  0  0  0  0  0  0  0  0  0  0  0
   35.3910   28.1860   42.9220 H   0  0  0  0  0  0  0  0  0  0  0  0
   35.5530   29.8120   41.0150 H   0  0  0  0  0  0  0  0  0  0  0  0
   35.3820   28.1110   40.4400 H   0  0  0  0  0  0  0  0  0  0  0  0
   37.8750   27.9710   40.4720 H   0  0  0  0  0  0  0  0  0  0  0  0
   37.1930   29.0820   39.2710 H   0  0  0  0  0  0  0  0  0  0  0  0
   38.5210   32.2750   41.0550 C   0  0  0  0  0  0  0  0  0  0  0  0
   38.8290   31.0480   40.4490 C   0  0  0  0  0  0  0  0  0  0  0  0
   39.7180   31.0550   39.3890 C   0  0  0  0  0  0  0  0  0  0  0  0
   40.2650   32.2210   38.9610 N   0  0  0  0  0  0  0  0  0  0  0  0
   39.9560   33.3980   39.5580 C   0  0  0  0  0  0  0  0  0  0  0  0
   39.0990   33.4180   40.5860 N   0  0  0  0  0  0  0  0  0  0  0  0
   37.8600   32.4820   41.8840 H   0  0  0  0  0  0  0  0  0  0  0  0
   39.9570   30.1180   38.9270 H   0  0  0  0  0  0  0  0  0  0  0  0
   40.4440   34.2720   39.1440 H   0  0  0  0  0  0  0  0  0  0  0  0
   39.7530   29.0940   42.5550 C   0  0  0  0  0  2  0  0  0  0  0  0
   39.7320   27.7290   43.1920 C   0  0  0  0  0  2  0  0  0  0  0  0
   38.6790   27.4120   43.3430 H   0  0  0  0  0  0  0  0  0  0  0  0
  1  2  1  0  0  0  0
  2 24  1  0  0  0  0
  2  7  1  1  0  0  0
  2  3  1  0  0  0  0
  3  8  1  0  0  0  0
  3  9  1  0  0  0  0
  4 10  1  0  0  0  0
  4  3  1  0  0  0  0
  5  4  1  0  0  0  0
  6 13  1  0  0  0  0
  6  1  1  0  0  0  0
  6  5  1  0  0  0  0
 11  5  1  0  0  0  0
 12  5  1  0  0  0  0
 14  6  1  0  0  0  0
 15 21  1  0  0  0  0
 16  1  1  0  0  0  0
 16 15  2  0  0  0  0
 17 16  1  0  0  0  0
 18 17  2  0  0  0  0
 18 19  1  0  0  0  0
 19 20  2  0  0  0  0
 20 15  1  0  0  0  0
 22 17  1  0  0  0  0
 23 19  1  0  0  0  0
 24 25  1  0  0  0  0
 25 26  1  0  0  0  0
M  END
>  <minimizedAffinity>
-3.79604602

$$$$

 OpenBabel03252508333D

 26 27  0  0  1  0  0  0  0  0999 V2000
   38.4740   29.3510   41.6060 N   0  0  0  0  0  0  0  0  0  0  0  0
   38.0410   27.9920   41.6570 C   0  0  1  0  0  0  0  0  0  0  0  0
   38.7610   27.1120   42.6010 C   0  0  0  0  0  0  0  0  0  0  0  0
   40.0620   27.4480   42.9870 N   0  0  0  0  0  0  0  0  0  0  0  0
   40.5180   28.7530   42.8100 C   0  0  0  0  0  0  0  0  0  0  0  0
   39.3450   29.7100   42.6760 C   0  0  0  0  0  0  0  0  0  0  0  0
   38.0360   27.5620   40.6430 H   0  0  0  0  0  0  0  0  0  0  0  0
   38.1740   26.9370   43.5380 H   0  0  0  0  0  0  0  0  0  0  0  0
   38.8030   26.0800   42.1360 H   0  0  0  0  0  0  0  0  0  0  0  0
   40.7360   26.7100   43.1510 H   0  0  0  0  0  0  0  0  0  0  0  0
   41.0350   28.8100   41.8070 H   0  0  0  0  0  0  0  0  0  0  0  0
   41.2040   29.1110   43.5770 H   0  0  0  0  0  0  0  0  0  0  0  0
   38.7460   29.5450   43.6220 H   0  0  0  0  0  0  0  0  0  0  0  0
   39.7080   30.7270   42.7180 H   0  0  0  0  0  0  0  0  0  0  0  0
   38.2900   29.6830   39.2590 C   0  0  0  0  0  0  0  0  0  0  0  0
   38.0060   30.1590   40.5480 C   0  0  0  0  0  0  0  0  0  0  0  0
   37.3160   31.3530   40.6600 C   0  0  0  0  0  0  0  0  0  0  0  0
   36.9340   32.0300   39.5470 N   0  0  0  0  0  0  0  0  0  0  0  0
   37.2170   31.5570   38.3090 C   0  0  0  0  0  0  0  0  0  0  0  0
   37.8830   30.4040   38.1740 N   0  0  0  0  0  0  0  0  0  0  0  0
   38.8100   28.7860   38.9600 H   0  0  0  0  0  0  0  0  0  0  0  0
   37.0950   31.7160   41.6430 H   0  0  0  0  0  0  0  0  0  0  0  0
   36.8700   32.1690   37.4860 H   0  0  0  0  0  0  0  0  0  0  0  0
   36.5850   28.0330   42.1500 C   0  0  0  0  0  2  0  0  0  0  0  0
   36.4440   27.4220   43.5200 C   0  0  0  0  0  2  0  0  0  0  0  0
   37.4480   27.1350   43.8980 H   0  0  0  0  0  0  0  0  0  0  0  0
  1  2  1  0  0  0  0
  1  6  1  0  0  0  0
  2  7  1  6  0  0  0
  2 24  1  0  0  0  0
  2  3  1  0  0  0  0
  3  4  1  0  0  0  0
  3  8  1  0  0  0  0
  4 10  1  0  0  0  0
  5  4  1  0  0  0  0
  5 12  1  0  0  0  0
  6 14  1  0  0  0  0
  6  5  1  0  0  0  0
  6 13  1  0  0  0  0
  9  3  1  0  0  0  0
 11  5  1  0  0  0  0
 15 16  1  0  0  0  0
 16 17  2  0  0  0  0
 16  1  1  0  0  0  0
 17 22  1  0  0  0  0
 18 17  1  0  0  0  0
 19 18  2  0  0  0  0
 20 19  1  0  0  0  0
 20 15  2  0  0  0  0
 21 15  1  0  0  0  0
 23 19  1  0  0  0  0
 24 25  1  0  0  0  0
 25 26  1  0  0  0  0
M  END
>  <minimizedAffinity>
-3.74761772

$$$$

 OpenBabel03252508333D

 26 27  0  0  1  0  0  0  0  0999 V2000
   38.0550   29.6150   40.6190 N   0  0  0  0  0  0  0  0  0  0  0  0
   37.0250   29.1450   41.4870 C   0  0  1  0  0  0  0  0  0  0  0  0
   36.6370   27.7270   41.3320 C   0  0  0  0  0  0  0  0  0  0  0  0
   36.8720   27.0870   40.1120 N   0  0  0  0  0  0  0  0  0  0  0  0
   37.7890   27.6310   39.2130 C   0  0  0  0  0  0  0  0  0  0  0  0
   38.7420   28.5710   39.9340 C   0  0  0  0  0  0  0  0  0  0  0  0
   36.1450   29.8050   41.4160 H   0  0  0  0  0  0  0  0  0  0  0  0
   37.0810   27.0840   42.1330 H   0  0  0  0  0  0  0  0  0  0  0  0
   35.5270   27.6560   41.5410 H   0  0  0  0  0  0  0  0  0  0  0  0
   36.2120   26.3950   39.7810 H   0  0  0  0  0  0  0  0  0  0  0  0
   37.2250   28.3030   38.5020 H   0  0  0  0  0  0  0  0  0  0  0  0
   38.3540   26.9030   38.6320 H   0  0  0  0  0  0  0  0  0  0  0  0
   39.2020   27.9280   40.7440 H   0  0  0  0  0  0  0  0  0  0  0  0
   39.5470   28.8420   39.2660 H   0  0  0  0  0  0  0  0  0  0  0  0
   37.2210   31.7540   39.9980 C   0  0  0  0  0  0  0  0  0  0  0  0
   38.2770   31.0070   40.5430 C   0  0  0  0  0  0  0  0  0  0  0  0
   39.4140   31.6880   40.9380 C   0  0  0  0  0  0  0  0  0  0  0  0
   39.4900   33.0370   40.7960 N   0  0  0  0  0  0  0  0  0  0  0  0
   38.4610   33.7420   40.2670 C   0  0  0  0  0  0  0  0  0  0  0  0
   37.3500   33.1070   39.8770 N   0  0  0  0  0  0  0  0  0  0  0  0
   36.2620   31.4180   39.6340 H   0  0  0  0  0  0  0  0  0  0  0  0
   40.2200   31.1200   41.3570 H   0  0  0  0  0  0  0  0  0  0  0  0
   38.6190   34.8110   40.1950 H   0  0  0  0  0  0  0  0  0  0  0  0
   37.5850   29.2730   42.9140 C   0  0  0  0  0  2  0  0  0  0  0  0
   37.4570   27.9810   43.6790 C   0  0  0  0  0  2  0  0  0  0  0  0
   37.0410   27.1990   43.0100 H   0  0  0  0  0  0  0  0  0  0  0  0
  1  2  1  0  0  0  0
  2  7  1  6  0  0  0
  2 24  1  0  0  0  0
  3  2  1  0  0  0  0
  3  9  1  0  0  0  0
  3  8  1  0  0  0  0
  4  3  1  0  0  0  0
  5  6  1  0  0  0  0
  5  4  1  0  0  0  0
  6  1  1  0  0  0  0
  6 13  1  0  0  0  0
 10  4  1  0  0  0  0
 11  5  1  0  0  0  0
 12  5  1  0  0  0  0
 14  6  1  0  0  0  0
 15 16  1  0  0  0  0
 16  1  1  0  0  0  0
 16 17  2  0  0  0  0
 17 22  1  0  0  0  0
 18 17  1  0  0  0  0
 19 18  2  0  0  0  0
 20 15  2  0  0  0  0
 20 19  1  0  0  0  0
 21 15  1  0  0  0  0
 23 19  1  0  0  0  0
 24 25  1  0  0  0  0
 26 25  1  0  0  0  0
M  END
>  <minimizedAffinity>
-3.74369502

$$$$

 OpenBabel03252508333D

 26 27  0  0  1  0  0  0  0  0999 V2000
   38.9740   27.6120   41.9410 N   0  0  0  0  0  0  0  0  0  0  0  0
   37.7280   27.1420   42.4530 C   0  0  1  0  0  0  0  0  0  0  0  0
   36.6340   28.1340   42.5210 C   0  0  0  0  0  0  0  0  0  0  0  0
   36.9520   29.4940   42.5880 N   0  0  0  0  0  0  0  0  0  0  0  0
   38.2220   29.9250   42.2080 C   0  0  0  0  0  0  0  0  0  0  0  0
   38.8870   28.8890   41.3150 C   0  0  0  0  0  0  0  0  0  0  0  0
   37.8820   26.6590   43.4310 H   0  0  0  0  0  0  0  0  0  0  0  0
   35.9040   28.0070   41.6810 H   0  0  0  0  0  0  0  0  0  0  0  0
   36.0110   27.8880   43.4330 H   0  0  0  0  0  0  0  0  0  0  0  0
   36.3680   30.1120   43.1370 H   0  0  0  0  0  0  0  0  0  0  0  0
   38.8740   29.9500   43.1300 H   0  0  0  0  0  0  0  0  0  0  0  0
   38.2550   30.9030   41.7300 H   0  0  0  0  0  0  0  0  0  0  0  0
   38.1590   28.7570   40.4580 H   0  0  0  0  0  0  0  0  0  0  0  0
   39.7860   29.3110   40.8890 H   0  0  0  0  0  0  0  0  0  0  0  0
   40.4570   26.4950   43.4270 C   0  0  0  0  0  0  0  0  0  0  0  0
   40.1110   26.7890   42.1000 C   0  0  0  0  0  0  0  0  0  0  0  0
   40.9010   26.2650   41.0930 C   0  0  0  0  0  0  0  0  0  0  0  0
   41.9760   25.4920   41.3970 N   0  0  0  0  0  0  0  0  0  0  0  0
   42.2960   25.2180   42.6860 C   0  0  0  0  0  0  0  0  0  0  0  0
   41.5480   25.7130   43.6780 N   0  0  0  0  0  0  0  0  0  0  0  0
   39.9770   26.8020   44.3440 H   0  0  0  0  0  0  0  0  0  0  0  0
   40.6360   26.4860   40.0790 H   0  0  0  0  0  0  0  0  0  0  0  0
   43.1700   24.5930   42.8240 H   0  0  0  0  0  0  0  0  0  0  0  0
   37.2510   26.0590   41.4710 C   0  0  0  0  0  2  0  0  0  0  0  0
   36.9470   24.7630   42.1760 C   0  0  0  0  0  2  0  0  0  0  0  0
   37.0740   24.9030   43.2700 H   0  0  0  0  0  0  0  0  0  0  0  0
  1 16  1  0  0  0  0
  1  2  1  0  0  0  0
  2  3  1  0  0  0  0
  2  7  1  1  0  0  0
  3  4  1  0  0  0  0
  3  9  1  0  0  0  0
  4 10  1  0  0  0  0
  5  4  1  0  0  0  0
  5 11  1  0  0  0  0
  6  1  1  0  0  0  0
  6  5  1  0  0  0  0
  8  3  1  0  0  0  0
 12  5  1  0  0  0  0
 13  6  1  0  0  0  0
 14  6  1  0  0  0  0
 15 20  1  0  0  0  0
 15 21  1  0  0  0  0
 16 15  2  0  0  0  0
 17 18  2  0  0  0  0
 17 16  1  0  0  0  0
 18 19  1  0  0  0  0
 19 23  1  0  0  0  0
 19 20  2  0  0  0  0
 22 17  1  0  0  0  0
 24 25  1  0  0  0  0
 24  2  1  0  0  0  0
 25 26  1  0  0  0  0
M  END
>  <minimizedAffinity>
-3.74344587

$$$$
