
 OpenBabel03252508323D

 26 27  0  0  1  0  0  0  0  0999 V2000
   46.4120   34.0960   41.9910 N   0  0  0  0  0  0  0  0  0  0  0  0
   47.6850   34.1140   41.3450 C   0  0  1  0  0  0  0  0  0  0  0  0
   47.6670   34.1720   39.8680 C   0  0  0  0  0  0  0  0  0  0  0  0
   46.5400   33.7090   39.1820 N   0  0  0  0  0  0  0  0  0  0  0  0
   45.3300   33.5700   39.8600 C   0  0  0  0  0  0  0  0  0  0  0  0
   45.3290   34.4180   41.1220 C   0  0  0  0  0  0  0  0  0  0  0  0
   48.2970   33.2710   41.7000 H   0  0  0  0  0  0  0  0  0  0  0  0
   47.8830   35.2030   39.4890 H   0  0  0  0  0  0  0  0  0  0  0  0
   48.5550   33.5770   39.4960 H   0  0  0  0  0  0  0  0  0  0  0  0
   46.6590   33.2460   38.2910 H   0  0  0  0  0  0  0  0  0  0  0  0
   45.2630   32.5090   40.2430 H   0  0  0  0  0  0  0  0  0  0  0  0
   44.4410   33.7840   39.2680 H   0  0  0  0  0  0  0  0  0  0  0  0
   45.5420   35.4660   40.7490 H   0  0  0  0  0  0  0  0  0  0  0  0
   44.3310   34.4380   41.5370 H   0  0  0  0  0  0  0  0  0  0  0  0
   45.4360   34.5070   44.1200 C   0  0  0  0  0  0  0  0  0  0  0  0
   46.3680   33.7780   43.3650 C   0  0  0  0  0  0  0  0  0  0  0  0
   47.1440   32.8430   44.0250 C   0  0  0  0  0  0  0  0  0  0  0  0
   46.9970   32.6490   45.3610 N   0  0  0  0  0  0  0  0  0  0  0  0
   46.0930   33.3620   46.0750 C   0  0  0  0  0  0  0  0  0  0  0  0
   45.3290   34.2730   45.4600 N   0  0  0  0  0  0  0  0  0  0  0  0
   44.7450   35.2720   43.8000 H   0  0  0  0  0  0  0  0  0  0  0  0
   47.8540   32.2820   43.4500 H   0  0  0  0  0  0  0  0  0  0  0  0
   46.0520   33.1350   47.1330 H   0  0  0  0  0  0  0  0  0  0  0  0
   48.3710   35.4110   41.8070 C   0  0  0  0  0  2  0  0  0  0  0  0
   49.7230   35.1390   42.4160 C   0  0  0  0  0  2  0  0  0  0  0  0
   49.9500   34.0550   42.3320 H   0  0  0  0  0  0  0  0  0  0  0  0
  1 16  1  0  0  0  0
  2  7  1  1  0  0  0
  2 24  1  0  0  0  0
  2  1  1  0  0  0  0
  3  2  1  0  0  0  0
  4  5  1  0  0  0  0
  4  3  1  0  0  0  0
  5 11  1  0  0  0  0
  5  6  1  0  0  0  0
  6 14  1  0  0  0  0
  6  1  1  0  0  0  0
  8  3  1  0  0  0  0
  9  3  1  0  0  0  0
 10  4  1  0  0  0  0
 12  5  1  0  0  0  0
 13  6  1  0  0  0  0
 15 20  1  0  0  0  0
 16 17  1  0  0  0  0
 16 15  2  0  0  0  0
 17 18  2  0  0  0  0
 18 19  1  0  0  0  0
 19 23  1  0  0  0  0
 20 19  2  0  0  0  0
 21 15  1  0  0  0  0
 22 17  1  0  0  0  0
 24 25  1  0  0  0  0
 26 25  1  0  0  0  0
M  END
>  <minimizedAffinity>
-4.32333851

>  <minimizedRMSD>
2.69875813

$$$$
