
 OpenBabel03252502443D

 25 26  0  0  1  0  0  0  0  0999 V2000
   36.6190   27.2840   42.9340 C   0  0  0  0  0  0  0  0  0  0  0  0
   35.7110   27.0790   43.5060 H   0  0  0  0  0  0  0  0  0  0  0  0
   36.3930   27.5780   41.8670 H   0  0  0  0  0  0  0  0  0  0  0  0
   37.5140   26.0910   42.8340 C   0  0  1  0  0  0  0  0  0  0  0  0
   37.0010   24.9120   42.0710 C   0  0  0  0  0  0  0  0  0  0  0  0
   38.0570   25.7650   41.4970 C   0  0  2  0  0  0  0  0  0  0  0  0
   38.0940   25.9320   43.7750 H   0  0  0  0  0  0  0  0  0  0  0  0
   35.9610   24.8540   41.6910 H   0  0  0  0  0  0  0  0  0  0  0  0
   37.2560   23.9390   42.5470 H   0  0  0  0  0  0  0  0  0  0  0  0
   38.1020   26.3910   40.6420 H   0  0  0  0  0  0  0  0  0  0  0  0
   39.4460   25.1320   41.6120 C   0  0  0  0  0  2  0  0  0  0  0  0
   39.6350   24.5880   43.0030 C   0  0  0  0  0  2  0  0  0  0  0  0
   39.0460   25.1840   43.7360 H   0  0  0  0  0  0  0  0  0  0  0  0
   37.4240   28.3420   43.6530 C   0  0  0  0  0  0  0  0  0  0  0  0
   38.4750   27.9180   43.7510 H   0  0  0  0  0  0  0  0  0  0  0  0
   36.9880   28.6820   44.5790 H   0  0  0  0  0  0  0  0  0  0  0  0
   39.3930   30.9760   41.8400 C   0  0  0  0  0  0  0  0  0  0  0  0
   39.0760   29.9180   42.7490 C   0  0  0  0  0  0  0  0  0  0  0  0
   37.8090   29.4030   42.6860 C   0  0  0  0  0  0  0  0  0  0  0  0
   36.9220   29.9030   41.7810 N   0  0  0  0  0  0  0  0  0  0  0  0
   37.2350   30.8810   40.9500 C   0  0  0  0  0  0  0  0  0  0  0  0
   38.4600   31.4160   40.9770 N   0  0  0  0  0  0  0  0  0  0  0  0
   40.3350   31.4630   41.7850 H   0  0  0  0  0  0  0  0  0  0  0  0
   39.9300   29.6840   43.3510 H   0  0  0  0  0  0  0  0  0  0  0  0
   36.4930   31.2400   40.2520 H   0  0  0  0  0  0  0  0  0  0  0  0
  1  2  1  0  0  0  0
  1 14  1  0  0  0  0
  3  1  1  0  0  0  0
  4  1  1  0  0  0  0
  4  7  1  1  0  0  0
  5  9  1  0  0  0  0
  5  4  1  0  0  0  0
  6 10  1  6  0  0  0
  6 11  1  0  0  0  0
  6  5  1  0  0  0  0
  6  4  1  0  0  0  0
  8  5  1  0  0  0  0
 11 12  1  0  0  0  0
 12 13  1  0  0  0  0
 14 15  1  0  0  0  0
 14 16  1  0  0  0  0
 17 18  1  0  0  0  0
 18 24  1  0  0  0  0
 19 18  2  0  0  0  0
 19 14  1  0  0  0  0
 20 19  1  0  0  0  0
 21 22  1  0  0  0  0
 21 20  2  0  0  0  0
 22 17  2  0  0  0  0
 23 17  1  0  0  0  0
 25 21  1  0  0  0  0
M  END
>  <minimizedAffinity>
-4.02069092

$$$$

 OpenBabel03252502443D

 25 26  0  0  1  0  0  0  0  0999 V2000
   38.1240   29.1750   43.3680 C   0  0  0  0  0  0  0  0  0  0  0  0
   38.6300   29.4380   44.3000 H   0  0  0  0  0  0  0  0  0  0  0  0
   37.1310   29.7030   43.2570 H   0  0  0  0  0  0  0  0  0  0  0  0
   37.8080   27.7160   43.2810 C   0  0  1  0  0  0  0  0  0  0  0  0
   36.4120   27.2970   43.6180 C   0  0  0  0  0  0  0  0  0  0  0  0
   36.8730   27.2900   42.2170 C   0  0  2  0  0  0  0  0  0  0  0  0
   38.6700   27.0880   43.6130 H   0  0  0  0  0  0  0  0  0  0  0  0
   35.6620   28.0010   44.0310 H   0  0  0  0  0  0  0  0  0  0  0  0
   36.3700   26.3520   44.2030 H   0  0  0  0  0  0  0  0  0  0  0  0
   36.5800   27.8310   41.3530 H   0  0  0  0  0  0  0  0  0  0  0  0
   37.2150   25.8830   41.7210 C   0  0  0  0  0  2  0  0  0  0  0  0
   38.4580   25.3960   42.4160 C   0  0  0  0  0  2  0  0  0  0  0  0
   39.1180   26.2530   42.6790 H   0  0  0  0  0  0  0  0  0  0  0  0
   39.0490   29.4640   42.2070 C   0  0  0  0  0  0  0  0  0  0  0  0
   38.7090   28.7820   41.3630 H   0  0  0  0  0  0  0  0  0  0  0  0
   40.0990   29.3950   42.4470 H   0  0  0  0  0  0  0  0  0  0  0  0
   37.0500   31.9330   40.2050 C   0  0  0  0  0  0  0  0  0  0  0  0
   37.4100   30.7270   40.8860 C   0  0  0  0  0  0  0  0  0  0  0  0
   38.6140   30.7170   41.5370 C   0  0  0  0  0  0  0  0  0  0  0  0
   39.4020   31.8290   41.5160 N   0  0  0  0  0  0  0  0  0  0  0  0
   39.0510   32.9320   40.8810 C   0  0  0  0  0  0  0  0  0  0  0  0
   37.8850   32.9870   40.2290 N   0  0  0  0  0  0  0  0  0  0  0  0
   36.1490   32.0740   39.6620 H   0  0  0  0  0  0  0  0  0  0  0  0
   36.6330   29.9990   40.7770 H   0  0  0  0  0  0  0  0  0  0  0  0
   39.7140   33.7840   40.8950 H   0  0  0  0  0  0  0  0  0  0  0  0
  1  2  1  0  0  0  0
  3  1  1  0  0  0  0
  4  1  1  0  0  0  0
  4  7  1  1  0  0  0
  4  5  1  0  0  0  0
  5  8  1  0  0  0  0
  5  9  1  0  0  0  0
  6 10  1  6  0  0  0
  6  4  1  0  0  0  0
  6  5  1  0  0  0  0
 11  6  1  0  0  0  0
 11 12  1  0  0  0  0
 12 13  1  0  0  0  0
 14 16  1  0  0  0  0
 14  1  1  0  0  0  0
 15 14  1  0  0  0  0
 17 22  2  0  0  0  0
 17 18  1  0  0  0  0
 18 19  2  0  0  0  0
 19 14  1  0  0  0  0
 20 19  1  0  0  0  0
 21 25  1  0  0  0  0
 21 20  2  0  0  0  0
 22 21  1  0  0  0  0
 23 17  1  0  0  0  0
 24 18  1  0  0  0  0
M  END
>  <minimizedAffinity>
-3.99348021

$$$$

 OpenBabel03252502443D

 25 26  0  0  1  0  0  0  0  0999 V2000
   36.2180   28.5190   41.1700 C   0  0  0  0  0  0  0  0  0  0  0  0
   35.2380   28.0370   41.1910 H   0  0  0  0  0  0  0  0  0  0  0  0
   36.8980   28.0690   40.3870 H   0  0  0  0  0  0  0  0  0  0  0  0
   36.9550   28.3740   42.4630 C   0  0  1  0  0  0  0  0  0  0  0  0
   36.5000   27.2950   43.3930 C   0  0  0  0  0  0  0  0  0  0  0  0
   37.7630   27.1490   42.6460 C   0  0  2  0  0  0  0  0  0  0  0  0
   37.2630   29.3650   42.8740 H   0  0  0  0  0  0  0  0  0  0  0  0
   35.5860   26.6950   43.2090 H   0  0  0  0  0  0  0  0  0  0  0  0
   36.5080   27.6070   44.4600 H   0  0  0  0  0  0  0  0  0  0  0  0
   38.0930   26.4690   41.9010 H   0  0  0  0  0  0  0  0  0  0  0  0
   38.9920   27.4300   43.5140 C   0  0  0  0  0  2  0  0  0  0  0  0
   39.7890   26.1630   43.6770 C   0  0  0  0  0  2  0  0  0  0  0  0
   39.1210   25.2740   43.6310 H   0  0  0  0  0  0  0  0  0  0  0  0
   36.0330   30.0050   40.9680 C   0  0  0  0  0  0  0  0  0  0  0  0
   36.9070   30.5020   41.5000 H   0  0  0  0  0  0  0  0  0  0  0  0
   35.0610   30.3760   41.2570 H   0  0  0  0  0  0  0  0  0  0  0  0
   36.9560   29.7980   37.3340 C   0  0  0  0  0  0  0  0  0  0  0  0
   36.4540   29.4230   38.6200 C   0  0  0  0  0  0  0  0  0  0  0  0
   36.4920   30.3740   39.6040 C   0  0  0  0  0  0  0  0  0  0  0  0
   36.9920   31.6120   39.3260 N   0  0  0  0  0  0  0  0  0  0  0  0
   37.4500   31.9380   38.1320 C   0  0  0  0  0  0  0  0  0  0  0  0
   37.4350   31.0400   37.1410 N   0  0  0  0  0  0  0  0  0  0  0  0
   36.9850   29.1590   36.4880 H   0  0  0  0  0  0  0  0  0  0  0  0
   36.1020   28.4130   38.5960 H   0  0  0  0  0  0  0  0  0  0  0  0
   37.8360   32.9330   37.9670 H   0  0  0  0  0  0  0  0  0  0  0  0
  1  2  1  0  0  0  0
  1  4  1  0  0  0  0
  3  1  1  0  0  0  0
  4  6  1  0  0  0  0
  4  7  1  1  0  0  0
  4  5  1  0  0  0  0
  5  9  1  0  0  0  0
  6 10  1  6  0  0  0
  6  5  1  0  0  0  0
  6 11  1  0  0  0  0
  8  5  1  0  0  0  0
 11 12  1  0  0  0  0
 13 12  1  0  0  0  0
 14  1  1  0  0  0  0
 14 16  1  0  0  0  0
 14 15  1  0  0  0  0
 17 18  1  0  0  0  0
 18 19  2  0  0  0  0
 19 14  1  0  0  0  0
 20 19  1  0  0  0  0
 21 20  2  0  0  0  0
 22 17  2  0  0  0  0
 22 21  1  0  0  0  0
 23 17  1  0  0  0  0
 24 18  1  0  0  0  0
 25 21  1  0  0  0  0
M  END
>  <minimizedAffinity>
-3.96010017

$$$$

 OpenBabel03252502443D

 25 26  0  0  1  0  0  0  0  0999 V2000
   38.0240   26.8500   42.8750 C   0  0  0  0  0  0  0  0  0  0  0  0
   38.7600   27.6140   42.6120 H   0  0  0  0  0  0  0  0  0  0  0  0
   38.2710   26.3390   43.8520 H   0  0  0  0  0  0  0  0  0  0  0  0
   37.9510   25.7530   41.8630 C   0  0  1  0  0  0  0  0  0  0  0  0
   38.4240   24.3990   42.2850 C   0  0  0  0  0  0  0  0  0  0  0  0
   36.9840   24.6640   42.1160 C   0  0  2  0  0  0  0  0  0  0  0  0
   38.1840   26.1250   40.8360 H   0  0  0  0  0  0  0  0  0  0  0  0
   38.9220   24.2180   43.2590 H   0  0  0  0  0  0  0  0  0  0  0  0
   38.9980   23.8700   41.4930 H   0  0  0  0  0  0  0  0  0  0  0  0
   36.1610   24.6660   42.7870 H   0  0  0  0  0  0  0  0  0  0  0  0
   36.4360   24.1020   40.8020 C   0  0  0  0  0  2  0  0  0  0  0  0
   36.4970   25.1670   39.7390 C   0  0  0  0  0  2  0  0  0  0  0  0
   36.3950   26.1770   40.1950 H   0  0  0  0  0  0  0  0  0  0  0  0
   36.6500   27.4790   42.9000 C   0  0  0  0  0  0  0  0  0  0  0  0
   36.6170   28.1160   43.8410 H   0  0  0  0  0  0  0  0  0  0  0  0
   35.8370   26.7760   42.8050 H   0  0  0  0  0  0  0  0  0  0  0  0
   35.7210   29.7580   40.0640 C   0  0  0  0  0  0  0  0  0  0  0  0
   35.6800   28.6570   40.9760 C   0  0  0  0  0  0  0  0  0  0  0  0
   36.6240   28.6350   41.9670 C   0  0  0  0  0  0  0  0  0  0  0  0
   37.5420   29.6400   42.0460 N   0  0  0  0  0  0  0  0  0  0  0  0
   37.5620   30.6480   41.1940 C   0  0  0  0  0  0  0  0  0  0  0  0
   36.6610   30.7100   40.2080 N   0  0  0  0  0  0  0  0  0  0  0  0
   35.0500   29.8950   39.2530 H   0  0  0  0  0  0  0  0  0  0  0  0
   34.8680   28.0050   40.7280 H   0  0  0  0  0  0  0  0  0  0  0  0
   38.3130   31.4170   41.3020 H   0  0  0  0  0  0  0  0  0  0  0  0
  1 14  1  0  0  0  0
  1  3  1  0  0  0  0
  2  1  1  0  0  0  0
  4  7  1  6  0  0  0
  4  6  1  0  0  0  0
  4  5  1  0  0  0  0
  4  1  1  0  0  0  0
  5  8  1  0  0  0  0
  6  5  1  0  0  0  0
  6 10  1  1  0  0  0
  9  5  1  0  0  0  0
 11  6  1  0  0  0  0
 12 13  1  0  0  0  0
 12 11  1  0  0  0  0
 14 15  1  0  0  0  0
 16 14  1  0  0  0  0
 17 22  2  0  0  0  0
 17 18  1  0  0  0  0
 18 19  2  0  0  0  0
 19 20  1  0  0  0  0
 19 14  1  0  0  0  0
 21 25  1  0  0  0  0
 21 20  2  0  0  0  0
 22 21  1  0  0  0  0
 23 17  1  0  0  0  0
 24 18  1  0  0  0  0
M  END
>  <minimizedAffinity>
-3.94980431

$$$$

 OpenBabel03252502443D

 25 26  0  0  1  0  0  0  0  0999 V2000
   37.0310   27.1310   41.5650 C   0  0  0  0  0  0  0  0  0  0  0  0
   36.1140   26.9550   40.9980 H   0  0  0  0  0  0  0  0  0  0  0  0
   37.9150   27.3360   40.8920 H   0  0  0  0  0  0  0  0  0  0  0  0
   37.4290   25.9510   42.3910 C   0  0  1  0  0  0  0  0  0  0  0  0
   37.0080   24.6010   41.9040 C   0  0  0  0  0  0  0  0  0  0  0  0
   38.4190   25.0200   41.8060 C   0  0  2  0  0  0  0  0  0  0  0  0
   37.3920   26.1820   43.4830 H   0  0  0  0  0  0  0  0  0  0  0  0
   36.3290   24.4640   41.0380 H   0  0  0  0  0  0  0  0  0  0  0  0
   36.6750   23.9260   42.7230 H   0  0  0  0  0  0  0  0  0  0  0  0
   39.0710   25.1930   40.9870 H   0  0  0  0  0  0  0  0  0  0  0  0
   39.2910   24.3940   42.8970 C   0  0  0  0  0  2  0  0  0  0  0  0
   40.4590   25.3000   43.1850 C   0  0  0  0  0  2  0  0  0  0  0  0
   40.7370   25.8760   42.2730 H   0  0  0  0  0  0  0  0  0  0  0  0
   36.7960   28.2580   42.5450 C   0  0  0  0  0  0  0  0  0  0  0  0
   37.6520   28.2020   43.2920 H   0  0  0  0  0  0  0  0  0  0  0  0
   35.8120   28.2640   42.9880 H   0  0  0  0  0  0  0  0  0  0  0  0
   36.8340   31.4570   40.5800 C   0  0  0  0  0  0  0  0  0  0  0  0
   36.3510   30.2600   41.1960 C   0  0  0  0  0  0  0  0  0  0  0  0
   37.2450   29.5360   41.9370 C   0  0  0  0  0  0  0  0  0  0  0  0
   38.5300   29.9750   42.0590 N   0  0  0  0  0  0  0  0  0  0  0  0
   38.9570   31.0840   41.4820 C   0  0  0  0  0  0  0  0  0  0  0  0
   38.1180   31.8210   40.7470 N   0  0  0  0  0  0  0  0  0  0  0  0
   36.2470   32.1070   39.9810 H   0  0  0  0  0  0  0  0  0  0  0  0
   35.3120   30.1270   40.9740 H   0  0  0  0  0  0  0  0  0  0  0  0
   39.9860   31.3850   41.6110 H   0  0  0  0  0  0  0  0  0  0  0  0
  1  4  1  0  0  0  0
  1 14  1  0  0  0  0
  2  1  1  0  0  0  0
  3  1  1  0  0  0  0
  4  7  1  1  0  0  0
  5  4  1  0  0  0  0
  5  9  1  0  0  0  0
  6 10  1  6  0  0  0
  6  5  1  0  0  0  0
  6  4  1  0  0  0  0
  6 11  1  0  0  0  0
  8  5  1  0  0  0  0
 11 12  1  0  0  0  0
 13 12  1  0  0  0  0
 14 16  1  0  0  0  0
 14 15  1  0  0  0  0
 17 22  2  0  0  0  0
 17 18  1  0  0  0  0
 18 19  2  0  0  0  0
 19 20  1  0  0  0  0
 19 14  1  0  0  0  0
 21 25  1  0  0  0  0
 21 20  2  0  0  0  0
 22 21  1  0  0  0  0
 23 17  1  0  0  0  0
 24 18  1  0  0  0  0
M  END
>  <minimizedAffinity>
-3.90261745

$$$$

 OpenBabel03252502443D

 25 26  0  0  1  0  0  0  0  0999 V2000
   36.1710   27.9030   40.4840 C   0  0  0  0  0  0  0  0  0  0  0  0
   35.5280   27.0600   40.2240 H   0  0  0  0  0  0  0  0  0  0  0  0
   37.0820   27.9660   39.8170 H   0  0  0  0  0  0  0  0  0  0  0  0
   36.7080   27.8070   41.8760 C   0  0  1  0  0  0  0  0  0  0  0  0
   37.0970   26.4500   42.3680 C   0  0  0  0  0  0  0  0  0  0  0  0
   38.1330   27.4430   42.0270 C   0  0  2  0  0  0  0  0  0  0  0  0
   36.1920   28.5190   42.5650 H   0  0  0  0  0  0  0  0  0  0  0  0
   36.8950   25.5260   41.7890 H   0  0  0  0  0  0  0  0  0  0  0  0
   36.8120   26.2720   43.4280 H   0  0  0  0  0  0  0  0  0  0  0  0
   38.8950   27.4740   41.2900 H   0  0  0  0  0  0  0  0  0  0  0  0
   38.7370   28.1050   43.2670 C   0  0  0  0  0  2  0  0  0  0  0  0
   38.7900   29.5960   43.0630 C   0  0  0  0  0  2  0  0  0  0  0  0
   38.9060   29.8360   41.9820 H   0  0  0  0  0  0  0  0  0  0  0  0
   35.3560   29.1760   40.4440 C   0  0  0  0  0  0  0  0  0  0  0  0
   35.3710   29.5860   41.5050 H   0  0  0  0  0  0  0  0  0  0  0  0
   34.3700   29.0590   40.0210 H   0  0  0  0  0  0  0  0  0  0  0  0
   37.2960   32.3710   40.0980 C   0  0  0  0  0  0  0  0  0  0  0  0
   36.5450   31.3090   40.6920 C   0  0  0  0  0  0  0  0  0  0  0  0
   36.1840   30.2700   39.8770 C   0  0  0  0  0  0  0  0  0  0  0  0
   36.5470   30.2870   38.5630 N   0  0  0  0  0  0  0  0  0  0  0  0
   37.2400   31.2780   38.0340 C   0  0  0  0  0  0  0  0  0  0  0  0
   37.6130   32.3140   38.7910 N   0  0  0  0  0  0  0  0  0  0  0  0
   37.6370   33.2330   40.6150 H   0  0  0  0  0  0  0  0  0  0  0  0
   36.3930   31.5060   41.7330 H   0  0  0  0  0  0  0  0  0  0  0  0
   37.5010   31.2410   36.9860 H   0  0  0  0  0  0  0  0  0  0  0  0
  1  4  1  0  0  0  0
  2  1  1  0  0  0  0
  3  1  1  0  0  0  0
  4  6  1  0  0  0  0
  4  5  1  0  0  0  0
  4  7  1  1  0  0  0
  5  9  1  0  0  0  0
  6 10  1  6  0  0  0
  6  5  1  0  0  0  0
  6 11  1  0  0  0  0
  8  5  1  0  0  0  0
 12 11  1  0  0  0  0
 13 12  1  0  0  0  0
 14  1  1  0  0  0  0
 14 15  1  0  0  0  0
 16 14  1  0  0  0  0
 17 23  1  0  0  0  0
 17 18  1  0  0  0  0
 18 24  1  0  0  0  0
 19 14  1  0  0  0  0
 19 18  2  0  0  0  0
 20 19  1  0  0  0  0
 21 20  2  0  0  0  0
 21 22  1  0  0  0  0
 22 17  2  0  0  0  0
 25 21  1  0  0  0  0
M  END
>  <minimizedAffinity>
-3.89423895

$$$$

 OpenBabel03252502443D

 25 26  0  0  1  0  0  0  0  0999 V2000
   35.8800   28.5120   39.3400 C   0  0  0  0  0  0  0  0  0  0  0  0
   36.2170   27.4740   39.3720 H   0  0  0  0  0  0  0  0  0  0  0  0
   35.0150   28.6580   38.6280 H   0  0  0  0  0  0  0  0  0  0  0  0
   36.9450   29.4460   38.8630 C   0  0  1  0  0  0  0  0  0  0  0  0
   36.7690   30.0500   37.5070 C   0  0  0  0  0  0  0  0  0  0  0  0
   36.5790   30.8710   38.7170 C   0  0  2  0  0  0  0  0  0  0  0  0
   37.9600   29.1160   39.1940 H   0  0  0  0  0  0  0  0  0  0  0  0
   35.9560   29.7440   36.8180 H   0  0  0  0  0  0  0  0  0  0  0  0
   37.7180   30.1080   36.9280 H   0  0  0  0  0  0  0  0  0  0  0  0
   35.7410   31.3740   39.1300 H   0  0  0  0  0  0  0  0  0  0  0  0
   37.7790   31.7760   39.0040 C   0  0  0  0  0  2  0  0  0  0  0  0
   37.2910   33.1340   39.4320 C   0  0  0  0  0  2  0  0  0  0  0  0
   36.3070   33.3600   38.9610 H   0  0  0  0  0  0  0  0  0  0  0  0
   35.5370   28.9620   40.7420 C   0  0  0  0  0  0  0  0  0  0  0  0
   34.7930   28.1990   41.1390 H   0  0  0  0  0  0  0  0  0  0  0  0
   35.2100   29.9880   40.8130 H   0  0  0  0  0  0  0  0  0  0  0  0
   37.9100   26.8770   42.7710 C   0  0  0  0  0  0  0  0  0  0  0  0
   36.8890   27.2280   41.8320 C   0  0  0  0  0  0  0  0  0  0  0  0
   36.6290   28.5610   41.6650 C   0  0  0  0  0  0  0  0  0  0  0  0
   37.3380   29.4810   42.3790 N   0  0  0  0  0  0  0  0  0  0  0  0
   38.2770   29.1360   43.2410 C   0  0  0  0  0  0  0  0  0  0  0  0
   38.5640   27.8450   43.4390 N   0  0  0  0  0  0  0  0  0  0  0  0
   38.2090   25.8830   42.9950 H   0  0  0  0  0  0  0  0  0  0  0  0
   36.4850   26.3440   41.3840 H   0  0  0  0  0  0  0  0  0  0  0  0
   38.8080   29.9060   43.7820 H   0  0  0  0  0  0  0  0  0  0  0  0
  1  2  1  0  0  0  0
  1 14  1  0  0  0  0
  3  1  1  0  0  0  0
  4  7  1  1  0  0  0
  4  1  1  0  0  0  0
  5  6  1  0  0  0  0
  5  4  1  0  0  0  0
  6  4  1  0  0  0  0
  6 11  1  0  0  0  0
  6 10  1  1  0  0  0
  8  5  1  0  0  0  0
  9  5  1  0  0  0  0
 11 12  1  0  0  0  0
 13 12  1  0  0  0  0
 14 16  1  0  0  0  0
 14 15  1  0  0  0  0
 14 19  1  0  0  0  0
 17 23  1  0  0  0  0
 17 22  1  0  0  0  0
 18 17  2  0  0  0  0
 19 18  1  0  0  0  0
 19 20  2  0  0  0  0
 20 21  1  0  0  0  0
 21 22  2  0  0  0  0
 21 25  1  0  0  0  0
 24 18  1  0  0  0  0
M  END
>  <minimizedAffinity>
-3.84690499

$$$$

 OpenBabel03252502443D

 25 26  0  0  1  0  0  0  0  0999 V2000
   36.5710   27.6280   40.7100 C   0  0  0  0  0  0  0  0  0  0  0  0
   37.2220   26.8550   40.2930 H   0  0  0  0  0  0  0  0  0  0  0  0
   35.4900   27.4780   40.4170 H   0  0  0  0  0  0  0  0  0  0  0  0
   36.9260   28.9970   40.2260 C   0  0  1  0  0  0  0  0  0  0  0  0
   36.0650   29.5900   39.1560 C   0  0  0  0  0  0  0  0  0  0  0  0
   35.9810   30.0900   40.5410 C   0  0  2  0  0  0  0  0  0  0  0  0
   38.0320   29.1480   40.1930 H   0  0  0  0  0  0  0  0  0  0  0  0
   35.2680   29.0130   38.6450 H   0  0  0  0  0  0  0  0  0  0  0  0
   36.6460   30.1470   38.3880 H   0  0  0  0  0  0  0  0  0  0  0  0
   35.2080   30.0940   41.2670 H   0  0  0  0  0  0  0  0  0  0  0  0
   36.7230   31.4160   40.7290 C   0  0  0  0  0  2  0  0  0  0  0  0
   37.1560   31.9420   39.3870 C   0  0  0  0  0  2  0  0  0  0  0  0
   37.3400   31.1000   38.6810 H   0  0  0  0  0  0  0  0  0  0  0  0
   36.7480   27.6640   42.2110 C   0  0  0  0  0  0  0  0  0  0  0  0
   35.8770   27.0710   42.6400 H   0  0  0  0  0  0  0  0  0  0  0  0
   36.8640   28.6550   42.6220 H   0  0  0  0  0  0  0  0  0  0  0  0
   39.8410   26.1190   43.6760 C   0  0  0  0  0  0  0  0  0  0  0  0
   38.8400   27.0910   43.3620 C   0  0  0  0  0  0  0  0  0  0  0  0
   37.7800   26.6700   42.6050 C   0  0  0  0  0  0  0  0  0  0  0  0
   37.7190   25.3720   42.1930 N   0  0  0  0  0  0  0  0  0  0  0  0
   38.6540   24.4900   42.4940 C   0  0  0  0  0  0  0  0  0  0  0  0
   39.7090   24.8570   43.2290 N   0  0  0  0  0  0  0  0  0  0  0  0
   40.7120   26.3130   44.2510 H   0  0  0  0  0  0  0  0  0  0  0  0
   39.0920   28.0330   43.8030 H   0  0  0  0  0  0  0  0  0  0  0  0
   38.5570   23.4740   42.1400 H   0  0  0  0  0  0  0  0  0  0  0  0
  1 14  1  0  0  0  0
  2  1  1  0  0  0  0
  3  1  1  0  0  0  0
  4  7  1  6  0  0  0
  4  6  1  0  0  0  0
  4  1  1  0  0  0  0
  5  4  1  0  0  0  0
  5  6  1  0  0  0  0
  6 11  1  0  0  0  0
  6 10  1  1  0  0  0
  8  5  1  0  0  0  0
  9  5  1  0  0  0  0
 12 11  1  0  0  0  0
 13 12  1  0  0  0  0
 14 19  1  0  0  0  0
 14 16  1  0  0  0  0
 14 15  1  0  0  0  0
 17 23  1  0  0  0  0
 18 17  1  0  0  0  0
 18 24  1  0  0  0  0
 19 18  2  0  0  0  0
 20 21  2  0  0  0  0
 20 19  1  0  0  0  0
 21 22  1  0  0  0  0
 22 17  2  0  0  0  0
 25 21  1  0  0  0  0
M  END
>  <minimizedAffinity>
-3.81481004

$$$$

 OpenBabel03252502443D

 25 26  0  0  1  0  0  0  0  0999 V2000
   36.2810   30.9710   40.8420 C   0  0  0  0  0  0  0  0  0  0  0  0
   35.4500   31.5620   41.2330 H   0  0  0  0  0  0  0  0  0  0  0  0
   37.2140   31.0800   41.4690 H   0  0  0  0  0  0  0  0  0  0  0  0
   36.6810   31.3860   39.4630 C   0  0  1  0  0  0  0  0  0  0  0  0
   37.2370   32.7640   39.2970 C   0  0  0  0  0  0  0  0  0  0  0  0
   38.1240   31.5890   39.2110 C   0  0  2  0  0  0  0  0  0  0  0  0
   35.9870   30.9730   38.6910 H   0  0  0  0  0  0  0  0  0  0  0  0
   37.2510   33.5050   40.1220 H   0  0  0  0  0  0  0  0  0  0  0  0
   36.8790   33.2710   38.3740 H   0  0  0  0  0  0  0  0  0  0  0  0
   38.9410   31.2500   39.7960 H   0  0  0  0  0  0  0  0  0  0  0  0
   38.4810   31.2320   37.7660 C   0  0  0  0  0  2  0  0  0  0  0  0
   37.3040   30.5600   37.1100 C   0  0  0  0  0  2  0  0  0  0  0  0
   36.7010   30.0090   37.8670 H   0  0  0  0  0  0  0  0  0  0  0  0
   35.8460   29.5270   40.7260 C   0  0  0  0  0  0  0  0  0  0  0  0
   36.3060   29.1420   39.7600 H   0  0  0  0  0  0  0  0  0  0  0  0
   34.7810   29.3750   40.8090 H   0  0  0  0  0  0  0  0  0  0  0  0
   38.3380   28.4740   43.3300 C   0  0  0  0  0  0  0  0  0  0  0  0
   37.4930   29.3100   42.5340 C   0  0  0  0  0  0  0  0  0  0  0  0
   36.6950   28.6890   41.6110 C   0  0  0  0  0  0  0  0  0  0  0  0
   36.7340   27.3320   41.4900 N   0  0  0  0  0  0  0  0  0  0  0  0
   37.5220   26.5780   42.2350 C   0  0  0  0  0  0  0  0  0  0  0  0
   38.3190   27.1410   43.1480 N   0  0  0  0  0  0  0  0  0  0  0  0
   39.0030   28.8260   44.0780 H   0  0  0  0  0  0  0  0  0  0  0  0
   37.6220   30.3340   42.8150 H   0  0  0  0  0  0  0  0  0  0  0  0
   37.5140   25.5070   42.0980 H   0  0  0  0  0  0  0  0  0  0  0  0
  1  2  1  0  0  0  0
  1  3  1  0  0  0  0
  4  7  1  6  0  0  0
  4  1  1  0  0  0  0
  5  4  1  0  0  0  0
  5  8  1  0  0  0  0
  6  5  1  0  0  0  0
  6  4  1  0  0  0  0
  6 10  1  1  0  0  0
  9  5  1  0  0  0  0
 11  6  1  0  0  0  0
 12 11  1  0  0  0  0
 12 13  1  0  0  0  0
 14 16  1  0  0  0  0
 14  1  1  0  0  0  0
 14 19  1  0  0  0  0
 15 14  1  0  0  0  0
 17 23  1  0  0  0  0
 18 24  1  0  0  0  0
 18 17  2  0  0  0  0
 19 18  1  0  0  0  0
 20 19  2  0  0  0  0
 20 21  1  0  0  0  0
 21 22  2  0  0  0  0
 22 17  1  0  0  0  0
 25 21  1  0  0  0  0
M  END
>  <minimizedAffinity>
-3.81041574

$$$$
