
 OpenBabel03242511413D

 28 29  0  0  0  0  0  0  0  0999 V2000
   46.8030   32.7430   46.1580 C   0  0  0  0  0  0  0  0  0  0  0  0
   46.8310   33.7650   46.5600 H   0  0  0  0  0  0  0  0  0  0  0  0
   47.8720   32.4800   45.9290 H   0  0  0  0  0  0  0  0  0  0  0  0
   46.2590   31.9110   47.2480 C   0  0  0  0  0  0  0  0  0  0  0  0
   45.5420   32.3320   48.3750 C   0  0  0  0  0  0  0  0  0  0  0  0
   44.9860   31.4880   49.3020 C   0  0  0  0  0  0  0  0  0  0  0  0
   45.1640   30.1630   49.0720 C   0  0  0  0  0  0  0  0  0  0  0  0
   45.8710   29.7090   47.9710 C   0  0  0  0  0  0  0  0  0  0  0  0
   46.4450   30.5780   47.0270 C   0  0  0  0  0  0  0  0  0  0  0  0
   45.5250   33.4260   48.3470 H   0  0  0  0  0  0  0  0  0  0  0  0
   44.5100   32.0890   50.0420 H   0  0  0  0  0  0  0  0  0  0  0  0
   44.6630   29.6170   49.8890 H   0  0  0  0  0  0  0  0  0  0  0  0
   45.8350   28.6090   48.0760 H   0  0  0  0  0  0  0  0  0  0  0  0
   47.2440   29.5770   46.2580 C   0  0  0  0  0  0  0  0  0  0  0  0
   48.6930   29.5040   46.8340 C   0  0  0  0  0  0  0  0  0  0  0  0
   49.4400   29.8340   46.1370 H   0  0  0  0  0  0  0  0  0  0  0  0
   46.0300   32.6020   44.8900 C   0  0  0  0  0  0  0  0  0  0  0  0
   45.0460   32.1510   45.1170 H   0  0  0  0  0  0  0  0  0  0  0  0
   46.6200   32.1780   44.0590 H   0  0  0  0  0  0  0  0  0  0  0  0
   44.5690   36.0080   44.7840 C   0  0  0  0  0  0  0  0  0  0  0  0
   44.9910   36.4620   43.5050 C   0  0  0  0  0  0  0  0  0  0  0  0
   45.7490   35.5910   42.7590 C   0  0  0  0  0  0  0  0  0  0  0  0
   46.0500   34.3940   43.2420 N   0  0  0  0  0  0  0  0  0  0  0  0
   45.6220   33.9920   44.4780 C   0  0  0  0  0  0  0  0  0  0  0  0
   44.8980   34.7830   45.2290 N   0  0  0  0  0  0  0  0  0  0  0  0
   43.9720   36.6020   45.4630 H   0  0  0  0  0  0  0  0  0  0  0  0
   44.6770   37.4440   43.2430 H   0  0  0  0  0  0  0  0  0  0  0  0
   46.0590   35.9470   41.7920 H   0  0  0  0  0  0  0  0  0  0  0  0
  1  2  1  0  0  0  0
  1  4  1  0  0  0  0
  3  1  1  0  0  0  0
  4  5  1  0  0  0  0
  5  6  2  0  0  0  0
  6 11  1  0  0  0  0
  7  6  1  0  0  0  0
  7 12  1  0  0  0  0
  8 13  1  0  0  0  0
  8  7  2  0  0  0  0
  9  4  2  0  0  0  0
  9  8  1  0  0  0  0
 10  5  1  0  0  0  0
 14 15  1  0  0  0  0
 14  9  1  0  0  0  0
 16 15  1  0  0  0  0
 17 18  1  0  0  0  0
 17  1  1  0  0  0  0
 19 17  1  0  0  0  0
 20 25  1  0  0  0  0
 20 26  1  0  0  0  0
 21 20  2  0  0  0  0
 22 23  2  0  0  0  0
 22 21  1  0  0  0  0
 23 24  1  0  0  0  0
 24 17  1  0  0  0  0
 24 25  2  0  0  0  0
 27 21  1  0  0  0  0
 28 22  1  0  0  0  0
M  END
>  <minimizedAffinity>
-4.66568422

>  <minimizedRMSD>
0.564902544

$$$$
