
 OpenBabel03252507533D

 32 34  0  0  1  0  0  0  0  0999 V2000
   43.7840   35.1910   41.5640 C   0  0  2  0  0  0  0  0  0  0  0  0
   42.2820   35.1140   41.4710 C   0  0  0  0  0  0  0  0  0  0  0  0
   42.1600   35.2020   39.9360 C   0  0  0  0  0  0  0  0  0  0  0  0
   43.3550   34.4530   39.4070 C   0  0  1  0  0  0  0  0  0  0  0  0
   44.1360   34.0470   40.6090 C   0  0  0  0  0  0  0  0  0  0  0  0
   44.1120   36.1690   41.2050 H   0  0  0  0  0  0  0  0  0  0  0  0
   41.8020   35.9910   41.9190 H   0  0  0  0  0  0  0  0  0  0  0  0
   41.9450   34.1440   41.8360 H   0  0  0  0  0  0  0  0  0  0  0  0
   41.2330   34.7010   39.5810 H   0  0  0  0  0  0  0  0  0  0  0  0
   42.2660   36.2410   39.6100 H   0  0  0  0  0  0  0  0  0  0  0  0
   44.0120   35.0610   38.7700 H   0  0  0  0  0  0  0  0  0  0  0  0
   43.7020   33.2290   41.2200 H   0  0  0  0  0  0  0  0  0  0  0  0
   45.2280   34.0390   40.5030 H   0  0  0  0  0  0  0  0  0  0  0  0
   44.7190   35.4630   45.2130 C   0  0  0  0  0  0  0  0  0  0  0  0
   44.1780   35.8190   43.9710 C   0  0  0  0  0  0  0  0  0  0  0  0
   44.3080   34.9040   42.9220 C   0  0  0  0  0  0  0  0  0  0  0  0
   44.9560   33.6960   43.1410 N   0  0  0  0  0  0  0  0  0  0  0  0
   45.4580   33.4080   44.3660 C   0  0  0  0  0  0  0  0  0  0  0  0
   45.3410   34.2820   45.3900 N   0  0  0  0  0  0  0  0  0  0  0  0
   44.5580   36.2470   45.9440 H   0  0  0  0  0  0  0  0  0  0  0  0
   43.6690   36.7380   43.7500 H   0  0  0  0  0  0  0  0  0  0  0  0
   45.9580   32.4750   44.5310 H   0  0  0  0  0  0  0  0  0  0  0  0
   43.0040   33.1860   38.6860 C   0  0  2  0  0  0  0  0  0  0  0  0
   43.5520   31.9370   39.1920 C   0  0  0  0  0  0  0  0  0  0  0  0
   43.8610   32.4760   37.7930 C   0  0  2  0  0  0  0  0  0  0  0  0
   41.8850   33.1680   38.5130 H   0  0  0  0  0  0  0  0  0  0  0  0
   42.8710   31.0290   39.2280 H   0  0  0  0  0  0  0  0  0  0  0  0
   44.4940   31.6680   39.6480 H   0  0  0  0  0  0  0  0  0  0  0  0
   43.3330   31.8980   36.9710 H   0  0  0  0  0  0  0  0  0  0  0  0
   45.2490   32.8080   37.3680 C   0  0  0  0  0  2  0  0  0  0  0  0
   45.4860   32.4320   35.8920 C   0  0  0  0  0  2  0  0  0  0  0  0
   45.9860   33.2350   35.3410 H   0  0  0  0  0  0  0  0  0  0  0  0
  1  6  1  6  0  0  0
  1 16  1  0  0  0  0
  2  1  1  0  0  0  0
  2  8  1  0  0  0  0
  2  7  1  0  0  0  0
  3  2  1  0  0  0  0
  4 11  1  6  0  0  0
  4  3  1  0  0  0  0
  4  5  1  0  0  0  0
  5 12  1  0  0  0  0
  5  1  1  0  0  0  0
  9  3  1  0  0  0  0
 10  3  1  0  0  0  0
 13  5  1  0  0  0  0
 14 19  1  0  0  0  0
 14 20  1  0  0  0  0
 15 14  2  0  0  0  0
 16 17  2  0  0  0  0
 16 15  1  0  0  0  0
 17 18  1  0  0  0  0
 18 22  1  0  0  0  0
 18 19  2  0  0  0  0
 21 15  1  0  0  0  0
 23 26  1  6  0  0  0
 23 24  1  0  0  0  0
 23  4  1  0  0  0  0
 24 27  1  0  0  0  0
 24 28  1  0  0  0  0
 25 29  1  6  0  0  0
 25 23  1  0  0  0  0
 25 24  1  0  0  0  0
 30 25  1  0  0  0  0
 31 30  1  0  0  0  0
 32 31  1  0  0  0  0
M  END
>  <minimizedAffinity>
-3.88400364

>  <minimizedRMSD>
5.24850082

$$$$
