
 OpenBabel03252507533D

 32 34  0  0  1  0  0  0  0  0999 V2000
   44.2110   34.3340   40.8800 C   0  0  2  0  0  0  0  0  0  0  0  0
   43.3920   35.5930   40.9930 C   0  0  0  0  0  0  0  0  0  0  0  0
   42.3520   35.2680   39.9020 C   0  0  0  0  0  0  0  0  0  0  0  0
   42.1380   33.7800   39.9980 C   0  0  1  0  0  0  0  0  0  0  0  0
   43.0860   33.3080   41.0460 C   0  0  0  0  0  0  0  0  0  0  0  0
   44.6810   34.3040   39.8950 H   0  0  0  0  0  0  0  0  0  0  0  0
   43.9630   36.4780   40.6920 H   0  0  0  0  0  0  0  0  0  0  0  0
   42.9260   35.6370   41.9780 H   0  0  0  0  0  0  0  0  0  0  0  0
   41.3890   35.7850   40.1030 H   0  0  0  0  0  0  0  0  0  0  0  0
   42.7730   35.4660   38.9110 H   0  0  0  0  0  0  0  0  0  0  0  0
   42.3670   33.2390   39.0700 H   0  0  0  0  0  0  0  0  0  0  0  0
   42.8270   33.5670   42.0930 H   0  0  0  0  0  0  0  0  0  0  0  0
   43.5290   32.3150   40.8940 H   0  0  0  0  0  0  0  0  0  0  0  0
   47.4080   34.3860   42.8900 C   0  0  0  0  0  0  0  0  0  0  0  0
   46.5370   34.5890   41.8120 C   0  0  0  0  0  0  0  0  0  0  0  0
   45.2090   34.1790   41.9670 C   0  0  0  0  0  0  0  0  0  0  0  0
   44.8060   33.5950   43.1600 N   0  0  0  0  0  0  0  0  0  0  0  0
   45.6960   33.4250   44.1670 C   0  0  0  0  0  0  0  0  0  0  0  0
   46.9830   33.8170   44.0330 N   0  0  0  0  0  0  0  0  0  0  0  0
   48.4050   34.7420   42.6540 H   0  0  0  0  0  0  0  0  0  0  0  0
   46.7980   35.0350   40.8720 H   0  0  0  0  0  0  0  0  0  0  0  0
   45.3810   32.9730   45.0860 H   0  0  0  0  0  0  0  0  0  0  0  0
   40.7670   33.3960   40.4680 C   0  0  2  0  0  0  0  0  0  0  0  0
   40.6620   32.4470   41.5660 C   0  0  0  0  0  0  0  0  0  0  0  0
   40.1030   32.1700   40.1690 C   0  0  2  0  0  0  0  0  0  0  0  0
   40.1560   34.3390   40.6060 H   0  0  0  0  0  0  0  0  0  0  0  0
   39.8870   32.6460   42.3730 H   0  0  0  0  0  0  0  0  0  0  0  0
   41.2370   31.5810   41.8600 H   0  0  0  0  0  0  0  0  0  0  0  0
   38.9690   32.2300   40.1270 H   0  0  0  0  0  0  0  0  0  0  0  0
   40.5810   31.0250   39.3450 C   0  0  0  0  0  2  0  0  0  0  0  0
   40.3780   31.2960   37.8410 C   0  0  0  0  0  2  0  0  0  0  0  0
   41.2690   31.0450   37.2570 H   0  0  0  0  0  0  0  0  0  0  0  0
  1  6  1  6  0  0  0
  1  2  1  0  0  0  0
  1  5  1  0  0  0  0
  1 16  1  0  0  0  0
  2  8  1  0  0  0  0
  3  4  1  0  0  0  0
  3  9  1  0  0  0  0
  3  2  1  0  0  0  0
  4 11  1  6  0  0  0
  4 23  1  0  0  0  0
  4  5  1  0  0  0  0
  5 12  1  0  0  0  0
  7  2  1  0  0  0  0
 10  3  1  0  0  0  0
 13  5  1  0  0  0  0
 14 19  1  0  0  0  0
 15 16  1  0  0  0  0
 15 14  2  0  0  0  0
 16 17  2  0  0  0  0
 17 18  1  0  0  0  0
 18 22  1  0  0  0  0
 19 18  2  0  0  0  0
 20 14  1  0  0  0  0
 21 15  1  0  0  0  0
 23 26  1  1  0  0  0
 23 24  1  0  0  0  0
 24 28  1  0  0  0  0
 24 27  1  0  0  0  0
 25 29  1  6  0  0  0
 25 23  1  0  0  0  0
 25 24  1  0  0  0  0
 30 25  1  0  0  0  0
 31 30  1  0  0  0  0
 32 31  1  0  0  0  0
M  END
>  <minimizedAffinity>
-3.74519205

>  <minimizedRMSD>
6.9310112

$$$$
