
 OpenBabel03242519183D

 36 38  0  0  1  0  0  0  0  0999 V2000
   36.1590   30.1700   41.5040 C   0  0  0  0  0  0  0  0  0  0  0  0
   35.5660   30.5500   42.3810 H   0  0  0  0  0  0  0  0  0  0  0  0
   35.3970   29.7500   40.8090 H   0  0  0  0  0  0  0  0  0  0  0  0
   37.0330   29.1280   41.9850 C   0  0  0  0  0  0  0  0  0  0  0  0
   38.2880   29.3980   42.4860 C   0  0  0  0  0  0  0  0  0  0  0  0
   39.1520   28.4050   42.9600 C   0  0  0  0  0  0  0  0  0  0  0  0
   38.6690   27.1320   42.8950 N   0  0  0  0  0  0  0  0  0  0  0  0
   37.4470   26.8790   42.4080 C   0  0  0  0  0  0  0  0  0  0  0  0
   36.6720   27.8510   41.9740 N   0  0  0  0  0  0  0  0  0  0  0  0
   38.6730   30.4130   42.5370 H   0  0  0  0  0  0  0  0  0  0  0  0
   40.1270   28.6510   43.3440 H   0  0  0  0  0  0  0  0  0  0  0  0
   36.8990   25.4890   42.3210 C   0  0  2  0  0  0  0  0  0  0  0  0
   37.8490   24.3460   42.1550 C   0  0  0  0  0  0  0  0  0  0  0  0
   36.9260   24.8020   41.0330 C   0  0  2  0  0  0  0  0  0  0  0  0
   36.0020   25.3610   42.9840 H   0  0  0  0  0  0  0  0  0  0  0  0
   38.9240   24.5990   42.1290 H   0  0  0  0  0  0  0  0  0  0  0  0
   37.6370   23.4340   42.7090 H   0  0  0  0  0  0  0  0  0  0  0  0
   36.1030   24.0200   40.8820 H   0  0  0  0  0  0  0  0  0  0  0  0
   37.4060   25.4390   39.8080 C   0  0  0  0  0  2  0  0  0  0  0  0
   36.4640   26.0780   38.8730 C   0  0  0  0  0  2  0  0  0  0  0  0
   36.3000   25.4190   37.9960 H   0  0  0  0  0  0  0  0  0  0  0  0
   36.9190   31.2010   40.7750 C   0  0  0  0  0  0  0  0  0  0  0  0
   36.5160   32.2010   40.9540 H   0  0  0  0  0  0  0  0  0  0  0  0
   37.9800   31.2330   41.1180 H   0  0  0  0  0  0  0  0  0  0  0  0
   38.8350   32.9170   39.2870 Cl  0  0  0  0  0  0  0  0  0  0  0  0
   37.8560   31.6970   38.5090 C   0  0  0  0  0  0  0  0  0  0  0  0
   37.0050   30.9640   39.3000 C   0  0  0  0  0  0  0  0  0  0  0  0
   36.2310   30.0010   38.7000 C   0  0  0  0  0  0  0  0  0  0  0  0
   36.3060   29.7770   37.3400 C   0  0  0  0  0  0  0  0  0  0  0  0
   37.1700   30.5220   36.5430 C   0  0  0  0  0  0  0  0  0  0  0  0
   37.9360   31.4780   37.1510 C   0  0  0  0  0  0  0  0  0  0  0  0
   35.5530   29.4040   39.2710 H   0  0  0  0  0  0  0  0  0  0  0  0
   35.6960   29.0200   36.8670 H   0  0  0  0  0  0  0  0  0  0  0  0
   37.2430   30.3620   35.4780 H   0  0  0  0  0  0  0  0  0  0  0  0
   38.8430   32.2880   36.4440 O   0  0  0  0  0  0  0  0  0  0  0  0
   39.1580   33.1580   36.7930 H   0  0  0  0  0  0  0  0  0  0  0  0
  1  4  1  0  0  0  0
  1  2  1  0  0  0  0
  3  1  1  0  0  0  0
  4  5  1  0  0  0  0
  5 10  1  0  0  0  0
  5  6  2  0  0  0  0
  6 11  1  0  0  0  0
  7  6  1  0  0  0  0
  8  7  2  0  0  0  0
  9  4  2  0  0  0  0
  9  8  1  0  0  0  0
 12  8  1  0  0  0  0
 12 15  1  1  0  0  0
 13 12  1  0  0  0  0
 13 17  1  0  0  0  0
 14 18  1  6  0  0  0
 14 13  1  0  0  0  0
 14 12  1  0  0  0  0
 16 13  1  0  0  0  0
 19 14  1  0  0  0  0
 20 19  1  0  0  0  0
 21 20  1  0  0  0  0
 22 23  1  0  0  0  0
 22 24  1  0  0  0  0
 22  1  1  0  0  0  0
 26 25  1  0  0  0  0
 26 27  1  0  0  0  0
 27 22  1  0  0  0  0
 28 32  1  0  0  0  0
 28 27  2  0  0  0  0
 29 28  1  0  0  0  0
 30 31  1  0  0  0  0
 30 29  2  0  0  0  0
 31 26  2  0  0  0  0
 33 29  1  0  0  0  0
 34 30  1  0  0  0  0
 35 36  1  0  0  0  0
 35 31  1  0  0  0  0
M  END
>  <minimizedAffinity>
-5.72845554

$$$$

 OpenBabel03242519183D

 36 38  0  0  1  0  0  0  0  0999 V2000
   36.8070   27.1850   38.4680 C   0  0  0  0  0  0  0  0  0  0  0  0
   36.6260   26.4650   37.6230 H   0  0  0  0  0  0  0  0  0  0  0  0
   37.8070   27.6250   38.2550 H   0  0  0  0  0  0  0  0  0  0  0  0
   36.8400   26.4230   39.6930 C   0  0  0  0  0  0  0  0  0  0  0  0
   36.6260   25.0620   39.7130 C   0  0  0  0  0  0  0  0  0  0  0  0
   36.6560   24.3010   40.8880 C   0  0  0  0  0  0  0  0  0  0  0  0
   36.9140   25.0010   42.0290 N   0  0  0  0  0  0  0  0  0  0  0  0
   37.1220   26.3240   41.9990 C   0  0  0  0  0  0  0  0  0  0  0  0
   37.0830   26.9930   40.8650 N   0  0  0  0  0  0  0  0  0  0  0  0
   36.4210   24.5050   38.8040 H   0  0  0  0  0  0  0  0  0  0  0  0
   36.4840   23.2390   40.8680 H   0  0  0  0  0  0  0  0  0  0  0  0
   37.3990   27.1130   43.2400 C   0  0  2  0  0  0  0  0  0  0  0  0
   38.0300   28.4640   43.1120 C   0  0  0  0  0  0  0  0  0  0  0  0
   38.7830   27.2680   43.6790 C   0  0  2  0  0  0  0  0  0  0  0  0
   36.6010   26.9540   44.0130 H   0  0  0  0  0  0  0  0  0  0  0  0
   38.2350   28.8160   42.0850 H   0  0  0  0  0  0  0  0  0  0  0  0
   37.6660   29.2500   43.7690 H   0  0  0  0  0  0  0  0  0  0  0  0
   38.9220   27.4110   44.8070 H   0  0  0  0  0  0  0  0  0  0  0  0
   39.9050   26.6290   42.9940 C   0  0  0  0  0  2  0  0  0  0  0  0
   40.3500   25.2780   43.3780 C   0  0  0  0  0  2  0  0  0  0  0  0
   41.2740   25.3450   43.9880 H   0  0  0  0  0  0  0  0  0  0  0  0
   35.8360   28.2890   38.5610 C   0  0  0  0  0  0  0  0  0  0  0  0
   35.0350   28.1860   37.8240 H   0  0  0  0  0  0  0  0  0  0  0  0
   35.3340   28.2980   39.5580 H   0  0  0  0  0  0  0  0  0  0  0  0
   35.6130   30.0520   40.9440 Cl  0  0  0  0  0  0  0  0  0  0  0  0
   36.4050   30.5500   39.4690 C   0  0  0  0  0  0  0  0  0  0  0  0
   36.4470   29.6500   38.4320 C   0  0  0  0  0  0  0  0  0  0  0  0
   37.0680   30.0300   37.2670 C   0  0  0  0  0  0  0  0  0  0  0  0
   37.6330   31.2820   37.1430 C   0  0  0  0  0  0  0  0  0  0  0  0
   37.5890   32.1920   38.1960 C   0  0  0  0  0  0  0  0  0  0  0  0
   36.9680   31.8020   39.3500 C   0  0  0  0  0  0  0  0  0  0  0  0
   37.1270   29.3660   36.4320 H   0  0  0  0  0  0  0  0  0  0  0  0
   38.1220   31.5820   36.2260 H   0  0  0  0  0  0  0  0  0  0  0  0
   38.0260   33.1760   38.1170 H   0  0  0  0  0  0  0  0  0  0  0  0
   36.8650   32.6380   40.4770 O   0  0  0  0  0  0  0  0  0  0  0  0
   36.1770   32.5020   41.1750 H   0  0  0  0  0  0  0  0  0  0  0  0
  1 22  1  0  0  0  0
  1  4  1  0  0  0  0
  2  1  1  0  0  0  0
  3  1  1  0  0  0  0
  4  5  2  0  0  0  0
  4  9  1  0  0  0  0
  5  6  1  0  0  0  0
  6  7  2  0  0  0  0
  8  7  1  0  0  0  0
  8 12  1  0  0  0  0
  9  8  2  0  0  0  0
 10  5  1  0  0  0  0
 11  6  1  0  0  0  0
 12 14  1  0  0  0  0
 12 15  1  1  0  0  0
 13 12  1  0  0  0  0
 13 14  1  0  0  0  0
 13 17  1  0  0  0  0
 14 18  1  1  0  0  0
 16 13  1  0  0  0  0
 19 20  1  0  0  0  0
 19 14  1  0  0  0  0
 20 21  1  0  0  0  0
 22 24  1  0  0  0  0
 23 22  1  0  0  0  0
 26 25  1  0  0  0  0
 27 22  1  0  0  0  0
 27 26  2  0  0  0  0
 28 27  1  0  0  0  0
 29 28  2  0  0  0  0
 29 30  1  0  0  0  0
 30 31  2  0  0  0  0
 31 26  1  0  0  0  0
 31 35  1  0  0  0  0
 32 28  1  0  0  0  0
 33 29  1  0  0  0  0
 34 30  1  0  0  0  0
 35 36  1  0  0  0  0
M  END
>  <minimizedAffinity>
-5.69216251

$$$$

 OpenBabel03242519183D

 36 38  0  0  1  0  0  0  0  0999 V2000
   36.1400   29.5890   38.9490 C   0  0  0  0  0  0  0  0  0  0  0  0
   35.5340   30.2400   39.6380 H   0  0  0  0  0  0  0  0  0  0  0  0
   35.4740   29.4060   38.0760 H   0  0  0  0  0  0  0  0  0  0  0  0
   36.4140   28.3540   39.6430 C   0  0  0  0  0  0  0  0  0  0  0  0
   36.5150   27.1500   38.9820 C   0  0  0  0  0  0  0  0  0  0  0  0
   36.7820   25.9400   39.6330 C   0  0  0  0  0  0  0  0  0  0  0  0
   36.9370   26.0270   40.9850 N   0  0  0  0  0  0  0  0  0  0  0  0
   36.8370   27.2030   41.6190 C   0  0  0  0  0  0  0  0  0  0  0  0
   36.5850   28.3140   40.9580 N   0  0  0  0  0  0  0  0  0  0  0  0
   36.3910   27.0800   37.9050 H   0  0  0  0  0  0  0  0  0  0  0  0
   36.8550   25.0160   39.0860 H   0  0  0  0  0  0  0  0  0  0  0  0
   36.9970   27.3210   43.1020 C   0  0  2  0  0  0  0  0  0  0  0  0
   37.4530   28.6240   43.6790 C   0  0  0  0  0  0  0  0  0  0  0  0
   38.3450   27.3900   43.6610 C   0  0  2  0  0  0  0  0  0  0  0  0
   36.2150   26.7270   43.6460 H   0  0  0  0  0  0  0  0  0  0  0  0
   37.6260   29.4460   42.9620 H   0  0  0  0  0  0  0  0  0  0  0  0
   36.9840   28.9540   44.6030 H   0  0  0  0  0  0  0  0  0  0  0  0
   38.4500   26.9860   44.7270 H   0  0  0  0  0  0  0  0  0  0  0  0
   39.5470   27.2810   42.8370 C   0  0  0  0  0  2  0  0  0  0  0  0
   40.8690   27.0860   43.4580 C   0  0  0  0  0  2  0  0  0  0  0  0
   41.4320   28.0420   43.4530 H   0  0  0  0  0  0  0  0  0  0  0  0
   37.3840   30.2000   38.4510 C   0  0  0  0  0  0  0  0  0  0  0  0
   38.2080   29.4820   38.4340 H   0  0  0  0  0  0  0  0  0  0  0  0
   37.2640   30.5510   37.3980 H   0  0  0  0  0  0  0  0  0  0  0  0
   39.6650   29.8420   40.3210 Cl  0  0  0  0  0  0  0  0  0  0  0  0
   38.8530   31.3730   40.1020 C   0  0  0  0  0  0  0  0  0  0  0  0
   37.8100   31.4180   39.2090 C   0  0  0  0  0  0  0  0  0  0  0  0
   37.1630   32.6170   39.0280 C   0  0  0  0  0  0  0  0  0  0  0  0
   37.5520   33.7430   39.7240 C   0  0  0  0  0  0  0  0  0  0  0  0
   38.6090   33.6930   40.6270 C   0  0  0  0  0  0  0  0  0  0  0  0
   39.2450   32.4950   40.8000 C   0  0  0  0  0  0  0  0  0  0  0  0
   36.3460   32.7040   38.3450 H   0  0  0  0  0  0  0  0  0  0  0  0
   37.0430   34.6860   39.5810 H   0  0  0  0  0  0  0  0  0  0  0  0
   38.9270   34.5630   41.1810 H   0  0  0  0  0  0  0  0  0  0  0  0
   40.3260   32.3280   41.6850 O   0  0  0  0  0  0  0  0  0  0  0  0
   40.5820   31.4440   42.0460 H   0  0  0  0  0  0  0  0  0  0  0  0
  1  2  1  0  0  0  0
  1  4  1  0  0  0  0
  3  1  1  0  0  0  0
  4  9  1  0  0  0  0
  5  6  1  0  0  0  0
  5  4  2  0  0  0  0
  6  7  2  0  0  0  0
  7  8  1  0  0  0  0
  8 12  1  0  0  0  0
  9  8  2  0  0  0  0
 10  5  1  0  0  0  0
 11  6  1  0  0  0  0
 12 15  1  1  0  0  0
 12 14  1  0  0  0  0
 12 13  1  0  0  0  0
 13 17  1  0  0  0  0
 14 13  1  0  0  0  0
 14 18  1  1  0  0  0
 16 13  1  0  0  0  0
 19 20  1  0  0  0  0
 19 14  1  0  0  0  0
 21 20  1  0  0  0  0
 22  1  1  0  0  0  0
 22 27  1  0  0  0  0
 23 22  1  0  0  0  0
 24 22  1  0  0  0  0
 26 25  1  0  0  0  0
 26 31  1  0  0  0  0
 27 26  2  0  0  0  0
 28 27  1  0  0  0  0
 28 29  2  0  0  0  0
 29 30  1  0  0  0  0
 30 31  2  0  0  0  0
 30 34  1  0  0  0  0
 31 35  1  0  0  0  0
 32 28  1  0  0  0  0
 33 29  1  0  0  0  0
 35 36  1  0  0  0  0
M  END
>  <minimizedAffinity>
-5.46283436

$$$$

 OpenBabel03242519183D

 36 38  0  0  1  0  0  0  0  0999 V2000
   37.6830   28.5220   43.6420 C   0  0  0  0  0  0  0  0  0  0  0  0
   37.6030   28.5760   44.7620 H   0  0  0  0  0  0  0  0  0  0  0  0
   36.6450   28.6940   43.2760 H   0  0  0  0  0  0  0  0  0  0  0  0
   38.1260   27.1910   43.3000 C   0  0  0  0  0  0  0  0  0  0  0  0
   39.3660   26.7170   43.6640 C   0  0  0  0  0  0  0  0  0  0  0  0
   39.8170   25.4300   43.3450 C   0  0  0  0  0  0  0  0  0  0  0  0
   38.9380   24.6630   42.6410 N   0  0  0  0  0  0  0  0  0  0  0  0
   37.7330   25.1330   42.2920 C   0  0  0  0  0  0  0  0  0  0  0  0
   37.3570   26.3520   42.6170 N   0  0  0  0  0  0  0  0  0  0  0  0
   40.0670   27.3290   44.2250 H   0  0  0  0  0  0  0  0  0  0  0  0
   40.7930   25.0920   43.6450 H   0  0  0  0  0  0  0  0  0  0  0  0
   36.7550   24.3100   41.5130 C   0  0  2  0  0  0  0  0  0  0  0  0
   37.2730   23.3360   40.5020 C   0  0  0  0  0  0  0  0  0  0  0  0
   36.5500   24.6140   40.0990 C   0  0  2  0  0  0  0  0  0  0  0  0
   35.8680   24.0270   42.1390 H   0  0  0  0  0  0  0  0  0  0  0  0
   38.3710   23.2630   40.4070 H   0  0  0  0  0  0  0  0  0  0  0  0
   36.7720   22.3730   40.4340 H   0  0  0  0  0  0  0  0  0  0  0  0
   35.5140   24.3480   39.6900 H   0  0  0  0  0  0  0  0  0  0  0  0
   37.2120   25.7310   39.4280 C   0  0  0  0  0  2  0  0  0  0  0  0
   36.4910   26.9910   39.1770 C   0  0  0  0  0  2  0  0  0  0  0  0
   36.1880   27.0460   38.1110 H   0  0  0  0  0  0  0  0  0  0  0  0
   38.5540   29.5400   43.0300 C   0  0  0  0  0  0  0  0  0  0  0  0
   38.8360   30.3140   43.7490 H   0  0  0  0  0  0  0  0  0  0  0  0
   39.5110   29.0890   42.6770 H   0  0  0  0  0  0  0  0  0  0  0  0
   40.3970   31.2610   41.4570 Cl  0  0  0  0  0  0  0  0  0  0  0  0
   38.7280   31.0060   41.0110 C   0  0  0  0  0  0  0  0  0  0  0  0
   37.9710   30.1900   41.8150 C   0  0  0  0  0  0  0  0  0  0  0  0
   36.6560   29.9820   41.4730 C   0  0  0  0  0  0  0  0  0  0  0  0
   36.1130   30.5770   40.3540 C   0  0  0  0  0  0  0  0  0  0  0  0
   36.8840   31.4040   39.5410 C   0  0  0  0  0  0  0  0  0  0  0  0
   38.1900   31.6040   39.8910 C   0  0  0  0  0  0  0  0  0  0  0  0
   36.0260   29.3550   42.0660 H   0  0  0  0  0  0  0  0  0  0  0  0
   35.0780   30.4140   40.0850 H   0  0  0  0  0  0  0  0  0  0  0  0
   36.4760   31.8790   38.6620 H   0  0  0  0  0  0  0  0  0  0  0  0
   39.0610   32.4180   39.1440 O   0  0  0  0  0  0  0  0  0  0  0  0
   39.8800   32.8130   39.5330 H   0  0  0  0  0  0  0  0  0  0  0  0
  1  2  1  0  0  0  0
  3  1  1  0  0  0  0
  4  1  1  0  0  0  0
  4  5  1  0  0  0  0
  5 10  1  0  0  0  0
  6 11  1  0  0  0  0
  6  5  2  0  0  0  0
  7  6  1  0  0  0  0
  8  9  1  0  0  0  0
  8  7  2  0  0  0  0
  9  4  2  0  0  0  0
 12 15  1  1  0  0  0
 12  8  1  0  0  0  0
 13 12  1  0  0  0  0
 14 18  1  6  0  0  0
 14 13  1  0  0  0  0
 14 12  1  0  0  0  0
 16 13  1  0  0  0  0
 17 13  1  0  0  0  0
 19 14  1  0  0  0  0
 20 19  1  0  0  0  0
 21 20  1  0  0  0  0
 22  1  1  0  0  0  0
 22 23  1  0  0  0  0
 24 22  1  0  0  0  0
 26 25  1  0  0  0  0
 26 27  1  0  0  0  0
 27 22  1  0  0  0  0
 28 27  2  0  0  0  0
 28 32  1  0  0  0  0
 29 28  1  0  0  0  0
 30 31  1  0  0  0  0
 30 29  2  0  0  0  0
 31 26  2  0  0  0  0
 33 29  1  0  0  0  0
 34 30  1  0  0  0  0
 35 36  1  0  0  0  0
 35 31  1  0  0  0  0
M  END
>  <minimizedAffinity>
-5.4397006

$$$$

 OpenBabel03242519183D

 36 38  0  0  1  0  0  0  0  0999 V2000
   36.6400   27.2880   40.3250 C   0  0  0  0  0  0  0  0  0  0  0  0
   37.4200   26.5900   39.9120 H   0  0  0  0  0  0  0  0  0  0  0  0
   35.6720   26.7700   40.1430 H   0  0  0  0  0  0  0  0  0  0  0  0
   36.7070   28.5150   39.5680 C   0  0  0  0  0  0  0  0  0  0  0  0
   36.6540   28.5280   38.1910 C   0  0  0  0  0  0  0  0  0  0  0  0
   36.7150   29.7050   37.4350 C   0  0  0  0  0  0  0  0  0  0  0  0
   36.8330   30.8560   38.1570 N   0  0  0  0  0  0  0  0  0  0  0  0
   36.8830   30.8320   39.4950 C   0  0  0  0  0  0  0  0  0  0  0  0
   36.8210   29.6970   40.1590 N   0  0  0  0  0  0  0  0  0  0  0  0
   36.5610   27.6110   37.6160 H   0  0  0  0  0  0  0  0  0  0  0  0
   36.6720   29.6800   36.3600 H   0  0  0  0  0  0  0  0  0  0  0  0
   37.0190   32.0820   40.3070 C   0  0  2  0  0  0  0  0  0  0  0  0
   37.6870   33.2730   39.6950 C   0  0  0  0  0  0  0  0  0  0  0  0
   38.3390   32.4580   40.8040 C   0  0  2  0  0  0  0  0  0  0  0  0
   36.1260   32.2380   40.9700 H   0  0  0  0  0  0  0  0  0  0  0  0
   38.0280   33.1630   38.6500 H   0  0  0  0  0  0  0  0  0  0  0  0
   37.2600   34.2500   39.9060 H   0  0  0  0  0  0  0  0  0  0  0  0
   38.3380   33.0700   41.7720 H   0  0  0  0  0  0  0  0  0  0  0  0
   39.5250   31.6280   40.5990 C   0  0  0  0  0  2  0  0  0  0  0  0
   40.4230   31.3090   41.7220 C   0  0  0  0  0  2  0  0  0  0  0  0
   41.3370   31.9360   41.6620 H   0  0  0  0  0  0  0  0  0  0  0  0
   36.7480   27.5540   41.7700 C   0  0  0  0  0  0  0  0  0  0  0  0
   36.6250   28.6170   41.9950 H   0  0  0  0  0  0  0  0  0  0  0  0
   35.9430   27.0270   42.3350 H   0  0  0  0  0  0  0  0  0  0  0  0
   36.9840   24.6140   42.1370 Cl  0  0  0  0  0  0  0  0  0  0  0  0
   38.2440   25.7300   42.6030 C   0  0  0  0  0  0  0  0  0  0  0  0
   38.0230   27.0680   42.3850 C   0  0  0  0  0  0  0  0  0  0  0  0
   39.0080   27.9560   42.7460 C   0  0  0  0  0  0  0  0  0  0  0  0
   40.1860   27.5130   43.3130 C   0  0  0  0  0  0  0  0  0  0  0  0
   40.4060   26.1570   43.5320 C   0  0  0  0  0  0  0  0  0  0  0  0
   39.4190   25.2830   43.1680 C   0  0  0  0  0  0  0  0  0  0  0  0
   38.8850   29.0060   42.5970 H   0  0  0  0  0  0  0  0  0  0  0  0
   40.9610   28.2120   43.5980 H   0  0  0  0  0  0  0  0  0  0  0  0
   41.3200   25.7920   43.9750 H   0  0  0  0  0  0  0  0  0  0  0  0
   39.5330   23.8920   43.3430 O   0  0  0  0  0  0  0  0  0  0  0  0
   38.7440   23.2970   43.3790 H   0  0  0  0  0  0  0  0  0  0  0  0
  1 22  1  0  0  0  0
  2  1  1  0  0  0  0
  3  1  1  0  0  0  0
  4  9  1  0  0  0  0
  4  1  1  0  0  0  0
  5  4  2  0  0  0  0
  6  7  2  0  0  0  0
  6  5  1  0  0  0  0
  7  8  1  0  0  0  0
  8  9  2  0  0  0  0
  8 12  1  0  0  0  0
 10  5  1  0  0  0  0
 11  6  1  0  0  0  0
 12 14  1  0  0  0  0
 12 15  1  1  0  0  0
 13 17  1  0  0  0  0
 13 12  1  0  0  0  0
 13 14  1  0  0  0  0
 14 18  1  1  0  0  0
 16 13  1  0  0  0  0
 19 14  1  0  0  0  0
 19 20  1  0  0  0  0
 21 20  1  0  0  0  0
 22 23  1  0  0  0  0
 22 24  1  0  0  0  0
 22 27  1  0  0  0  0
 25 26  1  0  0  0  0
 26 31  1  0  0  0  0
 27 26  2  0  0  0  0
 27 28  1  0  0  0  0
 28 29  2  0  0  0  0
 29 30  1  0  0  0  0
 29 33  1  0  0  0  0
 30 34  1  0  0  0  0
 31 35  1  0  0  0  0
 31 30  2  0  0  0  0
 32 28  1  0  0  0  0
 35 36  1  0  0  0  0
M  END
>  <minimizedAffinity>
-5.35989332

$$$$

 OpenBabel03242519183D

 36 38  0  0  1  0  0  0  0  0999 V2000
   36.3000   27.9040   39.9360 C   0  0  0  0  0  0  0  0  0  0  0  0
   35.7040   26.9570   39.8200 H   0  0  0  0  0  0  0  0  0  0  0  0
   37.0270   27.8850   39.0930 H   0  0  0  0  0  0  0  0  0  0  0  0
   36.9900   27.8340   41.2010 C   0  0  0  0  0  0  0  0  0  0  0  0
   36.3180   27.8530   42.4030 C   0  0  0  0  0  0  0  0  0  0  0  0
   36.9660   27.7840   43.6420 C   0  0  0  0  0  0  0  0  0  0  0  0
   38.3250   27.6970   43.5850 N   0  0  0  0  0  0  0  0  0  0  0  0
   38.9700   27.6780   42.4110 C   0  0  0  0  0  0  0  0  0  0  0  0
   38.3120   27.7450   41.2720 N   0  0  0  0  0  0  0  0  0  0  0  0
   35.2350   27.9230   42.4480 H   0  0  0  0  0  0  0  0  0  0  0  0
   36.4100   27.8020   44.5630 H   0  0  0  0  0  0  0  0  0  0  0  0
   40.4610   27.5890   42.3250 C   0  0  2  0  0  0  0  0  0  0  0  0
   41.0980   27.3910   40.9860 C   0  0  0  0  0  0  0  0  0  0  0  0
   41.0730   26.2940   42.0430 C   0  0  2  0  0  0  0  0  0  0  0  0
   40.9550   28.2710   43.0690 H   0  0  0  0  0  0  0  0  0  0  0  0
   40.4160   27.3440   40.1190 H   0  0  0  0  0  0  0  0  0  0  0  0
   42.0140   27.9400   40.7810 H   0  0  0  0  0  0  0  0  0  0  0  0
   42.1290   26.1530   42.4630 H   0  0  0  0  0  0  0  0  0  0  0  0
   40.2930   25.0660   41.9050 C   0  0  0  0  0  2  0  0  0  0  0  0
   39.8690   24.3070   43.0940 C   0  0  0  0  0  2  0  0  0  0  0  0
   40.5150   23.4140   43.2200 H   0  0  0  0  0  0  0  0  0  0  0  0
   35.5170   29.1470   39.8300 C   0  0  0  0  0  0  0  0  0  0  0  0
   34.7340   29.0680   39.0720 H   0  0  0  0  0  0  0  0  0  0  0  0
   34.9920   29.3720   40.7890 H   0  0  0  0  0  0  0  0  0  0  0  0
   36.3220   29.5720   37.0010 Cl  0  0  0  0  0  0  0  0  0  0  0  0
   36.7720   30.6640   38.2870 C   0  0  0  0  0  0  0  0  0  0  0  0
   36.3420   30.3660   39.5570 C   0  0  0  0  0  0  0  0  0  0  0  0
   36.6900   31.2180   40.5770 C   0  0  0  0  0  0  0  0  0  0  0  0
   37.4510   32.3420   40.3310 C   0  0  0  0  0  0  0  0  0  0  0  0
   37.8840   32.6420   39.0430 C   0  0  0  0  0  0  0  0  0  0  0  0
   37.5320   31.7860   38.0360 C   0  0  0  0  0  0  0  0  0  0  0  0
   36.3800   31.0300   41.5820 H   0  0  0  0  0  0  0  0  0  0  0  0
   37.7250   33.0140   41.1340 H   0  0  0  0  0  0  0  0  0  0  0  0
   38.4800   33.5170   38.8310 H   0  0  0  0  0  0  0  0  0  0  0  0
   37.9140   31.9900   36.6970 O   0  0  0  0  0  0  0  0  0  0  0  0
   37.9400   31.2540   36.0370 H   0  0  0  0  0  0  0  0  0  0  0  0
  1  4  1  0  0  0  0
  2  1  1  0  0  0  0
  3  1  1  0  0  0  0
  4  9  2  0  0  0  0
  4  5  1  0  0  0  0
  5 10  1  0  0  0  0
  5  6  2  0  0  0  0
  6 11  1  0  0  0  0
  7  6  1  0  0  0  0
  8  7  2  0  0  0  0
  9  8  1  0  0  0  0
 12  8  1  0  0  0  0
 12 15  1  1  0  0  0
 13 14  1  0  0  0  0
 13 12  1  0  0  0  0
 14 12  1  0  0  0  0
 14 18  1  1  0  0  0
 16 13  1  0  0  0  0
 17 13  1  0  0  0  0
 19 14  1  0  0  0  0
 19 20  1  0  0  0  0
 20 21  1  0  0  0  0
 22  1  1  0  0  0  0
 22 24  1  0  0  0  0
 23 22  1  0  0  0  0
 25 26  1  0  0  0  0
 26 27  1  0  0  0  0
 27 22  1  0  0  0  0
 27 28  2  0  0  0  0
 28 32  1  0  0  0  0
 29 28  1  0  0  0  0
 29 33  1  0  0  0  0
 30 29  2  0  0  0  0
 31 26  2  0  0  0  0
 31 30  1  0  0  0  0
 34 30  1  0  0  0  0
 35 31  1  0  0  0  0
 36 35  1  0  0  0  0
M  END
>  <minimizedAffinity>
-5.33835363

$$$$

 OpenBabel03242519183D

 36 38  0  0  1  0  0  0  0  0999 V2000
   37.9040   27.4190   38.0340 C   0  0  0  0  0  0  0  0  0  0  0  0
   38.0940   26.7540   37.1470 H   0  0  0  0  0  0  0  0  0  0  0  0
   38.7720   28.1170   38.0550 H   0  0  0  0  0  0  0  0  0  0  0  0
   37.8960   26.5860   39.2120 C   0  0  0  0  0  0  0  0  0  0  0  0
   36.9610   25.5930   39.4000 C   0  0  0  0  0  0  0  0  0  0  0  0
   36.9350   24.7710   40.5330 C   0  0  0  0  0  0  0  0  0  0  0  0
   37.9080   25.0180   41.4540 N   0  0  0  0  0  0  0  0  0  0  0  0
   38.8140   25.9850   41.2620 C   0  0  0  0  0  0  0  0  0  0  0  0
   38.7950   26.7310   40.1770 N   0  0  0  0  0  0  0  0  0  0  0  0
   36.1850   25.3960   38.6650 H   0  0  0  0  0  0  0  0  0  0  0  0
   36.1880   24.0040   40.6480 H   0  0  0  0  0  0  0  0  0  0  0  0
   39.8870   26.2780   42.2640 C   0  0  2  0  0  0  0  0  0  0  0  0
   39.8070   25.6430   43.6160 C   0  0  0  0  0  0  0  0  0  0  0  0
   39.5700   27.1330   43.4050 C   0  0  2  0  0  0  0  0  0  0  0  0
   40.8890   26.3860   41.7700 H   0  0  0  0  0  0  0  0  0  0  0  0
   38.9550   24.9630   43.7910 H   0  0  0  0  0  0  0  0  0  0  0  0
   40.7360   25.2890   44.0580 H   0  0  0  0  0  0  0  0  0  0  0  0
   40.4540   27.7200   43.8340 H   0  0  0  0  0  0  0  0  0  0  0  0
   38.2650   27.7680   43.5760 C   0  0  0  0  0  2  0  0  0  0  0  0
   38.0320   29.1450   43.1050 C   0  0  0  0  0  2  0  0  0  0  0  0
   38.0430   29.8440   43.9670 H   0  0  0  0  0  0  0  0  0  0  0  0
   36.6750   28.2270   37.9520 C   0  0  0  0  0  0  0  0  0  0  0  0
   36.3090   28.3040   36.9250 H   0  0  0  0  0  0  0  0  0  0  0  0
   35.8480   27.7580   38.5360 H   0  0  0  0  0  0  0  0  0  0  0  0
   35.3810   28.6750   40.5900 Cl  0  0  0  0  0  0  0  0  0  0  0  0
   36.2550   29.9260   39.7400 C   0  0  0  0  0  0  0  0  0  0  0  0
   36.8110   29.6030   38.5270 C   0  0  0  0  0  0  0  0  0  0  0  0
   37.5010   30.5780   37.8490 C   0  0  0  0  0  0  0  0  0  0  0  0
   37.6310   31.8480   38.3740 C   0  0  0  0  0  0  0  0  0  0  0  0
   37.0650   32.1710   39.6040 C   0  0  0  0  0  0  0  0  0  0  0  0
   36.3810   31.1920   40.2700 C   0  0  0  0  0  0  0  0  0  0  0  0
   37.9520   30.3770   36.9020 H   0  0  0  0  0  0  0  0  0  0  0  0
   38.1730   32.6160   37.8400 H   0  0  0  0  0  0  0  0  0  0  0  0
   37.1560   33.1590   40.0300 H   0  0  0  0  0  0  0  0  0  0  0  0
   35.7710   31.4070   41.5180 O   0  0  0  0  0  0  0  0  0  0  0  0
   35.0370   30.8350   41.8530 H   0  0  0  0  0  0  0  0  0  0  0  0
  1  3  1  0  0  0  0
  1  4  1  0  0  0  0
  2  1  1  0  0  0  0
  4  5  2  0  0  0  0
  4  9  1  0  0  0  0
  5  6  1  0  0  0  0
  6 11  1  0  0  0  0
  6  7  2  0  0  0  0
  8  7  1  0  0  0  0
  8 12  1  0  0  0  0
  9  8  2  0  0  0  0
 10  5  1  0  0  0  0
 12 15  1  6  0  0  0
 12 14  1  0  0  0  0
 12 13  1  0  0  0  0
 13 16  1  0  0  0  0
 13 17  1  0  0  0  0
 14 19  1  0  0  0  0
 14 13  1  0  0  0  0
 14 18  1  1  0  0  0
 20 19  1  0  0  0  0
 20 21  1  0  0  0  0
 22  1  1  0  0  0  0
 22 27  1  0  0  0  0
 22 24  1  0  0  0  0
 23 22  1  0  0  0  0
 26 31  1  0  0  0  0
 26 25  1  0  0  0  0
 27 26  2  0  0  0  0
 28 29  2  0  0  0  0
 28 27  1  0  0  0  0
 29 30  1  0  0  0  0
 30 34  1  0  0  0  0
 30 31  2  0  0  0  0
 31 35  1  0  0  0  0
 32 28  1  0  0  0  0
 33 29  1  0  0  0  0
 35 36  1  0  0  0  0
M  END
>  <minimizedAffinity>
-5.33429861

$$$$

 OpenBabel03242519183D

 36 38  0  0  1  0  0  0  0  0999 V2000
   35.5190   28.7770   39.7030 C   0  0  0  0  0  0  0  0  0  0  0  0
   34.6000   28.6240   39.0720 H   0  0  0  0  0  0  0  0  0  0  0  0
   35.1300   29.0930   40.6970 H   0  0  0  0  0  0  0  0  0  0  0  0
   36.2890   29.8390   39.1020 C   0  0  0  0  0  0  0  0  0  0  0  0
   36.6900   29.7960   37.7840 C   0  0  0  0  0  0  0  0  0  0  0  0
   37.4360   30.8140   37.1790 C   0  0  0  0  0  0  0  0  0  0  0  0
   37.7470   31.8680   37.9860 N   0  0  0  0  0  0  0  0  0  0  0  0
   37.3520   31.9010   39.2650 C   0  0  0  0  0  0  0  0  0  0  0  0
   36.6510   30.9160   39.7870 N   0  0  0  0  0  0  0  0  0  0  0  0
   36.4430   28.9560   37.1420 H   0  0  0  0  0  0  0  0  0  0  0  0
   37.7330   30.7490   36.1470 H   0  0  0  0  0  0  0  0  0  0  0  0
   37.6880   33.0440   40.1710 C   0  0  2  0  0  0  0  0  0  0  0  0
   38.8910   33.8790   39.8660 C   0  0  0  0  0  0  0  0  0  0  0  0
   38.8450   32.9250   41.0530 C   0  0  2  0  0  0  0  0  0  0  0  0
   36.7600   33.5440   40.5590 H   0  0  0  0  0  0  0  0  0  0  0  0
   39.4590   33.6100   38.9580 H   0  0  0  0  0  0  0  0  0  0  0  0
   38.8060   34.9530   40.0170 H   0  0  0  0  0  0  0  0  0  0  0  0
   38.7830   33.5330   42.0220 H   0  0  0  0  0  0  0  0  0  0  0  0
   39.6530   31.7100   41.1370 C   0  0  0  0  0  2  0  0  0  0  0  0
   39.4970   30.7800   42.2690 C   0  0  0  0  0  2  0  0  0  0  0  0
   40.3370   30.9130   42.9820 H   0  0  0  0  0  0  0  0  0  0  0  0
   36.3450   27.5730   39.9010 C   0  0  0  0  0  0  0  0  0  0  0  0
   35.7600   26.6580   39.7800 H   0  0  0  0  0  0  0  0  0  0  0  0
   37.1600   27.5180   39.1400 H   0  0  0  0  0  0  0  0  0  0  0  0
   39.2240   26.8430   39.8130 Cl  0  0  0  0  0  0  0  0  0  0  0  0
   38.3850   27.2060   41.3010 C   0  0  0  0  0  0  0  0  0  0  0  0
   37.0540   27.5310   41.2180 C   0  0  0  0  0  0  0  0  0  0  0  0
   36.3830   27.8190   42.3820 C   0  0  0  0  0  0  0  0  0  0  0  0
   37.0300   27.7820   43.6000 C   0  0  0  0  0  0  0  0  0  0  0  0
   38.3800   27.4520   43.6790 C   0  0  0  0  0  0  0  0  0  0  0  0
   39.0380   27.1670   42.5150 C   0  0  0  0  0  0  0  0  0  0  0  0
   35.3460   28.0780   42.3720 H   0  0  0  0  0  0  0  0  0  0  0  0
   36.5030   28.0080   44.5170 H   0  0  0  0  0  0  0  0  0  0  0  0
   38.9040   27.4180   44.6230 H   0  0  0  0  0  0  0  0  0  0  0  0
   40.4010   26.8230   42.4760 O   0  0  0  0  0  0  0  0  0  0  0  0
   40.7990   26.3270   41.7180 H   0  0  0  0  0  0  0  0  0  0  0  0
  1 22  1  0  0  0  0
  1  3  1  0  0  0  0
  2  1  1  0  0  0  0
  4  1  1  0  0  0  0
  4  9  1  0  0  0  0
  5  4  2  0  0  0  0
  6  5  1  0  0  0  0
  6  7  2  0  0  0  0
  7  8  1  0  0  0  0
  8  9  2  0  0  0  0
  8 12  1  0  0  0  0
 10  5  1  0  0  0  0
 11  6  1  0  0  0  0
 12 15  1  1  0  0  0
 12 14  1  0  0  0  0
 13 17  1  0  0  0  0
 13 12  1  0  0  0  0
 13 14  1  0  0  0  0
 14 19  1  0  0  0  0
 14 18  1  1  0  0  0
 16 13  1  0  0  0  0
 19 20  1  0  0  0  0
 20 21  1  0  0  0  0
 22 27  1  0  0  0  0
 23 22  1  0  0  0  0
 24 22  1  0  0  0  0
 25 26  1  0  0  0  0
 26 31  1  0  0  0  0
 27 26  2  0  0  0  0
 27 28  1  0  0  0  0
 28 29  2  0  0  0  0
 29 30  1  0  0  0  0
 29 33  1  0  0  0  0
 30 34  1  0  0  0  0
 31 30  2  0  0  0  0
 32 28  1  0  0  0  0
 35 31  1  0  0  0  0
 36 35  1  0  0  0  0
M  END
>  <minimizedAffinity>
-5.2594676

$$$$

 OpenBabel03242519183D

 36 38  0  0  1  0  0  0  0  0999 V2000
   39.1890   29.1450   41.3490 C   0  0  0  0  0  0  0  0  0  0  0  0
   38.9350   29.2280   40.2560 H   0  0  0  0  0  0  0  0  0  0  0  0
   40.2630   28.8550   41.3670 H   0  0  0  0  0  0  0  0  0  0  0  0
   38.3710   28.0960   41.9090 C   0  0  0  0  0  0  0  0  0  0  0  0
   37.2810   28.3650   42.7060 C   0  0  0  0  0  0  0  0  0  0  0  0
   36.4720   27.3650   43.2580 C   0  0  0  0  0  0  0  0  0  0  0  0
   36.8360   26.0870   42.9550 N   0  0  0  0  0  0  0  0  0  0  0  0
   37.8980   25.8350   42.1780 C   0  0  0  0  0  0  0  0  0  0  0  0
   38.6260   26.8140   41.6820 N   0  0  0  0  0  0  0  0  0  0  0  0
   36.9910   29.3840   42.9480 H   0  0  0  0  0  0  0  0  0  0  0  0
   35.6270   27.6110   43.8780 H   0  0  0  0  0  0  0  0  0  0  0  0
   38.3200   24.4410   41.8370 C   0  0  2  0  0  0  0  0  0  0  0  0
   38.9800   24.1860   40.5180 C   0  0  0  0  0  0  0  0  0  0  0  0
   37.5670   23.7060   40.8240 C   0  0  2  0  0  0  0  0  0  0  0  0
   38.6850   23.8900   42.7450 H   0  0  0  0  0  0  0  0  0  0  0  0
   39.1410   25.0670   39.8710 H   0  0  0  0  0  0  0  0  0  0  0  0
   39.8110   23.4850   40.5010 H   0  0  0  0  0  0  0  0  0  0  0  0
   37.5740   22.5680   40.9430 H   0  0  0  0  0  0  0  0  0  0  0  0
   36.3770   24.2520   40.1740 C   0  0  0  0  0  2  0  0  0  0  0  0
   35.3540   23.3580   39.6050 C   0  0  0  0  0  2  0  0  0  0  0  0
   35.4570   23.3250   38.5000 H   0  0  0  0  0  0  0  0  0  0  0  0
   39.0430   30.3940   42.1170 C   0  0  0  0  0  0  0  0  0  0  0  0
   38.0960   30.4250   42.6610 H   0  0  0  0  0  0  0  0  0  0  0  0
   39.8430   30.4830   42.8900 H   0  0  0  0  0  0  0  0  0  0  0  0
   36.5400   31.4080   40.8760 Cl  0  0  0  0  0  0  0  0  0  0  0  0
   38.0850   32.1960   40.6700 C   0  0  0  0  0  0  0  0  0  0  0  0
   39.1740   31.6350   41.2910 C   0  0  0  0  0  0  0  0  0  0  0  0
   40.3950   32.2460   41.1360 C   0  0  0  0  0  0  0  0  0  0  0  0
   40.5220   33.3910   40.3770 C   0  0  0  0  0  0  0  0  0  0  0  0
   39.4160   33.9560   39.7490 C   0  0  0  0  0  0  0  0  0  0  0  0
   38.2060   33.3390   39.9100 C   0  0  0  0  0  0  0  0  0  0  0  0
   41.2720   31.8500   41.6000 H   0  0  0  0  0  0  0  0  0  0  0  0
   41.4830   33.8720   40.2550 H   0  0  0  0  0  0  0  0  0  0  0  0
   39.4960   34.8510   39.1510 H   0  0  0  0  0  0  0  0  0  0  0  0
   37.0230   33.8230   39.3220 O   0  0  0  0  0  0  0  0  0  0  0  0
   36.2350   33.2450   39.1700 H   0  0  0  0  0  0  0  0  0  0  0  0
  1  3  1  0  0  0  0
  1  4  1  0  0  0  0
  1 22  1  0  0  0  0
  2  1  1  0  0  0  0
  4  5  1  0  0  0  0
  5 10  1  0  0  0  0
  5  6  2  0  0  0  0
  6 11  1  0  0  0  0
  7  6  1  0  0  0  0
  8  7  2  0  0  0  0
  9  4  2  0  0  0  0
  9  8  1  0  0  0  0
 12  8  1  0  0  0  0
 12 15  1  1  0  0  0
 13 14  1  0  0  0  0
 13 12  1  0  0  0  0
 14 18  1  1  0  0  0
 14 12  1  0  0  0  0
 16 13  1  0  0  0  0
 17 13  1  0  0  0  0
 19 14  1  0  0  0  0
 20 19  1  0  0  0  0
 21 20  1  0  0  0  0
 22 23  1  0  0  0  0
 22 24  1  0  0  0  0
 26 25  1  0  0  0  0
 26 27  1  0  0  0  0
 27 22  1  0  0  0  0
 28 27  2  0  0  0  0
 28 32  1  0  0  0  0
 29 28  1  0  0  0  0
 30 31  1  0  0  0  0
 30 29  2  0  0  0  0
 31 26  2  0  0  0  0
 33 29  1  0  0  0  0
 34 30  1  0  0  0  0
 35 31  1  0  0  0  0
 36 35  1  0  0  0  0
M  END
>  <minimizedAffinity>
-5.19886875

$$$$
