
 OpenBabel03242511433D

 28 29  0  0  0  0  0  0  0  0999 V2000
   35.8280   30.3060   40.6180 C   0  0  0  0  0  0  0  0  0  0  0  0
   36.4790   30.7840   41.3630 H   0  0  0  0  0  0  0  0  0  0  0  0
   34.8370   30.8300   40.7010 H   0  0  0  0  0  0  0  0  0  0  0  0
   36.4720   30.5620   39.3160 C   0  0  0  0  0  0  0  0  0  0  0  0
   36.4800   29.7380   38.1830 C   0  0  0  0  0  0  0  0  0  0  0  0
   37.0250   30.0850   36.9740 C   0  0  0  0  0  0  0  0  0  0  0  0
   37.5820   31.3210   36.9120 C   0  0  0  0  0  0  0  0  0  0  0  0
   37.5960   32.1620   38.0130 C   0  0  0  0  0  0  0  0  0  0  0  0
   37.0430   31.7990   39.2530 C   0  0  0  0  0  0  0  0  0  0  0  0
   35.9790   28.8080   38.4670 H   0  0  0  0  0  0  0  0  0  0  0  0
   36.8860   29.2640   36.3090 H   0  0  0  0  0  0  0  0  0  0  0  0
   37.9690   31.4580   35.8890 H   0  0  0  0  0  0  0  0  0  0  0  0
   38.1110   33.0670   37.6400 H   0  0  0  0  0  0  0  0  0  0  0  0
   37.5560   32.9400   40.0700 C   0  0  0  0  0  2  0  0  0  0  0  0
   39.0750   33.1530   39.7830 C   0  0  0  0  0  2  0  0  0  0  0  0
   39.6950   32.9660   40.6390 H   0  0  0  0  0  0  0  0  0  0  0  0
   35.5830   28.8530   40.8590 C   0  0  0  0  0  0  0  0  0  0  0  0
   35.8460   28.2890   39.9440 H   0  0  0  0  0  0  0  0  0  0  0  0
   34.6140   28.6450   41.3430 H   0  0  0  0  0  0  0  0  0  0  0  0
   38.3120   28.7030   43.3630 C   0  0  0  0  0  0  0  0  0  0  0  0
   38.5710   27.3060   43.4220 C   0  0  0  0  0  0  0  0  0  0  0  0
   37.8030   26.5010   42.6150 C   0  0  0  0  0  0  0  0  0  0  0  0
   36.8770   27.0360   41.8330 N   0  0  0  0  0  0  0  0  0  0  0  0
   36.6590   28.3870   41.8040 C   0  0  0  0  0  0  0  0  0  0  0  0
   37.3630   29.1990   42.5520 N   0  0  0  0  0  0  0  0  0  0  0  0
   38.8480   29.4350   43.9520 H   0  0  0  0  0  0  0  0  0  0  0  0
   39.3440   27.0130   44.0930 H   0  0  0  0  0  0  0  0  0  0  0  0
   38.0120   25.4460   42.6690 H   0  0  0  0  0  0  0  0  0  0  0  0
  1  3  1  0  0  0  0
  1 17  1  0  0  0  0
  1  2  1  0  0  0  0
  4  1  1  0  0  0  0
  5 10  1  0  0  0  0
  5  4  2  0  0  0  0
  6  5  1  0  0  0  0
  7  6  2  0  0  0  0
  7  8  1  0  0  0  0
  8  9  2  0  0  0  0
  9  4  1  0  0  0  0
  9 14  1  0  0  0  0
 11  6  1  0  0  0  0
 12  7  1  0  0  0  0
 13  8  1  0  0  0  0
 15 14  1  0  0  0  0
 15 16  1  0  0  0  0
 17 19  1  0  0  0  0
 17 24  1  0  0  0  0
 18 17  1  0  0  0  0
 20 21  1  0  0  0  0
 20 26  1  0  0  0  0
 21 27  1  0  0  0  0
 22 28  1  0  0  0  0
 22 21  2  0  0  0  0
 23 22  1  0  0  0  0
 24 23  2  0  0  0  0
 24 25  1  0  0  0  0
 25 20  2  0  0  0  0
M  END
>  <minimizedAffinity>
-4.82089138

$$$$

 OpenBabel03242511433D

 28 29  0  0  0  0  0  0  0  0999 V2000
   38.8060   28.1120   43.0190 C   0  0  0  0  0  0  0  0  0  0  0  0
   39.5500   28.1020   43.8280 H   0  0  0  0  0  0  0  0  0  0  0  0
   39.3330   28.5530   42.1300 H   0  0  0  0  0  0  0  0  0  0  0  0
   38.4530   26.6970   42.7980 C   0  0  0  0  0  0  0  0  0  0  0  0
   37.2370   26.1770   42.3350 C   0  0  0  0  0  0  0  0  0  0  0  0
   37.0120   24.8510   42.0660 C   0  0  0  0  0  0  0  0  0  0  0  0
   38.0660   24.0220   42.2720 C   0  0  0  0  0  0  0  0  0  0  0  0
   39.2810   24.4990   42.7330 C   0  0  0  0  0  0  0  0  0  0  0  0
   39.5060   25.8590   43.0150 C   0  0  0  0  0  0  0  0  0  0  0  0
   36.5490   27.0220   42.2400 H   0  0  0  0  0  0  0  0  0  0  0  0
   36.0040   24.7560   41.7340 H   0  0  0  0  0  0  0  0  0  0  0  0
   37.7380   23.0020   42.0110 H   0  0  0  0  0  0  0  0  0  0  0  0
   39.9090   23.5920   42.7950 H   0  0  0  0  0  0  0  0  0  0  0  0
   40.8380   25.7330   43.6790 C   0  0  0  0  0  2  0  0  0  0  0  0
   41.8820   25.1690   42.6640 C   0  0  0  0  0  2  0  0  0  0  0  0
   42.2570   24.2010   42.9400 H   0  0  0  0  0  0  0  0  0  0  0  0
   37.6120   28.9640   43.2950 C   0  0  0  0  0  0  0  0  0  0  0  0
   37.8610   29.6830   44.0980 H   0  0  0  0  0  0  0  0  0  0  0  0
   36.6730   28.3910   43.3790 H   0  0  0  0  0  0  0  0  0  0  0  0
   36.3060   30.8480   40.3820 C   0  0  0  0  0  0  0  0  0  0  0  0
   37.4410   31.6150   40.0040 C   0  0  0  0  0  0  0  0  0  0  0  0
   38.5770   31.4520   40.7610 C   0  0  0  0  0  0  0  0  0  0  0  0
   38.5760   30.6110   41.7850 N   0  0  0  0  0  0  0  0  0  0  0  0
   37.4620   29.8880   42.1160 C   0  0  0  0  0  0  0  0  0  0  0  0
   36.3540   30.0060   41.4280 N   0  0  0  0  0  0  0  0  0  0  0  0
   35.3560   30.8920   39.8660 H   0  0  0  0  0  0  0  0  0  0  0  0
   37.3030   32.2500   39.1610 H   0  0  0  0  0  0  0  0  0  0  0  0
   39.4290   32.0380   40.4610 H   0  0  0  0  0  0  0  0  0  0  0  0
  1 17  1  0  0  0  0
  1  2  1  0  0  0  0
  3  1  1  0  0  0  0
  4  9  1  0  0  0  0
  4  1  1  0  0  0  0
  5  4  2  0  0  0  0
  6  7  2  0  0  0  0
  6  5  1  0  0  0  0
  7  8  1  0  0  0  0
  8 13  1  0  0  0  0
  8  9  2  0  0  0  0
  9 14  1  0  0  0  0
 10  5  1  0  0  0  0
 11  6  1  0  0  0  0
 12  7  1  0  0  0  0
 15 16  1  0  0  0  0
 15 14  1  0  0  0  0
 17 19  1  0  0  0  0
 17 18  1  0  0  0  0
 20 25  1  0  0  0  0
 21 20  2  0  0  0  0
 21 22  1  0  0  0  0
 22 23  2  0  0  0  0
 23 24  1  0  0  0  0
 24 17  1  0  0  0  0
 25 24  2  0  0  0  0
 26 20  1  0  0  0  0
 27 21  1  0  0  0  0
 28 22  1  0  0  0  0
M  END
>  <minimizedAffinity>
-4.76346254

$$$$

 OpenBabel03242511433D

 28 29  0  0  0  0  0  0  0  0999 V2000
   36.2750   28.2270   41.7510 C   0  0  0  0  0  0  0  0  0  0  0  0
   35.2080   28.2020   42.0150 H   0  0  0  0  0  0  0  0  0  0  0  0
   36.4700   27.2710   41.1930 H   0  0  0  0  0  0  0  0  0  0  0  0
   36.4340   29.4080   40.8820 C   0  0  0  0  0  0  0  0  0  0  0  0
   36.9080   30.6780   41.2370 C   0  0  0  0  0  0  0  0  0  0  0  0
   37.1150   31.7040   40.3500 C   0  0  0  0  0  0  0  0  0  0  0  0
   36.8330   31.4270   39.0520 C   0  0  0  0  0  0  0  0  0  0  0  0
   36.3590   30.1850   38.6660 C   0  0  0  0  0  0  0  0  0  0  0  0
   36.1410   29.1370   39.5790 C   0  0  0  0  0  0  0  0  0  0  0  0
   37.0670   30.6640   42.3190 H   0  0  0  0  0  0  0  0  0  0  0  0
   37.4720   32.5420   40.9040 H   0  0  0  0  0  0  0  0  0  0  0  0
   37.0510   32.3360   38.4670 H   0  0  0  0  0  0  0  0  0  0  0  0
   36.2310   30.2850   37.5720 H   0  0  0  0  0  0  0  0  0  0  0  0
   35.4300   28.1900   38.6680 C   0  0  0  0  0  2  0  0  0  0  0  0
   34.0390   28.7800   38.2760 C   0  0  0  0  0  2  0  0  0  0  0  0
   33.2160   28.1960   38.6420 H   0  0  0  0  0  0  0  0  0  0  0  0
   37.1960   28.2520   42.9250 C   0  0  0  0  0  0  0  0  0  0  0  0
   36.6050   28.1030   43.8480 H   0  0  0  0  0  0  0  0  0  0  0  0
   37.9220   29.0820   42.8970 H   0  0  0  0  0  0  0  0  0  0  0  0
   38.3770   24.8120   42.2060 C   0  0  0  0  0  0  0  0  0  0  0  0
   39.5730   24.7530   42.9710 C   0  0  0  0  0  0  0  0  0  0  0  0
   39.9100   25.8820   43.6800 C   0  0  0  0  0  0  0  0  0  0  0  0
   39.1320   26.9540   43.6280 N   0  0  0  0  0  0  0  0  0  0  0  0
   37.9860   26.9710   42.8790 C   0  0  0  0  0  0  0  0  0  0  0  0
   37.6200   25.9220   42.1860 N   0  0  0  0  0  0  0  0  0  0  0  0
   38.0100   23.9900   41.6060 H   0  0  0  0  0  0  0  0  0  0  0  0
   40.1010   23.8300   42.9240 H   0  0  0  0  0  0  0  0  0  0  0  0
   40.8170   25.8220   44.2570 H   0  0  0  0  0  0  0  0  0  0  0  0
  1  2  1  0  0  0  0
  1 17  1  0  0  0  0
  3  1  1  0  0  0  0
  4  5  1  0  0  0  0
  4  1  1  0  0  0  0
  5 10  1  0  0  0  0
  6 11  1  0  0  0  0
  6  5  2  0  0  0  0
  7  6  1  0  0  0  0
  8  7  2  0  0  0  0
  8  9  1  0  0  0  0
  9  4  2  0  0  0  0
 12  7  1  0  0  0  0
 13  8  1  0  0  0  0
 14  9  1  0  0  0  0
 15 16  1  0  0  0  0
 15 14  1  0  0  0  0
 17 18  1  0  0  0  0
 19 17  1  0  0  0  0
 20 21  1  0  0  0  0
 21 22  2  0  0  0  0
 22 28  1  0  0  0  0
 23 22  1  0  0  0  0
 24 17  1  0  0  0  0
 24 23  2  0  0  0  0
 25 20  2  0  0  0  0
 25 24  1  0  0  0  0
 26 20  1  0  0  0  0
 27 21  1  0  0  0  0
M  END
>  <minimizedAffinity>
-4.65766478

$$$$

 OpenBabel03242511433D

 28 29  0  0  0  0  0  0  0  0999 V2000
   36.8760   27.5920   43.0090 C   0  0  0  0  0  0  0  0  0  0  0  0
   36.0910   27.1000   42.4170 H   0  0  0  0  0  0  0  0  0  0  0  0
   36.4500   27.7010   44.0430 H   0  0  0  0  0  0  0  0  0  0  0  0
   38.0210   26.6630   42.9860 C   0  0  0  0  0  0  0  0  0  0  0  0
   39.2340   26.7760   43.6790 C   0  0  0  0  0  0  0  0  0  0  0  0
   40.2200   25.8230   43.6790 C   0  0  0  0  0  0  0  0  0  0  0  0
   39.9610   24.7090   42.9490 C   0  0  0  0  0  0  0  0  0  0  0  0
   38.7760   24.5640   42.2470 C   0  0  0  0  0  0  0  0  0  0  0  0
   37.7710   25.5470   42.2440 C   0  0  0  0  0  0  0  0  0  0  0  0
   39.2140   27.7420   44.1930 H   0  0  0  0  0  0  0  0  0  0  0  0
   41.0170   26.1830   44.2870 H   0  0  0  0  0  0  0  0  0  0  0  0
   40.8320   24.0400   43.0490 H   0  0  0  0  0  0  0  0  0  0  0  0
   38.8780   23.5730   41.7680 H   0  0  0  0  0  0  0  0  0  0  0  0
   36.9000   24.9740   41.1730 C   0  0  0  0  0  2  0  0  0  0  0  0
   37.2210   25.6590   39.8080 C   0  0  0  0  0  2  0  0  0  0  0  0
   36.3990   26.2300   39.4200 H   0  0  0  0  0  0  0  0  0  0  0  0
   37.2380   28.9590   42.5310 C   0  0  0  0  0  0  0  0  0  0  0  0
   38.3270   28.9950   42.3390 H   0  0  0  0  0  0  0  0  0  0  0  0
   36.7850   29.7680   43.1290 H   0  0  0  0  0  0  0  0  0  0  0  0
   35.0260   29.0340   39.5570 C   0  0  0  0  0  0  0  0  0  0  0  0
   35.9490   29.3400   38.5200 C   0  0  0  0  0  0  0  0  0  0  0  0
   37.2630   29.5080   38.8920 C   0  0  0  0  0  0  0  0  0  0  0  0
   37.6130   29.3810   40.1640 N   0  0  0  0  0  0  0  0  0  0  0  0
   36.6930   29.0840   41.1330 C   0  0  0  0  0  0  0  0  0  0  0  0
   35.4310   28.9140   40.8330 N   0  0  0  0  0  0  0  0  0  0  0  0
   33.9680   28.8830   39.3900 H   0  0  0  0  0  0  0  0  0  0  0  0
   35.5320   29.4110   37.5440 H   0  0  0  0  0  0  0  0  0  0  0  0
   37.9510   29.7360   38.0950 H   0  0  0  0  0  0  0  0  0  0  0  0
  1  3  1  0  0  0  0
  2  1  1  0  0  0  0
  4  1  1  0  0  0  0
  4  5  1  0  0  0  0
  5  6  2  0  0  0  0
  5 10  1  0  0  0  0
  6 11  1  0  0  0  0
  7 12  1  0  0  0  0
  7  6  1  0  0  0  0
  8  7  2  0  0  0  0
  9  8  1  0  0  0  0
  9  4  2  0  0  0  0
 13  8  1  0  0  0  0
 14  9  1  0  0  0  0
 15 14  1  0  0  0  0
 16 15  1  0  0  0  0
 17  1  1  0  0  0  0
 17 19  1  0  0  0  0
 18 17  1  0  0  0  0
 20 25  1  0  0  0  0
 21 22  1  0  0  0  0
 21 20  2  0  0  0  0
 22 23  2  0  0  0  0
 23 24  1  0  0  0  0
 24 17  1  0  0  0  0
 25 24  2  0  0  0  0
 26 20  1  0  0  0  0
 27 21  1  0  0  0  0
 28 22  1  0  0  0  0
M  END
>  <minimizedAffinity>
-4.63687038

$$$$

 OpenBabel03242511433D

 28 29  0  0  0  0  0  0  0  0999 V2000
   36.9560   27.6620   39.3460 C   0  0  0  0  0  0  0  0  0  0  0  0
   37.9220   28.0800   39.6660 H   0  0  0  0  0  0  0  0  0  0  0  0
   37.0610   27.4680   38.2440 H   0  0  0  0  0  0  0  0  0  0  0  0
   36.8030   26.4090   40.1090 C   0  0  0  0  0  0  0  0  0  0  0  0
   36.3720   25.1620   39.6350 C   0  0  0  0  0  0  0  0  0  0  0  0
   36.3410   24.0150   40.3870 C   0  0  0  0  0  0  0  0  0  0  0  0
   36.7680   24.1400   41.6690 C   0  0  0  0  0  0  0  0  0  0  0  0
   37.1970   25.3570   42.1720 C   0  0  0  0  0  0  0  0  0  0  0  0
   37.2200   26.5320   41.4010 C   0  0  0  0  0  0  0  0  0  0  0  0
   36.0850   25.3050   38.5900 H   0  0  0  0  0  0  0  0  0  0  0  0
   35.9690   23.2330   39.7660 H   0  0  0  0  0  0  0  0  0  0  0  0
   36.6920   23.1450   42.1390 H   0  0  0  0  0  0  0  0  0  0  0  0
   37.4670   25.1230   43.2180 H   0  0  0  0  0  0  0  0  0  0  0  0
   37.5160   27.5100   42.4910 C   0  0  0  0  0  2  0  0  0  0  0  0
   36.4180   27.4160   43.5960 C   0  0  0  0  0  2  0  0  0  0  0  0
   35.8340   28.3130   43.6870 H   0  0  0  0  0  0  0  0  0  0  0  0
   35.7990   28.5870   39.5260 C   0  0  0  0  0  0  0  0  0  0  0  0
   35.4350   28.5080   40.5670 H   0  0  0  0  0  0  0  0  0  0  0  0
   35.0610   28.5310   38.7070 H   0  0  0  0  0  0  0  0  0  0  0  0
   36.9610   31.9680   40.5050 C   0  0  0  0  0  0  0  0  0  0  0  0
   37.3920   32.4960   39.2580 C   0  0  0  0  0  0  0  0  0  0  0  0
   37.2680   31.6740   38.1630 C   0  0  0  0  0  0  0  0  0  0  0  0
   36.7660   30.4560   38.3020 N   0  0  0  0  0  0  0  0  0  0  0  0
   36.3600   29.9840   39.5210 C   0  0  0  0  0  0  0  0  0  0  0  0
   36.4560   30.7260   40.5960 N   0  0  0  0  0  0  0  0  0  0  0  0
   37.0110   32.5170   41.4360 H   0  0  0  0  0  0  0  0  0  0  0  0
   37.7740   33.4890   39.2900 H   0  0  0  0  0  0  0  0  0  0  0  0
   37.5960   32.0890   37.2250 H   0  0  0  0  0  0  0  0  0  0  0  0
  1 17  1  0  0  0  0
  1  2  1  0  0  0  0
  1  4  1  0  0  0  0
  3  1  1  0  0  0  0
  4  9  1  0  0  0  0
  5  4  2  0  0  0  0
  5  6  1  0  0  0  0
  6  7  2  0  0  0  0
  7 12  1  0  0  0  0
  7  8  1  0  0  0  0
  8 13  1  0  0  0  0
  9  8  2  0  0  0  0
  9 14  1  0  0  0  0
 10  5  1  0  0  0  0
 11  6  1  0  0  0  0
 14 15  1  0  0  0  0
 15 16  1  0  0  0  0
 17 18  1  0  0  0  0
 19 17  1  0  0  0  0
 20 25  1  0  0  0  0
 20 26  1  0  0  0  0
 21 27  1  0  0  0  0
 21 20  2  0  0  0  0
 22 23  2  0  0  0  0
 22 21  1  0  0  0  0
 23 24  1  0  0  0  0
 24 17  1  0  0  0  0
 24 25  2  0  0  0  0
 28 22  1  0  0  0  0
M  END
>  <minimizedAffinity>
-4.61946535

$$$$

 OpenBabel03242511433D

 28 29  0  0  0  0  0  0  0  0999 V2000
   39.6450   30.5520   41.1060 C   0  0  0  0  0  0  0  0  0  0  0  0
   39.4020   29.7390   40.4080 H   0  0  0  0  0  0  0  0  0  0  0  0
   40.7510   30.7230   40.9970 H   0  0  0  0  0  0  0  0  0  0  0  0
   38.8650   31.7130   40.6390 C   0  0  0  0  0  0  0  0  0  0  0  0
   39.1190   33.0700   40.8770 C   0  0  0  0  0  0  0  0  0  0  0  0
   38.3970   34.1020   40.3320 C   0  0  0  0  0  0  0  0  0  0  0  0
   37.3800   33.7390   39.5100 C   0  0  0  0  0  0  0  0  0  0  0  0
   37.0980   32.4070   39.2550 C   0  0  0  0  0  0  0  0  0  0  0  0
   37.8350   31.3520   39.8220 C   0  0  0  0  0  0  0  0  0  0  0  0
   39.9750   33.1170   41.5550 H   0  0  0  0  0  0  0  0  0  0  0  0
   38.8150   35.0130   40.6910 H   0  0  0  0  0  0  0  0  0  0  0  0
   36.9020   34.6650   39.1490 H   0  0  0  0  0  0  0  0  0  0  0  0
   36.2330   32.4530   38.5680 H   0  0  0  0  0  0  0  0  0  0  0  0
   36.9570   30.2170   39.4080 C   0  0  0  0  0  2  0  0  0  0  0  0
   35.7900   30.0510   40.4320 C   0  0  0  0  0  2  0  0  0  0  0  0
   35.8270   29.1200   40.9660 H   0  0  0  0  0  0  0  0  0  0  0  0
   39.3860   30.2260   42.5400 C   0  0  0  0  0  0  0  0  0  0  0  0
   38.6490   30.9460   42.9430 H   0  0  0  0  0  0  0  0  0  0  0  0
   40.3050   30.0370   43.1210 H   0  0  0  0  0  0  0  0  0  0  0  0
   37.9610   26.8980   41.7420 C   0  0  0  0  0  0  0  0  0  0  0  0
   36.9960   26.7440   42.7730 C   0  0  0  0  0  0  0  0  0  0  0  0
   36.8900   27.7730   43.6790 C   0  0  0  0  0  0  0  0  0  0  0  0
   37.6660   28.8410   43.5630 N   0  0  0  0  0  0  0  0  0  0  0  0
   38.5830   28.9530   42.5530 C   0  0  0  0  0  0  0  0  0  0  0  0
   38.7240   28.0020   41.6640 N   0  0  0  0  0  0  0  0  0  0  0  0
   38.1390   26.1580   40.9740 H   0  0  0  0  0  0  0  0  0  0  0  0
   36.4400   25.8370   42.7470 H   0  0  0  0  0  0  0  0  0  0  0  0
   36.1530   27.6440   44.4530 H   0  0  0  0  0  0  0  0  0  0  0  0
  1 17  1  0  0  0  0
  2  1  1  0  0  0  0
  3  1  1  0  0  0  0
  4  5  1  0  0  0  0
  4  1  1  0  0  0  0
  5 10  1  0  0  0  0
  6 11  1  0  0  0  0
  6  5  2  0  0  0  0
  7  6  1  0  0  0  0
  8  7  2  0  0  0  0
  8  9  1  0  0  0  0
  9  4  2  0  0  0  0
 12  7  1  0  0  0  0
 13  8  1  0  0  0  0
 14  9  1  0  0  0  0
 14 15  1  0  0  0  0
 15 16  1  0  0  0  0
 17 24  1  0  0  0  0
 17 18  1  0  0  0  0
 17 19  1  0  0  0  0
 20 21  1  0  0  0  0
 21 22  2  0  0  0  0
 22 28  1  0  0  0  0
 23 22  1  0  0  0  0
 24 23  2  0  0  0  0
 25 20  2  0  0  0  0
 25 24  1  0  0  0  0
 26 20  1  0  0  0  0
 27 21  1  0  0  0  0
M  END
>  <minimizedAffinity>
-4.59610987

$$$$

 OpenBabel03242511433D

 28 29  0  0  0  0  0  0  0  0999 V2000
   37.9180   28.3130   43.3980 C   0  0  0  0  0  0  0  0  0  0  0  0
   36.9010   28.2680   42.9830 H   0  0  0  0  0  0  0  0  0  0  0  0
   37.7860   28.4370   44.5070 H   0  0  0  0  0  0  0  0  0  0  0  0
   38.5330   27.0150   43.0640 C   0  0  0  0  0  0  0  0  0  0  0  0
   39.6320   26.4010   43.6780 C   0  0  0  0  0  0  0  0  0  0  0  0
   40.0920   25.1460   43.3710 C   0  0  0  0  0  0  0  0  0  0  0  0
   39.4060   24.4880   42.4030 C   0  0  0  0  0  0  0  0  0  0  0  0
   38.3170   25.0650   41.7710 C   0  0  0  0  0  0  0  0  0  0  0  0
   37.8530   26.3550   42.0840 C   0  0  0  0  0  0  0  0  0  0  0  0
   40.0160   27.1090   44.4180 H   0  0  0  0  0  0  0  0  0  0  0  0
   40.9350   24.9490   43.9930 H   0  0  0  0  0  0  0  0  0  0  0  0
   39.8840   23.5030   42.2720 H   0  0  0  0  0  0  0  0  0  0  0  0
   37.9940   24.2890   41.0520 H   0  0  0  0  0  0  0  0  0  0  0  0
   36.8750   26.5180   40.9650 C   0  0  0  0  0  2  0  0  0  0  0  0
   37.6190   27.0000   39.6810 C   0  0  0  0  0  2  0  0  0  0  0  0
   37.3210   27.9820   39.3650 H   0  0  0  0  0  0  0  0  0  0  0  0
   38.7270   29.4710   42.9150 C   0  0  0  0  0  0  0  0  0  0  0  0
   39.6470   29.0890   42.4330 H   0  0  0  0  0  0  0  0  0  0  0  0
   38.8220   30.2810   43.6570 H   0  0  0  0  0  0  0  0  0  0  0  0
   36.1160   30.6610   40.5670 C   0  0  0  0  0  0  0  0  0  0  0  0
   36.8980   31.0870   39.4590 C   0  0  0  0  0  0  0  0  0  0  0  0
   38.2610   30.9500   39.5760 C   0  0  0  0  0  0  0  0  0  0  0  0
   38.7830   30.4410   40.6830 N   0  0  0  0  0  0  0  0  0  0  0  0
   37.9950   30.0410   41.7280 C   0  0  0  0  0  0  0  0  0  0  0  0
   36.6920   30.1490   41.6680 N   0  0  0  0  0  0  0  0  0  0  0  0
   35.0360   30.7210   40.5960 H   0  0  0  0  0  0  0  0  0  0  0  0
   36.3480   31.4750   38.6350 H   0  0  0  0  0  0  0  0  0  0  0  0
   38.8400   31.2730   38.7280 H   0  0  0  0  0  0  0  0  0  0  0  0
  1  3  1  0  0  0  0
  2  1  1  0  0  0  0
  4  1  1  0  0  0  0
  4  5  1  0  0  0  0
  5 10  1  0  0  0  0
  6  5  2  0  0  0  0
  6 11  1  0  0  0  0
  7  6  1  0  0  0  0
  8  9  1  0  0  0  0
  8  7  2  0  0  0  0
  9  4  2  0  0  0  0
 12  7  1  0  0  0  0
 13  8  1  0  0  0  0
 14  9  1  0  0  0  0
 15 14  1  0  0  0  0
 16 15  1  0  0  0  0
 17  1  1  0  0  0  0
 17 19  1  0  0  0  0
 18 17  1  0  0  0  0
 20 26  1  0  0  0  0
 20 25  1  0  0  0  0
 21 22  1  0  0  0  0
 21 20  2  0  0  0  0
 22 23  2  0  0  0  0
 23 24  1  0  0  0  0
 24 17  1  0  0  0  0
 25 24  2  0  0  0  0
 27 21  1  0  0  0  0
 28 22  1  0  0  0  0
M  END
>  <minimizedAffinity>
-4.55861473

$$$$

 OpenBabel03242511433D

 28 29  0  0  0  0  0  0  0  0999 V2000
   35.7190   28.8440   40.8980 C   0  0  0  0  0  0  0  0  0  0  0  0
   34.8400   29.1860   41.4630 H   0  0  0  0  0  0  0  0  0  0  0  0
   35.3350   28.0630   40.1880 H   0  0  0  0  0  0  0  0  0  0  0  0
   36.2110   30.0370   40.1830 C   0  0  0  0  0  0  0  0  0  0  0  0
   36.6110   31.2630   40.7310 C   0  0  0  0  0  0  0  0  0  0  0  0
   37.1460   32.2980   40.0070 C   0  0  0  0  0  0  0  0  0  0  0  0
   37.2830   32.0770   38.6760 C   0  0  0  0  0  0  0  0  0  0  0  0
   36.8950   30.8790   38.0990 C   0  0  0  0  0  0  0  0  0  0  0  0
   36.3410   29.8220   38.8430 C   0  0  0  0  0  0  0  0  0  0  0  0
   36.4120   31.2080   41.8050 H   0  0  0  0  0  0  0  0  0  0  0  0
   37.3490   33.0950   40.6850 H   0  0  0  0  0  0  0  0  0  0  0  0
   37.7260   32.9850   38.2340 H   0  0  0  0  0  0  0  0  0  0  0  0
   37.1320   31.0180   37.0280 H   0  0  0  0  0  0  0  0  0  0  0  0
   35.9130   28.9490   37.7080 C   0  0  0  0  0  2  0  0  0  0  0  0
   34.3660   29.0490   37.5200 C   0  0  0  0  0  2  0  0  0  0  0  0
   33.8580   28.1230   37.7150 H   0  0  0  0  0  0  0  0  0  0  0  0
   36.7740   28.2030   41.7360 C   0  0  0  0  0  0  0  0  0  0  0  0
   36.4030   28.1140   42.7750 H   0  0  0  0  0  0  0  0  0  0  0  0
   37.7810   28.6240   41.5740 H   0  0  0  0  0  0  0  0  0  0  0  0
   36.6880   25.0340   39.8140 C   0  0  0  0  0  0  0  0  0  0  0  0
   36.9570   24.0750   40.8280 C   0  0  0  0  0  0  0  0  0  0  0  0
   37.1570   24.5600   42.0990 C   0  0  0  0  0  0  0  0  0  0  0  0
   37.0920   25.8630   42.3290 N   0  0  0  0  0  0  0  0  0  0  0  0
   36.8290   26.7550   41.3250 C   0  0  0  0  0  0  0  0  0  0  0  0
   36.6310   26.3460   40.0970 N   0  0  0  0  0  0  0  0  0  0  0  0
   36.5180   24.7760   38.7780 H   0  0  0  0  0  0  0  0  0  0  0  0
   36.9790   23.0620   40.5050 H   0  0  0  0  0  0  0  0  0  0  0  0
   37.3570   23.8220   42.8580 H   0  0  0  0  0  0  0  0  0  0  0  0
  1  2  1  0  0  0  0
  1 17  1  0  0  0  0
  3  1  1  0  0  0  0
  4  5  1  0  0  0  0
  4  1  1  0  0  0  0
  5 10  1  0  0  0  0
  6 11  1  0  0  0  0
  6  5  2  0  0  0  0
  7  6  1  0  0  0  0
  8  7  2  0  0  0  0
  8  9  1  0  0  0  0
  9  4  2  0  0  0  0
 12  7  1  0  0  0  0
 13  8  1  0  0  0  0
 14  9  1  0  0  0  0
 15 14  1  0  0  0  0
 15 16  1  0  0  0  0
 17 18  1  0  0  0  0
 19 17  1  0  0  0  0
 20 25  2  0  0  0  0
 20 21  1  0  0  0  0
 21 22  2  0  0  0  0
 22 23  1  0  0  0  0
 22 28  1  0  0  0  0
 24 17  1  0  0  0  0
 24 23  2  0  0  0  0
 25 24  1  0  0  0  0
 26 20  1  0  0  0  0
 27 21  1  0  0  0  0
M  END
>  <minimizedAffinity>
-4.54543018

$$$$

 OpenBabel03242511433D

 28 29  0  0  0  0  0  0  0  0999 V2000
   39.0320   29.8740   42.9370 C   0  0  0  0  0  0  0  0  0  0  0  0
   38.1620   30.5110   43.1510 H   0  0  0  0  0  0  0  0  0  0  0  0
   39.7210   30.0000   43.8160 H   0  0  0  0  0  0  0  0  0  0  0  0
   38.4990   28.5010   42.8530 C   0  0  0  0  0  0  0  0  0  0  0  0
   37.1570   28.1000   42.8260 C   0  0  0  0  0  0  0  0  0  0  0  0
   36.7380   26.8060   42.6550 C   0  0  0  0  0  0  0  0  0  0  0  0
   37.7210   25.8840   42.5010 C   0  0  0  0  0  0  0  0  0  0  0  0
   39.0580   26.2430   42.5260 C   0  0  0  0  0  0  0  0  0  0  0  0
   39.4850   27.5700   42.7100 C   0  0  0  0  0  0  0  0  0  0  0  0
   36.5560   29.0030   42.9640 H   0  0  0  0  0  0  0  0  0  0  0  0
   35.6720   26.8060   42.6810 H   0  0  0  0  0  0  0  0  0  0  0  0
   37.2350   24.9030   42.3690 H   0  0  0  0  0  0  0  0  0  0  0  0
   39.5870   25.2830   42.3780 H   0  0  0  0  0  0  0  0  0  0  0  0
   40.9460   27.3130   42.8900 C   0  0  0  0  0  2  0  0  0  0  0  0
   41.1540   25.9800   43.6750 C   0  0  0  0  0  2  0  0  0  0  0  0
   41.6110   26.1250   44.6360 H   0  0  0  0  0  0  0  0  0  0  0  0
   39.7940   30.2680   41.7160 C   0  0  0  0  0  0  0  0  0  0  0  0
   39.7040   29.4640   40.9620 H   0  0  0  0  0  0  0  0  0  0  0  0
   40.7980   30.6710   41.9350 H   0  0  0  0  0  0  0  0  0  0  0  0
   38.6000   33.5560   40.4880 C   0  0  0  0  0  0  0  0  0  0  0  0
   37.4100   33.1920   39.8020 C   0  0  0  0  0  0  0  0  0  0  0  0
   37.0880   31.8550   39.7920 C   0  0  0  0  0  0  0  0  0  0  0  0
   37.8720   30.9800   40.4040 N   0  0  0  0  0  0  0  0  0  0  0  0
   39.0090   31.3710   41.0560 C   0  0  0  0  0  0  0  0  0  0  0  0
   39.3620   32.6310   41.0960 N   0  0  0  0  0  0  0  0  0  0  0  0
   38.9600   34.5740   40.5630 H   0  0  0  0  0  0  0  0  0  0  0  0
   36.8750   33.9960   39.3560 H   0  0  0  0  0  0  0  0  0  0  0  0
   36.1820   31.5940   39.2700 H   0  0  0  0  0  0  0  0  0  0  0  0
  1  2  1  0  0  0  0
  1  3  1  0  0  0  0
  4  1  1  0  0  0  0
  5  4  1  0  0  0  0
  5 10  1  0  0  0  0
  6 11  1  0  0  0  0
  6  5  2  0  0  0  0
  7  8  2  0  0  0  0
  7  6  1  0  0  0  0
  8  9  1  0  0  0  0
  9  4  2  0  0  0  0
  9 14  1  0  0  0  0
 12  7  1  0  0  0  0
 13  8  1  0  0  0  0
 14 15  1  0  0  0  0
 15 16  1  0  0  0  0
 17 19  1  0  0  0  0
 17  1  1  0  0  0  0
 18 17  1  0  0  0  0
 20 26  1  0  0  0  0
 20 25  1  0  0  0  0
 21 20  2  0  0  0  0
 22 21  1  0  0  0  0
 22 23  2  0  0  0  0
 23 24  1  0  0  0  0
 24 25  2  0  0  0  0
 24 17  1  0  0  0  0
 27 21  1  0  0  0  0
 28 22  1  0  0  0  0
M  END
>  <minimizedAffinity>
-4.41567802

$$$$
