
 OpenBabel03242519163D

 36 38  0  0  1  0  0  0  0  0999 V2000
   47.9190   35.0680   41.9560 C   0  0  0  0  0  0  0  0  0  0  0  0
   48.1970   36.1110   41.6380 H   0  0  0  0  0  0  0  0  0  0  0  0
   48.5130   34.8860   42.8800 H   0  0  0  0  0  0  0  0  0  0  0  0
   48.3290   34.1670   40.9050 C   0  0  0  0  0  0  0  0  0  0  0  0
   49.1710   33.1020   41.1420 C   0  0  0  0  0  0  0  0  0  0  0  0
   49.5810   32.2140   40.1410 C   0  0  0  0  0  0  0  0  0  0  0  0
   49.0890   32.4720   38.8960 N   0  0  0  0  0  0  0  0  0  0  0  0
   48.2710   33.5100   38.6760 C   0  0  0  0  0  0  0  0  0  0  0  0
   47.9150   34.3160   39.6540 N   0  0  0  0  0  0  0  0  0  0  0  0
   49.5630   32.8970   42.1340 H   0  0  0  0  0  0  0  0  0  0  0  0
   50.2400   31.3920   40.3600 H   0  0  0  0  0  0  0  0  0  0  0  0
   47.7250   33.8160   37.3160 C   0  0  2  0  0  0  0  0  0  0  0  0
   46.3390   33.3650   36.9750 C   0  0  0  0  0  0  0  0  0  0  0  0
   47.5750   32.7260   36.3570 C   0  0  2  0  0  0  0  0  0  0  0  0
   48.0790   34.8160   36.9490 H   0  0  0  0  0  0  0  0  0  0  0  0
   45.7810   32.8420   37.7720 H   0  0  0  0  0  0  0  0  0  0  0  0
   45.7200   34.0460   36.3950 H   0  0  0  0  0  0  0  0  0  0  0  0
   47.6480   33.0330   35.2560 H   0  0  0  0  0  0  0  0  0  0  0  0
   47.9990   31.3570   36.6450 C   0  0  0  0  0  0  0  0  0  0  0  0
   48.9000   30.6400   35.7270 C   0  0  0  0  0  0  0  0  0  0  0  0
   48.3200   29.9110   35.1230 H   0  0  0  0  0  0  0  0  0  0  0  0
   46.4960   34.8780   42.2860 C   0  0  0  0  0  0  0  0  0  0  0  0
   45.9260   35.8030   42.1630 H   0  0  0  0  0  0  0  0  0  0  0  0
   46.0220   34.1340   41.6030 H   0  0  0  0  0  0  0  0  0  0  0  0
   44.5780   36.3960   43.9750 Cl  0  0  0  0  0  0  0  0  0  0  0  0
   45.3920   34.9530   44.5300 C   0  0  0  0  0  0  0  0  0  0  0  0
   46.2580   34.3360   43.6610 C   0  0  0  0  0  0  0  0  0  0  0  0
   46.9040   33.2000   44.0860 C   0  0  0  0  0  0  0  0  0  0  0  0
   46.6880   32.6950   45.3520 C   0  0  0  0  0  0  0  0  0  0  0  0
   45.8090   33.3240   46.2300 C   0  0  0  0  0  0  0  0  0  0  0  0
   45.1720   34.4530   45.7960 C   0  0  0  0  0  0  0  0  0  0  0  0
   47.5870   32.6830   43.4480 H   0  0  0  0  0  0  0  0  0  0  0  0
   47.1960   31.8010   45.6870 H   0  0  0  0  0  0  0  0  0  0  0  0
   45.6280   32.9440   47.2230 H   0  0  0  0  0  0  0  0  0  0  0  0
   44.2640   35.1690   46.5970 O   0  0  0  0  0  0  0  0  0  0  0  0
   44.0450   36.1190   46.4280 H   0  0  0  0  0  0  0  0  0  0  0  0
  1 22  1  0  0  0  0
  1  3  1  0  0  0  0
  2  1  1  0  0  0  0
  4  5  1  0  0  0  0
  4  1  1  0  0  0  0
  5 10  1  0  0  0  0
  6 11  1  0  0  0  0
  6  5  2  0  0  0  0
  7  6  1  0  0  0  0
  8  7  2  0  0  0  0
  8  9  1  0  0  0  0
  9  4  2  0  0  0  0
 12 15  1  6  0  0  0
 12  8  1  0  0  0  0
 13 12  1  0  0  0  0
 13 16  1  0  0  0  0
 14 18  1  6  0  0  0
 14 19  1  0  0  0  0
 14 13  1  0  0  0  0
 14 12  1  0  0  0  0
 17 13  1  0  0  0  0
 20 19  1  0  0  0  0
 21 20  1  0  0  0  0
 22 27  1  0  0  0  0
 23 22  1  0  0  0  0
 24 22  1  0  0  0  0
 25 26  1  0  0  0  0
 26 31  1  0  0  0  0
 27 28  1  0  0  0  0
 27 26  2  0  0  0  0
 28 29  2  0  0  0  0
 29 33  1  0  0  0  0
 29 30  1  0  0  0  0
 30 34  1  0  0  0  0
 31 30  2  0  0  0  0
 31 35  1  0  0  0  0
 32 28  1  0  0  0  0
 36 35  1  0  0  0  0
M  END
>  <minimizedAffinity>
-5.55741978

>  <minimizedRMSD>
3.13070059

$$$$
