
 OpenBabel03242523223D

 37 39  0  0  1  0  0  0  0  0999 V2000
   46.3020   33.5390   44.7880 C   0  0  0  0  0  0  0  0  0  0  0  0
   45.7760   33.9690   45.7740 O   0  0  0  0  0  0  0  0  0  0  0  0
   44.4940   31.8030   42.9870 Cl  0  0  0  0  0  0  0  0  0  0  0  0
   44.5460   33.5460   42.8740 C   0  0  0  0  0  0  0  0  0  0  0  0
   45.4190   34.2040   43.7790 C   0  0  0  0  0  0  0  0  0  0  0  0
   45.3640   35.5670   43.5980 C   0  0  0  0  0  0  0  0  0  0  0  0
   44.6600   36.3050   42.7500 C   0  0  0  0  0  0  0  0  0  0  0  0
   43.8340   35.6050   41.8980 C   0  0  0  0  0  0  0  0  0  0  0  0
   43.7660   34.2410   41.9480 C   0  0  0  0  0  0  0  0  0  0  0  0
   45.9800   36.2060   44.2750 H   0  0  0  0  0  0  0  0  0  0  0  0
   44.6840   37.3910   42.6770 H   0  0  0  0  0  0  0  0  0  0  0  0
   43.2300   36.1820   41.1740 H   0  0  0  0  0  0  0  0  0  0  0  0
   42.9070   33.6670   41.0560 O   0  0  0  0  0  0  0  0  0  0  0  0
   40.6620   33.0550   39.8520 O   0  0  0  0  0  0  0  0  0  0  0  0
   41.2590   33.3030   41.2210 P   0  0  0  0  0  0  0  0  0  0  0  0
   41.0830   31.9450   42.2230 O   0  0  0  0  0  0  0  0  0  0  0  0
   41.0450   31.1080   41.6630 H   0  0  0  0  0  0  0  0  0  0  0  0
   40.4210   34.5500   41.9950 O   0  0  0  0  0  0  0  0  0  0  0  0
   40.2680   34.3820   42.9550 H   0  0  0  0  0  0  0  0  0  0  0  0
   47.3100   32.7410   44.0610 C   0  0  0  0  0  0  0  0  0  0  0  0
   48.1900   33.2010   43.1750 C   0  0  0  0  0  0  0  0  0  0  0  0
   48.9670   32.2370   42.5910 C   0  0  0  0  0  0  0  0  0  0  0  0
   48.7800   30.8900   42.9650 N   0  0  0  0  0  0  0  0  0  0  0  0
   47.8920   30.5070   43.8510 C   0  0  0  0  0  0  0  0  0  0  0  0
   47.0890   31.4480   44.4590 N   0  0  0  0  0  0  0  0  0  0  0  0
   49.7440   32.2740   41.8760 H   0  0  0  0  0  0  0  0  0  0  0  0
   47.8080   29.4340   44.0890 H   0  0  0  0  0  0  0  0  0  0  0  0
   48.4810   34.5490   42.8670 C   0  0  1  0  0  0  0  0  0  0  0  0
   49.3380   35.0430   41.9330 C   0  0  0  0  0  0  0  0  0  0  0  0
   47.9040   35.1570   41.5420 C   0  0  1  0  0  0  0  0  0  0  0  0
   48.3740   35.2380   43.7590 H   0  0  0  0  0  0  0  0  0  0  0  0
   49.9650   34.3470   41.2960 H   0  0  0  0  0  0  0  0  0  0  0  0
   49.8560   36.0350   41.9200 H   0  0  0  0  0  0  0  0  0  0  0  0
   47.3710   36.1360   41.6850 H   0  0  0  0  0  0  0  0  0  0  0  0
   47.4020   34.2710   40.4760 C   0  0  0  0  0  0  0  0  0  0  0  0
   48.2690   34.4820   39.2120 C   0  0  0  0  0  0  0  0  0  0  0  0
   48.0320   35.4500   38.7570 H   0  0  0  0  0  0  0  0  0  0  0  0
  1  2  2  0  0  0  0
  4  3  1  0  0  0  0
  4  5  1  0  0  0  0
  5  1  1  0  0  0  0
  6  5  2  0  0  0  0
  6 10  1  0  0  0  0
  7  6  1  0  0  0  0
  8  9  1  0  0  0  0
  8  7  2  0  0  0  0
  9  4  2  0  0  0  0
 11  7  1  0  0  0  0
 12  8  1  0  0  0  0
 13 15  1  0  0  0  0
 13  9  1  0  0  0  0
 14 15  2  0  0  0  0
 15 18  1  0  0  0  0
 15 16  1  0  0  0  0
 17 16  1  0  0  0  0
 18 19  1  0  0  0  0
 20 25  1  0  0  0  0
 20  1  1  0  0  0  0
 21 20  2  0  0  0  0
 22 23  2  0  0  0  0
 22 21  1  0  0  0  0
 23 24  1  0  0  0  0
 24 27  1  0  0  0  0
 24 25  2  0  0  0  0
 26 22  1  0  0  0  0
 28 21  1  0  0  0  0
 28 31  1  1  0  0  0
 29 28  1  0  0  0  0
 30 34  1  1  0  0  0
 30 29  1  0  0  0  0
 30 28  1  0  0  0  0
 32 29  1  0  0  0  0
 33 29  1  0  0  0  0
 35 30  1  0  0  0  0
 36 35  1  0  0  0  0
 37 36  1  0  0  0  0
M  END
>  <minimizedAffinity>
-5.88267326

>  <minimizedRMSD>
0.284113348

$$$$
