
 OpenBabel03242522283D

 32 34  0  0  0  0  0  0  0  0999 V2000
   38.9990   28.9270   40.6440 F   0  0  0  0  0  0  0  0  0  0  0  0
   37.7600   29.1030   40.0660 C   0  0  0  0  0  0  0  0  0  0  0  0
   37.4160   30.3030   39.5320 C   0  0  0  0  0  0  0  0  0  0  0  0
   36.1990   30.3420   38.8740 C   0  0  0  0  0  0  0  0  0  0  0  0
   35.3760   29.2410   38.7510 C   0  0  0  0  0  0  0  0  0  0  0  0
   35.8310   28.0840   39.3310 C   0  0  0  0  0  0  0  0  0  0  0  0
   37.0040   27.9720   39.9990 C   0  0  0  0  0  0  0  0  0  0  0  0
   36.0410   31.3770   38.4940 H   0  0  0  0  0  0  0  0  0  0  0  0
   34.5130   29.5650   38.1950 H   0  0  0  0  0  0  0  0  0  0  0  0
   35.0230   27.4940   39.0040 H   0  0  0  0  0  0  0  0  0  0  0  0
   37.2990   26.6990   40.5860 C   0  0  0  0  0  0  0  0  0  0  0  0
   37.7850   25.6950   39.7410 C   0  0  0  0  0  0  0  0  0  0  0  0
   37.9610   24.4450   40.2900 C   0  0  0  0  0  0  0  0  0  0  0  0
   37.6630   24.1930   41.6430 C   0  0  0  0  0  0  0  0  0  0  0  0
   37.1820   25.2570   42.4290 C   0  0  0  0  0  0  0  0  0  0  0  0
   36.9950   26.5230   41.9190 C   0  0  0  0  0  0  0  0  0  0  0  0
   38.0440   25.6890   38.7200 H   0  0  0  0  0  0  0  0  0  0  0  0
   38.3310   23.5920   39.7320 H   0  0  0  0  0  0  0  0  0  0  0  0
   37.8210   23.1690   42.0210 H   0  0  0  0  0  0  0  0  0  0  0  0
   37.0090   24.8860   43.4160 H   0  0  0  0  0  0  0  0  0  0  0  0
   36.5690   27.4460   42.9720 C   0  0  0  0  0  2  0  0  0  0  0  0
   37.7310   28.1650   43.6790 C   0  0  0  0  0  2  0  0  0  0  0  0
   37.4190   28.5140   44.6920 H   0  0  0  0  0  0  0  0  0  0  0  0
   39.2060   33.4170   40.6760 C   0  0  0  0  0  0  0  0  0  0  0  0
   38.2750   32.3690   40.6300 C   0  0  0  0  0  0  0  0  0  0  0  0
   38.3420   31.4110   39.6460 C   0  0  0  0  0  0  0  0  0  0  0  0
   39.3520   31.5760   38.7670 N   0  0  0  0  0  0  0  0  0  0  0  0
   40.2390   32.5700   38.8050 C   0  0  0  0  0  0  0  0  0  0  0  0
   40.1620   33.4910   39.7630 N   0  0  0  0  0  0  0  0  0  0  0  0
   39.1600   34.1650   41.4380 H   0  0  0  0  0  0  0  0  0  0  0  0
   37.4840   32.2850   41.3620 H   0  0  0  0  0  0  0  0  0  0  0  0
   41.0250   32.6350   38.0620 H   0  0  0  0  0  0  0  0  0  0  0  0
  2  1  1  0  0  0  0
  3 26  1  0  0  0  0
  3  2  2  0  0  0  0
  4  3  1  0  0  0  0
  5  4  2  0  0  0  0
  5  6  1  0  0  0  0
  6  7  2  0  0  0  0
  7  2  1  0  0  0  0
  7 11  1  0  0  0  0
  8  4  1  0  0  0  0
  9  5  1  0  0  0  0
 10  6  1  0  0  0  0
 11 16  1  0  0  0  0
 12 13  1  0  0  0  0
 12 11  2  0  0  0  0
 13 14  2  0  0  0  0
 14 19  1  0  0  0  0
 14 15  1  0  0  0  0
 15 20  1  0  0  0  0
 16 15  2  0  0  0  0
 16 21  1  0  0  0  0
 17 12  1  0  0  0  0
 18 13  1  0  0  0  0
 21 22  1  0  0  0  0
 22 23  1  0  0  0  0
 24 30  1  0  0  0  0
 25 24  1  0  0  0  0
 25 31  1  0  0  0  0
 26 25  2  0  0  0  0
 27 28  2  0  0  0  0
 27 26  1  0  0  0  0
 28 29  1  0  0  0  0
 29 24  2  0  0  0  0
 32 28  1  0  0  0  0
M  END
>  <minimizedAffinity>
-5.55700493

$$$$

 OpenBabel03242522283D

 32 34  0  0  0  0  0  0  0  0999 V2000
   39.1030   28.4080   39.9980 F   0  0  0  0  0  0  0  0  0  0  0  0
   37.9040   29.0570   40.2060 C   0  0  0  0  0  0  0  0  0  0  0  0
   37.8100   30.3990   40.0230 C   0  0  0  0  0  0  0  0  0  0  0  0
   36.5390   30.9340   40.1430 C   0  0  0  0  0  0  0  0  0  0  0  0
   35.4250   30.1700   40.4250 C   0  0  0  0  0  0  0  0  0  0  0  0
   35.6470   28.8250   40.5880 C   0  0  0  0  0  0  0  0  0  0  0  0
   36.8600   28.2320   40.4940 C   0  0  0  0  0  0  0  0  0  0  0  0
   36.6060   32.0340   39.9770 H   0  0  0  0  0  0  0  0  0  0  0  0
   34.5880   30.8460   40.4540 H   0  0  0  0  0  0  0  0  0  0  0  0
   34.6310   28.5810   40.7210 H   0  0  0  0  0  0  0  0  0  0  0  0
   36.9160   26.8220   40.7450 C   0  0  0  0  0  0  0  0  0  0  0  0
   36.6820   25.9650   39.6630 C   0  0  0  0  0  0  0  0  0  0  0  0
   36.6290   24.6170   39.9330 C   0  0  0  0  0  0  0  0  0  0  0  0
   36.8010   24.1260   41.2420 C   0  0  0  0  0  0  0  0  0  0  0  0
   37.0360   25.0530   42.2760 C   0  0  0  0  0  0  0  0  0  0  0  0
   37.1010   26.4100   42.0470 C   0  0  0  0  0  0  0  0  0  0  0  0
   36.5180   26.1430   38.6380 H   0  0  0  0  0  0  0  0  0  0  0  0
   36.4540   23.8600   39.1750 H   0  0  0  0  0  0  0  0  0  0  0  0
   36.7420   23.0350   41.3930 H   0  0  0  0  0  0  0  0  0  0  0  0
   37.1380   24.5080   43.1890 H   0  0  0  0  0  0  0  0  0  0  0  0
   37.4370   27.1250   43.2780 C   0  0  0  0  0  2  0  0  0  0  0  0
   38.9460   27.3670   43.4660 C   0  0  0  0  0  2  0  0  0  0  0  0
   39.1870   27.5250   44.5440 H   0  0  0  0  0  0  0  0  0  0  0  0
   40.9200   32.5220   40.1850 C   0  0  0  0  0  0  0  0  0  0  0  0
   39.7780   31.8180   40.5930 C   0  0  0  0  0  0  0  0  0  0  0  0
   39.0030   31.1440   39.6780 C   0  0  0  0  0  0  0  0  0  0  0  0
   39.4360   31.2280   38.4040 N   0  0  0  0  0  0  0  0  0  0  0  0
   40.5200   31.8970   38.0110 C   0  0  0  0  0  0  0  0  0  0  0  0
   41.2610   32.5440   38.9060 N   0  0  0  0  0  0  0  0  0  0  0  0
   41.5280   33.0470   40.8920 H   0  0  0  0  0  0  0  0  0  0  0  0
   39.4770   31.7830   41.6310 H   0  0  0  0  0  0  0  0  0  0  0  0
   40.8040   31.9180   36.9650 H   0  0  0  0  0  0  0  0  0  0  0  0
  1  2  1  0  0  0  0
  2  7  1  0  0  0  0
  3  4  1  0  0  0  0
  3  2  2  0  0  0  0
  4  5  2  0  0  0  0
  5  9  1  0  0  0  0
  5  6  1  0  0  0  0
  6 10  1  0  0  0  0
  7  6  2  0  0  0  0
  7 11  1  0  0  0  0
  8  4  1  0  0  0  0
 11 16  1  0  0  0  0
 12 13  1  0  0  0  0
 12 11  2  0  0  0  0
 13 14  2  0  0  0  0
 14 19  1  0  0  0  0
 14 15  1  0  0  0  0
 15 20  1  0  0  0  0
 16 15  2  0  0  0  0
 16 21  1  0  0  0  0
 17 12  1  0  0  0  0
 18 13  1  0  0  0  0
 21 22  1  0  0  0  0
 22 23  1  0  0  0  0
 24 25  1  0  0  0  0
 24 30  1  0  0  0  0
 25 31  1  0  0  0  0
 26  3  1  0  0  0  0
 26 25  2  0  0  0  0
 27 26  1  0  0  0  0
 28 27  2  0  0  0  0
 28 29  1  0  0  0  0
 29 24  2  0  0  0  0
 32 28  1  0  0  0  0
M  END
>  <minimizedAffinity>
-5.55324125

$$$$

 OpenBabel03242522283D

 32 34  0  0  0  0  0  0  0  0999 V2000
   38.0050   27.7840   39.7140 F   0  0  0  0  0  0  0  0  0  0  0  0
   37.7340   27.8310   41.0660 C   0  0  0  0  0  0  0  0  0  0  0  0
   37.6600   29.0230   41.7090 C   0  0  0  0  0  0  0  0  0  0  0  0
   37.2680   28.9680   43.0360 C   0  0  0  0  0  0  0  0  0  0  0  0
   36.9620   27.7860   43.6800 C   0  0  0  0  0  0  0  0  0  0  0  0
   37.0730   26.6460   42.9250 C   0  0  0  0  0  0  0  0  0  0  0  0
   37.4590   26.6210   41.6270 C   0  0  0  0  0  0  0  0  0  0  0  0
   37.2560   30.0060   43.4410 H   0  0  0  0  0  0  0  0  0  0  0  0
   36.6910   28.0480   44.6880 H   0  0  0  0  0  0  0  0  0  0  0  0
   36.7280   26.0010   43.6820 H   0  0  0  0  0  0  0  0  0  0  0  0
   37.5700   25.3350   41.0060 C   0  0  0  0  0  0  0  0  0  0  0  0
   36.4160   24.7980   40.4220 C   0  0  0  0  0  0  0  0  0  0  0  0
   36.5030   23.5180   39.9250 C   0  0  0  0  0  0  0  0  0  0  0  0
   37.7020   22.7830   40.0050 C   0  0  0  0  0  0  0  0  0  0  0  0
   38.8200   23.3950   40.6030 C   0  0  0  0  0  0  0  0  0  0  0  0
   38.7760   24.6760   41.1090 C   0  0  0  0  0  0  0  0  0  0  0  0
   35.4430   25.1810   40.2880 H   0  0  0  0  0  0  0  0  0  0  0  0
   35.6750   23.0000   39.4520 H   0  0  0  0  0  0  0  0  0  0  0  0
   37.7050   21.7600   39.5920 H   0  0  0  0  0  0  0  0  0  0  0  0
   39.6290   22.6980   40.5780 H   0  0  0  0  0  0  0  0  0  0  0  0
   40.0940   25.0850   41.5930 C   0  0  0  0  0  2  0  0  0  0  0  0
   40.3240   24.8020   43.0890 C   0  0  0  0  0  2  0  0  0  0  0  0
   41.1220   25.4680   43.4950 H   0  0  0  0  0  0  0  0  0  0  0  0
   37.3240   32.2790   39.8390 C   0  0  0  0  0  0  0  0  0  0  0  0
   36.9770   31.1240   40.5550 C   0  0  0  0  0  0  0  0  0  0  0  0
   37.9420   30.2370   40.9700 C   0  0  0  0  0  0  0  0  0  0  0  0
   39.2020   30.5780   40.6320 N   0  0  0  0  0  0  0  0  0  0  0  0
   39.5380   31.6730   39.9520 C   0  0  0  0  0  0  0  0  0  0  0  0
   38.5940   32.5230   39.5560 N   0  0  0  0  0  0  0  0  0  0  0  0
   36.5790   32.9730   39.5130 H   0  0  0  0  0  0  0  0  0  0  0  0
   35.9480   30.9000   40.7990 H   0  0  0  0  0  0  0  0  0  0  0  0
   40.5760   31.8790   39.7180 H   0  0  0  0  0  0  0  0  0  0  0  0
  1  2  1  0  0  0  0
  2  7  2  0  0  0  0
  2  3  1  0  0  0  0
  3  4  2  0  0  0  0
  4  8  1  0  0  0  0
  4  5  1  0  0  0  0
  5  9  1  0  0  0  0
  6  5  2  0  0  0  0
  6 10  1  0  0  0  0
  7  6  1  0  0  0  0
 11 16  1  0  0  0  0
 11  7  1  0  0  0  0
 12 11  2  0  0  0  0
 13 14  2  0  0  0  0
 13 12  1  0  0  0  0
 14 15  1  0  0  0  0
 15 16  2  0  0  0  0
 16 21  1  0  0  0  0
 17 12  1  0  0  0  0
 18 13  1  0  0  0  0
 19 14  1  0  0  0  0
 20 15  1  0  0  0  0
 21 22  1  0  0  0  0
 22 23  1  0  0  0  0
 24 25  1  0  0  0  0
 25 31  1  0  0  0  0
 25 26  2  0  0  0  0
 26  3  1  0  0  0  0
 27 26  1  0  0  0  0
 28 27  2  0  0  0  0
 29 24  2  0  0  0  0
 29 28  1  0  0  0  0
 30 24  1  0  0  0  0
 32 28  1  0  0  0  0
M  END
>  <minimizedAffinity>
-5.41883564

$$$$

 OpenBabel03242522283D

 32 34  0  0  0  0  0  0  0  0999 V2000
   39.9840   29.6080   40.2120 F   0  0  0  0  0  0  0  0  0  0  0  0
   39.2150   30.7510   40.1680 C   0  0  0  0  0  0  0  0  0  0  0  0
   39.6280   31.8290   39.4530 C   0  0  0  0  0  0  0  0  0  0  0  0
   38.7300   32.8800   39.3770 C   0  0  0  0  0  0  0  0  0  0  0  0
   37.4880   32.8520   39.9780 C   0  0  0  0  0  0  0  0  0  0  0  0
   37.1830   31.7090   40.6720 C   0  0  0  0  0  0  0  0  0  0  0  0
   38.0120   30.6450   40.7970 C   0  0  0  0  0  0  0  0  0  0  0  0
   39.1950   33.6930   38.7730 H   0  0  0  0  0  0  0  0  0  0  0  0
   37.0160   33.7930   39.7490 H   0  0  0  0  0  0  0  0  0  0  0  0
   36.2060   32.0110   40.9200 H   0  0  0  0  0  0  0  0  0  0  0  0
   37.5510   29.5530   41.6020 C   0  0  0  0  0  0  0  0  0  0  0  0
   38.0210   29.4780   42.9180 C   0  0  0  0  0  0  0  0  0  0  0  0
   37.6620   28.3680   43.6490 C   0  0  0  0  0  0  0  0  0  0  0  0
   36.8590   27.3550   43.0920 C   0  0  0  0  0  0  0  0  0  0  0  0
   36.4230   27.5060   41.7610 C   0  0  0  0  0  0  0  0  0  0  0  0
   36.7560   28.6030   40.9970 C   0  0  0  0  0  0  0  0  0  0  0  0
   38.6320   30.1160   43.4930 H   0  0  0  0  0  0  0  0  0  0  0  0
   37.9670   28.2030   44.6770 H   0  0  0  0  0  0  0  0  0  0  0  0
   36.6100   26.4890   43.7280 H   0  0  0  0  0  0  0  0  0  0  0  0
   35.8330   26.6510   41.5090 H   0  0  0  0  0  0  0  0  0  0  0  0
   36.1020   28.5390   39.6900 C   0  0  0  0  0  2  0  0  0  0  0  0
   34.6790   29.1230   39.6760 C   0  0  0  0  0  2  0  0  0  0  0  0
   34.0890   28.7010   38.8280 H   0  0  0  0  0  0  0  0  0  0  0  0
   42.3780   31.5280   36.8930 C   0  0  0  0  0  0  0  0  0  0  0  0
   41.0940   31.5620   37.4550 C   0  0  0  0  0  0  0  0  0  0  0  0
   40.9210   31.7830   38.8010 C   0  0  0  0  0  0  0  0  0  0  0  0
   42.0640   31.9560   39.4950 N   0  0  0  0  0  0  0  0  0  0  0  0
   43.2870   31.9230   38.9660 C   0  0  0  0  0  0  0  0  0  0  0  0
   43.4400   31.7080   37.6620 N   0  0  0  0  0  0  0  0  0  0  0  0
   42.5200   31.3570   35.8470 H   0  0  0  0  0  0  0  0  0  0  0  0
   40.2090   31.4180   36.8500 H   0  0  0  0  0  0  0  0  0  0  0  0
   44.1600   32.0710   39.5900 H   0  0  0  0  0  0  0  0  0  0  0  0
  2  1  1  0  0  0  0
  2  7  1  0  0  0  0
  3  2  2  0  0  0  0
  4  3  1  0  0  0  0
  4  5  2  0  0  0  0
  5  6  1  0  0  0  0
  6  7  2  0  0  0  0
  6 10  1  0  0  0  0
  7 11  1  0  0  0  0
  8  4  1  0  0  0  0
  9  5  1  0  0  0  0
 11 12  1  0  0  0  0
 12 17  1  0  0  0  0
 12 13  2  0  0  0  0
 13 18  1  0  0  0  0
 14 13  1  0  0  0  0
 14 19  1  0  0  0  0
 15 14  2  0  0  0  0
 16 11  2  0  0  0  0
 16 15  1  0  0  0  0
 20 15  1  0  0  0  0
 21 16  1  0  0  0  0
 22 21  1  0  0  0  0
 23 22  1  0  0  0  0
 24 25  2  0  0  0  0
 24 29  1  0  0  0  0
 25 26  1  0  0  0  0
 26  3  1  0  0  0  0
 26 27  2  0  0  0  0
 28 27  1  0  0  0  0
 28 32  1  0  0  0  0
 29 28  2  0  0  0  0
 30 24  1  0  0  0  0
 31 25  1  0  0  0  0
M  END
>  <minimizedAffinity>
-5.385499

$$$$

 OpenBabel03242522283D

 32 34  0  0  0  0  0  0  0  0999 V2000
   36.4430   26.7650   38.9400 F   0  0  0  0  0  0  0  0  0  0  0  0
   36.3830   27.8150   39.8320 C   0  0  0  0  0  0  0  0  0  0  0  0
   37.0090   27.7310   41.0330 C   0  0  0  0  0  0  0  0  0  0  0  0
   36.9860   28.8800   41.8050 C   0  0  0  0  0  0  0  0  0  0  0  0
   36.3770   30.0480   41.3950 C   0  0  0  0  0  0  0  0  0  0  0  0
   35.7780   30.0110   40.1610 C   0  0  0  0  0  0  0  0  0  0  0  0
   35.7510   28.9230   39.3550 C   0  0  0  0  0  0  0  0  0  0  0  0
   37.5250   28.6720   42.7580 H   0  0  0  0  0  0  0  0  0  0  0  0
   36.5210   30.7630   42.1870 H   0  0  0  0  0  0  0  0  0  0  0  0
   35.4940   31.0250   40.1670 H   0  0  0  0  0  0  0  0  0  0  0  0
   35.0360   29.0460   38.1200 C   0  0  0  0  0  0  0  0  0  0  0  0
   33.6550   28.8230   38.1490 C   0  0  0  0  0  0  0  0  0  0  0  0
   32.9930   28.8350   36.9420 C   0  0  0  0  0  0  0  0  0  0  0  0
   33.6800   29.0600   35.7340 C   0  0  0  0  0  0  0  0  0  0  0  0
   35.0700   29.2790   35.7890 C   0  0  0  0  0  0  0  0  0  0  0  0
   35.7690   29.2800   36.9760 C   0  0  0  0  0  0  0  0  0  0  0  0
   32.9830   28.6260   38.9360 H   0  0  0  0  0  0  0  0  0  0  0  0
   31.9240   28.6750   36.8420 H   0  0  0  0  0  0  0  0  0  0  0  0
   33.0940   29.0520   34.8000 H   0  0  0  0  0  0  0  0  0  0  0  0
   35.4200   29.4270   34.7900 H   0  0  0  0  0  0  0  0  0  0  0  0
   37.1750   29.6150   36.7470 C   0  0  0  0  0  2  0  0  0  0  0  0
   37.5220   31.0840   37.0480 C   0  0  0  0  0  2  0  0  0  0  0  0
   38.4410   31.3910   36.4940 H   0  0  0  0  0  0  0  0  0  0  0  0
   37.7410   24.2250   42.2100 C   0  0  0  0  0  0  0  0  0  0  0  0
   37.0280   25.3880   41.8820 C   0  0  0  0  0  0  0  0  0  0  0  0
   37.6760   26.4960   41.3900 C   0  0  0  0  0  0  0  0  0  0  0  0
   39.0120   26.3550   41.2610 N   0  0  0  0  0  0  0  0  0  0  0  0
   39.6940   25.2540   41.5720 C   0  0  0  0  0  0  0  0  0  0  0  0
   39.0550   24.1890   42.0470 N   0  0  0  0  0  0  0  0  0  0  0  0
   37.2430   23.3600   42.5930 H   0  0  0  0  0  0  0  0  0  0  0  0
   35.9550   25.4450   42.0060 H   0  0  0  0  0  0  0  0  0  0  0  0
   40.7690   25.2180   41.4390 H   0  0  0  0  0  0  0  0  0  0  0  0
  1  2  1  0  0  0  0
  2  3  1  0  0  0  0
  3 26  1  0  0  0  0
  3  4  2  0  0  0  0
  4  8  1  0  0  0  0
  5  4  1  0  0  0  0
  5  9  1  0  0  0  0
  6 10  1  0  0  0  0
  6  5  2  0  0  0  0
  7  2  2  0  0  0  0
  7  6  1  0  0  0  0
 11 12  1  0  0  0  0
 11  7  1  0  0  0  0
 12 17  1  0  0  0  0
 13 12  2  0  0  0  0
 14 15  2  0  0  0  0
 14 13  1  0  0  0  0
 15 16  1  0  0  0  0
 16 11  2  0  0  0  0
 18 13  1  0  0  0  0
 19 14  1  0  0  0  0
 20 15  1  0  0  0  0
 21 16  1  0  0  0  0
 21 22  1  0  0  0  0
 23 22  1  0  0  0  0
 24 30  1  0  0  0  0
 25 31  1  0  0  0  0
 25 24  2  0  0  0  0
 26 25  1  0  0  0  0
 27 26  2  0  0  0  0
 27 28  1  0  0  0  0
 28 29  2  0  0  0  0
 29 24  1  0  0  0  0
 32 28  1  0  0  0  0
M  END
>  <minimizedAffinity>
-5.35552359

$$$$

 OpenBabel03242522283D

 32 34  0  0  0  0  0  0  0  0999 V2000
   39.3790   30.1920   39.6330 F   0  0  0  0  0  0  0  0  0  0  0  0
   38.7870   31.4290   39.7810 C   0  0  0  0  0  0  0  0  0  0  0  0
   39.3920   32.3950   40.5190 C   0  0  0  0  0  0  0  0  0  0  0  0
   38.7750   33.6340   40.5090 C   0  0  0  0  0  0  0  0  0  0  0  0
   37.6230   33.8940   39.7960 C   0  0  0  0  0  0  0  0  0  0  0  0
   37.1050   32.8390   39.0870 C   0  0  0  0  0  0  0  0  0  0  0  0
   37.6460   31.5980   39.0570 C   0  0  0  0  0  0  0  0  0  0  0  0
   39.3670   34.3240   41.1540 H   0  0  0  0  0  0  0  0  0  0  0  0
   37.3810   34.9280   39.9710 H   0  0  0  0  0  0  0  0  0  0  0  0
   36.3210   33.3940   38.6570 H   0  0  0  0  0  0  0  0  0  0  0  0
   36.9450   30.6000   38.3050 C   0  0  0  0  0  0  0  0  0  0  0  0
   37.2370   30.4980   36.9400 C   0  0  0  0  0  0  0  0  0  0  0  0
   36.4820   29.6140   36.2020 C   0  0  0  0  0  0  0  0  0  0  0  0
   35.4600   28.8510   36.8000 C   0  0  0  0  0  0  0  0  0  0  0  0
   35.2300   29.0090   38.1800 C   0  0  0  0  0  0  0  0  0  0  0  0
   35.9660   29.8790   38.9540 C   0  0  0  0  0  0  0  0  0  0  0  0
   37.9380   30.9870   36.3240 H   0  0  0  0  0  0  0  0  0  0  0  0
   36.6170   29.4510   35.1380 H   0  0  0  0  0  0  0  0  0  0  0  0
   34.8870   28.1650   36.1540 H   0  0  0  0  0  0  0  0  0  0  0  0
   34.4270   28.3610   38.4560 H   0  0  0  0  0  0  0  0  0  0  0  0
   35.5720   29.7790   40.3600 C   0  0  0  0  0  2  0  0  0  0  0  0
   36.2350   28.6110   41.1110 C   0  0  0  0  0  2  0  0  0  0  0  0
   35.6290   28.3240   42.0030 H   0  0  0  0  0  0  0  0  0  0  0  0
   43.0200   32.1840   41.5200 C   0  0  0  0  0  0  0  0  0  0  0  0
   41.8640   32.5320   40.8070 C   0  0  0  0  0  0  0  0  0  0  0  0
   40.6280   32.0800   41.2060 C   0  0  0  0  0  0  0  0  0  0  0  0
   40.6420   31.3010   42.3070 N   0  0  0  0  0  0  0  0  0  0  0  0
   41.7370   30.9660   42.9870 C   0  0  0  0  0  0  0  0  0  0  0  0
   42.9270   31.4100   42.5900 N   0  0  0  0  0  0  0  0  0  0  0  0
   43.9840   32.5330   41.2160 H   0  0  0  0  0  0  0  0  0  0  0  0
   41.9100   33.1620   39.9300 H   0  0  0  0  0  0  0  0  0  0  0  0
   41.6680   30.3340   43.8650 H   0  0  0  0  0  0  0  0  0  0  0  0
  1  2  1  0  0  0  0
  2  3  1  0  0  0  0
  3 26  1  0  0  0  0
  4  3  2  0  0  0  0
  4  8  1  0  0  0  0
  5  9  1  0  0  0  0
  5  4  1  0  0  0  0
  6  5  2  0  0  0  0
  7  6  1  0  0  0  0
  7  2  2  0  0  0  0
 10  6  1  0  0  0  0
 11 16  1  0  0  0  0
 11  7  1  0  0  0  0
 12 11  2  0  0  0  0
 13 14  2  0  0  0  0
 13 12  1  0  0  0  0
 14 15  1  0  0  0  0
 15 20  1  0  0  0  0
 15 16  2  0  0  0  0
 16 21  1  0  0  0  0
 17 12  1  0  0  0  0
 18 13  1  0  0  0  0
 19 14  1  0  0  0  0
 21 22  1  0  0  0  0
 22 23  1  0  0  0  0
 24 29  1  0  0  0  0
 25 26  1  0  0  0  0
 25 24  2  0  0  0  0
 26 27  2  0  0  0  0
 27 28  1  0  0  0  0
 28 32  1  0  0  0  0
 29 28  2  0  0  0  0
 30 24  1  0  0  0  0
 31 25  1  0  0  0  0
M  END
>  <minimizedAffinity>
-5.29684734

$$$$

 OpenBabel03242522283D

 32 34  0  0  0  0  0  0  0  0999 V2000
   38.5850   27.8670   39.9300 F   0  0  0  0  0  0  0  0  0  0  0  0
   37.9520   27.7850   41.1520 C   0  0  0  0  0  0  0  0  0  0  0  0
   37.4700   26.5970   41.5960 C   0  0  0  0  0  0  0  0  0  0  0  0
   36.9580   26.5980   42.8820 C   0  0  0  0  0  0  0  0  0  0  0  0
   36.9340   27.7240   43.6800 C   0  0  0  0  0  0  0  0  0  0  0  0
   37.4500   28.8660   43.1200 C   0  0  0  0  0  0  0  0  0  0  0  0
   37.9590   28.9430   41.8680 C   0  0  0  0  0  0  0  0  0  0  0  0
   36.5950   25.5710   43.1150 H   0  0  0  0  0  0  0  0  0  0  0  0
   36.4890   27.4280   44.6140 H   0  0  0  0  0  0  0  0  0  0  0  0
   37.3230   29.4560   43.9840 H   0  0  0  0  0  0  0  0  0  0  0  0
   38.4080   30.2300   41.4270 C   0  0  0  0  0  0  0  0  0  0  0  0
   39.6910   30.6340   41.8160 C   0  0  0  0  0  0  0  0  0  0  0  0
   40.0730   31.9130   41.4820 C   0  0  0  0  0  0  0  0  0  0  0  0
   39.2070   32.7740   40.7810 C   0  0  0  0  0  0  0  0  0  0  0  0
   37.9340   32.2920   40.4210 C   0  0  0  0  0  0  0  0  0  0  0  0
   37.5150   31.0170   40.7330 C   0  0  0  0  0  0  0  0  0  0  0  0
   40.4580   30.1470   42.3490 H   0  0  0  0  0  0  0  0  0  0  0  0
   41.0410   32.3350   41.7310 H   0  0  0  0  0  0  0  0  0  0  0  0
   39.5710   33.7890   40.5470 H   0  0  0  0  0  0  0  0  0  0  0  0
   37.4210   33.0730   39.9030 H   0  0  0  0  0  0  0  0  0  0  0  0
   36.1900   30.7580   40.1680 C   0  0  0  0  0  2  0  0  0  0  0  0
   36.2240   30.0900   38.7820 C   0  0  0  0  0  2  0  0  0  0  0  0
   35.2730   30.2810   38.2310 H   0  0  0  0  0  0  0  0  0  0  0  0
   36.7500   23.9110   39.0510 C   0  0  0  0  0  0  0  0  0  0  0  0
   36.5870   25.0500   39.8520 C   0  0  0  0  0  0  0  0  0  0  0  0
   37.5680   25.4360   40.7360 C   0  0  0  0  0  0  0  0  0  0  0  0
   38.6550   24.6380   40.7510 N   0  0  0  0  0  0  0  0  0  0  0  0
   38.8150   23.5540   39.9940 C   0  0  0  0  0  0  0  0  0  0  0  0
   37.8580   23.1920   39.1430 N   0  0  0  0  0  0  0  0  0  0  0  0
   35.9910   23.6060   38.3620 H   0  0  0  0  0  0  0  0  0  0  0  0
   35.6930   25.6550   39.7980 H   0  0  0  0  0  0  0  0  0  0  0  0
   39.7200   22.9620   40.0630 H   0  0  0  0  0  0  0  0  0  0  0  0
  1  2  1  0  0  0  0
  2  3  2  0  0  0  0
  2  7  1  0  0  0  0
  3  4  1  0  0  0  0
  4  8  1  0  0  0  0
  4  5  2  0  0  0  0
  5  9  1  0  0  0  0
  6  5  1  0  0  0  0
  6 10  1  0  0  0  0
  7  6  2  0  0  0  0
 11 12  1  0  0  0  0
 11  7  1  0  0  0  0
 12 17  1  0  0  0  0
 13 18  1  0  0  0  0
 13 12  2  0  0  0  0
 14 13  1  0  0  0  0
 15 16  1  0  0  0  0
 15 14  2  0  0  0  0
 16 11  2  0  0  0  0
 19 14  1  0  0  0  0
 20 15  1  0  0  0  0
 21 16  1  0  0  0  0
 22 21  1  0  0  0  0
 23 22  1  0  0  0  0
 24 29  2  0  0  0  0
 24 25  1  0  0  0  0
 25 26  2  0  0  0  0
 26 27  1  0  0  0  0
 26  3  1  0  0  0  0
 28 32  1  0  0  0  0
 28 27  2  0  0  0  0
 29 28  1  0  0  0  0
 30 24  1  0  0  0  0
 31 25  1  0  0  0  0
M  END
>  <minimizedAffinity>
-5.26170588

$$$$

 OpenBabel03242522283D

 32 34  0  0  0  0  0  0  0  0999 V2000
   37.4210   27.9730   39.9330 F   0  0  0  0  0  0  0  0  0  0  0  0
   37.5430   29.3400   40.0720 C   0  0  0  0  0  0  0  0  0  0  0  0
   36.7740   30.1760   39.3310 C   0  0  0  0  0  0  0  0  0  0  0  0
   36.8900   31.5230   39.6290 C   0  0  0  0  0  0  0  0  0  0  0  0
   37.7240   32.0040   40.6170 C   0  0  0  0  0  0  0  0  0  0  0  0
   38.4510   31.0620   41.3000 C   0  0  0  0  0  0  0  0  0  0  0  0
   38.3970   29.7310   41.0580 C   0  0  0  0  0  0  0  0  0  0  0  0
   36.2150   32.0910   38.9480 H   0  0  0  0  0  0  0  0  0  0  0  0
   37.6040   33.0750   40.6250 H   0  0  0  0  0  0  0  0  0  0  0  0
   38.8920   31.7510   41.9640 H   0  0  0  0  0  0  0  0  0  0  0  0
   39.2650   28.8940   41.8330 C   0  0  0  0  0  0  0  0  0  0  0  0
   40.5540   28.6670   41.3380 C   0  0  0  0  0  0  0  0  0  0  0  0
   41.3420   27.7750   42.0300 C   0  0  0  0  0  0  0  0  0  0  0  0
   40.8670   27.1220   43.1830 C   0  0  0  0  0  0  0  0  0  0  0  0
   39.5590   27.4070   43.6200 C   0  0  0  0  0  0  0  0  0  0  0  0
   38.7400   28.2960   42.9580 C   0  0  0  0  0  0  0  0  0  0  0  0
   41.0700   29.0420   40.5000 H   0  0  0  0  0  0  0  0  0  0  0  0
   42.3570   27.5210   41.7400 H   0  0  0  0  0  0  0  0  0  0  0  0
   41.5460   26.4150   43.6890 H   0  0  0  0  0  0  0  0  0  0  0  0
   39.3710   26.8260   44.4960 H   0  0  0  0  0  0  0  0  0  0  0  0
   37.4750   28.4620   43.6750 C   0  0  0  0  0  2  0  0  0  0  0  0
   36.4530   27.3430   43.4030 C   0  0  0  0  0  2  0  0  0  0  0  0
   35.4160   27.6990   43.6140 H   0  0  0  0  0  0  0  0  0  0  0  0
   35.2640   28.9450   36.1030 C   0  0  0  0  0  0  0  0  0  0  0  0
   36.1830   29.5000   37.0060 C   0  0  0  0  0  0  0  0  0  0  0  0
   35.8780   29.6120   38.3420 C   0  0  0  0  0  0  0  0  0  0  0  0
   34.6560   29.1520   38.6800 N   0  0  0  0  0  0  0  0  0  0  0  0
   33.7790   28.6250   37.8280 C   0  0  0  0  0  0  0  0  0  0  0  0
   34.0860   28.5230   36.5380 N   0  0  0  0  0  0  0  0  0  0  0  0
   35.4950   28.8540   35.0630 H   0  0  0  0  0  0  0  0  0  0  0  0
   37.1520   29.8530   36.6780 H   0  0  0  0  0  0  0  0  0  0  0  0
   32.8140   28.2760   38.1770 H   0  0  0  0  0  0  0  0  0  0  0  0
  1  2  1  0  0  0  0
  2  7  1  0  0  0  0
  3  4  1  0  0  0  0
  3  2  2  0  0  0  0
  4  5  2  0  0  0  0
  5  9  1  0  0  0  0
  5  6  1  0  0  0  0
  6 10  1  0  0  0  0
  7  6  2  0  0  0  0
  7 11  1  0  0  0  0
  8  4  1  0  0  0  0
 11 16  1  0  0  0  0
 12 11  2  0  0  0  0
 12 13  1  0  0  0  0
 13 14  2  0  0  0  0
 14 15  1  0  0  0  0
 14 19  1  0  0  0  0
 15 20  1  0  0  0  0
 16 15  2  0  0  0  0
 16 21  1  0  0  0  0
 17 12  1  0  0  0  0
 18 13  1  0  0  0  0
 22 23  1  0  0  0  0
 22 21  1  0  0  0  0
 24 29  2  0  0  0  0
 24 25  1  0  0  0  0
 25 26  2  0  0  0  0
 26 27  1  0  0  0  0
 26  3  1  0  0  0  0
 28 32  1  0  0  0  0
 28 27  2  0  0  0  0
 29 28  1  0  0  0  0
 30 24  1  0  0  0  0
 31 25  1  0  0  0  0
M  END
>  <minimizedAffinity>
-5.21132088

$$$$

 OpenBabel03242522283D

 32 34  0  0  0  0  0  0  0  0999 V2000
   38.2270   28.0440   39.8120 F   0  0  0  0  0  0  0  0  0  0  0  0
   37.7080   27.8790   41.0790 C   0  0  0  0  0  0  0  0  0  0  0  0
   37.3370   26.6480   41.5140 C   0  0  0  0  0  0  0  0  0  0  0  0
   36.9390   26.5710   42.8380 C   0  0  0  0  0  0  0  0  0  0  0  0
   36.9190   27.6640   43.6800 C   0  0  0  0  0  0  0  0  0  0  0  0
   37.3170   28.8550   43.1260 C   0  0  0  0  0  0  0  0  0  0  0  0
   37.7090   29.0090   41.8400 C   0  0  0  0  0  0  0  0  0  0  0  0
   36.6590   25.5160   43.0580 H   0  0  0  0  0  0  0  0  0  0  0  0
   36.5750   27.3080   44.6360 H   0  0  0  0  0  0  0  0  0  0  0  0
   37.2320   29.4040   44.0210 H   0  0  0  0  0  0  0  0  0  0  0  0
   38.0430   30.3360   41.4150 C   0  0  0  0  0  0  0  0  0  0  0  0
   37.0230   31.1080   40.8480 C   0  0  0  0  0  0  0  0  0  0  0  0
   37.3760   32.3390   40.3430 C   0  0  0  0  0  0  0  0  0  0  0  0
   38.7070   32.7950   40.3960 C   0  0  0  0  0  0  0  0  0  0  0  0
   39.6750   31.9610   40.9860 C   0  0  0  0  0  0  0  0  0  0  0  0
   39.3630   30.7240   41.5060 C   0  0  0  0  0  0  0  0  0  0  0  0
   35.9940   30.9330   40.7070 H   0  0  0  0  0  0  0  0  0  0  0  0
   36.6710   33.0220   39.8810 H   0  0  0  0  0  0  0  0  0  0  0  0
   38.9260   33.7890   39.9690 H   0  0  0  0  0  0  0  0  0  0  0  0
   40.6170   32.4630   40.9360 H   0  0  0  0  0  0  0  0  0  0  0  0
   40.5390   30.1140   42.1280 C   0  0  0  0  0  2  0  0  0  0  0  0
   41.4390   31.1140   42.8730 C   0  0  0  0  0  2  0  0  0  0  0  0
   42.4770   30.7150   42.9660 H   0  0  0  0  0  0  0  0  0  0  0  0
   36.6460   24.1450   38.7810 C   0  0  0  0  0  0  0  0  0  0  0  0
   36.4950   25.2520   39.6280 C   0  0  0  0  0  0  0  0  0  0  0  0
   37.4270   25.5270   40.6010 C   0  0  0  0  0  0  0  0  0  0  0  0
   38.4580   24.6580   40.6530 N   0  0  0  0  0  0  0  0  0  0  0  0
   38.6060   23.6040   39.8510 C   0  0  0  0  0  0  0  0  0  0  0  0
   37.6960   23.3500   38.9150 N   0  0  0  0  0  0  0  0  0  0  0  0
   35.9240   23.9260   38.0220 H   0  0  0  0  0  0  0  0  0  0  0  0
   35.6460   25.9170   39.5420 H   0  0  0  0  0  0  0  0  0  0  0  0
   39.4640   22.9510   39.9550 H   0  0  0  0  0  0  0  0  0  0  0  0
  1  2  1  0  0  0  0
  2  3  2  0  0  0  0
  2  7  1  0  0  0  0
  3  4  1  0  0  0  0
  4  8  1  0  0  0  0
  4  5  2  0  0  0  0
  5  9  1  0  0  0  0
  6  5  1  0  0  0  0
  6 10  1  0  0  0  0
  7  6  2  0  0  0  0
 11 16  1  0  0  0  0
 11  7  1  0  0  0  0
 12 11  2  0  0  0  0
 13 14  2  0  0  0  0
 13 12  1  0  0  0  0
 14 15  1  0  0  0  0
 15 16  2  0  0  0  0
 16 21  1  0  0  0  0
 17 12  1  0  0  0  0
 18 13  1  0  0  0  0
 19 14  1  0  0  0  0
 20 15  1  0  0  0  0
 21 22  1  0  0  0  0
 22 23  1  0  0  0  0
 24 29  2  0  0  0  0
 24 25  1  0  0  0  0
 25 26  2  0  0  0  0
 26 27  1  0  0  0  0
 26  3  1  0  0  0  0
 28 32  1  0  0  0  0
 28 27  2  0  0  0  0
 29 28  1  0  0  0  0
 30 24  1  0  0  0  0
 31 25  1  0  0  0  0
M  END
>  <minimizedAffinity>
-5.17927456

$$$$
