
 OpenBabel03242523193D

 31 33  0  0  0  0  0  0  0  0999 V2000
   47.3860   32.7930   44.0380 C   0  0  0  0  0  0  0  0  0  0  0  0
   48.2330   33.2910   43.1250 C   0  0  0  0  0  0  0  0  0  0  0  0
   49.0720   32.3560   42.5470 C   0  0  0  0  0  0  0  0  0  0  0  0
   48.9670   31.0180   42.9570 N   0  0  0  0  0  0  0  0  0  0  0  0
   48.1140   30.6040   43.8630 C   0  0  0  0  0  0  0  0  0  0  0  0
   47.2580   31.5060   44.4600 N   0  0  0  0  0  0  0  0  0  0  0  0
   49.8160   32.5470   41.7970 H   0  0  0  0  0  0  0  0  0  0  0  0
   48.1500   29.5410   44.0780 H   0  0  0  0  0  0  0  0  0  0  0  0
   48.4120   34.6630   42.8030 C   0  0  0  0  0  0  0  0  0  0  0  0
   49.4240   35.2510   42.1110 C   0  0  0  0  0  0  0  0  0  0  0  0
   48.1810   35.0720   41.2870 C   0  0  0  0  0  0  0  0  0  0  0  0
   47.9610   35.3530   43.5410 H   0  0  0  0  0  0  0  0  0  0  0  0
   49.7620   36.3110   42.1020 H   0  0  0  0  0  0  0  0  0  0  0  0
   50.2770   34.6120   41.7270 H   0  0  0  0  0  0  0  0  0  0  0  0
   47.4820   35.9220   41.1830 H   0  0  0  0  0  0  0  0  0  0  0  0
   48.0870   34.1940   40.6200 H   0  0  0  0  0  0  0  0  0  0  0  0
   46.3250   33.5290   44.7380 C   0  0  0  0  0  0  0  0  0  0  0  0
   45.7520   33.9110   45.7290 O   0  0  0  0  0  0  0  0  0  0  0  0
   44.5730   31.7770   42.9030 Cl  0  0  0  0  0  0  0  0  0  0  0  0
   44.5950   33.5310   42.7960 C   0  0  0  0  0  0  0  0  0  0  0  0
   45.4460   34.1790   43.7170 C   0  0  0  0  0  0  0  0  0  0  0  0
   45.3930   35.5530   43.5580 C   0  0  0  0  0  0  0  0  0  0  0  0
   44.6810   36.2910   42.6930 C   0  0  0  0  0  0  0  0  0  0  0  0
   43.8820   35.5900   41.8330 C   0  0  0  0  0  0  0  0  0  0  0  0
   43.8300   34.2430   41.8720 C   0  0  0  0  0  0  0  0  0  0  0  0
   45.9780   36.2180   44.2290 H   0  0  0  0  0  0  0  0  0  0  0  0
   44.6660   37.3530   42.5980 H   0  0  0  0  0  0  0  0  0  0  0  0
   43.2390   36.0030   41.0670 H   0  0  0  0  0  0  0  0  0  0  0  0
   42.9870   33.3760   40.9770 C   0  0  0  0  0  2  0  0  0  0  0  0
   42.4360   34.1330   39.8010 C   0  0  0  0  0  2  0  0  0  0  0  0
   41.6780   33.4640   39.3320 H   0  0  0  0  0  0  0  0  0  0  0  0
  1  6  1  0  0  0  0
  1 17  1  0  0  0  0
  2  1  2  0  0  0  0
  3  4  2  0  0  0  0
  3  2  1  0  0  0  0
  4  5  1  0  0  0  0
  5  8  1  0  0  0  0
  5  6  2  0  0  0  0
  7  3  1  0  0  0  0
  9  2  1  0  0  0  0
  9 12  1  0  0  0  0
 10  9  1  0  0  0  0
 11 10  1  0  0  0  0
 11  9  1  0  0  0  0
 13 10  1  0  0  0  0
 14 10  1  0  0  0  0
 15 11  1  0  0  0  0
 16 11  1  0  0  0  0
 17 18  2  0  0  0  0
 20 19  1  0  0  0  0
 20 21  1  0  0  0  0
 21 17  1  0  0  0  0
 22 21  2  0  0  0  0
 22 26  1  0  0  0  0
 23 22  1  0  0  0  0
 24 25  1  0  0  0  0
 24 23  2  0  0  0  0
 25 20  2  0  0  0  0
 27 23  1  0  0  0  0
 28 24  1  0  0  0  0
 29 25  1  0  0  0  0
 30 29  1  0  0  0  0
 31 30  1  0  0  0  0
M  END
>  <minimizedAffinity>
-5.00929117

>  <minimizedRMSD>
0.209384218

$$$$
