
 OpenBabel03242523193D

 31 33  0  0  0  0  0  0  0  0999 V2000
   47.4960   32.8050   43.9480 C   0  0  0  0  0  0  0  0  0  0  0  0
   48.3290   33.3480   43.0470 C   0  0  0  0  0  0  0  0  0  0  0  0
   49.1810   32.4480   42.4340 C   0  0  0  0  0  0  0  0  0  0  0  0
   49.1020   31.0950   42.7990 N   0  0  0  0  0  0  0  0  0  0  0  0
   48.2620   30.6360   43.6950 C   0  0  0  0  0  0  0  0  0  0  0  0
   47.3940   31.5020   44.3270 N   0  0  0  0  0  0  0  0  0  0  0  0
   49.9160   32.6780   41.6860 H   0  0  0  0  0  0  0  0  0  0  0  0
   48.3180   29.5670   43.8740 H   0  0  0  0  0  0  0  0  0  0  0  0
   48.4810   34.7330   42.7700 C   0  0  0  0  0  0  0  0  0  0  0  0
   49.4930   35.3660   42.1200 C   0  0  0  0  0  0  0  0  0  0  0  0
   48.2730   35.1820   41.2630 C   0  0  0  0  0  0  0  0  0  0  0  0
   47.9980   35.3900   43.5190 H   0  0  0  0  0  0  0  0  0  0  0  0
   49.8050   36.4330   42.1500 H   0  0  0  0  0  0  0  0  0  0  0  0
   50.3700   34.7590   41.7360 H   0  0  0  0  0  0  0  0  0  0  0  0
   47.5570   36.0190   41.1680 H   0  0  0  0  0  0  0  0  0  0  0  0
   48.2160   34.3240   40.5680 H   0  0  0  0  0  0  0  0  0  0  0  0
   46.4270   33.4980   44.6790 C   0  0  0  0  0  0  0  0  0  0  0  0
   45.8620   33.8500   45.6850 O   0  0  0  0  0  0  0  0  0  0  0  0
   44.6270   31.7110   42.9250 Cl  0  0  0  0  0  0  0  0  0  0  0  0
   44.6280   33.4630   42.8000 C   0  0  0  0  0  0  0  0  0  0  0  0
   45.5050   34.1290   43.6830 C   0  0  0  0  0  0  0  0  0  0  0  0
   45.4330   35.5000   43.5120 C   0  0  0  0  0  0  0  0  0  0  0  0
   44.6840   36.2230   42.6660 C   0  0  0  0  0  0  0  0  0  0  0  0
   43.8610   35.5060   41.8430 C   0  0  0  0  0  0  0  0  0  0  0  0
   43.8230   34.1580   41.8970 C   0  0  0  0  0  0  0  0  0  0  0  0
   46.0360   36.1780   44.1550 H   0  0  0  0  0  0  0  0  0  0  0  0
   44.6550   37.2830   42.5610 H   0  0  0  0  0  0  0  0  0  0  0  0
   43.1870   35.9040   41.0970 H   0  0  0  0  0  0  0  0  0  0  0  0
   42.9570   33.2740   41.0420 C   0  0  0  0  0  2  0  0  0  0  0  0
   43.3420   33.3260   39.5910 C   0  0  0  0  0  2  0  0  0  0  0  0
   42.5250   32.8090   39.0370 H   0  0  0  0  0  0  0  0  0  0  0  0
  1  6  1  0  0  0  0
  1 17  1  0  0  0  0
  2  1  2  0  0  0  0
  3  4  2  0  0  0  0
  3  2  1  0  0  0  0
  4  5  1  0  0  0  0
  5  8  1  0  0  0  0
  5  6  2  0  0  0  0
  7  3  1  0  0  0  0
  9  2  1  0  0  0  0
  9 12  1  0  0  0  0
 10 13  1  0  0  0  0
 10  9  1  0  0  0  0
 11 10  1  0  0  0  0
 11  9  1  0  0  0  0
 14 10  1  0  0  0  0
 15 11  1  0  0  0  0
 16 11  1  0  0  0  0
 17 18  2  0  0  0  0
 20 19  1  0  0  0  0
 20 21  1  0  0  0  0
 21 17  1  0  0  0  0
 22 21  2  0  0  0  0
 22 26  1  0  0  0  0
 23 22  1  0  0  0  0
 24 25  1  0  0  0  0
 24 23  2  0  0  0  0
 25 20  2  0  0  0  0
 27 23  1  0  0  0  0
 28 24  1  0  0  0  0
 29 25  1  0  0  0  0
 30 29  1  0  0  0  0
 31 30  1  0  0  0  0
M  END
>  <minimizedAffinity>
-4.92792654

>  <minimizedRMSD>
0.449481338

$$$$
