
 OpenBabel03242523213D

 31 33  0  0  0  0  0  0  0  0999 V2000
   37.5990   29.1020   42.3070 C   0  0  0  0  0  0  0  0  0  0  0  0
   37.0760   29.6270   41.1890 C   0  0  0  0  0  0  0  0  0  0  0  0
   37.7810   30.6980   40.6710 C   0  0  0  0  0  0  0  0  0  0  0  0
   38.9370   31.1270   41.3410 N   0  0  0  0  0  0  0  0  0  0  0  0
   39.3870   30.5650   42.4370 C   0  0  0  0  0  0  0  0  0  0  0  0
   38.7140   29.4920   42.9830 N   0  0  0  0  0  0  0  0  0  0  0  0
   37.5330   31.2530   39.7860 H   0  0  0  0  0  0  0  0  0  0  0  0
   40.2910   31.0070   42.8430 H   0  0  0  0  0  0  0  0  0  0  0  0
   35.8430   29.2610   40.5850 C   0  0  0  0  0  0  0  0  0  0  0  0
   35.3290   29.6590   39.3910 C   0  0  0  0  0  0  0  0  0  0  0  0
   35.9270   28.2820   39.3390 C   0  0  0  0  0  0  0  0  0  0  0  0
   35.0490   29.0140   41.3140 H   0  0  0  0  0  0  0  0  0  0  0  0
   34.2770   29.6540   39.0290 H   0  0  0  0  0  0  0  0  0  0  0  0
   35.9110   30.3930   38.7530 H   0  0  0  0  0  0  0  0  0  0  0  0
   35.2600   27.4070   39.4470 H   0  0  0  0  0  0  0  0  0  0  0  0
   36.9620   28.1480   38.9720 H   0  0  0  0  0  0  0  0  0  0  0  0
   37.1220   27.9090   43.0180 C   0  0  0  0  0  0  0  0  0  0  0  0
   36.3190   27.2970   43.6790 O   0  0  0  0  0  0  0  0  0  0  0  0
   36.7000   25.6420   40.9710 Cl  0  0  0  0  0  0  0  0  0  0  0  0
   38.1130   25.7250   42.0110 C   0  0  0  0  0  0  0  0  0  0  0  0
   38.1540   26.8340   42.8840 C   0  0  0  0  0  0  0  0  0  0  0  0
   39.3020   26.8130   43.6570 C   0  0  0  0  0  0  0  0  0  0  0  0
   40.3090   25.9280   43.6770 C   0  0  0  0  0  0  0  0  0  0  0  0
   40.1960   24.8820   42.8040 C   0  0  0  0  0  0  0  0  0  0  0  0
   39.1300   24.7700   41.9850 C   0  0  0  0  0  0  0  0  0  0  0  0
   39.5080   27.6350   44.3760 H   0  0  0  0  0  0  0  0  0  0  0  0
   41.1810   25.9430   44.2900 H   0  0  0  0  0  0  0  0  0  0  0  0
   40.8990   24.0700   42.6730 H   0  0  0  0  0  0  0  0  0  0  0  0
   38.9080   23.6660   40.9880 C   0  0  0  0  0  2  0  0  0  0  0  0
   39.4820   23.9880   39.6370 C   0  0  0  0  0  2  0  0  0  0  0  0
   39.0890   23.2110   38.9420 H   0  0  0  0  0  0  0  0  0  0  0  0
  1  6  1  0  0  0  0
  1 17  1  0  0  0  0
  2  1  2  0  0  0  0
  3  2  1  0  0  0  0
  3  4  2  0  0  0  0
  4  5  1  0  0  0  0
  5  8  1  0  0  0  0
  5  6  2  0  0  0  0
  7  3  1  0  0  0  0
  9  2  1  0  0  0  0
  9 12  1  0  0  0  0
 10  9  1  0  0  0  0
 11 10  1  0  0  0  0
 11 15  1  0  0  0  0
 11  9  1  0  0  0  0
 13 10  1  0  0  0  0
 14 10  1  0  0  0  0
 16 11  1  0  0  0  0
 17 18  2  0  0  0  0
 19 20  1  0  0  0  0
 20 21  1  0  0  0  0
 21 17  1  0  0  0  0
 21 22  2  0  0  0  0
 22 23  1  0  0  0  0
 22 26  1  0  0  0  0
 23 27  1  0  0  0  0
 24 23  2  0  0  0  0
 25 20  2  0  0  0  0
 25 24  1  0  0  0  0
 28 24  1  0  0  0  0
 29 25  1  0  0  0  0
 30 29  1  0  0  0  0
 31 30  1  0  0  0  0
M  END
>  <minimizedAffinity>
-5.29489994

$$$$

 OpenBabel03242523213D

 31 33  0  0  0  0  0  0  0  0999 V2000
   38.3920   26.2910   42.7460 C   0  0  0  0  0  0  0  0  0  0  0  0
   38.3140   25.3700   41.7740 C   0  0  0  0  0  0  0  0  0  0  0  0
   39.3720   24.4800   41.7370 C   0  0  0  0  0  0  0  0  0  0  0  0
   40.3980   24.6190   42.6850 N   0  0  0  0  0  0  0  0  0  0  0  0
   40.4080   25.5510   43.6070 C   0  0  0  0  0  0  0  0  0  0  0  0
   39.3690   26.4560   43.6780 N   0  0  0  0  0  0  0  0  0  0  0  0
   39.4970   23.6700   41.0430 H   0  0  0  0  0  0  0  0  0  0  0  0
   41.2680   25.5350   44.2680 H   0  0  0  0  0  0  0  0  0  0  0  0
   37.3320   25.3100   40.7490 C   0  0  0  0  0  0  0  0  0  0  0  0
   37.2350   24.4340   39.7130 C   0  0  0  0  0  0  0  0  0  0  0  0
   36.2880   24.1180   40.8350 C   0  0  0  0  0  0  0  0  0  0  0  0
   36.8920   26.2930   40.5000 H   0  0  0  0  0  0  0  0  0  0  0  0
   36.6940   24.5300   38.7460 H   0  0  0  0  0  0  0  0  0  0  0  0
   38.0240   23.6300   39.5900 H   0  0  0  0  0  0  0  0  0  0  0  0
   35.2420   24.4700   40.7660 H   0  0  0  0  0  0  0  0  0  0  0  0
   36.5680   23.3610   41.5920 H   0  0  0  0  0  0  0  0  0  0  0  0
   37.3740   27.2950   43.0820 C   0  0  0  0  0  0  0  0  0  0  0  0
   36.3510   27.6580   43.6070 O   0  0  0  0  0  0  0  0  0  0  0  0
   35.7970   28.3620   40.6560 Cl  0  0  0  0  0  0  0  0  0  0  0  0
   37.1670   29.2210   41.3450 C   0  0  0  0  0  0  0  0  0  0  0  0
   37.7690   28.5970   42.4590 C   0  0  0  0  0  0  0  0  0  0  0  0
   38.8330   29.3470   42.9310 C   0  0  0  0  0  0  0  0  0  0  0  0
   39.3270   30.5120   42.4880 C   0  0  0  0  0  0  0  0  0  0  0  0
   38.6900   31.0520   41.4050 C   0  0  0  0  0  0  0  0  0  0  0  0
   37.6340   30.4330   40.8370 C   0  0  0  0  0  0  0  0  0  0  0  0
   39.3980   29.0150   43.8280 H   0  0  0  0  0  0  0  0  0  0  0  0
   40.1520   31.0620   42.8770 H   0  0  0  0  0  0  0  0  0  0  0  0
   38.9390   31.9790   40.9040 H   0  0  0  0  0  0  0  0  0  0  0  0
   36.8620   30.9380   39.6490 C   0  0  0  0  0  2  0  0  0  0  0  0
   37.1310   32.3890   39.3650 C   0  0  0  0  0  2  0  0  0  0  0  0
   36.3700   32.7020   38.6130 H   0  0  0  0  0  0  0  0  0  0  0  0
  1 17  1  0  0  0  0
  1  6  1  0  0  0  0
  2  1  2  0  0  0  0
  3  2  1  0  0  0  0
  3  4  2  0  0  0  0
  4  5  1  0  0  0  0
  5  6  2  0  0  0  0
  5  8  1  0  0  0  0
  7  3  1  0  0  0  0
  9 11  1  0  0  0  0
  9  2  1  0  0  0  0
 10  9  1  0  0  0  0
 10 11  1  0  0  0  0
 11 16  1  0  0  0  0
 12  9  1  0  0  0  0
 13 10  1  0  0  0  0
 14 10  1  0  0  0  0
 15 11  1  0  0  0  0
 17 18  2  0  0  0  0
 19 20  1  0  0  0  0
 20 21  1  0  0  0  0
 21 22  2  0  0  0  0
 21 17  1  0  0  0  0
 22 26  1  0  0  0  0
 23 27  1  0  0  0  0
 23 22  1  0  0  0  0
 24 23  2  0  0  0  0
 25 20  2  0  0  0  0
 25 24  1  0  0  0  0
 28 24  1  0  0  0  0
 29 25  1  0  0  0  0
 30 29  1  0  0  0  0
 31 30  1  0  0  0  0
M  END
>  <minimizedAffinity>
-5.27282858

$$$$

 OpenBabel03242523213D

 31 33  0  0  0  0  0  0  0  0999 V2000
   38.0610   30.1550   39.3150 C   0  0  0  0  0  0  0  0  0  0  0  0
   38.6010   31.3780   39.4260 C   0  0  0  0  0  0  0  0  0  0  0  0
   39.7860   31.5510   38.7360 C   0  0  0  0  0  0  0  0  0  0  0  0
   40.3030   30.4660   38.0100 N   0  0  0  0  0  0  0  0  0  0  0  0
   39.7190   29.2930   37.9500 C   0  0  0  0  0  0  0  0  0  0  0  0
   38.5340   29.0830   38.6230 N   0  0  0  0  0  0  0  0  0  0  0  0
   40.3720   32.4500   38.6940 H   0  0  0  0  0  0  0  0  0  0  0  0
   40.2370   28.5520   37.3510 H   0  0  0  0  0  0  0  0  0  0  0  0
   38.1330   32.4310   40.2580 C   0  0  0  0  0  0  0  0  0  0  0  0
   38.5370   33.7290   40.2980 C   0  0  0  0  0  0  0  0  0  0  0  0
   37.2420   33.5440   39.5600 C   0  0  0  0  0  0  0  0  0  0  0  0
   37.7560   32.0860   41.2390 H   0  0  0  0  0  0  0  0  0  0  0  0
   38.4340   34.4840   41.1080 H   0  0  0  0  0  0  0  0  0  0  0  0
   39.3680   34.0720   39.6080 H   0  0  0  0  0  0  0  0  0  0  0  0
   36.2920   33.7200   40.0970 H   0  0  0  0  0  0  0  0  0  0  0  0
   37.2470   33.4620   38.4570 H   0  0  0  0  0  0  0  0  0  0  0  0
   36.7680   29.7180   39.8560 C   0  0  0  0  0  0  0  0  0  0  0  0
   35.5630   29.6690   39.8600 O   0  0  0  0  0  0  0  0  0  0  0  0
   36.4050   26.6620   39.6600 Cl  0  0  0  0  0  0  0  0  0  0  0  0
   36.8940   27.4620   41.1460 C   0  0  0  0  0  0  0  0  0  0  0  0
   37.0220   28.8660   41.0590 C   0  0  0  0  0  0  0  0  0  0  0  0
   37.4120   29.4030   42.2740 C   0  0  0  0  0  0  0  0  0  0  0  0
   37.6640   28.7940   43.4420 C   0  0  0  0  0  0  0  0  0  0  0  0
   37.5170   27.4350   43.4450 C   0  0  0  0  0  0  0  0  0  0  0  0
   37.1420   26.7710   42.3320 C   0  0  0  0  0  0  0  0  0  0  0  0
   37.5930   30.4950   42.3720 H   0  0  0  0  0  0  0  0  0  0  0  0
   37.9620   29.2420   44.3620 H   0  0  0  0  0  0  0  0  0  0  0  0
   37.6710   26.7700   44.2850 H   0  0  0  0  0  0  0  0  0  0  0  0
   36.9530   25.2830   42.2250 C   0  0  0  0  0  2  0  0  0  0  0  0
   38.2580   24.5380   42.2340 C   0  0  0  0  0  2  0  0  0  0  0  0
   38.0150   23.4880   41.9490 H   0  0  0  0  0  0  0  0  0  0  0  0
  1  2  1  0  0  0  0
  1 17  1  0  0  0  0
  2  9  1  0  0  0  0
  3  2  2  0  0  0  0
  4  3  1  0  0  0  0
  5  4  2  0  0  0  0
  5  6  1  0  0  0  0
  6  1  2  0  0  0  0
  7  3  1  0  0  0  0
  8  5  1  0  0  0  0
  9 10  1  0  0  0  0
  9 12  1  0  0  0  0
 10 13  1  0  0  0  0
 11 15  1  0  0  0  0
 11  9  1  0  0  0  0
 11 10  1  0  0  0  0
 14 10  1  0  0  0  0
 16 11  1  0  0  0  0
 17 18  2  0  0  0  0
 17 21  1  0  0  0  0
 19 20  1  0  0  0  0
 20 25  1  0  0  0  0
 21 20  2  0  0  0  0
 21 22  1  0  0  0  0
 22 26  1  0  0  0  0
 22 23  2  0  0  0  0
 23 24  1  0  0  0  0
 23 27  1  0  0  0  0
 24 28  1  0  0  0  0
 25 24  2  0  0  0  0
 29 30  1  0  0  0  0
 29 25  1  0  0  0  0
 31 30  1  0  0  0  0
M  END
>  <minimizedAffinity>
-5.18357944

$$$$

 OpenBabel03242523213D

 31 33  0  0  0  0  0  0  0  0999 V2000
   37.7610   30.4550   41.2580 C   0  0  0  0  0  0  0  0  0  0  0  0
   36.7530   30.2900   40.3900 C   0  0  0  0  0  0  0  0  0  0  0  0
   36.7450   31.1870   39.3380 C   0  0  0  0  0  0  0  0  0  0  0  0
   37.7570   32.1580   39.2780 N   0  0  0  0  0  0  0  0  0  0  0  0
   38.7120   32.2620   40.1700 C   0  0  0  0  0  0  0  0  0  0  0  0
   38.7560   31.3830   41.2320 N   0  0  0  0  0  0  0  0  0  0  0  0
   36.0290   31.2230   38.5380 H   0  0  0  0  0  0  0  0  0  0  0  0
   39.4230   33.0630   39.9930 H   0  0  0  0  0  0  0  0  0  0  0  0
   35.6690   29.3810   40.5220 C   0  0  0  0  0  0  0  0  0  0  0  0
   34.6080   29.1930   39.6920 C   0  0  0  0  0  0  0  0  0  0  0  0
   35.6640   28.1350   39.5390 C   0  0  0  0  0  0  0  0  0  0  0  0
   35.4180   29.1410   41.5720 H   0  0  0  0  0  0  0  0  0  0  0  0
   33.6130   28.7400   39.8970 H   0  0  0  0  0  0  0  0  0  0  0  0
   34.5140   29.8300   38.7600 H   0  0  0  0  0  0  0  0  0  0  0  0
   35.5400   27.1770   40.0750 H   0  0  0  0  0  0  0  0  0  0  0  0
   36.4170   28.2260   38.7340 H   0  0  0  0  0  0  0  0  0  0  0  0
   38.0740   29.5960   42.4080 C   0  0  0  0  0  0  0  0  0  0  0  0
   38.2040   29.3800   43.5880 O   0  0  0  0  0  0  0  0  0  0  0  0
   36.3940   27.1570   43.2660 Cl  0  0  0  0  0  0  0  0  0  0  0  0
   37.7830   27.0190   42.1990 C   0  0  0  0  0  0  0  0  0  0  0  0
   38.4340   28.2360   41.8990 C   0  0  0  0  0  0  0  0  0  0  0  0
   39.5090   28.0270   41.0530 C   0  0  0  0  0  0  0  0  0  0  0  0
   39.9760   26.8870   40.5220 C   0  0  0  0  0  0  0  0  0  0  0  0
   39.2930   25.7520   40.8600 C   0  0  0  0  0  0  0  0  0  0  0  0
   38.2200   25.8020   41.6780 C   0  0  0  0  0  0  0  0  0  0  0  0
   40.1120   28.8860   40.6900 H   0  0  0  0  0  0  0  0  0  0  0  0
   40.8120   26.7630   39.8730 H   0  0  0  0  0  0  0  0  0  0  0  0
   39.5140   24.7430   40.5370 H   0  0  0  0  0  0  0  0  0  0  0  0
   37.3980   24.6190   42.1100 C   0  0  0  0  0  2  0  0  0  0  0  0
   36.5030   24.1120   41.0150 C   0  0  0  0  0  2  0  0  0  0  0  0
   35.8080   23.3860   41.4970 H   0  0  0  0  0  0  0  0  0  0  0  0
  1 17  1  0  0  0  0
  2  9  1  0  0  0  0
  2  1  2  0  0  0  0
  3  2  1  0  0  0  0
  4  3  2  0  0  0  0
  4  5  1  0  0  0  0
  5  6  2  0  0  0  0
  6  1  1  0  0  0  0
  7  3  1  0  0  0  0
  8  5  1  0  0  0  0
  9 12  1  0  0  0  0
 10 13  1  0  0  0  0
 10  9  1  0  0  0  0
 11 10  1  0  0  0  0
 11 15  1  0  0  0  0
 11  9  1  0  0  0  0
 14 10  1  0  0  0  0
 16 11  1  0  0  0  0
 17 18  2  0  0  0  0
 20 19  1  0  0  0  0
 21 20  1  0  0  0  0
 21 17  1  0  0  0  0
 22 21  2  0  0  0  0
 23 24  2  0  0  0  0
 23 22  1  0  0  0  0
 24 25  1  0  0  0  0
 25 29  1  0  0  0  0
 25 20  2  0  0  0  0
 26 22  1  0  0  0  0
 27 23  1  0  0  0  0
 28 24  1  0  0  0  0
 30 31  1  0  0  0  0
 30 29  1  0  0  0  0
M  END
>  <minimizedAffinity>
-5.09521484

$$$$

 OpenBabel03242523213D

 31 33  0  0  0  0  0  0  0  0999 V2000
   39.0950   27.0140   41.6830 C   0  0  0  0  0  0  0  0  0  0  0  0
   38.7070   25.8880   41.0660 C   0  0  0  0  0  0  0  0  0  0  0  0
   39.7030   25.2530   40.3460 C   0  0  0  0  0  0  0  0  0  0  0  0
   40.9830   25.8270   40.3230 N   0  0  0  0  0  0  0  0  0  0  0  0
   41.2880   26.9370   40.9500 C   0  0  0  0  0  0  0  0  0  0  0  0
   40.3240   27.5980   41.6820 N   0  0  0  0  0  0  0  0  0  0  0  0
   39.6000   24.3430   39.7860 H   0  0  0  0  0  0  0  0  0  0  0  0
   42.3190   27.2600   40.8400 H   0  0  0  0  0  0  0  0  0  0  0  0
   37.3820   25.3790   40.9980 C   0  0  0  0  0  0  0  0  0  0  0  0
   36.9700   24.1050   40.7630 C   0  0  0  0  0  0  0  0  0  0  0  0
   36.9040   24.4810   42.2160 C   0  0  0  0  0  0  0  0  0  0  0  0
   36.6400   26.1230   40.6530 H   0  0  0  0  0  0  0  0  0  0  0  0
   35.9880   23.7270   40.4020 H   0  0  0  0  0  0  0  0  0  0  0  0
   37.7430   23.2980   40.5740 H   0  0  0  0  0  0  0  0  0  0  0  0
   35.9390   24.8220   42.6360 H   0  0  0  0  0  0  0  0  0  0  0  0
   37.7350   24.2040   42.8920 H   0  0  0  0  0  0  0  0  0  0  0  0
   38.2830   27.8380   42.5880 C   0  0  0  0  0  0  0  0  0  0  0  0
   37.9050   28.1870   43.6790 O   0  0  0  0  0  0  0  0  0  0  0  0
   39.3130   30.6890   42.0250 Cl  0  0  0  0  0  0  0  0  0  0  0  0
   37.7700   30.1050   41.4220 C   0  0  0  0  0  0  0  0  0  0  0  0
   37.4560   28.7720   41.7640 C   0  0  0  0  0  0  0  0  0  0  0  0
   36.2270   28.4040   41.2430 C   0  0  0  0  0  0  0  0  0  0  0  0
   35.3590   29.1120   40.5060 C   0  0  0  0  0  0  0  0  0  0  0  0
   35.7340   30.3950   40.2180 C   0  0  0  0  0  0  0  0  0  0  0  0
   36.9080   30.8930   40.6580 C   0  0  0  0  0  0  0  0  0  0  0  0
   35.8430   27.3720   41.3900 H   0  0  0  0  0  0  0  0  0  0  0  0
   34.4170   28.7940   40.1220 H   0  0  0  0  0  0  0  0  0  0  0  0
   35.1730   31.1180   39.6410 H   0  0  0  0  0  0  0  0  0  0  0  0
   37.4180   32.2840   40.3980 C   0  0  0  0  0  2  0  0  0  0  0  0
   37.2700   32.6890   38.9580 C   0  0  0  0  0  2  0  0  0  0  0  0
   37.8530   33.6310   38.8420 H   0  0  0  0  0  0  0  0  0  0  0  0
  1 17  1  0  0  0  0
  2  1  2  0  0  0  0
  3  2  1  0  0  0  0
  4  3  2  0  0  0  0
  4  5  1  0  0  0  0
  5  6  2  0  0  0  0
  6  1  1  0  0  0  0
  7  3  1  0  0  0  0
  8  5  1  0  0  0  0
  9  2  1  0  0  0  0
  9 11  1  0  0  0  0
 10  9  1  0  0  0  0
 10 11  1  0  0  0  0
 11 15  1  0  0  0  0
 11 16  1  0  0  0  0
 12  9  1  0  0  0  0
 13 10  1  0  0  0  0
 14 10  1  0  0  0  0
 17 18  2  0  0  0  0
 20 21  1  0  0  0  0
 20 19  1  0  0  0  0
 21 17  1  0  0  0  0
 22 26  1  0  0  0  0
 22 21  2  0  0  0  0
 23 22  1  0  0  0  0
 24 23  2  0  0  0  0
 24 25  1  0  0  0  0
 25 20  2  0  0  0  0
 27 23  1  0  0  0  0
 28 24  1  0  0  0  0
 29 25  1  0  0  0  0
 30 29  1  0  0  0  0
 31 30  1  0  0  0  0
M  END
>  <minimizedAffinity>
-5.03012419

$$$$

 OpenBabel03242523213D

 31 33  0  0  0  0  0  0  0  0999 V2000
   38.2730   29.8520   41.5920 C   0  0  0  0  0  0  0  0  0  0  0  0
   38.2980   28.5920   42.0510 C   0  0  0  0  0  0  0  0  0  0  0  0
   39.5300   28.1750   42.5210 C   0  0  0  0  0  0  0  0  0  0  0  0
   40.6060   29.0750   42.4730 N   0  0  0  0  0  0  0  0  0  0  0  0
   40.5060   30.2950   42.0030 C   0  0  0  0  0  0  0  0  0  0  0  0
   39.2940   30.7490   41.5280 N   0  0  0  0  0  0  0  0  0  0  0  0
   39.7600   27.2090   42.9320 H   0  0  0  0  0  0  0  0  0  0  0  0
   41.4240   30.8740   42.0280 H   0  0  0  0  0  0  0  0  0  0  0  0
   37.2350   27.6520   41.9880 C   0  0  0  0  0  0  0  0  0  0  0  0
   37.1810   26.3910   42.4950 C   0  0  0  0  0  0  0  0  0  0  0  0
   36.4380   27.3910   43.3350 C   0  0  0  0  0  0  0  0  0  0  0  0
   36.6000   27.7620   41.0890 H   0  0  0  0  0  0  0  0  0  0  0  0
   36.5270   25.5370   42.2160 H   0  0  0  0  0  0  0  0  0  0  0  0
   38.0830   25.9740   43.0400 H   0  0  0  0  0  0  0  0  0  0  0  0
   35.3450   27.4910   43.2020 H   0  0  0  0  0  0  0  0  0  0  0  0
   36.9320   27.8420   44.2160 H   0  0  0  0  0  0  0  0  0  0  0  0
   37.0910   30.5880   41.1240 C   0  0  0  0  0  0  0  0  0  0  0  0
   36.1310   31.3010   41.2880 O   0  0  0  0  0  0  0  0  0  0  0  0
   34.6600   29.0330   40.0380 Cl  0  0  0  0  0  0  0  0  0  0  0  0
   35.9140   29.6790   38.9910 C   0  0  0  0  0  0  0  0  0  0  0  0
   36.9510   30.3730   39.6510 C   0  0  0  0  0  0  0  0  0  0  0  0
   37.8850   30.8450   38.7450 C   0  0  0  0  0  0  0  0  0  0  0  0
   37.9230   30.7290   37.4090 C   0  0  0  0  0  0  0  0  0  0  0  0
   36.8840   30.0430   36.8450 C   0  0  0  0  0  0  0  0  0  0  0  0
   35.8960   29.5240   37.6040 C   0  0  0  0  0  0  0  0  0  0  0  0
   38.7520   31.4450   39.0960 H   0  0  0  0  0  0  0  0  0  0  0  0
   38.6620   31.1060   36.7410 H   0  0  0  0  0  0  0  0  0  0  0  0
   36.7370   29.8430   35.7920 H   0  0  0  0  0  0  0  0  0  0  0  0
   34.7100   28.7570   37.0880 C   0  0  0  0  0  2  0  0  0  0  0  0
   34.7710   28.5370   35.6030 C   0  0  0  0  0  2  0  0  0  0  0  0
   33.7690   28.1500   35.3070 H   0  0  0  0  0  0  0  0  0  0  0  0
  1  2  1  0  0  0  0
  2  3  2  0  0  0  0
  3  7  1  0  0  0  0
  4  3  1  0  0  0  0
  5  8  1  0  0  0  0
  5  4  2  0  0  0  0
  6  1  2  0  0  0  0
  6  5  1  0  0  0  0
  9  2  1  0  0  0  0
  9 10  1  0  0  0  0
  9 11  1  0  0  0  0
 10 14  1  0  0  0  0
 10 11  1  0  0  0  0
 11 16  1  0  0  0  0
 12  9  1  0  0  0  0
 13 10  1  0  0  0  0
 15 11  1  0  0  0  0
 17 18  2  0  0  0  0
 17  1  1  0  0  0  0
 20 21  1  0  0  0  0
 20 19  1  0  0  0  0
 21 17  1  0  0  0  0
 22 26  1  0  0  0  0
 22 21  2  0  0  0  0
 23 22  1  0  0  0  0
 24 23  2  0  0  0  0
 24 25  1  0  0  0  0
 25 20  2  0  0  0  0
 27 23  1  0  0  0  0
 28 24  1  0  0  0  0
 29 25  1  0  0  0  0
 30 29  1  0  0  0  0
 31 30  1  0  0  0  0
M  END
>  <minimizedAffinity>
-5.02182007

$$$$

 OpenBabel03242523213D

 31 33  0  0  0  0  0  0  0  0999 V2000
   36.9520   26.4850   41.4480 C   0  0  0  0  0  0  0  0  0  0  0  0
   36.5900   26.9640   40.2480 C   0  0  0  0  0  0  0  0  0  0  0  0
   36.4520   26.0040   39.2620 C   0  0  0  0  0  0  0  0  0  0  0  0
   36.6980   24.6630   39.5940 N   0  0  0  0  0  0  0  0  0  0  0  0
   37.0540   24.2680   40.7930 C   0  0  0  0  0  0  0  0  0  0  0  0
   37.1990   25.1950   41.8030 N   0  0  0  0  0  0  0  0  0  0  0  0
   36.1690   26.1780   38.2410 H   0  0  0  0  0  0  0  0  0  0  0  0
   37.2100   23.1990   40.8980 H   0  0  0  0  0  0  0  0  0  0  0  0
   36.4590   28.3330   39.8940 C   0  0  0  0  0  0  0  0  0  0  0  0
   35.7230   28.8880   38.8940 C   0  0  0  0  0  0  0  0  0  0  0  0
   35.0740   29.0260   40.2410 C   0  0  0  0  0  0  0  0  0  0  0  0
   37.3520   28.9400   40.1340 H   0  0  0  0  0  0  0  0  0  0  0  0
   35.8270   29.8760   38.3950 H   0  0  0  0  0  0  0  0  0  0  0  0
   35.1240   28.2140   38.2070 H   0  0  0  0  0  0  0  0  0  0  0  0
   35.2050   29.9700   40.8020 H   0  0  0  0  0  0  0  0  0  0  0  0
   34.3020   28.2990   40.5550 H   0  0  0  0  0  0  0  0  0  0  0  0
   37.0790   27.2530   42.6930 C   0  0  0  0  0  0  0  0  0  0  0  0
   36.6360   27.7880   43.6800 O   0  0  0  0  0  0  0  0  0  0  0  0
   38.1340   30.0530   41.9480 Cl  0  0  0  0  0  0  0  0  0  0  0  0
   39.1710   28.7980   42.6090 C   0  0  0  0  0  0  0  0  0  0  0  0
   38.5240   27.5780   42.9040 C   0  0  0  0  0  0  0  0  0  0  0  0
   39.4190   26.6560   43.4200 C   0  0  0  0  0  0  0  0  0  0  0  0
   40.7340   26.7730   43.6560 C   0  0  0  0  0  0  0  0  0  0  0  0
   41.2860   27.9840   43.3440 C   0  0  0  0  0  0  0  0  0  0  0  0
   40.5350   28.9820   42.8320 C   0  0  0  0  0  0  0  0  0  0  0  0
   39.0670   25.6510   43.7390 H   0  0  0  0  0  0  0  0  0  0  0  0
   41.3940   26.0380   44.0560 H   0  0  0  0  0  0  0  0  0  0  0  0
   42.3230   28.2710   43.4590 H   0  0  0  0  0  0  0  0  0  0  0  0
   41.0390   30.3490   42.4560 C   0  0  0  0  0  2  0  0  0  0  0  0
   42.2000   30.7850   43.3050 C   0  0  0  0  0  2  0  0  0  0  0  0
   42.3540   31.8660   43.0830 H   0  0  0  0  0  0  0  0  0  0  0  0
  1  6  1  0  0  0  0
  1 17  1  0  0  0  0
  2  1  2  0  0  0  0
  3  4  2  0  0  0  0
  3  2  1  0  0  0  0
  4  5  1  0  0  0  0
  5  8  1  0  0  0  0
  5  6  2  0  0  0  0
  7  3  1  0  0  0  0
  9 12  1  0  0  0  0
  9 11  1  0  0  0  0
  9  2  1  0  0  0  0
 10  9  1  0  0  0  0
 10 11  1  0  0  0  0
 11 16  1  0  0  0  0
 11 15  1  0  0  0  0
 13 10  1  0  0  0  0
 14 10  1  0  0  0  0
 17 21  1  0  0  0  0
 17 18  2  0  0  0  0
 19 20  1  0  0  0  0
 20 25  2  0  0  0  0
 20 21  1  0  0  0  0
 21 22  2  0  0  0  0
 22 23  1  0  0  0  0
 22 26  1  0  0  0  0
 23 27  1  0  0  0  0
 24 28  1  0  0  0  0
 24 23  2  0  0  0  0
 25 24  1  0  0  0  0
 29 25  1  0  0  0  0
 29 30  1  0  0  0  0
 31 30  1  0  0  0  0
M  END
>  <minimizedAffinity>
-4.97002745

$$$$

 OpenBabel03242523213D

 31 33  0  0  0  0  0  0  0  0999 V2000
   36.8920   28.2180   41.6110 C   0  0  0  0  0  0  0  0  0  0  0  0
   37.3380   26.9630   41.7680 C   0  0  0  0  0  0  0  0  0  0  0  0
   38.3010   26.8110   42.7490 C   0  0  0  0  0  0  0  0  0  0  0  0
   38.7140   27.9470   43.4640 N   0  0  0  0  0  0  0  0  0  0  0  0
   38.2340   29.1480   43.2510 C   0  0  0  0  0  0  0  0  0  0  0  0
   37.2700   29.3390   42.2830 N   0  0  0  0  0  0  0  0  0  0  0  0
   38.7810   25.8940   43.0310 H   0  0  0  0  0  0  0  0  0  0  0  0
   38.6500   29.9280   43.8800 H   0  0  0  0  0  0  0  0  0  0  0  0
   37.0000   25.8430   40.9610 C   0  0  0  0  0  0  0  0  0  0  0  0
   37.7260   24.7190   40.7170 C   0  0  0  0  0  0  0  0  0  0  0  0
   36.6350   24.5020   41.7260 C   0  0  0  0  0  0  0  0  0  0  0  0
   36.3290   26.0920   40.1180 H   0  0  0  0  0  0  0  0  0  0  0  0
   37.6510   23.9890   39.8810 H   0  0  0  0  0  0  0  0  0  0  0  0
   38.7540   24.6110   41.1810 H   0  0  0  0  0  0  0  0  0  0  0  0
   35.6730   24.0740   41.3880 H   0  0  0  0  0  0  0  0  0  0  0  0
   36.8700   24.5510   42.8060 H   0  0  0  0  0  0  0  0  0  0  0  0
   35.8120   28.6570   40.7180 C   0  0  0  0  0  0  0  0  0  0  0  0
   34.6620   28.9260   40.4690 O   0  0  0  0  0  0  0  0  0  0  0  0
   36.7640   31.5070   40.0280 Cl  0  0  0  0  0  0  0  0  0  0  0  0
   36.8670   30.1740   38.8880 C   0  0  0  0  0  0  0  0  0  0  0  0
   36.3950   28.9330   39.3690 C   0  0  0  0  0  0  0  0  0  0  0  0
   36.5190   27.9490   38.4040 C   0  0  0  0  0  0  0  0  0  0  0  0
   36.9990   28.0260   37.1530 C   0  0  0  0  0  0  0  0  0  0  0  0
   37.4350   29.2620   36.7620 C   0  0  0  0  0  0  0  0  0  0  0  0
   37.3770   30.3190   37.5980 C   0  0  0  0  0  0  0  0  0  0  0  0
   36.2260   26.9020   38.6300 H   0  0  0  0  0  0  0  0  0  0  0  0
   37.0780   27.2440   36.4340 H   0  0  0  0  0  0  0  0  0  0  0  0
   37.8510   29.5250   35.7980 H   0  0  0  0  0  0  0  0  0  0  0  0
   37.8300   31.7160   37.2710 C   0  0  0  0  0  2  0  0  0  0  0  0
   39.2980   31.9150   37.5190 C   0  0  0  0  0  2  0  0  0  0  0  0
   39.4770   33.0120   37.4420 H   0  0  0  0  0  0  0  0  0  0  0  0
  1  2  2  0  0  0  0
  1  6  1  0  0  0  0
  2  3  1  0  0  0  0
  3  7  1  0  0  0  0
  3  4  2  0  0  0  0
  5  4  1  0  0  0  0
  5  8  1  0  0  0  0
  6  5  2  0  0  0  0
  9 11  1  0  0  0  0
  9  2  1  0  0  0  0
 10  9  1  0  0  0  0
 10 14  1  0  0  0  0
 10 11  1  0  0  0  0
 11 16  1  0  0  0  0
 12  9  1  0  0  0  0
 13 10  1  0  0  0  0
 15 11  1  0  0  0  0
 17  1  1  0  0  0  0
 18 17  2  0  0  0  0
 20 21  1  0  0  0  0
 20 19  1  0  0  0  0
 21 17  1  0  0  0  0
 22 26  1  0  0  0  0
 22 21  2  0  0  0  0
 23 22  1  0  0  0  0
 24 23  2  0  0  0  0
 24 25  1  0  0  0  0
 25 20  2  0  0  0  0
 27 23  1  0  0  0  0
 28 24  1  0  0  0  0
 29 30  1  0  0  0  0
 29 25  1  0  0  0  0
 31 30  1  0  0  0  0
M  END
>  <minimizedAffinity>
-4.95166349

$$$$

 OpenBabel03242523213D

 31 33  0  0  0  0  0  0  0  0999 V2000
   37.3090   30.7340   39.8510 C   0  0  0  0  0  0  0  0  0  0  0  0
   38.3450   30.3990   39.0680 C   0  0  0  0  0  0  0  0  0  0  0  0
   39.2850   31.4000   38.8960 C   0  0  0  0  0  0  0  0  0  0  0  0
   39.0740   32.6330   39.5310 N   0  0  0  0  0  0  0  0  0  0  0  0
   38.0300   32.8910   40.2820 C   0  0  0  0  0  0  0  0  0  0  0  0
   37.0730   31.9180   40.4800 N   0  0  0  0  0  0  0  0  0  0  0  0
   40.1840   31.3330   38.3130 H   0  0  0  0  0  0  0  0  0  0  0  0
   38.0030   33.8890   40.7060 H   0  0  0  0  0  0  0  0  0  0  0  0
   38.4900   29.1900   38.3360 C   0  0  0  0  0  0  0  0  0  0  0  0
   39.5140   28.7990   37.5310 C   0  0  0  0  0  0  0  0  0  0  0  0
   39.5550   28.1510   38.8860 C   0  0  0  0  0  0  0  0  0  0  0  0
   37.5270   28.7440   38.0250 H   0  0  0  0  0  0  0  0  0  0  0  0
   39.5340   28.0370   36.7220 H   0  0  0  0  0  0  0  0  0  0  0  0
   40.3920   29.4970   37.3730 H   0  0  0  0  0  0  0  0  0  0  0  0
   39.1310   27.1380   39.0060 H   0  0  0  0  0  0  0  0  0  0  0  0
   40.1970   28.5800   39.6790 H   0  0  0  0  0  0  0  0  0  0  0  0
   36.2190   29.8500   40.2840 C   0  0  0  0  0  0  0  0  0  0  0  0
   35.0790   29.4560   40.2640 O   0  0  0  0  0  0  0  0  0  0  0  0
   36.2380   26.8250   39.6900 Cl  0  0  0  0  0  0  0  0  0  0  0  0
   36.8300   27.4940   41.2020 C   0  0  0  0  0  0  0  0  0  0  0  0
   36.7580   28.9000   41.3070 C   0  0  0  0  0  0  0  0  0  0  0  0
   37.2480   29.3320   42.5270 C   0  0  0  0  0  0  0  0  0  0  0  0
   37.7470   28.6240   43.5520 C   0  0  0  0  0  0  0  0  0  0  0  0
   37.7830   27.2690   43.3740 C   0  0  0  0  0  0  0  0  0  0  0  0
   37.3390   26.7040   42.2330 C   0  0  0  0  0  0  0  0  0  0  0  0
   37.2960   30.4170   42.7600 H   0  0  0  0  0  0  0  0  0  0  0  0
   38.1160   28.9920   44.4810 H   0  0  0  0  0  0  0  0  0  0  0  0
   38.1460   26.5340   44.0800 H   0  0  0  0  0  0  0  0  0  0  0  0
   37.3340   25.2290   41.9330 C   0  0  0  0  0  2  0  0  0  0  0  0
   38.6170   24.5590   42.3360 C   0  0  0  0  0  2  0  0  0  0  0  0
   38.5840   23.5380   41.8910 H   0  0  0  0  0  0  0  0  0  0  0  0
  1 17  1  0  0  0  0
  1  6  1  0  0  0  0
  2  1  2  0  0  0  0
  3  2  1  0  0  0  0
  3  4  2  0  0  0  0
  4  5  1  0  0  0  0
  5  6  2  0  0  0  0
  5  8  1  0  0  0  0
  7  3  1  0  0  0  0
  9 11  1  0  0  0  0
  9  2  1  0  0  0  0
 10  9  1  0  0  0  0
 10 11  1  0  0  0  0
 11 15  1  0  0  0  0
 11 16  1  0  0  0  0
 12  9  1  0  0  0  0
 13 10  1  0  0  0  0
 14 10  1  0  0  0  0
 17 21  1  0  0  0  0
 18 17  2  0  0  0  0
 19 20  1  0  0  0  0
 20 21  2  0  0  0  0
 20 25  1  0  0  0  0
 21 22  1  0  0  0  0
 22 26  1  0  0  0  0
 22 23  2  0  0  0  0
 23 27  1  0  0  0  0
 24 23  1  0  0  0  0
 24 28  1  0  0  0  0
 25 24  2  0  0  0  0
 29 25  1  0  0  0  0
 29 30  1  0  0  0  0
 31 30  1  0  0  0  0
M  END
>  <minimizedAffinity>
-4.91640425

$$$$
