
 OpenBabel03242523203D

 31 33  0  0  0  0  0  0  0  0999 V2000
   47.4880   32.8190   43.9360 C   0  0  0  0  0  0  0  0  0  0  0  0
   48.3280   33.3600   43.0410 C   0  0  0  0  0  0  0  0  0  0  0  0
   49.1820   32.4580   42.4340 C   0  0  0  0  0  0  0  0  0  0  0  0
   49.1000   31.1060   42.8000 N   0  0  0  0  0  0  0  0  0  0  0  0
   48.2530   30.6490   43.6910 C   0  0  0  0  0  0  0  0  0  0  0  0
   47.3820   31.5170   44.3160 N   0  0  0  0  0  0  0  0  0  0  0  0
   49.9230   32.6860   41.6910 H   0  0  0  0  0  0  0  0  0  0  0  0
   48.3060   29.5800   43.8710 H   0  0  0  0  0  0  0  0  0  0  0  0
   48.4840   34.7450   42.7630 C   0  0  0  0  0  0  0  0  0  0  0  0
   49.5040   35.3760   42.1230 C   0  0  0  0  0  0  0  0  0  0  0  0
   48.2920   35.1920   41.2530 C   0  0  0  0  0  0  0  0  0  0  0  0
   47.9940   35.4020   43.5060 H   0  0  0  0  0  0  0  0  0  0  0  0
   49.8160   36.4420   42.1550 H   0  0  0  0  0  0  0  0  0  0  0  0
   50.3840   34.7680   41.7490 H   0  0  0  0  0  0  0  0  0  0  0  0
   47.5780   36.0290   41.1500 H   0  0  0  0  0  0  0  0  0  0  0  0
   48.2420   34.3320   40.5590 H   0  0  0  0  0  0  0  0  0  0  0  0
   46.4150   33.5140   44.6590 C   0  0  0  0  0  0  0  0  0  0  0  0
   45.8470   33.8720   45.6610 O   0  0  0  0  0  0  0  0  0  0  0  0
   44.5940   31.7110   42.9440 Cl  0  0  0  0  0  0  0  0  0  0  0  0
   44.6080   33.4610   42.7890 C   0  0  0  0  0  0  0  0  0  0  0  0
   45.4940   34.1350   43.6570 C   0  0  0  0  0  0  0  0  0  0  0  0
   45.4320   35.5040   43.4620 C   0  0  0  0  0  0  0  0  0  0  0  0
   44.6850   36.2180   42.6070 C   0  0  0  0  0  0  0  0  0  0  0  0
   43.8530   35.4930   41.7990 C   0  0  0  0  0  0  0  0  0  0  0  0
   43.8050   34.1470   41.8770 C   0  0  0  0  0  0  0  0  0  0  0  0
   46.0430   36.1880   44.0900 H   0  0  0  0  0  0  0  0  0  0  0  0
   44.6650   37.2760   42.4830 H   0  0  0  0  0  0  0  0  0  0  0  0
   43.1790   35.8840   41.0490 H   0  0  0  0  0  0  0  0  0  0  0  0
   42.9280   33.2550   41.0410 C   0  0  0  0  0  0  0  0  0  0  0  0
   41.4800   33.6490   41.1100 C   0  0  0  0  0  0  0  0  0  0  0  0
   40.9120   32.8180   40.6320 H   0  0  0  0  0  0  0  0  0  0  0  0
  1  6  1  0  0  0  0
  1 17  1  0  0  0  0
  2  1  2  0  0  0  0
  3  4  2  0  0  0  0
  3  2  1  0  0  0  0
  4  5  1  0  0  0  0
  5  8  1  0  0  0  0
  5  6  2  0  0  0  0
  7  3  1  0  0  0  0
  9  2  1  0  0  0  0
  9 12  1  0  0  0  0
 10 13  1  0  0  0  0
 10  9  1  0  0  0  0
 11 10  1  0  0  0  0
 11  9  1  0  0  0  0
 14 10  1  0  0  0  0
 15 11  1  0  0  0  0
 16 11  1  0  0  0  0
 17 18  2  0  0  0  0
 20 19  1  0  0  0  0
 20 21  1  0  0  0  0
 21 17  1  0  0  0  0
 22 21  2  0  0  0  0
 22 26  1  0  0  0  0
 23 22  1  0  0  0  0
 24 25  1  0  0  0  0
 24 23  2  0  0  0  0
 25 20  2  0  0  0  0
 27 23  1  0  0  0  0
 28 24  1  0  0  0  0
 29 30  1  0  0  0  0
 29 25  1  0  0  0  0
 31 30  1  0  0  0  0
M  END
>  <minimizedAffinity>
-5.01834536

>  <minimizedRMSD>
0.584291041

$$$$
