
 OpenBabel03242510103D

 22 23  0  0  0  0  0  0  0  0999 V2000
   39.4400   30.2860   42.5560 Br  0  0  0  0  0  0  0  0  0  0  0  0
   37.8370   29.9790   41.5420 C   0  0  0  0  0  0  0  0  0  0  0  0
   37.5230   30.8020   40.4930 C   0  0  0  0  0  0  0  0  0  0  0  0
   36.3600   30.5920   39.7490 C   0  0  0  0  0  0  0  0  0  0  0  0
   35.5450   29.5550   40.0820 C   0  0  0  0  0  0  0  0  0  0  0  0
   35.9040   28.7520   41.1460 C   0  0  0  0  0  0  0  0  0  0  0  0
   37.0320   28.9240   41.9000 C   0  0  0  0  0  0  0  0  0  0  0  0
   36.1320   31.2460   38.9260 H   0  0  0  0  0  0  0  0  0  0  0  0
   34.6460   29.3830   39.5060 H   0  0  0  0  0  0  0  0  0  0  0  0
   35.2340   27.9240   41.3880 H   0  0  0  0  0  0  0  0  0  0  0  0
   38.9790   34.1600   40.4050 C   0  0  0  0  0  0  0  0  0  0  0  0
   40.0900   34.0260   39.5660 C   0  0  0  0  0  0  0  0  0  0  0  0
   40.3240   32.7530   39.0370 C   0  0  0  0  0  0  0  0  0  0  0  0
   39.4830   31.7390   39.3540 N   0  0  0  0  0  0  0  0  0  0  0  0
   38.4180   31.9060   40.1680 C   0  0  0  0  0  0  0  0  0  0  0  0
   38.1720   33.1310   40.6920 N   0  0  0  0  0  0  0  0  0  0  0  0
   38.7010   35.0900   40.8740 H   0  0  0  0  0  0  0  0  0  0  0  0
   40.7110   34.9000   39.3660 H   0  0  0  0  0  0  0  0  0  0  0  0
   41.1820   32.6390   38.3790 H   0  0  0  0  0  0  0  0  0  0  0  0
   37.4220   28.0650   43.0430 C   0  0  0  0  0  2  0  0  0  0  0  0
   36.2200   27.3960   43.6790 C   0  0  0  0  0  2  0  0  0  0  0  0
   35.3640   27.4910   42.9920 H   0  0  0  0  0  0  0  0  0  0  0  0
  2  7  1  0  0  0  0
  2  1  1  0  0  0  0
  3  2  2  0  0  0  0
  4  5  2  0  0  0  0
  4  3  1  0  0  0  0
  5  6  1  0  0  0  0
  6 10  1  0  0  0  0
  6  7  2  0  0  0  0
  7 20  1  0  0  0  0
  8  4  1  0  0  0  0
  9  5  1  0  0  0  0
 11 16  1  0  0  0  0
 11 17  1  0  0  0  0
 12 11  2  0  0  0  0
 13 14  2  0  0  0  0
 13 12  1  0  0  0  0
 14 15  1  0  0  0  0
 15  3  1  0  0  0  0
 15 16  2  0  0  0  0
 18 12  1  0  0  0  0
 19 13  1  0  0  0  0
 20 21  1  0  0  0  0
 22 21  1  0  0  0  0
M  END
>  <minimizedAffinity>
-4.64743996

$$$$

 OpenBabel03242510103D

 22 23  0  0  0  0  0  0  0  0999 V2000
   37.8130   28.3020   39.1150 Br  0  0  0  0  0  0  0  0  0  0  0  0
   37.4910   28.0360   40.9910 C   0  0  0  0  0  0  0  0  0  0  0  0
   37.5890   29.0920   41.8590 C   0  0  0  0  0  0  0  0  0  0  0  0
   37.3610   28.9110   43.2250 C   0  0  0  0  0  0  0  0  0  0  0  0
   37.0380   27.6700   43.6800 C   0  0  0  0  0  0  0  0  0  0  0  0
   36.9500   26.6390   42.7670 C   0  0  0  0  0  0  0  0  0  0  0  0
   37.1670   26.7720   41.4230 C   0  0  0  0  0  0  0  0  0  0  0  0
   37.4380   29.7530   43.8910 H   0  0  0  0  0  0  0  0  0  0  0  0
   36.8530   27.5250   44.7350 H   0  0  0  0  0  0  0  0  0  0  0  0
   36.6840   25.6540   43.1590 H   0  0  0  0  0  0  0  0  0  0  0  0
   39.5760   32.0260   40.9400 C   0  0  0  0  0  0  0  0  0  0  0  0
   38.6460   32.8980   40.3620 C   0  0  0  0  0  0  0  0  0  0  0  0
   37.3240   32.4470   40.2970 C   0  0  0  0  0  0  0  0  0  0  0  0
   37.0170   31.2210   40.7840 N   0  0  0  0  0  0  0  0  0  0  0  0
   37.9420   30.4060   41.3370 C   0  0  0  0  0  0  0  0  0  0  0  0
   39.2300   30.8220   41.4110 N   0  0  0  0  0  0  0  0  0  0  0  0
   40.6230   32.2610   41.0420 H   0  0  0  0  0  0  0  0  0  0  0  0
   38.9860   33.8670   39.9980 H   0  0  0  0  0  0  0  0  0  0  0  0
   36.5920   33.1190   39.8540 H   0  0  0  0  0  0  0  0  0  0  0  0
   37.0740   25.6670   40.4390 C   0  0  0  0  0  2  0  0  0  0  0  0
   36.6410   24.3690   41.0910 C   0  0  0  0  0  2  0  0  0  0  0  0
   36.2430   24.5980   42.0930 H   0  0  0  0  0  0  0  0  0  0  0  0
  1  2  1  0  0  0  0
  2  7  2  0  0  0  0
  2  3  1  0  0  0  0
  3  4  2  0  0  0  0
  4  5  1  0  0  0  0
  4  8  1  0  0  0  0
  5  9  1  0  0  0  0
  6 10  1  0  0  0  0
  6  5  2  0  0  0  0
  7  6  1  0  0  0  0
 11 17  1  0  0  0  0
 11 16  1  0  0  0  0
 12 11  2  0  0  0  0
 13 12  1  0  0  0  0
 13 14  2  0  0  0  0
 14 15  1  0  0  0  0
 15 16  2  0  0  0  0
 15  3  1  0  0  0  0
 18 12  1  0  0  0  0
 19 13  1  0  0  0  0
 20 21  1  0  0  0  0
 20  7  1  0  0  0  0
 21 22  1  0  0  0  0
M  END
>  <minimizedAffinity>
-4.58435154

$$$$

 OpenBabel03242510103D

 22 23  0  0  0  0  0  0  0  0999 V2000
   37.5470   28.1040   39.0200 Br  0  0  0  0  0  0  0  0  0  0  0  0
   37.4100   27.9980   40.9340 C   0  0  0  0  0  0  0  0  0  0  0  0
   37.6150   29.1170   41.6980 C   0  0  0  0  0  0  0  0  0  0  0  0
   37.5220   29.0540   43.0890 C   0  0  0  0  0  0  0  0  0  0  0  0
   37.2220   27.8630   43.6750 C   0  0  0  0  0  0  0  0  0  0  0  0
   37.0230   26.7630   42.8640 C   0  0  0  0  0  0  0  0  0  0  0  0
   37.1070   26.7820   41.4990 C   0  0  0  0  0  0  0  0  0  0  0  0
   37.6820   29.9440   43.6730 H   0  0  0  0  0  0  0  0  0  0  0  0
   37.1420   27.8080   44.7520 H   0  0  0  0  0  0  0  0  0  0  0  0
   36.7790   25.8210   43.3610 H   0  0  0  0  0  0  0  0  0  0  0  0
   37.2140   32.3990   40.1250 C   0  0  0  0  0  0  0  0  0  0  0  0
   38.5170   32.7680   39.7740 C   0  0  0  0  0  0  0  0  0  0  0  0
   39.5310   31.8610   40.0940 C   0  0  0  0  0  0  0  0  0  0  0  0
   39.2100   30.6990   40.7130 N   0  0  0  0  0  0  0  0  0  0  0  0
   37.9390   30.3750   41.0360 C   0  0  0  0  0  0  0  0  0  0  0  0
   36.9390   31.2390   40.7350 N   0  0  0  0  0  0  0  0  0  0  0  0
   36.3520   33.0170   39.9340 H   0  0  0  0  0  0  0  0  0  0  0  0
   38.6790   33.7240   39.2770 H   0  0  0  0  0  0  0  0  0  0  0  0
   40.5470   32.1350   39.8210 H   0  0  0  0  0  0  0  0  0  0  0  0
   36.8940   25.6050   40.6240 C   0  0  0  0  0  2  0  0  0  0  0  0
   36.8400   24.3160   41.4190 C   0  0  0  0  0  2  0  0  0  0  0  0
   36.7110   24.5680   42.4840 H   0  0  0  0  0  0  0  0  0  0  0  0
  1  2  1  0  0  0  0
  2  7  2  0  0  0  0
  2  3  1  0  0  0  0
  3  4  2  0  0  0  0
  4  8  1  0  0  0  0
  4  5  1  0  0  0  0
  5  9  1  0  0  0  0
  6 10  1  0  0  0  0
  6  5  2  0  0  0  0
  7  6  1  0  0  0  0
 11 16  1  0  0  0  0
 12 13  1  0  0  0  0
 12 11  2  0  0  0  0
 13 14  2  0  0  0  0
 14 15  1  0  0  0  0
 15  3  1  0  0  0  0
 16 15  2  0  0  0  0
 17 11  1  0  0  0  0
 18 12  1  0  0  0  0
 19 13  1  0  0  0  0
 20 21  1  0  0  0  0
 20  7  1  0  0  0  0
 21 22  1  0  0  0  0
M  END
>  <minimizedAffinity>
-4.54752684

$$$$

 OpenBabel03242510103D

 22 23  0  0  0  0  0  0  0  0999 V2000
   40.4250   29.5660   41.2080 Br  0  0  0  0  0  0  0  0  0  0  0  0
   38.8460   28.6990   41.8770 C   0  0  0  0  0  0  0  0  0  0  0  0
   37.6140   29.0530   41.3930 C   0  0  0  0  0  0  0  0  0  0  0  0
   36.4580   28.4340   41.8730 C   0  0  0  0  0  0  0  0  0  0  0  0
   36.5750   27.4700   42.8270 C   0  0  0  0  0  0  0  0  0  0  0  0
   37.8380   27.1470   43.2820 C   0  0  0  0  0  0  0  0  0  0  0  0
   38.9930   27.7300   42.8410 C   0  0  0  0  0  0  0  0  0  0  0  0
   35.4990   28.7220   41.4780 H   0  0  0  0  0  0  0  0  0  0  0  0
   35.6850   26.9820   43.1980 H   0  0  0  0  0  0  0  0  0  0  0  0
   37.9030   26.3670   44.0450 H   0  0  0  0  0  0  0  0  0  0  0  0
   37.3260   32.3570   39.8420 C   0  0  0  0  0  0  0  0  0  0  0  0
   37.3490   32.0890   38.4690 C   0  0  0  0  0  0  0  0  0  0  0  0
   37.4680   30.7470   38.0950 C   0  0  0  0  0  0  0  0  0  0  0  0
   37.5530   29.7960   39.0570 N   0  0  0  0  0  0  0  0  0  0  0  0
   37.5260   30.0920   40.3750 C   0  0  0  0  0  0  0  0  0  0  0  0
   37.4110   31.3860   40.7600 N   0  0  0  0  0  0  0  0  0  0  0  0
   37.2430   33.3510   40.2490 H   0  0  0  0  0  0  0  0  0  0  0  0
   37.2750   32.9200   37.7670 H   0  0  0  0  0  0  0  0  0  0  0  0
   37.4820   30.5280   37.0300 H   0  0  0  0  0  0  0  0  0  0  0  0
   40.3510   27.3860   43.3270 C   0  0  0  0  0  2  0  0  0  0  0  0
   40.4660   25.9170   43.6800 C   0  0  0  0  0  2  0  0  0  0  0  0
   39.6000   25.3860   43.2520 H   0  0  0  0  0  0  0  0  0  0  0  0
  1  2  1  0  0  0  0
  2  7  1  0  0  0  0
  3  4  1  0  0  0  0
  3  2  2  0  0  0  0
  4  5  2  0  0  0  0
  5  9  1  0  0  0  0
  5  6  1  0  0  0  0
  6 10  1  0  0  0  0
  7  6  2  0  0  0  0
  7 20  1  0  0  0  0
  8  4  1  0  0  0  0
 11 17  1  0  0  0  0
 11 16  1  0  0  0  0
 12 11  2  0  0  0  0
 13 12  1  0  0  0  0
 13 14  2  0  0  0  0
 14 15  1  0  0  0  0
 15 16  2  0  0  0  0
 15  3  1  0  0  0  0
 18 12  1  0  0  0  0
 19 13  1  0  0  0  0
 20 21  1  0  0  0  0
 22 21  1  0  0  0  0
M  END
>  <minimizedAffinity>
-4.42905998

$$$$

 OpenBabel03242510103D

 22 23  0  0  0  0  0  0  0  0999 V2000
   38.1820   30.3290   39.9060 Br  0  0  0  0  0  0  0  0  0  0  0  0
   37.7200   29.2950   41.4580 C   0  0  0  0  0  0  0  0  0  0  0  0
   36.6820   28.4020   41.4010 C   0  0  0  0  0  0  0  0  0  0  0  0
   36.3340   27.6470   42.5220 C   0  0  0  0  0  0  0  0  0  0  0  0
   37.0430   27.8090   43.6720 C   0  0  0  0  0  0  0  0  0  0  0  0
   38.0810   28.7190   43.6800 C   0  0  0  0  0  0  0  0  0  0  0  0
   38.4530   29.4800   42.6060 C   0  0  0  0  0  0  0  0  0  0  0  0
   35.5180   26.9470   42.4580 H   0  0  0  0  0  0  0  0  0  0  0  0
   36.7830   27.2220   44.5420 H   0  0  0  0  0  0  0  0  0  0  0  0
   38.6370   28.8260   44.6140 H   0  0  0  0  0  0  0  0  0  0  0  0
   35.6470   27.1480   38.1210 C   0  0  0  0  0  0  0  0  0  0  0  0
   34.5610   27.9600   37.7750 C   0  0  0  0  0  0  0  0  0  0  0  0
   34.1970   28.9430   38.6990 C   0  0  0  0  0  0  0  0  0  0  0  0
   34.8960   29.0590   39.8540 N   0  0  0  0  0  0  0  0  0  0  0  0
   35.9410   28.2570   40.1550 C   0  0  0  0  0  0  0  0  0  0  0  0
   36.3120   27.2970   39.2730 N   0  0  0  0  0  0  0  0  0  0  0  0
   36.0160   26.3540   37.4920 H   0  0  0  0  0  0  0  0  0  0  0  0
   34.0590   27.7930   36.8220 H   0  0  0  0  0  0  0  0  0  0  0  0
   33.3570   29.5840   38.4380 H   0  0  0  0  0  0  0  0  0  0  0  0
   39.5660   30.4580   42.6090 C   0  0  0  0  0  2  0  0  0  0  0  0
   40.9180   29.7730   42.5760 C   0  0  0  0  0  2  0  0  0  0  0  0
   40.7670   28.7180   42.2950 H   0  0  0  0  0  0  0  0  0  0  0  0
  1  2  1  0  0  0  0
  2  7  1  0  0  0  0
  3  2  2  0  0  0  0
  3  4  1  0  0  0  0
  4  5  2  0  0  0  0
  5  6  1  0  0  0  0
  5  9  1  0  0  0  0
  6 10  1  0  0  0  0
  7 20  1  0  0  0  0
  7  6  2  0  0  0  0
  8  4  1  0  0  0  0
 11 16  1  0  0  0  0
 12 11  2  0  0  0  0
 12 13  1  0  0  0  0
 13 14  2  0  0  0  0
 14 15  1  0  0  0  0
 15  3  1  0  0  0  0
 16 15  2  0  0  0  0
 17 11  1  0  0  0  0
 18 12  1  0  0  0  0
 19 13  1  0  0  0  0
 21 20  1  0  0  0  0
 22 21  1  0  0  0  0
M  END
>  <minimizedAffinity>
-4.32038689

$$$$

 OpenBabel03242510103D

 22 23  0  0  0  0  0  0  0  0999 V2000
   36.3480   27.0590   39.2380 Br  0  0  0  0  0  0  0  0  0  0  0  0
   37.0160   27.4200   41.0040 C   0  0  0  0  0  0  0  0  0  0  0  0
   37.7880   26.4890   41.6470 C   0  0  0  0  0  0  0  0  0  0  0  0
   38.2770   26.7370   42.9310 C   0  0  0  0  0  0  0  0  0  0  0  0
   37.9760   27.9200   43.5330 C   0  0  0  0  0  0  0  0  0  0  0  0
   37.1950   28.8270   42.8440 C   0  0  0  0  0  0  0  0  0  0  0  0
   36.6960   28.6230   41.5880 C   0  0  0  0  0  0  0  0  0  0  0  0
   38.8860   25.9960   43.4190 H   0  0  0  0  0  0  0  0  0  0  0  0
   38.3560   28.1210   44.5240 H   0  0  0  0  0  0  0  0  0  0  0  0
   36.9730   29.7700   43.3490 H   0  0  0  0  0  0  0  0  0  0  0  0
   37.5280   23.0020   40.5630 C   0  0  0  0  0  0  0  0  0  0  0  0
   38.6290   22.8270   39.7180 C   0  0  0  0  0  0  0  0  0  0  0  0
   39.4560   23.9380   39.5310 C   0  0  0  0  0  0  0  0  0  0  0  0
   39.1600   25.0990   40.1620 N   0  0  0  0  0  0  0  0  0  0  0  0
   38.0870   25.2320   40.9730 C   0  0  0  0  0  0  0  0  0  0  0  0
   37.2710   24.1670   41.1690 N   0  0  0  0  0  0  0  0  0  0  0  0
   36.8180   22.2200   40.7800 H   0  0  0  0  0  0  0  0  0  0  0  0
   38.7890   21.8540   39.2530 H   0  0  0  0  0  0  0  0  0  0  0  0
   40.3180   23.8110   38.8800 H   0  0  0  0  0  0  0  0  0  0  0  0
   35.8570   29.5930   40.8440 C   0  0  0  0  0  2  0  0  0  0  0  0
   36.4960   30.9670   40.7960 C   0  0  0  0  0  2  0  0  0  0  0  0
   37.5520   30.8710   41.0960 H   0  0  0  0  0  0  0  0  0  0  0  0
  1  2  1  0  0  0  0
  2  7  2  0  0  0  0
  2  3  1  0  0  0  0
  3  4  2  0  0  0  0
  4  8  1  0  0  0  0
  4  5  1  0  0  0  0
  5  9  1  0  0  0  0
  6 10  1  0  0  0  0
  6  5  2  0  0  0  0
  7  6  1  0  0  0  0
 11 17  1  0  0  0  0
 11 16  1  0  0  0  0
 12 11  2  0  0  0  0
 13 12  1  0  0  0  0
 13 14  2  0  0  0  0
 14 15  1  0  0  0  0
 15 16  2  0  0  0  0
 15  3  1  0  0  0  0
 18 12  1  0  0  0  0
 19 13  1  0  0  0  0
 20  7  1  0  0  0  0
 21 20  1  0  0  0  0
 21 22  1  0  0  0  0
M  END
>  <minimizedAffinity>
-4.26793337

$$$$

 OpenBabel03242510103D

 22 23  0  0  0  0  0  0  0  0999 V2000
   39.8400   30.2910   41.5610 Br  0  0  0  0  0  0  0  0  0  0  0  0
   38.0060   29.8770   41.1620 C   0  0  0  0  0  0  0  0  0  0  0  0
   37.5350   28.6050   41.3530 C   0  0  0  0  0  0  0  0  0  0  0  0
   36.2060   28.2900   41.0640 C   0  0  0  0  0  0  0  0  0  0  0  0
   35.3850   29.2670   40.5930 C   0  0  0  0  0  0  0  0  0  0  0  0
   35.9060   30.5340   40.4190 C   0  0  0  0  0  0  0  0  0  0  0  0
   37.2000   30.8840   40.6880 C   0  0  0  0  0  0  0  0  0  0  0  0
   35.8520   27.2860   41.2230 H   0  0  0  0  0  0  0  0  0  0  0  0
   34.3530   29.0320   40.3740 H   0  0  0  0  0  0  0  0  0  0  0  0
   35.2230   31.3010   40.0440 H   0  0  0  0  0  0  0  0  0  0  0  0
   39.4290   26.5020   43.6750 C   0  0  0  0  0  0  0  0  0  0  0  0
   40.1670   25.6550   42.8410 C   0  0  0  0  0  0  0  0  0  0  0  0
   39.9920   25.8260   41.4650 C   0  0  0  0  0  0  0  0  0  0  0  0
   39.1400   26.7800   41.0180 N   0  0  0  0  0  0  0  0  0  0  0  0
   38.4440   27.5820   41.8540 C   0  0  0  0  0  0  0  0  0  0  0  0
   38.5980   27.4330   43.1930 N   0  0  0  0  0  0  0  0  0  0  0  0
   39.4770   26.4610   44.7510 H   0  0  0  0  0  0  0  0  0  0  0  0
   40.8290   24.9160   43.2910 H   0  0  0  0  0  0  0  0  0  0  0  0
   40.5650   25.1760   40.8070 H   0  0  0  0  0  0  0  0  0  0  0  0
   37.7630   32.2420   40.5030 C   0  0  0  0  0  2  0  0  0  0  0  0
   37.1930   32.9250   39.2760 C   0  0  0  0  0  2  0  0  0  0  0  0
   36.3020   32.3650   38.9480 H   0  0  0  0  0  0  0  0  0  0  0  0
  2  3  1  0  0  0  0
  2  1  1  0  0  0  0
  3 15  1  0  0  0  0
  4  8  1  0  0  0  0
  4  3  2  0  0  0  0
  5  4  1  0  0  0  0
  6  5  2  0  0  0  0
  6  7  1  0  0  0  0
  7  2  2  0  0  0  0
  9  5  1  0  0  0  0
 10  6  1  0  0  0  0
 11 17  1  0  0  0  0
 12 18  1  0  0  0  0
 12 11  2  0  0  0  0
 13 12  1  0  0  0  0
 14 13  2  0  0  0  0
 14 15  1  0  0  0  0
 15 16  2  0  0  0  0
 16 11  1  0  0  0  0
 19 13  1  0  0  0  0
 20  7  1  0  0  0  0
 21 20  1  0  0  0  0
 22 21  1  0  0  0  0
M  END
>  <minimizedAffinity>
-4.22389221

$$$$

 OpenBabel03242510103D

 22 23  0  0  0  0  0  0  0  0999 V2000
   39.4080   28.4130   42.4210 Br  0  0  0  0  0  0  0  0  0  0  0  0
   38.6260   26.6810   42.1330 C   0  0  0  0  0  0  0  0  0  0  0  0
   37.5500   26.5470   41.2950 C   0  0  0  0  0  0  0  0  0  0  0  0
   36.9700   25.2960   41.0790 C   0  0  0  0  0  0  0  0  0  0  0  0
   37.4920   24.2100   41.7130 C   0  0  0  0  0  0  0  0  0  0  0  0
   38.5770   24.3960   42.5460 C   0  0  0  0  0  0  0  0  0  0  0  0
   39.1730   25.6030   42.7860 C   0  0  0  0  0  0  0  0  0  0  0  0
   36.1280   25.2090   40.4140 H   0  0  0  0  0  0  0  0  0  0  0  0
   37.0520   23.2370   41.5450 H   0  0  0  0  0  0  0  0  0  0  0  0
   38.9790   23.5060   43.0380 H   0  0  0  0  0  0  0  0  0  0  0  0
   35.5280   29.5330   40.6620 C   0  0  0  0  0  0  0  0  0  0  0  0
   35.9690   29.9830   39.4120 C   0  0  0  0  0  0  0  0  0  0  0  0
   36.9790   29.2340   38.8000 C   0  0  0  0  0  0  0  0  0  0  0  0
   37.4660   28.1380   39.4300 N   0  0  0  0  0  0  0  0  0  0  0  0
   37.0150   27.7320   40.6370 C   0  0  0  0  0  0  0  0  0  0  0  0
   36.0360   28.4430   41.2490 N   0  0  0  0  0  0  0  0  0  0  0  0
   34.7600   30.0290   41.2320 H   0  0  0  0  0  0  0  0  0  0  0  0
   35.5170   30.8760   38.9830 H   0  0  0  0  0  0  0  0  0  0  0  0
   37.3250   29.5720   37.8260 H   0  0  0  0  0  0  0  0  0  0  0  0
   40.3380   25.8060   43.6800 C   0  0  0  0  0  2  0  0  0  0  0  0
   41.6160   25.2710   43.0670 C   0  0  0  0  0  2  0  0  0  0  0  0
   41.4400   25.0890   41.9950 H   0  0  0  0  0  0  0  0  0  0  0  0
  2  1  1  0  0  0  0
  2  7  1  0  0  0  0
  3  2  2  0  0  0  0
  4  3  1  0  0  0  0
  4  5  2  0  0  0  0
  5  6  1  0  0  0  0
  6  7  2  0  0  0  0
  6 10  1  0  0  0  0
  7 20  1  0  0  0  0
  8  4  1  0  0  0  0
  9  5  1  0  0  0  0
 11 17  1  0  0  0  0
 11 16  1  0  0  0  0
 12 11  2  0  0  0  0
 13 12  1  0  0  0  0
 13 14  2  0  0  0  0
 14 15  1  0  0  0  0
 15 16  2  0  0  0  0
 15  3  1  0  0  0  0
 18 12  1  0  0  0  0
 19 13  1  0  0  0  0
 21 20  1  0  0  0  0
 22 21  1  0  0  0  0
M  END
>  <minimizedAffinity>
-4.21580362

$$$$

 OpenBabel03242510103D

 22 23  0  0  0  0  0  0  0  0999 V2000
   36.5290   27.1620   38.2950 Br  0  0  0  0  0  0  0  0  0  0  0  0
   36.7100   26.2800   39.9930 C   0  0  0  0  0  0  0  0  0  0  0  0
   36.9870   27.0110   41.1180 C   0  0  0  0  0  0  0  0  0  0  0  0
   37.1240   26.3820   42.3570 C   0  0  0  0  0  0  0  0  0  0  0  0
   36.9760   25.0320   42.4300 C   0  0  0  0  0  0  0  0  0  0  0  0
   36.6970   24.3390   41.2690 C   0  0  0  0  0  0  0  0  0  0  0  0
   36.5570   24.9150   40.0370 C   0  0  0  0  0  0  0  0  0  0  0  0
   37.3370   26.9730   43.2310 H   0  0  0  0  0  0  0  0  0  0  0  0
   37.0740   24.5390   43.3870 H   0  0  0  0  0  0  0  0  0  0  0  0
   36.5790   23.2560   41.3570 H   0  0  0  0  0  0  0  0  0  0  0  0
   38.5380   30.2930   40.6390 C   0  0  0  0  0  0  0  0  0  0  0  0
   37.4770   31.1930   40.7830 C   0  0  0  0  0  0  0  0  0  0  0  0
   36.2200   30.6410   41.0450 C   0  0  0  0  0  0  0  0  0  0  0  0
   36.0940   29.2960   41.1460 N   0  0  0  0  0  0  0  0  0  0  0  0
   37.1430   28.4560   41.0020 C   0  0  0  0  0  0  0  0  0  0  0  0
   38.3710   28.9690   40.7470 N   0  0  0  0  0  0  0  0  0  0  0  0
   39.5500   30.5990   40.4310 H   0  0  0  0  0  0  0  0  0  0  0  0
   37.6740   32.2610   40.6870 H   0  0  0  0  0  0  0  0  0  0  0  0
   35.3890   31.3330   41.1640 H   0  0  0  0  0  0  0  0  0  0  0  0
   36.2570   24.1750   38.7880 C   0  0  0  0  0  2  0  0  0  0  0  0
   35.0670   23.2510   38.9540 C   0  0  0  0  0  2  0  0  0  0  0  0
   34.5350   23.5290   39.8790 H   0  0  0  0  0  0  0  0  0  0  0  0
  1  2  1  0  0  0  0
  2  7  2  0  0  0  0
  2  3  1  0  0  0  0
  3  4  2  0  0  0  0
  4  5  1  0  0  0  0
  4  8  1  0  0  0  0
  5  9  1  0  0  0  0
  6 10  1  0  0  0  0
  6  5  2  0  0  0  0
  7  6  1  0  0  0  0
 11 16  2  0  0  0  0
 11 12  1  0  0  0  0
 12 13  2  0  0  0  0
 13 14  1  0  0  0  0
 13 19  1  0  0  0  0
 15  3  1  0  0  0  0
 15 14  2  0  0  0  0
 16 15  1  0  0  0  0
 17 11  1  0  0  0  0
 18 12  1  0  0  0  0
 20 21  1  0  0  0  0
 20  7  1  0  0  0  0
 21 22  1  0  0  0  0
M  END
>  <minimizedAffinity>
-4.19545555

$$$$
