
 OpenBabel03242521213D

 30 32  0  0  0  0  0  0  0  0999 V2000
   45.8960   33.7100   44.8910 C   0  0  0  0  0  0  0  0  0  0  0  0
   45.1100   34.7760   45.1380 C   0  0  0  0  0  0  0  0  0  0  0  0
   44.7970   35.7400   44.2150 C   0  0  0  0  0  0  0  0  0  0  0  0
   45.3360   35.5680   42.9890 N   0  0  0  0  0  0  0  0  0  0  0  0
   46.1140   34.5240   42.7230 C   0  0  0  0  0  0  0  0  0  0  0  0
   46.4260   33.5620   43.6430 N   0  0  0  0  0  0  0  0  0  0  0  0
   44.6680   34.9220   46.1300 H   0  0  0  0  0  0  0  0  0  0  0  0
   44.1530   36.6000   44.4400 H   0  0  0  0  0  0  0  0  0  0  0  0
   46.6950   34.3470   41.3780 C   0  0  0  0  0  0  0  0  0  0  0  0
   46.0350   33.6050   40.4310 C   0  0  0  0  0  0  0  0  0  0  0  0
   46.5190   33.3900   39.1520 C   0  0  0  0  0  0  0  0  0  0  0  0
   47.7380   33.9560   38.8110 C   0  0  0  0  0  0  0  0  0  0  0  0
   48.3930   34.6890   39.7420 C   0  0  0  0  0  0  0  0  0  0  0  0
   47.8930   34.8880   41.0040 C   0  0  0  0  0  0  0  0  0  0  0  0
   45.0690   33.1540   40.6920 H   0  0  0  0  0  0  0  0  0  0  0  0
   45.9320   32.7850   38.4510 H   0  0  0  0  0  0  0  0  0  0  0  0
   48.1320   33.7970   37.8120 H   0  0  0  0  0  0  0  0  0  0  0  0
   49.3410   35.1110   39.4280 H   0  0  0  0  0  0  0  0  0  0  0  0
   48.6890   35.7100   41.9300 C   0  0  0  0  0  2  0  0  0  0  0  0
   49.8270   34.8940   42.4600 C   0  0  0  0  0  2  0  0  0  0  0  0
   49.9340   33.9670   41.8810 H   0  0  0  0  0  0  0  0  0  0  0  0
   46.1550   30.4670   46.5900 C   0  0  0  0  0  0  0  0  0  0  0  0
   46.7490   30.8210   47.8060 C   0  0  0  0  0  0  0  0  0  0  0  0
   47.0580   32.1570   48.0390 C   0  0  0  0  0  0  0  0  0  0  0  0
   46.7690   33.0850   47.0670 N   0  0  0  0  0  0  0  0  0  0  0  0
   46.1970   32.7080   45.9100 C   0  0  0  0  0  0  0  0  0  0  0  0
   45.8960   31.4250   45.6750 N   0  0  0  0  0  0  0  0  0  0  0  0
   45.9090   29.4310   46.3940 H   0  0  0  0  0  0  0  0  0  0  0  0
   46.9520   30.0320   48.5350 H   0  0  0  0  0  0  0  0  0  0  0  0
   47.5210   32.4470   48.9830 H   0  0  0  0  0  0  0  0  0  0  0  0
  1  2  1  0  0  0  0
  1 26  1  0  0  0  0
  2  7  1  0  0  0  0
  3  8  1  0  0  0  0
  3  2  2  0  0  0  0
  4  3  1  0  0  0  0
  5  4  2  0  0  0  0
  5  6  1  0  0  0  0
  6  1  2  0  0  0  0
  9  5  1  0  0  0  0
 10 15  1  0  0  0  0
 10  9  2  0  0  0  0
 11 10  1  0  0  0  0
 12 11  2  0  0  0  0
 12 13  1  0  0  0  0
 13 14  2  0  0  0  0
 14  9  1  0  0  0  0
 14 19  1  0  0  0  0
 16 11  1  0  0  0  0
 17 12  1  0  0  0  0
 18 13  1  0  0  0  0
 19 20  1  0  0  0  0
 21 20  1  0  0  0  0
 22 23  1  0  0  0  0
 23 24  2  0  0  0  0
 23 29  1  0  0  0  0
 24 30  1  0  0  0  0
 25 24  1  0  0  0  0
 26 25  2  0  0  0  0
 27 26  1  0  0  0  0
 27 22  2  0  0  0  0
 28 22  1  0  0  0  0
M  END
>  <minimizedAffinity>
-6.05335712

>  <minimizedRMSD>
0.984198809

$$$$
