
 OpenBabel03242521213D

 30 32  0  0  0  0  0  0  0  0999 V2000
   45.8820   33.5070   45.2700 C   0  0  0  0  0  0  0  0  0  0  0  0
   45.1010   34.5650   45.5680 C   0  0  0  0  0  0  0  0  0  0  0  0
   44.7190   35.5260   44.6680 C   0  0  0  0  0  0  0  0  0  0  0  0
   45.1800   35.3600   43.4100 N   0  0  0  0  0  0  0  0  0  0  0  0
   45.9510   34.3250   43.0930 C   0  0  0  0  0  0  0  0  0  0  0  0
   46.3320   33.3660   43.9910 N   0  0  0  0  0  0  0  0  0  0  0  0
   44.7220   34.7060   46.5860 H   0  0  0  0  0  0  0  0  0  0  0  0
   44.0810   36.3780   44.9350 H   0  0  0  0  0  0  0  0  0  0  0  0
   46.4470   34.1540   41.7140 C   0  0  0  0  0  0  0  0  0  0  0  0
   45.6470   33.5830   40.7560 C   0  0  0  0  0  0  0  0  0  0  0  0
   46.0430   33.3850   39.4450 C   0  0  0  0  0  0  0  0  0  0  0  0
   47.3200   33.7860   39.0810 C   0  0  0  0  0  0  0  0  0  0  0  0
   48.1130   34.3500   40.0230 C   0  0  0  0  0  0  0  0  0  0  0  0
   47.6970   34.5360   41.3160 C   0  0  0  0  0  0  0  0  0  0  0  0
   44.6340   33.2630   41.0360 H   0  0  0  0  0  0  0  0  0  0  0  0
   45.3460   32.9220   38.7370 H   0  0  0  0  0  0  0  0  0  0  0  0
   47.6470   33.6380   38.0560 H   0  0  0  0  0  0  0  0  0  0  0  0
   49.1010   34.6480   39.6900 H   0  0  0  0  0  0  0  0  0  0  0  0
   48.6430   35.1670   42.2520 C   0  0  0  0  0  2  0  0  0  0  0  0
   49.3240   36.3120   41.5680 C   0  0  0  0  0  2  0  0  0  0  0  0
   48.8140   36.5530   40.6250 H   0  0  0  0  0  0  0  0  0  0  0  0
   46.1360   30.2990   47.0330 C   0  0  0  0  0  0  0  0  0  0  0  0
   46.9490   30.6290   48.1240 C   0  0  0  0  0  0  0  0  0  0  0  0
   47.4040   31.9370   48.2510 C   0  0  0  0  0  0  0  0  0  0  0  0
   47.0410   32.8620   47.3020 N   0  0  0  0  0  0  0  0  0  0  0  0
   46.2580   32.5090   46.2670 C   0  0  0  0  0  0  0  0  0  0  0  0
   45.8140   31.2530   46.1340 N   0  0  0  0  0  0  0  0  0  0  0  0
   45.7740   29.2860   46.9210 H   0  0  0  0  0  0  0  0  0  0  0  0
   47.2000   29.8430   48.8420 H   0  0  0  0  0  0  0  0  0  0  0  0
   48.0380   32.2080   49.0960 H   0  0  0  0  0  0  0  0  0  0  0  0
  1  2  1  0  0  0  0
  1 26  1  0  0  0  0
  2  7  1  0  0  0  0
  3  8  1  0  0  0  0
  3  2  2  0  0  0  0
  4  3  1  0  0  0  0
  5  4  2  0  0  0  0
  5  6  1  0  0  0  0
  6  1  2  0  0  0  0
  9  5  1  0  0  0  0
 10 15  1  0  0  0  0
 10  9  2  0  0  0  0
 11 10  1  0  0  0  0
 12 11  2  0  0  0  0
 12 13  1  0  0  0  0
 13 14  2  0  0  0  0
 14  9  1  0  0  0  0
 14 19  1  0  0  0  0
 16 11  1  0  0  0  0
 17 12  1  0  0  0  0
 18 13  1  0  0  0  0
 20 19  1  0  0  0  0
 21 20  1  0  0  0  0
 22 23  1  0  0  0  0
 23 24  2  0  0  0  0
 23 29  1  0  0  0  0
 24 30  1  0  0  0  0
 25 24  1  0  0  0  0
 26 25  2  0  0  0  0
 27 26  1  0  0  0  0
 27 22  2  0  0  0  0
 28 22  1  0  0  0  0
M  END
>  <minimizedAffinity>
-5.84229565

>  <minimizedRMSD>
0.831716537

$$$$
