
 OpenBabel03242521213D

 30 32  0  0  0  0  0  0  0  0999 V2000
   45.8810   33.5080   45.2710 C   0  0  0  0  0  0  0  0  0  0  0  0
   45.1000   34.5660   45.5680 C   0  0  0  0  0  0  0  0  0  0  0  0
   44.7190   35.5260   44.6680 C   0  0  0  0  0  0  0  0  0  0  0  0
   45.1800   35.3600   43.4100 N   0  0  0  0  0  0  0  0  0  0  0  0
   45.9500   34.3260   43.0940 C   0  0  0  0  0  0  0  0  0  0  0  0
   46.3320   33.3670   43.9920 N   0  0  0  0  0  0  0  0  0  0  0  0
   44.7220   34.7070   46.5870 H   0  0  0  0  0  0  0  0  0  0  0  0
   44.0810   36.3790   44.9350 H   0  0  0  0  0  0  0  0  0  0  0  0
   46.4460   34.1540   41.7150 C   0  0  0  0  0  0  0  0  0  0  0  0
   45.6460   33.5840   40.7570 C   0  0  0  0  0  0  0  0  0  0  0  0
   46.0430   33.3860   39.4450 C   0  0  0  0  0  0  0  0  0  0  0  0
   47.3190   33.7860   39.0810 C   0  0  0  0  0  0  0  0  0  0  0  0
   48.1130   34.3500   40.0230 C   0  0  0  0  0  0  0  0  0  0  0  0
   47.6970   34.5360   41.3170 C   0  0  0  0  0  0  0  0  0  0  0  0
   44.6330   33.2640   41.0360 H   0  0  0  0  0  0  0  0  0  0  0  0
   45.3450   32.9230   38.7380 H   0  0  0  0  0  0  0  0  0  0  0  0
   47.6460   33.6380   38.0570 H   0  0  0  0  0  0  0  0  0  0  0  0
   49.1010   34.6470   39.6900 H   0  0  0  0  0  0  0  0  0  0  0  0
   48.6430   35.1670   42.2520 C   0  0  0  0  0  2  0  0  0  0  0  0
   49.3240   36.3120   41.5680 C   0  0  0  0  0  2  0  0  0  0  0  0
   48.8130   36.5530   40.6270 H   0  0  0  0  0  0  0  0  0  0  0  0
   46.1340   30.3000   47.0350 C   0  0  0  0  0  0  0  0  0  0  0  0
   46.9480   30.6300   48.1250 C   0  0  0  0  0  0  0  0  0  0  0  0
   47.4050   31.9370   48.2510 C   0  0  0  0  0  0  0  0  0  0  0  0
   47.0410   32.8620   47.3020 N   0  0  0  0  0  0  0  0  0  0  0  0
   46.2570   32.5100   46.2680 C   0  0  0  0  0  0  0  0  0  0  0  0
   45.8120   31.2540   46.1360 N   0  0  0  0  0  0  0  0  0  0  0  0
   45.7710   29.2870   46.9230 H   0  0  0  0  0  0  0  0  0  0  0  0
   47.1980   29.8440   48.8430 H   0  0  0  0  0  0  0  0  0  0  0  0
   48.0390   32.2080   49.0960 H   0  0  0  0  0  0  0  0  0  0  0  0
  1  2  1  0  0  0  0
  1 26  1  0  0  0  0
  2  7  1  0  0  0  0
  3  8  1  0  0  0  0
  3  2  2  0  0  0  0
  4  3  1  0  0  0  0
  5  4  2  0  0  0  0
  5  6  1  0  0  0  0
  6  1  2  0  0  0  0
  9  5  1  0  0  0  0
 10 15  1  0  0  0  0
 10  9  2  0  0  0  0
 11 10  1  0  0  0  0
 12 11  2  0  0  0  0
 12 13  1  0  0  0  0
 13 14  2  0  0  0  0
 14  9  1  0  0  0  0
 14 19  1  0  0  0  0
 16 11  1  0  0  0  0
 17 12  1  0  0  0  0
 18 13  1  0  0  0  0
 20 19  1  0  0  0  0
 21 20  1  0  0  0  0
 22 23  1  0  0  0  0
 23 24  2  0  0  0  0
 23 29  1  0  0  0  0
 24 30  1  0  0  0  0
 25 24  1  0  0  0  0
 26 25  2  0  0  0  0
 27 26  1  0  0  0  0
 27 22  2  0  0  0  0
 28 22  1  0  0  0  0
M  END
>  <minimizedAffinity>
-5.8447752

>  <minimizedRMSD>
0.827427983

$$$$
