
 OpenBabel03242521223D

 30 32  0  0  0  0  0  0  0  0999 V2000
   39.2950   31.6100   39.0930 C   0  0  0  0  0  0  0  0  0  0  0  0
   38.5070   32.7040   39.0920 C   0  0  0  0  0  0  0  0  0  0  0  0
   37.3780   32.8480   39.8550 C   0  0  0  0  0  0  0  0  0  0  0  0
   37.0740   31.7970   40.6480 N   0  0  0  0  0  0  0  0  0  0  0  0
   37.8360   30.7100   40.6660 C   0  0  0  0  0  0  0  0  0  0  0  0
   38.9630   30.5650   39.9040 N   0  0  0  0  0  0  0  0  0  0  0  0
   38.7480   33.5600   38.4520 H   0  0  0  0  0  0  0  0  0  0  0  0
   36.7520   33.7490   39.8370 H   0  0  0  0  0  0  0  0  0  0  0  0
   37.4950   29.5700   41.5380 C   0  0  0  0  0  0  0  0  0  0  0  0
   38.0250   29.4790   42.8000 C   0  0  0  0  0  0  0  0  0  0  0  0
   37.7560   28.4390   43.6720 C   0  0  0  0  0  0  0  0  0  0  0  0
   36.9030   27.4330   43.2450 C   0  0  0  0  0  0  0  0  0  0  0  0
   36.3760   27.5180   42.0000 C   0  0  0  0  0  0  0  0  0  0  0  0
   36.6580   28.5590   41.1540 C   0  0  0  0  0  0  0  0  0  0  0  0
   38.7020   30.2720   43.1470 H   0  0  0  0  0  0  0  0  0  0  0  0
   38.2190   28.4370   44.6660 H   0  0  0  0  0  0  0  0  0  0  0  0
   36.6800   26.6090   43.9170 H   0  0  0  0  0  0  0  0  0  0  0  0
   35.7140   26.7080   41.7130 H   0  0  0  0  0  0  0  0  0  0  0  0
   36.0210   28.5500   39.8270 C   0  0  0  0  0  2  0  0  0  0  0  0
   34.6350   29.1060   39.9410 C   0  0  0  0  0  2  0  0  0  0  0  0
   34.4950   29.5890   40.9170 H   0  0  0  0  0  0  0  0  0  0  0  0
   41.9920   30.1630   37.0680 C   0  0  0  0  0  0  0  0  0  0  0  0
   42.7260   31.2980   36.7050 C   0  0  0  0  0  0  0  0  0  0  0  0
   42.2990   32.5450   37.1490 C   0  0  0  0  0  0  0  0  0  0  0  0
   41.1700   32.6210   37.9310 N   0  0  0  0  0  0  0  0  0  0  0  0
   40.4910   31.5080   38.2610 C   0  0  0  0  0  0  0  0  0  0  0  0
   40.8920   30.3030   37.8380 N   0  0  0  0  0  0  0  0  0  0  0  0
   42.3120   29.1860   36.7300 H   0  0  0  0  0  0  0  0  0  0  0  0
   43.6130   31.1650   36.0810 H   0  0  0  0  0  0  0  0  0  0  0  0
   42.8610   33.4380   36.8740 H   0  0  0  0  0  0  0  0  0  0  0  0
  1  6  1  0  0  0  0
  2  1  2  0  0  0  0
  2  3  1  0  0  0  0
  3  4  2  0  0  0  0
  4  5  1  0  0  0  0
  5  9  1  0  0  0  0
  6  5  2  0  0  0  0
  7  2  1  0  0  0  0
  8  3  1  0  0  0  0
  9 10  1  0  0  0  0
 10 15  1  0  0  0  0
 10 11  2  0  0  0  0
 11 16  1  0  0  0  0
 12 11  1  0  0  0  0
 12 17  1  0  0  0  0
 13 12  2  0  0  0  0
 14  9  2  0  0  0  0
 14 13  1  0  0  0  0
 18 13  1  0  0  0  0
 19 20  1  0  0  0  0
 19 14  1  0  0  0  0
 20 21  1  0  0  0  0
 22 27  1  0  0  0  0
 23 22  2  0  0  0  0
 23 24  1  0  0  0  0
 24 25  2  0  0  0  0
 25 26  1  0  0  0  0
 26  1  1  0  0  0  0
 27 26  2  0  0  0  0
 28 22  1  0  0  0  0
 29 23  1  0  0  0  0
 30 24  1  0  0  0  0
M  END
>  <minimizedAffinity>
-5.32658625

$$$$

 OpenBabel03242521223D

 30 32  0  0  0  0  0  0  0  0999 V2000
   38.2790   30.5700   39.8850 C   0  0  0  0  0  0  0  0  0  0  0  0
   37.2960   31.3520   40.3750 C   0  0  0  0  0  0  0  0  0  0  0  0
   36.1970   30.8860   41.0470 C   0  0  0  0  0  0  0  0  0  0  0  0
   36.1380   29.5460   41.2070 N   0  0  0  0  0  0  0  0  0  0  0  0
   37.0950   28.7570   40.7340 C   0  0  0  0  0  0  0  0  0  0  0  0
   38.1920   29.2210   40.0620 N   0  0  0  0  0  0  0  0  0  0  0  0
   37.3380   32.4390   40.2490 H   0  0  0  0  0  0  0  0  0  0  0  0
   35.4090   31.5430   41.4380 H   0  0  0  0  0  0  0  0  0  0  0  0
   37.0200   27.2950   40.9170 C   0  0  0  0  0  0  0  0  0  0  0  0
   36.6450   26.4840   39.8750 C   0  0  0  0  0  0  0  0  0  0  0  0
   36.5460   25.1070   39.9710 C   0  0  0  0  0  0  0  0  0  0  0  0
   36.8430   24.5150   41.1900 C   0  0  0  0  0  0  0  0  0  0  0  0
   37.2140   25.3100   42.2220 C   0  0  0  0  0  0  0  0  0  0  0  0
   37.3040   26.6730   42.1010 C   0  0  0  0  0  0  0  0  0  0  0  0
   36.4090   26.9450   38.9060 H   0  0  0  0  0  0  0  0  0  0  0  0
   36.2400   24.5270   39.0930 H   0  0  0  0  0  0  0  0  0  0  0  0
   36.7710   23.4350   41.2830 H   0  0  0  0  0  0  0  0  0  0  0  0
   37.4350   24.8010   43.1530 H   0  0  0  0  0  0  0  0  0  0  0  0
   37.7250   27.4360   43.2880 C   0  0  0  0  0  2  0  0  0  0  0  0
   39.1110   27.0210   43.6740 C   0  0  0  0  0  2  0  0  0  0  0  0
   39.5690   26.4240   42.8750 H   0  0  0  0  0  0  0  0  0  0  0  0
   40.8230   32.9490   38.7280 C   0  0  0  0  0  0  0  0  0  0  0  0
   41.5850   32.1610   37.8580 C   0  0  0  0  0  0  0  0  0  0  0  0
   41.2300   30.8290   37.6720 C   0  0  0  0  0  0  0  0  0  0  0  0
   40.1420   30.3320   38.3480 N   0  0  0  0  0  0  0  0  0  0  0  0
   39.4330   31.1180   39.1760 C   0  0  0  0  0  0  0  0  0  0  0  0
   39.7660   32.4020   39.3640 N   0  0  0  0  0  0  0  0  0  0  0  0
   41.0870   33.9870   38.8830 H   0  0  0  0  0  0  0  0  0  0  0  0
   42.4380   32.6220   37.3520 H   0  0  0  0  0  0  0  0  0  0  0  0
   41.8150   30.2050   36.9960 H   0  0  0  0  0  0  0  0  0  0  0  0
  1  6  2  0  0  0  0
  1  2  1  0  0  0  0
  2  3  2  0  0  0  0
  3  4  1  0  0  0  0
  3  8  1  0  0  0  0
  5  9  1  0  0  0  0
  5  4  2  0  0  0  0
  6  5  1  0  0  0  0
  7  2  1  0  0  0  0
  9 14  1  0  0  0  0
 10 11  1  0  0  0  0
 10  9  2  0  0  0  0
 11 12  2  0  0  0  0
 12 17  1  0  0  0  0
 12 13  1  0  0  0  0
 13 18  1  0  0  0  0
 14 13  2  0  0  0  0
 14 19  1  0  0  0  0
 15 10  1  0  0  0  0
 16 11  1  0  0  0  0
 19 20  1  0  0  0  0
 21 20  1  0  0  0  0
 22 28  1  0  0  0  0
 22 27  1  0  0  0  0
 23 22  2  0  0  0  0
 24 23  1  0  0  0  0
 24 25  2  0  0  0  0
 25 26  1  0  0  0  0
 26 27  2  0  0  0  0
 26  1  1  0  0  0  0
 29 23  1  0  0  0  0
 30 24  1  0  0  0  0
M  END
>  <minimizedAffinity>
-5.29094744

$$$$

 OpenBabel03242521223D

 30 32  0  0  0  0  0  0  0  0999 V2000
   37.8740   30.3850   40.9400 C   0  0  0  0  0  0  0  0  0  0  0  0
   36.5370   30.3820   40.7660 C   0  0  0  0  0  0  0  0  0  0  0  0
   35.7270   29.3010   40.9970 C   0  0  0  0  0  0  0  0  0  0  0  0
   36.3550   28.1850   41.4270 N   0  0  0  0  0  0  0  0  0  0  0  0
   37.6710   28.1660   41.6050 C   0  0  0  0  0  0  0  0  0  0  0  0
   38.4800   29.2440   41.3750 N   0  0  0  0  0  0  0  0  0  0  0  0
   36.0210   31.2840   40.4190 H   0  0  0  0  0  0  0  0  0  0  0  0
   34.6390   29.3230   40.8480 H   0  0  0  0  0  0  0  0  0  0  0  0
   38.3440   26.9410   42.0770 C   0  0  0  0  0  0  0  0  0  0  0  0
   39.1600   26.9800   43.1800 C   0  0  0  0  0  0  0  0  0  0  0  0
   39.8290   25.8750   43.6790 C   0  0  0  0  0  0  0  0  0  0  0  0
   39.6640   24.6630   43.0260 C   0  0  0  0  0  0  0  0  0  0  0  0
   38.8600   24.6190   41.9380 C   0  0  0  0  0  0  0  0  0  0  0  0
   38.2070   25.7270   41.4630 C   0  0  0  0  0  0  0  0  0  0  0  0
   39.2960   27.9360   43.7030 H   0  0  0  0  0  0  0  0  0  0  0  0
   40.4630   25.9870   44.5650 H   0  0  0  0  0  0  0  0  0  0  0  0
   40.1820   23.7860   43.4050 H   0  0  0  0  0  0  0  0  0  0  0  0
   38.7620   23.6490   41.4630 H   0  0  0  0  0  0  0  0  0  0  0  0
   37.3520   25.5590   40.2760 C   0  0  0  0  0  2  0  0  0  0  0  0
   36.4830   24.3530   40.4630 C   0  0  0  0  0  2  0  0  0  0  0  0
   36.5200   24.0120   41.5050 H   0  0  0  0  0  0  0  0  0  0  0  0
   38.8290   33.8920   40.4290 C   0  0  0  0  0  0  0  0  0  0  0  0
   40.2060   33.7890   40.1990 C   0  0  0  0  0  0  0  0  0  0  0  0
   40.7980   32.5300   40.2200 C   0  0  0  0  0  0  0  0  0  0  0  0
   40.0120   31.4300   40.4660 N   0  0  0  0  0  0  0  0  0  0  0  0
   38.6920   31.5670   40.6820 C   0  0  0  0  0  0  0  0  0  0  0  0
   38.1110   32.7730   40.6640 N   0  0  0  0  0  0  0  0  0  0  0  0
   38.3540   34.8640   40.4150 H   0  0  0  0  0  0  0  0  0  0  0  0
   40.7710   34.7050   40.0100 H   0  0  0  0  0  0  0  0  0  0  0  0
   41.8700   32.4360   40.0430 H   0  0  0  0  0  0  0  0  0  0  0  0
  1  6  1  0  0  0  0
  2  1  2  0  0  0  0
  2  3  1  0  0  0  0
  3  4  2  0  0  0  0
  4  5  1  0  0  0  0
  5  9  1  0  0  0  0
  6  5  2  0  0  0  0
  7  2  1  0  0  0  0
  8  3  1  0  0  0  0
  9 10  1  0  0  0  0
 10 11  2  0  0  0  0
 10 15  1  0  0  0  0
 11 16  1  0  0  0  0
 12 17  1  0  0  0  0
 12 11  1  0  0  0  0
 13 12  2  0  0  0  0
 14 13  1  0  0  0  0
 14  9  2  0  0  0  0
 18 13  1  0  0  0  0
 19 20  1  0  0  0  0
 19 14  1  0  0  0  0
 20 21  1  0  0  0  0
 22 27  1  0  0  0  0
 23 24  1  0  0  0  0
 23 22  2  0  0  0  0
 24 25  2  0  0  0  0
 25 26  1  0  0  0  0
 26  1  1  0  0  0  0
 27 26  2  0  0  0  0
 28 22  1  0  0  0  0
 29 23  1  0  0  0  0
 30 24  1  0  0  0  0
M  END
>  <minimizedAffinity>
-5.28702402

$$$$

 OpenBabel03242521223D

 30 32  0  0  0  0  0  0  0  0999 V2000
   36.9420   29.4530   39.1570 C   0  0  0  0  0  0  0  0  0  0  0  0
   36.1810   30.4180   39.7120 C   0  0  0  0  0  0  0  0  0  0  0  0
   36.2220   30.7730   41.0350 C   0  0  0  0  0  0  0  0  0  0  0  0
   37.0990   30.0830   41.7950 N   0  0  0  0  0  0  0  0  0  0  0  0
   37.8580   29.1280   41.2700 C   0  0  0  0  0  0  0  0  0  0  0  0
   37.8180   28.7730   39.9490 N   0  0  0  0  0  0  0  0  0  0  0  0
   35.4680   30.9820   39.1010 H   0  0  0  0  0  0  0  0  0  0  0  0
   35.5920   31.5630   41.4640 H   0  0  0  0  0  0  0  0  0  0  0  0
   38.8140   28.3830   42.1110 C   0  0  0  0  0  0  0  0  0  0  0  0
   40.1270   28.7760   42.1840 C   0  0  0  0  0  0  0  0  0  0  0  0
   41.0810   28.1250   42.9460 C   0  0  0  0  0  0  0  0  0  0  0  0
   40.6880   27.0140   43.6760 C   0  0  0  0  0  0  0  0  0  0  0  0
   39.3930   26.6220   43.6080 C   0  0  0  0  0  0  0  0  0  0  0  0
   38.4650   27.2840   42.8450 C   0  0  0  0  0  0  0  0  0  0  0  0
   40.4470   29.6550   41.6090 H   0  0  0  0  0  0  0  0  0  0  0  0
   42.1110   28.5010   42.9520 H   0  0  0  0  0  0  0  0  0  0  0  0
   41.4240   26.4920   44.2790 H   0  0  0  0  0  0  0  0  0  0  0  0
   39.1340   25.7490   44.1960 H   0  0  0  0  0  0  0  0  0  0  0  0
   37.0850   26.7720   42.8550 C   0  0  0  0  0  2  0  0  0  0  0  0
   37.0540   25.4260   42.1990 C   0  0  0  0  0  2  0  0  0  0  0  0
   38.0740   25.0410   42.0660 H   0  0  0  0  0  0  0  0  0  0  0  0
   35.6560   29.1730   35.7310 C   0  0  0  0  0  0  0  0  0  0  0  0
   36.6930   28.4890   35.0850 C   0  0  0  0  0  0  0  0  0  0  0  0
   37.8190   28.1300   35.8170 C   0  0  0  0  0  0  0  0  0  0  0  0
   37.8770   28.4580   37.1510 N   0  0  0  0  0  0  0  0  0  0  0  0
   36.8610   29.1150   37.7380 C   0  0  0  0  0  0  0  0  0  0  0  0
   35.7720   29.4660   37.0430 N   0  0  0  0  0  0  0  0  0  0  0  0
   34.7730   29.4590   35.1750 H   0  0  0  0  0  0  0  0  0  0  0  0
   36.5810   28.2600   34.0220 H   0  0  0  0  0  0  0  0  0  0  0  0
   38.6340   27.5970   35.3260 H   0  0  0  0  0  0  0  0  0  0  0  0
  1  2  2  0  0  0  0
  1  6  1  0  0  0  0
  2  3  1  0  0  0  0
  3  8  1  0  0  0  0
  3  4  2  0  0  0  0
  5  4  1  0  0  0  0
  5  9  1  0  0  0  0
  6  5  2  0  0  0  0
  7  2  1  0  0  0  0
  9 10  2  0  0  0  0
  9 14  1  0  0  0  0
 10 11  1  0  0  0  0
 11 16  1  0  0  0  0
 11 12  2  0  0  0  0
 12 17  1  0  0  0  0
 13 12  1  0  0  0  0
 13 18  1  0  0  0  0
 14 19  1  0  0  0  0
 14 13  2  0  0  0  0
 15 10  1  0  0  0  0
 20 19  1  0  0  0  0
 21 20  1  0  0  0  0
 22 27  1  0  0  0  0
 23 22  2  0  0  0  0
 23 24  1  0  0  0  0
 24 25  2  0  0  0  0
 25 26  1  0  0  0  0
 26  1  1  0  0  0  0
 27 26  2  0  0  0  0
 28 22  1  0  0  0  0
 29 23  1  0  0  0  0
 30 24  1  0  0  0  0
M  END
>  <minimizedAffinity>
-5.18087292

$$$$

 OpenBabel03242521223D

 30 32  0  0  0  0  0  0  0  0999 V2000
   37.5670   29.1610   41.3610 C   0  0  0  0  0  0  0  0  0  0  0  0
   37.6160   29.3720   42.6920 C   0  0  0  0  0  0  0  0  0  0  0  0
   37.6990   28.3790   43.6330 C   0  0  0  0  0  0  0  0  0  0  0  0
   37.7320   27.1200   43.1470 N   0  0  0  0  0  0  0  0  0  0  0  0
   37.6850   26.8880   41.8400 C   0  0  0  0  0  0  0  0  0  0  0  0
   37.6020   27.8790   40.9010 N   0  0  0  0  0  0  0  0  0  0  0  0
   37.5910   30.3920   43.0930 H   0  0  0  0  0  0  0  0  0  0  0  0
   37.7380   28.5770   44.7120 H   0  0  0  0  0  0  0  0  0  0  0  0
   37.7230   25.5070   41.3220 C   0  0  0  0  0  0  0  0  0  0  0  0
   36.5670   24.8840   40.9250 C   0  0  0  0  0  0  0  0  0  0  0  0
   36.5230   23.5900   40.4340 C   0  0  0  0  0  0  0  0  0  0  0  0
   37.7140   22.8860   40.3400 C   0  0  0  0  0  0  0  0  0  0  0  0
   38.8580   23.4970   40.7300 C   0  0  0  0  0  0  0  0  0  0  0  0
   38.8760   24.7810   41.2130 C   0  0  0  0  0  0  0  0  0  0  0  0
   35.6190   25.4340   40.9960 H   0  0  0  0  0  0  0  0  0  0  0  0
   35.5590   23.1610   40.1370 H   0  0  0  0  0  0  0  0  0  0  0  0
   37.6970   21.8700   39.9570 H   0  0  0  0  0  0  0  0  0  0  0  0
   39.7630   22.9070   40.6370 H   0  0  0  0  0  0  0  0  0  0  0  0
   40.1800   25.3450   41.6000 C   0  0  0  0  0  2  0  0  0  0  0  0
   40.5840   24.7860   42.9300 C   0  0  0  0  0  2  0  0  0  0  0  0
   39.9420   23.9380   43.1990 H   0  0  0  0  0  0  0  0  0  0  0  0
   37.3730   30.9590   38.1680 C   0  0  0  0  0  0  0  0  0  0  0  0
   37.3240   32.2940   38.5860 C   0  0  0  0  0  0  0  0  0  0  0  0
   37.3570   32.5720   39.9490 C   0  0  0  0  0  0  0  0  0  0  0  0
   37.4360   31.5270   40.8380 N   0  0  0  0  0  0  0  0  0  0  0  0
   37.4820   30.2570   40.4000 C   0  0  0  0  0  0  0  0  0  0  0  0
   37.4500   29.9770   39.0910 N   0  0  0  0  0  0  0  0  0  0  0  0
   37.3490   30.7260   37.1110 H   0  0  0  0  0  0  0  0  0  0  0  0
   37.2620   33.0750   37.8240 H   0  0  0  0  0  0  0  0  0  0  0  0
   37.3200   33.6080   40.2880 H   0  0  0  0  0  0  0  0  0  0  0  0
  1  2  1  0  0  0  0
  2  7  1  0  0  0  0
  2  3  2  0  0  0  0
  3  8  1  0  0  0  0
  4  3  1  0  0  0  0
  5  4  2  0  0  0  0
  6  1  2  0  0  0  0
  6  5  1  0  0  0  0
  9  5  1  0  0  0  0
 10 15  1  0  0  0  0
 10  9  2  0  0  0  0
 11 10  1  0  0  0  0
 12 11  2  0  0  0  0
 12 13  1  0  0  0  0
 13 14  2  0  0  0  0
 14  9  1  0  0  0  0
 14 19  1  0  0  0  0
 16 11  1  0  0  0  0
 17 12  1  0  0  0  0
 18 13  1  0  0  0  0
 19 20  1  0  0  0  0
 20 21  1  0  0  0  0
 22 23  2  0  0  0  0
 22 27  1  0  0  0  0
 23 24  1  0  0  0  0
 24 30  1  0  0  0  0
 24 25  2  0  0  0  0
 26 25  1  0  0  0  0
 26  1  1  0  0  0  0
 27 26  2  0  0  0  0
 28 22  1  0  0  0  0
 29 23  1  0  0  0  0
M  END
>  <minimizedAffinity>
-5.11603689

$$$$

 OpenBabel03242521223D

 30 32  0  0  0  0  0  0  0  0999 V2000
   39.3220   29.8190   40.0530 C   0  0  0  0  0  0  0  0  0  0  0  0
   40.6430   29.6050   39.8930 C   0  0  0  0  0  0  0  0  0  0  0  0
   41.2470   28.3780   39.9840 C   0  0  0  0  0  0  0  0  0  0  0  0
   40.4230   27.3430   40.2530 N   0  0  0  0  0  0  0  0  0  0  0  0
   39.1180   27.5300   40.4140 C   0  0  0  0  0  0  0  0  0  0  0  0
   38.5150   28.7550   40.3240 N   0  0  0  0  0  0  0  0  0  0  0  0
   41.3180   30.4400   39.6740 H   0  0  0  0  0  0  0  0  0  0  0  0
   42.3260   28.2290   39.8490 H   0  0  0  0  0  0  0  0  0  0  0  0
   38.2280   26.3910   40.7060 C   0  0  0  0  0  0  0  0  0  0  0  0
   37.7580   25.5990   39.6880 C   0  0  0  0  0  0  0  0  0  0  0  0
   36.9170   24.5180   39.8820 C   0  0  0  0  0  0  0  0  0  0  0  0
   36.5270   24.2190   41.1790 C   0  0  0  0  0  0  0  0  0  0  0  0
   36.9880   24.9960   42.1880 C   0  0  0  0  0  0  0  0  0  0  0  0
   37.8210   26.0630   41.9690 C   0  0  0  0  0  0  0  0  0  0  0  0
   38.0630   25.8290   38.6570 H   0  0  0  0  0  0  0  0  0  0  0  0
   36.5850   23.9330   39.0160 H   0  0  0  0  0  0  0  0  0  0  0  0
   35.8680   23.3730   41.3490 H   0  0  0  0  0  0  0  0  0  0  0  0
   36.6560   24.7220   43.1830 H   0  0  0  0  0  0  0  0  0  0  0  0
   38.2650   26.8320   43.1440 C   0  0  0  0  0  2  0  0  0  0  0  0
   37.1330   27.6840   43.6310 C   0  0  0  0  0  2  0  0  0  0  0  0
   36.1930   27.3810   43.1530 H   0  0  0  0  0  0  0  0  0  0  0  0
   37.1810   32.5720   38.9100 C   0  0  0  0  0  0  0  0  0  0  0  0
   37.6060   33.6300   39.7230 C   0  0  0  0  0  0  0  0  0  0  0  0
   38.6150   33.3990   40.6530 C   0  0  0  0  0  0  0  0  0  0  0  0
   39.1610   32.1410   40.7420 N   0  0  0  0  0  0  0  0  0  0  0  0
   38.7280   31.1490   39.9440 C   0  0  0  0  0  0  0  0  0  0  0  0
   37.7570   31.3590   39.0460 N   0  0  0  0  0  0  0  0  0  0  0  0
   36.3970   32.7360   38.1830 H   0  0  0  0  0  0  0  0  0  0  0  0
   37.1280   34.6050   39.5990 H   0  0  0  0  0  0  0  0  0  0  0  0
   38.9560   34.2140   41.2920 H   0  0  0  0  0  0  0  0  0  0  0  0
  1  6  1  0  0  0  0
  2  3  1  0  0  0  0
  2  1  2  0  0  0  0
  3  4  2  0  0  0  0
  4  5  1  0  0  0  0
  5  9  1  0  0  0  0
  6  5  2  0  0  0  0
  7  2  1  0  0  0  0
  8  3  1  0  0  0  0
  9 14  1  0  0  0  0
 10 11  1  0  0  0  0
 10  9  2  0  0  0  0
 11 12  2  0  0  0  0
 12 17  1  0  0  0  0
 12 13  1  0  0  0  0
 13 18  1  0  0  0  0
 14 13  2  0  0  0  0
 14 19  1  0  0  0  0
 15 10  1  0  0  0  0
 16 11  1  0  0  0  0
 19 20  1  0  0  0  0
 21 20  1  0  0  0  0
 22 27  2  0  0  0  0
 22 23  1  0  0  0  0
 23 24  2  0  0  0  0
 24 25  1  0  0  0  0
 24 30  1  0  0  0  0
 26  1  1  0  0  0  0
 26 25  2  0  0  0  0
 27 26  1  0  0  0  0
 28 22  1  0  0  0  0
 29 23  1  0  0  0  0
M  END
>  <minimizedAffinity>
-4.93659401

$$$$

 OpenBabel03242521223D

 30 32  0  0  0  0  0  0  0  0999 V2000
   40.4780   32.3550   39.0650 C   0  0  0  0  0  0  0  0  0  0  0  0
   40.3180   33.5760   39.6120 C   0  0  0  0  0  0  0  0  0  0  0  0
   39.2550   33.9420   40.3970 C   0  0  0  0  0  0  0  0  0  0  0  0
   38.3320   32.9790   40.6110 N   0  0  0  0  0  0  0  0  0  0  0  0
   38.4700   31.7690   40.0820 C   0  0  0  0  0  0  0  0  0  0  0  0
   39.5300   31.4040   39.2980 N   0  0  0  0  0  0  0  0  0  0  0  0
   41.0630   34.3620   39.4440 H   0  0  0  0  0  0  0  0  0  0  0  0
   39.1470   34.9440   40.8320 H   0  0  0  0  0  0  0  0  0  0  0  0
   37.4550   30.7260   40.3250 C   0  0  0  0  0  0  0  0  0  0  0  0
   36.3850   30.5890   39.4760 C   0  0  0  0  0  0  0  0  0  0  0  0
   35.3920   29.6400   39.6410 C   0  0  0  0  0  0  0  0  0  0  0  0
   35.4840   28.7790   40.7240 C   0  0  0  0  0  0  0  0  0  0  0  0
   36.5390   28.9090   41.5650 C   0  0  0  0  0  0  0  0  0  0  0  0
   37.5110   29.8580   41.3800 C   0  0  0  0  0  0  0  0  0  0  0  0
   36.3040   31.2670   38.6150 H   0  0  0  0  0  0  0  0  0  0  0  0
   34.5680   29.5930   38.9200 H   0  0  0  0  0  0  0  0  0  0  0  0
   34.7140   28.0280   40.8680 H   0  0  0  0  0  0  0  0  0  0  0  0
   36.5670   28.2130   42.3960 H   0  0  0  0  0  0  0  0  0  0  0  0
   38.6150   29.9010   42.3530 C   0  0  0  0  0  2  0  0  0  0  0  0
   38.4950   28.7360   43.2860 C   0  0  0  0  0  2  0  0  0  0  0  0
   37.7640   28.0120   42.9030 H   0  0  0  0  0  0  0  0  0  0  0  0
   43.8790   32.3820   37.6860 C   0  0  0  0  0  0  0  0  0  0  0  0
   43.8000   31.3970   36.6940 C   0  0  0  0  0  0  0  0  0  0  0  0
   42.5930   30.7320   36.5030 C   0  0  0  0  0  0  0  0  0  0  0  0
   41.5190   31.0650   37.2930 N   0  0  0  0  0  0  0  0  0  0  0  0
   41.6320   32.0160   38.2360 C   0  0  0  0  0  0  0  0  0  0  0  0
   42.7890   32.6620   38.4300 N   0  0  0  0  0  0  0  0  0  0  0  0
   44.8110   32.9080   37.8470 H   0  0  0  0  0  0  0  0  0  0  0  0
   44.6930   31.1830   36.1020 H   0  0  0  0  0  0  0  0  0  0  0  0
   42.5180   29.9630   35.7330 H   0  0  0  0  0  0  0  0  0  0  0  0
  1  6  2  0  0  0  0
  1  2  1  0  0  0  0
  2  3  2  0  0  0  0
  3  4  1  0  0  0  0
  3  8  1  0  0  0  0
  5  9  1  0  0  0  0
  5  4  2  0  0  0  0
  6  5  1  0  0  0  0
  7  2  1  0  0  0  0
  9 14  1  0  0  0  0
 10 11  1  0  0  0  0
 10  9  2  0  0  0  0
 11 12  2  0  0  0  0
 12 17  1  0  0  0  0
 12 13  1  0  0  0  0
 13 18  1  0  0  0  0
 14 13  2  0  0  0  0
 14 19  1  0  0  0  0
 15 10  1  0  0  0  0
 16 11  1  0  0  0  0
 19 20  1  0  0  0  0
 21 20  1  0  0  0  0
 22 28  1  0  0  0  0
 22 27  1  0  0  0  0
 23 22  2  0  0  0  0
 24 23  1  0  0  0  0
 24 25  2  0  0  0  0
 25 26  1  0  0  0  0
 26 27  2  0  0  0  0
 26  1  1  0  0  0  0
 29 23  1  0  0  0  0
 30 24  1  0  0  0  0
M  END
>  <minimizedAffinity>
-4.86677361

$$$$

 OpenBabel03242521223D

 30 32  0  0  0  0  0  0  0  0999 V2000
   35.6370   28.9940   38.1640 C   0  0  0  0  0  0  0  0  0  0  0  0
   36.4900   30.0210   38.3430 C   0  0  0  0  0  0  0  0  0  0  0  0
   37.5700   29.9950   39.1870 C   0  0  0  0  0  0  0  0  0  0  0  0
   37.7510   28.8400   39.8630 N   0  0  0  0  0  0  0  0  0  0  0  0
   36.9230   27.8150   39.7020 C   0  0  0  0  0  0  0  0  0  0  0  0
   35.8450   27.8400   38.8600 N   0  0  0  0  0  0  0  0  0  0  0  0
   36.3500   30.9610   37.7980 H   0  0  0  0  0  0  0  0  0  0  0  0
   38.2520   30.8460   39.3160 H   0  0  0  0  0  0  0  0  0  0  0  0
   37.1340   26.5580   40.4450 C   0  0  0  0  0  0  0  0  0  0  0  0
   37.5340   25.4220   39.7870 C   0  0  0  0  0  0  0  0  0  0  0  0
   37.7470   24.2070   40.4140 C   0  0  0  0  0  0  0  0  0  0  0  0
   37.5430   24.1340   41.7830 C   0  0  0  0  0  0  0  0  0  0  0  0
   37.1480   25.2520   42.4380 C   0  0  0  0  0  0  0  0  0  0  0  0
   36.9440   26.4450   41.7940 C   0  0  0  0  0  0  0  0  0  0  0  0
   37.6990   25.4710   38.7020 H   0  0  0  0  0  0  0  0  0  0  0  0
   38.0670   23.3440   39.8190 H   0  0  0  0  0  0  0  0  0  0  0  0
   37.7050   23.1880   42.2910 H   0  0  0  0  0  0  0  0  0  0  0  0
   37.0020   25.1450   43.5070 H   0  0  0  0  0  0  0  0  0  0  0  0
   36.5220   27.5960   42.6100 C   0  0  0  0  0  2  0  0  0  0  0  0
   37.5430   27.8440   43.6770 C   0  0  0  0  0  2  0  0  0  0  0  0
   38.4570   27.2700   43.4740 H   0  0  0  0  0  0  0  0  0  0  0  0
   33.7060   29.1910   35.0490 C   0  0  0  0  0  0  0  0  0  0  0  0
   32.3890   29.2230   35.5230 C   0  0  0  0  0  0  0  0  0  0  0  0
   32.1680   29.1760   36.8950 C   0  0  0  0  0  0  0  0  0  0  0  0
   33.2500   29.1010   37.7400 N   0  0  0  0  0  0  0  0  0  0  0  0
   34.5010   29.0730   37.2490 C   0  0  0  0  0  0  0  0  0  0  0  0
   34.7260   29.1170   35.9300 N   0  0  0  0  0  0  0  0  0  0  0  0
   33.8950   29.2270   33.9840 H   0  0  0  0  0  0  0  0  0  0  0  0
   31.5760   29.2830   34.7950 H   0  0  0  0  0  0  0  0  0  0  0  0
   31.1470   29.2000   37.2780 H   0  0  0  0  0  0  0  0  0  0  0  0
  1  2  2  0  0  0  0
  1  6  1  0  0  0  0
  2  3  1  0  0  0  0
  3  8  1  0  0  0  0
  3  4  2  0  0  0  0
  5  4  1  0  0  0  0
  5  9  1  0  0  0  0
  6  5  2  0  0  0  0
  7  2  1  0  0  0  0
  9 14  1  0  0  0  0
 10 11  1  0  0  0  0
 10  9  2  0  0  0  0
 11 12  2  0  0  0  0
 12 17  1  0  0  0  0
 12 13  1  0  0  0  0
 13 18  1  0  0  0  0
 14 13  2  0  0  0  0
 14 19  1  0  0  0  0
 15 10  1  0  0  0  0
 16 11  1  0  0  0  0
 19 20  1  0  0  0  0
 21 20  1  0  0  0  0
 22 23  2  0  0  0  0
 22 27  1  0  0  0  0
 23 24  1  0  0  0  0
 24 30  1  0  0  0  0
 24 25  2  0  0  0  0
 26 25  1  0  0  0  0
 26  1  1  0  0  0  0
 27 26  2  0  0  0  0
 28 22  1  0  0  0  0
 29 23  1  0  0  0  0
M  END
>  <minimizedAffinity>
-4.83850145

$$$$

 OpenBabel03242521223D

 30 32  0  0  0  0  0  0  0  0999 V2000
   37.1200   27.1540   41.3980 C   0  0  0  0  0  0  0  0  0  0  0  0
   36.9980   27.0900   42.7390 C   0  0  0  0  0  0  0  0  0  0  0  0
   37.2010   28.1470   43.5880 C   0  0  0  0  0  0  0  0  0  0  0  0
   37.5430   29.3110   42.9950 N   0  0  0  0  0  0  0  0  0  0  0  0
   37.6690   29.3970   41.6760 C   0  0  0  0  0  0  0  0  0  0  0  0
   37.4670   28.3430   40.8280 N   0  0  0  0  0  0  0  0  0  0  0  0
   36.7200   26.1490   43.2260 H   0  0  0  0  0  0  0  0  0  0  0  0
   37.0950   28.0700   44.6780 H   0  0  0  0  0  0  0  0  0  0  0  0
   38.0420   30.6760   41.0410 C   0  0  0  0  0  0  0  0  0  0  0  0
   37.0720   31.5210   40.5640 C   0  0  0  0  0  0  0  0  0  0  0  0
   37.3440   32.7330   39.9530 C   0  0  0  0  0  0  0  0  0  0  0  0
   38.6700   33.1110   39.8140 C   0  0  0  0  0  0  0  0  0  0  0  0
   39.6320   32.2800   40.2840 C   0  0  0  0  0  0  0  0  0  0  0  0
   39.3370   31.0840   40.8860 C   0  0  0  0  0  0  0  0  0  0  0  0
   36.0180   31.2300   40.6690 H   0  0  0  0  0  0  0  0  0  0  0  0
   36.5130   33.3540   39.5980 H   0  0  0  0  0  0  0  0  0  0  0  0
   38.9010   34.0590   39.3370 H   0  0  0  0  0  0  0  0  0  0  0  0
   40.6530   32.6200   40.1530 H   0  0  0  0  0  0  0  0  0  0  0  0
   40.4640   30.2660   41.3650 C   0  0  0  0  0  2  0  0  0  0  0  0
   41.0390   30.8930   42.5970 C   0  0  0  0  0  2  0  0  0  0  0  0
   40.3680   31.6730   42.9800 H   0  0  0  0  0  0  0  0  0  0  0  0
   36.4840   25.1450   38.3930 C   0  0  0  0  0  0  0  0  0  0  0  0
   36.4560   23.8440   38.9120 C   0  0  0  0  0  0  0  0  0  0  0  0
   36.6540   23.6610   40.2760 C   0  0  0  0  0  0  0  0  0  0  0  0
   36.8700   24.7620   41.0700 N   0  0  0  0  0  0  0  0  0  0  0  0
   36.8900   25.9970   40.5370 C   0  0  0  0  0  0  0  0  0  0  0  0
   36.7010   26.1850   39.2250 N   0  0  0  0  0  0  0  0  0  0  0  0
   36.3320   25.3030   37.3340 H   0  0  0  0  0  0  0  0  0  0  0  0
   36.2790   23.0140   38.2230 H   0  0  0  0  0  0  0  0  0  0  0  0
   36.6340   22.6540   40.6940 H   0  0  0  0  0  0  0  0  0  0  0  0
  1  2  1  0  0  0  0
  2  7  1  0  0  0  0
  2  3  2  0  0  0  0
  3  8  1  0  0  0  0
  4  3  1  0  0  0  0
  5  4  2  0  0  0  0
  6  1  2  0  0  0  0
  6  5  1  0  0  0  0
  9  5  1  0  0  0  0
 10 15  1  0  0  0  0
 10  9  2  0  0  0  0
 11 10  1  0  0  0  0
 12 11  2  0  0  0  0
 12 13  1  0  0  0  0
 13 14  2  0  0  0  0
 14  9  1  0  0  0  0
 14 19  1  0  0  0  0
 16 11  1  0  0  0  0
 17 12  1  0  0  0  0
 18 13  1  0  0  0  0
 19 20  1  0  0  0  0
 20 21  1  0  0  0  0
 22 23  2  0  0  0  0
 22 27  1  0  0  0  0
 23 24  1  0  0  0  0
 24 30  1  0  0  0  0
 24 25  2  0  0  0  0
 26 25  1  0  0  0  0
 26  1  1  0  0  0  0
 27 26  2  0  0  0  0
 28 22  1  0  0  0  0
 29 23  1  0  0  0  0
M  END
>  <minimizedAffinity>
-4.83327293

$$$$
