
 OpenBabel03242521213D

 30 32  0  0  0  0  0  0  0  0999 V2000
   45.4070   33.0620   39.8840 C   0  0  0  0  0  0  0  0  0  0  0  0
   44.1470   32.6860   39.5880 C   0  0  0  0  0  0  0  0  0  0  0  0
   43.1720   32.4390   40.5180 C   0  0  0  0  0  0  0  0  0  0  0  0
   43.5440   32.5960   41.8060 N   0  0  0  0  0  0  0  0  0  0  0  0
   44.7800   32.9660   42.1220 C   0  0  0  0  0  0  0  0  0  0  0  0
   45.7540   33.2120   41.1940 N   0  0  0  0  0  0  0  0  0  0  0  0
   43.8370   32.5580   38.5440 H   0  0  0  0  0  0  0  0  0  0  0  0
   42.1510   32.1350   40.2510 H   0  0  0  0  0  0  0  0  0  0  0  0
   45.1740   33.1360   43.5340 C   0  0  0  0  0  0  0  0  0  0  0  0
   45.7960   32.1150   44.2070 C   0  0  0  0  0  0  0  0  0  0  0  0
   46.1900   32.1980   45.5320 C   0  0  0  0  0  0  0  0  0  0  0  0
   45.9410   33.3790   46.2140 C   0  0  0  0  0  0  0  0  0  0  0  0
   45.3280   34.3900   45.5540 C   0  0  0  0  0  0  0  0  0  0  0  0
   44.9470   34.2830   44.2410 C   0  0  0  0  0  0  0  0  0  0  0  0
   45.9980   31.1760   43.6740 H   0  0  0  0  0  0  0  0  0  0  0  0
   46.6820   31.3380   46.0000 H   0  0  0  0  0  0  0  0  0  0  0  0
   46.2440   33.4610   47.2540 H   0  0  0  0  0  0  0  0  0  0  0  0
   45.1550   35.2920   46.1300 H   0  0  0  0  0  0  0  0  0  0  0  0
   44.2950   35.4500   43.6240 C   0  0  0  0  0  2  0  0  0  0  0  0
   45.3360   36.4610   43.2590 C   0  0  0  0  0  2  0  0  0  0  0  0
   46.3390   36.0200   43.3260 H   0  0  0  0  0  0  0  0  0  0  0  0
   48.4230   34.3330   38.2240 C   0  0  0  0  0  0  0  0  0  0  0  0
   48.2930   33.8020   36.9350 C   0  0  0  0  0  0  0  0  0  0  0  0
   47.1840   33.0150   36.6410 C   0  0  0  0  0  0  0  0  0  0  0  0
   46.2520   32.7870   37.6260 N   0  0  0  0  0  0  0  0  0  0  0  0
   46.4100   33.3150   38.8520 C   0  0  0  0  0  0  0  0  0  0  0  0
   47.4730   34.0730   39.1470 N   0  0  0  0  0  0  0  0  0  0  0  0
   49.2800   34.9470   38.4670 H   0  0  0  0  0  0  0  0  0  0  0  0
   49.0720   34.0230   36.2010 H   0  0  0  0  0  0  0  0  0  0  0  0
   47.0710   32.5950   35.6420 H   0  0  0  0  0  0  0  0  0  0  0  0
  1  6  1  0  0  0  0
  2  1  2  0  0  0  0
  2  3  1  0  0  0  0
  3  4  2  0  0  0  0
  4  5  1  0  0  0  0
  5  9  1  0  0  0  0
  6  5  2  0  0  0  0
  7  2  1  0  0  0  0
  8  3  1  0  0  0  0
  9 10  2  0  0  0  0
  9 14  1  0  0  0  0
 10 11  1  0  0  0  0
 11 16  1  0  0  0  0
 11 12  2  0  0  0  0
 12 17  1  0  0  0  0
 13 18  1  0  0  0  0
 13 12  1  0  0  0  0
 14 13  2  0  0  0  0
 15 10  1  0  0  0  0
 19 14  1  0  0  0  0
 20 21  1  0  0  0  0
 20 19  1  0  0  0  0
 22 28  1  0  0  0  0
 22 27  1  0  0  0  0
 23 22  2  0  0  0  0
 24 23  1  0  0  0  0
 24 25  2  0  0  0  0
 25 26  1  0  0  0  0
 26 27  2  0  0  0  0
 26  1  1  0  0  0  0
 29 23  1  0  0  0  0
 30 24  1  0  0  0  0
M  END
>  <minimizedAffinity>
-4.28559542

>  <minimizedRMSD>
6.81820107

$$$$
