
 OpenBabel03252507453D

 31 32  0  0  0  0  0  0  0  0999 V2000
   46.6590   34.9080   42.0310 C   0  0  0  0  0  0  0  0  0  0  0  0
   46.8440   34.0730   42.7690 H   0  0  0  0  0  0  0  0  0  0  0  0
   46.9890   35.8310   42.5510 H   0  0  0  0  0  0  0  0  0  0  0  0
   45.1870   34.9060   41.7990 C   0  0  0  0  0  0  0  0  0  0  0  0
   44.3180   35.5390   42.7380 C   0  0  0  0  0  0  0  0  0  0  0  0
   42.6510   35.2670   42.0140 S   0  0  0  0  0  0  0  0  0  0  0  0
   43.4180   34.3330   40.5490 C   0  0  0  0  0  0  0  0  0  0  0  0
   44.5310   34.3800   40.8030 N   0  0  0  0  0  0  0  0  0  0  0  0
   44.6210   36.0520   43.6550 H   0  0  0  0  0  0  0  0  0  0  0  0
   42.6560   33.7930   39.5140 O   0  0  0  0  0  0  0  0  0  0  0  0
   40.6890   34.1180   37.7630 O   0  0  0  0  0  0  0  0  0  0  0  0
   41.7400   34.8740   38.5720 P   0  0  0  0  0  0  0  0  0  0  0  0
   40.9450   35.9440   39.6290 O   0  0  0  0  0  0  0  0  0  0  0  0
   39.9800   35.7730   39.6550 H   0  0  0  0  0  0  0  0  0  0  0  0
   42.7610   35.7800   37.5720 O   0  0  0  0  0  0  0  0  0  0  0  0
   43.2160   35.1200   36.9700 H   0  0  0  0  0  0  0  0  0  0  0  0
   47.4590   34.5680   40.8130 C   0  0  0  0  0  0  0  0  0  0  0  0
   46.7930   33.9720   40.1560 H   0  0  0  0  0  0  0  0  0  0  0  0
   47.7180   35.4680   40.2010 H   0  0  0  0  0  0  0  0  0  0  0  0
   48.7070   33.8420   41.1300 C   0  0  0  0  0  0  0  0  0  0  0  0
   49.0260   32.7830   40.2940 C   0  0  0  0  0  0  0  0  0  0  0  0
   50.1720   32.0310   40.4930 C   0  0  0  0  0  0  0  0  0  0  0  0
   50.9700   32.3900   41.5590 N   0  0  0  0  0  0  0  0  0  0  0  0
   50.6170   33.4390   42.3560 C   0  0  0  0  0  0  0  0  0  0  0  0
   49.5160   34.1340   42.1340 N   0  0  0  0  0  0  0  0  0  0  0  0
   50.4380   31.2010   39.8510 H   0  0  0  0  0  0  0  0  0  0  0  0
   51.3270   33.6330   43.1730 H   0  0  0  0  0  0  0  0  0  0  0  0
   47.9520   32.3520   38.9140 S   0  0  0  0  0  0  0  0  0  0  0  0
   48.6260   32.9970   37.3710 C   0  0  0  0  0  0  0  0  0  0  0  0
   48.3050   34.4630   37.2810 C   0  0  0  0  0  0  0  0  0  0  0  0
   49.1020   35.0550   36.7780 H   0  0  0  0  0  0  0  0  0  0  0  0
  1  3  1  0  0  0  0
  1  2  1  0  0  0  0
  4  1  1  0  0  0  0
  4  5  2  0  0  0  0
  5  9  1  0  0  0  0
  6  5  1  0  0  0  0
  7  8  2  0  0  0  0
  7  6  1  0  0  0  0
  8  4  1  0  0  0  0
 10  7  1  0  0  0  0
 11 12  2  0  0  0  0
 12 10  1  0  0  0  0
 12 13  1  0  0  0  0
 13 14  1  0  0  0  0
 15 12  1  0  0  0  0
 16 15  1  0  0  0  0
 17 20  1  0  0  0  0
 17  1  1  0  0  0  0
 18 17  1  0  0  0  0
 19 17  1  0  0  0  0
 20 25  1  0  0  0  0
 21 22  1  0  0  0  0
 21 20  2  0  0  0  0
 22 23  2  0  0  0  0
 23 24  1  0  0  0  0
 24 27  1  0  0  0  0
 25 24  2  0  0  0  0
 26 22  1  0  0  0  0
 28 21  1  0  0  0  0
 29 28  1  0  0  0  0
 30 29  1  0  0  0  0
 31 30  1  0  0  0  0
M  END
>  <minimizedAffinity>
-4.70342207

>  <minimizedRMSD>
0.621012986

$$$$
