
 OpenBabel03252509123D

 26 28  0  0  0  0  0  0  0  0999 V2000
   45.9440   34.3340   44.8770 C   0  0  0  0  0  0  0  0  0  0  0  0
   46.7940   33.5060   44.1340 C   0  0  0  0  0  0  0  0  0  0  0  0
   47.1650   32.2400   44.5550 C   0  0  0  0  0  0  0  0  0  0  0  0
   46.6790   31.7510   45.7730 C   0  0  0  0  0  0  0  0  0  0  0  0
   46.8120   30.6120   46.4870 N   0  0  0  0  0  0  0  0  0  0  0  0
   46.0970   30.6920   47.6190 C   0  0  0  0  0  0  0  0  0  0  0  0
   45.5120   31.9100   47.5970 N   0  0  0  0  0  0  0  0  0  0  0  0
   45.8510   32.5830   46.4740 C   0  0  0  0  0  0  0  0  0  0  0  0
   45.4580   33.8430   46.0950 C   0  0  0  0  0  0  0  0  0  0  0  0
   45.7020   35.3190   44.4740 H   0  0  0  0  0  0  0  0  0  0  0  0
   47.4150   29.8430   46.1090 H   0  0  0  0  0  0  0  0  0  0  0  0
   46.0230   29.9220   48.3750 H   0  0  0  0  0  0  0  0  0  0  0  0
   44.8020   34.4910   46.6590 H   0  0  0  0  0  0  0  0  0  0  0  0
   49.0000   35.0820   41.6610 C   0  0  0  0  0  0  0  0  0  0  0  0
   48.3020   34.9100   40.4670 C   0  0  0  0  0  0  0  0  0  0  0  0
   47.0810   34.2520   40.5320 C   0  0  0  0  0  0  0  0  0  0  0  0
   46.6050   33.8010   41.7430 N   0  0  0  0  0  0  0  0  0  0  0  0
   47.3180   33.9920   42.8680 C   0  0  0  0  0  0  0  0  0  0  0  0
   48.5150   34.6300   42.8390 N   0  0  0  0  0  0  0  0  0  0  0  0
   49.9680   35.5870   41.6920 H   0  0  0  0  0  0  0  0  0  0  0  0
   48.7210   35.2830   39.5390 H   0  0  0  0  0  0  0  0  0  0  0  0
   46.5500   34.1250   39.6020 H   0  0  0  0  0  0  0  0  0  0  0  0
   48.2420   31.1920   43.6010 S   0  0  0  0  0  0  0  0  0  0  0  0
   47.2100   30.2190   42.4840 C   0  0  0  0  0  2  0  0  0  0  0  0
   47.7020   30.4500   41.0650 C   0  0  0  0  0  2  0  0  0  0  0  0
   47.5380   31.5120   40.7800 H   0  0  0  0  0  0  0  0  0  0  0  0
  1  9  1  0  0  0  0
  2  3  1  0  0  0  0
  2  1  2  0  0  0  0
  3  4  2  0  0  0  0
  4  8  1  0  0  0  0
  4  5  1  0  0  0  0
  5  6  1  0  0  0  0
  6 12  1  0  0  0  0
  7  6  2  0  0  0  0
  8  7  1  0  0  0  0
  9  8  2  0  0  0  0
  9 13  1  0  0  0  0
 10  1  1  0  0  0  0
 11  5  1  0  0  0  0
 14 20  1  0  0  0  0
 14 19  1  0  0  0  0
 15 16  1  0  0  0  0
 15 14  2  0  0  0  0
 16 17  2  0  0  0  0
 17 18  1  0  0  0  0
 18  2  1  0  0  0  0
 19 18  2  0  0  0  0
 21 15  1  0  0  0  0
 22 16  1  0  0  0  0
 23  3  1  0  0  0  0
 24 23  1  0  0  0  0
 25 24  1  0  0  0  0
 26 25  1  0  0  0  0
M  END
>  <minimizedAffinity>
-4.06501532

>  <minimizedRMSD>
3.54329062

$$$$
