
 OpenBabel03252509073D

 35 37  0  0  0  0  0  0  0  0999 V2000
   45.3820   35.3050   43.2230 Cl  0  0  0  0  0  0  0  0  0  0  0  0
   45.2110   34.5580   41.6610 C   0  0  0  0  0  0  0  0  0  0  0  0
   46.2930   34.1590   40.9550 C   0  0  0  0  0  0  0  0  0  0  0  0
   46.0440   33.5720   39.7180 C   0  0  0  0  0  0  0  0  0  0  0  0
   44.7770   33.3990   39.2210 C   0  0  0  0  0  0  0  0  0  0  0  0
   43.7050   33.8100   39.9520 C   0  0  0  0  0  0  0  0  0  0  0  0
   43.9320   34.3940   41.1830 C   0  0  0  0  0  0  0  0  0  0  0  0
   44.5990   32.9430   38.2580 H   0  0  0  0  0  0  0  0  0  0  0  0
   42.6960   33.6850   39.5850 H   0  0  0  0  0  0  0  0  0  0  0  0
   43.0700   34.7150   41.7530 H   0  0  0  0  0  0  0  0  0  0  0  0
   47.6340   31.8370   38.8760 C   0  0  0  0  0  0  0  0  0  0  0  0
   47.1700   33.1170   38.9230 C   0  0  0  0  0  0  0  0  0  0  0  0
   47.8130   34.0650   38.1500 C   0  0  0  0  0  0  0  0  0  0  0  0
   48.8850   33.7290   37.3600 C   0  0  0  0  0  0  0  0  0  0  0  0
   49.3610   32.4260   37.3080 C   0  0  0  0  0  0  0  0  0  0  0  0
   48.7180   31.4690   38.0840 C   0  0  0  0  0  0  0  0  0  0  0  0
   47.4780   35.0970   38.1560 H   0  0  0  0  0  0  0  0  0  0  0  0
   49.3690   34.4870   36.7670 H   0  0  0  0  0  0  0  0  0  0  0  0
   50.1920   32.1760   36.6910 H   0  0  0  0  0  0  0  0  0  0  0  0
   49.0850   30.4490   38.0480 H   0  0  0  0  0  0  0  0  0  0  0  0
   46.8770   30.6100   39.7700 S   0  0  0  0  0  0  0  0  0  0  0  0
   45.5550   30.1770   39.1760 O   0  0  0  0  0  0  0  0  0  0  0  0
   47.7800   29.3620   39.5790 O   0  0  0  0  0  0  0  0  0  0  0  0
   46.6370   30.6140   41.4480 C   0  0  0  0  0  2  0  0  0  0  0  0
   45.0840   30.5520   41.6160 C   0  0  0  0  0  2  0  0  0  0  0  0
   44.7700   29.5420   41.2370 H   0  0  0  0  0  0  0  0  0  0  0  0
   49.5830   35.7200   41.9420 C   0  0  0  0  0  0  0  0  0  0  0  0
   48.3070   35.5460   41.4010 C   0  0  0  0  0  0  0  0  0  0  0  0
   47.6160   34.3530   41.5070 C   0  0  0  0  0  0  0  0  0  0  0  0
   48.2700   33.3750   42.1690 N   0  0  0  0  0  0  0  0  0  0  0  0
   49.4990   33.5300   42.6940 C   0  0  0  0  0  0  0  0  0  0  0  0
   50.1400   34.6940   42.5770 N   0  0  0  0  0  0  0  0  0  0  0  0
   50.0640   36.6790   41.8220 H   0  0  0  0  0  0  0  0  0  0  0  0
   47.8550   36.3770   40.8870 H   0  0  0  0  0  0  0  0  0  0  0  0
   49.9590   32.7000   43.2130 H   0  0  0  0  0  0  0  0  0  0  0  0
  2  1  1  0  0  0  0
  3 29  1  0  0  0  0
  3  2  2  0  0  0  0
  4  3  1  0  0  0  0
  5  4  2  0  0  0  0
  5  6  1  0  0  0  0
  6  7  2  0  0  0  0
  7  2  1  0  0  0  0
  7 10  1  0  0  0  0
  8  5  1  0  0  0  0
  9  6  1  0  0  0  0
 11 12  1  0  0  0  0
 11 21  1  0  0  0  0
 12  4  1  0  0  0  0
 13 17  1  0  0  0  0
 13 12  2  0  0  0  0
 14 13  1  0  0  0  0
 15 14  2  0  0  0  0
 15 16  1  0  0  0  0
 16 11  2  0  0  0  0
 18 14  1  0  0  0  0
 19 15  1  0  0  0  0
 20 16  1  0  0  0  0
 21 24  1  0  0  0  0
 22 21  2  0  0  0  0
 23 21  2  0  0  0  0
 24 25  1  0  0  0  0
 26 25  1  0  0  0  0
 27 32  1  0  0  0  0
 28 29  1  0  0  0  0
 28 27  2  0  0  0  0
 29 30  2  0  0  0  0
 30 31  1  0  0  0  0
 31 35  1  0  0  0  0
 32 31  2  0  0  0  0
 33 27  1  0  0  0  0
 34 28  1  0  0  0  0
M  END
>  <minimizedAffinity>
-4.40911818

>  <minimizedRMSD>
0.543924391

$$$$
