
 OpenBabel03242522413D

 41 43  0  0  0  0  0  0  0  0999 V2000
   46.1270   31.7780   45.2590 C   0  0  0  0  0  0  0  0  0  0  0  0
   45.9400   30.7530   44.8250 H   0  0  0  0  0  0  0  0  0  0  0  0
   45.0880   32.0700   45.5540 H   0  0  0  0  0  0  0  0  0  0  0  0
   47.1020   32.5220   47.4060 C   0  0  0  0  0  0  0  0  0  0  0  0
   47.0080   31.5380   46.3940 C   0  0  0  0  0  0  0  0  0  0  0  0
   47.7350   30.3730   46.5600 C   0  0  0  0  0  0  0  0  0  0  0  0
   48.4910   30.2350   47.6720 N   0  0  0  0  0  0  0  0  0  0  0  0
   48.5560   31.1780   48.6070 C   0  0  0  0  0  0  0  0  0  0  0  0
   47.8670   32.3380   48.4960 N   0  0  0  0  0  0  0  0  0  0  0  0
   46.6340   33.4870   47.4700 H   0  0  0  0  0  0  0  0  0  0  0  0
   47.6550   29.6350   45.7820 H   0  0  0  0  0  0  0  0  0  0  0  0
   49.4180   30.9370   49.8160 C   0  0  0  0  0  0  0  0  0  0  0  0
   49.6150   29.8510   49.9130 H   0  0  0  0  0  0  0  0  0  0  0  0
   48.8070   31.1980   50.7210 H   0  0  0  0  0  0  0  0  0  0  0  0
   50.6960   31.6410   49.7700 C   0  0  0  0  0  0  0  0  0  0  0  0
   51.8950   31.1050   49.3180 C   0  0  0  0  0  0  0  0  0  0  0  0
   52.8660   32.0620   49.4290 C   0  0  0  0  0  0  0  0  0  0  0  0
   52.2290   33.1540   49.9450 N   0  0  0  0  0  0  0  0  0  0  0  0
   50.9340   32.9090   50.1520 N   0  0  0  0  0  0  0  0  0  0  0  0
   52.0150   30.1040   48.9470 H   0  0  0  0  0  0  0  0  0  0  0  0
   53.9170   32.0200   49.1790 H   0  0  0  0  0  0  0  0  0  0  0  0
   52.7110   34.0720   50.1520 H   0  0  0  0  0  0  0  0  0  0  0  0
   46.8090   32.7330   44.3340 C   0  0  0  0  0  0  0  0  0  0  0  0
   47.8310   32.9580   44.6300 H   0  0  0  0  0  0  0  0  0  0  0  0
   46.6790   32.2220   43.3580 H   0  0  0  0  0  0  0  0  0  0  0  0
   46.5100   34.7680   43.0340 C   0  0  0  0  0  0  0  0  0  0  0  0
   46.1270   34.0240   44.1300 C   0  0  0  0  0  0  0  0  0  0  0  0
   45.1800   34.3830   45.0120 C   0  0  0  0  0  0  0  0  0  0  0  0
   44.5330   35.5740   44.8230 C   0  0  0  0  0  0  0  0  0  0  0  0
   44.8290   36.3880   43.7730 C   0  0  0  0  0  0  0  0  0  0  0  0
   45.8180   35.9590   42.8980 C   0  0  0  0  0  0  0  0  0  0  0  0
   44.8000   33.8940   45.8640 H   0  0  0  0  0  0  0  0  0  0  0  0
   43.7470   35.9860   45.4650 H   0  0  0  0  0  0  0  0  0  0  0  0
   44.3420   37.3510   43.5760 H   0  0  0  0  0  0  0  0  0  0  0  0
   46.0400   36.6340   42.0540 H   0  0  0  0  0  0  0  0  0  0  0  0
   47.7450   34.4510   41.9080 S   0  0  0  0  0  0  0  0  0  0  0  0
   48.5210   35.6820   41.5080 O   0  0  0  0  0  0  0  0  0  0  0  0
   47.0660   33.9950   40.5950 O   0  0  0  0  0  0  0  0  0  0  0  0
   48.9070   33.2060   42.1130 C   0  0  0  0  0  0  0  0  0  0  0  0
   50.2450   33.9400   42.4340 C   0  0  0  0  0  0  0  0  0  0  0  0
   49.9800   34.7780   43.1410 H   0  0  0  0  0  0  0  0  0  0  0  0
  1  3  1  0  0  0  0
  1  5  1  0  0  0  0
  2  1  1  0  0  0  0
  4 10  1  0  0  0  0
  4  9  1  0  0  0  0
  5  6  1  0  0  0  0
  5  4  2  0  0  0  0
  6  7  2  0  0  0  0
  7  8  1  0  0  0  0
  8 12  1  0  0  0  0
  9  8  2  0  0  0  0
 11  6  1  0  0  0  0
 12 13  1  0  0  0  0
 12 14  1  0  0  0  0
 15 12  1  0  0  0  0
 15 19  2  0  0  0  0
 16 17  2  0  0  0  0
 16 15  1  0  0  0  0
 17 18  1  0  0  0  0
 18 22  1  0  0  0  0
 18 19  1  0  0  0  0
 20 16  1  0  0  0  0
 21 17  1  0  0  0  0
 23 24  1  0  0  0  0
 23  1  1  0  0  0  0
 25 23  1  0  0  0  0
 26 27  1  0  0  0  0
 27 23  1  0  0  0  0
 27 28  2  0  0  0  0
 28 32  1  0  0  0  0
 29 28  1  0  0  0  0
 29 33  1  0  0  0  0
 30 29  2  0  0  0  0
 31 26  2  0  0  0  0
 31 30  1  0  0  0  0
 34 30  1  0  0  0  0
 35 31  1  0  0  0  0
 36 39  1  0  0  0  0
 36 26  1  0  0  0  0
 37 36  2  0  0  0  0
 38 36  2  0  0  0  0
 39 40  1  0  0  0  0
 40 41  1  0  0  0  0
M  END
>  <minimizedAffinity>
-5.94646072

>  <minimizedRMSD>
0.324026138

$$$$
