
 OpenBabel03252509073D

 35 37  0  0  0  0  0  0  0  0999 V2000
   45.3370   35.5470   43.1570 Cl  0  0  0  0  0  0  0  0  0  0  0  0
   45.1570   34.7060   41.6440 C   0  0  0  0  0  0  0  0  0  0  0  0
   46.2310   34.2190   40.9820 C   0  0  0  0  0  0  0  0  0  0  0  0
   45.9760   33.5620   39.7840 C   0  0  0  0  0  0  0  0  0  0  0  0
   44.7090   33.4070   39.2780 C   0  0  0  0  0  0  0  0  0  0  0  0
   43.6440   33.9070   39.9640 C   0  0  0  0  0  0  0  0  0  0  0  0
   43.8780   34.5620   41.1570 C   0  0  0  0  0  0  0  0  0  0  0  0
   44.5250   32.8960   38.3450 H   0  0  0  0  0  0  0  0  0  0  0  0
   42.6360   33.7990   39.5890 H   0  0  0  0  0  0  0  0  0  0  0  0
   43.0230   34.9540   41.6920 H   0  0  0  0  0  0  0  0  0  0  0  0
   47.5060   31.7140   39.0840 C   0  0  0  0  0  0  0  0  0  0  0  0
   47.0920   33.0110   39.0380 C   0  0  0  0  0  0  0  0  0  0  0  0
   47.7820   33.8800   38.2130 C   0  0  0  0  0  0  0  0  0  0  0  0
   48.8490   33.4490   37.4640 C   0  0  0  0  0  0  0  0  0  0  0  0
   49.2750   32.1290   37.5060 C   0  0  0  0  0  0  0  0  0  0  0  0
   48.5840   31.2520   38.3350 C   0  0  0  0  0  0  0  0  0  0  0  0
   47.4880   34.9210   38.1450 H   0  0  0  0  0  0  0  0  0  0  0  0
   49.3710   34.1460   36.8280 H   0  0  0  0  0  0  0  0  0  0  0  0
   50.1020   31.8060   36.9200 H   0  0  0  0  0  0  0  0  0  0  0  0
   48.9110   30.2190   38.3720 H   0  0  0  0  0  0  0  0  0  0  0  0
   46.6900   30.5810   40.0460 S   0  0  0  0  0  0  0  0  0  0  0  0
   45.3540   30.1690   39.4680 O   0  0  0  0  0  0  0  0  0  0  0  0
   47.5380   29.2850   39.9430 O   0  0  0  0  0  0  0  0  0  0  0  0
   46.4390   30.7010   41.7180 C   0  0  0  0  0  2  0  0  0  0  0  0
   44.8830   30.7340   41.8730 C   0  0  0  0  0  2  0  0  0  0  0  0
   44.5170   29.7200   41.5540 H   0  0  0  0  0  0  0  0  0  0  0  0
   49.5630   35.7160   41.9300 C   0  0  0  0  0  0  0  0  0  0  0  0
   48.2880   35.5570   41.3810 C   0  0  0  0  0  0  0  0  0  0  0  0
   47.5530   34.3960   41.5420 C   0  0  0  0  0  0  0  0  0  0  0  0
   48.1640   33.4340   42.2650 N   0  0  0  0  0  0  0  0  0  0  0  0
   49.3910   33.5740   42.7980 C   0  0  0  0  0  0  0  0  0  0  0  0
   50.0750   34.7070   42.6270 N   0  0  0  0  0  0  0  0  0  0  0  0
   50.0790   36.6490   41.7650 H   0  0  0  0  0  0  0  0  0  0  0  0
   47.8720   36.3730   40.8170 H   0  0  0  0  0  0  0  0  0  0  0  0
   49.8150   32.7580   43.3670 H   0  0  0  0  0  0  0  0  0  0  0  0
  2  1  1  0  0  0  0
  3 29  1  0  0  0  0
  3  2  2  0  0  0  0
  4  3  1  0  0  0  0
  5  4  2  0  0  0  0
  5  6  1  0  0  0  0
  6  7  2  0  0  0  0
  7  2  1  0  0  0  0
  7 10  1  0  0  0  0
  8  5  1  0  0  0  0
  9  6  1  0  0  0  0
 11 21  1  0  0  0  0
 12 11  1  0  0  0  0
 12  4  1  0  0  0  0
 13 12  2  0  0  0  0
 14 15  2  0  0  0  0
 14 13  1  0  0  0  0
 15 16  1  0  0  0  0
 16 20  1  0  0  0  0
 16 11  2  0  0  0  0
 17 13  1  0  0  0  0
 18 14  1  0  0  0  0
 19 15  1  0  0  0  0
 21 24  1  0  0  0  0
 22 21  2  0  0  0  0
 23 21  2  0  0  0  0
 24 25  1  0  0  0  0
 26 25  1  0  0  0  0
 27 32  1  0  0  0  0
 28 29  1  0  0  0  0
 28 27  2  0  0  0  0
 29 30  2  0  0  0  0
 30 31  1  0  0  0  0
 31 35  1  0  0  0  0
 32 31  2  0  0  0  0
 33 27  1  0  0  0  0
 34 28  1  0  0  0  0
M  END
>  <minimizedAffinity>
-4.41223335

>  <minimizedRMSD>
0.621851385

$$$$
