
 OpenBabel03252509123D

 26 28  0  0  0  0  0  0  0  0999 V2000
   47.7160   31.7530   43.7940 C   0  0  0  0  0  0  0  0  0  0  0  0
   48.7770   32.0340   42.9260 C   0  0  0  0  0  0  0  0  0  0  0  0
   49.8080   31.1400   42.6870 C   0  0  0  0  0  0  0  0  0  0  0  0
   49.8050   29.8990   43.3330 C   0  0  0  0  0  0  0  0  0  0  0  0
   50.6040   28.8100   43.3530 N   0  0  0  0  0  0  0  0  0  0  0  0
   50.0990   27.8820   44.1780 C   0  0  0  0  0  0  0  0  0  0  0  0
   48.9600   28.4160   44.6770 N   0  0  0  0  0  0  0  0  0  0  0  0
   48.7540   29.6550   44.1740 C   0  0  0  0  0  0  0  0  0  0  0  0
   47.7140   30.5100   44.4400 C   0  0  0  0  0  0  0  0  0  0  0  0
   46.9450   32.5130   43.9280 H   0  0  0  0  0  0  0  0  0  0  0  0
   51.4700   28.8050   42.7640 H   0  0  0  0  0  0  0  0  0  0  0  0
   50.5340   26.9130   44.3830 H   0  0  0  0  0  0  0  0  0  0  0  0
   46.8890   30.3050   45.1070 H   0  0  0  0  0  0  0  0  0  0  0  0
   49.5400   35.5390   42.1510 C   0  0  0  0  0  0  0  0  0  0  0  0
   48.8600   35.7480   40.9540 C   0  0  0  0  0  0  0  0  0  0  0  0
   48.1490   34.6760   40.4290 C   0  0  0  0  0  0  0  0  0  0  0  0
   48.1340   33.4690   41.0910 N   0  0  0  0  0  0  0  0  0  0  0  0
   48.8080   33.3190   42.2460 C   0  0  0  0  0  0  0  0  0  0  0  0
   49.5130   34.3450   42.7850 N   0  0  0  0  0  0  0  0  0  0  0  0
   50.1230   36.3310   42.6270 H   0  0  0  0  0  0  0  0  0  0  0  0
   48.9040   36.7180   40.4710 H   0  0  0  0  0  0  0  0  0  0  0  0
   47.6270   34.8510   39.5010 H   0  0  0  0  0  0  0  0  0  0  0  0
   51.1510   31.5030   41.5760 S   0  0  0  0  0  0  0  0  0  0  0  0
   50.8660   30.5790   40.0520 C   0  0  0  0  0  2  0  0  0  0  0  0
   50.3420   31.5460   39.0030 C   0  0  0  0  0  2  0  0  0  0  0  0
   49.3470   31.9330   39.3130 H   0  0  0  0  0  0  0  0  0  0  0  0
  1 10  1  0  0  0  0
  1  9  1  0  0  0  0
  2  1  2  0  0  0  0
  3  2  1  0  0  0  0
  3  4  2  0  0  0  0
  4  5  1  0  0  0  0
  4  8  1  0  0  0  0
  5  6  1  0  0  0  0
  6 12  1  0  0  0  0
  6  7  2  0  0  0  0
  8  9  2  0  0  0  0
  8  7  1  0  0  0  0
  9 13  1  0  0  0  0
 11  5  1  0  0  0  0
 14 20  1  0  0  0  0
 14 19  1  0  0  0  0
 15 14  2  0  0  0  0
 16 15  1  0  0  0  0
 16 17  2  0  0  0  0
 17 18  1  0  0  0  0
 18 19  2  0  0  0  0
 18  2  1  0  0  0  0
 21 15  1  0  0  0  0
 22 16  1  0  0  0  0
 23  3  1  0  0  0  0
 24 23  1  0  0  0  0
 25 26  1  0  0  0  0
 25 24  1  0  0  0  0
M  END
>  <minimizedAffinity>
-3.27913213

>  <minimizedRMSD>
5.58281422

$$$$
