
 OpenBabel03252508023D

 36 38  0  0  1  0  0  0  0  0999 V2000
   44.5840   34.4720   42.9420 C   0  0  0  0  0  0  0  0  0  0  0  0
   44.2980   35.7100   43.5760 C   0  0  0  0  0  0  0  0  0  0  0  0
   44.6110   35.8210   44.9280 C   0  0  0  0  0  0  0  0  0  0  0  0
   45.1660   34.7480   45.5490 N   0  0  0  0  0  0  0  0  0  0  0  0
   45.4250   33.5710   44.8960 C   0  0  0  0  0  0  0  0  0  0  0  0
   45.1280   33.4970   43.6530 N   0  0  0  0  0  0  0  0  0  0  0  0
   43.8620   36.5900   43.1320 H   0  0  0  0  0  0  0  0  0  0  0  0
   44.4220   36.7300   45.4730 H   0  0  0  0  0  0  0  0  0  0  0  0
   46.0220   32.4500   45.6550 C   0  0  1  0  0  0  0  0  0  0  0  0
   46.9740   32.7450   46.7850 C   0  0  0  0  0  0  0  0  0  0  0  0
   45.5580   32.3370   47.0550 C   0  0  1  0  0  0  0  0  0  0  0  0
   46.2040   31.5120   45.0840 H   0  0  0  0  0  0  0  0  0  0  0  0
   47.3240   33.7790   46.9140 H   0  0  0  0  0  0  0  0  0  0  0  0
   47.7700   31.9810   46.9900 H   0  0  0  0  0  0  0  0  0  0  0  0
   45.4040   31.2940   47.4300 H   0  0  0  0  0  0  0  0  0  0  0  0
   44.7660   33.4050   47.6520 N   0  0  0  0  0  0  0  0  0  0  0  0
   45.3040   33.8590   48.4110 H   0  0  0  0  0  0  0  0  0  0  0  0
   43.8620   32.9890   47.9200 H   0  0  0  0  0  0  0  0  0  0  0  0
   44.2470   34.3620   41.5500 C   0  0  0  0  0  0  0  0  0  0  0  0
   45.1260   34.2460   40.6340 O   0  0  0  0  0  0  0  0  0  0  0  0
   42.0280   33.2670   41.1820 C   0  0  0  0  0  0  0  0  0  0  0  0
   42.7970   34.3990   41.3180 C   0  0  0  0  0  0  0  0  0  0  0  0
   42.1660   35.6430   41.2400 C   0  0  0  0  0  0  0  0  0  0  0  0
   40.8030   35.7560   41.0300 C   0  0  0  0  0  0  0  0  0  0  0  0
   40.0350   34.6260   40.8940 C   0  0  0  0  0  0  0  0  0  0  0  0
   40.6590   33.4100   40.9720 C   0  0  0  0  0  0  0  0  0  0  0  0
   42.6700   36.5900   41.3270 H   0  0  0  0  0  0  0  0  0  0  0  0
   40.3110   36.6880   40.9690 H   0  0  0  0  0  0  0  0  0  0  0  0
   38.9880   34.6690   40.7340 H   0  0  0  0  0  0  0  0  0  0  0  0
   40.0460   32.5140   40.8640 H   0  0  0  0  0  0  0  0  0  0  0  0
   42.7120   31.7360   41.1970 S   0  0  0  0  0  0  0  0  0  0  0  0
   41.6750   30.8440   40.5660 O   0  0  0  0  0  0  0  0  0  0  0  0
   42.9290   31.2950   42.6660 O   0  0  0  0  0  0  0  0  0  0  0  0
   44.0360   31.0340   40.5080 C   0  0  0  0  0  2  0  0  0  0  0  0
   44.0230   31.3340   38.9610 C   0  0  0  0  0  2  0  0  0  0  0  0
   44.9360   30.9490   38.5190 H   0  0  0  0  0  0  0  0  0  0  0  0
  1  2  2  0  0  0  0
  1  6  1  0  0  0  0
  2  3  1  0  0  0  0
  3  8  1  0  0  0  0
  3  4  2  0  0  0  0
  5  4  1  0  0  0  0
  5  9  1  0  0  0  0
  6  5  2  0  0  0  0
  7  2  1  0  0  0  0
  9 12  1  6  0  0  0
  9 10  1  0  0  0  0
  9 11  1  0  0  0  0
 10 13  1  0  0  0  0
 10 14  1  0  0  0  0
 10 11  1  0  0  0  0
 11 15  1  1  0  0  0
 11 16  1  0  0  0  0
 16 18  1  0  0  0  0
 16 17  1  0  0  0  0
 19  1  1  0  0  0  0
 20 19  2  0  0  0  0
 21 31  1  0  0  0  0
 21 22  1  0  0  0  0
 22 19  1  0  0  0  0
 23 22  2  0  0  0  0
 23 27  1  0  0  0  0
 24 23  1  0  0  0  0
 25 26  1  0  0  0  0
 25 24  2  0  0  0  0
 26 21  2  0  0  0  0
 28 24  1  0  0  0  0
 29 25  1  0  0  0  0
 30 26  1  0  0  0  0
 31 33  2  0  0  0  0
 32 31  2  0  0  0  0
 34 31  1  0  0  0  0
 35 34  1  0  0  0  0
 36 35  1  0  0  0  0
M  END
>  <minimizedAffinity>
-5.57307243

>  <minimizedRMSD>
0.729469895

$$$$
