
 OpenBabel03242517423D

 13 13  0  0  0  0  0  0  0  0999 V2000
   44.2790   35.7520   44.1460 C   0  0  0  0  0  0  0  0  0  0  0  0
   44.3340   34.9310   42.9970 C   0  0  0  0  0  0  0  0  0  0  0  0
   44.9330   33.6780   43.1090 C   0  0  0  0  0  0  0  0  0  0  0  0
   45.4420   33.2950   44.3180 N   0  0  0  0  0  0  0  0  0  0  0  0
   45.3630   34.1240   45.3910 C   0  0  0  0  0  0  0  0  0  0  0  0
   44.8000   35.3320   45.3400 N   0  0  0  0  0  0  0  0  0  0  0  0
   43.8040   36.7130   44.0070 H   0  0  0  0  0  0  0  0  0  0  0  0
   44.9940   33.0190   42.2490 H   0  0  0  0  0  0  0  0  0  0  0  0
   45.7590   33.8480   46.3710 H   0  0  0  0  0  0  0  0  0  0  0  0
   43.6470   35.5000   41.4500 S   0  0  0  0  0  0  0  0  0  0  0  0
   42.0160   34.7180   41.2560 C   0  0  0  0  0  0  0  0  0  0  0  0
   41.0060   35.8690   41.1570 C   0  0  0  0  0  0  0  0  0  0  0  0
   39.9870   35.4360   41.1340 H   0  0  0  0  0  0  0  0  0  0  0  0
  1  6  1  0  0  0  0
  2  3  1  0  0  0  0
  2  1  2  0  0  0  0
  3  4  2  0  0  0  0
  4  5  1  0  0  0  0
  5  9  1  0  0  0  0
  6  5  2  0  0  0  0
  7  1  1  0  0  0  0
  8  3  1  0  0  0  0
 10  2  1  0  0  0  0
 11 10  1  0  0  0  0
 12 11  1  0  0  0  0
 13 12  1  0  0  0  0
M  END
>  <minimizedAffinity>
-2.93666077

>  <minimizedRMSD>
0.230838612

$$$$
