
 OpenBabel03242522203D

 39 41  0  0  0  0  0  0  0  0999 V2000
   44.5690   35.7280   42.6610 C   0  0  0  0  0  0  0  0  0  0  0  0
   45.0150   36.7400   42.7470 H   0  0  0  0  0  0  0  0  0  0  0  0
   43.6330   35.7590   43.2930 H   0  0  0  0  0  0  0  0  0  0  0  0
   47.3840   33.4900   43.5760 C   0  0  0  0  0  0  0  0  0  0  0  0
   47.0160   33.1780   44.8370 C   0  0  0  0  0  0  0  0  0  0  0  0
   45.4380   34.1330   45.0090 S   0  0  0  0  0  0  0  0  0  0  0  0
   45.5700   34.8030   43.2820 C   0  0  0  0  0  0  0  0  0  0  0  0
   46.5530   34.2870   42.9920 N   0  0  0  0  0  0  0  0  0  0  0  0
   47.4890   32.5520   45.5630 H   0  0  0  0  0  0  0  0  0  0  0  0
   50.8450   33.1950   42.1140 C   0  0  0  0  0  0  0  0  0  0  0  0
   49.7190   33.7520   42.7330 C   0  0  0  0  0  0  0  0  0  0  0  0
   48.6030   32.9760   42.9340 C   0  0  0  0  0  0  0  0  0  0  0  0
   48.6860   31.6610   42.4930 N   0  0  0  0  0  0  0  0  0  0  0  0
   49.7800   31.1720   41.9080 C   0  0  0  0  0  0  0  0  0  0  0  0
   50.8710   31.9380   41.7140 N   0  0  0  0  0  0  0  0  0  0  0  0
   51.7230   33.8180   41.9600 H   0  0  0  0  0  0  0  0  0  0  0  0
   49.7670   30.1370   41.5930 H   0  0  0  0  0  0  0  0  0  0  0  0
   49.8100   35.1190   43.1200 N   0  0  0  0  0  0  0  0  0  0  0  0
   49.9000   35.4770   44.1080 H   0  0  0  0  0  0  0  0  0  0  0  0
   49.7920   35.8820   42.4090 H   0  0  0  0  0  0  0  0  0  0  0  0
   44.2680   35.3230   41.2500 C   0  0  0  0  0  0  0  0  0  0  0  0
   44.5130   36.2200   40.6130 H   0  0  0  0  0  0  0  0  0  0  0  0
   45.0030   34.5450   40.9540 H   0  0  0  0  0  0  0  0  0  0  0  0
   42.9040   34.9420   40.9730 C   0  0  0  0  0  0  0  0  0  0  0  0
   41.9050   35.6250   40.3420 C   0  0  0  0  0  0  0  0  0  0  0  0
   40.6150   35.2020   40.1070 C   0  0  0  0  0  0  0  0  0  0  0  0
   40.3310   33.9410   40.5750 C   0  0  0  0  0  0  0  0  0  0  0  0
   41.3180   33.2390   41.2110 C   0  0  0  0  0  0  0  0  0  0  0  0
   42.5660   33.6940   41.4180 N   0  0  0  0  0  0  0  0  0  0  0  0
   42.2240   36.6250   40.0000 H   0  0  0  0  0  0  0  0  0  0  0  0
   39.9050   35.8400   39.5910 H   0  0  0  0  0  0  0  0  0  0  0  0
   40.9070   31.8790   41.6830 C   0  0  0  0  0  0  0  0  0  0  0  0
   39.6600   31.9710   42.3240 F   0  0  0  0  0  0  0  0  0  0  0  0
   41.8610   31.2470   42.4350 F   0  0  0  0  0  0  0  0  0  0  0  0
   40.6880   31.0580   40.5700 F   0  0  0  0  0  0  0  0  0  0  0  0
   38.6900   33.2830   40.3270 S   0  0  0  0  0  0  0  0  0  0  0  0
   38.4300   32.6100   38.6990 C   0  0  0  0  0  0  0  0  0  0  0  0
   38.3680   33.6010   37.5980 C   0  0  0  0  0  0  0  0  0  0  0  0
   38.9560   33.2660   36.6920 H   0  0  0  0  0  0  0  0  0  0  0  0
  1  2  1  0  0  0  0
  1  7  1  0  0  0  0
  1  3  1  0  0  0  0
  4  5  2  0  0  0  0
  5  6  1  0  0  0  0
  5  9  1  0  0  0  0
  7  6  1  0  0  0  0
  8  7  2  0  0  0  0
  8  4  1  0  0  0  0
 10 11  1  0  0  0  0
 11 12  2  0  0  0  0
 11 18  1  0  0  0  0
 12  4  1  0  0  0  0
 13 12  1  0  0  0  0
 14 13  2  0  0  0  0
 15 14  1  0  0  0  0
 15 10  2  0  0  0  0
 16 10  1  0  0  0  0
 17 14  1  0  0  0  0
 18 19  1  0  0  0  0
 20 18  1  0  0  0  0
 21  1  1  0  0  0  0
 22 21  1  0  0  0  0
 23 21  1  0  0  0  0
 24 21  1  0  0  0  0
 24 29  1  0  0  0  0
 25 24  2  0  0  0  0
 26 25  1  0  0  0  0
 26 27  2  0  0  0  0
 27 28  1  0  0  0  0
 28 29  2  0  0  0  0
 28 32  1  0  0  0  0
 30 25  1  0  0  0  0
 31 26  1  0  0  0  0
 32 33  1  0  0  0  0
 32 34  1  0  0  0  0
 35 32  1  0  0  0  0
 36 27  1  0  0  0  0
 37 36  1  0  0  0  0
 38 37  1  0  0  0  0
 39 38  1  0  0  0  0
M  END
>  <minimizedAffinity>
-6.0850563

>  <minimizedRMSD>
1.94083214

$$$$
