
 OpenBabel03242519233D

 34 36  0  0  0  0  0  0  0  0999 V2000
   46.4600   33.8720   43.2270 C   0  0  0  0  0  0  0  0  0  0  0  0
   45.7590   34.8740   42.4300 C   0  0  0  0  0  0  0  0  0  0  0  0
   45.3320   36.0800   43.1800 C   0  0  0  0  0  0  0  0  0  0  0  0
   44.5560   35.7650   44.4490 C   0  0  0  0  0  0  0  0  0  0  0  0
   44.9860   34.4930   45.1340 C   0  0  0  0  0  0  0  0  0  0  0  0
   46.4080   34.1430   44.7410 C   0  0  0  0  0  0  0  0  0  0  0  0
   45.9880   32.8490   43.1380 H   0  0  0  0  0  0  0  0  0  0  0  0
   46.3630   35.1840   41.5800 H   0  0  0  0  0  0  0  0  0  0  0  0
   44.8200   34.4140   42.0040 H   0  0  0  0  0  0  0  0  0  0  0  0
   44.5770   36.6000   42.5160 H   0  0  0  0  0  0  0  0  0  0  0  0
   46.0990   36.8540   43.3500 H   0  0  0  0  0  0  0  0  0  0  0  0
   43.4590   35.8190   44.3070 H   0  0  0  0  0  0  0  0  0  0  0  0
   44.7950   36.5980   45.1710 H   0  0  0  0  0  0  0  0  0  0  0  0
   44.2810   33.7060   44.7590 H   0  0  0  0  0  0  0  0  0  0  0  0
   44.8930   34.5290   46.2190 H   0  0  0  0  0  0  0  0  0  0  0  0
   46.7420   33.2310   45.2330 H   0  0  0  0  0  0  0  0  0  0  0  0
   47.0250   35.0430   44.9610 H   0  0  0  0  0  0  0  0  0  0  0  0
   47.8790   33.7130   42.8830 C   0  0  0  0  0  0  0  0  0  0  0  0
   48.5840   34.9190   42.7190 C   0  0  0  0  0  0  0  0  0  0  0  0
   49.9560   34.8960   42.3920 C   0  0  0  0  0  0  0  0  0  0  0  0
   50.5230   33.6580   42.2530 N   0  0  0  0  0  0  0  0  0  0  0  0
   49.8010   32.5050   42.4210 C   0  0  0  0  0  0  0  0  0  0  0  0
   48.5140   32.5510   42.7280 N   0  0  0  0  0  0  0  0  0  0  0  0
   48.2350   35.9380   42.8060 H   0  0  0  0  0  0  0  0  0  0  0  0
   50.5640   35.7540   42.2500 H   0  0  0  0  0  0  0  0  0  0  0  0
   50.5610   31.2710   42.2460 C   0  0  0  0  0  0  0  0  0  0  0  0
   51.5740   31.2950   41.3510 N   0  0  0  0  0  0  0  0  0  0  0  0
   52.1730   30.0900   41.3140 C   0  0  0  0  0  0  0  0  0  0  0  0
   51.5080   29.3160   42.2080 N   0  0  0  0  0  0  0  0  0  0  0  0
   50.5200   30.0290   42.7830 N   0  0  0  0  0  0  0  0  0  0  0  0
   53.0120   29.7750   40.7070 H   0  0  0  0  0  0  0  0  0  0  0  0
   51.8100   27.9310   42.5010 C   0  0  0  0  0  0  0  0  0  0  0  0
   53.0480   27.8240   43.3660 C   0  0  0  0  0  0  0  0  0  0  0  0
   52.7200   28.0230   44.4240 H   0  0  0  0  0  0  0  0  0  0  0  0
  1  6  1  0  0  0  0
  2  3  1  0  0  0  0
  2  1  1  0  0  0  0
  3 11  1  0  0  0  0
  3  4  1  0  0  0  0
  4  5  1  0  0  0  0
  4 13  1  0  0  0  0
  5 15  1  0  0  0  0
  6 17  1  0  0  0  0
  6  5  1  0  0  0  0
  6 16  1  0  0  0  0
  7  1  1  0  0  0  0
  8  2  1  0  0  0  0
  9  2  1  0  0  0  0
 10  3  1  0  0  0  0
 12  4  1  0  0  0  0
 14  5  1  0  0  0  0
 18  1  1  0  0  0  0
 19 24  1  0  0  0  0
 19 18  2  0  0  0  0
 20 19  1  0  0  0  0
 21 20  2  0  0  0  0
 21 22  1  0  0  0  0
 22 23  2  0  0  0  0
 23 18  1  0  0  0  0
 25 20  1  0  0  0  0
 26 22  1  0  0  0  0
 26 30  2  0  0  0  0
 27 26  1  0  0  0  0
 28 27  2  0  0  0  0
 28 29  1  0  0  0  0
 29 32  1  0  0  0  0
 29 30  1  0  0  0  0
 31 28  1  0  0  0  0
 32 33  1  0  0  0  0
 33 34  1  0  0  0  0
M  END
>  <minimizedAffinity>
-4.13347721

>  <minimizedRMSD>
0.0898768306

$$$$
