
 OpenBabel03252509073D

 35 37  0  0  0  0  0  0  0  0999 V2000
   45.3810   35.3280   43.2210 Cl  0  0  0  0  0  0  0  0  0  0  0  0
   45.2080   34.5690   41.6650 C   0  0  0  0  0  0  0  0  0  0  0  0
   46.2880   34.1670   40.9590 C   0  0  0  0  0  0  0  0  0  0  0  0
   46.0380   33.5710   39.7270 C   0  0  0  0  0  0  0  0  0  0  0  0
   44.7700   33.3920   39.2340 C   0  0  0  0  0  0  0  0  0  0  0  0
   43.6980   33.8070   39.9660 C   0  0  0  0  0  0  0  0  0  0  0  0
   43.9270   34.4000   41.1910 C   0  0  0  0  0  0  0  0  0  0  0  0
   44.5900   32.9290   38.2760 H   0  0  0  0  0  0  0  0  0  0  0  0
   42.6890   33.6770   39.6010 H   0  0  0  0  0  0  0  0  0  0  0  0
   43.0670   34.7240   41.7620 H   0  0  0  0  0  0  0  0  0  0  0  0
   47.6130   31.8270   38.8740 C   0  0  0  0  0  0  0  0  0  0  0  0
   47.1620   33.1110   38.9330 C   0  0  0  0  0  0  0  0  0  0  0  0
   47.8190   34.0620   38.1730 C   0  0  0  0  0  0  0  0  0  0  0  0
   48.8910   33.7210   37.3840 C   0  0  0  0  0  0  0  0  0  0  0  0
   49.3540   32.4150   37.3200 C   0  0  0  0  0  0  0  0  0  0  0  0
   48.6960   31.4560   38.0840 C   0  0  0  0  0  0  0  0  0  0  0  0
   47.4950   35.0960   38.1880 H   0  0  0  0  0  0  0  0  0  0  0  0
   49.3870   34.4800   36.8010 H   0  0  0  0  0  0  0  0  0  0  0  0
   50.1840   32.1620   36.7050 H   0  0  0  0  0  0  0  0  0  0  0  0
   49.0520   30.4330   38.0380 H   0  0  0  0  0  0  0  0  0  0  0  0
   46.8390   30.6000   39.7520 S   0  0  0  0  0  0  0  0  0  0  0  0
   45.5530   30.1330   39.1050 O   0  0  0  0  0  0  0  0  0  0  0  0
   47.7720   29.3670   39.6210 O   0  0  0  0  0  0  0  0  0  0  0  0
   46.5220   30.6230   41.4170 C   0  0  0  0  0  2  0  0  0  0  0  0
   47.7380   29.8700   42.0500 C   0  0  0  0  0  2  0  0  0  0  0  0
   48.6350   30.5240   41.8730 H   0  0  0  0  0  0  0  0  0  0  0  0
   49.5780   35.7420   41.9280 C   0  0  0  0  0  0  0  0  0  0  0  0
   48.3010   35.5620   41.3920 C   0  0  0  0  0  0  0  0  0  0  0  0
   47.6120   34.3670   41.5060 C   0  0  0  0  0  0  0  0  0  0  0  0
   48.2710   33.3950   42.1710 N   0  0  0  0  0  0  0  0  0  0  0  0
   49.5010   33.5550   42.6920 C   0  0  0  0  0  0  0  0  0  0  0  0
   50.1390   34.7210   42.5670 N   0  0  0  0  0  0  0  0  0  0  0  0
   50.0560   36.7010   41.8020 H   0  0  0  0  0  0  0  0  0  0  0  0
   47.8450   36.3880   40.8750 H   0  0  0  0  0  0  0  0  0  0  0  0
   49.9650   32.7290   43.2140 H   0  0  0  0  0  0  0  0  0  0  0  0
  2  1  1  0  0  0  0
  3 29  1  0  0  0  0
  3  2  2  0  0  0  0
  4  3  1  0  0  0  0
  5  4  2  0  0  0  0
  5  6  1  0  0  0  0
  6  7  2  0  0  0  0
  7  2  1  0  0  0  0
  7 10  1  0  0  0  0
  8  5  1  0  0  0  0
  9  6  1  0  0  0  0
 11 12  1  0  0  0  0
 11 21  1  0  0  0  0
 12  4  1  0  0  0  0
 13 17  1  0  0  0  0
 13 12  2  0  0  0  0
 14 13  1  0  0  0  0
 15 14  2  0  0  0  0
 15 16  1  0  0  0  0
 16 11  2  0  0  0  0
 18 14  1  0  0  0  0
 19 15  1  0  0  0  0
 20 16  1  0  0  0  0
 21 24  1  0  0  0  0
 22 21  2  0  0  0  0
 23 21  2  0  0  0  0
 24 25  1  0  0  0  0
 26 25  1  0  0  0  0
 27 32  1  0  0  0  0
 28 29  1  0  0  0  0
 28 27  2  0  0  0  0
 29 30  2  0  0  0  0
 30 31  1  0  0  0  0
 31 35  1  0  0  0  0
 32 31  2  0  0  0  0
 33 27  1  0  0  0  0
 34 28  1  0  0  0  0
M  END
>  <minimizedAffinity>
-4.4190731

>  <minimizedRMSD>
0.660189927

$$$$
