
 OpenBabel03252504213D

 26 28  0  0  0  0  0  0  0  0999 V2000
   47.5190   33.4660   39.9870 C   0  0  0  0  0  0  0  0  0  0  0  0
   48.8800   33.1920   40.2080 C   0  0  0  0  0  0  0  0  0  0  0  0
   49.3770   33.2870   41.5200 C   0  0  0  0  0  0  0  0  0  0  0  0
   48.4970   33.6420   42.5010 N   0  0  0  0  0  0  0  0  0  0  0  0
   47.2070   33.8940   42.2450 C   0  0  0  0  0  0  0  0  0  0  0  0
   46.7190   33.8070   41.0010 N   0  0  0  0  0  0  0  0  0  0  0  0
   46.3480   34.2590   43.3370 N   0  0  0  0  0  0  0  0  0  0  0  0
   45.4280   35.2560   43.3380 C   0  0  0  0  0  0  0  0  0  0  0  0
   44.8240   35.2710   44.5570 N   0  0  0  0  0  0  0  0  0  0  0  0
   45.3860   34.2840   45.2790 C   0  0  0  0  0  0  0  0  0  0  0  0
   45.1960   33.8180   46.5580 C   0  0  0  0  0  0  0  0  0  0  0  0
   45.8990   32.7960   47.0530 N   0  0  0  0  0  0  0  0  0  0  0  0
   46.8320   32.1640   46.3290 C   0  0  0  0  0  0  0  0  0  0  0  0
   47.0150   32.6250   45.0770 N   0  0  0  0  0  0  0  0  0  0  0  0
   46.3390   33.6450   44.5290 C   0  0  0  0  0  0  0  0  0  0  0  0
   49.6130   32.9140   39.4910 H   0  0  0  0  0  0  0  0  0  0  0  0
   50.3930   33.0930   41.7490 H   0  0  0  0  0  0  0  0  0  0  0  0
   45.2680   35.8830   42.4720 H   0  0  0  0  0  0  0  0  0  0  0  0
   47.4140   31.3360   46.7100 H   0  0  0  0  0  0  0  0  0  0  0  0
   44.2340   34.3990   47.4160 N   0  0  0  0  0  0  0  0  0  0  0  0
   44.4030   34.9170   48.3050 H   0  0  0  0  0  0  0  0  0  0  0  0
   43.2030   34.3250   47.1680 H   0  0  0  0  0  0  0  0  0  0  0  0
   46.9720   33.3180   38.2730 S   0  0  0  0  0  0  0  0  0  0  0  0
   48.2280   34.0450   37.1900 C   0  0  0  0  0  0  0  0  0  0  0  0
   48.5950   33.1100   36.0660 C   0  0  0  0  0  0  0  0  0  0  0  0
   48.1590   32.1170   36.2570 H   0  0  0  0  0  0  0  0  0  0  0  0
  1  2  2  0  0  0  0
  1  6  1  0  0  0  0
  2  3  1  0  0  0  0
  3 17  1  0  0  0  0
  3  4  2  0  0  0  0
  5  4  1  0  0  0  0
  5  7  1  0  0  0  0
  6  5  2  0  0  0  0
  7  8  1  0  0  0  0
  7 15  1  0  0  0  0
  8  9  2  0  0  0  0
  9 10  1  0  0  0  0
 10 11  1  0  0  0  0
 11 12  2  0  0  0  0
 11 20  1  0  0  0  0
 13 19  1  0  0  0  0
 13 12  1  0  0  0  0
 14 13  2  0  0  0  0
 15 14  1  0  0  0  0
 15 10  2  0  0  0  0
 16  2  1  0  0  0  0
 18  8  1  0  0  0  0
 20 21  1  0  0  0  0
 22 20  1  0  0  0  0
 23  1  1  0  0  0  0
 24 23  1  0  0  0  0
 25 26  1  0  0  0  0
 25 24  1  0  0  0  0
M  END
>  <minimizedAffinity>
-5.34194374

>  <minimizedRMSD>
0.529321432

$$$$
