
 OpenBabel03252503173D

 30 32  0  0  0  0  0  0  0  0999 V2000
   35.4040   27.2910   38.0460 C   0  0  0  0  0  0  0  0  0  0  0  0
   35.8770   27.8390   39.2520 C   0  0  0  0  0  0  0  0  0  0  0  0
   36.5780   26.9650   40.0560 C   0  0  0  0  0  0  0  0  0  0  0  0
   36.7960   25.6890   39.7190 N   0  0  0  0  0  0  0  0  0  0  0  0
   36.3160   25.2070   38.5370 C   0  0  0  0  0  0  0  0  0  0  0  0
   35.6270   26.0080   37.7130 N   0  0  0  0  0  0  0  0  0  0  0  0
   34.8470   27.9410   37.3800 H   0  0  0  0  0  0  0  0  0  0  0  0
   36.4910   24.1760   38.2620 H   0  0  0  0  0  0  0  0  0  0  0  0
   37.0830   27.4440   41.2890 C   0  0  0  0  0  0  0  0  0  0  0  0
   36.5870   27.5970   42.5470 C   0  0  0  0  0  0  0  0  0  0  0  0
   37.3020   28.0840   43.5390 C   0  0  0  0  0  0  0  0  0  0  0  0
   38.5760   28.4360   43.2550 C   0  0  0  0  0  0  0  0  0  0  0  0
   38.7480   28.0450   41.4820 S   0  0  0  0  0  0  0  0  0  0  0  0
   35.5310   27.2710   42.6470 H   0  0  0  0  0  0  0  0  0  0  0  0
   36.9620   28.2290   44.5580 H   0  0  0  0  0  0  0  0  0  0  0  0
   39.3820   28.8730   43.9300 H   0  0  0  0  0  0  0  0  0  0  0  0
   35.6130   29.2050   39.5590 C   0  0  0  0  0  0  0  0  0  0  0  0
   34.5470   29.4350   40.2000 O   0  0  0  0  0  0  0  0  0  0  0  0
   36.5840   30.2780   39.1220 C   0  0  0  0  0  0  0  0  0  0  0  0
   37.2700   31.1340   39.9490 C   0  0  0  0  0  0  0  0  0  0  0  0
   38.0070   31.9060   39.1250 N   0  0  0  0  0  0  0  0  0  0  0  0
   37.7730   31.5290   37.8490 C   0  0  0  0  0  0  0  0  0  0  0  0
   36.8900   30.5190   37.8440 N   0  0  0  0  0  0  0  0  0  0  0  0
   38.3040   32.0310   36.6160 N   0  0  0  0  0  0  0  0  0  0  0  0
   37.2330   31.1850   41.0200 H   0  0  0  0  0  0  0  0  0  0  0  0
   37.5990   32.3470   35.9130 H   0  0  0  0  0  0  0  0  0  0  0  0
   39.3370   32.0570   36.4810 H   0  0  0  0  0  0  0  0  0  0  0  0
   38.9120   32.9720   39.4550 C   0  0  0  0  0  2  0  0  0  0  0  0
   38.1950   34.1610   40.0880 C   0  0  0  0  0  2  0  0  0  0  0  0
   38.8950   35.0160   40.0700 H   0  0  0  0  0  0  0  0  0  0  0  0
  1  2  1  0  0  0  0
  2 17  1  0  0  0  0
  2  3  2  0  0  0  0
  3  9  1  0  0  0  0
  4  3  1  0  0  0  0
  5  4  2  0  0  0  0
  6  1  2  0  0  0  0
  6  5  1  0  0  0  0
  7  1  1  0  0  0  0
  8  5  1  0  0  0  0
  9 13  1  0  0  0  0
  9 10  2  0  0  0  0
 10 14  1  0  0  0  0
 10 11  1  0  0  0  0
 11 15  1  0  0  0  0
 12 11  2  0  0  0  0
 12 16  1  0  0  0  0
 13 12  1  0  0  0  0
 17 18  2  0  0  0  0
 19 17  1  0  0  0  0
 19 20  2  0  0  0  0
 20 25  1  0  0  0  0
 21 28  1  0  0  0  0
 21 20  1  0  0  0  0
 22 21  1  0  0  0  0
 23 22  2  0  0  0  0
 23 19  1  0  0  0  0
 24 22  1  0  0  0  0
 26 24  1  0  0  0  0
 27 24  1  0  0  0  0
 28 29  1  0  0  0  0
 30 29  1  0  0  0  0
M  END
>  <minimizedAffinity>
-5.12287283

$$$$

 OpenBabel03252503173D

 30 32  0  0  0  0  0  0  0  0999 V2000
   35.7230   29.0040   38.0130 C   0  0  0  0  0  0  0  0  0  0  0  0
   36.3120   29.0560   39.2900 C   0  0  0  0  0  0  0  0  0  0  0  0
   36.5050   27.8330   39.8960 C   0  0  0  0  0  0  0  0  0  0  0  0
   36.1600   26.6770   39.3180 N   0  0  0  0  0  0  0  0  0  0  0  0
   35.5910   26.6810   38.0780 C   0  0  0  0  0  0  0  0  0  0  0  0
   35.3780   27.8380   37.4380 N   0  0  0  0  0  0  0  0  0  0  0  0
   35.5520   29.9420   37.4970 H   0  0  0  0  0  0  0  0  0  0  0  0
   35.3100   25.7480   37.6090 H   0  0  0  0  0  0  0  0  0  0  0  0
   37.0910   27.8060   41.1840 C   0  0  0  0  0  0  0  0  0  0  0  0
   36.6250   27.7870   42.4630 C   0  0  0  0  0  0  0  0  0  0  0  0
   37.4210   27.7620   43.5100 C   0  0  0  0  0  0  0  0  0  0  0  0
   38.7500   27.7590   43.2640 C   0  0  0  0  0  0  0  0  0  0  0  0
   38.8530   27.7910   41.4430 S   0  0  0  0  0  0  0  0  0  0  0  0
   35.5170   27.7920   42.5270 H   0  0  0  0  0  0  0  0  0  0  0  0
   37.1080   27.7460   44.5470 H   0  0  0  0  0  0  0  0  0  0  0  0
   39.6280   27.7390   43.9880 H   0  0  0  0  0  0  0  0  0  0  0  0
   36.6590   30.3170   39.8560 C   0  0  0  0  0  0  0  0  0  0  0  0
   35.8540   30.7800   40.7150 O   0  0  0  0  0  0  0  0  0  0  0  0
   37.9260   31.0170   39.4220 C   0  0  0  0  0  0  0  0  0  0  0  0
   38.9200   31.4790   40.2490 C   0  0  0  0  0  0  0  0  0  0  0  0
   39.8390   32.0250   39.4280 N   0  0  0  0  0  0  0  0  0  0  0  0
   39.4130   31.8980   38.1510 C   0  0  0  0  0  0  0  0  0  0  0  0
   38.2260   31.2730   38.1440 N   0  0  0  0  0  0  0  0  0  0  0  0
   40.0190   32.3110   36.9200 N   0  0  0  0  0  0  0  0  0  0  0  0
   38.9650   31.4210   41.3200 H   0  0  0  0  0  0  0  0  0  0  0  0
   39.4380   32.9320   36.3140 H   0  0  0  0  0  0  0  0  0  0  0  0
   40.9830   31.9840   36.6940 H   0  0  0  0  0  0  0  0  0  0  0  0
   41.0860   32.6580   39.7590 C   0  0  0  0  0  2  0  0  0  0  0  0
   40.9290   34.1610   39.9680 C   0  0  0  0  0  2  0  0  0  0  0  0
   41.9430   34.6020   39.9590 H   0  0  0  0  0  0  0  0  0  0  0  0
  1  2  1  0  0  0  0
  2 17  1  0  0  0  0
  2  3  2  0  0  0  0
  3  9  1  0  0  0  0
  4  3  1  0  0  0  0
  5  4  2  0  0  0  0
  6  1  2  0  0  0  0
  6  5  1  0  0  0  0
  7  1  1  0  0  0  0
  8  5  1  0  0  0  0
  9 13  1  0  0  0  0
  9 10  2  0  0  0  0
 10 14  1  0  0  0  0
 10 11  1  0  0  0  0
 11 15  1  0  0  0  0
 12 11  2  0  0  0  0
 12 16  1  0  0  0  0
 13 12  1  0  0  0  0
 17 18  2  0  0  0  0
 19 17  1  0  0  0  0
 19 20  2  0  0  0  0
 20 25  1  0  0  0  0
 21 28  1  0  0  0  0
 21 20  1  0  0  0  0
 22 21  1  0  0  0  0
 23 22  2  0  0  0  0
 23 19  1  0  0  0  0
 24 22  1  0  0  0  0
 26 24  1  0  0  0  0
 27 24  1  0  0  0  0
 28 29  1  0  0  0  0
 30 29  1  0  0  0  0
M  END
>  <minimizedAffinity>
-5.07080889

$$$$

 OpenBabel03252503173D

 30 32  0  0  0  0  0  0  0  0999 V2000
   36.5530   30.0530   38.2170 C   0  0  0  0  0  0  0  0  0  0  0  0
   36.8680   29.7850   39.5620 C   0  0  0  0  0  0  0  0  0  0  0  0
   36.9990   28.4500   39.8780 C   0  0  0  0  0  0  0  0  0  0  0  0
   36.8410   27.4740   38.9760 N   0  0  0  0  0  0  0  0  0  0  0  0
   36.5350   27.7880   37.6840 C   0  0  0  0  0  0  0  0  0  0  0  0
   36.3950   29.0680   37.3160 N   0  0  0  0  0  0  0  0  0  0  0  0
   36.4390   31.0900   37.9220 H   0  0  0  0  0  0  0  0  0  0  0  0
   36.4060   27.0010   36.9530 H   0  0  0  0  0  0  0  0  0  0  0  0
   37.3140   28.1020   41.2140 C   0  0  0  0  0  0  0  0  0  0  0  0
   36.6010   27.8770   42.3510 C   0  0  0  0  0  0  0  0  0  0  0  0
   37.1690   27.5580   43.4950 C   0  0  0  0  0  0  0  0  0  0  0  0
   38.5170   27.4610   43.4980 C   0  0  0  0  0  0  0  0  0  0  0  0
   38.9830   27.8460   41.7770 S   0  0  0  0  0  0  0  0  0  0  0  0
   35.5060   27.9890   42.2130 H   0  0  0  0  0  0  0  0  0  0  0  0
   36.6550   27.3680   44.4290 H   0  0  0  0  0  0  0  0  0  0  0  0
   39.2300   27.2020   44.3480 H   0  0  0  0  0  0  0  0  0  0  0  0
   37.0250   30.8650   40.4790 C   0  0  0  0  0  0  0  0  0  0  0  0
   36.0430   31.0910   41.2440 O   0  0  0  0  0  0  0  0  0  0  0  0
   38.3090   31.6610   40.4960 C   0  0  0  0  0  0  0  0  0  0  0  0
   38.6370   32.6860   39.6420 C   0  0  0  0  0  0  0  0  0  0  0  0
   39.8630   33.0900   40.0290 N   0  0  0  0  0  0  0  0  0  0  0  0
   40.2600   32.3360   41.0780 C   0  0  0  0  0  0  0  0  0  0  0  0
   39.2980   31.4480   41.3700 N   0  0  0  0  0  0  0  0  0  0  0  0
   41.4710   32.3670   41.8440 N   0  0  0  0  0  0  0  0  0  0  0  0
   38.0500   33.0850   38.8370 H   0  0  0  0  0  0  0  0  0  0  0  0
   41.9990   31.4670   41.8960 H   0  0  0  0  0  0  0  0  0  0  0  0
   41.7610   33.2590   42.2990 H   0  0  0  0  0  0  0  0  0  0  0  0
   40.6860   34.1330   39.4810 C   0  0  0  0  0  2  0  0  0  0  0  0
   41.5010   33.6530   38.2840 C   0  0  0  0  0  2  0  0  0  0  0  0
   42.2810   34.4120   38.0900 H   0  0  0  0  0  0  0  0  0  0  0  0
  1  2  1  0  0  0  0
  2  3  2  0  0  0  0
  2 17  1  0  0  0  0
  3  9  1  0  0  0  0
  4  3  1  0  0  0  0
  5  4  2  0  0  0  0
  6  5  1  0  0  0  0
  6  1  2  0  0  0  0
  7  1  1  0  0  0  0
  8  5  1  0  0  0  0
  9 13  1  0  0  0  0
  9 10  2  0  0  0  0
 10 11  1  0  0  0  0
 11 12  2  0  0  0  0
 11 15  1  0  0  0  0
 12 16  1  0  0  0  0
 13 12  1  0  0  0  0
 14 10  1  0  0  0  0
 17 19  1  0  0  0  0
 17 18  2  0  0  0  0
 19 23  1  0  0  0  0
 20 21  1  0  0  0  0
 20 19  2  0  0  0  0
 21 22  1  0  0  0  0
 22 23  2  0  0  0  0
 22 24  1  0  0  0  0
 24 26  1  0  0  0  0
 24 27  1  0  0  0  0
 25 20  1  0  0  0  0
 28 21  1  0  0  0  0
 29 28  1  0  0  0  0
 30 29  1  0  0  0  0
M  END
>  <minimizedAffinity>
-4.92409754

$$$$

 OpenBabel03252503173D

 30 32  0  0  0  0  0  0  0  0999 V2000
   39.1860   31.8110   40.6160 C   0  0  0  0  0  0  0  0  0  0  0  0
   38.5040   30.8480   39.8500 C   0  0  0  0  0  0  0  0  0  0  0  0
   37.4120   31.3200   39.1530 C   0  0  0  0  0  0  0  0  0  0  0  0
   37.0250   32.6000   39.1970 N   0  0  0  0  0  0  0  0  0  0  0  0
   37.7210   33.4950   39.9560 C   0  0  0  0  0  0  0  0  0  0  0  0
   38.7910   33.0960   40.6560 N   0  0  0  0  0  0  0  0  0  0  0  0
   40.0520   31.4860   41.1820 H   0  0  0  0  0  0  0  0  0  0  0  0
   37.4090   34.5300   39.9940 H   0  0  0  0  0  0  0  0  0  0  0  0
   36.6740   30.4090   38.3610 C   0  0  0  0  0  0  0  0  0  0  0  0
   35.6070   29.5880   38.5650 C   0  0  0  0  0  0  0  0  0  0  0  0
   35.1090   28.8210   37.6190 C   0  0  0  0  0  0  0  0  0  0  0  0
   35.7100   28.8780   36.4100 C   0  0  0  0  0  0  0  0  0  0  0  0
   37.0510   30.0910   36.6500 S   0  0  0  0  0  0  0  0  0  0  0  0
   35.2070   29.6360   39.5990 H   0  0  0  0  0  0  0  0  0  0  0  0
   34.2640   28.1510   37.7230 H   0  0  0  0  0  0  0  0  0  0  0  0
   35.4700   28.3210   35.4460 H   0  0  0  0  0  0  0  0  0  0  0  0
   38.9620   29.4980   39.8410 C   0  0  0  0  0  0  0  0  0  0  0  0
   39.8610   29.2230   38.9950 O   0  0  0  0  0  0  0  0  0  0  0  0
   38.3760   28.4950   40.8070 C   0  0  0  0  0  0  0  0  0  0  0  0
   38.6770   27.1560   40.8660 C   0  0  0  0  0  0  0  0  0  0  0  0
   37.9220   26.6680   41.8690 N   0  0  0  0  0  0  0  0  0  0  0  0
   37.1920   27.6750   42.3970 C   0  0  0  0  0  0  0  0  0  0  0  0
   37.4710   28.8110   41.7390 N   0  0  0  0  0  0  0  0  0  0  0  0
   36.2450   27.6770   43.4720 N   0  0  0  0  0  0  0  0  0  0  0  0
   39.3640   26.6090   40.2490 H   0  0  0  0  0  0  0  0  0  0  0  0
   35.2950   28.0470   43.2400 H   0  0  0  0  0  0  0  0  0  0  0  0
   36.5360   27.3210   44.4060 H   0  0  0  0  0  0  0  0  0  0  0  0
   37.8390   25.3220   42.3650 C   0  0  0  0  0  2  0  0  0  0  0  0
   36.7950   24.4970   41.6180 C   0  0  0  0  0  2  0  0  0  0  0  0
   36.6090   23.5840   42.2120 H   0  0  0  0  0  0  0  0  0  0  0  0
  1  6  1  0  0  0  0
  1  7  1  0  0  0  0
  2  1  2  0  0  0  0
  3  4  2  0  0  0  0
  3  2  1  0  0  0  0
  4  5  1  0  0  0  0
  5  8  1  0  0  0  0
  5  6  2  0  0  0  0
  9 10  2  0  0  0  0
  9  3  1  0  0  0  0
 10 14  1  0  0  0  0
 11 15  1  0  0  0  0
 11 10  1  0  0  0  0
 12 13  1  0  0  0  0
 12 11  2  0  0  0  0
 13  9  1  0  0  0  0
 16 12  1  0  0  0  0
 17  2  1  0  0  0  0
 17 19  1  0  0  0  0
 18 17  2  0  0  0  0
 19 20  2  0  0  0  0
 19 23  1  0  0  0  0
 20 21  1  0  0  0  0
 21 28  1  0  0  0  0
 21 22  1  0  0  0  0
 22 24  1  0  0  0  0
 23 22  2  0  0  0  0
 24 27  1  0  0  0  0
 25 20  1  0  0  0  0
 26 24  1  0  0  0  0
 29 30  1  0  0  0  0
 29 28  1  0  0  0  0
M  END
>  <minimizedAffinity>
-4.90014219

$$$$

 OpenBabel03252503173D

 30 32  0  0  0  0  0  0  0  0999 V2000
   36.9240   25.7920   42.0340 C   0  0  0  0  0  0  0  0  0  0  0  0
   37.8530   26.8420   42.1500 C   0  0  0  0  0  0  0  0  0  0  0  0
   39.1690   26.4830   41.9520 C   0  0  0  0  0  0  0  0  0  0  0  0
   39.5420   25.2300   41.6700 N   0  0  0  0  0  0  0  0  0  0  0  0
   38.6010   24.2480   41.5680 C   0  0  0  0  0  0  0  0  0  0  0  0
   37.3060   24.5350   41.7500 N   0  0  0  0  0  0  0  0  0  0  0  0
   35.8750   26.0270   42.1820 H   0  0  0  0  0  0  0  0  0  0  0  0
   38.9000   23.2330   41.3410 H   0  0  0  0  0  0  0  0  0  0  0  0
   40.1630   27.4860   42.0550 C   0  0  0  0  0  0  0  0  0  0  0  0
   40.8800   28.0410   43.0700 C   0  0  0  0  0  0  0  0  0  0  0  0
   41.7700   28.9910   42.8760 C   0  0  0  0  0  0  0  0  0  0  0  0
   41.9480   29.4060   41.6020 C   0  0  0  0  0  0  0  0  0  0  0  0
   40.7820   28.3800   40.6450 S   0  0  0  0  0  0  0  0  0  0  0  0
   40.6400   27.6120   44.0650 H   0  0  0  0  0  0  0  0  0  0  0  0
   42.3690   29.4680   43.6420 H   0  0  0  0  0  0  0  0  0  0  0  0
   42.6470   30.2010   41.1820 H   0  0  0  0  0  0  0  0  0  0  0  0
   37.3980   28.1580   42.4530 C   0  0  0  0  0  0  0  0  0  0  0  0
   37.2290   28.4190   43.6790 O   0  0  0  0  0  0  0  0  0  0  0  0
   37.1470   29.1460   41.3380 C   0  0  0  0  0  0  0  0  0  0  0  0
   36.9940   28.8420   40.0070 C   0  0  0  0  0  0  0  0  0  0  0  0
   36.7930   30.0260   39.3940 N   0  0  0  0  0  0  0  0  0  0  0  0
   36.8250   31.0080   40.3220 C   0  0  0  0  0  0  0  0  0  0  0  0
   37.0450   30.4650   41.5290 N   0  0  0  0  0  0  0  0  0  0  0  0
   36.6670   32.4260   40.1860 N   0  0  0  0  0  0  0  0  0  0  0  0
   37.0250   27.8740   39.5450 H   0  0  0  0  0  0  0  0  0  0  0  0
   37.4500   33.0080   40.5590 H   0  0  0  0  0  0  0  0  0  0  0  0
   35.8060   32.8000   39.7340 H   0  0  0  0  0  0  0  0  0  0  0  0
   36.5750   30.2970   38.0000 C   0  0  0  0  0  2  0  0  0  0  0  0
   35.5710   29.3320   37.3770 C   0  0  0  0  0  2  0  0  0  0  0  0
   35.6540   29.4330   36.2800 H   0  0  0  0  0  0  0  0  0  0  0  0
  1  2  1  0  0  0  0
  1  7  1  0  0  0  0
  2 17  1  0  0  0  0
  3  9  1  0  0  0  0
  3  2  2  0  0  0  0
  4  3  1  0  0  0  0
  5  4  2  0  0  0  0
  5  6  1  0  0  0  0
  6  1  2  0  0  0  0
  8  5  1  0  0  0  0
  9 10  2  0  0  0  0
 10 14  1  0  0  0  0
 11 10  1  0  0  0  0
 11 15  1  0  0  0  0
 12 11  2  0  0  0  0
 13 12  1  0  0  0  0
 13  9  1  0  0  0  0
 16 12  1  0  0  0  0
 17 18  2  0  0  0  0
 19 23  1  0  0  0  0
 19 17  1  0  0  0  0
 20 19  2  0  0  0  0
 21 20  1  0  0  0  0
 21 22  1  0  0  0  0
 22 23  2  0  0  0  0
 24 22  1  0  0  0  0
 24 26  1  0  0  0  0
 25 20  1  0  0  0  0
 27 24  1  0  0  0  0
 28 21  1  0  0  0  0
 29 28  1  0  0  0  0
 30 29  1  0  0  0  0
M  END
>  <minimizedAffinity>
-4.73173332

$$$$

 OpenBabel03252503173D

 30 32  0  0  0  0  0  0  0  0999 V2000
   39.2910   28.1360   37.4190 C   0  0  0  0  0  0  0  0  0  0  0  0
   38.6910   29.1890   38.1340 C   0  0  0  0  0  0  0  0  0  0  0  0
   39.4440   30.3410   38.2200 C   0  0  0  0  0  0  0  0  0  0  0  0
   40.6560   30.4550   37.6660 N   0  0  0  0  0  0  0  0  0  0  0  0
   41.1930   29.4040   36.9840 C   0  0  0  0  0  0  0  0  0  0  0  0
   40.5100   28.2580   36.8650 N   0  0  0  0  0  0  0  0  0  0  0  0
   38.7360   27.2090   37.3250 H   0  0  0  0  0  0  0  0  0  0  0  0
   42.1740   29.4930   36.5350 H   0  0  0  0  0  0  0  0  0  0  0  0
   38.9070   31.4440   38.9270 C   0  0  0  0  0  0  0  0  0  0  0  0
   37.8700   32.3050   38.7390 C   0  0  0  0  0  0  0  0  0  0  0  0
   37.5870   33.2730   39.5840 C   0  0  0  0  0  0  0  0  0  0  0  0
   38.3850   33.3840   40.6700 C   0  0  0  0  0  0  0  0  0  0  0  0
   39.5920   32.0330   40.4610 S   0  0  0  0  0  0  0  0  0  0  0  0
   37.2950   32.1050   37.8110 H   0  0  0  0  0  0  0  0  0  0  0  0
   36.7770   33.9860   39.4870 H   0  0  0  0  0  0  0  0  0  0  0  0
   38.3460   34.1270   41.5320 H   0  0  0  0  0  0  0  0  0  0  0  0
   37.3970   29.0100   38.7030 C   0  0  0  0  0  0  0  0  0  0  0  0
   36.4180   29.3010   37.9570 O   0  0  0  0  0  0  0  0  0  0  0  0
   37.2580   28.4980   40.1180 C   0  0  0  0  0  0  0  0  0  0  0  0
   37.1800   27.1800   40.4980 C   0  0  0  0  0  0  0  0  0  0  0  0
   37.0660   27.2060   41.8400 N   0  0  0  0  0  0  0  0  0  0  0  0
   37.0750   28.4920   42.2550 C   0  0  0  0  0  0  0  0  0  0  0  0
   37.1930   29.2960   41.1880 N   0  0  0  0  0  0  0  0  0  0  0  0
   36.9810   29.0490   43.5720 N   0  0  0  0  0  0  0  0  0  0  0  0
   37.2040   26.3120   39.8690 H   0  0  0  0  0  0  0  0  0  0  0  0
   36.2110   29.7390   43.7190 H   0  0  0  0  0  0  0  0  0  0  0  0
   37.6630   28.7480   44.3000 H   0  0  0  0  0  0  0  0  0  0  0  0
   36.9490   26.1070   42.7590 C   0  0  0  0  0  2  0  0  0  0  0  0
   36.9940   24.7570   42.0480 C   0  0  0  0  0  2  0  0  0  0  0  0
   36.6440   23.9940   42.7670 H   0  0  0  0  0  0  0  0  0  0  0  0
  1  2  1  0  0  0  0
  2  3  2  0  0  0  0
  2 17  1  0  0  0  0
  3  9  1  0  0  0  0
  4  3  1  0  0  0  0
  5  4  2  0  0  0  0
  6  5  1  0  0  0  0
  6  1  2  0  0  0  0
  7  1  1  0  0  0  0
  8  5  1  0  0  0  0
  9 13  1  0  0  0  0
 10  9  2  0  0  0  0
 10 11  1  0  0  0  0
 11 12  2  0  0  0  0
 12 16  1  0  0  0  0
 13 12  1  0  0  0  0
 14 10  1  0  0  0  0
 15 11  1  0  0  0  0
 17 19  1  0  0  0  0
 18 17  2  0  0  0  0
 19 20  2  0  0  0  0
 19 23  1  0  0  0  0
 20 21  1  0  0  0  0
 21 22  1  0  0  0  0
 21 28  1  0  0  0  0
 22 24  1  0  0  0  0
 23 22  2  0  0  0  0
 24 26  1  0  0  0  0
 24 27  1  0  0  0  0
 25 20  1  0  0  0  0
 29 28  1  0  0  0  0
 29 30  1  0  0  0  0
M  END
>  <minimizedAffinity>
-4.69148445

$$$$

 OpenBabel03252503173D

 30 32  0  0  0  0  0  0  0  0999 V2000
   35.8840   29.4790   38.3400 C   0  0  0  0  0  0  0  0  0  0  0  0
   36.6690   30.2790   39.1900 C   0  0  0  0  0  0  0  0  0  0  0  0
   37.5870   31.0860   38.5520 C   0  0  0  0  0  0  0  0  0  0  0  0
   37.7250   31.1110   37.2210 N   0  0  0  0  0  0  0  0  0  0  0  0
   36.9390   30.3150   36.4410 C   0  0  0  0  0  0  0  0  0  0  0  0
   36.0290   29.5090   37.0030 N   0  0  0  0  0  0  0  0  0  0  0  0
   35.1480   28.8270   38.7970 H   0  0  0  0  0  0  0  0  0  0  0  0
   37.0500   30.3330   35.3650 H   0  0  0  0  0  0  0  0  0  0  0  0
   38.4150   31.9180   39.3420 C   0  0  0  0  0  0  0  0  0  0  0  0
   38.3120   33.1670   39.8740 C   0  0  0  0  0  0  0  0  0  0  0  0
   39.2680   33.7150   40.5930 C   0  0  0  0  0  0  0  0  0  0  0  0
   40.3830   32.9760   40.7880 C   0  0  0  0  0  0  0  0  0  0  0  0
   40.0340   31.4240   39.8950 S   0  0  0  0  0  0  0  0  0  0  0  0
   37.3480   33.6650   39.6400 H   0  0  0  0  0  0  0  0  0  0  0  0
   39.2410   34.7010   41.0400 H   0  0  0  0  0  0  0  0  0  0  0  0
   41.3330   33.2230   41.3640 H   0  0  0  0  0  0  0  0  0  0  0  0
   36.4780   30.2100   40.6000 C   0  0  0  0  0  0  0  0  0  0  0  0
   35.8240   31.1610   41.1190 O   0  0  0  0  0  0  0  0  0  0  0  0
   37.0420   29.0470   41.3830 C   0  0  0  0  0  0  0  0  0  0  0  0
   38.0830   29.1040   42.2780 C   0  0  0  0  0  0  0  0  0  0  0  0
   38.2340   27.8410   42.7250 N   0  0  0  0  0  0  0  0  0  0  0  0
   37.3180   27.0520   42.1210 C   0  0  0  0  0  0  0  0  0  0  0  0
   36.5770   27.7980   41.2870 N   0  0  0  0  0  0  0  0  0  0  0  0
   37.0660   25.6470   42.2500 N   0  0  0  0  0  0  0  0  0  0  0  0
   38.6570   29.9630   42.5660 H   0  0  0  0  0  0  0  0  0  0  0  0
   37.0960   25.0970   41.3620 H   0  0  0  0  0  0  0  0  0  0  0  0
   36.8720   25.2510   43.1940 H   0  0  0  0  0  0  0  0  0  0  0  0
   39.1780   27.3260   43.6780 C   0  0  0  0  0  2  0  0  0  0  0  0
   40.4870   26.9020   43.0170 C   0  0  0  0  0  2  0  0  0  0  0  0
   41.0440   26.2910   43.7510 H   0  0  0  0  0  0  0  0  0  0  0  0
  1  7  1  0  0  0  0
  1  2  1  0  0  0  0
  2 17  1  0  0  0  0
  3  2  2  0  0  0  0
  3  9  1  0  0  0  0
  4  3  1  0  0  0  0
  5  6  1  0  0  0  0
  5  4  2  0  0  0  0
  6  1  2  0  0  0  0
  8  5  1  0  0  0  0
  9 10  2  0  0  0  0
  9 13  1  0  0  0  0
 10 11  1  0  0  0  0
 11 12  2  0  0  0  0
 11 15  1  0  0  0  0
 12 16  1  0  0  0  0
 13 12  1  0  0  0  0
 14 10  1  0  0  0  0
 17 18  2  0  0  0  0
 17 19  1  0  0  0  0
 19 20  2  0  0  0  0
 20 25  1  0  0  0  0
 20 21  1  0  0  0  0
 21 28  1  0  0  0  0
 22 24  1  0  0  0  0
 22 21  1  0  0  0  0
 23 19  1  0  0  0  0
 23 22  2  0  0  0  0
 24 27  1  0  0  0  0
 26 24  1  0  0  0  0
 29 28  1  0  0  0  0
 29 30  1  0  0  0  0
M  END
>  <minimizedAffinity>
-4.66810751

$$$$

 OpenBabel03252503173D

 30 32  0  0  0  0  0  0  0  0999 V2000
   37.2600   26.8980   41.4820 C   0  0  0  0  0  0  0  0  0  0  0  0
   37.4720   28.1410   40.8590 C   0  0  0  0  0  0  0  0  0  0  0  0
   37.5140   29.2230   41.7110 C   0  0  0  0  0  0  0  0  0  0  0  0
   37.3660   29.1070   43.0360 N   0  0  0  0  0  0  0  0  0  0  0  0
   37.1620   27.8780   43.5910 C   0  0  0  0  0  0  0  0  0  0  0  0
   37.1110   26.7880   42.8150 N   0  0  0  0  0  0  0  0  0  0  0  0
   37.2190   26.0170   40.8520 H   0  0  0  0  0  0  0  0  0  0  0  0
   37.0410   27.7810   44.6620 H   0  0  0  0  0  0  0  0  0  0  0  0
   37.7210   30.5090   41.1560 C   0  0  0  0  0  0  0  0  0  0  0  0
   36.9280   31.4660   40.6010 C   0  0  0  0  0  0  0  0  0  0  0  0
   37.4020   32.6090   40.1510 C   0  0  0  0  0  0  0  0  0  0  0  0
   38.7350   32.8000   40.2620 C   0  0  0  0  0  0  0  0  0  0  0  0
   39.3290   31.2660   41.0500 S   0  0  0  0  0  0  0  0  0  0  0  0
   35.8550   31.1850   40.5710 H   0  0  0  0  0  0  0  0  0  0  0  0
   36.8210   33.4050   39.7010 H   0  0  0  0  0  0  0  0  0  0  0  0
   39.3740   33.6900   39.9520 H   0  0  0  0  0  0  0  0  0  0  0  0
   37.6230   28.2050   39.4430 C   0  0  0  0  0  0  0  0  0  0  0  0
   38.8050   28.1050   39.0060 O   0  0  0  0  0  0  0  0  0  0  0  0
   36.4080   28.3820   38.5610 C   0  0  0  0  0  0  0  0  0  0  0  0
   36.3940   28.3480   37.1880 C   0  0  0  0  0  0  0  0  0  0  0  0
   35.1070   28.5510   36.8430 N   0  0  0  0  0  0  0  0  0  0  0  0
   34.3720   28.7020   37.9680 C   0  0  0  0  0  0  0  0  0  0  0  0
   35.1770   28.5980   39.0360 N   0  0  0  0  0  0  0  0  0  0  0  0
   32.9690   28.9390   38.1410 N   0  0  0  0  0  0  0  0  0  0  0  0
   37.2230   28.1930   36.5250 H   0  0  0  0  0  0  0  0  0  0  0  0
   32.7170   29.7840   38.7010 H   0  0  0  0  0  0  0  0  0  0  0  0
   32.2870   28.2790   37.7140 H   0  0  0  0  0  0  0  0  0  0  0  0
   34.5210   28.6140   35.5330 C   0  0  0  0  0  2  0  0  0  0  0  0
   35.2790   29.5620   34.6090 C   0  0  0  0  0  2  0  0  0  0  0  0
   34.6350   29.7530   33.7320 H   0  0  0  0  0  0  0  0  0  0  0  0
  1  6  1  0  0  0  0
  2  1  2  0  0  0  0
  2  3  1  0  0  0  0
  3  4  2  0  0  0  0
  4  5  1  0  0  0  0
  5  8  1  0  0  0  0
  6  5  2  0  0  0  0
  7  1  1  0  0  0  0
  9  3  1  0  0  0  0
 10  9  2  0  0  0  0
 11 12  2  0  0  0  0
 11 10  1  0  0  0  0
 12 13  1  0  0  0  0
 13  9  1  0  0  0  0
 14 10  1  0  0  0  0
 15 11  1  0  0  0  0
 16 12  1  0  0  0  0
 17  2  1  0  0  0  0
 18 17  2  0  0  0  0
 19 23  1  0  0  0  0
 19 17  1  0  0  0  0
 20 19  2  0  0  0  0
 21 20  1  0  0  0  0
 21 22  1  0  0  0  0
 22 24  1  0  0  0  0
 22 23  2  0  0  0  0
 24 26  1  0  0  0  0
 25 20  1  0  0  0  0
 27 24  1  0  0  0  0
 28 21  1  0  0  0  0
 29 28  1  0  0  0  0
 30 29  1  0  0  0  0
M  END
>  <minimizedAffinity>
-4.63344097

$$$$

 OpenBabel03252503173D

 30 32  0  0  0  0  0  0  0  0999 V2000
   37.3480   31.2570   39.1710 C   0  0  0  0  0  0  0  0  0  0  0  0
   38.4760   30.8240   39.8900 C   0  0  0  0  0  0  0  0  0  0  0  0
   39.1550   31.8140   40.5680 C   0  0  0  0  0  0  0  0  0  0  0  0
   38.7720   33.0960   40.5470 N   0  0  0  0  0  0  0  0  0  0  0  0
   37.6700   33.4650   39.8340 C   0  0  0  0  0  0  0  0  0  0  0  0
   36.9700   32.5480   39.1550 N   0  0  0  0  0  0  0  0  0  0  0  0
   36.7820   30.5130   38.6220 H   0  0  0  0  0  0  0  0  0  0  0  0
   37.3590   34.5010   39.8150 H   0  0  0  0  0  0  0  0  0  0  0  0
   40.3030   31.4550   41.3130 C   0  0  0  0  0  0  0  0  0  0  0  0
   40.5400   31.0090   42.5770 C   0  0  0  0  0  0  0  0  0  0  0  0
   41.7490   30.7440   43.0230 C   0  0  0  0  0  0  0  0  0  0  0  0
   42.7720   30.9360   42.1600 C   0  0  0  0  0  0  0  0  0  0  0  0
   41.9510   31.5230   40.6410 S   0  0  0  0  0  0  0  0  0  0  0  0
   39.6170   30.8940   43.1830 H   0  0  0  0  0  0  0  0  0  0  0  0
   41.9980   30.3880   44.0160 H   0  0  0  0  0  0  0  0  0  0  0  0
   43.8900   30.7800   42.3040 H   0  0  0  0  0  0  0  0  0  0  0  0
   38.8370   29.4450   39.8760 C   0  0  0  0  0  0  0  0  0  0  0  0
   39.7280   29.1130   39.0420 O   0  0  0  0  0  0  0  0  0  0  0  0
   38.1630   28.4780   40.8220 C   0  0  0  0  0  0  0  0  0  0  0  0
   38.1640   27.1090   40.7170 C   0  0  0  0  0  0  0  0  0  0  0  0
   37.4460   26.6720   41.7700 N   0  0  0  0  0  0  0  0  0  0  0  0
   37.0260   27.7400   42.4840 C   0  0  0  0  0  0  0  0  0  0  0  0
   37.4680   28.8620   41.8980 N   0  0  0  0  0  0  0  0  0  0  0  0
   36.2380   27.8120   43.6790 N   0  0  0  0  0  0  0  0  0  0  0  0
   38.6340   26.5080   39.9630 H   0  0  0  0  0  0  0  0  0  0  0  0
   35.3730   28.3950   43.6190 H   0  0  0  0  0  0  0  0  0  0  0  0
   36.5530   27.2950   44.5270 H   0  0  0  0  0  0  0  0  0  0  0  0
   37.1270   25.3240   42.1510 C   0  0  0  0  0  2  0  0  0  0  0  0
   37.5340   24.3140   41.0820 C   0  0  0  0  0  2  0  0  0  0  0  0
   37.0320   23.3590   41.3220 H   0  0  0  0  0  0  0  0  0  0  0  0
  1  2  1  0  0  0  0
  2  3  2  0  0  0  0
  3  9  1  0  0  0  0
  4  3  1  0  0  0  0
  5  4  2  0  0  0  0
  6  1  2  0  0  0  0
  6  5  1  0  0  0  0
  7  1  1  0  0  0  0
  8  5  1  0  0  0  0
  9 10  2  0  0  0  0
 10 11  1  0  0  0  0
 10 14  1  0  0  0  0
 11 15  1  0  0  0  0
 12 16  1  0  0  0  0
 12 11  2  0  0  0  0
 13  9  1  0  0  0  0
 13 12  1  0  0  0  0
 17  2  1  0  0  0  0
 17 19  1  0  0  0  0
 18 17  2  0  0  0  0
 19 23  1  0  0  0  0
 20 19  2  0  0  0  0
 20 21  1  0  0  0  0
 21 28  1  0  0  0  0
 21 22  1  0  0  0  0
 22 24  1  0  0  0  0
 23 22  2  0  0  0  0
 24 27  1  0  0  0  0
 25 20  1  0  0  0  0
 26 24  1  0  0  0  0
 29 30  1  0  0  0  0
 29 28  1  0  0  0  0
M  END
>  <minimizedAffinity>
-4.60529327

$$$$
