
 OpenBabel03252507033D

 41 43  0  0  0  0  0  0  0  0999 V2000
   43.2810   33.4450   40.5250 C   0  0  0  0  0  0  0  0  0  0  0  0
   43.1400   33.9740   39.5530 H   0  0  0  0  0  0  0  0  0  0  0  0
   43.7160   32.4290   40.3580 H   0  0  0  0  0  0  0  0  0  0  0  0
   44.2270   34.2100   41.3540 C   0  0  0  0  0  0  0  0  0  0  0  0
   43.7870   35.2920   42.0920 C   0  0  0  0  0  0  0  0  0  0  0  0
   44.7210   35.9850   42.8490 C   0  0  0  0  0  0  0  0  0  0  0  0
   46.0190   35.5670   42.8300 N   0  0  0  0  0  0  0  0  0  0  0  0
   46.4030   34.5140   42.1030 C   0  0  0  0  0  0  0  0  0  0  0  0
   45.4940   33.8600   41.3810 N   0  0  0  0  0  0  0  0  0  0  0  0
   42.8280   35.7530   42.2470 H   0  0  0  0  0  0  0  0  0  0  0  0
   44.5530   36.8600   43.4890 H   0  0  0  0  0  0  0  0  0  0  0  0
   47.8040   34.1270   42.1700 C   0  0  0  0  0  0  0  0  0  0  0  0
   48.1670   32.7900   42.0400 C   0  0  0  0  0  0  0  0  0  0  0  0
   49.4990   32.4300   42.1230 C   0  0  0  0  0  0  0  0  0  0  0  0
   50.3730   33.4760   42.3350 C   0  0  0  0  0  0  0  0  0  0  0  0
   50.0540   34.8090   42.4690 C   0  0  0  0  0  0  0  0  0  0  0  0
   48.7240   35.0800   42.3750 N   0  0  0  0  0  0  0  0  0  0  0  0
   47.4150   32.0090   41.8710 H   0  0  0  0  0  0  0  0  0  0  0  0
   49.8590   31.4130   42.0330 H   0  0  0  0  0  0  0  0  0  0  0  0
   51.4310   33.2330   42.4090 H   0  0  0  0  0  0  0  0  0  0  0  0
   50.8050   35.5680   42.6350 H   0  0  0  0  0  0  0  0  0  0  0  0
   41.9900   33.3450   41.2590 C   0  0  0  0  0  0  0  0  0  0  0  0
   42.1750   32.7250   42.1640 H   0  0  0  0  0  0  0  0  0  0  0  0
   41.8310   34.3920   41.6880 H   0  0  0  0  0  0  0  0  0  0  0  0
   40.9870   32.8960   40.5140 N   0  0  0  0  0  0  0  0  0  0  0  0
   40.6800   31.5740   40.1160 C   0  0  0  0  0  0  0  0  0  0  0  0
   39.4840   31.3250   41.0510 C   0  0  0  0  0  0  0  0  0  0  0  0
   38.3750   32.2320   40.8180 C   0  0  0  0  0  0  0  0  0  0  0  0
   38.6220   33.5290   40.2270 C   0  0  0  0  0  0  0  0  0  0  0  0
   40.0540   33.9490   40.0570 C   0  0  0  0  0  0  0  0  0  0  0  0
   40.4800   31.3540   39.0800 H   0  0  0  0  0  0  0  0  0  0  0  0
   41.4660   30.8720   40.5100 H   0  0  0  0  0  0  0  0  0  0  0  0
   39.8920   31.4150   42.0770 H   0  0  0  0  0  0  0  0  0  0  0  0
   39.1630   30.2580   40.8890 H   0  0  0  0  0  0  0  0  0  0  0  0
   37.5810   31.7110   40.2100 H   0  0  0  0  0  0  0  0  0  0  0  0
   37.8550   32.4190   41.8040 H   0  0  0  0  0  0  0  0  0  0  0  0
   37.9080   34.2460   39.9110 H   0  0  0  0  0  0  0  0  0  0  0  0
   40.4800   35.5310   39.4270 S   0  0  0  0  0  0  0  0  0  0  0  0
   40.6910   35.4150   37.6300 C   0  0  0  0  0  0  0  0  0  0  0  0
   41.3550   36.6350   37.0450 C   0  0  0  0  0  0  0  0  0  0  0  0
   40.6610   37.1620   36.3240 H   0  0  0  0  0  0  0  0  0  0  0  0
  1 22  1  0  0  0  0
  1  4  1  0  0  0  0
  2  1  1  0  0  0  0
  3  1  1  0  0  0  0
  4  9  2  0  0  0  0
  4  5  1  0  0  0  0
  5 10  1  0  0  0  0
  5  6  2  0  0  0  0
  6 11  1  0  0  0  0
  7  6  1  0  0  0  0
  8 12  1  0  0  0  0
  8  7  2  0  0  0  0
  9  8  1  0  0  0  0
 12 17  1  0  0  0  0
 13 14  1  0  0  0  0
 13 12  2  0  0  0  0
 14 15  2  0  0  0  0
 15 20  1  0  0  0  0
 15 16  1  0  0  0  0
 16 21  1  0  0  0  0
 17 16  2  0  0  0  0
 18 13  1  0  0  0  0
 19 14  1  0  0  0  0
 22 24  1  0  0  0  0
 22 23  1  0  0  0  0
 25 22  1  0  0  0  0
 26 32  1  0  0  0  0
 26 25  1  0  0  0  0
 26 27  1  0  0  0  0
 27 33  1  0  0  0  0
 28 27  1  0  0  0  0
 28 36  1  0  0  0  0
 29 28  1  0  0  0  0
 30 29  2  0  0  0  0
 30 25  1  0  0  0  0
 31 26  1  0  0  0  0
 34 27  1  0  0  0  0
 35 28  1  0  0  0  0
 37 29  1  0  0  0  0
 38 30  1  0  0  0  0
 39 38  1  0  0  0  0
 40 39  1  0  0  0  0
 41 40  1  0  0  0  0
M  END
>  <minimizedAffinity>
-5.441607

>  <minimizedRMSD>
0.889452696

$$$$
