
 OpenBabel03242523403D

 31 34  0  0  1  0  0  0  0  0999 V2000
   37.2720   31.2350   40.7620 C   0  0  2  0  0  0  0  0  0  0  0  0
   36.9620   32.3600   40.2290 N   0  0  1  0  0  4  0  0  0  0  0  0
   37.5280   33.4470   40.0000 C   0  0  0  0  0  0  0  0  0  0  0  0
   37.7450   33.0850   38.7200 N   0  0  0  0  0  0  0  0  0  0  0  0
   37.4600   31.8060   38.3540 C   0  0  2  0  0  3  0  0  0  0  0  0
   37.4380   31.5370   36.9590 C   0  0  0  0  0  0  0  0  0  0  0  0
   37.1230   30.2830   36.5670 C   0  0  0  0  0  0  0  0  0  0  0  0
   36.8220   29.2510   37.4100 C   0  0  0  0  0  0  0  0  0  0  0  0
   36.8760   29.6340   38.7370 C   0  0  0  0  0  0  0  0  0  0  0  0
   37.1760   30.8460   39.3620 C   0  0  1  0  0  0  0  0  0  0  0  0
   38.4320   31.3410   40.9010 H   0  0  0  0  0  0  0  0  0  0  0  0
   35.9030   32.5180   40.3580 H   0  0  0  0  0  0  0  0  0  0  0  0
   38.4800   33.7010   40.5520 H   0  0  0  0  0  0  0  0  0  0  0  0
   36.9270   34.4030   40.0540 H   0  0  0  0  0  0  0  0  0  0  0  0
   38.1280   33.8550   38.1050 H   0  0  0  0  0  0  0  0  0  0  0  0
   37.6570   32.2700   36.2290 H   0  0  0  0  0  0  0  0  0  0  0  0
   37.1100   30.0920   35.4780 H   0  0  0  0  0  0  0  0  0  0  0  0
   36.5800   28.2910   37.0620 H   0  0  0  0  0  0  0  0  0  0  0  0
   36.5980   28.7770   39.3380 H   0  0  0  0  0  0  0  0  0  0  0  0
   36.5630   27.9120   42.2820 C   0  0  0  0  0  0  0  0  0  0  0  0
   37.8780   27.6380   42.6010 C   0  0  0  0  0  0  0  0  0  0  0  0
   38.8380   28.5850   42.2800 C   0  0  0  0  0  0  0  0  0  0  0  0
   38.3880   29.7110   41.6740 N   0  0  0  0  0  0  0  0  0  0  0  0
   37.0980   29.9650   41.3690 C   0  0  0  0  0  0  0  0  0  0  0  0
   36.3210   29.0390   41.7050 N   0  0  0  0  0  0  0  0  0  0  0  0
   35.7670   27.2160   42.5060 H   0  0  0  0  0  0  0  0  0  0  0  0
   38.0990   26.6870   43.0890 H   0  0  0  0  0  0  0  0  0  0  0  0
   40.5420   28.2400   42.6530 S   0  0  0  0  0  0  0  0  0  0  0  0
   40.6890   26.7830   43.6770 C   0  0  0  0  0  2  0  0  0  0  0  0
   41.0170   25.5960   42.7940 C   0  0  0  0  0  2  0  0  0  0  0  0
   40.1090   24.9320   42.7290 H   0  0  0  0  0  0  0  0  0  0  0  0
  1 11  1  1  0  0  0
  1 24  1  0  0  0  0
  2 12  1  1  0  0  0
  2  1  1  0  0  0  0
  3 14  1  0  0  0  0
  3  2  1  0  0  0  0
  3 13  1  0  0  0  0
  4  3  1  0  0  0  0
  5  6  1  6  0  0  0
  5  4  1  0  0  0  0
  5 10  1  0  0  0  0
  7  6  2  0  0  0  0
  7  8  1  0  0  0  0
  8  9  2  0  0  0  0
  9 19  1  0  0  0  0
 10  9  1  6  0  0  0
 10  2  1  0  0  0  0
 10  1  1  0  0  0  0
 15  4  1  0  0  0  0
 16  6  1  0  0  0  0
 17  7  1  0  0  0  0
 18  8  1  0  0  0  0
 20 26  1  0  0  0  0
 20 21  1  0  0  0  0
 21 27  1  0  0  0  0
 22 21  2  0  0  0  0
 22 28  1  0  0  0  0
 23 22  1  0  0  0  0
 24 23  2  0  0  0  0
 24 25  1  0  0  0  0
 25 20  2  0  0  0  0
 28 29  1  0  0  0  0
 30 29  1  0  0  0  0
 31 30  1  0  0  0  0
M  END
>  <minimizedAffinity>
-5.15235901

$$$$

 OpenBabel03242523403D

 31 34  0  0  1  0  0  0  0  0999 V2000
   39.3940   29.9710   42.6890 C   0  0  2  0  0  0  0  0  0  0  0  0
   40.0330   31.0750   42.8280 N   0  0  1  0  0  4  0  0  0  0  0  0
   41.1600   31.5180   42.5330 C   0  0  0  0  0  0  0  0  0  0  0  0
   40.6530   32.1370   41.4490 N   0  0  0  0  0  0  0  0  0  0  0  0
   39.3610   31.8820   41.1060 C   0  0  2  0  0  3  0  0  0  0  0  0
   38.7800   32.7450   40.1390 C   0  0  0  0  0  0  0  0  0  0  0  0
   37.4870   32.5350   39.8060 C   0  0  0  0  0  0  0  0  0  0  0  0
   36.6930   31.5560   40.3300 C   0  0  0  0  0  0  0  0  0  0  0  0
   37.3670   30.7830   41.2560 C   0  0  0  0  0  0  0  0  0  0  0  0
   38.6760   30.8130   41.7430 C   0  0  1  0  0  0  0  0  0  0  0  0
   40.1030   29.3640   41.9790 H   0  0  0  0  0  0  0  0  0  0  0  0
   39.6600   31.5760   43.7060 H   0  0  0  0  0  0  0  0  0  0  0  0
   41.9890   30.7950   42.2770 H   0  0  0  0  0  0  0  0  0  0  0  0
   41.6590   32.2600   43.2260 H   0  0  0  0  0  0  0  0  0  0  0  0
   41.3290   32.7820   40.9540 H   0  0  0  0  0  0  0  0  0  0  0  0
   39.3150   33.5320   39.6770 H   0  0  0  0  0  0  0  0  0  0  0  0
   37.0520   33.2170   39.0520 H   0  0  0  0  0  0  0  0  0  0  0  0
   35.6910   31.4290   40.0440 H   0  0  0  0  0  0  0  0  0  0  0  0
   36.6680   30.0530   41.6460 H   0  0  0  0  0  0  0  0  0  0  0  0
   36.6780   27.5320   43.4160 C   0  0  0  0  0  0  0  0  0  0  0  0
   37.1520   26.5580   42.5600 C   0  0  0  0  0  0  0  0  0  0  0  0
   38.3140   26.8220   41.8520 C   0  0  0  0  0  0  0  0  0  0  0  0
   38.8850   28.0330   42.0700 N   0  0  0  0  0  0  0  0  0  0  0  0
   38.4080   28.9750   42.9110 C   0  0  0  0  0  0  0  0  0  0  0  0
   37.3550   28.6250   43.4950 N   0  0  0  0  0  0  0  0  0  0  0  0
   35.7770   27.3880   43.9980 H   0  0  0  0  0  0  0  0  0  0  0  0
   36.5890   25.6260   42.4820 H   0  0  0  0  0  0  0  0  0  0  0  0
   38.9280   25.5950   40.7220 S   0  0  0  0  0  0  0  0  0  0  0  0
   38.8520   23.9640   41.4480 C   0  0  0  0  0  2  0  0  0  0  0  0
   37.7470   23.1770   40.7730 C   0  0  0  0  0  2  0  0  0  0  0  0
   36.8890   23.0690   41.4950 H   0  0  0  0  0  0  0  0  0  0  0  0
  1 11  1  6  0  0  0
  1  2  1  0  0  0  0
  1 24  1  0  0  0  0
  2 12  1  1  0  0  0
  3  2  1  0  0  0  0
  3 14  1  0  0  0  0
  4  3  1  0  0  0  0
  5  6  1  1  0  0  0
  5  4  1  0  0  0  0
  5 10  1  0  0  0  0
  7  6  2  0  0  0  0
  7  8  1  0  0  0  0
  8  9  2  0  0  0  0
  9 19  1  0  0  0  0
 10  9  1  1  0  0  0
 10  1  1  0  0  0  0
 10  2  1  0  0  0  0
 13  3  1  0  0  0  0
 15  4  1  0  0  0  0
 16  6  1  0  0  0  0
 17  7  1  0  0  0  0
 18  8  1  0  0  0  0
 20 25  1  0  0  0  0
 20 26  1  0  0  0  0
 21 20  2  0  0  0  0
 22 23  2  0  0  0  0
 22 21  1  0  0  0  0
 23 24  1  0  0  0  0
 24 25  2  0  0  0  0
 27 21  1  0  0  0  0
 28 29  1  0  0  0  0
 28 22  1  0  0  0  0
 30 29  1  0  0  0  0
 30 31  1  0  0  0  0
M  END
>  <minimizedAffinity>
-5.13930178

$$$$

 OpenBabel03242523403D

 31 34  0  0  1  0  0  0  0  0999 V2000
   36.9980   29.2700   41.9220 C   0  0  2  0  0  0  0  0  0  0  0  0
   36.9020   28.5740   42.9960 N   0  0  1  0  0  4  0  0  0  0  0  0
   36.5740   27.4110   43.3010 C   0  0  0  0  0  0  0  0  0  0  0  0
   37.8690   27.0460   43.3760 N   0  0  0  0  0  0  0  0  0  0  0  0
   38.8140   27.9320   42.9590 C   0  0  2  0  0  3  0  0  0  0  0  0
   40.1590   27.6310   43.3010 C   0  0  0  0  0  0  0  0  0  0  0  0
   41.1140   28.5130   42.9300 C   0  0  0  0  0  0  0  0  0  0  0  0
   40.8840   29.6750   42.2500 C   0  0  0  0  0  0  0  0  0  0  0  0
   39.5430   29.8570   41.9740 C   0  0  0  0  0  0  0  0  0  0  0  0
   38.4060   29.0950   42.2510 C   0  0  1  0  0  0  0  0  0  0  0  0
   36.8440   28.4580   41.0900 H   0  0  0  0  0  0  0  0  0  0  0  0
   36.6940   29.2410   43.8170 H   0  0  0  0  0  0  0  0  0  0  0  0
   35.9850   26.7910   42.5640 H   0  0  0  0  0  0  0  0  0  0  0  0
   36.0460   27.2280   44.2850 H   0  0  0  0  0  0  0  0  0  0  0  0
   38.0310   26.0760   43.7630 H   0  0  0  0  0  0  0  0  0  0  0  0
   40.4360   26.7560   43.8270 H   0  0  0  0  0  0  0  0  0  0  0  0
   42.1550   28.2630   43.2060 H   0  0  0  0  0  0  0  0  0  0  0  0
   41.6560   30.3340   41.9830 H   0  0  0  0  0  0  0  0  0  0  0  0
   39.4380   30.8070   41.4640 H   0  0  0  0  0  0  0  0  0  0  0  0
   37.3250   32.4120   39.9530 C   0  0  0  0  0  0  0  0  0  0  0  0
   37.0920   31.8160   38.7290 C   0  0  0  0  0  0  0  0  0  0  0  0
   36.8510   30.4520   38.7030 C   0  0  0  0  0  0  0  0  0  0  0  0
   36.8650   29.8190   39.9020 N   0  0  0  0  0  0  0  0  0  0  0  0
   37.0940   30.4160   41.0910 C   0  0  0  0  0  0  0  0  0  0  0  0
   37.3000   31.6490   40.9910 N   0  0  0  0  0  0  0  0  0  0  0  0
   37.5190   33.4720   40.0410 H   0  0  0  0  0  0  0  0  0  0  0  0
   37.1110   32.4490   37.8400 H   0  0  0  0  0  0  0  0  0  0  0  0
   36.5780   29.6580   37.1360 S   0  0  0  0  0  0  0  0  0  0  0  0
   35.3900   28.3310   37.2900 C   0  0  0  0  0  2  0  0  0  0  0  0
   34.0630   28.9110   37.7340 C   0  0  0  0  0  2  0  0  0  0  0  0
   33.8830   28.6190   38.8070 H   0  0  0  0  0  0  0  0  0  0  0  0
  1 11  1  6  0  0  0
  1 10  1  0  0  0  0
  1  2  1  0  0  0  0
  2  3  1  0  0  0  0
  2 12  1  1  0  0  0
  3  4  1  0  0  0  0
  3 14  1  0  0  0  0
  4 15  1  0  0  0  0
  5  6  1  1  0  0  0
  5  4  1  0  0  0  0
  6 16  1  0  0  0  0
  7 17  1  0  0  0  0
  7  6  2  0  0  0  0
  8  7  1  0  0  0  0
  9  8  2  0  0  0  0
 10  9  1  1  0  0  0
 10  5  1  0  0  0  0
 10  2  1  0  0  0  0
 13  3  1  0  0  0  0
 18  8  1  0  0  0  0
 19  9  1  0  0  0  0
 20 26  1  0  0  0  0
 20 25  1  0  0  0  0
 21 20  2  0  0  0  0
 22 21  1  0  0  0  0
 22 23  2  0  0  0  0
 23 24  1  0  0  0  0
 24  1  1  0  0  0  0
 25 24  2  0  0  0  0
 27 21  1  0  0  0  0
 28 29  1  0  0  0  0
 28 22  1  0  0  0  0
 29 30  1  0  0  0  0
 30 31  1  0  0  0  0
M  END
>  <minimizedAffinity>
-5.06688786

$$$$

 OpenBabel03242523403D

 31 34  0  0  1  0  0  0  0  0999 V2000
   36.8670   31.1570   40.3880 C   0  0  2  0  0  0  0  0  0  0  0  0
   35.8430   30.4900   40.7800 N   0  0  1  0  0  4  0  0  0  0  0  0
   35.0730   29.6360   40.2980 C   0  0  0  0  0  0  0  0  0  0  0  0
   35.7490   28.6490   40.9190 N   0  0  0  0  0  0  0  0  0  0  0  0
   36.9140   28.9620   41.5470 C   0  0  2  0  0  3  0  0  0  0  0  0
   37.4530   27.9720   42.4110 C   0  0  0  0  0  0  0  0  0  0  0  0
   38.5910   28.2710   43.0760 C   0  0  0  0  0  0  0  0  0  0  0  0
   39.2650   29.4550   42.9810 C   0  0  0  0  0  0  0  0  0  0  0  0
   38.6470   30.3350   42.1130 C   0  0  0  0  0  0  0  0  0  0  0  0
   37.4920   30.2420   41.3330 C   0  0  1  0  0  0  0  0  0  0  0  0
   37.1130   30.6450   39.3620 H   0  0  0  0  0  0  0  0  0  0  0  0
   35.3270   31.0660   41.5310 H   0  0  0  0  0  0  0  0  0  0  0  0
   35.0280   29.5010   39.1780 H   0  0  0  0  0  0  0  0  0  0  0  0
   33.9850   29.6380   40.6090 H   0  0  0  0  0  0  0  0  0  0  0  0
   35.2940   27.6970   40.8540 H   0  0  0  0  0  0  0  0  0  0  0  0
   37.0030   27.0250   42.5510 H   0  0  0  0  0  0  0  0  0  0  0  0
   38.9960   27.4890   43.7450 H   0  0  0  0  0  0  0  0  0  0  0  0
   40.1460   29.6470   43.5180 H   0  0  0  0  0  0  0  0  0  0  0  0
   39.2190   31.2550   42.1150 H   0  0  0  0  0  0  0  0  0  0  0  0
   39.3480   33.9270   40.5440 C   0  0  0  0  0  0  0  0  0  0  0  0
   40.1000   33.4810   39.4760 C   0  0  0  0  0  0  0  0  0  0  0  0
   39.6940   32.3240   38.8300 C   0  0  0  0  0  0  0  0  0  0  0  0
   38.5760   31.7280   39.3160 N   0  0  0  0  0  0  0  0  0  0  0  0
   37.8510   32.1770   40.3630 C   0  0  0  0  0  0  0  0  0  0  0  0
   38.3140   33.2280   40.8670 N   0  0  0  0  0  0  0  0  0  0  0  0
   39.6100   34.8230   41.0900 H   0  0  0  0  0  0  0  0  0  0  0  0
   40.9790   34.0610   39.1910 H   0  0  0  0  0  0  0  0  0  0  0  0
   40.6630   31.7140   37.4710 S   0  0  0  0  0  0  0  0  0  0  0  0
   42.0980   32.7440   37.1960 C   0  0  0  0  0  2  0  0  0  0  0  0
   43.3230   32.0290   37.7270 C   0  0  0  0  0  2  0  0  0  0  0  0
   43.6650   32.5460   38.6670 H   0  0  0  0  0  0  0  0  0  0  0  0
  1 11  1  6  0  0  0
  1  2  1  0  0  0  0
  1 10  1  0  0  0  0
  2 10  1  0  0  0  0
  2 12  1  1  0  0  0
  3 14  1  0  0  0  0
  3  2  1  0  0  0  0
  3  4  1  0  0  0  0
  4  5  1  0  0  0  0
  5  6  1  1  0  0  0
  6 16  1  0  0  0  0
  6  7  2  0  0  0  0
  7 17  1  0  0  0  0
  8  7  1  0  0  0  0
  8 18  1  0  0  0  0
  9 19  1  0  0  0  0
  9  8  2  0  0  0  0
 10  5  1  0  0  0  0
 10  9  1  1  0  0  0
 13  3  1  0  0  0  0
 15  4  1  0  0  0  0
 20 25  1  0  0  0  0
 20 26  1  0  0  0  0
 21 20  2  0  0  0  0
 22 23  2  0  0  0  0
 22 21  1  0  0  0  0
 23 24  1  0  0  0  0
 24  1  1  0  0  0  0
 24 25  2  0  0  0  0
 27 21  1  0  0  0  0
 28 22  1  0  0  0  0
 29 28  1  0  0  0  0
 29 30  1  0  0  0  0
 30 31  1  0  0  0  0
M  END
>  <minimizedAffinity>
-5.00875998

$$$$

 OpenBabel03242523403D

 31 34  0  0  1  0  0  0  0  0999 V2000
   36.8850   28.8450   41.3470 C   0  0  2  0  0  0  0  0  0  0  0  0
   37.6080   28.5430   42.3630 N   0  0  1  0  0  4  0  0  0  0  0  0
   37.4850   28.5540   43.6030 C   0  0  0  0  0  0  0  0  0  0  0  0
   37.2180   27.2330   43.6070 N   0  0  0  0  0  0  0  0  0  0  0  0
   37.0380   26.6080   42.4110 C   0  0  2  0  0  3  0  0  0  0  0  0
   37.0310   25.1880   42.4340 C   0  0  0  0  0  0  0  0  0  0  0  0
   36.8910   24.5420   41.2550 C   0  0  0  0  0  0  0  0  0  0  0  0
   36.7560   25.1510   40.0400 C   0  0  0  0  0  0  0  0  0  0  0  0
   36.7760   26.5280   40.1460 C   0  0  0  0  0  0  0  0  0  0  0  0
   36.9050   27.3940   41.2350 C   0  0  1  0  0  0  0  0  0  0  0  0
   35.8370   29.0330   41.8390 H   0  0  0  0  0  0  0  0  0  0  0  0
   38.6440   28.6740   42.0960 H   0  0  0  0  0  0  0  0  0  0  0  0
   36.6630   29.1700   44.0730 H   0  0  0  0  0  0  0  0  0  0  0  0
   38.3890   28.7840   44.2440 H   0  0  0  0  0  0  0  0  0  0  0  0
   37.1700   26.7970   44.5690 H   0  0  0  0  0  0  0  0  0  0  0  0
   37.1300   24.6270   43.3260 H   0  0  0  0  0  0  0  0  0  0  0  0
   36.8880   23.4370   41.2930 H   0  0  0  0  0  0  0  0  0  0  0  0
   36.6510   24.6100   39.1470 H   0  0  0  0  0  0  0  0  0  0  0  0
   36.6950   26.9360   39.1460 H   0  0  0  0  0  0  0  0  0  0  0  0
   35.8020   29.5850   37.8630 C   0  0  0  0  0  0  0  0  0  0  0  0
   36.8480   30.4440   37.5870 C   0  0  0  0  0  0  0  0  0  0  0  0
   37.7860   30.6700   38.5830 C   0  0  0  0  0  0  0  0  0  0  0  0
   37.5860   30.0150   39.7530 N   0  0  0  0  0  0  0  0  0  0  0  0
   36.5580   29.1780   40.0080 C   0  0  0  0  0  0  0  0  0  0  0  0
   35.7740   29.0520   39.0360 N   0  0  0  0  0  0  0  0  0  0  0  0
   35.0380   29.3660   37.1300 H   0  0  0  0  0  0  0  0  0  0  0  0
   36.8850   30.9050   36.5990 H   0  0  0  0  0  0  0  0  0  0  0  0
   39.1240   31.7950   38.2610 S   0  0  0  0  0  0  0  0  0  0  0  0
   39.2600   33.0150   39.5600 C   0  0  0  0  0  2  0  0  0  0  0  0
   37.8910   33.6090   39.8190 C   0  0  0  0  0  2  0  0  0  0  0  0
   37.8740   34.6630   39.4220 H   0  0  0  0  0  0  0  0  0  0  0  0
  1 11  1  1  0  0  0
  1  2  1  0  0  0  0
  2 12  1  6  0  0  0
  2  3  1  0  0  0  0
  3  4  1  0  0  0  0
  3 13  1  0  0  0  0
  3 14  1  0  0  0  0
  4 15  1  0  0  0  0
  5  6  1  6  0  0  0
  5  4  1  0  0  0  0
  6 16  1  0  0  0  0
  7 17  1  0  0  0  0
  7  6  2  0  0  0  0
  8  9  2  0  0  0  0
  8  7  1  0  0  0  0
 10  9  1  6  0  0  0
 10  1  1  0  0  0  0
 10  2  1  0  0  0  0
 10  5  1  0  0  0  0
 18  8  1  0  0  0  0
 19  9  1  0  0  0  0
 20 25  1  0  0  0  0
 21 20  2  0  0  0  0
 21 22  1  0  0  0  0
 22 23  2  0  0  0  0
 23 24  1  0  0  0  0
 24  1  1  0  0  0  0
 25 24  2  0  0  0  0
 26 20  1  0  0  0  0
 27 21  1  0  0  0  0
 28 22  1  0  0  0  0
 28 29  1  0  0  0  0
 29 30  1  0  0  0  0
 31 30  1  0  0  0  0
M  END
>  <minimizedAffinity>
-4.97184849

$$$$

 OpenBabel03242523403D

 31 34  0  0  1  0  0  0  0  0999 V2000
   37.0250   26.4190   41.5420 C   0  0  2  0  0  0  0  0  0  0  0  0
   36.9360   25.2210   41.9940 N   0  0  1  0  0  4  0  0  0  0  0  0
   37.0090   24.0650   41.5330 C   0  0  0  0  0  0  0  0  0  0  0  0
   38.2830   23.9570   41.9580 N   0  0  0  0  0  0  0  0  0  0  0  0
   38.8930   25.0660   42.4580 C   0  0  2  0  0  3  0  0  0  0  0  0
   40.1210   24.8590   43.1410 C   0  0  0  0  0  0  0  0  0  0  0  0
   40.7300   25.9390   43.6800 C   0  0  0  0  0  0  0  0  0  0  0  0
   40.2530   27.2170   43.6180 C   0  0  0  0  0  0  0  0  0  0  0  0
   39.0570   27.2920   42.9310 C   0  0  0  0  0  0  0  0  0  0  0  0
   38.2640   26.3300   42.3010 C   0  0  1  0  0  0  0  0  0  0  0  0
   37.4020   26.2390   40.4460 H   0  0  0  0  0  0  0  0  0  0  0  0
   36.2930   25.2300   42.8600 H   0  0  0  0  0  0  0  0  0  0  0  0
   36.9020   23.9060   40.4200 H   0  0  0  0  0  0  0  0  0  0  0  0
   36.3630   23.2520   41.9810 H   0  0  0  0  0  0  0  0  0  0  0  0
   38.6990   22.9900   41.8570 H   0  0  0  0  0  0  0  0  0  0  0  0
   40.5690   23.9060   43.2420 H   0  0  0  0  0  0  0  0  0  0  0  0
   41.6840   25.7590   44.2080 H   0  0  0  0  0  0  0  0  0  0  0  0
   40.7580   28.0280   44.0520 H   0  0  0  0  0  0  0  0  0  0  0  0
   38.7300   28.3240   42.9500 H   0  0  0  0  0  0  0  0  0  0  0  0
   36.7390   30.1280   41.6590 C   0  0  0  0  0  0  0  0  0  0  0  0
   36.4010   30.2690   40.3270 C   0  0  0  0  0  0  0  0  0  0  0  0
   36.3040   29.1220   39.5540 C   0  0  0  0  0  0  0  0  0  0  0  0
   36.5520   27.9500   40.1900 N   0  0  0  0  0  0  0  0  0  0  0  0
   36.8820   27.8290   41.4930 C   0  0  0  0  0  0  0  0  0  0  0  0
   36.9410   28.9300   42.0900 N   0  0  0  0  0  0  0  0  0  0  0  0
   36.8310   30.9820   42.3150 H   0  0  0  0  0  0  0  0  0  0  0  0
   36.2280   31.2770   39.9470 H   0  0  0  0  0  0  0  0  0  0  0  0
   35.9000   29.2810   37.8310 S   0  0  0  0  0  0  0  0  0  0  0  0
   37.2710   29.9670   36.9130 C   0  0  0  0  0  2  0  0  0  0  0  0
   38.5650   29.4430   37.5010 C   0  0  0  0  0  2  0  0  0  0  0  0
   39.0750   30.2810   38.0550 H   0  0  0  0  0  0  0  0  0  0  0  0
  1 11  1  6  0  0  0
  1  2  1  0  0  0  0
  1 10  1  0  0  0  0
  2 10  1  0  0  0  0
  2 12  1  1  0  0  0
  3  4  1  0  0  0  0
  3 14  1  0  0  0  0
  3  2  1  0  0  0  0
  4  5  1  0  0  0  0
  5  6  1  1  0  0  0
  6 16  1  0  0  0  0
  6  7  2  0  0  0  0
  7 17  1  0  0  0  0
  8  7  1  0  0  0  0
  8 18  1  0  0  0  0
  9 19  1  0  0  0  0
  9  8  2  0  0  0  0
 10  5  1  0  0  0  0
 10  9  1  1  0  0  0
 13  3  1  0  0  0  0
 15  4  1  0  0  0  0
 20 25  1  0  0  0  0
 20 26  1  0  0  0  0
 21 20  2  0  0  0  0
 22 23  2  0  0  0  0
 22 21  1  0  0  0  0
 23 24  1  0  0  0  0
 24  1  1  0  0  0  0
 24 25  2  0  0  0  0
 27 21  1  0  0  0  0
 28 22  1  0  0  0  0
 29 30  1  0  0  0  0
 29 28  1  0  0  0  0
 30 31  1  0  0  0  0
M  END
>  <minimizedAffinity>
-4.96896887

$$$$

 OpenBabel03242523403D

 31 34  0  0  1  0  0  0  0  0999 V2000
   38.2350   26.6490   42.4130 C   0  0  2  0  0  0  0  0  0  0  0  0
   39.2020   25.8080   42.4880 N   0  0  1  0  0  4  0  0  0  0  0  0
   39.6530   25.0120   43.3340 C   0  0  0  0  0  0  0  0  0  0  0  0
   39.0230   23.9850   42.7310 N   0  0  0  0  0  0  0  0  0  0  0  0
   38.1480   24.2650   41.7260 C   0  0  2  0  0  3  0  0  0  0  0  0
   37.7160   23.1650   40.9390 C   0  0  0  0  0  0  0  0  0  0  0  0
   36.8750   23.4210   39.9110 C   0  0  0  0  0  0  0  0  0  0  0  0
   36.4090   24.6580   39.5710 C   0  0  0  0  0  0  0  0  0  0  0  0
   36.8980   25.6430   40.4070 C   0  0  0  0  0  0  0  0  0  0  0  0
   37.7550   25.6130   41.5090 C   0  0  1  0  0  0  0  0  0  0  0  0
   37.6290   26.4130   43.3890 H   0  0  0  0  0  0  0  0  0  0  0  0
   39.9950   26.1420   41.8390 H   0  0  0  0  0  0  0  0  0  0  0  0
   39.3590   25.1310   44.4180 H   0  0  0  0  0  0  0  0  0  0  0  0
   40.7680   24.8300   43.3800 H   0  0  0  0  0  0  0  0  0  0  0  0
   39.2760   23.0300   43.1090 H   0  0  0  0  0  0  0  0  0  0  0  0
   38.0220   22.1690   41.1240 H   0  0  0  0  0  0  0  0  0  0  0  0
   36.5500   22.5520   39.3090 H   0  0  0  0  0  0  0  0  0  0  0  0
   35.7580   24.8120   38.7630 H   0  0  0  0  0  0  0  0  0  0  0  0
   36.5110   26.5930   40.0580 H   0  0  0  0  0  0  0  0  0  0  0  0
   36.0060   29.3720   41.2000 C   0  0  0  0  0  0  0  0  0  0  0  0
   36.9950   30.3340   41.1610 C   0  0  0  0  0  0  0  0  0  0  0  0
   38.2780   29.9660   41.5340 C   0  0  0  0  0  0  0  0  0  0  0  0
   38.4450   28.6730   41.9080 N   0  0  0  0  0  0  0  0  0  0  0  0
   37.4670   27.7430   41.9420 C   0  0  0  0  0  0  0  0  0  0  0  0
   36.3510   28.1910   41.5840 N   0  0  0  0  0  0  0  0  0  0  0  0
   34.9850   29.5940   40.9210 H   0  0  0  0  0  0  0  0  0  0  0  0
   36.7190   31.3390   40.8390 H   0  0  0  0  0  0  0  0  0  0  0  0
   39.5620   31.1960   41.5200 S   0  0  0  0  0  0  0  0  0  0  0  0
   39.3340   32.3420   40.1680 C   0  0  0  0  0  2  0  0  0  0  0  0
   38.8720   33.6720   40.7250 C   0  0  0  0  0  2  0  0  0  0  0  0
   37.7860   33.8160   40.4630 H   0  0  0  0  0  0  0  0  0  0  0  0
  1  2  1  0  0  0  0
  1 11  1  1  0  0  0
  2 12  1  6  0  0  0
  2  3  1  0  0  0  0
  3 14  1  0  0  0  0
  3 13  1  0  0  0  0
  4 15  1  0  0  0  0
  4  3  1  0  0  0  0
  5  6  1  6  0  0  0
  5  4  1  0  0  0  0
  6 16  1  0  0  0  0
  7  6  2  0  0  0  0
  8  7  1  0  0  0  0
  8  9  2  0  0  0  0
 10  9  1  6  0  0  0
 10  5  1  0  0  0  0
 10  1  1  0  0  0  0
 10  2  1  0  0  0  0
 17  7  1  0  0  0  0
 18  8  1  0  0  0  0
 19  9  1  0  0  0  0
 20 25  1  0  0  0  0
 21 20  2  0  0  0  0
 21 22  1  0  0  0  0
 22 23  2  0  0  0  0
 23 24  1  0  0  0  0
 24  1  1  0  0  0  0
 25 24  2  0  0  0  0
 26 20  1  0  0  0  0
 27 21  1  0  0  0  0
 28 22  1  0  0  0  0
 29 30  1  0  0  0  0
 29 28  1  0  0  0  0
 31 30  1  0  0  0  0
M  END
>  <minimizedAffinity>
-4.89227533

$$$$

 OpenBabel03242523403D

 31 34  0  0  1  0  0  0  0  0999 V2000
   37.9930   28.3540   39.4480 C   0  0  2  0  0  0  0  0  0  0  0  0
   38.7660   28.6850   38.4790 N   0  0  1  0  0  4  0  0  0  0  0  0
   38.7910   28.5330   37.2420 C   0  0  0  0  0  0  0  0  0  0  0  0
   38.3020   29.7760   37.0610 N   0  0  0  0  0  0  0  0  0  0  0  0
   37.8810   30.4690   38.1540 C   0  0  2  0  0  3  0  0  0  0  0  0
   37.6320   31.8550   37.9670 C   0  0  0  0  0  0  0  0  0  0  0  0
   37.2480   32.5740   39.0450 C   0  0  0  0  0  0  0  0  0  0  0  0
   37.0800   32.0700   40.3030 C   0  0  0  0  0  0  0  0  0  0  0  0
   37.3500   30.7160   40.3580 C   0  0  0  0  0  0  0  0  0  0  0  0
   37.7500   29.7890   39.3940 C   0  0  1  0  0  0  0  0  0  0  0  0
   37.0570   27.9310   38.8820 H   0  0  0  0  0  0  0  0  0  0  0  0
   39.7710   28.7720   38.8580 H   0  0  0  0  0  0  0  0  0  0  0  0
   38.1470   27.7350   36.7690 H   0  0  0  0  0  0  0  0  0  0  0  0
   39.7880   28.4120   36.7220 H   0  0  0  0  0  0  0  0  0  0  0  0
   38.2910   30.1020   36.0550 H   0  0  0  0  0  0  0  0  0  0  0  0
   37.7350   32.3360   37.0310 H   0  0  0  0  0  0  0  0  0  0  0  0
   37.0600   33.6510   38.8810 H   0  0  0  0  0  0  0  0  0  0  0  0
   36.7810   32.6660   41.1140 H   0  0  0  0  0  0  0  0  0  0  0  0
   37.2250   30.3980   41.3860 H   0  0  0  0  0  0  0  0  0  0  0  0
   36.6500   27.6840   42.8540 C   0  0  0  0  0  0  0  0  0  0  0  0
   37.8840   27.4770   43.4370 C   0  0  0  0  0  0  0  0  0  0  0  0
   39.0100   27.5900   42.6360 C   0  0  0  0  0  0  0  0  0  0  0  0
   38.7900   27.8980   41.3340 N   0  0  0  0  0  0  0  0  0  0  0  0
   37.5760   28.0970   40.7790 C   0  0  0  0  0  0  0  0  0  0  0  0
   36.6340   27.9680   41.5970 N   0  0  0  0  0  0  0  0  0  0  0  0
   35.7330   27.6110   43.4230 H   0  0  0  0  0  0  0  0  0  0  0  0
   37.9140   27.2340   44.5000 H   0  0  0  0  0  0  0  0  0  0  0  0
   40.6080   27.2990   43.3580 S   0  0  0  0  0  0  0  0  0  0  0  0
   41.0210   25.5610   43.3180 C   0  0  0  0  0  2  0  0  0  0  0  0
   42.5290   25.4150   43.3080 C   0  0  0  0  0  2  0  0  0  0  0  0
   42.8520   25.0750   42.2840 H   0  0  0  0  0  0  0  0  0  0  0  0
  1 11  1  6  0  0  0
  1 24  1  0  0  0  0
  2 12  1  1  0  0  0
  2 10  1  0  0  0  0
  2  1  1  0  0  0  0
  3  2  1  0  0  0  0
  4  3  1  0  0  0  0
  4  5  1  0  0  0  0
  5  6  1  1  0  0  0
  5 10  1  0  0  0  0
  6  7  2  0  0  0  0
  7  8  1  0  0  0  0
  8  9  2  0  0  0  0
  8 18  1  0  0  0  0
  9 19  1  0  0  0  0
 10  1  1  0  0  0  0
 10  9  1  1  0  0  0
 13  3  1  0  0  0  0
 14  3  1  0  0  0  0
 15  4  1  0  0  0  0
 16  6  1  0  0  0  0
 17  7  1  0  0  0  0
 20 26  1  0  0  0  0
 20 21  1  0  0  0  0
 21 27  1  0  0  0  0
 22 28  1  0  0  0  0
 22 21  2  0  0  0  0
 23 22  1  0  0  0  0
 24 23  2  0  0  0  0
 24 25  1  0  0  0  0
 25 20  2  0  0  0  0
 29 28  1  0  0  0  0
 30 29  1  0  0  0  0
 31 30  1  0  0  0  0
M  END
>  <minimizedAffinity>
-4.79830885

$$$$

 OpenBabel03242523403D

 31 34  0  0  1  0  0  0  0  0999 V2000
   39.2870   30.6260   41.8910 C   0  0  2  0  0  0  0  0  0  0  0  0
   39.4440   29.3610   42.0380 N   0  0  1  0  0  4  0  0  0  0  0  0
   39.5170   28.5560   42.9870 C   0  0  0  0  0  0  0  0  0  0  0  0
   38.2250   28.2100   42.8180 N   0  0  0  0  0  0  0  0  0  0  0  0
   37.4760   28.9290   41.9380 C   0  0  2  0  0  3  0  0  0  0  0  0
   36.2160   28.3770   41.5820 C   0  0  0  0  0  0  0  0  0  0  0  0
   35.4670   29.0530   40.6820 C   0  0  0  0  0  0  0  0  0  0  0  0
   35.8290   30.2270   40.0870 C   0  0  0  0  0  0  0  0  0  0  0  0
   37.0690   30.6630   40.5130 C   0  0  0  0  0  0  0  0  0  0  0  0
   37.9980   30.1420   41.4160 C   0  0  1  0  0  0  0  0  0  0  0  0
   39.0250   30.9680   42.9820 H   0  0  0  0  0  0  0  0  0  0  0  0
   40.0040   28.9870   41.1960 H   0  0  0  0  0  0  0  0  0  0  0  0
   39.7350   28.9430   44.0250 H   0  0  0  0  0  0  0  0  0  0  0  0
   40.1920   27.6530   42.8930 H   0  0  0  0  0  0  0  0  0  0  0  0
   37.9090   27.3890   43.4040 H   0  0  0  0  0  0  0  0  0  0  0  0
   35.8490   27.4720   41.9890 H   0  0  0  0  0  0  0  0  0  0  0  0
   34.4900   28.6080   40.4170 H   0  0  0  0  0  0  0  0  0  0  0  0
   35.2160   30.7190   39.3910 H   0  0  0  0  0  0  0  0  0  0  0  0
   37.2980   31.5770   39.9780 H   0  0  0  0  0  0  0  0  0  0  0  0
   39.1430   34.0370   40.4100 C   0  0  0  0  0  0  0  0  0  0  0  0
   40.2380   33.8620   39.5870 C   0  0  0  0  0  0  0  0  0  0  0  0
   40.8870   32.6380   39.6180 C   0  0  0  0  0  0  0  0  0  0  0  0
   40.3770   31.7110   40.4660 N   0  0  0  0  0  0  0  0  0  0  0  0
   39.3040   31.8980   41.2650 C   0  0  0  0  0  0  0  0  0  0  0  0
   38.8010   33.0410   41.1530 N   0  0  0  0  0  0  0  0  0  0  0  0
   38.5920   34.9680   40.4330 H   0  0  0  0  0  0  0  0  0  0  0  0
   40.5400   34.6970   38.9530 H   0  0  0  0  0  0  0  0  0  0  0  0
   42.3170   32.4000   38.5890 S   0  0  0  0  0  0  0  0  0  0  0  0
   41.8490   31.7930   36.9750 C   0  0  0  0  0  2  0  0  0  0  0  0
   42.8960   30.8070   36.4990 C   0  0  0  0  0  2  0  0  0  0  0  0
   43.4930   31.2850   35.6720 H   0  0  0  0  0  0  0  0  0  0  0  0
  1  2  1  0  0  0  0
  1 11  1  1  0  0  0
  2 12  1  6  0  0  0
  2  3  1  0  0  0  0
  3 13  1  0  0  0  0
  4  3  1  0  0  0  0
  4 15  1  0  0  0  0
  5  6  1  6  0  0  0
  5  4  1  0  0  0  0
  6 16  1  0  0  0  0
  7  6  2  0  0  0  0
  8  9  2  0  0  0  0
  8  7  1  0  0  0  0
 10  9  1  6  0  0  0
 10  1  1  0  0  0  0
 10  5  1  0  0  0  0
 10  2  1  0  0  0  0
 14  3  1  0  0  0  0
 17  7  1  0  0  0  0
 18  8  1  0  0  0  0
 19  9  1  0  0  0  0
 20 26  1  0  0  0  0
 20 25  1  0  0  0  0
 21 22  1  0  0  0  0
 21 20  2  0  0  0  0
 22 23  2  0  0  0  0
 23 24  1  0  0  0  0
 24  1  1  0  0  0  0
 25 24  2  0  0  0  0
 27 21  1  0  0  0  0
 28 22  1  0  0  0  0
 29 28  1  0  0  0  0
 30 29  1  0  0  0  0
 31 30  1  0  0  0  0
M  END
>  <minimizedAffinity>
-4.75786734

$$$$
