
 OpenBabel03252508593D

 39 40  0  0  1  0  0  0  0  0999 V2000
   46.7460   34.4340   43.4680 N   0  0  0  0  0  0  0  0  0  0  0  0
   46.2720   35.5670   42.7590 C   0  0  0  0  0  0  0  0  0  0  0  0
   44.7860   35.8320   42.8650 C   0  0  0  0  0  0  0  0  0  0  0  0
   44.1870   35.4350   44.1820 C   0  0  0  0  0  0  0  0  0  0  0  0
   45.2290   34.9380   45.1550 C   0  0  0  0  0  0  0  0  0  0  0  0
   45.9300   33.7720   44.3690 C   0  0  2  0  0  0  0  0  0  0  0  0
   46.5410   35.6220   41.7010 H   0  0  0  0  0  0  0  0  0  0  0  0
   46.7710   36.4670   43.2260 H   0  0  0  0  0  0  0  0  0  0  0  0
   44.6310   36.9100   42.6590 H   0  0  0  0  0  0  0  0  0  0  0  0
   44.3060   35.2810   42.0380 H   0  0  0  0  0  0  0  0  0  0  0  0
   43.4410   34.6080   44.0100 H   0  0  0  0  0  0  0  0  0  0  0  0
   43.6340   36.2750   44.6070 H   0  0  0  0  0  0  0  0  0  0  0  0
   45.9480   35.7360   45.3360 H   0  0  0  0  0  0  0  0  0  0  0  0
   44.7400   34.5280   46.0420 H   0  0  0  0  0  0  0  0  0  0  0  0
   45.0850   33.1660   43.9820 H   0  0  0  0  0  0  0  0  0  0  0  0
   47.7580   33.6870   42.7770 C   0  0  0  0  0  0  0  0  0  0  0  0
   48.4270   34.4190   42.2690 H   0  0  0  0  0  0  0  0  0  0  0  0
   48.3880   33.1650   43.5410 H   0  0  0  0  0  0  0  0  0  0  0  0
   47.1170   32.7740   41.8010 C   0  0  0  0  0  0  0  0  0  0  0  0
   46.0360   33.0380   41.6620 H   0  0  0  0  0  0  0  0  0  0  0  0
   47.1630   31.7280   42.1170 H   0  0  0  0  0  0  0  0  0  0  0  0
   49.1860   32.1090   38.7430 C   0  0  0  0  0  0  0  0  0  0  0  0
   48.5900   31.9680   40.0100 C   0  0  0  0  0  0  0  0  0  0  0  0
   47.7350   32.9360   40.4660 C   0  0  0  0  0  0  0  0  0  0  0  0
   47.5050   33.9890   39.6680 N   0  0  0  0  0  0  0  0  0  0  0  0
   48.0810   34.1130   38.4590 C   0  0  0  0  0  0  0  0  0  0  0  0
   48.9200   33.1820   37.9880 N   0  0  0  0  0  0  0  0  0  0  0  0
   49.8700   31.3590   38.3500 H   0  0  0  0  0  0  0  0  0  0  0  0
   48.8540   31.0850   40.5500 H   0  0  0  0  0  0  0  0  0  0  0  0
   47.8040   35.0100   37.9280 H   0  0  0  0  0  0  0  0  0  0  0  0
   46.6620   33.1540   45.3730 O   0  0  0  0  0  0  0  0  0  0  0  0
   45.4340   31.0170   44.4120 O   0  0  0  0  0  0  0  0  0  0  0  0
   46.2640   31.5340   45.5760 P   0  0  2  0  0  0  0  0  0  0  0  0
   45.2380   31.4620   46.9430 O   0  0  0  0  0  0  0  0  0  0  0  0
   45.7310   31.6490   47.7800 H   0  0  0  0  0  0  0  0  0  0  0  0
   47.6090   30.5900   45.8830 O   0  0  0  0  0  0  0  0  0  0  0  0
   47.8390   29.6330   44.9030 C   0  0  0  0  0  2  0  0  0  0  0  0
   48.8290   30.2060   43.9130 C   0  0  0  0  0  2  0  0  0  0  0  0
   49.1560   31.2470   44.1990 H   0  0  0  0  0  0  0  0  0  0  0  0
  1  6  1  0  0  0  0
  2  3  1  0  0  0  0
  2  8  1  0  0  0  0
  2  1  1  0  0  0  0
  3  4  1  0  0  0  0
  4 12  1  0  0  0  0
  4  5  1  0  0  0  0
  5 13  1  0  0  0  0
  5 14  1  0  0  0  0
  6 15  1  6  0  0  0
  6  5  1  0  0  0  0
  6 31  1  0  0  0  0
  7  2  1  0  0  0  0
  9  3  1  0  0  0  0
 10  3  1  0  0  0  0
 11  4  1  0  0  0  0
 16  1  1  0  0  0  0
 16 18  1  0  0  0  0
 17 16  1  0  0  0  0
 19 21  1  0  0  0  0
 19 16  1  0  0  0  0
 20 19  1  0  0  0  0
 22 23  1  0  0  0  0
 23 24  2  0  0  0  0
 23 29  1  0  0  0  0
 24 19  1  0  0  0  0
 25 24  1  0  0  0  0
 26 25  2  0  0  0  0
 27 26  1  0  0  0  0
 27 22  2  0  0  0  0
 28 22  1  0  0  0  0
 30 26  1  0  0  0  0
 31 33  1  0  0  0  0
 33 32  2  6  0  0  0
 33 36  1  0  0  0  0
 33 34  1  0  0  0  0
 34 35  1  0  0  0  0
 37 36  1  0  0  0  0
 38 39  1  0  0  0  0
 38 37  1  0  0  0  0
M  END
>  <minimizedAffinity>
-3.76290441

>  <minimizedRMSD>
0.76010716

$$$$
