
 OpenBabel03252506393D

 38 40  0  0  1  0  0  0  0  0999 V2000
   37.0350   30.2520   36.6050 C   0  0  0  0  0  0  0  0  0  0  0  0
   37.7310   29.0710   36.2710 C   0  0  0  0  0  0  0  0  0  0  0  0
   38.6700   28.5890   37.1230 C   0  0  0  0  0  0  0  0  0  0  0  0
   38.8830   29.2890   38.2660 N   0  0  0  0  0  0  0  0  0  0  0  0
   38.2250   30.3990   38.5740 C   0  0  0  0  0  0  0  0  0  0  0  0
   37.2980   30.8940   37.7530 N   0  0  0  0  0  0  0  0  0  0  0  0
   38.5360   31.0610   39.8140 N   0  0  0  0  0  0  0  0  0  0  0  0
   37.7660   32.1070   40.3750 C   0  0  0  0  0  0  0  0  0  0  0  0
   38.8120   33.0210   40.9860 C   0  0  0  0  0  0  0  0  0  0  0  0
   40.1170   32.2920   40.8770 C   0  0  0  0  0  0  0  0  0  0  0  0
   39.6610   30.8470   40.6880 C   0  0  1  0  0  0  0  0  0  0  0  0
   36.2910   30.6160   35.9060 H   0  0  0  0  0  0  0  0  0  0  0  0
   39.2080   27.6980   36.8910 H   0  0  0  0  0  0  0  0  0  0  0  0
   37.3740   32.7170   39.5000 H   0  0  0  0  0  0  0  0  0  0  0  0
   36.9690   32.0070   41.0350 H   0  0  0  0  0  0  0  0  0  0  0  0
   38.6000   33.1720   42.0790 H   0  0  0  0  0  0  0  0  0  0  0  0
   38.8680   34.0130   40.5450 H   0  0  0  0  0  0  0  0  0  0  0  0
   40.6800   32.6420   39.9950 H   0  0  0  0  0  0  0  0  0  0  0  0
   40.7280   32.3510   41.8010 H   0  0  0  0  0  0  0  0  0  0  0  0
   40.4270   30.2640   40.1510 H   0  0  0  0  0  0  0  0  0  0  0  0
   37.3980   28.4360   35.0240 N   0  0  0  0  0  0  0  0  0  0  0  0
   37.3500   28.9970   34.1400 H   0  0  0  0  0  0  0  0  0  0  0  0
   37.2320   27.4020   35.1870 H   0  0  0  0  0  0  0  0  0  0  0  0
   39.1750   30.1870   42.2660 S   0  0  0  0  0  0  0  0  0  0  0  0
   39.3140   27.1970   40.7910 O   0  0  0  0  0  0  0  0  0  0  0  0
   38.4420   27.6150   41.5710 C   0  0  0  0  0  0  0  0  0  0  0  0
   38.0290   28.8690   42.2510 C   0  0  1  0  0  0  0  0  0  0  0  0
   37.6120   28.3540   43.6040 C   0  0  0  0  0  0  0  0  0  0  0  0
   36.6380   27.2700   43.1220 C   0  0  0  0  0  0  0  0  0  0  0  0
   37.4440   26.6920   42.0530 N   0  0  0  0  0  0  0  0  0  0  0  0
   37.0280   29.0410   41.7690 H   0  0  0  0  0  0  0  0  0  0  0  0
   38.4610   27.8680   44.1430 H   0  0  0  0  0  0  0  0  0  0  0  0
   37.0700   29.0820   44.2110 H   0  0  0  0  0  0  0  0  0  0  0  0
   36.4730   26.5420   43.9410 H   0  0  0  0  0  0  0  0  0  0  0  0
   35.7200   27.7420   42.7640 H   0  0  0  0  0  0  0  0  0  0  0  0
   37.1400   25.3240   41.6430 C   0  0  0  0  0  2  0  0  0  0  0  0
   38.0790   24.3560   42.3580 C   0  0  0  0  0  2  0  0  0  0  0  0
   38.2450   23.4250   41.7840 H   0  0  0  0  0  0  0  0  0  0  0  0
  1  6  1  0  0  0  0
  2  1  2  0  0  0  0
  2  3  1  0  0  0  0
  3  4  2  0  0  0  0
  4  5  1  0  0  0  0
  5  7  1  0  0  0  0
  6  5  2  0  0  0  0
  7  8  1  0  0  0  0
  7 11  1  0  0  0  0
  8  9  1  0  0  0  0
  8 15  1  0  0  0  0
  9 16  1  0  0  0  0
 10  9  1  0  0  0  0
 10 19  1  0  0  0  0
 11 20  1  6  0  0  0
 11 10  1  0  0  0  0
 11 24  1  0  0  0  0
 12  1  1  0  0  0  0
 13  3  1  0  0  0  0
 14  8  1  0  0  0  0
 17  9  1  0  0  0  0
 18 10  1  0  0  0  0
 21 23  1  0  0  0  0
 21  2  1  0  0  0  0
 22 21  1  0  0  0  0
 25 26  2  0  0  0  0
 26 30  1  0  0  0  0
 26 27  1  0  0  0  0
 27 31  1  6  0  0  0
 27 24  1  0  0  0  0
 27 28  1  0  0  0  0
 28 32  1  0  0  0  0
 28 33  1  0  0  0  0
 29 28  1  0  0  0  0
 29 34  1  0  0  0  0
 30 29  1  0  0  0  0
 35 29  1  0  0  0  0
 36 30  1  0  0  0  0
 36 37  1  0  0  0  0
 38 37  1  0  0  0  0
M  END
>  <minimizedAffinity>
-5.10902452

$$$$

 OpenBabel03252506393D

 38 40  0  0  1  0  0  0  0  0999 V2000
   39.2840   32.5710   39.2940 C   0  0  0  0  0  0  0  0  0  0  0  0
   38.4190   32.9720   40.3350 C   0  0  0  0  0  0  0  0  0  0  0  0
   37.3140   32.2340   40.6020 C   0  0  0  0  0  0  0  0  0  0  0  0
   37.1060   31.1340   39.8350 N   0  0  0  0  0  0  0  0  0  0  0  0
   37.9220   30.7630   38.8580 C   0  0  0  0  0  0  0  0  0  0  0  0
   39.0160   31.4710   38.5740 N   0  0  0  0  0  0  0  0  0  0  0  0
   37.6010   29.5780   38.1050 N   0  0  0  0  0  0  0  0  0  0  0  0
   38.4850   28.9410   37.2030 C   0  0  0  0  0  0  0  0  0  0  0  0
   37.5690   28.4730   36.0880 C   0  0  0  0  0  0  0  0  0  0  0  0
   36.1700   28.7310   36.5620 C   0  0  0  0  0  0  0  0  0  0  0  0
   36.3620   28.8440   38.0730 C   0  0  1  0  0  0  0  0  0  0  0  0
   40.1610   33.1790   39.1020 H   0  0  0  0  0  0  0  0  0  0  0  0
   36.6460   32.5180   41.3840 H   0  0  0  0  0  0  0  0  0  0  0  0
   39.0860   29.7700   36.7090 H   0  0  0  0  0  0  0  0  0  0  0  0
   39.1670   28.1890   37.4270 H   0  0  0  0  0  0  0  0  0  0  0  0
   37.6770   27.3640   35.9400 H   0  0  0  0  0  0  0  0  0  0  0  0
   37.7550   28.9300   35.1190 H   0  0  0  0  0  0  0  0  0  0  0  0
   35.7910   29.6790   36.1450 H   0  0  0  0  0  0  0  0  0  0  0  0
   35.4790   27.8880   36.3570 H   0  0  0  0  0  0  0  0  0  0  0  0
   35.5660   29.4620   38.5210 H   0  0  0  0  0  0  0  0  0  0  0  0
   38.7690   34.1610   41.0650 N   0  0  0  0  0  0  0  0  0  0  0  0
   39.0260   35.0400   40.5550 H   0  0  0  0  0  0  0  0  0  0  0  0
   38.7140   33.9660   42.1050 H   0  0  0  0  0  0  0  0  0  0  0  0
   36.5250   27.2110   38.7570 S   0  0  0  0  0  0  0  0  0  0  0  0
   39.4820   27.4420   40.2840 O   0  0  0  0  0  0  0  0  0  0  0  0
   38.3630   27.3530   40.8150 C   0  0  0  0  0  0  0  0  0  0  0  0
   36.9460   27.1020   40.4480 C   0  0  1  0  0  0  0  0  0  0  0  0
   36.2250   28.0600   41.3610 C   0  0  0  0  0  0  0  0  0  0  0  0
   36.8690   27.6140   42.6800 C   0  0  0  0  0  0  0  0  0  0  0  0
   38.2570   27.5250   42.2430 N   0  0  0  0  0  0  0  0  0  0  0  0
   36.7680   26.1270   40.9790 H   0  0  0  0  0  0  0  0  0  0  0  0
   36.5100   29.1210   41.1560 H   0  0  0  0  0  0  0  0  0  0  0  0
   35.1460   27.9020   41.4130 H   0  0  0  0  0  0  0  0  0  0  0  0
   36.7350   28.4140   43.4360 H   0  0  0  0  0  0  0  0  0  0  0  0
   36.4470   26.6520   42.9810 H   0  0  0  0  0  0  0  0  0  0  0  0
   39.2940   27.6180   43.2660 C   0  0  0  0  0  2  0  0  0  0  0  0
   39.7330   26.2150   43.6780 C   0  0  0  0  0  2  0  0  0  0  0  0
   40.1210   26.1800   44.7140 H   0  0  0  0  0  0  0  0  0  0  0  0
  1  2  1  0  0  0  0
  2  3  2  0  0  0  0
  2 21  1  0  0  0  0
  3 13  1  0  0  0  0
  4  3  1  0  0  0  0
  5  4  2  0  0  0  0
  6  5  1  0  0  0  0
  6  1  2  0  0  0  0
  7  5  1  0  0  0  0
  8 15  1  0  0  0  0
  8  7  1  0  0  0  0
  9 10  1  0  0  0  0
  9  8  1  0  0  0  0
 10 11  1  0  0  0  0
 11  7  1  0  0  0  0
 11 20  1  1  0  0  0
 11 24  1  0  0  0  0
 12  1  1  0  0  0  0
 14  8  1  0  0  0  0
 16  9  1  0  0  0  0
 17  9  1  0  0  0  0
 18 10  1  0  0  0  0
 19 10  1  0  0  0  0
 21 23  1  0  0  0  0
 22 21  1  0  0  0  0
 24 27  1  0  0  0  0
 25 26  2  0  0  0  0
 26 30  1  0  0  0  0
 27 26  1  0  0  0  0
 27 31  1  1  0  0  0
 27 28  1  0  0  0  0
 28 33  1  0  0  0  0
 28 29  1  0  0  0  0
 29 35  1  0  0  0  0
 29 34  1  0  0  0  0
 30 29  1  0  0  0  0
 30 36  1  0  0  0  0
 32 28  1  0  0  0  0
 36 37  1  0  0  0  0
 37 38  1  0  0  0  0
M  END
>  <minimizedAffinity>
-4.98902607

$$$$

 OpenBabel03252506393D

 38 40  0  0  1  0  0  0  0  0999 V2000
   38.7020   27.4490   36.3510 C   0  0  0  0  0  0  0  0  0  0  0  0
   37.4850   28.0690   35.9980 C   0  0  0  0  0  0  0  0  0  0  0  0
   36.4800   28.1260   36.9060 C   0  0  0  0  0  0  0  0  0  0  0  0
   36.7150   27.5710   38.1220 N   0  0  0  0  0  0  0  0  0  0  0  0
   37.8610   26.9890   38.4480 C   0  0  0  0  0  0  0  0  0  0  0  0
   38.8650   26.9200   37.5730 N   0  0  0  0  0  0  0  0  0  0  0  0
   37.9990   26.4310   39.7670 N   0  0  0  0  0  0  0  0  0  0  0  0
   39.2230   25.9930   40.3250 C   0  0  0  0  0  0  0  0  0  0  0  0
   38.8230   24.7680   41.1280 C   0  0  0  0  0  0  0  0  0  0  0  0
   37.3240   24.7270   41.1050 C   0  0  0  0  0  0  0  0  0  0  0  0
   36.9700   26.1680   40.7420 C   0  0  1  0  0  0  0  0  0  0  0  0
   39.4890   27.4180   35.6060 H   0  0  0  0  0  0  0  0  0  0  0  0
   35.5510   28.5900   36.6610 H   0  0  0  0  0  0  0  0  0  0  0  0
   39.8230   25.5510   39.4680 H   0  0  0  0  0  0  0  0  0  0  0  0
   39.8930   26.5630   40.8790 H   0  0  0  0  0  0  0  0  0  0  0  0
   39.1410   24.8890   42.1980 H   0  0  0  0  0  0  0  0  0  0  0  0
   39.2560   23.8330   40.7830 H   0  0  0  0  0  0  0  0  0  0  0  0
   36.9710   24.0300   40.3260 H   0  0  0  0  0  0  0  0  0  0  0  0
   36.8800   24.4940   42.0940 H   0  0  0  0  0  0  0  0  0  0  0  0
   35.9860   26.2140   40.2470 H   0  0  0  0  0  0  0  0  0  0  0  0
   37.3810   28.6150   34.6710 N   0  0  0  0  0  0  0  0  0  0  0  0
   37.6590   28.0420   33.8380 H   0  0  0  0  0  0  0  0  0  0  0  0
   37.0050   29.6050   34.7250 H   0  0  0  0  0  0  0  0  0  0  0  0
   37.1370   27.1830   42.1920 S   0  0  0  0  0  0  0  0  0  0  0  0
   39.4470   29.4200   41.3010 O   0  0  0  0  0  0  0  0  0  0  0  0
   38.2300   29.6130   41.4580 C   0  0  0  0  0  0  0  0  0  0  0  0
   37.0220   28.9110   41.9620 C   0  0  1  0  0  0  0  0  0  0  0  0
   35.9770   29.3680   40.9770 C   0  0  0  0  0  0  0  0  0  0  0  0
   36.2160   30.8780   41.1070 C   0  0  0  0  0  0  0  0  0  0  0  0
   37.6740   30.8860   41.0710 N   0  0  0  0  0  0  0  0  0  0  0  0
   36.7710   29.5500   42.8520 H   0  0  0  0  0  0  0  0  0  0  0  0
   36.2210   29.0480   39.9350 H   0  0  0  0  0  0  0  0  0  0  0  0
   34.9520   29.1380   41.2750 H   0  0  0  0  0  0  0  0  0  0  0  0
   35.7890   31.3890   40.2210 H   0  0  0  0  0  0  0  0  0  0  0  0
   35.8040   31.2290   42.0560 H   0  0  0  0  0  0  0  0  0  0  0  0
   38.3320   32.1250   40.6670 C   0  0  0  0  0  2  0  0  0  0  0  0
   37.4080   32.9170   39.7450 C   0  0  0  0  0  2  0  0  0  0  0  0
   37.9660   33.5710   39.0470 H   0  0  0  0  0  0  0  0  0  0  0  0
  1  6  1  0  0  0  0
  2  1  2  0  0  0  0
  2  3  1  0  0  0  0
  3  4  2  0  0  0  0
  4  5  1  0  0  0  0
  5  7  1  0  0  0  0
  6  5  2  0  0  0  0
  7  8  1  0  0  0  0
  7 11  1  0  0  0  0
  8 15  1  0  0  0  0
  8  9  1  0  0  0  0
  9 16  1  0  0  0  0
 10  9  1  0  0  0  0
 10 19  1  0  0  0  0
 11 20  1  6  0  0  0
 11 10  1  0  0  0  0
 11 24  1  0  0  0  0
 12  1  1  0  0  0  0
 13  3  1  0  0  0  0
 14  8  1  0  0  0  0
 17  9  1  0  0  0  0
 18 10  1  0  0  0  0
 21 23  1  0  0  0  0
 21  2  1  0  0  0  0
 22 21  1  0  0  0  0
 25 26  2  0  0  0  0
 26 27  1  0  0  0  0
 27 24  1  0  0  0  0
 27 31  1  1  0  0  0
 28 29  1  0  0  0  0
 28 33  1  0  0  0  0
 28 27  1  0  0  0  0
 29 35  1  0  0  0  0
 30 29  1  0  0  0  0
 30 26  1  0  0  0  0
 32 28  1  0  0  0  0
 34 29  1  0  0  0  0
 36 30  1  0  0  0  0
 37 36  1  0  0  0  0
 38 37  1  0  0  0  0
M  END
>  <minimizedAffinity>
-4.88294935

$$$$

 OpenBabel03252506393D

 38 40  0  0  1  0  0  0  0  0999 V2000
   37.5880   31.9400   38.6250 C   0  0  0  0  0  0  0  0  0  0  0  0
   38.3500   31.4670   37.5350 C   0  0  0  0  0  0  0  0  0  0  0  0
   38.9990   30.2820   37.6440 C   0  0  0  0  0  0  0  0  0  0  0  0
   38.8720   29.6130   38.8180 N   0  0  0  0  0  0  0  0  0  0  0  0
   38.1550   30.0630   39.8380 C   0  0  0  0  0  0  0  0  0  0  0  0
   37.5060   31.2260   39.7580 N   0  0  0  0  0  0  0  0  0  0  0  0
   38.0920   29.2710   41.0380 N   0  0  0  0  0  0  0  0  0  0  0  0
   37.1940   29.5070   42.1060 C   0  0  0  0  0  0  0  0  0  0  0  0
   38.0180   29.1760   43.3360 C   0  0  0  0  0  0  0  0  0  0  0  0
   39.2980   28.5810   42.8320 C   0  0  0  0  0  0  0  0  0  0  0  0
   38.9150   28.1510   41.4170 C   0  0  1  0  0  0  0  0  0  0  0  0
   37.0790   32.8900   38.5110 H   0  0  0  0  0  0  0  0  0  0  0  0
   39.5810   29.9040   36.8330 H   0  0  0  0  0  0  0  0  0  0  0  0
   37.0730   30.6350   42.1750 H   0  0  0  0  0  0  0  0  0  0  0  0
   36.2390   29.1110   42.2140 H   0  0  0  0  0  0  0  0  0  0  0  0
   37.4980   28.3910   43.9480 H   0  0  0  0  0  0  0  0  0  0  0  0
   38.2010   30.0140   44.0050 H   0  0  0  0  0  0  0  0  0  0  0  0
   40.0930   29.3450   42.8050 H   0  0  0  0  0  0  0  0  0  0  0  0
   39.6130   27.6820   43.4000 H   0  0  0  0  0  0  0  0  0  0  0  0
   39.8030   28.1200   40.7660 H   0  0  0  0  0  0  0  0  0  0  0  0
   38.3920   32.2840   36.3520 N   0  0  0  0  0  0  0  0  0  0  0  0
   38.6030   33.3080   36.4230 H   0  0  0  0  0  0  0  0  0  0  0  0
   38.1850   31.6860   35.5020 H   0  0  0  0  0  0  0  0  0  0  0  0
   37.9910   26.6340   41.5090 S   0  0  0  0  0  0  0  0  0  0  0  0
   36.7090   23.6360   40.8010 O   0  0  0  0  0  0  0  0  0  0  0  0
   36.8070   24.6140   40.0410 C   0  0  0  0  0  0  0  0  0  0  0  0
   37.4220   25.9650   39.9990 C   0  0  1  0  0  0  0  0  0  0  0  0
   36.3520   26.7600   39.2970 C   0  0  0  0  0  0  0  0  0  0  0  0
   36.1840   25.8480   38.0750 C   0  0  0  0  0  0  0  0  0  0  0  0
   36.1680   24.5550   38.7490 N   0  0  0  0  0  0  0  0  0  0  0  0
   38.1650   25.8250   39.1660 H   0  0  0  0  0  0  0  0  0  0  0  0
   35.3970   26.7730   39.8770 H   0  0  0  0  0  0  0  0  0  0  0  0
   36.6750   27.7500   38.9680 H   0  0  0  0  0  0  0  0  0  0  0  0
   35.2080   26.0640   37.5940 H   0  0  0  0  0  0  0  0  0  0  0  0
   37.0390   25.9770   37.4070 H   0  0  0  0  0  0  0  0  0  0  0  0
   35.5360   23.4380   38.0540 C   0  0  0  0  0  2  0  0  0  0  0  0
   34.0190   23.5530   38.1760 C   0  0  0  0  0  2  0  0  0  0  0  0
   33.5140   22.5700   38.1160 H   0  0  0  0  0  0  0  0  0  0  0  0
  1  6  1  0  0  0  0
  2  3  1  0  0  0  0
  2  1  2  0  0  0  0
  3  4  2  0  0  0  0
  4  5  1  0  0  0  0
  5  7  1  0  0  0  0
  6  5  2  0  0  0  0
  7 11  1  0  0  0  0
  7  8  1  0  0  0  0
  8 14  1  0  0  0  0
  8 15  1  0  0  0  0
  8  9  1  0  0  0  0
  9 16  1  0  0  0  0
  9 17  1  0  0  0  0
 10  9  1  0  0  0  0
 10 19  1  0  0  0  0
 11 20  1  6  0  0  0
 11 24  1  0  0  0  0
 11 10  1  0  0  0  0
 12  1  1  0  0  0  0
 13  3  1  0  0  0  0
 18 10  1  0  0  0  0
 21 22  1  0  0  0  0
 21  2  1  0  0  0  0
 23 21  1  0  0  0  0
 26 25  2  0  0  0  0
 27 31  1  6  0  0  0
 27 26  1  0  0  0  0
 27 24  1  0  0  0  0
 28 32  1  0  0  0  0
 28 27  1  0  0  0  0
 29 30  1  0  0  0  0
 29 28  1  0  0  0  0
 30 26  1  0  0  0  0
 33 28  1  0  0  0  0
 34 29  1  0  0  0  0
 35 29  1  0  0  0  0
 36 37  1  0  0  0  0
 36 30  1  0  0  0  0
 38 37  1  0  0  0  0
M  END
>  <minimizedAffinity>
-4.80451679

$$$$

 OpenBabel03252506393D

 38 40  0  0  1  0  0  0  0  0999 V2000
   37.5470   32.0260   38.2780 C   0  0  0  0  0  0  0  0  0  0  0  0
   37.1340   32.4120   39.5710 C   0  0  0  0  0  0  0  0  0  0  0  0
   36.5730   31.4910   40.3930 C   0  0  0  0  0  0  0  0  0  0  0  0
   36.4450   30.2290   39.9090 N   0  0  0  0  0  0  0  0  0  0  0  0
   36.8350   29.8730   38.6930 C   0  0  0  0  0  0  0  0  0  0  0  0
   37.3890   30.7600   37.8640 N   0  0  0  0  0  0  0  0  0  0  0  0
   36.6470   28.5060   38.2820 N   0  0  0  0  0  0  0  0  0  0  0  0
   37.2160   27.9350   37.1200 C   0  0  0  0  0  0  0  0  0  0  0  0
   36.1300   26.9990   36.6220 C   0  0  0  0  0  0  0  0  0  0  0  0
   35.0760   26.9810   37.6870 C   0  0  0  0  0  0  0  0  0  0  0  0
   35.8450   27.4840   38.9070 C   0  0  1  0  0  0  0  0  0  0  0  0
   37.9920   32.7830   37.6420 H   0  0  0  0  0  0  0  0  0  0  0  0
   36.2530   31.7600   41.3740 H   0  0  0  0  0  0  0  0  0  0  0  0
   37.2260   28.7560   36.3350 H   0  0  0  0  0  0  0  0  0  0  0  0
   38.1390   27.4600   37.0480 H   0  0  0  0  0  0  0  0  0  0  0  0
   36.5340   25.9550   36.5290 H   0  0  0  0  0  0  0  0  0  0  0  0
   35.7150   27.2550   35.6500 H   0  0  0  0  0  0  0  0  0  0  0  0
   34.2570   27.6740   37.4290 H   0  0  0  0  0  0  0  0  0  0  0  0
   34.6960   25.9620   37.9060 H   0  0  0  0  0  0  0  0  0  0  0  0
   35.1610   27.9570   39.6300 H   0  0  0  0  0  0  0  0  0  0  0  0
   37.3350   33.7860   39.9470 N   0  0  0  0  0  0  0  0  0  0  0  0
   37.0330   34.5600   39.3090 H   0  0  0  0  0  0  0  0  0  0  0  0
   37.8010   33.8270   40.8990 H   0  0  0  0  0  0  0  0  0  0  0  0
   36.8300   26.1530   39.5540 S   0  0  0  0  0  0  0  0  0  0  0  0
   39.5880   27.9650   40.0440 O   0  0  0  0  0  0  0  0  0  0  0  0
   38.8790   27.4210   40.9060 C   0  0  0  0  0  0  0  0  0  0  0  0
   37.7360   26.4790   41.0120 C   0  0  1  0  0  0  0  0  0  0  0  0
   36.9490   27.0860   42.1450 C   0  0  0  0  0  0  0  0  0  0  0  0
   38.0920   27.1760   43.1650 C   0  0  0  0  0  0  0  0  0  0  0  0
   39.1380   27.7050   42.2970 N   0  0  0  0  0  0  0  0  0  0  0  0
   38.2310   25.6150   41.5340 H   0  0  0  0  0  0  0  0  0  0  0  0
   36.5970   28.1170   41.8990 H   0  0  0  0  0  0  0  0  0  0  0  0
   36.1630   26.4390   42.5390 H   0  0  0  0  0  0  0  0  0  0  0  0
   37.8160   27.9050   43.9530 H   0  0  0  0  0  0  0  0  0  0  0  0
   38.3130   26.1780   43.5500 H   0  0  0  0  0  0  0  0  0  0  0  0
   40.2450   28.4150   42.9290 C   0  0  0  0  0  2  0  0  0  0  0  0
   41.1660   27.4110   43.6210 C   0  0  0  0  0  2  0  0  0  0  0  0
   41.7090   27.8560   44.4760 H   0  0  0  0  0  0  0  0  0  0  0  0
  1  2  1  0  0  0  0
  2 21  1  0  0  0  0
  2  3  2  0  0  0  0
  3 13  1  0  0  0  0
  4  3  1  0  0  0  0
  5  4  2  0  0  0  0
  6  1  2  0  0  0  0
  6  5  1  0  0  0  0
  7  5  1  0  0  0  0
  7 11  1  0  0  0  0
  8  7  1  0  0  0  0
  9  8  1  0  0  0  0
  9 10  1  0  0  0  0
 10 19  1  0  0  0  0
 10 11  1  0  0  0  0
 11 24  1  0  0  0  0
 11 20  1  1  0  0  0
 12  1  1  0  0  0  0
 14  8  1  0  0  0  0
 15  8  1  0  0  0  0
 16  9  1  0  0  0  0
 17  9  1  0  0  0  0
 18 10  1  0  0  0  0
 21 23  1  0  0  0  0
 22 21  1  0  0  0  0
 24 27  1  0  0  0  0
 25 26  2  0  0  0  0
 26 27  1  0  0  0  0
 26 30  1  0  0  0  0
 27 31  1  1  0  0  0
 27 28  1  0  0  0  0
 28 33  1  0  0  0  0
 28 29  1  0  0  0  0
 29 35  1  0  0  0  0
 29 34  1  0  0  0  0
 30 36  1  0  0  0  0
 30 29  1  0  0  0  0
 32 28  1  0  0  0  0
 36 37  1  0  0  0  0
 37 38  1  0  0  0  0
M  END
>  <minimizedAffinity>
-4.7957077

$$$$

 OpenBabel03252506393D

 38 40  0  0  1  0  0  0  0  0999 V2000
   41.3550   29.6370   37.4510 C   0  0  0  0  0  0  0  0  0  0  0  0
   42.1100   29.0300   38.4770 C   0  0  0  0  0  0  0  0  0  0  0  0
   41.6730   29.1060   39.7580 C   0  0  0  0  0  0  0  0  0  0  0  0
   40.5130   29.7760   39.9760 N   0  0  0  0  0  0  0  0  0  0  0  0
   39.8080   30.3450   39.0070 C   0  0  0  0  0  0  0  0  0  0  0  0
   40.2160   30.2850   37.7390 N   0  0  0  0  0  0  0  0  0  0  0  0
   38.5930   31.0330   39.3540 N   0  0  0  0  0  0  0  0  0  0  0  0
   37.6330   31.4810   38.4160 C   0  0  0  0  0  0  0  0  0  0  0  0
   37.1570   32.7970   39.0040 C   0  0  0  0  0  0  0  0  0  0  0  0
   37.7750   32.8920   40.3660 C   0  0  0  0  0  0  0  0  0  0  0  0
   38.1300   31.4350   40.6580 C   0  0  1  0  0  0  0  0  0  0  0  0
   41.7280   29.5610   36.4360 H   0  0  0  0  0  0  0  0  0  0  0  0
   42.2280   28.6540   40.5500 H   0  0  0  0  0  0  0  0  0  0  0  0
   38.2150   31.8080   37.4970 H   0  0  0  0  0  0  0  0  0  0  0  0
   36.8140   30.9470   38.0610 H   0  0  0  0  0  0  0  0  0  0  0  0
   36.0420   32.7770   39.1390 H   0  0  0  0  0  0  0  0  0  0  0  0
   37.3770   33.6740   38.4010 H   0  0  0  0  0  0  0  0  0  0  0  0
   38.6840   33.5160   40.3330 H   0  0  0  0  0  0  0  0  0  0  0  0
   37.0650   33.2430   41.1430 H   0  0  0  0  0  0  0  0  0  0  0  0
   38.9680   31.3750   41.3710 H   0  0  0  0  0  0  0  0  0  0  0  0
   43.3210   28.3520   38.0960 N   0  0  0  0  0  0  0  0  0  0  0  0
   44.0180   28.8240   37.4710 H   0  0  0  0  0  0  0  0  0  0  0  0
   43.3400   27.3880   38.5360 H   0  0  0  0  0  0  0  0  0  0  0  0
   36.6550   30.5710   41.1490 S   0  0  0  0  0  0  0  0  0  0  0  0
   37.6630   27.6320   39.9330 O   0  0  0  0  0  0  0  0  0  0  0  0
   37.4370   27.9210   41.1200 C   0  0  0  0  0  0  0  0  0  0  0  0
   36.8710   29.0260   41.9340 C   0  0  1  0  0  0  0  0  0  0  0  0
   37.7940   29.0250   43.1260 C   0  0  0  0  0  0  0  0  0  0  0  0
   37.6710   27.5380   43.4820 C   0  0  0  0  0  0  0  0  0  0  0  0
   37.7880   26.9680   42.1450 N   0  0  0  0  0  0  0  0  0  0  0  0
   35.9650   28.5180   42.3660 H   0  0  0  0  0  0  0  0  0  0  0  0
   38.8500   29.2450   42.8330 H   0  0  0  0  0  0  0  0  0  0  0  0
   37.4410   29.6280   43.9650 H   0  0  0  0  0  0  0  0  0  0  0  0
   38.5300   27.2470   44.1200 H   0  0  0  0  0  0  0  0  0  0  0  0
   36.6990   27.3570   43.9460 H   0  0  0  0  0  0  0  0  0  0  0  0
   38.2230   25.5790   42.0390 C   0  0  0  0  0  2  0  0  0  0  0  0
   37.0040   24.6590   42.0620 C   0  0  0  0  0  2  0  0  0  0  0  0
   37.2400   23.6530   42.4570 H   0  0  0  0  0  0  0  0  0  0  0  0
  1  6  2  0  0  0  0
  1  2  1  0  0  0  0
  2  3  2  0  0  0  0
  3  4  1  0  0  0  0
  3 13  1  0  0  0  0
  5  7  1  0  0  0  0
  5  4  2  0  0  0  0
  6  5  1  0  0  0  0
  7 11  1  0  0  0  0
  8  9  1  0  0  0  0
  8  7  1  0  0  0  0
  9 16  1  0  0  0  0
  9 10  1  0  0  0  0
 10 11  1  0  0  0  0
 10 19  1  0  0  0  0
 11 24  1  0  0  0  0
 11 20  1  1  0  0  0
 12  1  1  0  0  0  0
 14  8  1  0  0  0  0
 15  8  1  0  0  0  0
 17  9  1  0  0  0  0
 18 10  1  0  0  0  0
 21  2  1  0  0  0  0
 21 23  1  0  0  0  0
 22 21  1  0  0  0  0
 24 27  1  0  0  0  0
 25 26  2  0  0  0  0
 26 27  1  0  0  0  0
 26 30  1  0  0  0  0
 27 31  1  1  0  0  0
 27 28  1  0  0  0  0
 28 29  1  0  0  0  0
 28 33  1  0  0  0  0
 29 35  1  0  0  0  0
 29 34  1  0  0  0  0
 30 29  1  0  0  0  0
 32 28  1  0  0  0  0
 36 37  1  0  0  0  0
 36 30  1  0  0  0  0
 37 38  1  0  0  0  0
M  END
>  <minimizedAffinity>
-4.79421997

$$$$

 OpenBabel03252506393D

 38 40  0  0  1  0  0  0  0  0999 V2000
   39.4280   32.6060   39.2180 C   0  0  0  0  0  0  0  0  0  0  0  0
   39.8780   32.7960   40.5420 C   0  0  0  0  0  0  0  0  0  0  0  0
   39.3900   32.0050   41.5290 C   0  0  0  0  0  0  0  0  0  0  0  0
   38.4830   31.0620   41.1720 N   0  0  0  0  0  0  0  0  0  0  0  0
   38.0640   30.8890   39.9260 C   0  0  0  0  0  0  0  0  0  0  0  0
   38.5270   31.6530   38.9370 N   0  0  0  0  0  0  0  0  0  0  0  0
   37.0940   29.8570   39.6630 N   0  0  0  0  0  0  0  0  0  0  0  0
   36.7350   29.4100   38.3700 C   0  0  0  0  0  0  0  0  0  0  0  0
   35.2460   29.1410   38.4940 C   0  0  0  0  0  0  0  0  0  0  0  0
   34.9180   29.2860   39.9500 C   0  0  0  0  0  0  0  0  0  0  0  0
   36.2880   29.1230   40.6050 C   0  0  1  0  0  0  0  0  0  0  0  0
   39.8340   33.2530   38.4480 H   0  0  0  0  0  0  0  0  0  0  0  0
   39.7160   32.1310   42.5370 H   0  0  0  0  0  0  0  0  0  0  0  0
   36.7730   30.3240   37.6960 H   0  0  0  0  0  0  0  0  0  0  0  0
   37.1800   28.6400   37.8320 H   0  0  0  0  0  0  0  0  0  0  0  0
   35.0210   28.0800   38.2010 H   0  0  0  0  0  0  0  0  0  0  0  0
   34.6130   29.7710   37.8750 H   0  0  0  0  0  0  0  0  0  0  0  0
   34.5050   30.2880   40.1520 H   0  0  0  0  0  0  0  0  0  0  0  0
   34.2500   28.4840   40.3270 H   0  0  0  0  0  0  0  0  0  0  0  0
   36.3160   29.6360   41.5790 H   0  0  0  0  0  0  0  0  0  0  0  0
   40.8450   33.8370   40.7690 N   0  0  0  0  0  0  0  0  0  0  0  0
   40.6910   34.7980   40.3810 H   0  0  0  0  0  0  0  0  0  0  0  0
   41.6470   33.4530   41.3460 H   0  0  0  0  0  0  0  0  0  0  0  0
   36.7030   27.3940   40.6470 S   0  0  0  0  0  0  0  0  0  0  0  0
   39.9990   27.8420   40.3940 O   0  0  0  0  0  0  0  0  0  0  0  0
   39.3740   27.3670   41.3560 C   0  0  0  0  0  0  0  0  0  0  0  0
   38.0030   26.9220   41.7140 C   0  0  1  0  0  0  0  0  0  0  0  0
   37.8890   27.4110   43.1340 C   0  0  0  0  0  0  0  0  0  0  0  0
   39.1750   26.7730   43.6770 C   0  0  0  0  0  0  0  0  0  0  0  0
   40.0820   27.1140   42.5870 N   0  0  0  0  0  0  0  0  0  0  0  0
   38.1820   25.8240   41.8790 H   0  0  0  0  0  0  0  0  0  0  0  0
   37.9780   28.5230   43.1990 H   0  0  0  0  0  0  0  0  0  0  0  0
   37.0300   27.0110   43.6770 H   0  0  0  0  0  0  0  0  0  0  0  0
   39.4640   27.2850   44.6170 H   0  0  0  0  0  0  0  0  0  0  0  0
   39.0230   25.6970   43.7930 H   0  0  0  0  0  0  0  0  0  0  0  0
   41.5100   27.1490   42.8840 C   0  0  0  0  0  2  0  0  0  0  0  0
   42.0700   25.7280   42.8700 C   0  0  0  0  0  2  0  0  0  0  0  0
   42.9580   25.6170   43.5200 H   0  0  0  0  0  0  0  0  0  0  0  0
  1  2  1  0  0  0  0
  2 21  1  0  0  0  0
  2  3  2  0  0  0  0
  3 13  1  0  0  0  0
  4  3  1  0  0  0  0
  5  4  2  0  0  0  0
  6  1  2  0  0  0  0
  6  5  1  0  0  0  0
  7  5  1  0  0  0  0
  7 11  1  0  0  0  0
  8  9  1  0  0  0  0
  8  7  1  0  0  0  0
  9 10  1  0  0  0  0
 10 18  1  0  0  0  0
 10 19  1  0  0  0  0
 10 11  1  0  0  0  0
 11 24  1  0  0  0  0
 11 20  1  1  0  0  0
 12  1  1  0  0  0  0
 14  8  1  0  0  0  0
 15  8  1  0  0  0  0
 16  9  1  0  0  0  0
 17  9  1  0  0  0  0
 21 23  1  0  0  0  0
 22 21  1  0  0  0  0
 24 27  1  0  0  0  0
 25 26  2  0  0  0  0
 26 27  1  0  0  0  0
 26 30  1  0  0  0  0
 27 31  1  1  0  0  0
 27 28  1  0  0  0  0
 28 32  1  0  0  0  0
 28 29  1  0  0  0  0
 28 33  1  0  0  0  0
 29 35  1  0  0  0  0
 29 34  1  0  0  0  0
 30 36  1  0  0  0  0
 30 29  1  0  0  0  0
 37 36  1  0  0  0  0
 37 38  1  0  0  0  0
M  END
>  <minimizedAffinity>
-4.73541927

$$$$

 OpenBabel03252506393D

 38 40  0  0  1  0  0  0  0  0999 V2000
   37.1690   25.3320   42.0790 C   0  0  0  0  0  0  0  0  0  0  0  0
   38.3550   24.7360   41.5980 C   0  0  0  0  0  0  0  0  0  0  0  0
   39.3020   25.5150   41.0190 C   0  0  0  0  0  0  0  0  0  0  0  0
   39.0430   26.8450   40.9390 N   0  0  0  0  0  0  0  0  0  0  0  0
   37.9260   27.3980   41.3920 C   0  0  0  0  0  0  0  0  0  0  0  0
   36.9790   26.6550   41.9660 N   0  0  0  0  0  0  0  0  0  0  0  0
   37.7560   28.8200   41.2510 N   0  0  0  0  0  0  0  0  0  0  0  0
   36.7380   29.5700   41.8860 C   0  0  0  0  0  0  0  0  0  0  0  0
   36.3670   30.6090   40.8430 C   0  0  0  0  0  0  0  0  0  0  0  0
   37.3730   30.4690   39.7410 C   0  0  0  0  0  0  0  0  0  0  0  0
   38.5170   29.7390   40.4430 C   0  0  1  0  0  0  0  0  0  0  0  0
   36.4290   24.6860   42.5370 H   0  0  0  0  0  0  0  0  0  0  0  0
   40.2060   25.0870   40.6480 H   0  0  0  0  0  0  0  0  0  0  0  0
   35.8210   28.8990   41.9150 H   0  0  0  0  0  0  0  0  0  0  0  0
   36.7900   30.0230   42.8200 H   0  0  0  0  0  0  0  0  0  0  0  0
   36.4760   31.6410   41.2730 H   0  0  0  0  0  0  0  0  0  0  0  0
   35.3490   30.5390   40.4690 H   0  0  0  0  0  0  0  0  0  0  0  0
   36.9630   29.8560   38.9210 H   0  0  0  0  0  0  0  0  0  0  0  0
   37.7520   31.4450   39.3720 H   0  0  0  0  0  0  0  0  0  0  0  0
   39.1160   29.1670   39.7160 H   0  0  0  0  0  0  0  0  0  0  0  0
   38.4910   23.3130   41.7540 N   0  0  0  0  0  0  0  0  0  0  0  0
   37.7140   22.6710   41.4650 H   0  0  0  0  0  0  0  0  0  0  0  0
   39.4390   23.0930   42.1740 H   0  0  0  0  0  0  0  0  0  0  0  0
   39.4300   30.9080   41.4240 S   0  0  0  0  0  0  0  0  0  0  0  0
   41.1110   30.7800   38.5450 O   0  0  0  0  0  0  0  0  0  0  0  0
   40.8680   31.7850   39.2340 C   0  0  0  0  0  0  0  0  0  0  0  0
   40.3070   32.1470   40.5600 C   0  0  1  0  0  0  0  0  0  0  0  0
   39.5190   33.3870   40.2240 C   0  0  0  0  0  0  0  0  0  0  0  0
   40.6420   34.1610   39.5200 C   0  0  0  0  0  0  0  0  0  0  0  0
   41.1850   33.0860   38.6980 N   0  0  0  0  0  0  0  0  0  0  0  0
   41.2140   32.5960   41.0500 H   0  0  0  0  0  0  0  0  0  0  0  0
   38.7050   33.1760   39.4890 H   0  0  0  0  0  0  0  0  0  0  0  0
   39.1820   33.9520   41.0960 H   0  0  0  0  0  0  0  0  0  0  0  0
   40.1930   34.9590   38.8950 H   0  0  0  0  0  0  0  0  0  0  0  0
   41.3470   34.5340   40.2670 H   0  0  0  0  0  0  0  0  0  0  0  0
   41.9370   33.4630   37.5050 C   0  0  0  0  0  2  0  0  0  0  0  0
   43.4220   33.5630   37.8470 C   0  0  0  0  0  2  0  0  0  0  0  0
   43.9620   34.2690   37.1880 H   0  0  0  0  0  0  0  0  0  0  0  0
  1 12  1  0  0  0  0
  2 21  1  0  0  0  0
  2  1  2  0  0  0  0
  3  2  1  0  0  0  0
  4  3  2  0  0  0  0
  4  5  1  0  0  0  0
  5  6  2  0  0  0  0
  6  1  1  0  0  0  0
  7  5  1  0  0  0  0
  7  8  1  0  0  0  0
  8 14  1  0  0  0  0
  8 15  1  0  0  0  0
  9 16  1  0  0  0  0
  9  8  1  0  0  0  0
 10 11  1  0  0  0  0
 10  9  1  0  0  0  0
 11 20  1  6  0  0  0
 11  7  1  0  0  0  0
 11 24  1  0  0  0  0
 13  3  1  0  0  0  0
 17  9  1  0  0  0  0
 18 10  1  0  0  0  0
 19 10  1  0  0  0  0
 21 23  1  0  0  0  0
 22 21  1  0  0  0  0
 25 26  2  0  0  0  0
 26 27  1  0  0  0  0
 27 31  1  1  0  0  0
 27 24  1  0  0  0  0
 28 27  1  0  0  0  0
 28 33  1  0  0  0  0
 29 28  1  0  0  0  0
 29 35  1  0  0  0  0
 30 26  1  0  0  0  0
 30 29  1  0  0  0  0
 32 28  1  0  0  0  0
 34 29  1  0  0  0  0
 36 37  1  0  0  0  0
 36 30  1  0  0  0  0
 38 37  1  0  0  0  0
M  END
>  <minimizedAffinity>
-4.71935463

$$$$

 OpenBabel03252506393D

 38 40  0  0  1  0  0  0  0  0999 V2000
   36.2000   29.2040   36.1270 C   0  0  0  0  0  0  0  0  0  0  0  0
   37.1160   28.1600   35.8740 C   0  0  0  0  0  0  0  0  0  0  0  0
   38.2320   28.0560   36.6360 C   0  0  0  0  0  0  0  0  0  0  0  0
   38.4000   28.9810   37.6150 N   0  0  0  0  0  0  0  0  0  0  0  0
   37.5360   29.9600   37.8480 C   0  0  0  0  0  0  0  0  0  0  0  0
   36.4300   30.0860   37.1120 N   0  0  0  0  0  0  0  0  0  0  0  0
   37.8170   30.8880   38.9110 N   0  0  0  0  0  0  0  0  0  0  0  0
   36.8890   31.8280   39.4180 C   0  0  0  0  0  0  0  0  0  0  0  0
   37.7480   33.0420   39.7180 C   0  0  0  0  0  0  0  0  0  0  0  0
   39.1690   32.6050   39.5230 C   0  0  0  0  0  0  0  0  0  0  0  0
   39.0520   31.0850   39.6260 C   0  0  1  0  0  0  0  0  0  0  0  0
   35.3160   29.2640   35.5020 H   0  0  0  0  0  0  0  0  0  0  0  0
   38.9380   27.2750   36.4630 H   0  0  0  0  0  0  0  0  0  0  0  0
   36.2660   32.1690   38.5310 H   0  0  0  0  0  0  0  0  0  0  0  0
   36.2180   31.6800   40.1990 H   0  0  0  0  0  0  0  0  0  0  0  0
   37.6310   33.3400   40.7950 H   0  0  0  0  0  0  0  0  0  0  0  0
   37.5150   33.9250   39.1280 H   0  0  0  0  0  0  0  0  0  0  0  0
   39.5280   32.9010   38.5230 H   0  0  0  0  0  0  0  0  0  0  0  0
   39.8480   32.9610   40.3240 H   0  0  0  0  0  0  0  0  0  0  0  0
   39.8700   30.5940   39.0740 H   0  0  0  0  0  0  0  0  0  0  0  0
   36.8040   27.2520   34.8030 N   0  0  0  0  0  0  0  0  0  0  0  0
   36.5240   27.6190   33.8610 H   0  0  0  0  0  0  0  0  0  0  0  0
   36.9100   26.2540   35.1440 H   0  0  0  0  0  0  0  0  0  0  0  0
   38.9200   30.6350   41.3420 S   0  0  0  0  0  0  0  0  0  0  0  0
   39.8160   27.5700   40.3750 O   0  0  0  0  0  0  0  0  0  0  0  0
   38.9250   27.8760   41.1840 C   0  0  0  0  0  0  0  0  0  0  0  0
   38.2150   29.0760   41.6950 C   0  0  1  0  0  0  0  0  0  0  0  0
   38.0760   28.7420   43.1580 C   0  0  0  0  0  0  0  0  0  0  0  0
   37.4300   27.3600   42.9940 C   0  0  0  0  0  0  0  0  0  0  0  0
   38.2840   26.8270   41.9390 N   0  0  0  0  0  0  0  0  0  0  0  0
   37.1730   28.8680   41.3280 H   0  0  0  0  0  0  0  0  0  0  0  0
   39.0710   28.6240   43.6530 H   0  0  0  0  0  0  0  0  0  0  0  0
   37.3940   29.3970   43.7030 H   0  0  0  0  0  0  0  0  0  0  0  0
   37.5520   26.7900   43.9370 H   0  0  0  0  0  0  0  0  0  0  0  0
   36.3880   27.4820   42.6880 H   0  0  0  0  0  0  0  0  0  0  0  0
   38.3650   25.3760   41.8040 C   0  0  0  0  0  2  0  0  0  0  0  0
   36.9700   24.7720   41.9460 C   0  0  0  0  0  2  0  0  0  0  0  0
   36.9960   23.7320   42.3260 H   0  0  0  0  0  0  0  0  0  0  0  0
  1  6  1  0  0  0  0
  2  1  2  0  0  0  0
  2  3  1  0  0  0  0
  3  4  2  0  0  0  0
  4  5  1  0  0  0  0
  5  7  1  0  0  0  0
  6  5  2  0  0  0  0
  7  8  1  0  0  0  0
  7 11  1  0  0  0  0
  8  9  1  0  0  0  0
  8 15  1  0  0  0  0
  9 16  1  0  0  0  0
 10 11  1  0  0  0  0
 10  9  1  0  0  0  0
 10 19  1  0  0  0  0
 11 20  1  6  0  0  0
 11 24  1  0  0  0  0
 12  1  1  0  0  0  0
 13  3  1  0  0  0  0
 14  8  1  0  0  0  0
 17  9  1  0  0  0  0
 18 10  1  0  0  0  0
 21 23  1  0  0  0  0
 21  2  1  0  0  0  0
 22 21  1  0  0  0  0
 24 27  1  0  0  0  0
 25 26  2  0  0  0  0
 26 27  1  0  0  0  0
 26 30  1  0  0  0  0
 27 31  1  6  0  0  0
 27 28  1  0  0  0  0
 28 32  1  0  0  0  0
 28 33  1  0  0  0  0
 29 28  1  0  0  0  0
 29 34  1  0  0  0  0
 30 29  1  0  0  0  0
 35 29  1  0  0  0  0
 36 30  1  0  0  0  0
 36 37  1  0  0  0  0
 37 38  1  0  0  0  0
M  END
>  <minimizedAffinity>
-4.70579672

$$$$
