
 OpenBabel03242520273D

 32 33  0  0  0  0  0  0  0  0999 V2000
   39.7500   27.6480   42.4710 C   0  0  0  0  0  0  0  0  0  0  0  0
   38.4710   27.4660   41.8790 C   0  0  0  0  0  0  0  0  0  0  0  0
   37.6810   28.5830   41.6930 C   0  0  0  0  0  0  0  0  0  0  0  0
   38.1570   29.7970   42.0800 N   0  0  0  0  0  0  0  0  0  0  0  0
   39.3700   29.9450   42.6370 C   0  0  0  0  0  0  0  0  0  0  0  0
   40.1520   28.8860   42.8280 N   0  0  0  0  0  0  0  0  0  0  0  0
   40.4060   26.8210   42.6400 H   0  0  0  0  0  0  0  0  0  0  0  0
   39.5360   30.9900   42.8620 H   0  0  0  0  0  0  0  0  0  0  0  0
   38.1310   26.1330   41.5360 N   0  0  0  0  0  0  0  0  0  0  0  0
   37.1590   25.3440   42.2700 C   0  0  0  0  0  0  0  0  0  0  0  0
   36.9350   24.0350   41.5830 C   0  0  0  0  0  0  0  0  0  0  0  0
   38.1510   23.3230   41.2880 N   0  0  0  0  0  0  0  0  0  0  0  0
   39.1820   24.1060   40.6800 C   0  0  0  0  0  0  0  0  0  0  0  0
   38.7970   25.5310   40.3870 C   0  0  0  0  0  0  0  0  0  0  0  0
   36.2010   25.9290   42.1830 H   0  0  0  0  0  0  0  0  0  0  0  0
   37.3720   25.2750   43.3480 H   0  0  0  0  0  0  0  0  0  0  0  0
   36.3850   24.2300   40.6330 H   0  0  0  0  0  0  0  0  0  0  0  0
   36.2900   23.4050   42.1920 H   0  0  0  0  0  0  0  0  0  0  0  0
   37.8910   22.4580   40.7670 H   0  0  0  0  0  0  0  0  0  0  0  0
   40.0250   24.1610   41.4110 H   0  0  0  0  0  0  0  0  0  0  0  0
   39.6010   23.6510   39.7740 H   0  0  0  0  0  0  0  0  0  0  0  0
   38.1040   25.5090   39.5220 H   0  0  0  0  0  0  0  0  0  0  0  0
   39.7030   26.0730   40.0850 H   0  0  0  0  0  0  0  0  0  0  0  0
   36.4310   28.3750   41.1120 O   0  0  0  0  0  0  0  0  0  0  0  0
   34.2980   29.2460   39.8080 O   0  0  0  0  0  0  0  0  0  0  0  0
   35.6770   29.6800   40.2870 P   0  0  1  0  0  0  0  0  0  0  0  0
   35.5730   30.9660   41.3450 O   0  0  0  0  0  0  0  0  0  0  0  0
   34.7590   30.8980   41.8810 H   0  0  0  0  0  0  0  0  0  0  0  0
   36.6390   30.0350   38.9400 O   0  0  0  0  0  0  0  0  0  0  0  0
   36.9550   31.3820   38.8750 C   0  0  0  0  0  2  0  0  0  0  0  0
   38.4620   31.6320   38.9230 C   0  0  0  0  0  2  0  0  0  0  0  0
   38.7960   32.3080   38.1040 H   0  0  0  0  0  0  0  0  0  0  0  0
  1  7  1  0  0  0  0
  1  6  1  0  0  0  0
  2  1  2  0  0  0  0
  3  2  1  0  0  0  0
  3  4  2  0  0  0  0
  4  5  1  0  0  0  0
  5  6  2  0  0  0  0
  5  8  1  0  0  0  0
  9  2  1  0  0  0  0
  9 10  1  0  0  0  0
 10 16  1  0  0  0  0
 11 18  1  0  0  0  0
 11 10  1  0  0  0  0
 12 11  1  0  0  0  0
 13 12  1  0  0  0  0
 13 20  1  0  0  0  0
 14 13  1  0  0  0  0
 14  9  1  0  0  0  0
 15 10  1  0  0  0  0
 17 11  1  0  0  0  0
 19 12  1  0  0  0  0
 21 13  1  0  0  0  0
 22 14  1  0  0  0  0
 23 14  1  0  0  0  0
 24  3  1  0  0  0  0
 26 25  2  6  0  0  0
 26 24  1  0  0  0  0
 26 27  1  0  0  0  0
 27 28  1  0  0  0  0
 29 26  1  0  0  0  0
 30 31  1  0  0  0  0
 30 29  1  0  0  0  0
 32 31  1  0  0  0  0
M  END
>  <minimizedAffinity>
-4.70879984

$$$$

 OpenBabel03242520273D

 32 33  0  0  0  0  0  0  0  0999 V2000
   41.1860   30.3890   39.9740 C   0  0  0  0  0  0  0  0  0  0  0  0
   39.7650   30.3830   40.0200 C   0  0  0  0  0  0  0  0  0  0  0  0
   39.1290   29.1670   40.1670 C   0  0  0  0  0  0  0  0  0  0  0  0
   39.8830   28.0380   40.2600 N   0  0  0  0  0  0  0  0  0  0  0  0
   41.2240   28.0680   40.2140 C   0  0  0  0  0  0  0  0  0  0  0  0
   41.8630   29.2260   40.0740 N   0  0  0  0  0  0  0  0  0  0  0  0
   41.7340   31.3000   39.8620 H   0  0  0  0  0  0  0  0  0  0  0  0
   41.6090   27.0610   40.3070 H   0  0  0  0  0  0  0  0  0  0  0  0
   39.1370   31.6500   39.9080 N   0  0  0  0  0  0  0  0  0  0  0  0
   39.1150   32.6260   40.9820 C   0  0  0  0  0  0  0  0  0  0  0  0
   38.4900   33.8980   40.5070 C   0  0  0  0  0  0  0  0  0  0  0  0
   37.2120   33.7110   39.8720 N   0  0  0  0  0  0  0  0  0  0  0  0
   37.1640   32.6660   38.8970 C   0  0  0  0  0  0  0  0  0  0  0  0
   38.4800   31.9800   38.6490 C   0  0  0  0  0  0  0  0  0  0  0  0
   40.2010   32.8480   41.1800 H   0  0  0  0  0  0  0  0  0  0  0  0
   38.7110   32.2320   41.9270 H   0  0  0  0  0  0  0  0  0  0  0  0
   39.1900   34.3830   39.7860 H   0  0  0  0  0  0  0  0  0  0  0  0
   38.3780   34.5880   41.3410 H   0  0  0  0  0  0  0  0  0  0  0  0
   36.8890   34.6430   39.5330 H   0  0  0  0  0  0  0  0  0  0  0  0
   36.4790   31.8780   39.2950 H   0  0  0  0  0  0  0  0  0  0  0  0
   36.7340   32.9800   37.9380 H   0  0  0  0  0  0  0  0  0  0  0  0
   39.1110   32.6860   38.0720 H   0  0  0  0  0  0  0  0  0  0  0  0
   38.2920   31.0990   38.0210 H   0  0  0  0  0  0  0  0  0  0  0  0
   37.7350   29.1910   40.2070 O   0  0  0  0  0  0  0  0  0  0  0  0
   38.0080   29.6510   42.7990 O   0  0  0  0  0  0  0  0  0  0  0  0
   36.9590   29.3930   41.7260 P   0  0  1  0  0  0  0  0  0  0  0  0
   35.8990   30.6750   41.5970 O   0  0  0  0  0  0  0  0  0  0  0  0
   36.3620   31.5160   41.7760 H   0  0  0  0  0  0  0  0  0  0  0  0
   36.1660   27.9380   42.0740 O   0  0  0  0  0  0  0  0  0  0  0  0
   36.9370   27.1110   42.8730 C   0  0  0  0  0  2  0  0  0  0  0  0
   37.2420   25.7710   42.2040 C   0  0  0  0  0  2  0  0  0  0  0  0
   38.3270   25.5260   42.2420 H   0  0  0  0  0  0  0  0  0  0  0  0
  1  2  2  0  0  0  0
  1  6  1  0  0  0  0
  2  3  1  0  0  0  0
  3 24  1  0  0  0  0
  3  4  2  0  0  0  0
  5  4  1  0  0  0  0
  5  8  1  0  0  0  0
  6  5  2  0  0  0  0
  7  1  1  0  0  0  0
  9  2  1  0  0  0  0
  9 10  1  0  0  0  0
 10 15  1  0  0  0  0
 10 16  1  0  0  0  0
 11 10  1  0  0  0  0
 11 18  1  0  0  0  0
 12 11  1  0  0  0  0
 13 20  1  0  0  0  0
 13 12  1  0  0  0  0
 14 13  1  0  0  0  0
 14  9  1  0  0  0  0
 17 11  1  0  0  0  0
 19 12  1  0  0  0  0
 21 13  1  0  0  0  0
 22 14  1  0  0  0  0
 23 14  1  0  0  0  0
 24 26  1  0  0  0  0
 26 29  1  0  0  0  0
 26 25  2  1  0  0  0
 27 26  1  0  0  0  0
 27 28  1  0  0  0  0
 29 30  1  0  0  0  0
 31 32  1  0  0  0  0
 31 30  1  0  0  0  0
M  END
>  <minimizedAffinity>
-4.63928986

$$$$

 OpenBabel03242520273D

 32 33  0  0  0  0  0  0  0  0999 V2000
   36.9390   30.5800   37.7560 C   0  0  0  0  0  0  0  0  0  0  0  0
   37.1110   30.8540   39.1400 C   0  0  0  0  0  0  0  0  0  0  0  0
   36.3490   30.1360   40.0400 C   0  0  0  0  0  0  0  0  0  0  0  0
   35.4760   29.2060   39.5680 N   0  0  0  0  0  0  0  0  0  0  0  0
   35.3310   28.9640   38.2560 C   0  0  0  0  0  0  0  0  0  0  0  0
   36.0520   29.6410   37.3660 N   0  0  0  0  0  0  0  0  0  0  0  0
   37.5000   31.1030   37.0120 H   0  0  0  0  0  0  0  0  0  0  0  0
   34.5880   28.1900   38.1140 H   0  0  0  0  0  0  0  0  0  0  0  0
   38.0630   31.8550   39.4590 N   0  0  0  0  0  0  0  0  0  0  0  0
   37.6990   33.1870   39.9080 C   0  0  0  0  0  0  0  0  0  0  0  0
   38.9260   33.9560   40.2820 C   0  0  0  0  0  0  0  0  0  0  0  0
   39.9440   33.9490   39.2640 N   0  0  0  0  0  0  0  0  0  0  0  0
   40.2360   32.6650   38.7060 C   0  0  0  0  0  0  0  0  0  0  0  0
   39.4770   31.5240   39.3260 C   0  0  0  0  0  0  0  0  0  0  0  0
   37.1190   33.0140   40.8570 H   0  0  0  0  0  0  0  0  0  0  0  0
   37.0110   33.7090   39.2250 H   0  0  0  0  0  0  0  0  0  0  0  0
   39.3410   33.5160   41.2190 H   0  0  0  0  0  0  0  0  0  0  0  0
   38.6590   34.9850   40.5140 H   0  0  0  0  0  0  0  0  0  0  0  0
   40.7700   34.4620   39.6410 H   0  0  0  0  0  0  0  0  0  0  0  0
   39.9220   32.6950   37.6340 H   0  0  0  0  0  0  0  0  0  0  0  0
   41.3070   32.4250   38.6970 H   0  0  0  0  0  0  0  0  0  0  0  0
   39.9160   31.3480   40.3290 H   0  0  0  0  0  0  0  0  0  0  0  0
   39.6500   30.6280   38.7150 H   0  0  0  0  0  0  0  0  0  0  0  0
   36.5380   30.4270   41.3910 O   0  0  0  0  0  0  0  0  0  0  0  0
   38.9000   30.3810   42.5850 O   0  0  0  0  0  0  0  0  0  0  0  0
   37.6890   29.5100   42.2790 P   0  0  1  0  0  0  0  0  0  0  0  0
   36.9540   28.9800   43.6800 O   0  0  0  0  0  0  0  0  0  0  0  0
   37.0290   29.6590   44.3780 H   0  0  0  0  0  0  0  0  0  0  0  0
   38.1720   28.2290   41.2840 O   0  0  0  0  0  0  0  0  0  0  0  0
   37.8640   27.0000   41.8440 C   0  0  0  0  0  2  0  0  0  0  0  0
   36.9780   26.1490   40.9350 C   0  0  0  0  0  2  0  0  0  0  0  0
   37.3810   25.1190   40.8070 H   0  0  0  0  0  0  0  0  0  0  0  0
  1  2  1  0  0  0  0
  2  9  1  0  0  0  0
  2  3  2  0  0  0  0
  3 24  1  0  0  0  0
  4  3  1  0  0  0  0
  5  4  2  0  0  0  0
  6  1  2  0  0  0  0
  6  5  1  0  0  0  0
  7  1  1  0  0  0  0
  8  5  1  0  0  0  0
  9 10  1  0  0  0  0
 10 11  1  0  0  0  0
 10 15  1  0  0  0  0
 11 18  1  0  0  0  0
 11 17  1  0  0  0  0
 12 19  1  0  0  0  0
 12 11  1  0  0  0  0
 13 12  1  0  0  0  0
 13 14  1  0  0  0  0
 14  9  1  0  0  0  0
 14 22  1  0  0  0  0
 16 10  1  0  0  0  0
 20 13  1  0  0  0  0
 21 13  1  0  0  0  0
 23 14  1  0  0  0  0
 24 26  1  0  0  0  0
 26 25  2  1  0  0  0
 26 27  1  0  0  0  0
 27 28  1  0  0  0  0
 29 30  1  0  0  0  0
 29 26  1  0  0  0  0
 31 30  1  0  0  0  0
 32 31  1  0  0  0  0
M  END
>  <minimizedAffinity>
-4.57526255

$$$$

 OpenBabel03242520273D

 32 33  0  0  0  0  0  0  0  0999 V2000
   37.6230   31.9440   38.1950 C   0  0  0  0  0  0  0  0  0  0  0  0
   37.3640   30.5950   38.5620 C   0  0  0  0  0  0  0  0  0  0  0  0
   37.1380   30.3210   39.8970 C   0  0  0  0  0  0  0  0  0  0  0  0
   37.1730   31.3440   40.7920 N   0  0  0  0  0  0  0  0  0  0  0  0
   37.4180   32.6110   40.4220 C   0  0  0  0  0  0  0  0  0  0  0  0
   37.6400   32.9040   39.1440 N   0  0  0  0  0  0  0  0  0  0  0  0
   37.8050   32.2170   37.1780 H   0  0  0  0  0  0  0  0  0  0  0  0
   37.3960   33.2500   41.2950 H   0  0  0  0  0  0  0  0  0  0  0  0
   37.3660   29.6540   37.5020 N   0  0  0  0  0  0  0  0  0  0  0  0
   38.5380   28.8890   37.1170 C   0  0  0  0  0  0  0  0  0  0  0  0
   38.1790   27.8980   36.0560 C   0  0  0  0  0  0  0  0  0  0  0  0
   37.4760   28.4760   34.9410 N   0  0  0  0  0  0  0  0  0  0  0  0
   36.3920   29.3410   35.2890 C   0  0  0  0  0  0  0  0  0  0  0  0
   36.1240   29.4490   36.7660 C   0  0  0  0  0  0  0  0  0  0  0  0
   38.8040   28.3010   38.0390 H   0  0  0  0  0  0  0  0  0  0  0  0
   39.4170   29.5140   36.8940 H   0  0  0  0  0  0  0  0  0  0  0  0
   37.5460   27.1060   36.5200 H   0  0  0  0  0  0  0  0  0  0  0  0
   39.0790   27.4040   35.6950 H   0  0  0  0  0  0  0  0  0  0  0  0
   37.2280   27.7000   34.2900 H   0  0  0  0  0  0  0  0  0  0  0  0
   36.6730   30.3690   34.9530 H   0  0  0  0  0  0  0  0  0  0  0  0
   35.4560   29.1020   34.7680 H   0  0  0  0  0  0  0  0  0  0  0  0
   35.6550   28.4960   37.0810 H   0  0  0  0  0  0  0  0  0  0  0  0
   35.3970   30.2570   36.9220 H   0  0  0  0  0  0  0  0  0  0  0  0
   36.8890   28.9900   40.2280 O   0  0  0  0  0  0  0  0  0  0  0  0
   38.9480   28.2660   41.7250 O   0  0  0  0  0  0  0  0  0  0  0  0
   37.4310   28.4030   41.7480 P   0  0  1  0  0  0  0  0  0  0  0  0
   36.9390   29.4820   42.9220 O   0  0  0  0  0  0  0  0  0  0  0  0
   37.5960   30.1990   43.0190 H   0  0  0  0  0  0  0  0  0  0  0  0
   36.7460   26.8700   41.9600 O   0  0  0  0  0  0  0  0  0  0  0  0
   37.7050   25.9130   42.2460 C   0  0  0  0  0  2  0  0  0  0  0  0
   37.2010   24.4900   42.0100 C   0  0  0  0  0  2  0  0  0  0  0  0
   37.9090   23.8960   41.3900 H   0  0  0  0  0  0  0  0  0  0  0  0
  1  2  2  0  0  0  0
  1  6  1  0  0  0  0
  2  3  1  0  0  0  0
  3 24  1  0  0  0  0
  3  4  2  0  0  0  0
  5  4  1  0  0  0  0
  5  8  1  0  0  0  0
  6  5  2  0  0  0  0
  7  1  1  0  0  0  0
  9  2  1  0  0  0  0
 10  9  1  0  0  0  0
 10 15  1  0  0  0  0
 11 17  1  0  0  0  0
 11 10  1  0  0  0  0
 12 13  1  0  0  0  0
 12 11  1  0  0  0  0
 13 14  1  0  0  0  0
 14 23  1  0  0  0  0
 14 22  1  0  0  0  0
 14  9  1  0  0  0  0
 16 10  1  0  0  0  0
 18 11  1  0  0  0  0
 19 12  1  0  0  0  0
 20 13  1  0  0  0  0
 21 13  1  0  0  0  0
 24 26  1  0  0  0  0
 26 25  2  1  0  0  0
 26 29  1  0  0  0  0
 26 27  1  0  0  0  0
 27 28  1  0  0  0  0
 29 30  1  0  0  0  0
 31 30  1  0  0  0  0
 32 31  1  0  0  0  0
M  END
>  <minimizedAffinity>
-4.53064871

$$$$

 OpenBabel03242520273D

 32 33  0  0  0  0  0  0  0  0999 V2000
   37.4680   30.9960   37.1460 C   0  0  0  0  0  0  0  0  0  0  0  0
   37.9630   30.8170   38.4670 C   0  0  0  0  0  0  0  0  0  0  0  0
   37.6870   29.6230   39.1030 C   0  0  0  0  0  0  0  0  0  0  0  0
   36.9600   28.6800   38.4450 N   0  0  0  0  0  0  0  0  0  0  0  0
   36.5040   28.8710   37.1970 C   0  0  0  0  0  0  0  0  0  0  0  0
   36.7550   30.0120   36.5600 N   0  0  0  0  0  0  0  0  0  0  0  0
   37.6500   31.8980   36.6030 H   0  0  0  0  0  0  0  0  0  0  0  0
   35.9570   27.9940   36.8770 H   0  0  0  0  0  0  0  0  0  0  0  0
   38.7010   31.9020   39.0040 N   0  0  0  0  0  0  0  0  0  0  0  0
   40.1410   32.0290   38.8700 C   0  0  0  0  0  0  0  0  0  0  0  0
   40.5950   33.3390   39.4310 C   0  0  0  0  0  0  0  0  0  0  0  0
   40.1150   33.5940   40.7630 N   0  0  0  0  0  0  0  0  0  0  0  0
   38.7190   33.3530   40.9630 C   0  0  0  0  0  0  0  0  0  0  0  0
   37.9710   32.9370   39.7250 C   0  0  0  0  0  0  0  0  0  0  0  0
   40.3170   32.0690   37.7590 H   0  0  0  0  0  0  0  0  0  0  0  0
   40.6960   31.1490   39.2320 H   0  0  0  0  0  0  0  0  0  0  0  0
   40.2420   34.1490   38.7520 H   0  0  0  0  0  0  0  0  0  0  0  0
   41.6830   33.3840   39.4270 H   0  0  0  0  0  0  0  0  0  0  0  0
   40.4400   34.5460   41.0390 H   0  0  0  0  0  0  0  0  0  0  0  0
   38.6340   32.4960   41.6750 H   0  0  0  0  0  0  0  0  0  0  0  0
   38.1940   34.1910   41.4390 H   0  0  0  0  0  0  0  0  0  0  0  0
   37.8720   33.8380   39.0880 H   0  0  0  0  0  0  0  0  0  0  0  0
   36.9640   32.6190   40.0270 H   0  0  0  0  0  0  0  0  0  0  0  0
   38.1830   29.4760   40.3980 O   0  0  0  0  0  0  0  0  0  0  0  0
   37.8270   29.5930   43.0180 O   0  0  0  0  0  0  0  0  0  0  0  0
   37.0710   29.4280   41.7060 P   0  0  1  0  0  0  0  0  0  0  0  0
   35.9640   30.6560   41.4870 O   0  0  0  0  0  0  0  0  0  0  0  0
   36.3030   31.4890   41.8690 H   0  0  0  0  0  0  0  0  0  0  0  0
   36.3450   27.8990   41.6810 O   0  0  0  0  0  0  0  0  0  0  0  0
   36.9340   27.0350   42.5900 C   0  0  0  0  0  2  0  0  0  0  0  0
   37.2770   25.6810   41.9710 C   0  0  0  0  0  2  0  0  0  0  0  0
   38.3280   25.3820   42.1840 H   0  0  0  0  0  0  0  0  0  0  0  0
  1  2  1  0  0  0  0
  2  9  1  0  0  0  0
  2  3  2  0  0  0  0
  3 24  1  0  0  0  0
  4  3  1  0  0  0  0
  5  4  2  0  0  0  0
  6  1  2  0  0  0  0
  6  5  1  0  0  0  0
  7  1  1  0  0  0  0
  8  5  1  0  0  0  0
  9 14  1  0  0  0  0
 10  9  1  0  0  0  0
 10 16  1  0  0  0  0
 10 11  1  0  0  0  0
 11 12  1  0  0  0  0
 12 13  1  0  0  0  0
 12 19  1  0  0  0  0
 13 21  1  0  0  0  0
 13 20  1  0  0  0  0
 14 23  1  0  0  0  0
 14 13  1  0  0  0  0
 15 10  1  0  0  0  0
 17 11  1  0  0  0  0
 18 11  1  0  0  0  0
 22 14  1  0  0  0  0
 24 26  1  0  0  0  0
 26 25  2  1  0  0  0
 27 26  1  0  0  0  0
 27 28  1  0  0  0  0
 29 26  1  0  0  0  0
 29 30  1  0  0  0  0
 31 32  1  0  0  0  0
 31 30  1  0  0  0  0
M  END
>  <minimizedAffinity>
-4.48307228

$$$$

 OpenBabel03242520273D

 32 33  0  0  0  0  0  0  0  0999 V2000
   37.9060   26.7650   41.2450 C   0  0  0  0  0  0  0  0  0  0  0  0
   38.2030   28.0090   40.6260 C   0  0  0  0  0  0  0  0  0  0  0  0
   37.9420   29.1630   41.3380 C   0  0  0  0  0  0  0  0  0  0  0  0
   37.4170   29.0600   42.5880 N   0  0  0  0  0  0  0  0  0  0  0  0
   37.1450   27.8730   43.1530 C   0  0  0  0  0  0  0  0  0  0  0  0
   37.3860   26.7450   42.4910 N   0  0  0  0  0  0  0  0  0  0  0  0
   38.0860   25.8380   40.7440 H   0  0  0  0  0  0  0  0  0  0  0  0
   36.7370   28.0320   44.1430 H   0  0  0  0  0  0  0  0  0  0  0  0
   38.7460   27.9360   39.3180 N   0  0  0  0  0  0  0  0  0  0  0  0
   40.1710   27.9800   39.0440 C   0  0  0  0  0  0  0  0  0  0  0  0
   40.4200   27.7530   37.5870 C   0  0  0  0  0  0  0  0  0  0  0  0
   39.6410   28.6050   36.7280 N   0  0  0  0  0  0  0  0  0  0  0  0
   38.2500   28.6870   37.0520 C   0  0  0  0  0  0  0  0  0  0  0  0
   37.8210   27.8110   38.1980 C   0  0  0  0  0  0  0  0  0  0  0  0
   40.5900   27.0900   39.5920 H   0  0  0  0  0  0  0  0  0  0  0  0
   40.6750   28.8610   39.4710 H   0  0  0  0  0  0  0  0  0  0  0  0
   40.1880   26.6870   37.3560 H   0  0  0  0  0  0  0  0  0  0  0  0
   41.4770   27.8930   37.3680 H   0  0  0  0  0  0  0  0  0  0  0  0
   39.8480   28.3330   35.7430 H   0  0  0  0  0  0  0  0  0  0  0  0
   38.0510   29.7360   37.3780 H   0  0  0  0  0  0  0  0  0  0  0  0
   37.5900   28.5080   36.1940 H   0  0  0  0  0  0  0  0  0  0  0  0
   37.8220   26.7660   37.8280 H   0  0  0  0  0  0  0  0  0  0  0  0
   36.7900   28.0790   38.4640 H   0  0  0  0  0  0  0  0  0  0  0  0
   38.2430   30.3690   40.7050 O   0  0  0  0  0  0  0  0  0  0  0  0
   36.5630   31.1530   38.8160 O   0  0  0  0  0  0  0  0  0  0  0  0
   36.9510   31.4130   40.2660 P   0  0  1  0  0  0  0  0  0  0  0  0
   35.6740   31.1150   41.2970 O   0  0  0  0  0  0  0  0  0  0  0  0
   35.1300   30.3780   40.9580 H   0  0  0  0  0  0  0  0  0  0  0  0
   37.5290   32.9990   40.4020 O   0  0  0  0  0  0  0  0  0  0  0  0
   38.8360   33.0320   40.8590 C   0  0  0  0  0  2  0  0  0  0  0  0
   39.7280   33.9400   40.0140 C   0  0  0  0  0  2  0  0  0  0  0  0
   40.3090   34.6520   40.6420 H   0  0  0  0  0  0  0  0  0  0  0  0
  1  6  1  0  0  0  0
  2  1  2  0  0  0  0
  2  3  1  0  0  0  0
  3  4  2  0  0  0  0
  4  5  1  0  0  0  0
  5  8  1  0  0  0  0
  6  5  2  0  0  0  0
  7  1  1  0  0  0  0
  9  2  1  0  0  0  0
 10  9  1  0  0  0  0
 10 16  1  0  0  0  0
 10 15  1  0  0  0  0
 11 10  1  0  0  0  0
 12 13  1  0  0  0  0
 12 11  1  0  0  0  0
 13 20  1  0  0  0  0
 13 14  1  0  0  0  0
 14 23  1  0  0  0  0
 14  9  1  0  0  0  0
 17 11  1  0  0  0  0
 18 11  1  0  0  0  0
 19 12  1  0  0  0  0
 21 13  1  0  0  0  0
 22 14  1  0  0  0  0
 24  3  1  0  0  0  0
 26 25  2  6  0  0  0
 26 29  1  0  0  0  0
 26 24  1  0  0  0  0
 26 27  1  0  0  0  0
 28 27  1  0  0  0  0
 29 30  1  0  0  0  0
 31 32  1  0  0  0  0
 31 30  1  0  0  0  0
M  END
>  <minimizedAffinity>
-4.44999266

$$$$

 OpenBabel03242520273D

 32 33  0  0  0  0  0  0  0  0999 V2000
   37.4640   28.9110   37.6070 C   0  0  0  0  0  0  0  0  0  0  0  0
   37.2330   29.3400   38.9420 C   0  0  0  0  0  0  0  0  0  0  0  0
   36.5750   28.4750   39.7930 C   0  0  0  0  0  0  0  0  0  0  0  0
   36.1790   27.2620   39.3210 N   0  0  0  0  0  0  0  0  0  0  0  0
   36.4080   26.8780   38.0560 C   0  0  0  0  0  0  0  0  0  0  0  0
   37.0400   27.6910   37.2130 N   0  0  0  0  0  0  0  0  0  0  0  0
   37.9680   29.5360   36.9020 H   0  0  0  0  0  0  0  0  0  0  0  0
   36.0090   25.8840   37.9050 H   0  0  0  0  0  0  0  0  0  0  0  0
   37.7110   30.6340   39.2680 N   0  0  0  0  0  0  0  0  0  0  0  0
   36.8590   31.8080   39.3210 C   0  0  0  0  0  0  0  0  0  0  0  0
   37.6370   32.9850   39.8160 C   0  0  0  0  0  0  0  0  0  0  0  0
   38.8710   33.2010   39.1070 N   0  0  0  0  0  0  0  0  0  0  0  0
   39.6770   32.0340   38.9220 C   0  0  0  0  0  0  0  0  0  0  0  0
   39.1310   30.7860   39.5620 C   0  0  0  0  0  0  0  0  0  0  0  0
   36.0950   31.5640   40.1110 H   0  0  0  0  0  0  0  0  0  0  0  0
   36.2890   31.9810   38.3950 H   0  0  0  0  0  0  0  0  0  0  0  0
   37.8580   32.8270   40.8970 H   0  0  0  0  0  0  0  0  0  0  0  0
   37.0260   33.8840   39.7520 H   0  0  0  0  0  0  0  0  0  0  0  0
   39.3580   34.0040   39.5590 H   0  0  0  0  0  0  0  0  0  0  0  0
   39.7070   31.8270   37.8240 H   0  0  0  0  0  0  0  0  0  0  0  0
   40.7220   32.1700   39.2300 H   0  0  0  0  0  0  0  0  0  0  0  0
   39.2770   30.8910   40.6550 H   0  0  0  0  0  0  0  0  0  0  0  0
   39.7330   29.9350   39.2160 H   0  0  0  0  0  0  0  0  0  0  0  0
   36.3610   28.9220   41.0970 O   0  0  0  0  0  0  0  0  0  0  0  0
   38.7710   28.1660   41.8850 O   0  0  0  0  0  0  0  0  0  0  0  0
   37.3280   28.2730   42.3600 P   0  0  1  0  0  0  0  0  0  0  0  0
   37.1990   29.2850   43.6800 O   0  0  0  0  0  0  0  0  0  0  0  0
   37.8520   30.0090   43.6170 H   0  0  0  0  0  0  0  0  0  0  0  0
   36.7410   26.7190   42.6830 O   0  0  0  0  0  0  0  0  0  0  0  0
   37.6260   25.7380   42.2690 C   0  0  0  0  0  2  0  0  0  0  0  0
   36.9150   24.4780   41.7780 C   0  0  0  0  0  2  0  0  0  0  0  0
   37.2930   24.1480   40.7840 H   0  0  0  0  0  0  0  0  0  0  0  0
  1  2  1  0  0  0  0
  2  9  1  0  0  0  0
  2  3  2  0  0  0  0
  3 24  1  0  0  0  0
  4  3  1  0  0  0  0
  5  4  2  0  0  0  0
  6  1  2  0  0  0  0
  6  5  1  0  0  0  0
  7  1  1  0  0  0  0
  8  5  1  0  0  0  0
  9 10  1  0  0  0  0
  9 14  1  0  0  0  0
 10 11  1  0  0  0  0
 10 15  1  0  0  0  0
 11 17  1  0  0  0  0
 12 19  1  0  0  0  0
 12 11  1  0  0  0  0
 13 12  1  0  0  0  0
 13 21  1  0  0  0  0
 13 14  1  0  0  0  0
 14 22  1  0  0  0  0
 16 10  1  0  0  0  0
 18 11  1  0  0  0  0
 20 13  1  0  0  0  0
 23 14  1  0  0  0  0
 24 26  1  0  0  0  0
 26 25  2  6  0  0  0
 26 29  1  0  0  0  0
 26 27  1  0  0  0  0
 28 27  1  0  0  0  0
 30 29  1  0  0  0  0
 31 30  1  0  0  0  0
 32 31  1  0  0  0  0
M  END
>  <minimizedAffinity>
-4.35091925

$$$$

 OpenBabel03242520273D

 32 33  0  0  0  0  0  0  0  0999 V2000
   37.3430   28.3160   39.1550 C   0  0  0  0  0  0  0  0  0  0  0  0
   37.5550   29.3710   40.0830 C   0  0  0  0  0  0  0  0  0  0  0  0
   37.1520   30.6410   39.7200 C   0  0  0  0  0  0  0  0  0  0  0  0
   36.5760   30.8240   38.5020 N   0  0  0  0  0  0  0  0  0  0  0  0
   36.3850   29.8120   37.6410 C   0  0  0  0  0  0  0  0  0  0  0  0
   36.7630   28.5780   37.9640 N   0  0  0  0  0  0  0  0  0  0  0  0
   37.6340   27.3120   39.3790 H   0  0  0  0  0  0  0  0  0  0  0  0
   35.9130   30.1890   36.7430 H   0  0  0  0  0  0  0  0  0  0  0  0
   38.1700   29.0050   41.3070 N   0  0  0  0  0  0  0  0  0  0  0  0
   39.6090   28.9220   41.4830 C   0  0  0  0  0  0  0  0  0  0  0  0
   39.9360   28.6370   42.9140 C   0  0  0  0  0  0  0  0  0  0  0  0
   39.2240   27.5100   43.4550 N   0  0  0  0  0  0  0  0  0  0  0  0
   37.8180   27.4930   43.1880 C   0  0  0  0  0  0  0  0  0  0  0  0
   37.3080   28.6960   42.4410 C   0  0  0  0  0  0  0  0  0  0  0  0
   39.9780   29.9630   41.2620 H   0  0  0  0  0  0  0  0  0  0  0  0
   40.1050   28.2660   40.7510 H   0  0  0  0  0  0  0  0  0  0  0  0
   39.6950   29.5460   43.5140 H   0  0  0  0  0  0  0  0  0  0  0  0
   41.0060   28.4700   43.0200 H   0  0  0  0  0  0  0  0  0  0  0  0
   39.4800   27.4290   44.4630 H   0  0  0  0  0  0  0  0  0  0  0  0
   37.6220   26.6150   42.5240 H   0  0  0  0  0  0  0  0  0  0  0  0
   37.2040   27.3350   44.0830 H   0  0  0  0  0  0  0  0  0  0  0  0
   37.3090   29.5450   43.1540 H   0  0  0  0  0  0  0  0  0  0  0  0
   36.2680   28.4980   42.1470 H   0  0  0  0  0  0  0  0  0  0  0  0
   37.3740   31.6560   40.6500 O   0  0  0  0  0  0  0  0  0  0  0  0
   37.1670   33.9960   39.4300 O   0  0  0  0  0  0  0  0  0  0  0  0
   38.1690   33.0880   40.1320 P   0  0  1  0  0  0  0  0  0  0  0  0
   38.8210   33.8310   41.4760 O   0  0  0  0  0  0  0  0  0  0  0  0
   38.1570   34.4100   41.8980 H   0  0  0  0  0  0  0  0  0  0  0  0
   39.3560   32.6200   39.0190 O   0  0  0  0  0  0  0  0  0  0  0  0
   40.5120   33.3690   39.1560 C   0  0  0  0  0  2  0  0  0  0  0  0
   41.4140   33.2830   37.9250 C   0  0  0  0  0  2  0  0  0  0  0  0
   41.7290   34.2900   37.5700 H   0  0  0  0  0  0  0  0  0  0  0  0
  1  7  1  0  0  0  0
  1  2  1  0  0  0  0
  2  9  1  0  0  0  0
  3  2  2  0  0  0  0
  3 24  1  0  0  0  0
  4  3  1  0  0  0  0
  5  6  1  0  0  0  0
  5  4  2  0  0  0  0
  6  1  2  0  0  0  0
  8  5  1  0  0  0  0
  9 10  1  0  0  0  0
  9 14  1  0  0  0  0
 10 11  1  0  0  0  0
 11 18  1  0  0  0  0
 11 12  1  0  0  0  0
 11 17  1  0  0  0  0
 12 19  1  0  0  0  0
 13 12  1  0  0  0  0
 13 21  1  0  0  0  0
 14 22  1  0  0  0  0
 14 13  1  0  0  0  0
 15 10  1  0  0  0  0
 16 10  1  0  0  0  0
 20 13  1  0  0  0  0
 23 14  1  0  0  0  0
 26 25  2  6  0  0  0
 26 24  1  0  0  0  0
 26 27  1  0  0  0  0
 27 28  1  0  0  0  0
 29 30  1  0  0  0  0
 29 26  1  0  0  0  0
 31 30  1  0  0  0  0
 32 31  1  0  0  0  0
M  END
>  <minimizedAffinity>
-4.31790972

$$$$

 OpenBabel03242520273D

 32 33  0  0  0  0  0  0  0  0999 V2000
   36.9190   30.6440   38.0630 C   0  0  0  0  0  0  0  0  0  0  0  0
   36.4910   29.6200   38.9520 C   0  0  0  0  0  0  0  0  0  0  0  0
   36.4230   29.9200   40.2980 C   0  0  0  0  0  0  0  0  0  0  0  0
   36.7650   31.1700   40.7100 N   0  0  0  0  0  0  0  0  0  0  0  0
   37.1650   32.1220   39.8530 C   0  0  0  0  0  0  0  0  0  0  0  0
   37.2410   31.8610   38.5500 N   0  0  0  0  0  0  0  0  0  0  0  0
   36.9920   30.4710   37.0110 H   0  0  0  0  0  0  0  0  0  0  0  0
   37.3830   33.0290   40.4000 H   0  0  0  0  0  0  0  0  0  0  0  0
   36.1740   28.3740   38.3540 N   0  0  0  0  0  0  0  0  0  0  0  0
   34.8690   28.0670   37.7970 C   0  0  0  0  0  0  0  0  0  0  0  0
   34.8960   26.7280   37.1320 C   0  0  0  0  0  0  0  0  0  0  0  0
   35.4280   25.6820   37.9640 N   0  0  0  0  0  0  0  0  0  0  0  0
   36.6520   25.9990   38.6330 C   0  0  0  0  0  0  0  0  0  0  0  0
   37.2140   27.3550   38.3000 C   0  0  0  0  0  0  0  0  0  0  0  0
   34.7230   28.8340   36.9850 H   0  0  0  0  0  0  0  0  0  0  0  0
   34.0400   28.2190   38.5060 H   0  0  0  0  0  0  0  0  0  0  0  0
   35.5130   26.8120   36.2070 H   0  0  0  0  0  0  0  0  0  0  0  0
   33.8920   26.4560   36.8110 H   0  0  0  0  0  0  0  0  0  0  0  0
   35.4530   24.8080   37.3940 H   0  0  0  0  0  0  0  0  0  0  0  0
   36.4300   26.0210   39.7280 H   0  0  0  0  0  0  0  0  0  0  0  0
   37.4330   25.2410   38.5010 H   0  0  0  0  0  0  0  0  0  0  0  0
   37.6240   27.2930   37.2720 H   0  0  0  0  0  0  0  0  0  0  0  0
   38.0460   27.5560   38.9880 H   0  0  0  0  0  0  0  0  0  0  0  0
   36.0010   28.8970   41.1460 O   0  0  0  0  0  0  0  0  0  0  0  0
   38.5090   28.3240   41.7650 O   0  0  0  0  0  0  0  0  0  0  0  0
   37.0950   28.3050   42.3300 P   0  0  1  0  0  0  0  0  0  0  0  0
   36.9690   29.2770   43.6800 O   0  0  0  0  0  0  0  0  0  0  0  0
   37.5570   30.0530   43.5940 H   0  0  0  0  0  0  0  0  0  0  0  0
   36.6560   26.7020   42.6520 O   0  0  0  0  0  0  0  0  0  0  0  0
   37.5510   25.8020   42.0980 C   0  0  0  0  0  2  0  0  0  0  0  0
   36.9700   24.3940   41.9840 C   0  0  0  0  0  2  0  0  0  0  0  0
   37.1070   23.9690   40.9640 H   0  0  0  0  0  0  0  0  0  0  0  0
  1  6  2  0  0  0  0
  1  2  1  0  0  0  0
  2  3  2  0  0  0  0
  3  4  1  0  0  0  0
  3 24  1  0  0  0  0
  5  8  1  0  0  0  0
  5  4  2  0  0  0  0
  6  5  1  0  0  0  0
  7  1  1  0  0  0  0
  9  2  1  0  0  0  0
 10  9  1  0  0  0  0
 10 16  1  0  0  0  0
 11 10  1  0  0  0  0
 11 12  1  0  0  0  0
 12 13  1  0  0  0  0
 13 20  1  0  0  0  0
 14  9  1  0  0  0  0
 14 13  1  0  0  0  0
 14 23  1  0  0  0  0
 15 10  1  0  0  0  0
 17 11  1  0  0  0  0
 18 11  1  0  0  0  0
 19 12  1  0  0  0  0
 21 13  1  0  0  0  0
 22 14  1  0  0  0  0
 24 26  1  0  0  0  0
 26 25  2  6  0  0  0
 26 29  1  0  0  0  0
 26 27  1  0  0  0  0
 28 27  1  0  0  0  0
 30 29  1  0  0  0  0
 31 30  1  0  0  0  0
 32 31  1  0  0  0  0
M  END
>  <minimizedAffinity>
-4.24895954

$$$$
