
 OpenBabel03252503013D

 24 24  0  0  0  0  0  0  0  0999 V2000
   43.3480   35.4490   41.5850 C   0  0  0  0  0  0  0  0  0  0  0  0
   42.7570   36.1980   41.0480 H   0  0  0  0  0  0  0  0  0  0  0  0
   44.4180   35.5210   41.2610 H   0  0  0  0  0  0  0  0  0  0  0  0
   43.2650   35.6300   43.0380 N   0  0  0  0  0  0  0  0  0  0  0  0
   42.7460   34.8710   43.4880 H   0  0  0  0  0  0  0  0  0  0  0  0
   44.8270   35.8750   43.7410 S   0  0  0  0  0  0  0  0  0  0  0  0
   45.9110   35.6360   42.7650 O   0  0  0  0  0  0  0  0  0  0  0  0
   46.2450   36.3210   42.1360 H   0  0  0  0  0  0  0  0  0  0  0  0
   44.8430   37.3090   44.2160 O   0  0  0  0  0  0  0  0  0  0  0  0
   44.8370   37.5920   45.1600 H   0  0  0  0  0  0  0  0  0  0  0  0
   44.9670   34.9180   45.1030 O   0  0  0  0  0  0  0  0  0  0  0  0
   45.5190   33.6840   44.8500 C   0  0  0  0  0  0  0  0  0  0  0  0
   46.2970   33.2830   46.1110 C   0  0  0  0  0  0  0  0  0  0  0  0
   47.1520   32.6190   45.8620 H   0  0  0  0  0  0  0  0  0  0  0  0
   42.7670   33.7940   41.2220 S   0  0  0  0  0  0  0  0  0  0  0  0
   40.0900   33.0850   41.2880 C   0  0  0  0  0  0  0  0  0  0  0  0
   41.0490   33.8610   40.6690 C   0  0  0  0  0  0  0  0  0  0  0  0
   40.7060   34.7000   39.6150 C   0  0  0  0  0  0  0  0  0  0  0  0
   39.4000   34.7110   39.2400 N   0  0  0  0  0  0  0  0  0  0  0  0
   38.4990   33.9560   39.8520 C   0  0  0  0  0  0  0  0  0  0  0  0
   38.7870   33.1350   40.8680 N   0  0  0  0  0  0  0  0  0  0  0  0
   40.3950   32.4400   42.1090 H   0  0  0  0  0  0  0  0  0  0  0  0
   41.4960   35.2860   39.1660 H   0  0  0  0  0  0  0  0  0  0  0  0
   37.4520   33.9390   39.5800 H   0  0  0  0  0  0  0  0  0  0  0  0
  1  4  1  0  0  0  0
  2  1  1  0  0  0  0
  3  1  1  0  0  0  0
  4  5  1  0  0  0  0
  4  6  1  0  0  0  0
  6  9  1  0  0  0  0
  6 11  1  0  0  0  0
  7  6  1  0  0  0  0
  8  7  1  0  0  0  0
  9 10  1  0  0  0  0
 12 11  1  0  0  0  0
 12 13  1  0  0  0  0
 14 13  1  0  0  0  0
 15  1  1  0  0  0  0
 16 22  1  0  0  0  0
 17 15  1  0  0  0  0
 17 16  2  0  0  0  0
 18 17  1  0  0  0  0
 19 18  2  0  0  0  0
 19 20  1  0  0  0  0
 20 21  2  0  0  0  0
 21 16  1  0  0  0  0
 23 18  1  0  0  0  0
 24 20  1  0  0  0  0
M  END
>  <minimizedAffinity>
-4.53079796

>  <minimizedRMSD>
1.86197448

$$$$
