
 OpenBabel03252508443D

 33 34  0  0  0  0  0  0  0  0999 V2000
   43.6560   34.9580   41.8810 C   0  0  0  0  0  0  0  0  0  0  0  0
   43.9090   33.6270   42.1870 C   0  0  0  0  0  0  0  0  0  0  0  0
   44.9730   33.3370   43.0080 C   0  0  0  0  0  0  0  0  0  0  0  0
   45.7550   34.3420   43.5060 C   0  0  0  0  0  0  0  0  0  0  0  0
   45.5270   35.6630   43.2210 C   0  0  0  0  0  0  0  0  0  0  0  0
   44.4490   35.9130   42.3910 C   0  0  0  0  0  0  0  0  0  0  0  0
   45.1750   32.3020   43.2500 H   0  0  0  0  0  0  0  0  0  0  0  0
   46.6020   34.1280   44.1590 H   0  0  0  0  0  0  0  0  0  0  0  0
   46.0970   36.5250   43.5720 H   0  0  0  0  0  0  0  0  0  0  0  0
   44.1650   36.9250   42.0910 H   0  0  0  0  0  0  0  0  0  0  0  0
   40.2280   35.8020   40.5200 C   0  0  0  0  0  0  0  0  0  0  0  0
   41.2580   35.5840   41.4570 C   0  0  0  0  0  0  0  0  0  0  0  0
   42.5150   35.2110   41.0050 C   0  0  0  0  0  0  0  0  0  0  0  0
   42.6830   35.0740   39.6620 N   0  0  0  0  0  0  0  0  0  0  0  0
   41.6850   35.2870   38.7710 C   0  0  0  0  0  0  0  0  0  0  0  0
   40.4650   35.6500   39.2140 N   0  0  0  0  0  0  0  0  0  0  0  0
   39.2890   36.0900   40.9910 H   0  0  0  0  0  0  0  0  0  0  0  0
   41.1420   35.6870   42.5190 H   0  0  0  0  0  0  0  0  0  0  0  0
   41.8360   35.1750   37.7040 H   0  0  0  0  0  0  0  0  0  0  0  0
   43.0450   32.5470   41.6350 C   0  0  0  0  0  0  0  0  0  0  0  0
   42.0820   33.0040   41.3160 H   0  0  0  0  0  0  0  0  0  0  0  0
   43.5550   32.1460   40.7310 H   0  0  0  0  0  0  0  0  0  0  0  0
   42.7100   31.5140   42.5710 N   0  0  0  0  0  0  0  0  0  0  0  0
   42.9040   31.9000   43.5340 H   0  0  0  0  0  0  0  0  0  0  0  0
   41.0360   31.1420   42.5590 S   0  0  0  0  0  0  0  0  0  0  0  0
   40.2000   32.3920   42.4530 O   0  0  0  0  0  0  0  0  0  0  0  0
   40.2260   32.9630   41.6480 H   0  0  0  0  0  0  0  0  0  0  0  0
   40.6450   30.3630   43.7670 O   0  0  0  0  0  0  0  0  0  0  0  0
   39.7200   30.2980   44.0530 H   0  0  0  0  0  0  0  0  0  0  0  0
   40.7480   30.1950   41.1980 O   0  0  0  0  0  0  0  0  0  0  0  0
   40.0830   29.0500   41.6030 C   0  0  0  0  0  0  0  0  0  0  0  0
   40.9250   27.8250   41.2220 C   0  0  0  0  0  0  0  0  0  0  0  0
   40.6550   27.5070   40.1920 H   0  0  0  0  0  0  0  0  0  0  0  0
  1  2  2  0  0  0  0
  1  6  1  0  0  0  0
  2  3  1  0  0  0  0
  3  7  1  0  0  0  0
  3  4  2  0  0  0  0
  4  8  1  0  0  0  0
  5  4  1  0  0  0  0
  5  9  1  0  0  0  0
  6  5  2  0  0  0  0
 10  6  1  0  0  0  0
 11 17  1  0  0  0  0
 11 12  1  0  0  0  0
 12 18  1  0  0  0  0
 13 12  2  0  0  0  0
 13  1  1  0  0  0  0
 14 13  1  0  0  0  0
 15 16  1  0  0  0  0
 15 14  2  0  0  0  0
 16 11  2  0  0  0  0
 19 15  1  0  0  0  0
 20  2  1  0  0  0  0
 20 23  1  0  0  0  0
 21 20  1  0  0  0  0
 22 20  1  0  0  0  0
 23 24  1  0  0  0  0
 25 23  1  0  0  0  0
 25 28  1  0  0  0  0
 26 25  1  0  0  0  0
 27 26  1  0  0  0  0
 28 29  1  0  0  0  0
 30 31  1  0  0  0  0
 30 25  1  0  0  0  0
 32 31  1  0  0  0  0
 33 32  1  0  0  0  0
M  END
>  <minimizedAffinity>
-4.81249619

>  <minimizedRMSD>
5.95807219

$$$$
