
 OpenBabel03242519403D

 21 21  0  0  0  0  0  0  0  0999 V2000
   37.8750   29.6400   39.8330 O   0  0  0  0  0  0  0  0  0  0  0  0
   36.7980   30.2690   40.7080 P   0  0  2  0  0  0  0  0  0  0  0  0
   37.0810   29.8060   42.3500 O   0  0  0  0  0  0  0  0  0  0  0  0
   37.7310   26.2130   42.6240 C   0  0  0  0  0  0  0  0  0  0  0  0
   37.0410   27.4240   42.3710 C   0  0  0  0  0  0  0  0  0  0  0  0
   37.7530   28.6120   42.5960 C   0  0  0  0  0  0  0  0  0  0  0  0
   39.0330   28.5480   43.0350 N   0  0  0  0  0  0  0  0  0  0  0  0
   39.6450   27.3590   43.2610 C   0  0  0  0  0  0  0  0  0  0  0  0
   39.0150   26.2040   43.0640 N   0  0  0  0  0  0  0  0  0  0  0  0
   37.2490   25.2490   42.4740 H   0  0  0  0  0  0  0  0  0  0  0  0
   36.0230   27.3670   42.0250 H   0  0  0  0  0  0  0  0  0  0  0  0
   40.6780   27.3700   43.6140 H   0  0  0  0  0  0  0  0  0  0  0  0
   35.2610   29.7440   40.2880 O   0  0  0  0  0  0  0  0  0  0  0  0
   35.3700   28.6910   39.3510 C   0  0  0  0  0  2  0  0  0  0  0  0
   34.3320   28.8640   38.2440 C   0  0  0  0  0  2  0  0  0  0  0  0
   33.8560   29.8550   38.3800 H   0  0  0  0  0  0  0  0  0  0  0  0
   36.9380   31.9420   40.6110 O   0  0  0  0  0  0  0  0  0  0  0  0
   37.3060   32.3620   39.3520 C   0  0  0  0  0  0  0  0  0  0  0  0
   38.6860   32.3670   39.1630 F   0  0  0  0  0  0  0  0  0  0  0  0
   36.6440   31.6180   38.3970 F   0  0  0  0  0  0  0  0  0  0  0  0
   36.8820   33.6750   39.2190 F   0  0  0  0  0  0  0  0  0  0  0  0
  2  1  2  6  0  0  0
  2  3  1  0  0  0  0
  3  6  1  0  0  0  0
  4  9  1  0  0  0  0
  5  6  1  0  0  0  0
  5  4  2  0  0  0  0
  6  7  2  0  0  0  0
  7  8  1  0  0  0  0
  8 12  1  0  0  0  0
  9  8  2  0  0  0  0
 10  4  1  0  0  0  0
 11  5  1  0  0  0  0
 13  2  1  0  0  0  0
 14 13  1  0  0  0  0
 15 16  1  0  0  0  0
 15 14  1  0  0  0  0
 17  2  1  0  0  0  0
 18 17  1  0  0  0  0
 19 18  1  0  0  0  0
 20 18  1  0  0  0  0
 21 18  1  0  0  0  0
M  END
>  <minimizedAffinity>
-4.10663748

$$$$

 OpenBabel03242519403D

 21 21  0  0  0  0  0  0  0  0999 V2000
   39.3750   27.5610   40.9890 O   0  0  0  0  0  0  0  0  0  0  0  0
   39.2430   27.3970   42.4990 P   0  0  2  0  0  0  0  0  0  0  0  0
   38.3620   28.7460   43.1260 O   0  0  0  0  0  0  0  0  0  0  0  0
   38.8090   31.7870   41.1340 C   0  0  0  0  0  0  0  0  0  0  0  0
   39.1110   30.7110   42.0060 C   0  0  0  0  0  0  0  0  0  0  0  0
   38.0720   29.8050   42.2700 C   0  0  0  0  0  0  0  0  0  0  0  0
   36.8600   29.9960   41.6950 N   0  0  0  0  0  0  0  0  0  0  0  0
   36.6270   31.0450   40.8680 C   0  0  0  0  0  0  0  0  0  0  0  0
   37.5770   31.9330   40.5840 N   0  0  0  0  0  0  0  0  0  0  0  0
   39.5600   32.5320   40.8800 H   0  0  0  0  0  0  0  0  0  0  0  0
   40.1070   30.6490   42.4120 H   0  0  0  0  0  0  0  0  0  0  0  0
   35.6300   31.1470   40.4340 H   0  0  0  0  0  0  0  0  0  0  0  0
   40.7370   27.3650   43.2600 O   0  0  0  0  0  0  0  0  0  0  0  0
   41.0170   26.0440   43.6790 C   0  0  0  0  0  2  0  0  0  0  0  0
   41.8280   25.3150   42.6090 C   0  0  0  0  0  2  0  0  0  0  0  0
   42.1160   26.0580   41.8400 H   0  0  0  0  0  0  0  0  0  0  0  0
   38.3500   26.0070   42.8100 O   0  0  0  0  0  0  0  0  0  0  0  0
   37.0090   26.1780   42.5450 C   0  0  0  0  0  0  0  0  0  0  0  0
   36.3470   26.8990   43.5370 F   0  0  0  0  0  0  0  0  0  0  0  0
   36.8460   26.7320   41.2910 F   0  0  0  0  0  0  0  0  0  0  0  0
   36.4330   24.9180   42.5180 F   0  0  0  0  0  0  0  0  0  0  0  0
  2  1  2  6  0  0  0
  2 17  1  0  0  0  0
  2  3  1  0  0  0  0
  2 13  1  0  0  0  0
  4  5  1  0  0  0  0
  5  6  2  0  0  0  0
  5 11  1  0  0  0  0
  6  3  1  0  0  0  0
  7  6  1  0  0  0  0
  8  7  2  0  0  0  0
  9  8  1  0  0  0  0
  9  4  2  0  0  0  0
 10  4  1  0  0  0  0
 12  8  1  0  0  0  0
 13 14  1  0  0  0  0
 15 14  1  0  0  0  0
 16 15  1  0  0  0  0
 18 17  1  0  0  0  0
 18 19  1  0  0  0  0
 20 18  1  0  0  0  0
 21 18  1  0  0  0  0
M  END
>  <minimizedAffinity>
-4.10058355

$$$$

 OpenBabel03242519403D

 21 21  0  0  0  0  0  0  0  0999 V2000
   36.9490   33.2340   39.1960 O   0  0  0  0  0  0  0  0  0  0  0  0
   37.7080   32.2100   40.0320 P   0  0  2  0  0  0  0  0  0  0  0  0
   36.5730   31.3450   41.0090 O   0  0  0  0  0  0  0  0  0  0  0  0
   36.5770   27.7280   41.5830 C   0  0  0  0  0  0  0  0  0  0  0  0
   36.1960   28.9940   41.0710 C   0  0  0  0  0  0  0  0  0  0  0  0
   36.9420   30.0990   41.5090 C   0  0  0  0  0  0  0  0  0  0  0  0
   37.9620   29.9110   42.3800 N   0  0  0  0  0  0  0  0  0  0  0  0
   38.2820   28.6760   42.8390 C   0  0  0  0  0  0  0  0  0  0  0  0
   37.6080   27.5940   42.4550 N   0  0  0  0  0  0  0  0  0  0  0  0
   36.0490   26.8230   41.2920 H   0  0  0  0  0  0  0  0  0  0  0  0
   35.3690   29.0360   40.3830 H   0  0  0  0  0  0  0  0  0  0  0  0
   39.1150   28.5860   43.5390 H   0  0  0  0  0  0  0  0  0  0  0  0
   38.8180   32.9340   41.0590 O   0  0  0  0  0  0  0  0  0  0  0  0
   40.1050   32.8630   40.4770 C   0  0  0  0  0  2  0  0  0  0  0  0
   40.3840   34.1230   39.6620 C   0  0  0  0  0  2  0  0  0  0  0  0
   39.5600   34.8390   39.8560 H   0  0  0  0  0  0  0  0  0  0  0  0
   38.4400   31.1080   38.9930 O   0  0  0  0  0  0  0  0  0  0  0  0
   37.6650   30.8410   37.8860 C   0  0  0  0  0  0  0  0  0  0  0  0
   36.3170   30.6710   38.1950 F   0  0  0  0  0  0  0  0  0  0  0  0
   37.8690   31.8110   36.9260 F   0  0  0  0  0  0  0  0  0  0  0  0
   38.1060   29.6380   37.3580 F   0  0  0  0  0  0  0  0  0  0  0  0
  2  1  2  6  0  0  0
  2  3  1  0  0  0  0
  2 13  1  0  0  0  0
  3  6  1  0  0  0  0
  4  9  1  0  0  0  0
  5  6  1  0  0  0  0
  5  4  2  0  0  0  0
  6  7  2  0  0  0  0
  7  8  1  0  0  0  0
  8 12  1  0  0  0  0
  9  8  2  0  0  0  0
 10  4  1  0  0  0  0
 11  5  1  0  0  0  0
 14 13  1  0  0  0  0
 15 16  1  0  0  0  0
 15 14  1  0  0  0  0
 17  2  1  0  0  0  0
 18 19  1  0  0  0  0
 18 17  1  0  0  0  0
 20 18  1  0  0  0  0
 21 18  1  0  0  0  0
M  END
>  <minimizedAffinity>
-3.98388982

$$$$

 OpenBabel03242519403D

 21 21  0  0  0  0  0  0  0  0999 V2000
   39.3540   27.1090   40.4100 O   0  0  0  0  0  0  0  0  0  0  0  0
   38.4970   26.3520   41.4170 P   0  0  2  0  0  0  0  0  0  0  0  0
   37.5680   27.4960   42.3220 O   0  0  0  0  0  0  0  0  0  0  0  0
   35.4900   29.7410   40.3090 C   0  0  0  0  0  0  0  0  0  0  0  0
   35.9300   28.5610   40.9600 C   0  0  0  0  0  0  0  0  0  0  0  0
   37.1300   28.6510   41.6810 C   0  0  0  0  0  0  0  0  0  0  0  0
   37.7970   29.8300   41.7190 N   0  0  0  0  0  0  0  0  0  0  0  0
   37.3300   30.9290   41.0770 C   0  0  0  0  0  0  0  0  0  0  0  0
   36.1970   30.8980   40.3790 N   0  0  0  0  0  0  0  0  0  0  0  0
   34.5690   29.7530   39.7310 H   0  0  0  0  0  0  0  0  0  0  0  0
   35.3260   27.6730   40.8670 H   0  0  0  0  0  0  0  0  0  0  0  0
   37.9100   31.8510   41.1440 H   0  0  0  0  0  0  0  0  0  0  0  0
   39.4290   25.4780   42.5040 O   0  0  0  0  0  0  0  0  0  0  0  0
   39.6110   26.2410   43.6800 C   0  0  0  0  0  2  0  0  0  0  0  0
   40.9540   26.9670   43.6320 C   0  0  0  0  0  2  0  0  0  0  0  0
   41.3780   26.8250   42.6180 H   0  0  0  0  0  0  0  0  0  0  0  0
   37.4260   25.3670   40.5750 O   0  0  0  0  0  0  0  0  0  0  0  0
   36.9830   24.3070   41.3360 C   0  0  0  0  0  0  0  0  0  0  0  0
   37.9110   23.2710   41.4160 F   0  0  0  0  0  0  0  0  0  0  0  0
   36.5850   24.7560   42.5790 F   0  0  0  0  0  0  0  0  0  0  0  0
   35.8620   23.7900   40.7050 F   0  0  0  0  0  0  0  0  0  0  0  0
  2  1  2  6  0  0  0
  2  3  1  0  0  0  0
  2 13  1  0  0  0  0
  4  9  2  0  0  0  0
  4  5  1  0  0  0  0
  5  6  2  0  0  0  0
  6  7  1  0  0  0  0
  6  3  1  0  0  0  0
  8 12  1  0  0  0  0
  8  7  2  0  0  0  0
  9  8  1  0  0  0  0
 10  4  1  0  0  0  0
 11  5  1  0  0  0  0
 13 14  1  0  0  0  0
 15 14  1  0  0  0  0
 16 15  1  0  0  0  0
 17 18  1  0  0  0  0
 17  2  1  0  0  0  0
 18 19  1  0  0  0  0
 18 20  1  0  0  0  0
 21 18  1  0  0  0  0
M  END
>  <minimizedAffinity>
-3.94241428

$$$$

 OpenBabel03242519403D

 21 21  0  0  0  0  0  0  0  0999 V2000
   37.3700   29.7720   42.5580 O   0  0  0  0  0  0  0  0  0  0  0  0
   37.1550   29.0210   41.2490 P   0  0  2  0  0  0  0  0  0  0  0  0
   38.1590   29.7310   40.0340 O   0  0  0  0  0  0  0  0  0  0  0  0
   39.9240   32.9180   40.4040 C   0  0  0  0  0  0  0  0  0  0  0  0
   39.6990   31.5200   40.3580 C   0  0  0  0  0  0  0  0  0  0  0  0
   38.3880   31.1040   40.0800 C   0  0  0  0  0  0  0  0  0  0  0  0
   37.4230   32.0330   39.8760 N   0  0  0  0  0  0  0  0  0  0  0  0
   37.6960   33.3600   39.9330 C   0  0  0  0  0  0  0  0  0  0  0  0
   38.9220   33.8080   40.1920 N   0  0  0  0  0  0  0  0  0  0  0  0
   40.9130   33.3210   40.6130 H   0  0  0  0  0  0  0  0  0  0  0  0
   40.5350   30.8640   40.5350 H   0  0  0  0  0  0  0  0  0  0  0  0
   36.8780   34.0620   39.7600 H   0  0  0  0  0  0  0  0  0  0  0  0
   35.5660   29.1220   40.7210 O   0  0  0  0  0  0  0  0  0  0  0  0
   35.4570   28.5040   39.4540 C   0  0  0  0  0  2  0  0  0  0  0  0
   34.1500   28.9140   38.7800 C   0  0  0  0  0  2  0  0  0  0  0  0
   33.6880   29.7110   39.3970 H   0  0  0  0  0  0  0  0  0  0  0  0
   37.6460   27.4270   41.4590 O   0  0  0  0  0  0  0  0  0  0  0  0
   37.2510   26.9150   42.6760 C   0  0  0  0  0  0  0  0  0  0  0  0
   38.1970   27.1100   43.6800 F   0  0  0  0  0  0  0  0  0  0  0  0
   36.0100   27.4150   43.0140 F   0  0  0  0  0  0  0  0  0  0  0  0
   37.1160   25.5450   42.5180 F   0  0  0  0  0  0  0  0  0  0  0  0
  2 17  1  0  0  0  0
  2  1  2  1  0  0  0
  3  6  1  0  0  0  0
  3  2  1  0  0  0  0
  4 10  1  0  0  0  0
  5  4  1  0  0  0  0
  5 11  1  0  0  0  0
  6  5  2  0  0  0  0
  7  8  2  0  0  0  0
  7  6  1  0  0  0  0
  8  9  1  0  0  0  0
  9  4  2  0  0  0  0
 12  8  1  0  0  0  0
 13  2  1  0  0  0  0
 14 13  1  0  0  0  0
 15 16  1  0  0  0  0
 15 14  1  0  0  0  0
 17 18  1  0  0  0  0
 18 20  1  0  0  0  0
 18 19  1  0  0  0  0
 21 18  1  0  0  0  0
M  END
>  <minimizedAffinity>
-3.93520355

$$$$

 OpenBabel03242519403D

 21 21  0  0  0  0  0  0  0  0999 V2000
   39.2460   27.6650   40.5850 O   0  0  0  0  0  0  0  0  0  0  0  0
   37.9020   28.1750   41.0930 P   0  0  2  0  0  0  0  0  0  0  0  0
   37.1910   29.1690   39.8700 O   0  0  0  0  0  0  0  0  0  0  0  0
   37.4220   32.8230   39.9570 C   0  0  0  0  0  0  0  0  0  0  0  0
   36.9050   31.5170   40.1490 C   0  0  0  0  0  0  0  0  0  0  0  0
   37.6940   30.4540   39.6840 C   0  0  0  0  0  0  0  0  0  0  0  0
   38.8810   30.7180   39.0870 N   0  0  0  0  0  0  0  0  0  0  0  0
   39.3270   31.9880   38.9300 C   0  0  0  0  0  0  0  0  0  0  0  0
   38.6190   33.0320   39.3520 N   0  0  0  0  0  0  0  0  0  0  0  0
   36.8710   33.7000   40.2900 H   0  0  0  0  0  0  0  0  0  0  0  0
   35.9490   31.4150   40.6350 H   0  0  0  0  0  0  0  0  0  0  0  0
   40.2920   32.1390   38.4410 H   0  0  0  0  0  0  0  0  0  0  0  0
   38.0660   29.1070   42.4770 O   0  0  0  0  0  0  0  0  0  0  0  0
   39.4400   29.3250   42.7310 C   0  0  0  0  0  2  0  0  0  0  0  0
   39.7570   30.8170   42.6620 C   0  0  0  0  0  2  0  0  0  0  0  0
   38.7950   31.3620   42.5760 H   0  0  0  0  0  0  0  0  0  0  0  0
   36.8880   26.8560   41.3400 O   0  0  0  0  0  0  0  0  0  0  0  0
   37.0120   26.3340   42.6100 C   0  0  0  0  0  0  0  0  0  0  0  0
   38.3380   26.2260   43.0240 F   0  0  0  0  0  0  0  0  0  0  0  0
   36.2400   27.0600   43.4930 F   0  0  0  0  0  0  0  0  0  0  0  0
   36.5010   25.0470   42.5740 F   0  0  0  0  0  0  0  0  0  0  0  0
  2  1  2  6  0  0  0
  2 17  1  0  0  0  0
  2 13  1  0  0  0  0
  3  2  1  0  0  0  0
  4  5  1  0  0  0  0
  4 10  1  0  0  0  0
  5 11  1  0  0  0  0
  6  3  1  0  0  0  0
  6  5  2  0  0  0  0
  7  6  1  0  0  0  0
  8  7  2  0  0  0  0
  8  9  1  0  0  0  0
  9  4  2  0  0  0  0
 12  8  1  0  0  0  0
 13 14  1  0  0  0  0
 15 14  1  0  0  0  0
 16 15  1  0  0  0  0
 17 18  1  0  0  0  0
 18 19  1  0  0  0  0
 18 20  1  0  0  0  0
 21 18  1  0  0  0  0
M  END
>  <minimizedAffinity>
-3.91211367

$$$$

 OpenBabel03242519403D

 21 21  0  0  0  0  0  0  0  0999 V2000
   39.5320   28.5290   41.7190 O   0  0  0  0  0  0  0  0  0  0  0  0
   38.4870   29.6260   41.8780 P   0  0  2  0  0  0  0  0  0  0  0  0
   39.2900   31.0950   42.3120 O   0  0  0  0  0  0  0  0  0  0  0  0
   41.1450   32.5910   39.5320 C   0  0  0  0  0  0  0  0  0  0  0  0
   40.7940   31.6820   40.5610 C   0  0  0  0  0  0  0  0  0  0  0  0
   39.6400   31.9840   41.3000 C   0  0  0  0  0  0  0  0  0  0  0  0
   38.9340   33.1020   41.0040 N   0  0  0  0  0  0  0  0  0  0  0  0
   39.3170   33.9380   40.0080 C   0  0  0  0  0  0  0  0  0  0  0  0
   40.4030   33.6980   39.2770 N   0  0  0  0  0  0  0  0  0  0  0  0
   42.0260   32.4270   38.9140 H   0  0  0  0  0  0  0  0  0  0  0  0
   41.4240   30.8210   40.7160 H   0  0  0  0  0  0  0  0  0  0  0  0
   38.7080   34.8240   39.8160 H   0  0  0  0  0  0  0  0  0  0  0  0
   37.3820   29.2720   43.0890 O   0  0  0  0  0  0  0  0  0  0  0  0
   37.6910   28.0080   43.6450 C   0  0  0  0  0  2  0  0  0  0  0  0
   36.6710   26.9690   43.1840 C   0  0  0  0  0  2  0  0  0  0  0  0
   36.0340   27.4420   42.4110 H   0  0  0  0  0  0  0  0  0  0  0  0
   37.7340   29.8680   40.3940 O   0  0  0  0  0  0  0  0  0  0  0  0
   36.4060   30.2070   40.5310 C   0  0  0  0  0  0  0  0  0  0  0  0
   35.6080   29.1300   40.9130 F   0  0  0  0  0  0  0  0  0  0  0  0
   36.2830   31.2850   41.3840 F   0  0  0  0  0  0  0  0  0  0  0  0
   35.9560   30.6120   39.2850 F   0  0  0  0  0  0  0  0  0  0  0  0
  2  1  2  6  0  0  0
  2  3  1  0  0  0  0
  2 13  1  0  0  0  0
  4  5  1  0  0  0  0
  5 11  1  0  0  0  0
  5  6  2  0  0  0  0
  6  3  1  0  0  0  0
  7  6  1  0  0  0  0
  8  7  2  0  0  0  0
  9  4  2  0  0  0  0
  9  8  1  0  0  0  0
 10  4  1  0  0  0  0
 12  8  1  0  0  0  0
 13 14  1  0  0  0  0
 15 14  1  0  0  0  0
 16 15  1  0  0  0  0
 17 18  1  0  0  0  0
 17  2  1  0  0  0  0
 18 19  1  0  0  0  0
 18 20  1  0  0  0  0
 21 18  1  0  0  0  0
M  END
>  <minimizedAffinity>
-3.9066546

$$$$

 OpenBabel03242519403D

 21 21  0  0  0  0  0  0  0  0999 V2000
   38.1240   28.7310   39.0940 O   0  0  0  0  0  0  0  0  0  0  0  0
   37.0020   28.4720   40.0920 P   0  0  2  0  0  0  0  0  0  0  0  0
   36.4940   29.9840   40.7580 O   0  0  0  0  0  0  0  0  0  0  0  0
   37.9320   33.2570   39.9650 C   0  0  0  0  0  0  0  0  0  0  0  0
   37.0180   32.1740   39.9820 C   0  0  0  0  0  0  0  0  0  0  0  0
   37.3880   31.0520   40.7380 C   0  0  0  0  0  0  0  0  0  0  0  0
   38.5710   31.0540   41.3980 N   0  0  0  0  0  0  0  0  0  0  0  0
   39.4080   32.1190   41.3460 C   0  0  0  0  0  0  0  0  0  0  0  0
   39.1060   33.2080   40.6450 N   0  0  0  0  0  0  0  0  0  0  0  0
   37.7190   34.1640   39.4030 H   0  0  0  0  0  0  0  0  0  0  0  0
   36.1030   32.2730   39.4220 H   0  0  0  0  0  0  0  0  0  0  0  0
   40.3480   32.0620   41.8990 H   0  0  0  0  0  0  0  0  0  0  0  0
   37.5020   27.4970   41.3610 O   0  0  0  0  0  0  0  0  0  0  0  0
   36.6500   27.7040   42.4700 C   0  0  0  0  0  2  0  0  0  0  0  0
   37.4640   28.1630   43.6780 C   0  0  0  0  0  2  0  0  0  0  0  0
   38.4990   28.3580   43.3330 H   0  0  0  0  0  0  0  0  0  0  0  0
   35.6960   27.8070   39.2670 O   0  0  0  0  0  0  0  0  0  0  0  0
   34.7690   28.7590   38.9020 C   0  0  0  0  0  0  0  0  0  0  0  0
   34.0270   29.2350   39.9800 F   0  0  0  0  0  0  0  0  0  0  0  0
   35.3900   29.7720   38.1990 F   0  0  0  0  0  0  0  0  0  0  0  0
   33.8720   28.1480   38.0410 F   0  0  0  0  0  0  0  0  0  0  0  0
  2  1  2  6  0  0  0
  2  3  1  0  0  0  0
  2 13  1  0  0  0  0
  4  5  2  0  0  0  0
  4  9  1  0  0  0  0
  5  6  1  0  0  0  0
  6  3  1  0  0  0  0
  6  7  2  0  0  0  0
  8  7  1  0  0  0  0
  8 12  1  0  0  0  0
  9  8  2  0  0  0  0
 10  4  1  0  0  0  0
 11  5  1  0  0  0  0
 13 14  1  0  0  0  0
 14 15  1  0  0  0  0
 16 15  1  0  0  0  0
 17  2  1  0  0  0  0
 18 17  1  0  0  0  0
 18 19  1  0  0  0  0
 20 18  1  0  0  0  0
 21 18  1  0  0  0  0
M  END
>  <minimizedAffinity>
-3.89133906

$$$$

 OpenBabel03242519403D

 21 21  0  0  0  0  0  0  0  0999 V2000
   38.4690   27.6490   40.4810 O   0  0  0  0  0  0  0  0  0  0  0  0
   37.1550   27.2760   41.1580 P   0  0  2  0  0  0  0  0  0  0  0  0
   35.9810   28.4910   40.7920 O   0  0  0  0  0  0  0  0  0  0  0  0
   36.8470   31.1080   38.3810 C   0  0  0  0  0  0  0  0  0  0  0  0
   36.3950   29.8650   38.8900 C   0  0  0  0  0  0  0  0  0  0  0  0
   36.4230   29.7100   40.2850 C   0  0  0  0  0  0  0  0  0  0  0  0
   36.8700   30.7280   41.0590 N   0  0  0  0  0  0  0  0  0  0  0  0
   37.2910   31.8970   40.5170 C   0  0  0  0  0  0  0  0  0  0  0  0
   37.2850   32.0970   39.2010 N   0  0  0  0  0  0  0  0  0  0  0  0
   36.8560   31.3070   37.3110 H   0  0  0  0  0  0  0  0  0  0  0  0
   36.0600   29.1190   38.1890 H   0  0  0  0  0  0  0  0  0  0  0  0
   37.6400   32.6820   41.1910 H   0  0  0  0  0  0  0  0  0  0  0  0
   37.3070   27.1990   42.8260 O   0  0  0  0  0  0  0  0  0  0  0  0
   38.4920   27.8640   43.2160 C   0  0  0  0  0  2  0  0  0  0  0  0
   39.5360   26.8500   43.6770 C   0  0  0  0  0  2  0  0  0  0  0  0
   39.1480   25.8380   43.4470 H   0  0  0  0  0  0  0  0  0  0  0  0
   36.6130   25.8220   40.5090 O   0  0  0  0  0  0  0  0  0  0  0  0
   37.1220   24.7300   41.1770 C   0  0  0  0  0  0  0  0  0  0  0  0
   38.5100   24.7680   41.2990 F   0  0  0  0  0  0  0  0  0  0  0  0
   36.4890   24.5880   42.3950 F   0  0  0  0  0  0  0  0  0  0  0  0
   36.8210   23.6090   40.4200 F   0  0  0  0  0  0  0  0  0  0  0  0
  2  1  2  6  0  0  0
  2 13  1  0  0  0  0
  3  2  1  0  0  0  0
  4  5  2  0  0  0  0
  4  9  1  0  0  0  0
  5  6  1  0  0  0  0
  6  3  1  0  0  0  0
  6  7  2  0  0  0  0
  8  7  1  0  0  0  0
  8 12  1  0  0  0  0
  9  8  2  0  0  0  0
 10  4  1  0  0  0  0
 11  5  1  0  0  0  0
 13 14  1  0  0  0  0
 14 15  1  0  0  0  0
 16 15  1  0  0  0  0
 17  2  1  0  0  0  0
 17 18  1  0  0  0  0
 18 19  1  0  0  0  0
 18 20  1  0  0  0  0
 21 18  1  0  0  0  0
M  END
>  <minimizedAffinity>
-3.86467004

$$$$
