
 OpenBabel03252507503D

 39 40  0  0  0  0  0  0  0  0999 V2000
   36.8790   27.0620   42.6980 C   0  0  0  0  0  0  0  0  0  0  0  0
   35.9180   26.6820   43.1390 H   0  0  0  0  0  0  0  0  0  0  0  0
   37.5520   26.1860   42.6000 H   0  0  0  0  0  0  0  0  0  0  0  0
   36.5610   27.6630   41.3900 C   0  0  0  0  0  0  0  0  0  0  0  0
   37.1740   27.1250   40.2810 C   0  0  0  0  0  0  0  0  0  0  0  0
   36.9480   27.6100   39.0100 C   0  0  0  0  0  0  0  0  0  0  0  0
   36.0590   28.6800   38.9280 N   0  0  0  0  0  0  0  0  0  0  0  0
   35.4760   29.1820   40.0450 C   0  0  0  0  0  0  0  0  0  0  0  0
   35.7300   28.6760   41.2360 N   0  0  0  0  0  0  0  0  0  0  0  0
   37.3980   27.2290   38.1240 H   0  0  0  0  0  0  0  0  0  0  0  0
   34.7910   30.0150   39.9280 H   0  0  0  0  0  0  0  0  0  0  0  0
   38.3060   25.7470   40.4790 S   0  0  0  0  0  0  0  0  0  0  0  0
   37.5770   24.2350   39.8120 C   0  0  0  0  0  0  0  0  0  0  0  0
   36.4810   24.3460   39.6130 H   0  0  0  0  0  0  0  0  0  0  0  0
   38.0500   24.0050   38.8290 H   0  0  0  0  0  0  0  0  0  0  0  0
   37.8090   23.1180   40.7860 C   0  0  0  0  0  0  0  0  0  0  0  0
   38.5730   22.4080   40.4270 H   0  0  0  0  0  0  0  0  0  0  0  0
   36.8630   22.5430   40.9260 H   0  0  0  0  0  0  0  0  0  0  0  0
   38.1590   23.6800   42.0490 N   0  0  0  0  0  0  0  0  0  0  0  0
   39.1530   23.4470   42.3220 H   0  0  0  0  0  0  0  0  0  0  0  0
   38.1190   24.7410   42.0790 H   0  0  0  0  0  0  0  0  0  0  0  0
   37.5060   28.0110   43.6680 C   0  0  0  0  0  0  0  0  0  0  0  0
   37.9000   27.4530   44.5460 H   0  0  0  0  0  0  0  0  0  0  0  0
   36.7330   28.7410   43.9800 H   0  0  0  0  0  0  0  0  0  0  0  0
   38.6320   28.7900   43.1110 C   0  0  0  0  0  0  0  0  0  0  0  0
   39.9340   28.2070   43.0390 C   0  0  0  0  0  0  0  0  0  0  0  0
   40.9470   29.5280   42.2990 S   0  0  0  0  0  0  0  0  0  0  0  0
   39.4170   30.6790   42.2050 C   0  0  0  0  0  0  0  0  0  0  0  0
   38.6180   30.0070   42.6460 N   0  0  0  0  0  0  0  0  0  0  0  0
   40.2230   27.2210   43.3520 H   0  0  0  0  0  0  0  0  0  0  0  0
   39.4700   31.9730   41.6940 O   0  0  0  0  0  0  0  0  0  0  0  0
   38.7040   31.0980   39.3150 O   0  0  0  0  0  0  0  0  0  0  0  0
   38.6260   32.2850   40.2680 P   0  0  1  0  0  0  0  0  0  0  0  0
   36.9840   32.5340   40.6620 O   0  0  0  0  0  0  0  0  0  0  0  0
   36.6920   31.7560   41.1770 H   0  0  0  0  0  0  0  0  0  0  0  0
   39.2060   33.7020   39.5370 O   0  0  0  0  0  0  0  0  0  0  0  0
   40.5830   33.8300   39.6790 C   0  0  0  0  0  2  0  0  0  0  0  0
   41.2630   33.4230   38.3790 C   0  0  0  0  0  2  0  0  0  0  0  0
   40.9980   32.3730   38.1730 H   0  0  0  0  0  0  0  0  0  0  0  0
  1  2  1  0  0  0  0
  1 22  1  0  0  0  0
  3  1  1  0  0  0  0
  4  1  1  0  0  0  0
  5 12  1  0  0  0  0
  5  4  2  0  0  0  0
  6  5  1  0  0  0  0
  7  6  2  0  0  0  0
  7  8  1  0  0  0  0
  8  9  2  0  0  0  0
  9  4  1  0  0  0  0
 10  6  1  0  0  0  0
 11  8  1  0  0  0  0
 13 12  1  0  0  0  0
 13 16  1  0  0  0  0
 14 13  1  0  0  0  0
 15 13  1  0  0  0  0
 16 18  1  0  0  0  0
 16 19  1  0  0  0  0
 17 16  1  0  0  0  0
 19 21  1  0  0  0  0
 19 20  1  0  0  0  0
 22 24  1  0  0  0  0
 22 23  1  0  0  0  0
 25 22  1  0  0  0  0
 26 25  2  0  0  0  0
 26 30  1  0  0  0  0
 27 26  1  0  0  0  0
 28 27  1  0  0  0  0
 28 29  2  0  0  0  0
 29 25  1  0  0  0  0
 31 28  1  0  0  0  0
 33 32  2  6  0  0  0
 33 34  1  0  0  0  0
 33 31  1  0  0  0  0
 34 35  1  0  0  0  0
 36 37  1  0  0  0  0
 36 33  1  0  0  0  0
 38 37  1  0  0  0  0
 39 38  1  0  0  0  0
M  END
>  <minimizedAffinity>
-4.76467133

$$$$

 OpenBabel03252507503D

 39 40  0  0  0  0  0  0  0  0999 V2000
   36.3040   29.7190   39.6690 C   0  0  0  0  0  0  0  0  0  0  0  0
   36.0620   30.8100   39.5550 H   0  0  0  0  0  0  0  0  0  0  0  0
   36.9160   29.4350   38.7880 H   0  0  0  0  0  0  0  0  0  0  0  0
   37.0480   29.5600   40.9320 C   0  0  0  0  0  0  0  0  0  0  0  0
   38.1570   30.3550   41.1170 C   0  0  0  0  0  0  0  0  0  0  0  0
   38.9250   30.2880   42.2610 C   0  0  0  0  0  0  0  0  0  0  0  0
   38.5020   29.3610   43.2120 N   0  0  0  0  0  0  0  0  0  0  0  0
   37.4040   28.5960   42.9910 C   0  0  0  0  0  0  0  0  0  0  0  0
   36.7070   28.7040   41.8760 N   0  0  0  0  0  0  0  0  0  0  0  0
   39.7890   30.8800   42.4490 H   0  0  0  0  0  0  0  0  0  0  0  0
   37.1150   27.8890   43.7620 H   0  0  0  0  0  0  0  0  0  0  0  0
   38.6310   31.5220   39.8390 S   0  0  0  0  0  0  0  0  0  0  0  0
   37.7420   33.0790   40.0500 C   0  0  0  0  0  0  0  0  0  0  0  0
   37.1530   33.3580   39.1400 H   0  0  0  0  0  0  0  0  0  0  0  0
   37.0010   32.9670   40.8770 H   0  0  0  0  0  0  0  0  0  0  0  0
   38.7310   34.1610   40.3690 C   0  0  0  0  0  0  0  0  0  0  0  0
   38.2790   34.9720   40.9650 H   0  0  0  0  0  0  0  0  0  0  0  0
   39.1050   34.6160   39.4220 H   0  0  0  0  0  0  0  0  0  0  0  0
   39.8490   33.5740   41.0340 N   0  0  0  0  0  0  0  0  0  0  0  0
   39.9300   33.9040   42.0340 H   0  0  0  0  0  0  0  0  0  0  0  0
   39.8040   32.5150   41.1080 H   0  0  0  0  0  0  0  0  0  0  0  0
   35.0310   28.9380   39.6100 C   0  0  0  0  0  0  0  0  0  0  0  0
   34.3020   29.3440   40.3460 H   0  0  0  0  0  0  0  0  0  0  0  0
   35.2690   27.8790   39.8330 H   0  0  0  0  0  0  0  0  0  0  0  0
   34.3680   28.9590   38.2890 C   0  0  0  0  0  0  0  0  0  0  0  0
   35.1490   28.8530   37.0990 C   0  0  0  0  0  0  0  0  0  0  0  0
   33.9040   28.9270   35.7700 S   0  0  0  0  0  0  0  0  0  0  0  0
   32.5010   29.0950   37.0650 C   0  0  0  0  0  0  0  0  0  0  0  0
   33.0960   29.0680   38.0280 N   0  0  0  0  0  0  0  0  0  0  0  0
   36.2160   28.7520   37.0280 H   0  0  0  0  0  0  0  0  0  0  0  0
   31.1570   29.2070   36.7170 O   0  0  0  0  0  0  0  0  0  0  0  0
   28.7010   29.7450   37.5470 O   0  0  0  0  0  0  0  0  0  0  0  0
   30.1650   30.1300   37.7220 P   0  0  1  0  0  0  0  0  0  0  0  0
   30.6000   29.8130   39.3410 O   0  0  0  0  0  0  0  0  0  0  0  0
   30.5610   28.8450   39.4640 H   0  0  0  0  0  0  0  0  0  0  0  0
   30.4060   31.7840   37.4310 O   0  0  0  0  0  0  0  0  0  0  0  0
   29.7630   32.2040   36.2720 C   0  0  0  0  0  2  0  0  0  0  0  0
   30.7790   32.3090   35.1430 C   0  0  0  0  0  2  0  0  0  0  0  0
   31.5430   33.0460   35.4430 H   0  0  0  0  0  0  0  0  0  0  0  0
  1  4  1  0  0  0  0
  2  1  1  0  0  0  0
  3  1  1  0  0  0  0
  4  5  2  0  0  0  0
  4  9  1  0  0  0  0
  5  6  1  0  0  0  0
  6 10  1  0  0  0  0
  6  7  2  0  0  0  0
  8  7  1  0  0  0  0
  8 11  1  0  0  0  0
  9  8  2  0  0  0  0
 12 13  1  0  0  0  0
 12  5  1  0  0  0  0
 13 16  1  0  0  0  0
 13 15  1  0  0  0  0
 14 13  1  0  0  0  0
 16 17  1  0  0  0  0
 16 19  1  0  0  0  0
 18 16  1  0  0  0  0
 19 21  1  0  0  0  0
 19 20  1  0  0  0  0
 22  1  1  0  0  0  0
 22 24  1  0  0  0  0
 22 23  1  0  0  0  0
 25 22  1  0  0  0  0
 26 25  2  0  0  0  0
 27 28  1  0  0  0  0
 27 26  1  0  0  0  0
 28 29  2  0  0  0  0
 29 25  1  0  0  0  0
 30 26  1  0  0  0  0
 31 28  1  0  0  0  0
 31 33  1  0  0  0  0
 33 32  2  6  0  0  0
 33 34  1  0  0  0  0
 34 35  1  0  0  0  0
 36 33  1  0  0  0  0
 37 36  1  0  0  0  0
 38 39  1  0  0  0  0
 38 37  1  0  0  0  0
M  END
>  <minimizedAffinity>
-4.73971272

$$$$

 OpenBabel03252507503D

 39 40  0  0  0  0  0  0  0  0999 V2000
   35.6100   29.6520   39.4920 C   0  0  0  0  0  0  0  0  0  0  0  0
   36.3390   30.4800   39.7040 H   0  0  0  0  0  0  0  0  0  0  0  0
   34.6410   30.1350   39.2500 H   0  0  0  0  0  0  0  0  0  0  0  0
   36.1380   28.8750   38.3560 C   0  0  0  0  0  0  0  0  0  0  0  0
   37.0370   29.5040   37.5240 C   0  0  0  0  0  0  0  0  0  0  0  0
   37.5930   28.8720   36.4320 C   0  0  0  0  0  0  0  0  0  0  0  0
   37.1820   27.5550   36.2300 N   0  0  0  0  0  0  0  0  0  0  0  0
   36.2940   26.9710   37.0740 C   0  0  0  0  0  0  0  0  0  0  0  0
   35.7950   27.6270   38.1040 N   0  0  0  0  0  0  0  0  0  0  0  0
   38.2890   29.3150   35.7610 H   0  0  0  0  0  0  0  0  0  0  0  0
   36.0050   25.9440   36.8740 H   0  0  0  0  0  0  0  0  0  0  0  0
   37.5110   31.2020   37.8570 S   0  0  0  0  0  0  0  0  0  0  0  0
   39.0760   31.2520   38.7560 C   0  0  0  0  0  0  0  0  0  0  0  0
   39.0260   31.9150   39.6570 H   0  0  0  0  0  0  0  0  0  0  0  0
   39.3110   30.2300   39.1350 H   0  0  0  0  0  0  0  0  0  0  0  0
   40.1520   31.7320   37.8270 C   0  0  0  0  0  0  0  0  0  0  0  0
   40.8490   30.9240   37.5490 H   0  0  0  0  0  0  0  0  0  0  0  0
   40.7500   32.5270   38.3290 H   0  0  0  0  0  0  0  0  0  0  0  0
   39.5350   32.3180   36.6810 N   0  0  0  0  0  0  0  0  0  0  0  0
   39.7280   31.7620   35.8040 H   0  0  0  0  0  0  0  0  0  0  0  0
   38.4760   32.3670   36.7350 H   0  0  0  0  0  0  0  0  0  0  0  0
   35.4200   28.8510   40.7410 C   0  0  0  0  0  0  0  0  0  0  0  0
   35.0660   27.8280   40.4860 H   0  0  0  0  0  0  0  0  0  0  0  0
   34.6790   29.3770   41.3750 H   0  0  0  0  0  0  0  0  0  0  0  0
   36.6460   28.6950   41.5520 C   0  0  0  0  0  0  0  0  0  0  0  0
   37.4540   29.8340   41.8460 C   0  0  0  0  0  0  0  0  0  0  0  0
   38.8120   29.1410   42.8450 S   0  0  0  0  0  0  0  0  0  0  0  0
   38.0510   27.3870   42.7000 C   0  0  0  0  0  0  0  0  0  0  0  0
   37.1330   27.6050   42.0740 N   0  0  0  0  0  0  0  0  0  0  0  0
   37.2830   30.8500   41.5410 H   0  0  0  0  0  0  0  0  0  0  0  0
   38.6240   26.2610   43.2840 O   0  0  0  0  0  0  0  0  0  0  0  0
   39.6230   25.2700   41.0410 O   0  0  0  0  0  0  0  0  0  0  0  0
   38.8560   24.9060   42.3070 P   0  0  1  0  0  0  0  0  0  0  0  0
   39.7870   23.7710   43.1770 O   0  0  0  0  0  0  0  0  0  0  0  0
   40.5940   24.2320   43.4760 H   0  0  0  0  0  0  0  0  0  0  0  0
   37.3650   24.1840   41.9370 O   0  0  0  0  0  0  0  0  0  0  0  0
   37.2690   23.8570   40.5900 C   0  0  0  0  0  2  0  0  0  0  0  0
   37.7790   22.4380   40.3790 C   0  0  0  0  0  2  0  0  0  0  0  0
   38.8310   22.4050   40.7050 H   0  0  0  0  0  0  0  0  0  0  0  0
  1  2  1  0  0  0  0
  1 22  1  0  0  0  0
  3  1  1  0  0  0  0
  4  1  1  0  0  0  0
  5 12  1  0  0  0  0
  5  4  2  0  0  0  0
  6  5  1  0  0  0  0
  7  6  2  0  0  0  0
  7  8  1  0  0  0  0
  8  9  2  0  0  0  0
  9  4  1  0  0  0  0
 10  6  1  0  0  0  0
 11  8  1  0  0  0  0
 12 13  1  0  0  0  0
 13 15  1  0  0  0  0
 13 14  1  0  0  0  0
 16 18  1  0  0  0  0
 16 13  1  0  0  0  0
 17 16  1  0  0  0  0
 19 21  1  0  0  0  0
 19 16  1  0  0  0  0
 20 19  1  0  0  0  0
 22 24  1  0  0  0  0
 22 25  1  0  0  0  0
 23 22  1  0  0  0  0
 25 26  2  0  0  0  0
 25 29  1  0  0  0  0
 26 27  1  0  0  0  0
 28 27  1  0  0  0  0
 28 31  1  0  0  0  0
 29 28  2  0  0  0  0
 30 26  1  0  0  0  0
 33 32  2  6  0  0  0
 33 34  1  0  0  0  0
 33 31  1  0  0  0  0
 34 35  1  0  0  0  0
 36 33  1  0  0  0  0
 37 36  1  0  0  0  0
 38 37  1  0  0  0  0
 38 39  1  0  0  0  0
M  END
>  <minimizedAffinity>
-4.64271307

$$$$

 OpenBabel03252507503D

 39 40  0  0  0  0  0  0  0  0999 V2000
   40.3870   30.4310   41.0010 C   0  0  0  0  0  0  0  0  0  0  0  0
   40.0540   29.6910   40.2250 H   0  0  0  0  0  0  0  0  0  0  0  0
   41.4930   30.4790   40.9420 H   0  0  0  0  0  0  0  0  0  0  0  0
   39.7610   31.7260   40.6770 C   0  0  0  0  0  0  0  0  0  0  0  0
   40.6000   32.7820   40.3970 C   0  0  0  0  0  0  0  0  0  0  0  0
   40.1210   34.0360   40.0820 C   0  0  0  0  0  0  0  0  0  0  0  0
   38.7320   34.1600   40.0680 N   0  0  0  0  0  0  0  0  0  0  0  0
   37.9400   33.0950   40.3490 C   0  0  0  0  0  0  0  0  0  0  0  0
   38.4560   31.9170   40.6440 N   0  0  0  0  0  0  0  0  0  0  0  0
   40.7280   34.8810   39.8590 H   0  0  0  0  0  0  0  0  0  0  0  0
   36.8650   33.2420   40.3250 H   0  0  0  0  0  0  0  0  0  0  0  0
   42.3760   32.5340   40.4400 S   0  0  0  0  0  0  0  0  0  0  0  0
   43.1400   33.6740   41.6140 C   0  0  0  0  0  0  0  0  0  0  0  0
   43.9090   34.3290   41.1300 H   0  0  0  0  0  0  0  0  0  0  0  0
   42.3580   34.3590   42.0190 H   0  0  0  0  0  0  0  0  0  0  0  0
   43.7700   32.8780   42.7190 C   0  0  0  0  0  0  0  0  0  0  0  0
   44.3200   33.5190   43.4290 H   0  0  0  0  0  0  0  0  0  0  0  0
   44.5040   32.1580   42.2880 H   0  0  0  0  0  0  0  0  0  0  0  0
   42.7530   32.1180   43.3690 N   0  0  0  0  0  0  0  0  0  0  0  0
   42.6030   32.4330   44.3660 H   0  0  0  0  0  0  0  0  0  0  0  0
   41.7950   32.1990   42.9180 H   0  0  0  0  0  0  0  0  0  0  0  0
   40.0260   29.9020   42.3520 C   0  0  0  0  0  0  0  0  0  0  0  0
   39.6790   30.7330   43.0050 H   0  0  0  0  0  0  0  0  0  0  0  0
   40.9250   29.4140   42.7800 H   0  0  0  0  0  0  0  0  0  0  0  0
   38.9530   28.8860   42.3370 C   0  0  0  0  0  0  0  0  0  0  0  0
   38.9780   27.8100   43.2760 C   0  0  0  0  0  0  0  0  0  0  0  0
   37.4820   26.8550   42.8630 S   0  0  0  0  0  0  0  0  0  0  0  0
   37.0560   28.0890   41.4600 C   0  0  0  0  0  0  0  0  0  0  0  0
   37.9190   28.8180   41.5470 N   0  0  0  0  0  0  0  0  0  0  0  0
   39.7150   27.6280   44.0370 H   0  0  0  0  0  0  0  0  0  0  0  0
   35.9310   27.9580   40.6490 O   0  0  0  0  0  0  0  0  0  0  0  0
   33.8090   29.1980   39.6650 O   0  0  0  0  0  0  0  0  0  0  0  0
   35.2950   29.3610   39.9630 P   0  0  1  0  0  0  0  0  0  0  0  0
   35.4680   30.6330   41.0870 O   0  0  0  0  0  0  0  0  0  0  0  0
   35.0580   30.3340   41.9220 H   0  0  0  0  0  0  0  0  0  0  0  0
   36.1610   29.7790   38.5650 O   0  0  0  0  0  0  0  0  0  0  0  0
   35.5490   29.2960   37.4140 C   0  0  0  0  0  2  0  0  0  0  0  0
   36.2160   27.9920   36.9980 C   0  0  0  0  0  2  0  0  0  0  0  0
   37.2800   28.2040   36.8030 H   0  0  0  0  0  0  0  0  0  0  0  0
  1 22  1  0  0  0  0
  2  1  1  0  0  0  0
  3  1  1  0  0  0  0
  4  1  1  0  0  0  0
  5 12  1  0  0  0  0
  5  4  2  0  0  0  0
  6  5  1  0  0  0  0
  7  6  2  0  0  0  0
  7  8  1  0  0  0  0
  8  9  2  0  0  0  0
  9  4  1  0  0  0  0
 10  6  1  0  0  0  0
 11  8  1  0  0  0  0
 12 13  1  0  0  0  0
 13 15  1  0  0  0  0
 13 16  1  0  0  0  0
 14 13  1  0  0  0  0
 16 19  1  0  0  0  0
 16 17  1  0  0  0  0
 18 16  1  0  0  0  0
 19 20  1  0  0  0  0
 21 19  1  0  0  0  0
 22 24  1  0  0  0  0
 22 23  1  0  0  0  0
 25 22  1  0  0  0  0
 25 26  2  0  0  0  0
 26 30  1  0  0  0  0
 27 26  1  0  0  0  0
 28 29  2  0  0  0  0
 28 27  1  0  0  0  0
 29 25  1  0  0  0  0
 31 28  1  0  0  0  0
 33 32  2  6  0  0  0
 33 31  1  0  0  0  0
 33 34  1  0  0  0  0
 34 35  1  0  0  0  0
 36 33  1  0  0  0  0
 37 36  1  0  0  0  0
 38 37  1  0  0  0  0
 39 38  1  0  0  0  0
M  END
>  <minimizedAffinity>
-4.54642773

$$$$

 OpenBabel03252507503D

 39 40  0  0  0  0  0  0  0  0999 V2000
   35.9100   30.5360   40.6020 C   0  0  0  0  0  0  0  0  0  0  0  0
   35.1790   31.0840   41.2560 H   0  0  0  0  0  0  0  0  0  0  0  0
   36.0480   31.1530   39.6910 H   0  0  0  0  0  0  0  0  0  0  0  0
   37.1630   30.3900   41.3650 C   0  0  0  0  0  0  0  0  0  0  0  0
   38.2250   31.1840   40.9940 C   0  0  0  0  0  0  0  0  0  0  0  0
   39.4430   31.1290   41.6380 C   0  0  0  0  0  0  0  0  0  0  0  0
   39.5230   30.2150   42.6890 N   0  0  0  0  0  0  0  0  0  0  0  0
   38.4530   29.4510   43.0230 C   0  0  0  0  0  0  0  0  0  0  0  0
   37.3110   29.5480   42.3700 N   0  0  0  0  0  0  0  0  0  0  0  0
   40.2920   31.7200   41.3880 H   0  0  0  0  0  0  0  0  0  0  0  0
   38.5660   28.7550   43.8480 H   0  0  0  0  0  0  0  0  0  0  0  0
   38.0360   32.3320   39.6290 S   0  0  0  0  0  0  0  0  0  0  0  0
   38.7550   31.6420   38.1230 C   0  0  0  0  0  0  0  0  0  0  0  0
   39.6340   32.2340   37.7630 H   0  0  0  0  0  0  0  0  0  0  0  0
   39.1390   30.6170   38.3390 H   0  0  0  0  0  0  0  0  0  0  0  0
   37.6990   31.5980   37.0590 C   0  0  0  0  0  0  0  0  0  0  0  0
   36.7140   31.9180   37.4400 H   0  0  0  0  0  0  0  0  0  0  0  0
   37.5850   30.5520   36.6890 H   0  0  0  0  0  0  0  0  0  0  0  0
   38.1280   32.3980   35.9580 N   0  0  0  0  0  0  0  0  0  0  0  0
   37.5110   33.2450   35.8240 H   0  0  0  0  0  0  0  0  0  0  0  0
   39.1060   32.7970   36.0660 H   0  0  0  0  0  0  0  0  0  0  0  0
   35.2980   29.2380   40.1840 C   0  0  0  0  0  0  0  0  0  0  0  0
   34.1940   29.2760   40.3220 H   0  0  0  0  0  0  0  0  0  0  0  0
   35.7440   28.4340   40.8030 H   0  0  0  0  0  0  0  0  0  0  0  0
   35.5440   28.8780   38.7720 C   0  0  0  0  0  0  0  0  0  0  0  0
   36.6700   28.0700   38.4290 C   0  0  0  0  0  0  0  0  0  0  0  0
   36.5400   27.9110   36.6180 S   0  0  0  0  0  0  0  0  0  0  0  0
   34.9520   28.9860   36.6170 C   0  0  0  0  0  0  0  0  0  0  0  0
   34.8450   29.2090   37.7230 N   0  0  0  0  0  0  0  0  0  0  0  0
   37.4050   27.6620   39.0980 H   0  0  0  0  0  0  0  0  0  0  0  0
   34.2510   29.3030   35.4570 O   0  0  0  0  0  0  0  0  0  0  0  0
   32.3120   27.9180   34.3020 O   0  0  0  0  0  0  0  0  0  0  0  0
   32.6080   28.9230   35.4090 P   0  0  1  0  0  0  0  0  0  0  0  0
   32.1810   28.2040   36.8970 O   0  0  0  0  0  0  0  0  0  0  0  0
   32.7950   27.4580   37.0410 H   0  0  0  0  0  0  0  0  0  0  0  0
   31.6820   30.3320   35.2250 O   0  0  0  0  0  0  0  0  0  0  0  0
   31.0570   30.6980   36.4120 C   0  0  0  0  0  2  0  0  0  0  0  0
   30.3670   32.0420   36.2240 C   0  0  0  0  0  2  0  0  0  0  0  0
   31.1380   32.7830   35.9560 H   0  0  0  0  0  0  0  0  0  0  0  0
  1  2  1  0  0  0  0
  1  4  1  0  0  0  0
  3  1  1  0  0  0  0
  4  9  1  0  0  0  0
  5  4  2  0  0  0  0
  5  6  1  0  0  0  0
  6  7  2  0  0  0  0
  7  8  1  0  0  0  0
  8 11  1  0  0  0  0
  9  8  2  0  0  0  0
 10  6  1  0  0  0  0
 12  5  1  0  0  0  0
 13 15  1  0  0  0  0
 13 12  1  0  0  0  0
 14 13  1  0  0  0  0
 16 17  1  0  0  0  0
 16 13  1  0  0  0  0
 18 16  1  0  0  0  0
 19 21  1  0  0  0  0
 19 16  1  0  0  0  0
 20 19  1  0  0  0  0
 22 23  1  0  0  0  0
 22  1  1  0  0  0  0
 22 24  1  0  0  0  0
 25 22  1  0  0  0  0
 26 25  2  0  0  0  0
 26 30  1  0  0  0  0
 27 26  1  0  0  0  0
 28 27  1  0  0  0  0
 28 29  2  0  0  0  0
 29 25  1  0  0  0  0
 31 28  1  0  0  0  0
 33 32  2  6  0  0  0
 33 31  1  0  0  0  0
 33 34  1  0  0  0  0
 34 35  1  0  0  0  0
 36 33  1  0  0  0  0
 36 37  1  0  0  0  0
 38 37  1  0  0  0  0
 39 38  1  0  0  0  0
M  END
>  <minimizedAffinity>
-4.52796412

$$$$

 OpenBabel03252507503D

 39 40  0  0  0  0  0  0  0  0999 V2000
   40.5740   30.3850   40.6190 C   0  0  0  0  0  0  0  0  0  0  0  0
   40.0550   29.6630   39.9320 H   0  0  0  0  0  0  0  0  0  0  0  0
   41.6380   30.4110   40.3090 H   0  0  0  0  0  0  0  0  0  0  0  0
   39.9210   31.6970   40.4580 C   0  0  0  0  0  0  0  0  0  0  0  0
   40.7030   32.7440   40.0250 C   0  0  0  0  0  0  0  0  0  0  0  0
   40.1950   34.0130   39.8400 C   0  0  0  0  0  0  0  0  0  0  0  0
   38.8380   34.1600   40.1240 N   0  0  0  0  0  0  0  0  0  0  0  0
   38.1010   33.1030   40.5490 C   0  0  0  0  0  0  0  0  0  0  0  0
   38.6430   31.9110   40.7070 N   0  0  0  0  0  0  0  0  0  0  0  0
   40.7580   34.8520   39.5080 H   0  0  0  0  0  0  0  0  0  0  0  0
   37.0490   33.2690   40.7570 H   0  0  0  0  0  0  0  0  0  0  0  0
   42.4420   32.4650   39.6830 S   0  0  0  0  0  0  0  0  0  0  0  0
   42.7470   32.5130   37.9040 C   0  0  0  0  0  0  0  0  0  0  0  0
   42.5550   33.5260   37.4680 H   0  0  0  0  0  0  0  0  0  0  0  0
   43.8230   32.2910   37.7130 H   0  0  0  0  0  0  0  0  0  0  0  0
   41.8700   31.4960   37.2360 C   0  0  0  0  0  0  0  0  0  0  0  0
   41.6050   30.6680   37.9150 H   0  0  0  0  0  0  0  0  0  0  0  0
   42.4100   31.0510   36.3670 H   0  0  0  0  0  0  0  0  0  0  0  0
   40.7120   32.1570   36.7280 N   0  0  0  0  0  0  0  0  0  0  0  0
   39.8320   31.8460   37.2240 H   0  0  0  0  0  0  0  0  0  0  0  0
   40.7250   33.2120   36.8500 H   0  0  0  0  0  0  0  0  0  0  0  0
   40.5170   29.8440   42.0110 C   0  0  0  0  0  0  0  0  0  0  0  0
   40.3660   30.6750   42.7360 H   0  0  0  0  0  0  0  0  0  0  0  0
   41.4700   29.3150   42.2120 H   0  0  0  0  0  0  0  0  0  0  0  0
   39.4300   28.8690   42.2390 C   0  0  0  0  0  0  0  0  0  0  0  0
   39.6490   27.7440   43.0910 C   0  0  0  0  0  0  0  0  0  0  0  0
   38.0530   26.8660   43.0490 S   0  0  0  0  0  0  0  0  0  0  0  0
   37.3330   28.1890   41.8630 C   0  0  0  0  0  0  0  0  0  0  0  0
   38.2220   28.8800   41.7490 N   0  0  0  0  0  0  0  0  0  0  0  0
   40.5500   27.4960   43.6200 H   0  0  0  0  0  0  0  0  0  0  0  0
   36.0290   28.1410   41.3750 O   0  0  0  0  0  0  0  0  0  0  0  0
   34.0770   29.2030   39.9340 O   0  0  0  0  0  0  0  0  0  0  0  0
   35.5180   29.4080   40.3860 P   0  0  1  0  0  0  0  0  0  0  0  0
   35.5820   30.8530   41.2930 O   0  0  0  0  0  0  0  0  0  0  0  0
   35.0640   30.7030   42.1070 H   0  0  0  0  0  0  0  0  0  0  0  0
   36.5620   29.5790   39.0590 O   0  0  0  0  0  0  0  0  0  0  0  0
   36.3760   28.5680   38.1230 C   0  0  0  0  0  2  0  0  0  0  0  0
   37.5470   27.5970   38.1920 C   0  0  0  0  0  2  0  0  0  0  0  0
   38.4670   28.1600   37.9660 H   0  0  0  0  0  0  0  0  0  0  0  0
  1 22  1  0  0  0  0
  2  1  1  0  0  0  0
  3  1  1  0  0  0  0
  4  1  1  0  0  0  0
  4  9  1  0  0  0  0
  5  4  2  0  0  0  0
  6  5  1  0  0  0  0
  6  7  2  0  0  0  0
  7  8  1  0  0  0  0
  8  9  2  0  0  0  0
  8 11  1  0  0  0  0
 10  6  1  0  0  0  0
 12  5  1  0  0  0  0
 13 12  1  0  0  0  0
 14 13  1  0  0  0  0
 15 13  1  0  0  0  0
 16 13  1  0  0  0  0
 16 17  1  0  0  0  0
 18 16  1  0  0  0  0
 19 21  1  0  0  0  0
 19 20  1  0  0  0  0
 19 16  1  0  0  0  0
 22 24  1  0  0  0  0
 22 25  1  0  0  0  0
 22 23  1  0  0  0  0
 25 26  2  0  0  0  0
 26 30  1  0  0  0  0
 27 26  1  0  0  0  0
 28 27  1  0  0  0  0
 29 28  2  0  0  0  0
 29 25  1  0  0  0  0
 31 28  1  0  0  0  0
 33 32  2  6  0  0  0
 33 34  1  0  0  0  0
 33 31  1  0  0  0  0
 34 35  1  0  0  0  0
 36 33  1  0  0  0  0
 37 38  1  0  0  0  0
 37 36  1  0  0  0  0
 39 38  1  0  0  0  0
M  END
>  <minimizedAffinity>
-4.52017784

$$$$

 OpenBabel03252507503D

 39 40  0  0  0  0  0  0  0  0999 V2000
   36.5480   27.1280   39.9600 C   0  0  0  0  0  0  0  0  0  0  0  0
   35.8850   27.5300   40.7720 H   0  0  0  0  0  0  0  0  0  0  0  0
   37.4210   27.8080   39.8950 H   0  0  0  0  0  0  0  0  0  0  0  0
   36.9420   25.7600   40.3450 C   0  0  0  0  0  0  0  0  0  0  0  0
   37.1980   25.5280   41.6770 C   0  0  0  0  0  0  0  0  0  0  0  0
   37.5730   24.2860   42.1480 C   0  0  0  0  0  0  0  0  0  0  0  0
   37.6760   23.2870   41.1800 N   0  0  0  0  0  0  0  0  0  0  0  0
   37.4150   23.5570   39.8770 C   0  0  0  0  0  0  0  0  0  0  0  0
   37.0590   24.7660   39.4860 N   0  0  0  0  0  0  0  0  0  0  0  0
   37.7820   24.0580   43.1650 H   0  0  0  0  0  0  0  0  0  0  0  0
   37.5080   22.7450   39.1630 H   0  0  0  0  0  0  0  0  0  0  0  0
   37.0430   26.8730   42.8550 S   0  0  0  0  0  0  0  0  0  0  0  0
   38.5990   27.7810   42.9780 C   0  0  0  0  0  0  0  0  0  0  0  0
   39.2530   27.3920   43.7990 H   0  0  0  0  0  0  0  0  0  0  0  0
   39.1750   27.6480   42.0320 H   0  0  0  0  0  0  0  0  0  0  0  0
   38.2940   29.2310   43.2120 C   0  0  0  0  0  0  0  0  0  0  0  0
   39.0570   29.8910   42.7650 H   0  0  0  0  0  0  0  0  0  0  0  0
   38.2790   29.4380   44.3070 H   0  0  0  0  0  0  0  0  0  0  0  0
   36.9900   29.5090   42.7050 N   0  0  0  0  0  0  0  0  0  0  0  0
   37.0200   30.1700   41.8810 H   0  0  0  0  0  0  0  0  0  0  0  0
   36.4740   28.6560   42.3400 H   0  0  0  0  0  0  0  0  0  0  0  0
   35.8130   27.2060   38.6600 C   0  0  0  0  0  0  0  0  0  0  0  0
   34.7190   27.2780   38.8470 H   0  0  0  0  0  0  0  0  0  0  0  0
   36.0540   26.2960   38.0760 H   0  0  0  0  0  0  0  0  0  0  0  0
   36.1860   28.3650   37.8220 C   0  0  0  0  0  0  0  0  0  0  0  0
   36.1750   28.2470   36.3990 C   0  0  0  0  0  0  0  0  0  0  0  0
   36.6950   29.9000   35.8350 S   0  0  0  0  0  0  0  0  0  0  0  0
   36.8470   30.4950   37.6510 C   0  0  0  0  0  0  0  0  0  0  0  0
   36.5470   29.5560   38.2090 N   0  0  0  0  0  0  0  0  0  0  0  0
   35.9160   27.3790   35.8200 H   0  0  0  0  0  0  0  0  0  0  0  0
   37.2390   31.7860   37.9960 O   0  0  0  0  0  0  0  0  0  0  0  0
   37.4320   33.6280   39.8880 O   0  0  0  0  0  0  0  0  0  0  0  0
   37.4520   32.1250   39.6340 P   0  0  1  0  0  0  0  0  0  0  0  0
   36.1560   31.4290   40.4990 O   0  0  0  0  0  0  0  0  0  0  0  0
   35.3310   31.7590   40.0920 H   0  0  0  0  0  0  0  0  0  0  0  0
   38.8910   31.4250   40.1990 O   0  0  0  0  0  0  0  0  0  0  0  0
   39.4740   32.1840   41.2070 C   0  0  0  0  0  2  0  0  0  0  0  0
   40.7730   31.5220   41.6470 C   0  0  0  0  0  2  0  0  0  0  0  0
   40.5290   30.5150   42.0230 H   0  0  0  0  0  0  0  0  0  0  0  0
  1  4  1  0  0  0  0
  1  2  1  0  0  0  0
  3  1  1  0  0  0  0
  4  5  1  0  0  0  0
  5  6  2  0  0  0  0
  5 12  1  0  0  0  0
  6 10  1  0  0  0  0
  7  6  1  0  0  0  0
  8  7  2  0  0  0  0
  9  8  1  0  0  0  0
  9  4  2  0  0  0  0
 11  8  1  0  0  0  0
 12 13  1  0  0  0  0
 13 16  1  0  0  0  0
 13 14  1  0  0  0  0
 15 13  1  0  0  0  0
 16 18  1  0  0  0  0
 17 16  1  0  0  0  0
 19 16  1  0  0  0  0
 20 19  1  0  0  0  0
 21 19  1  0  0  0  0
 22 23  1  0  0  0  0
 22  1  1  0  0  0  0
 24 22  1  0  0  0  0
 25 29  1  0  0  0  0
 25 22  1  0  0  0  0
 26 25  2  0  0  0  0
 27 26  1  0  0  0  0
 27 28  1  0  0  0  0
 28 31  1  0  0  0  0
 28 29  2  0  0  0  0
 30 26  1  0  0  0  0
 31 33  1  0  0  0  0
 33 32  2  1  0  0  0
 33 36  1  0  0  0  0
 33 34  1  0  0  0  0
 35 34  1  0  0  0  0
 36 37  1  0  0  0  0
 37 38  1  0  0  0  0
 38 39  1  0  0  0  0
M  END
>  <minimizedAffinity>
-4.43222094

$$$$

 OpenBabel03252507503D

 39 40  0  0  0  0  0  0  0  0999 V2000
   35.8400   30.3170   40.7360 C   0  0  0  0  0  0  0  0  0  0  0  0
   35.1140   30.8390   41.4170 H   0  0  0  0  0  0  0  0  0  0  0  0
   35.9620   30.9640   39.8440 H   0  0  0  0  0  0  0  0  0  0  0  0
   37.1040   30.1550   41.4760 C   0  0  0  0  0  0  0  0  0  0  0  0
   38.1730   30.9250   41.0780 C   0  0  0  0  0  0  0  0  0  0  0  0
   39.4020   30.8540   41.7010 C   0  0  0  0  0  0  0  0  0  0  0  0
   39.4850   29.9480   42.7570 N   0  0  0  0  0  0  0  0  0  0  0  0
   38.4080   29.2060   43.1180 C   0  0  0  0  0  0  0  0  0  0  0  0
   37.2560   29.3180   42.4850 N   0  0  0  0  0  0  0  0  0  0  0  0
   40.2570   31.4270   41.4300 H   0  0  0  0  0  0  0  0  0  0  0  0
   38.5230   28.5150   43.9470 H   0  0  0  0  0  0  0  0  0  0  0  0
   37.9790   32.0660   39.7070 S   0  0  0  0  0  0  0  0  0  0  0  0
   39.5950   32.5940   39.0960 C   0  0  0  0  0  0  0  0  0  0  0  0
   39.5840   33.6500   38.7270 H   0  0  0  0  0  0  0  0  0  0  0  0
   40.3290   32.5650   39.9350 H   0  0  0  0  0  0  0  0  0  0  0  0
   40.0180   31.6710   37.9910 C   0  0  0  0  0  0  0  0  0  0  0  0
   39.4570   30.7210   38.0080 H   0  0  0  0  0  0  0  0  0  0  0  0
   41.0980   31.4200   38.1080 H   0  0  0  0  0  0  0  0  0  0  0  0
   39.8690   32.3530   36.7470 N   0  0  0  0  0  0  0  0  0  0  0  0
   39.1220   31.9130   36.1440 H   0  0  0  0  0  0  0  0  0  0  0  0
   39.5690   33.3680   36.8410 H   0  0  0  0  0  0  0  0  0  0  0  0
   35.2300   29.0290   40.2840 C   0  0  0  0  0  0  0  0  0  0  0  0
   34.2420   29.2230   39.8100 H   0  0  0  0  0  0  0  0  0  0  0  0
   35.1190   28.3740   41.1710 H   0  0  0  0  0  0  0  0  0  0  0  0
   36.0430   28.2860   39.2990 C   0  0  0  0  0  0  0  0  0  0  0  0
   36.2220   28.8100   37.9830 C   0  0  0  0  0  0  0  0  0  0  0  0
   37.2720   27.5620   37.1710 S   0  0  0  0  0  0  0  0  0  0  0  0
   37.2990   26.5110   38.7740 C   0  0  0  0  0  0  0  0  0  0  0  0
   36.6620   27.1500   39.4580 N   0  0  0  0  0  0  0  0  0  0  0  0
   35.8230   29.7260   37.5890 H   0  0  0  0  0  0  0  0  0  0  0  0
   37.9840   25.3030   38.8780 O   0  0  0  0  0  0  0  0  0  0  0  0
   40.5840   24.9560   39.2330 O   0  0  0  0  0  0  0  0  0  0  0  0
   39.2730   25.2260   39.9610 P   0  0  1  0  0  0  0  0  0  0  0  0
   39.4090   26.7380   40.7410 O   0  0  0  0  0  0  0  0  0  0  0  0
   39.4710   27.4160   40.0400 H   0  0  0  0  0  0  0  0  0  0  0  0
   38.9760   24.0520   41.1500 O   0  0  0  0  0  0  0  0  0  0  0  0
   37.6330   23.6980   41.2020 C   0  0  0  0  0  2  0  0  0  0  0  0
   36.9000   24.6400   42.1470 C   0  0  0  0  0  2  0  0  0  0  0  0
   37.3580   24.5410   43.1450 H   0  0  0  0  0  0  0  0  0  0  0  0
  1  2  1  0  0  0  0
  1  4  1  0  0  0  0
  3  1  1  0  0  0  0
  4  9  1  0  0  0  0
  5  4  2  0  0  0  0
  5  6  1  0  0  0  0
  6  7  2  0  0  0  0
  7  8  1  0  0  0  0
  8 11  1  0  0  0  0
  9  8  2  0  0  0  0
 10  6  1  0  0  0  0
 12  5  1  0  0  0  0
 13 12  1  0  0  0  0
 13 15  1  0  0  0  0
 14 13  1  0  0  0  0
 16 17  1  0  0  0  0
 16 18  1  0  0  0  0
 16 13  1  0  0  0  0
 19 21  1  0  0  0  0
 19 16  1  0  0  0  0
 20 19  1  0  0  0  0
 22  1  1  0  0  0  0
 22 24  1  0  0  0  0
 23 22  1  0  0  0  0
 25 29  1  0  0  0  0
 25 22  1  0  0  0  0
 26 25  2  0  0  0  0
 27 26  1  0  0  0  0
 27 28  1  0  0  0  0
 28 31  1  0  0  0  0
 28 29  2  0  0  0  0
 30 26  1  0  0  0  0
 31 33  1  0  0  0  0
 33 32  2  6  0  0  0
 33 34  1  0  0  0  0
 33 36  1  0  0  0  0
 35 34  1  0  0  0  0
 36 37  1  0  0  0  0
 37 38  1  0  0  0  0
 38 39  1  0  0  0  0
M  END
>  <minimizedAffinity>
-4.4272027

$$$$

 OpenBabel03252507503D

 39 40  0  0  0  0  0  0  0  0999 V2000
   35.9000   29.3190   39.2410 C   0  0  0  0  0  0  0  0  0  0  0  0
   34.9900   29.5770   38.6350 H   0  0  0  0  0  0  0  0  0  0  0  0
   36.2030   28.2950   38.9420 H   0  0  0  0  0  0  0  0  0  0  0  0
   36.9390   30.3160   38.9270 C   0  0  0  0  0  0  0  0  0  0  0  0
   38.0880   29.8610   38.3200 C   0  0  0  0  0  0  0  0  0  0  0  0
   39.1240   30.7070   37.9820 C   0  0  0  0  0  0  0  0  0  0  0  0
   38.9260   32.0500   38.2990 N   0  0  0  0  0  0  0  0  0  0  0  0
   37.7800   32.4580   38.8980 C   0  0  0  0  0  0  0  0  0  0  0  0
   36.8220   31.6020   39.1970 N   0  0  0  0  0  0  0  0  0  0  0  0
   40.0300   30.4040   37.5130 H   0  0  0  0  0  0  0  0  0  0  0  0
   37.6740   33.5140   39.1240 H   0  0  0  0  0  0  0  0  0  0  0  0
   38.2600   28.1150   37.9480 S   0  0  0  0  0  0  0  0  0  0  0  0
   38.1170   27.8350   36.1690 C   0  0  0  0  0  0  0  0  0  0  0  0
   39.0370   28.1520   35.6150 H   0  0  0  0  0  0  0  0  0  0  0  0
   38.0010   26.7420   35.9800 H   0  0  0  0  0  0  0  0  0  0  0  0
   36.9270   28.5900   35.6560 C   0  0  0  0  0  0  0  0  0  0  0  0
   36.7180   29.4910   36.2570 H   0  0  0  0  0  0  0  0  0  0  0  0
   36.0220   27.9410   35.7080 H   0  0  0  0  0  0  0  0  0  0  0  0
   37.1480   28.9080   34.2820 N   0  0  0  0  0  0  0  0  0  0  0  0
   37.2390   29.9500   34.1290 H   0  0  0  0  0  0  0  0  0  0  0  0
   38.0440   28.5030   33.8810 H   0  0  0  0  0  0  0  0  0  0  0  0
   35.5140   29.2760   40.6850 C   0  0  0  0  0  0  0  0  0  0  0  0
   34.5020   28.8270   40.7950 H   0  0  0  0  0  0  0  0  0  0  0  0
   35.5290   30.3140   41.0740 H   0  0  0  0  0  0  0  0  0  0  0  0
   36.4310   28.4870   41.5340 C   0  0  0  0  0  0  0  0  0  0  0  0
   37.3780   29.1530   42.3700 C   0  0  0  0  0  0  0  0  0  0  0  0
   38.2510   27.7820   43.1940 S   0  0  0  0  0  0  0  0  0  0  0  0
   37.1740   26.5040   42.2560 C   0  0  0  0  0  0  0  0  0  0  0  0
   36.5140   27.1910   41.6430 N   0  0  0  0  0  0  0  0  0  0  0  0
   37.5220   30.2130   42.4730 H   0  0  0  0  0  0  0  0  0  0  0  0
   37.3130   25.1280   42.4190 O   0  0  0  0  0  0  0  0  0  0  0  0
   39.6980   24.2630   43.1790 O   0  0  0  0  0  0  0  0  0  0  0  0
   38.7840   24.4340   41.9720 P   0  0  1  0  0  0  0  0  0  0  0  0
   38.4700   22.8850   41.3280 O   0  0  0  0  0  0  0  0  0  0  0  0
   37.9470   22.3990   41.9950 H   0  0  0  0  0  0  0  0  0  0  0  0
   39.5290   25.3600   40.7610 O   0  0  0  0  0  0  0  0  0  0  0  0
   40.8320   25.7040   41.1010 C   0  0  0  0  0  2  0  0  0  0  0  0
   41.7840   25.1940   40.0280 C   0  0  0  0  0  2  0  0  0  0  0  0
   41.6800   24.0970   39.9780 H   0  0  0  0  0  0  0  0  0  0  0  0
  1 22  1  0  0  0  0
  2  1  1  0  0  0  0
  3  1  1  0  0  0  0
  4  9  1  0  0  0  0
  4  1  1  0  0  0  0
  5  4  2  0  0  0  0
  6  7  2  0  0  0  0
  6  5  1  0  0  0  0
  7  8  1  0  0  0  0
  8 11  1  0  0  0  0
  8  9  2  0  0  0  0
 10  6  1  0  0  0  0
 12  5  1  0  0  0  0
 13 12  1  0  0  0  0
 14 13  1  0  0  0  0
 15 13  1  0  0  0  0
 16 18  1  0  0  0  0
 16 13  1  0  0  0  0
 16 17  1  0  0  0  0
 19 16  1  0  0  0  0
 20 19  1  0  0  0  0
 21 19  1  0  0  0  0
 22 23  1  0  0  0  0
 22 24  1  0  0  0  0
 22 25  1  0  0  0  0
 25 29  1  0  0  0  0
 25 26  2  0  0  0  0
 26 30  1  0  0  0  0
 26 27  1  0  0  0  0
 28 31  1  0  0  0  0
 28 27  1  0  0  0  0
 29 28  2  0  0  0  0
 33 31  1  0  0  0  0
 33 32  2  1  0  0  0
 34 33  1  0  0  0  0
 34 35  1  0  0  0  0
 36 37  1  0  0  0  0
 36 33  1  0  0  0  0
 38 37  1  0  0  0  0
 39 38  1  0  0  0  0
M  END
>  <minimizedAffinity>
-4.42403841

$$$$
