
 OpenBabel03252507123D

 22 22  0  0  0  0  0  0  0  0999 V2000
   38.2950   31.4470   38.4080 C   0  0  0  0  0  0  0  0  0  0  0  0
   38.1860   30.1270   38.8070 C   0  0  0  0  0  0  0  0  0  0  0  0
   39.2940   29.2840   38.6570 C   0  0  0  0  0  0  0  0  0  0  0  0
   40.4270   29.7880   38.1300 N   0  0  0  0  0  0  0  0  0  0  0  0
   40.5140   31.0750   37.7490 C   0  0  0  0  0  0  0  0  0  0  0  0
   39.4340   31.9040   37.8920 N   0  0  0  0  0  0  0  0  0  0  0  0
   39.1100   28.2850   38.9940 H   0  0  0  0  0  0  0  0  0  0  0  0
   41.4310   31.4680   37.3260 H   0  0  0  0  0  0  0  0  0  0  0  0
   37.4060   33.4680   39.5390 C   0  0  0  0  0  0  0  0  0  0  0  0
   37.9110   33.1690   40.6720 O   0  0  0  0  0  0  0  0  0  0  0  0
   37.5610   32.6600   38.3290 N   0  0  0  0  0  0  0  0  0  0  0  0
   36.8230   34.3850   39.4760 H   0  0  0  0  0  0  0  0  0  0  0  0
   37.1070   33.0450   37.4730 H   0  0  0  0  0  0  0  0  0  0  0  0
   36.9680   29.7500   39.3290 O   0  0  0  0  0  0  0  0  0  0  0  0
   37.9450   30.0080   41.7750 O   0  0  0  0  0  0  0  0  0  0  0  0
   36.6630   29.7860   41.0100 P   0  0  1  0  0  0  0  0  0  0  0  0
   35.6430   31.0890   41.3660 O   0  0  0  0  0  0  0  0  0  0  0  0
   35.9280   31.9170   40.9100 H   0  0  0  0  0  0  0  0  0  0  0  0
   35.9330   28.3670   41.5280 O   0  0  0  0  0  0  0  0  0  0  0  0
   36.8780   27.6030   42.2070 C   0  0  0  0  0  2  0  0  0  0  0  0
   36.4560   27.3900   43.6570 C   0  0  0  0  0  2  0  0  0  0  0  0
   35.5160   26.8050   43.7140 H   0  0  0  0  0  0  0  0  0  0  0  0
  1  2  1  0  0  0  0
  2 14  1  0  0  0  0
  3  2  2  0  0  0  0
  3  7  1  0  0  0  0
  4  3  1  0  0  0  0
  5  6  1  0  0  0  0
  5  4  2  0  0  0  0
  6  1  2  0  0  0  0
  8  5  1  0  0  0  0
  9 10  2  0  0  0  0
 11  1  1  0  0  0  0
 11  9  1  0  0  0  0
 12  9  1  0  0  0  0
 13 11  1  0  0  0  0
 14 16  1  0  0  0  0
 16 17  1  0  0  0  0
 16 19  1  0  0  0  0
 16 15  2  1  0  0  0
 18 17  1  0  0  0  0
 19 20  1  0  0  0  0
 20 21  1  0  0  0  0
 21 22  1  0  0  0  0
M  END
>  <minimizedAffinity>
-4.34071493

$$$$

 OpenBabel03252507123D

 22 22  0  0  0  0  0  0  0  0999 V2000
   36.9500   30.5280   40.7430 C   0  0  0  0  0  0  0  0  0  0  0  0
   38.2150   29.9690   40.7000 C   0  0  0  0  0  0  0  0  0  0  0  0
   39.2830   30.7570   40.2540 C   0  0  0  0  0  0  0  0  0  0  0  0
   39.0420   32.0280   39.8810 N   0  0  0  0  0  0  0  0  0  0  0  0
   37.8040   32.5530   39.9310 C   0  0  0  0  0  0  0  0  0  0  0  0
   36.7560   31.7890   40.3670 N   0  0  0  0  0  0  0  0  0  0  0  0
   40.2190   30.2350   40.2570 H   0  0  0  0  0  0  0  0  0  0  0  0
   37.6240   33.5790   39.6290 H   0  0  0  0  0  0  0  0  0  0  0  0
   34.8990   29.1960   40.3200 C   0  0  0  0  0  0  0  0  0  0  0  0
   35.4240   28.5170   39.3770 O   0  0  0  0  0  0  0  0  0  0  0  0
   35.6030   30.2290   41.0810 N   0  0  0  0  0  0  0  0  0  0  0  0
   33.8610   28.9880   40.5710 H   0  0  0  0  0  0  0  0  0  0  0  0
   35.0480   30.6840   41.8380 H   0  0  0  0  0  0  0  0  0  0  0  0
   38.3140   28.6590   41.1110 O   0  0  0  0  0  0  0  0  0  0  0  0
   39.8170   28.5760   43.2880 O   0  0  0  0  0  0  0  0  0  0  0  0
   38.4410   28.2430   42.7640 P   0  0  1  0  0  0  0  0  0  0  0  0
   37.3350   29.1610   43.6580 O   0  0  0  0  0  0  0  0  0  0  0  0
   37.3500   30.1130   43.3980 H   0  0  0  0  0  0  0  0  0  0  0  0
   38.1200   26.6150   43.0100 O   0  0  0  0  0  0  0  0  0  0  0  0
   37.0530   26.2440   42.1970 C   0  0  0  0  0  2  0  0  0  0  0  0
   37.0060   24.7290   42.0290 C   0  0  0  0  0  2  0  0  0  0  0  0
   36.8160   24.2290   43.0010 H   0  0  0  0  0  0  0  0  0  0  0  0
  1 11  1  0  0  0  0
  2  1  1  0  0  0  0
  2 14  1  0  0  0  0
  3  7  1  0  0  0  0
  3  2  2  0  0  0  0
  4  5  2  0  0  0  0
  4  3  1  0  0  0  0
  5  6  1  0  0  0  0
  6  1  2  0  0  0  0
  8  5  1  0  0  0  0
  9 12  1  0  0  0  0
  9 11  1  0  0  0  0
 10  9  2  0  0  0  0
 11 13  1  0  0  0  0
 14 16  1  0  0  0  0
 16 19  1  0  0  0  0
 16 15  2  1  0  0  0
 16 17  1  0  0  0  0
 18 17  1  0  0  0  0
 20 19  1  0  0  0  0
 21 20  1  0  0  0  0
 21 22  1  0  0  0  0
M  END
>  <minimizedAffinity>
-4.29919386

$$$$

 OpenBabel03252507123D

 22 22  0  0  0  0  0  0  0  0999 V2000
   36.8470   30.6010   41.3130 C   0  0  0  0  0  0  0  0  0  0  0  0
   37.8440   30.0810   42.1190 C   0  0  0  0  0  0  0  0  0  0  0  0
   39.1410   30.5960   42.0020 C   0  0  0  0  0  0  0  0  0  0  0  0
   39.3720   31.5790   41.1100 N   0  0  0  0  0  0  0  0  0  0  0  0
   38.3880   32.0720   40.3360 C   0  0  0  0  0  0  0  0  0  0  0  0
   37.1190   31.5720   40.4440 N   0  0  0  0  0  0  0  0  0  0  0  0
   39.8390   30.1300   42.6660 H   0  0  0  0  0  0  0  0  0  0  0  0
   38.5870   32.8630   39.6220 H   0  0  0  0  0  0  0  0  0  0  0  0
   35.0050   29.3160   40.2580 C   0  0  0  0  0  0  0  0  0  0  0  0
   35.7690   28.3790   39.8490 O   0  0  0  0  0  0  0  0  0  0  0  0
   35.4630   30.4780   41.0210 N   0  0  0  0  0  0  0  0  0  0  0  0
   33.9460   29.2400   40.0200 H   0  0  0  0  0  0  0  0  0  0  0  0
   34.7170   31.1500   41.3030 H   0  0  0  0  0  0  0  0  0  0  0  0
   37.4640   29.0800   42.9850 O   0  0  0  0  0  0  0  0  0  0  0  0
   36.6550   26.5600   42.9460 O   0  0  0  0  0  0  0  0  0  0  0  0
   37.8520   27.4420   42.6880 P   0  0  1  0  0  0  0  0  0  0  0  0
   38.2670   27.2510   41.0590 O   0  0  0  0  0  0  0  0  0  0  0  0
   37.6320   27.7110   40.4590 H   0  0  0  0  0  0  0  0  0  0  0  0
   39.1400   26.9390   43.6400 O   0  0  0  0  0  0  0  0  0  0  0  0
   39.9830   26.1470   42.8650 C   0  0  0  0  0  2  0  0  0  0  0  0
   39.7740   24.6700   43.1810 C   0  0  0  0  0  2  0  0  0  0  0  0
   38.7460   24.3500   42.9110 H   0  0  0  0  0  0  0  0  0  0  0  0
  1  2  1  0  0  0  0
  2 14  1  0  0  0  0
  3  2  2  0  0  0  0
  3  7  1  0  0  0  0
  4  3  1  0  0  0  0
  5  6  1  0  0  0  0
  5  4  2  0  0  0  0
  6  1  2  0  0  0  0
  8  5  1  0  0  0  0
  9 11  1  0  0  0  0
 10  9  2  0  0  0  0
 11 13  1  0  0  0  0
 11  1  1  0  0  0  0
 12  9  1  0  0  0  0
 16 15  2  1  0  0  0
 16 14  1  0  0  0  0
 16 19  1  0  0  0  0
 17 16  1  0  0  0  0
 18 17  1  0  0  0  0
 20 21  1  0  0  0  0
 20 19  1  0  0  0  0
 22 21  1  0  0  0  0
M  END
>  <minimizedAffinity>
-4.17154312

$$$$

 OpenBabel03252507123D

 22 22  0  0  0  0  0  0  0  0999 V2000
   37.9990   28.3080   42.7710 C   0  0  0  0  0  0  0  0  0  0  0  0
   37.0370   27.5540   42.1230 C   0  0  0  0  0  0  0  0  0  0  0  0
   37.3240   26.2170   41.8170 C   0  0  0  0  0  0  0  0  0  0  0  0
   38.5240   25.7140   42.1640 N   0  0  0  0  0  0  0  0  0  0  0  0
   39.4460   26.4640   42.7950 C   0  0  0  0  0  0  0  0  0  0  0  0
   39.1730   27.7700   43.0960 N   0  0  0  0  0  0  0  0  0  0  0  0
   36.5180   25.7200   41.3170 H   0  0  0  0  0  0  0  0  0  0  0  0
   40.4080   26.0470   43.0690 H   0  0  0  0  0  0  0  0  0  0  0  0
   39.0830   30.5260   42.5210 C   0  0  0  0  0  0  0  0  0  0  0  0
   39.6000   30.2480   41.3890 O   0  0  0  0  0  0  0  0  0  0  0  0
   38.2440   29.6070   43.2910 N   0  0  0  0  0  0  0  0  0  0  0  0
   39.2840   31.5120   42.9360 H   0  0  0  0  0  0  0  0  0  0  0  0
   37.8760   29.9840   44.1900 H   0  0  0  0  0  0  0  0  0  0  0  0
   35.8570   28.1980   41.8300 O   0  0  0  0  0  0  0  0  0  0  0  0
   34.4790   29.2680   39.8390 O   0  0  0  0  0  0  0  0  0  0  0  0
   35.7670   29.3980   40.6160 P   0  0  1  0  0  0  0  0  0  0  0  0
   35.7570   30.9280   41.3400 O   0  0  0  0  0  0  0  0  0  0  0  0
   35.1340   30.9700   42.1050 H   0  0  0  0  0  0  0  0  0  0  0  0
   37.0730   29.3020   39.5660 O   0  0  0  0  0  0  0  0  0  0  0  0
   36.6160   28.8640   38.3270 C   0  0  0  0  0  2  0  0  0  0  0  0
   36.8340   29.9340   37.2630 C   0  0  0  0  0  2  0  0  0  0  0  0
   37.9160   30.1340   37.1190 H   0  0  0  0  0  0  0  0  0  0  0  0
  1  6  1  0  0  0  0
  1 11  1  0  0  0  0
  2  1  2  0  0  0  0
  3  2  1  0  0  0  0
  3  4  2  0  0  0  0
  4  5  1  0  0  0  0
  5  8  1  0  0  0  0
  5  6  2  0  0  0  0
  7  3  1  0  0  0  0
  9 12  1  0  0  0  0
  9 11  1  0  0  0  0
 10  9  2  0  0  0  0
 11 13  1  0  0  0  0
 14  2  1  0  0  0  0
 16 15  2  6  0  0  0
 16 17  1  0  0  0  0
 16 14  1  0  0  0  0
 17 18  1  0  0  0  0
 19 16  1  0  0  0  0
 20 19  1  0  0  0  0
 21 20  1  0  0  0  0
 22 21  1  0  0  0  0
M  END
>  <minimizedAffinity>
-4.15044212

$$$$

 OpenBabel03252507123D

 22 22  0  0  0  0  0  0  0  0999 V2000
   37.2730   31.9570   39.6310 C   0  0  0  0  0  0  0  0  0  0  0  0
   37.2400   30.6260   40.0070 C   0  0  0  0  0  0  0  0  0  0  0  0
   37.2650   29.6440   39.0090 C   0  0  0  0  0  0  0  0  0  0  0  0
   37.3190   30.0290   37.7190 N   0  0  0  0  0  0  0  0  0  0  0  0
   37.3510   31.3290   37.3740 C   0  0  0  0  0  0  0  0  0  0  0  0
   37.3270   32.2940   38.3440 N   0  0  0  0  0  0  0  0  0  0  0  0
   37.2360   28.6470   39.4000 H   0  0  0  0  0  0  0  0  0  0  0  0
   37.3940   31.6260   36.3320 H   0  0  0  0  0  0  0  0  0  0  0  0
   38.5330   33.8380   40.6450 C   0  0  0  0  0  0  0  0  0  0  0  0
   39.6550   33.2330   40.5980 O   0  0  0  0  0  0  0  0  0  0  0  0
   37.2720   33.2730   40.1640 N   0  0  0  0  0  0  0  0  0  0  0  0
   38.5200   34.8400   41.0710 H   0  0  0  0  0  0  0  0  0  0  0  0
   36.4410   33.8970   40.2500 H   0  0  0  0  0  0  0  0  0  0  0  0
   37.1860   30.3790   41.3600 O   0  0  0  0  0  0  0  0  0  0  0  0
   39.3310   28.8290   41.3920 O   0  0  0  0  0  0  0  0  0  0  0  0
   38.5480   29.8150   42.2250 P   0  0  1  0  0  0  0  0  0  0  0  0
   39.5810   31.1160   42.5540 O   0  0  0  0  0  0  0  0  0  0  0  0
   39.7160   31.6890   41.7610 H   0  0  0  0  0  0  0  0  0  0  0  0
   38.0970   29.0990   43.6740 O   0  0  0  0  0  0  0  0  0  0  0  0
   37.9810   27.7270   43.4750 C   0  0  0  0  0  2  0  0  0  0  0  0
   36.5310   27.3430   43.2000 C   0  0  0  0  0  2  0  0  0  0  0  0
   36.1730   27.8040   42.2560 H   0  0  0  0  0  0  0  0  0  0  0  0
  1  2  1  0  0  0  0
  1 11  1  0  0  0  0
  2 14  1  0  0  0  0
  3  7  1  0  0  0  0
  3  2  2  0  0  0  0
  4  3  1  0  0  0  0
  5  4  2  0  0  0  0
  5  6  1  0  0  0  0
  6  1  2  0  0  0  0
  8  5  1  0  0  0  0
  9 12  1  0  0  0  0
 10  9  2  0  0  0  0
 11 13  1  0  0  0  0
 11  9  1  0  0  0  0
 14 16  1  0  0  0  0
 16 15  2  6  0  0  0
 16 17  1  0  0  0  0
 16 19  1  0  0  0  0
 18 17  1  0  0  0  0
 20 19  1  0  0  0  0
 21 20  1  0  0  0  0
 22 21  1  0  0  0  0
M  END
>  <minimizedAffinity>
-4.14422798

$$$$

 OpenBabel03252507123D

 22 22  0  0  0  0  0  0  0  0999 V2000
   38.1900   27.0180   41.3620 C   0  0  0  0  0  0  0  0  0  0  0  0
   37.6130   28.1350   41.9390 C   0  0  0  0  0  0  0  0  0  0  0  0
   38.4080   28.9680   42.7370 C   0  0  0  0  0  0  0  0  0  0  0  0
   39.7050   28.6520   42.9140 N   0  0  0  0  0  0  0  0  0  0  0  0
   40.2480   27.5610   42.3430 C   0  0  0  0  0  0  0  0  0  0  0  0
   39.4770   26.7430   41.5630 N   0  0  0  0  0  0  0  0  0  0  0  0
   37.8710   29.8030   43.1370 H   0  0  0  0  0  0  0  0  0  0  0  0
   41.2940   27.3180   42.4940 H   0  0  0  0  0  0  0  0  0  0  0  0
   37.1700   24.7710   41.0980 C   0  0  0  0  0  0  0  0  0  0  0  0
   36.7580   24.7150   42.3030 O   0  0  0  0  0  0  0  0  0  0  0  0
   37.8950   25.9080   40.5270 N   0  0  0  0  0  0  0  0  0  0  0  0
   36.9670   23.9150   40.4570 H   0  0  0  0  0  0  0  0  0  0  0  0
   38.1490   25.8160   39.5200 H   0  0  0  0  0  0  0  0  0  0  0  0
   36.2770   28.3340   41.6720 O   0  0  0  0  0  0  0  0  0  0  0  0
   34.4100   29.1480   39.9820 O   0  0  0  0  0  0  0  0  0  0  0  0
   35.7520   29.5230   40.5620 P   0  0  1  0  0  0  0  0  0  0  0  0
   35.5480   30.9950   41.3720 O   0  0  0  0  0  0  0  0  0  0  0  0
   35.0610   30.8830   42.2250 H   0  0  0  0  0  0  0  0  0  0  0  0
   36.8640   29.7340   39.3230 O   0  0  0  0  0  0  0  0  0  0  0  0
   37.2320   31.0760   39.2800 C   0  0  0  0  0  2  0  0  0  0  0  0
   37.6900   31.4640   37.8780 C   0  0  0  0  0  2  0  0  0  0  0  0
   36.8580   31.3680   37.1510 H   0  0  0  0  0  0  0  0  0  0  0  0
  1  6  2  0  0  0  0
  1  2  1  0  0  0  0
  2  3  2  0  0  0  0
  3  4  1  0  0  0  0
  3  7  1  0  0  0  0
  5  8  1  0  0  0  0
  5  4  2  0  0  0  0
  6  5  1  0  0  0  0
  9 10  2  0  0  0  0
 11  9  1  0  0  0  0
 11  1  1  0  0  0  0
 12  9  1  0  0  0  0
 13 11  1  0  0  0  0
 14  2  1  0  0  0  0
 16 15  2  6  0  0  0
 16 17  1  0  0  0  0
 16 14  1  0  0  0  0
 17 18  1  0  0  0  0
 19 16  1  0  0  0  0
 20 19  1  0  0  0  0
 21 20  1  0  0  0  0
 22 21  1  0  0  0  0
M  END
>  <minimizedAffinity>
-4.11181688

$$$$

 OpenBabel03252507123D

 22 22  0  0  0  0  0  0  0  0999 V2000
   37.3240   28.2180   40.9830 C   0  0  0  0  0  0  0  0  0  0  0  0
   37.9420   29.3020   41.5810 C   0  0  0  0  0  0  0  0  0  0  0  0
   38.1220   29.2920   42.9700 C   0  0  0  0  0  0  0  0  0  0  0  0
   37.6880   28.2290   43.6740 N   0  0  0  0  0  0  0  0  0  0  0  0
   37.0890   27.1840   43.0730 C   0  0  0  0  0  0  0  0  0  0  0  0
   36.9100   27.1880   41.7160 N   0  0  0  0  0  0  0  0  0  0  0  0
   38.6080   30.1720   43.3360 H   0  0  0  0  0  0  0  0  0  0  0  0
   36.7440   26.3340   43.6510 H   0  0  0  0  0  0  0  0  0  0  0  0
   35.6070   28.1340   39.1930 C   0  0  0  0  0  0  0  0  0  0  0  0
   34.8160   28.9400   39.7870 O   0  0  0  0  0  0  0  0  0  0  0  0
   36.9090   27.7210   39.7190 N   0  0  0  0  0  0  0  0  0  0  0  0
   35.2870   27.7310   38.2340 H   0  0  0  0  0  0  0  0  0  0  0  0
   37.4520   27.0720   39.1100 H   0  0  0  0  0  0  0  0  0  0  0  0
   38.3350   30.3170   40.7380 O   0  0  0  0  0  0  0  0  0  0  0  0
   36.9340   31.4380   38.7920 O   0  0  0  0  0  0  0  0  0  0  0  0
   37.2570   31.5560   40.2620 P   0  0  1  0  0  0  0  0  0  0  0  0
   35.7990   31.3840   41.1050 O   0  0  0  0  0  0  0  0  0  0  0  0
   35.4850   30.4480   41.1120 H   0  0  0  0  0  0  0  0  0  0  0  0
   37.8940   33.0750   40.5820 O   0  0  0  0  0  0  0  0  0  0  0  0
   39.2640   32.9470   40.7940 C   0  0  0  0  0  2  0  0  0  0  0  0
   40.0440   33.4340   39.5770 C   0  0  0  0  0  2  0  0  0  0  0  0
   39.8770   34.5170   39.4080 H   0  0  0  0  0  0  0  0  0  0  0  0
  1  2  2  0  0  0  0
  1  6  1  0  0  0  0
  2  3  1  0  0  0  0
  3  7  1  0  0  0  0
  3  4  2  0  0  0  0
  5  8  1  0  0  0  0
  5  4  1  0  0  0  0
  6  5  2  0  0  0  0
  9 11  1  0  0  0  0
  9 10  2  0  0  0  0
 11  1  1  0  0  0  0
 12  9  1  0  0  0  0
 13 11  1  0  0  0  0
 14  2  1  0  0  0  0
 16 15  2  6  0  0  0
 16 19  1  0  0  0  0
 16 14  1  0  0  0  0
 16 17  1  0  0  0  0
 17 18  1  0  0  0  0
 19 20  1  0  0  0  0
 21 20  1  0  0  0  0
 22 21  1  0  0  0  0
M  END
>  <minimizedAffinity>
-4.10433292

$$$$

 OpenBabel03252507123D

 22 22  0  0  0  0  0  0  0  0999 V2000
   36.9580   27.2110   41.8400 C   0  0  0  0  0  0  0  0  0  0  0  0
   37.3250   27.4180   40.5220 C   0  0  0  0  0  0  0  0  0  0  0  0
   37.5880   26.3040   39.7150 C   0  0  0  0  0  0  0  0  0  0  0  0
   37.4760   25.0730   40.2480 N   0  0  0  0  0  0  0  0  0  0  0  0
   37.1170   24.8930   41.5330 C   0  0  0  0  0  0  0  0  0  0  0  0
   36.8590   25.9760   42.3280 N   0  0  0  0  0  0  0  0  0  0  0  0
   37.8630   26.5680   38.7140 H   0  0  0  0  0  0  0  0  0  0  0  0
   37.0310   23.8960   41.9510 H   0  0  0  0  0  0  0  0  0  0  0  0
   37.6020   28.7490   43.6780 C   0  0  0  0  0  0  0  0  0  0  0  0
   38.7850   28.9290   43.2370 O   0  0  0  0  0  0  0  0  0  0  0  0
   36.6000   27.9040   43.0270 N   0  0  0  0  0  0  0  0  0  0  0  0
   37.3270   29.2600   44.5980 H   0  0  0  0  0  0  0  0  0  0  0  0
   35.6690   27.8720   43.4960 H   0  0  0  0  0  0  0  0  0  0  0  0
   37.3990   28.7300   40.1120 O   0  0  0  0  0  0  0  0  0  0  0  0
   34.8250   28.7800   39.4960 O   0  0  0  0  0  0  0  0  0  0  0  0
   35.9940   29.6670   39.8470 P   0  0  1  0  0  0  0  0  0  0  0  0
   35.5880   30.4830   41.2730 O   0  0  0  0  0  0  0  0  0  0  0  0
   35.6300   29.8900   42.0620 H   0  0  0  0  0  0  0  0  0  0  0  0
   36.2350   30.7940   38.6260 O   0  0  0  0  0  0  0  0  0  0  0  0
   37.4870   31.3770   38.8000 C   0  0  0  0  0  2  0  0  0  0  0  0
   37.3500   32.7980   39.3370 C   0  0  0  0  0  2  0  0  0  0  0  0
   36.8890   32.7950   40.3460 H   0  0  0  0  0  0  0  0  0  0  0  0
  1  6  1  0  0  0  0
  1 11  1  0  0  0  0
  2  1  2  0  0  0  0
  3  4  2  0  0  0  0
  3  2  1  0  0  0  0
  4  5  1  0  0  0  0
  5  8  1  0  0  0  0
  5  6  2  0  0  0  0
  7  3  1  0  0  0  0
  9 12  1  0  0  0  0
 10  9  2  0  0  0  0
 11 13  1  0  0  0  0
 11  9  1  0  0  0  0
 14  2  1  0  0  0  0
 16 15  2  6  0  0  0
 16 14  1  0  0  0  0
 16 17  1  0  0  0  0
 17 18  1  0  0  0  0
 19 20  1  0  0  0  0
 19 16  1  0  0  0  0
 20 21  1  0  0  0  0
 21 22  1  0  0  0  0
M  END
>  <minimizedAffinity>
-4.00964355

$$$$

 OpenBabel03252507123D

 22 22  0  0  0  0  0  0  0  0999 V2000
   36.4810   29.5840   38.9590 C   0  0  0  0  0  0  0  0  0  0  0  0
   36.4030   29.8820   40.3080 C   0  0  0  0  0  0  0  0  0  0  0  0
   36.7050   31.1830   40.7280 C   0  0  0  0  0  0  0  0  0  0  0  0
   37.0610   32.0980   39.8050 N   0  0  0  0  0  0  0  0  0  0  0  0
   37.1300   31.7880   38.4970 C   0  0  0  0  0  0  0  0  0  0  0  0
   36.8370   30.5180   38.0810 N   0  0  0  0  0  0  0  0  0  0  0  0
   36.6160   31.3140   41.7870 H   0  0  0  0  0  0  0  0  0  0  0  0
   37.4190   32.5330   37.7650 H   0  0  0  0  0  0  0  0  0  0  0  0
   34.9420   28.0710   37.7350 C   0  0  0  0  0  0  0  0  0  0  0  0
   33.8890   28.5860   38.2360 O   0  0  0  0  0  0  0  0  0  0  0  0
   36.3020   28.5220   38.0330 N   0  0  0  0  0  0  0  0  0  0  0  0
   34.8150   27.2420   37.0400 H   0  0  0  0  0  0  0  0  0  0  0  0
   37.0620   28.0160   37.5300 H   0  0  0  0  0  0  0  0  0  0  0  0
   36.0260   28.8490   41.1370 O   0  0  0  0  0  0  0  0  0  0  0  0
   38.5070   28.1660   41.7550 O   0  0  0  0  0  0  0  0  0  0  0  0
   37.0970   28.1910   42.2940 P   0  0  1  0  0  0  0  0  0  0  0  0
   37.1100   29.1760   43.6700 O   0  0  0  0  0  0  0  0  0  0  0  0
   37.1810   30.1340   43.4380 H   0  0  0  0  0  0  0  0  0  0  0  0
   36.6340   26.6400   42.7400 O   0  0  0  0  0  0  0  0  0  0  0  0
   37.5690   25.7370   42.2440 C   0  0  0  0  0  2  0  0  0  0  0  0
   36.8780   24.4960   41.6900 C   0  0  0  0  0  2  0  0  0  0  0  0
   36.2370   24.7550   40.8230 H   0  0  0  0  0  0  0  0  0  0  0  0
  1  2  1  0  0  0  0
  2  3  2  0  0  0  0
  2 14  1  0  0  0  0
  3  7  1  0  0  0  0
  4  3  1  0  0  0  0
  5  4  2  0  0  0  0
  6  5  1  0  0  0  0
  6  1  2  0  0  0  0
  8  5  1  0  0  0  0
  9 11  1  0  0  0  0
  9 10  2  0  0  0  0
 11  1  1  0  0  0  0
 12  9  1  0  0  0  0
 13 11  1  0  0  0  0
 14 16  1  0  0  0  0
 16 15  2  6  0  0  0
 16 19  1  0  0  0  0
 16 17  1  0  0  0  0
 18 17  1  0  0  0  0
 20 19  1  0  0  0  0
 21 20  1  0  0  0  0
 22 21  1  0  0  0  0
M  END
>  <minimizedAffinity>
-3.99893618

$$$$
