
 OpenBabel03242514213D

 43 44  0  0  0  0  0  0  0  0999 V2000
   37.2090   29.6300   41.1440 C   0  0  0  0  0  0  0  0  0  0  0  0
   38.2090   30.4540   41.6040 C   0  0  0  0  0  0  0  0  0  0  0  0
   38.9200   30.0160   42.6890 C   0  0  0  0  0  0  0  0  0  0  0  0
   38.6260   28.8270   43.2520 N   0  0  0  0  0  0  0  0  0  0  0  0
   37.6620   28.0320   42.8080 C   0  0  0  0  0  0  0  0  0  0  0  0
   36.9700   28.4510   41.7600 N   0  0  0  0  0  0  0  0  0  0  0  0
   39.7350   30.5100   43.1980 H   0  0  0  0  0  0  0  0  0  0  0  0
   37.4070   27.0750   43.2410 H   0  0  0  0  0  0  0  0  0  0  0  0
   36.4930   30.0650   39.9370 C   0  0  0  0  0  0  0  0  0  0  0  0
   35.0790   29.5620   39.9250 C   0  0  0  0  0  0  0  0  0  0  0  0
   34.8220   28.6240   38.8310 C   0  0  0  0  0  0  0  0  0  0  0  0
   35.1760   29.2180   37.4840 C   0  0  0  0  0  0  0  0  0  0  0  0
   36.4580   29.9570   37.4750 C   0  0  0  0  0  0  0  0  0  0  0  0
   37.2640   29.6790   38.7260 C   0  0  0  0  0  0  0  0  0  0  0  0
   36.3600   31.1620   39.9900 H   0  0  0  0  0  0  0  0  0  0  0  0
   34.3350   30.3770   39.8780 H   0  0  0  0  0  0  0  0  0  0  0  0
   34.8930   29.0590   40.8960 H   0  0  0  0  0  0  0  0  0  0  0  0
   35.4630   27.7250   38.9460 H   0  0  0  0  0  0  0  0  0  0  0  0
   33.7740   28.3070   38.7590 H   0  0  0  0  0  0  0  0  0  0  0  0
   35.2490   28.3400   36.7850 H   0  0  0  0  0  0  0  0  0  0  0  0
   34.3470   29.8340   37.0720 H   0  0  0  0  0  0  0  0  0  0  0  0
   37.1090   29.7490   36.5960 H   0  0  0  0  0  0  0  0  0  0  0  0
   36.2160   31.0480   37.5190 H   0  0  0  0  0  0  0  0  0  0  0  0
   37.3950   28.5600   38.7530 H   0  0  0  0  0  0  0  0  0  0  0  0
   38.2500   30.1710   38.6580 H   0  0  0  0  0  0  0  0  0  0  0  0
   38.6440   31.6450   41.1890 O   0  0  0  0  0  0  0  0  0  0  0  0
   39.8460   32.1100   40.7340 C   0  0  0  0  0  0  0  0  0  0  0  0
   40.7030   31.4390   40.7080 H   0  0  0  0  0  0  0  0  0  0  0  0
   40.1570   32.9570   41.4080 H   0  0  0  0  0  0  0  0  0  0  0  0
   39.7610   32.7370   39.3530 C   0  0  0  0  0  0  0  0  0  0  0  0
   39.6920   31.8780   38.6440 H   0  0  0  0  0  0  0  0  0  0  0  0
   38.8120   33.2800   39.2590 H   0  0  0  0  0  0  0  0  0  0  0  0
   40.9330   33.5150   39.0240 N   0  0  0  0  0  0  0  0  0  0  0  0
   40.6270   34.4660   38.7910 H   0  0  0  0  0  0  0  0  0  0  0  0
   41.5300   32.9290   37.4930 S   0  0  0  0  0  0  0  0  0  0  0  0
   42.2660   34.0080   36.7580 O   0  0  0  0  0  0  0  0  0  0  0  0
   42.8640   34.6450   37.2330 H   0  0  0  0  0  0  0  0  0  0  0  0
   40.3440   32.4760   36.7040 O   0  0  0  0  0  0  0  0  0  0  0  0
   39.9060   33.0720   36.0520 H   0  0  0  0  0  0  0  0  0  0  0  0
   42.5230   31.6040   37.7090 O   0  0  0  0  0  0  0  0  0  0  0  0
   42.1880   30.6830   36.7240 C   0  0  0  0  0  2  0  0  0  0  0  0
   43.4030   30.3850   35.8720 C   0  0  0  0  0  2  0  0  0  0  0  0
   43.1060   30.1620   34.8320 H   0  0  0  0  0  0  0  0  0  0  0  0
  1  2  2  0  0  0  0
  1  6  1  0  0  0  0
  2  3  1  0  0  0  0
  3  7  1  0  0  0  0
  3  4  2  0  0  0  0
  5  8  1  0  0  0  0
  5  4  1  0  0  0  0
  6  5  2  0  0  0  0
  9 15  1  0  0  0  0
  9  1  1  0  0  0  0
 10  9  1  0  0  0  0
 10 17  1  0  0  0  0
 11 18  1  0  0  0  0
 11 10  1  0  0  0  0
 12 11  1  0  0  0  0
 13 12  1  0  0  0  0
 13 23  1  0  0  0  0
 13 14  1  0  0  0  0
 14 24  1  0  0  0  0
 14  9  1  0  0  0  0
 16 10  1  0  0  0  0
 19 11  1  0  0  0  0
 20 12  1  0  0  0  0
 21 12  1  0  0  0  0
 22 13  1  0  0  0  0
 25 14  1  0  0  0  0
 26  2  1  0  0  0  0
 27 26  1  0  0  0  0
 27 29  1  0  0  0  0
 28 27  1  0  0  0  0
 30 27  1  0  0  0  0
 31 30  1  0  0  0  0
 32 30  1  0  0  0  0
 33 30  1  0  0  0  0
 34 33  1  0  0  0  0
 35 40  1  0  0  0  0
 35 33  1  0  0  0  0
 36 37  1  0  0  0  0
 36 35  1  0  0  0  0
 38 35  1  0  0  0  0
 39 38  1  0  0  0  0
 41 40  1  0  0  0  0
 42 41  1  0  0  0  0
 43 42  1  0  0  0  0
M  END
>  <minimizedAffinity>
-5.30873442

$$$$

 OpenBabel03242514213D

 43 44  0  0  0  0  0  0  0  0999 V2000
   39.0570   25.8110   42.3140 C   0  0  0  0  0  0  0  0  0  0  0  0
   39.3040   26.8790   43.1430 C   0  0  0  0  0  0  0  0  0  0  0  0
   40.5620   26.9660   43.6790 C   0  0  0  0  0  0  0  0  0  0  0  0
   41.4860   26.0300   43.3840 N   0  0  0  0  0  0  0  0  0  0  0  0
   41.2470   25.0000   42.5840 C   0  0  0  0  0  0  0  0  0  0  0  0
   40.0330   24.9100   42.0630 N   0  0  0  0  0  0  0  0  0  0  0  0
   40.9520   27.7180   44.3490 H   0  0  0  0  0  0  0  0  0  0  0  0
   41.9700   24.2380   42.3310 H   0  0  0  0  0  0  0  0  0  0  0  0
   37.7310   25.7560   41.6810 C   0  0  0  0  0  0  0  0  0  0  0  0
   37.0980   24.4060   41.8480 C   0  0  0  0  0  0  0  0  0  0  0  0
   36.9080   23.7090   40.5750 C   0  0  0  0  0  0  0  0  0  0  0  0
   36.1120   24.5400   39.5910 C   0  0  0  0  0  0  0  0  0  0  0  0
   36.5160   25.9630   39.5470 C   0  0  0  0  0  0  0  0  0  0  0  0
   37.8310   26.1860   40.2610 C   0  0  0  0  0  0  0  0  0  0  0  0
   37.0490   26.4160   42.2490 H   0  0  0  0  0  0  0  0  0  0  0  0
   36.1300   24.4500   42.3780 H   0  0  0  0  0  0  0  0  0  0  0  0
   37.7590   23.8030   42.5050 H   0  0  0  0  0  0  0  0  0  0  0  0
   37.8920   23.5250   40.0940 H   0  0  0  0  0  0  0  0  0  0  0  0
   36.3740   22.7550   40.6700 H   0  0  0  0  0  0  0  0  0  0  0  0
   36.3020   24.0700   38.5870 H   0  0  0  0  0  0  0  0  0  0  0  0
   35.0160   24.4310   39.7460 H   0  0  0  0  0  0  0  0  0  0  0  0
   36.6060   26.3910   38.5230 H   0  0  0  0  0  0  0  0  0  0  0  0
   35.7610   26.5430   40.1350 H   0  0  0  0  0  0  0  0  0  0  0  0
   38.5660   25.4990   39.7520 H   0  0  0  0  0  0  0  0  0  0  0  0
   38.1540   27.2350   40.1420 H   0  0  0  0  0  0  0  0  0  0  0  0
   38.5350   27.8900   43.5490 O   0  0  0  0  0  0  0  0  0  0  0  0
   38.4630   29.2170   43.2260 C   0  0  0  0  0  0  0  0  0  0  0  0
   39.3710   29.7490   42.9480 H   0  0  0  0  0  0  0  0  0  0  0  0
   38.0680   29.7620   44.1270 H   0  0  0  0  0  0  0  0  0  0  0  0
   37.4520   29.5120   42.1310 C   0  0  0  0  0  0  0  0  0  0  0  0
   37.1470   28.5130   41.7360 H   0  0  0  0  0  0  0  0  0  0  0  0
   36.5490   29.9460   42.5780 H   0  0  0  0  0  0  0  0  0  0  0  0
   38.0160   30.2840   41.0480 N   0  0  0  0  0  0  0  0  0  0  0  0
   38.6900   30.9460   41.4490 H   0  0  0  0  0  0  0  0  0  0  0  0
   36.7610   31.3400   40.4560 S   0  0  0  0  0  0  0  0  0  0  0  0
   37.1590   32.7780   40.6020 O   0  0  0  0  0  0  0  0  0  0  0  0
   38.0890   33.0800   40.4240 H   0  0  0  0  0  0  0  0  0  0  0  0
   35.5320   31.0540   41.2580 O   0  0  0  0  0  0  0  0  0  0  0  0
   35.3020   31.5930   42.0510 H   0  0  0  0  0  0  0  0  0  0  0  0
   36.4050   31.0050   38.8600 O   0  0  0  0  0  0  0  0  0  0  0  0
   36.8650   29.7190   38.6030 C   0  0  0  0  0  2  0  0  0  0  0  0
   36.1840   29.1730   37.3660 C   0  0  0  0  0  2  0  0  0  0  0  0
   36.0570   28.0780   37.4420 H   0  0  0  0  0  0  0  0  0  0  0  0
  1  2  1  0  0  0  0
  2 26  1  0  0  0  0
  2  3  2  0  0  0  0
  3  7  1  0  0  0  0
  4  3  1  0  0  0  0
  5  4  2  0  0  0  0
  6  1  2  0  0  0  0
  6  5  1  0  0  0  0
  8  5  1  0  0  0  0
  9 10  1  0  0  0  0
  9 15  1  0  0  0  0
  9  1  1  0  0  0  0
 10 16  1  0  0  0  0
 10 17  1  0  0  0  0
 11 19  1  0  0  0  0
 11 10  1  0  0  0  0
 12 21  1  0  0  0  0
 12 11  1  0  0  0  0
 13 12  1  0  0  0  0
 13 23  1  0  0  0  0
 13 14  1  0  0  0  0
 14  9  1  0  0  0  0
 18 11  1  0  0  0  0
 20 12  1  0  0  0  0
 22 13  1  0  0  0  0
 24 14  1  0  0  0  0
 25 14  1  0  0  0  0
 27 26  1  0  0  0  0
 27 29  1  0  0  0  0
 28 27  1  0  0  0  0
 30 32  1  0  0  0  0
 30 27  1  0  0  0  0
 31 30  1  0  0  0  0
 33 34  1  0  0  0  0
 33 30  1  0  0  0  0
 35 36  1  0  0  0  0
 35 33  1  0  0  0  0
 35 38  1  0  0  0  0
 37 36  1  0  0  0  0
 38 39  1  0  0  0  0
 40 35  1  0  0  0  0
 41 40  1  0  0  0  0
 42 43  1  0  0  0  0
 42 41  1  0  0  0  0
M  END
>  <minimizedAffinity>
-5.28675365

$$$$

 OpenBabel03242514213D

 43 44  0  0  0  0  0  0  0  0999 V2000
   38.0560   27.3550   41.9120 C   0  0  0  0  0  0  0  0  0  0  0  0
   37.6670   28.6710   42.0040 C   0  0  0  0  0  0  0  0  0  0  0  0
   38.6240   29.5710   42.3930 C   0  0  0  0  0  0  0  0  0  0  0  0
   39.8750   29.1490   42.6640 N   0  0  0  0  0  0  0  0  0  0  0  0
   40.2490   27.8800   42.5750 C   0  0  0  0  0  0  0  0  0  0  0  0
   39.3290   27.0050   42.2000 N   0  0  0  0  0  0  0  0  0  0  0  0
   38.5220   30.6380   42.5280 H   0  0  0  0  0  0  0  0  0  0  0  0
   41.2450   27.5170   42.7850 H   0  0  0  0  0  0  0  0  0  0  0  0
   37.0510   26.3990   41.4250 C   0  0  0  0  0  0  0  0  0  0  0  0
   37.0680   25.1290   42.2230 C   0  0  0  0  0  0  0  0  0  0  0  0
   37.4680   23.9670   41.4270 C   0  0  0  0  0  0  0  0  0  0  0  0
   36.5980   23.8000   40.1990 C   0  0  0  0  0  0  0  0  0  0  0  0
   36.3230   25.0660   39.4850 C   0  0  0  0  0  0  0  0  0  0  0  0
   37.2280   26.1790   39.9660 C   0  0  0  0  0  0  0  0  0  0  0  0
   36.0470   26.8110   41.6460 H   0  0  0  0  0  0  0  0  0  0  0  0
   36.0990   24.9130   42.7070 H   0  0  0  0  0  0  0  0  0  0  0  0
   37.7830   25.2670   43.0600 H   0  0  0  0  0  0  0  0  0  0  0  0
   38.5030   24.1040   41.0510 H   0  0  0  0  0  0  0  0  0  0  0  0
   37.4100   23.0170   41.9730 H   0  0  0  0  0  0  0  0  0  0  0  0
   37.1740   23.1100   39.5220 H   0  0  0  0  0  0  0  0  0  0  0  0
   35.6610   23.2470   40.4260 H   0  0  0  0  0  0  0  0  0  0  0  0
   36.4140   25.0060   38.3770 H   0  0  0  0  0  0  0  0  0  0  0  0
   35.2880   25.3890   39.7630 H   0  0  0  0  0  0  0  0  0  0  0  0
   38.2770   25.7980   39.8080 H   0  0  0  0  0  0  0  0  0  0  0  0
   37.0640   27.0890   39.3620 H   0  0  0  0  0  0  0  0  0  0  0  0
   36.4980   29.2730   41.7820 O   0  0  0  0  0  0  0  0  0  0  0  0
   35.8180   29.6390   40.6540 C   0  0  0  0  0  0  0  0  0  0  0  0
   34.7670   29.9120   40.7290 H   0  0  0  0  0  0  0  0  0  0  0  0
   35.8430   28.7640   39.9470 H   0  0  0  0  0  0  0  0  0  0  0  0
   36.4910   30.7650   39.8880 C   0  0  0  0  0  0  0  0  0  0  0  0
   37.5330   30.4100   39.7000 H   0  0  0  0  0  0  0  0  0  0  0  0
   36.0250   30.8610   38.9000 H   0  0  0  0  0  0  0  0  0  0  0  0
   36.5510   31.9930   40.6460 N   0  0  0  0  0  0  0  0  0  0  0  0
   35.7110   32.5410   40.4280 H   0  0  0  0  0  0  0  0  0  0  0  0
   37.8230   32.9670   39.9560 S   0  0  0  0  0  0  0  0  0  0  0  0
   38.2160   34.0720   40.8890 O   0  0  0  0  0  0  0  0  0  0  0  0
   38.2770   33.9260   41.8700 H   0  0  0  0  0  0  0  0  0  0  0  0
   37.2970   33.5280   38.6730 O   0  0  0  0  0  0  0  0  0  0  0  0
   36.8940   34.4280   38.6370 H   0  0  0  0  0  0  0  0  0  0  0  0
   39.1540   32.0310   39.5830 O   0  0  0  0  0  0  0  0  0  0  0  0
   40.1550   32.8990   39.1640 C   0  0  0  0  0  2  0  0  0  0  0  0
   40.6330   32.4960   37.7850 C   0  0  0  0  0  2  0  0  0  0  0  0
   41.7060   32.7300   37.6600 H   0  0  0  0  0  0  0  0  0  0  0  0
  1  2  2  0  0  0  0
  1  6  1  0  0  0  0
  2  3  1  0  0  0  0
  3  7  1  0  0  0  0
  3  4  2  0  0  0  0
  5  4  1  0  0  0  0
  5  8  1  0  0  0  0
  6  5  2  0  0  0  0
  9 15  1  0  0  0  0
  9  1  1  0  0  0  0
  9 10  1  0  0  0  0
 10 16  1  0  0  0  0
 10 17  1  0  0  0  0
 11 19  1  0  0  0  0
 11 10  1  0  0  0  0
 12 21  1  0  0  0  0
 12 11  1  0  0  0  0
 13 23  1  0  0  0  0
 13 14  1  0  0  0  0
 13 12  1  0  0  0  0
 14  9  1  0  0  0  0
 18 11  1  0  0  0  0
 20 12  1  0  0  0  0
 22 13  1  0  0  0  0
 24 14  1  0  0  0  0
 25 14  1  0  0  0  0
 26  2  1  0  0  0  0
 27 28  1  0  0  0  0
 27 26  1  0  0  0  0
 29 27  1  0  0  0  0
 30 33  1  0  0  0  0
 30 27  1  0  0  0  0
 31 30  1  0  0  0  0
 32 30  1  0  0  0  0
 34 33  1  0  0  0  0
 35 33  1  0  0  0  0
 35 36  1  0  0  0  0
 36 37  1  0  0  0  0
 38 35  1  0  0  0  0
 39 38  1  0  0  0  0
 40 35  1  0  0  0  0
 41 40  1  0  0  0  0
 42 41  1  0  0  0  0
 43 42  1  0  0  0  0
M  END
>  <minimizedAffinity>
-5.23917198

$$$$

 OpenBabel03242514213D

 43 44  0  0  0  0  0  0  0  0999 V2000
   36.8050   29.5210   40.1810 C   0  0  0  0  0  0  0  0  0  0  0  0
   37.1790   30.7580   39.7100 C   0  0  0  0  0  0  0  0  0  0  0  0
   36.9750   30.9970   38.3770 C   0  0  0  0  0  0  0  0  0  0  0  0
   36.4320   30.0420   37.5960 N   0  0  0  0  0  0  0  0  0  0  0  0
   36.0720   28.8500   38.0510 C   0  0  0  0  0  0  0  0  0  0  0  0
   36.2670   28.6120   39.3380 N   0  0  0  0  0  0  0  0  0  0  0  0
   37.2000   31.8940   37.8170 H   0  0  0  0  0  0  0  0  0  0  0  0
   35.6330   28.0690   37.4460 H   0  0  0  0  0  0  0  0  0  0  0  0
   36.9560   29.2870   41.6240 C   0  0  0  0  0  0  0  0  0  0  0  0
   38.3720   29.5040   42.0710 C   0  0  0  0  0  0  0  0  0  0  0  0
   39.0000   28.2780   42.5680 C   0  0  0  0  0  0  0  0  0  0  0  0
   38.1940   27.6410   43.6790 C   0  0  0  0  0  0  0  0  0  0  0  0
   36.7370   27.6150   43.4210 C   0  0  0  0  0  0  0  0  0  0  0  0
   36.4270   27.9440   41.9770 C   0  0  0  0  0  0  0  0  0  0  0  0
   36.4070   30.0840   42.1620 H   0  0  0  0  0  0  0  0  0  0  0  0
   38.4620   30.2880   42.8430 H   0  0  0  0  0  0  0  0  0  0  0  0
   38.9440   29.8870   41.2020 H   0  0  0  0  0  0  0  0  0  0  0  0
   39.0500   27.5230   41.7550 H   0  0  0  0  0  0  0  0  0  0  0  0
   40.0090   28.4320   42.9720 H   0  0  0  0  0  0  0  0  0  0  0  0
   38.5760   26.5850   43.7530 H   0  0  0  0  0  0  0  0  0  0  0  0
   38.4250   28.0900   44.6700 H   0  0  0  0  0  0  0  0  0  0  0  0
   36.2370   26.6510   43.6670 H   0  0  0  0  0  0  0  0  0  0  0  0
   36.2770   28.4440   44.0150 H   0  0  0  0  0  0  0  0  0  0  0  0
   37.0000   27.1860   41.3690 H   0  0  0  0  0  0  0  0  0  0  0  0
   35.3440   27.8350   41.7880 H   0  0  0  0  0  0  0  0  0  0  0  0
   37.7220   31.8150   40.3140 O   0  0  0  0  0  0  0  0  0  0  0  0
   38.2640   32.9880   39.8680 C   0  0  0  0  0  0  0  0  0  0  0  0
   37.9240   33.9300   40.2960 H   0  0  0  0  0  0  0  0  0  0  0  0
   38.0380   33.0680   38.7690 H   0  0  0  0  0  0  0  0  0  0  0  0
   39.7810   33.0150   39.9460 C   0  0  0  0  0  0  0  0  0  0  0  0
   40.0160   33.5110   40.9180 H   0  0  0  0  0  0  0  0  0  0  0  0
   40.1580   31.9890   40.0340 H   0  0  0  0  0  0  0  0  0  0  0  0
   40.3770   33.7840   38.8790 N   0  0  0  0  0  0  0  0  0  0  0  0
   39.6250   34.2780   38.3850 H   0  0  0  0  0  0  0  0  0  0  0  0
   40.9340   32.6530   37.6730 S   0  0  0  0  0  0  0  0  0  0  0  0
   42.0790   33.2240   36.8930 O   0  0  0  0  0  0  0  0  0  0  0  0
   42.7900   33.7620   37.3320 H   0  0  0  0  0  0  0  0  0  0  0  0
   39.7770   32.3690   36.7710 O   0  0  0  0  0  0  0  0  0  0  0  0
   39.6530   32.8640   35.9270 H   0  0  0  0  0  0  0  0  0  0  0  0
   41.3860   31.2070   38.3760 O   0  0  0  0  0  0  0  0  0  0  0  0
   40.6540   30.2060   37.7490 C   0  0  0  0  0  2  0  0  0  0  0  0
   40.3330   29.1110   38.7440 C   0  0  0  0  0  2  0  0  0  0  0  0
   40.2930   28.1270   38.2430 H   0  0  0  0  0  0  0  0  0  0  0  0
  1  9  1  0  0  0  0
  2  1  1  0  0  0  0
  2 26  1  0  0  0  0
  3  2  2  0  0  0  0
  4  5  2  0  0  0  0
  4  3  1  0  0  0  0
  5  6  1  0  0  0  0
  6  1  2  0  0  0  0
  7  3  1  0  0  0  0
  8  5  1  0  0  0  0
  9 14  1  0  0  0  0
  9 10  1  0  0  0  0
  9 15  1  0  0  0  0
 10 11  1  0  0  0  0
 10 16  1  0  0  0  0
 11 19  1  0  0  0  0
 11 12  1  0  0  0  0
 12 20  1  0  0  0  0
 12 21  1  0  0  0  0
 13 22  1  0  0  0  0
 13 12  1  0  0  0  0
 13 23  1  0  0  0  0
 14 13  1  0  0  0  0
 17 10  1  0  0  0  0
 18 11  1  0  0  0  0
 24 14  1  0  0  0  0
 25 14  1  0  0  0  0
 27 30  1  0  0  0  0
 27 28  1  0  0  0  0
 27 26  1  0  0  0  0
 29 27  1  0  0  0  0
 30 32  1  0  0  0  0
 30 31  1  0  0  0  0
 33 30  1  0  0  0  0
 34 33  1  0  0  0  0
 35 40  1  0  0  0  0
 35 33  1  0  0  0  0
 36 37  1  0  0  0  0
 36 35  1  0  0  0  0
 38 35  1  0  0  0  0
 39 38  1  0  0  0  0
 41 40  1  0  0  0  0
 41 42  1  0  0  0  0
 43 42  1  0  0  0  0
M  END
>  <minimizedAffinity>
-5.09786654

$$$$

 OpenBabel03242514213D

 43 44  0  0  0  0  0  0  0  0999 V2000
   38.4340   29.8030   41.1050 C   0  0  0  0  0  0  0  0  0  0  0  0
   39.0360   30.9100   40.5560 C   0  0  0  0  0  0  0  0  0  0  0  0
   38.2250   31.9750   40.2700 C   0  0  0  0  0  0  0  0  0  0  0  0
   36.9040   31.9050   40.5290 N   0  0  0  0  0  0  0  0  0  0  0  0
   36.3240   30.8370   41.0590 C   0  0  0  0  0  0  0  0  0  0  0  0
   37.1030   29.8030   41.3370 N   0  0  0  0  0  0  0  0  0  0  0  0
   38.4990   32.9270   39.8380 H   0  0  0  0  0  0  0  0  0  0  0  0
   35.2680   30.7560   41.2770 H   0  0  0  0  0  0  0  0  0  0  0  0
   39.3140   28.6870   41.4800 C   0  0  0  0  0  0  0  0  0  0  0  0
   38.6270   27.3640   41.3080 C   0  0  0  0  0  0  0  0  0  0  0  0
   38.4370   26.6570   42.5760 C   0  0  0  0  0  0  0  0  0  0  0  0
   39.7430   26.4740   43.3200 C   0  0  0  0  0  0  0  0  0  0  0  0
   40.6030   27.6780   43.3220 C   0  0  0  0  0  0  0  0  0  0  0  0
   39.8440   28.9000   42.8520 C   0  0  0  0  0  0  0  0  0  0  0  0
   40.1360   28.6310   40.7410 H   0  0  0  0  0  0  0  0  0  0  0  0
   39.1530   26.6960   40.6040 H   0  0  0  0  0  0  0  0  0  0  0  0
   37.6400   27.5550   40.8410 H   0  0  0  0  0  0  0  0  0  0  0  0
   37.7840   27.2540   43.2470 H   0  0  0  0  0  0  0  0  0  0  0  0
   38.0080   25.6530   42.4620 H   0  0  0  0  0  0  0  0  0  0  0  0
   39.4470   26.2290   44.3780 H   0  0  0  0  0  0  0  0  0  0  0  0
   40.2970   25.5760   42.9720 H   0  0  0  0  0  0  0  0  0  0  0  0
   41.0650   27.9190   44.3060 H   0  0  0  0  0  0  0  0  0  0  0  0
   41.4040   27.5180   42.5570 H   0  0  0  0  0  0  0  0  0  0  0  0
   38.9590   28.9850   43.5460 H   0  0  0  0  0  0  0  0  0  0  0  0
   40.4800   29.7980   42.9430 H   0  0  0  0  0  0  0  0  0  0  0  0
   40.3050   31.1670   40.2320 O   0  0  0  0  0  0  0  0  0  0  0  0
   41.3430   31.7810   40.8750 C   0  0  0  0  0  0  0  0  0  0  0  0
   42.0940   31.1740   41.3760 H   0  0  0  0  0  0  0  0  0  0  0  0
   40.9030   32.4290   41.6830 H   0  0  0  0  0  0  0  0  0  0  0  0
   42.1080   32.7480   39.9880 C   0  0  0  0  0  0  0  0  0  0  0  0
   42.5650   33.4890   40.6870 H   0  0  0  0  0  0  0  0  0  0  0  0
   42.9480   32.2230   39.5180 H   0  0  0  0  0  0  0  0  0  0  0  0
   41.2490   33.4520   39.0650 N   0  0  0  0  0  0  0  0  0  0  0  0
   40.3000   33.0740   39.1630 H   0  0  0  0  0  0  0  0  0  0  0  0
   41.6890   32.9430   37.4550 S   0  0  0  0  0  0  0  0  0  0  0  0
   42.3160   34.0700   36.6910 O   0  0  0  0  0  0  0  0  0  0  0  0
   42.9470   34.7030   37.1250 H   0  0  0  0  0  0  0  0  0  0  0  0
   40.4340   32.4890   36.7810 O   0  0  0  0  0  0  0  0  0  0  0  0
   39.9140   33.0990   36.2050 H   0  0  0  0  0  0  0  0  0  0  0  0
   42.7290   31.6380   37.5070 O   0  0  0  0  0  0  0  0  0  0  0  0
   42.1460   30.6270   36.7530 C   0  0  0  0  0  2  0  0  0  0  0  0
   43.1530   30.0920   35.7560 C   0  0  0  0  0  2  0  0  0  0  0  0
   42.6480   29.7570   34.8320 H   0  0  0  0  0  0  0  0  0  0  0  0
  1  6  1  0  0  0  0
  1  9  1  0  0  0  0
  2  1  2  0  0  0  0
  3  4  2  0  0  0  0
  3  2  1  0  0  0  0
  4  5  1  0  0  0  0
  5  8  1  0  0  0  0
  5  6  2  0  0  0  0
  7  3  1  0  0  0  0
  9 14  1  0  0  0  0
 10  9  1  0  0  0  0
 10 11  1  0  0  0  0
 11 18  1  0  0  0  0
 11 12  1  0  0  0  0
 12 13  1  0  0  0  0
 12 20  1  0  0  0  0
 13 22  1  0  0  0  0
 14 25  1  0  0  0  0
 14 13  1  0  0  0  0
 14 24  1  0  0  0  0
 15  9  1  0  0  0  0
 16 10  1  0  0  0  0
 17 10  1  0  0  0  0
 19 11  1  0  0  0  0
 21 12  1  0  0  0  0
 23 13  1  0  0  0  0
 26  2  1  0  0  0  0
 26 27  1  0  0  0  0
 27 28  1  0  0  0  0
 27 29  1  0  0  0  0
 30 31  1  0  0  0  0
 30 27  1  0  0  0  0
 32 30  1  0  0  0  0
 33 34  1  0  0  0  0
 33 30  1  0  0  0  0
 35 40  1  0  0  0  0
 35 33  1  0  0  0  0
 36 37  1  0  0  0  0
 36 35  1  0  0  0  0
 38 35  1  0  0  0  0
 39 38  1  0  0  0  0
 41 40  1  0  0  0  0
 42 41  1  0  0  0  0
 43 42  1  0  0  0  0
M  END
>  <minimizedAffinity>
-5.05955172

$$$$

 OpenBabel03242514213D

 43 44  0  0  0  0  0  0  0  0999 V2000
   37.7530   29.5550   39.9390 C   0  0  0  0  0  0  0  0  0  0  0  0
   38.4260   30.7090   39.6150 C   0  0  0  0  0  0  0  0  0  0  0  0
   38.0130   31.3670   38.4870 C   0  0  0  0  0  0  0  0  0  0  0  0
   36.9930   30.8770   37.7560 N   0  0  0  0  0  0  0  0  0  0  0  0
   36.3440   29.7640   38.0700 C   0  0  0  0  0  0  0  0  0  0  0  0
   36.7380   29.1220   39.1580 N   0  0  0  0  0  0  0  0  0  0  0  0
   38.4080   32.2800   38.0640 H   0  0  0  0  0  0  0  0  0  0  0  0
   35.5230   29.3510   37.5010 H   0  0  0  0  0  0  0  0  0  0  0  0
   38.1460   28.8860   41.1880 C   0  0  0  0  0  0  0  0  0  0  0  0
   37.9650   27.3990   41.0960 C   0  0  0  0  0  0  0  0  0  0  0  0
   36.9510   26.8960   42.0240 C   0  0  0  0  0  0  0  0  0  0  0  0
   37.2460   27.2970   43.4530 C   0  0  0  0  0  0  0  0  0  0  0  0
   37.6790   28.7040   43.6010 C   0  0  0  0  0  0  0  0  0  0  0  0
   37.4260   29.4960   42.3360 C   0  0  0  0  0  0  0  0  0  0  0  0
   39.2420   28.9900   41.3060 H   0  0  0  0  0  0  0  0  0  0  0  0
   38.9050   26.8420   41.2590 H   0  0  0  0  0  0  0  0  0  0  0  0
   37.6650   27.1610   40.0550 H   0  0  0  0  0  0  0  0  0  0  0  0
   35.9620   27.3380   41.7800 H   0  0  0  0  0  0  0  0  0  0  0  0
   36.8600   25.8020   42.0270 H   0  0  0  0  0  0  0  0  0  0  0  0
   36.2770   27.1490   44.0070 H   0  0  0  0  0  0  0  0  0  0  0  0
   37.9570   26.5970   43.9440 H   0  0  0  0  0  0  0  0  0  0  0  0
   37.2070   29.2520   44.4480 H   0  0  0  0  0  0  0  0  0  0  0  0
   38.7920   28.7000   43.7260 H   0  0  0  0  0  0  0  0  0  0  0  0
   36.3210   29.3900   42.1360 H   0  0  0  0  0  0  0  0  0  0  0  0
   37.6770   30.5590   42.4980 H   0  0  0  0  0  0  0  0  0  0  0  0
   39.4420   31.3430   40.2010 O   0  0  0  0  0  0  0  0  0  0  0  0
   39.7750   32.6600   40.3590 C   0  0  0  0  0  0  0  0  0  0  0  0
   39.5710   33.1520   41.3080 H   0  0  0  0  0  0  0  0  0  0  0  0
   39.1970   33.2480   39.5930 H   0  0  0  0  0  0  0  0  0  0  0  0
   41.2310   32.9510   40.0390 C   0  0  0  0  0  0  0  0  0  0  0  0
   41.6830   33.2810   41.0050 H   0  0  0  0  0  0  0  0  0  0  0  0
   41.7390   32.0150   39.7750 H   0  0  0  0  0  0  0  0  0  0  0  0
   41.3850   34.0120   39.0700 N   0  0  0  0  0  0  0  0  0  0  0  0
   40.4560   34.4010   38.8760 H   0  0  0  0  0  0  0  0  0  0  0  0
   41.8050   33.2680   37.5490 S   0  0  0  0  0  0  0  0  0  0  0  0
   42.5290   34.2350   36.6630 O   0  0  0  0  0  0  0  0  0  0  0  0
   43.2030   34.8680   37.0280 H   0  0  0  0  0  0  0  0  0  0  0  0
   40.5260   32.8290   36.9090 O   0  0  0  0  0  0  0  0  0  0  0  0
   40.0650   33.3980   36.2480 H   0  0  0  0  0  0  0  0  0  0  0  0
   42.7360   31.9030   37.7900 O   0  0  0  0  0  0  0  0  0  0  0  0
   42.1450   30.8760   37.0650 C   0  0  0  0  0  2  0  0  0  0  0  0
   41.7350   29.7610   38.0030 C   0  0  0  0  0  2  0  0  0  0  0  0
   41.8090   28.7800   37.5000 H   0  0  0  0  0  0  0  0  0  0  0  0
  1  9  1  0  0  0  0
  2  1  1  0  0  0  0
  2 26  1  0  0  0  0
  3  2  2  0  0  0  0
  4  5  2  0  0  0  0
  4  3  1  0  0  0  0
  5  6  1  0  0  0  0
  6  1  2  0  0  0  0
  7  3  1  0  0  0  0
  8  5  1  0  0  0  0
  9 15  1  0  0  0  0
  9 14  1  0  0  0  0
 10  9  1  0  0  0  0
 10 16  1  0  0  0  0
 10 11  1  0  0  0  0
 11 19  1  0  0  0  0
 11 12  1  0  0  0  0
 12 13  1  0  0  0  0
 12 21  1  0  0  0  0
 12 20  1  0  0  0  0
 13 23  1  0  0  0  0
 13 22  1  0  0  0  0
 14 25  1  0  0  0  0
 14 13  1  0  0  0  0
 17 10  1  0  0  0  0
 18 11  1  0  0  0  0
 24 14  1  0  0  0  0
 26 27  1  0  0  0  0
 27 28  1  0  0  0  0
 29 27  1  0  0  0  0
 30 27  1  0  0  0  0
 30 31  1  0  0  0  0
 32 30  1  0  0  0  0
 33 30  1  0  0  0  0
 34 33  1  0  0  0  0
 35 40  1  0  0  0  0
 35 33  1  0  0  0  0
 36 37  1  0  0  0  0
 36 35  1  0  0  0  0
 38 35  1  0  0  0  0
 39 38  1  0  0  0  0
 41 40  1  0  0  0  0
 41 42  1  0  0  0  0
 43 42  1  0  0  0  0
M  END
>  <minimizedAffinity>
-4.97111988

$$$$

 OpenBabel03242514213D

 43 44  0  0  0  0  0  0  0  0999 V2000
   36.8560   26.2270   40.2540 C   0  0  0  0  0  0  0  0  0  0  0  0
   36.3240   26.8140   39.1300 C   0  0  0  0  0  0  0  0  0  0  0  0
   35.6810   25.9870   38.2480 C   0  0  0  0  0  0  0  0  0  0  0  0
   35.5950   24.6660   38.5030 N   0  0  0  0  0  0  0  0  0  0  0  0
   36.1080   24.1010   39.5870 C   0  0  0  0  0  0  0  0  0  0  0  0
   36.7320   24.8950   40.4430 N   0  0  0  0  0  0  0  0  0  0  0  0
   35.2020   26.2480   37.3150 H   0  0  0  0  0  0  0  0  0  0  0  0
   36.0510   23.0460   39.8140 H   0  0  0  0  0  0  0  0  0  0  0  0
   37.4830   27.1230   41.2370 C   0  0  0  0  0  0  0  0  0  0  0  0
   38.9770   26.9850   41.2330 C   0  0  0  0  0  0  0  0  0  0  0  0
   39.4990   26.4590   42.4950 C   0  0  0  0  0  0  0  0  0  0  0  0
   39.0550   27.2920   43.6790 C   0  0  0  0  0  0  0  0  0  0  0  0
   37.6300   27.6870   43.6310 C   0  0  0  0  0  0  0  0  0  0  0  0
   36.8760   26.9060   42.5760 C   0  0  0  0  0  0  0  0  0  0  0  0
   37.3350   28.1660   40.8980 H   0  0  0  0  0  0  0  0  0  0  0  0
   39.4940   27.9320   41.0010 H   0  0  0  0  0  0  0  0  0  0  0  0
   39.2490   26.2980   40.4050 H   0  0  0  0  0  0  0  0  0  0  0  0
   39.1000   25.4380   42.6730 H   0  0  0  0  0  0  0  0  0  0  0  0
   40.5950   26.4250   42.5400 H   0  0  0  0  0  0  0  0  0  0  0  0
   39.2290   26.6400   44.5790 H   0  0  0  0  0  0  0  0  0  0  0  0
   39.7180   28.1700   43.8400 H   0  0  0  0  0  0  0  0  0  0  0  0
   37.0830   27.5760   44.5950 H   0  0  0  0  0  0  0  0  0  0  0  0
   37.5890   28.7520   43.2920 H   0  0  0  0  0  0  0  0  0  0  0  0
   37.0290   25.8220   42.8430 H   0  0  0  0  0  0  0  0  0  0  0  0
   35.8020   27.1560   42.6170 H   0  0  0  0  0  0  0  0  0  0  0  0
   36.3060   28.0800   38.7080 O   0  0  0  0  0  0  0  0  0  0  0  0
   36.9980   28.7710   37.7530 C   0  0  0  0  0  0  0  0  0  0  0  0
   36.5320   28.9570   36.7870 H   0  0  0  0  0  0  0  0  0  0  0  0
   37.9300   28.1840   37.5210 H   0  0  0  0  0  0  0  0  0  0  0  0
   37.5080   30.1160   38.2400 C   0  0  0  0  0  0  0  0  0  0  0  0
   38.2330   29.8780   39.0550 H   0  0  0  0  0  0  0  0  0  0  0  0
   38.0970   30.5910   37.4450 H   0  0  0  0  0  0  0  0  0  0  0  0
   36.4570   30.9440   38.7840 N   0  0  0  0  0  0  0  0  0  0  0  0
   36.5460   31.8810   38.3740 H   0  0  0  0  0  0  0  0  0  0  0  0
   36.8390   31.2320   40.4610 S   0  0  0  0  0  0  0  0  0  0  0  0
   35.6810   30.8720   41.3430 O   0  0  0  0  0  0  0  0  0  0  0  0
   35.1240   30.0680   41.1650 H   0  0  0  0  0  0  0  0  0  0  0  0
   37.1630   32.6860   40.5930 O   0  0  0  0  0  0  0  0  0  0  0  0
   36.4770   33.3390   40.8690 H   0  0  0  0  0  0  0  0  0  0  0  0
   38.1960   30.3740   40.9190 O   0  0  0  0  0  0  0  0  0  0  0  0
   38.7030   30.9930   42.0550 C   0  0  0  0  0  2  0  0  0  0  0  0
   40.1480   30.5870   42.2540 C   0  0  0  0  0  2  0  0  0  0  0  0
   40.4000   30.5550   43.3290 H   0  0  0  0  0  0  0  0  0  0  0  0
  1  6  1  0  0  0  0
  1  9  1  0  0  0  0
  2  1  2  0  0  0  0
  3  4  2  0  0  0  0
  3  2  1  0  0  0  0
  4  5  1  0  0  0  0
  5  8  1  0  0  0  0
  5  6  2  0  0  0  0
  7  3  1  0  0  0  0
  9 14  1  0  0  0  0
 10  9  1  0  0  0  0
 10 11  1  0  0  0  0
 11 19  1  0  0  0  0
 11 18  1  0  0  0  0
 11 12  1  0  0  0  0
 12 21  1  0  0  0  0
 12 20  1  0  0  0  0
 13 12  1  0  0  0  0
 13 22  1  0  0  0  0
 14 25  1  0  0  0  0
 14 24  1  0  0  0  0
 14 13  1  0  0  0  0
 15  9  1  0  0  0  0
 16 10  1  0  0  0  0
 17 10  1  0  0  0  0
 23 13  1  0  0  0  0
 26  2  1  0  0  0  0
 27 30  1  0  0  0  0
 27 26  1  0  0  0  0
 28 27  1  0  0  0  0
 29 27  1  0  0  0  0
 30 33  1  0  0  0  0
 30 31  1  0  0  0  0
 32 30  1  0  0  0  0
 33 35  1  0  0  0  0
 34 33  1  0  0  0  0
 35 38  1  0  0  0  0
 35 40  1  0  0  0  0
 35 36  1  0  0  0  0
 37 36  1  0  0  0  0
 38 39  1  0  0  0  0
 40 41  1  0  0  0  0
 41 42  1  0  0  0  0
 42 43  1  0  0  0  0
M  END
>  <minimizedAffinity>
-4.77913904

$$$$

 OpenBabel03242514213D

 43 44  0  0  0  0  0  0  0  0999 V2000
   37.2770   27.8090   41.0420 C   0  0  0  0  0  0  0  0  0  0  0  0
   38.1760   28.4300   41.8760 C   0  0  0  0  0  0  0  0  0  0  0  0
   38.7130   27.6700   42.8810 C   0  0  0  0  0  0  0  0  0  0  0  0
   38.3540   26.3770   43.0130 N   0  0  0  0  0  0  0  0  0  0  0  0
   37.4870   25.7790   42.2080 C   0  0  0  0  0  0  0  0  0  0  0  0
   36.9630   26.5080   41.2360 N   0  0  0  0  0  0  0  0  0  0  0  0
   39.4270   27.9670   43.6350 H   0  0  0  0  0  0  0  0  0  0  0  0
   37.1840   24.7450   42.2930 H   0  0  0  0  0  0  0  0  0  0  0  0
   36.7540   28.6020   39.9200 C   0  0  0  0  0  0  0  0  0  0  0  0
   35.5910   29.4510   40.3420 C   0  0  0  0  0  0  0  0  0  0  0  0
   34.3440   29.0700   39.6760 C   0  0  0  0  0  0  0  0  0  0  0  0
   34.4830   29.0870   38.1680 C   0  0  0  0  0  0  0  0  0  0  0  0
   35.7410   28.4830   37.6770 C   0  0  0  0  0  0  0  0  0  0  0  0
   36.4460   27.7110   38.7710 C   0  0  0  0  0  0  0  0  0  0  0  0
   37.5170   29.3560   39.6450 H   0  0  0  0  0  0  0  0  0  0  0  0
   35.7660   30.5290   40.1810 H   0  0  0  0  0  0  0  0  0  0  0  0
   35.4730   29.3390   41.4390 H   0  0  0  0  0  0  0  0  0  0  0  0
   34.0740   28.0280   39.9460 H   0  0  0  0  0  0  0  0  0  0  0  0
   33.4990   29.7290   39.9120 H   0  0  0  0  0  0  0  0  0  0  0  0
   33.6100   28.4880   37.7860 H   0  0  0  0  0  0  0  0  0  0  0  0
   34.3270   30.1050   37.7480 H   0  0  0  0  0  0  0  0  0  0  0  0
   35.6220   27.8040   36.8020 H   0  0  0  0  0  0  0  0  0  0  0  0
   36.4350   29.3210   37.4160 H   0  0  0  0  0  0  0  0  0  0  0  0
   35.6960   26.9490   39.1290 H   0  0  0  0  0  0  0  0  0  0  0  0
   37.3350   27.2000   38.3620 H   0  0  0  0  0  0  0  0  0  0  0  0
   38.6500   29.6770   41.9060 O   0  0  0  0  0  0  0  0  0  0  0  0
   39.9060   30.2130   41.9650 C   0  0  0  0  0  0  0  0  0  0  0  0
   40.5800   30.0880   41.1200 H   0  0  0  0  0  0  0  0  0  0  0  0
   40.4360   29.7350   42.8360 H   0  0  0  0  0  0  0  0  0  0  0  0
   39.9090   31.6970   42.2880 C   0  0  0  0  0  0  0  0  0  0  0  0
   38.8320   31.9850   42.3550 H   0  0  0  0  0  0  0  0  0  0  0  0
   40.3230   31.8500   43.2920 H   0  0  0  0  0  0  0  0  0  0  0  0
   40.5350   32.4880   41.2540 N   0  0  0  0  0  0  0  0  0  0  0  0
   41.1080   33.2080   41.7090 H   0  0  0  0  0  0  0  0  0  0  0  0
   39.2810   33.4330   40.4930 S   0  0  0  0  0  0  0  0  0  0  0  0
   39.8300   34.2230   39.3440 O   0  0  0  0  0  0  0  0  0  0  0  0
   40.5070   33.8380   38.7260 H   0  0  0  0  0  0  0  0  0  0  0  0
   38.7280   34.3480   41.5390 O   0  0  0  0  0  0  0  0  0  0  0  0
   39.0570   35.2730   41.6340 H   0  0  0  0  0  0  0  0  0  0  0  0
   38.0320   32.4560   39.9720 O   0  0  0  0  0  0  0  0  0  0  0  0
   38.5110   31.7300   38.8890 C   0  0  0  0  0  2  0  0  0  0  0  0
   37.4990   31.7680   37.7630 C   0  0  0  0  0  2  0  0  0  0  0  0
   37.5290   30.8320   37.1780 H   0  0  0  0  0  0  0  0  0  0  0  0
  1  6  2  0  0  0  0
  1  2  1  0  0  0  0
  2 26  1  0  0  0  0
  2  3  2  0  0  0  0
  3  4  1  0  0  0  0
  3  7  1  0  0  0  0
  5  8  1  0  0  0  0
  5  4  2  0  0  0  0
  6  5  1  0  0  0  0
  9 10  1  0  0  0  0
  9  1  1  0  0  0  0
 10 17  1  0  0  0  0
 11 19  1  0  0  0  0
 11 18  1  0  0  0  0
 11 10  1  0  0  0  0
 12 11  1  0  0  0  0
 13 12  1  0  0  0  0
 13 14  1  0  0  0  0
 14 24  1  0  0  0  0
 14  9  1  0  0  0  0
 15  9  1  0  0  0  0
 16 10  1  0  0  0  0
 20 12  1  0  0  0  0
 21 12  1  0  0  0  0
 22 13  1  0  0  0  0
 23 13  1  0  0  0  0
 25 14  1  0  0  0  0
 26 27  1  0  0  0  0
 27 30  1  0  0  0  0
 27 29  1  0  0  0  0
 28 27  1  0  0  0  0
 30 31  1  0  0  0  0
 30 32  1  0  0  0  0
 33 34  1  0  0  0  0
 33 30  1  0  0  0  0
 35 33  1  0  0  0  0
 35 38  1  0  0  0  0
 36 35  1  0  0  0  0
 37 36  1  0  0  0  0
 38 39  1  0  0  0  0
 40 35  1  0  0  0  0
 41 40  1  0  0  0  0
 42 41  1  0  0  0  0
 43 42  1  0  0  0  0
M  END
>  <minimizedAffinity>
-4.73329592

$$$$

 OpenBabel03242514213D

 43 44  0  0  0  0  0  0  0  0999 V2000
   37.6440   31.7790   39.8000 C   0  0  0  0  0  0  0  0  0  0  0  0
   38.8160   31.9310   40.5020 C   0  0  0  0  0  0  0  0  0  0  0  0
   39.2520   33.2130   40.7050 C   0  0  0  0  0  0  0  0  0  0  0  0
   38.5380   34.2520   40.2250 N   0  0  0  0  0  0  0  0  0  0  0  0
   37.4070   34.1040   39.5480 C   0  0  0  0  0  0  0  0  0  0  0  0
   36.9820   32.8670   39.3480 N   0  0  0  0  0  0  0  0  0  0  0  0
   40.1400   33.5430   41.2250 H   0  0  0  0  0  0  0  0  0  0  0  0
   36.8170   34.9190   39.1550 H   0  0  0  0  0  0  0  0  0  0  0  0
   37.1380   30.4080   39.6430 C   0  0  0  0  0  0  0  0  0  0  0  0
   37.1540   29.9770   38.2060 C   0  0  0  0  0  0  0  0  0  0  0  0
   35.8120   29.7330   37.6740 C   0  0  0  0  0  0  0  0  0  0  0  0
   35.0480   28.7290   38.5110 C   0  0  0  0  0  0  0  0  0  0  0  0
   35.1860   28.9390   39.9690 C   0  0  0  0  0  0  0  0  0  0  0  0
   35.7990   30.2880   40.2770 C   0  0  0  0  0  0  0  0  0  0  0  0
   37.8630   29.7160   40.1120 H   0  0  0  0  0  0  0  0  0  0  0  0
   37.7730   29.0780   38.0350 H   0  0  0  0  0  0  0  0  0  0  0  0
   37.6440   30.7800   37.6190 H   0  0  0  0  0  0  0  0  0  0  0  0
   35.2180   30.6710   37.7030 H   0  0  0  0  0  0  0  0  0  0  0  0
   35.8080   29.3410   36.6490 H   0  0  0  0  0  0  0  0  0  0  0  0
   33.9690   28.8620   38.2190 H   0  0  0  0  0  0  0  0  0  0  0  0
   35.2860   27.6820   38.2250 H   0  0  0  0  0  0  0  0  0  0  0  0
   34.2360   28.8560   40.5450 H   0  0  0  0  0  0  0  0  0  0  0  0
   35.9250   28.1890   40.3470 H   0  0  0  0  0  0  0  0  0  0  0  0
   35.1230   31.0420   39.7820 H   0  0  0  0  0  0  0  0  0  0  0  0
   35.8130   30.4570   41.3680 H   0  0  0  0  0  0  0  0  0  0  0  0
   39.6500   31.0440   41.0480 O   0  0  0  0  0  0  0  0  0  0  0  0
   40.1130   30.8330   42.3160 C   0  0  0  0  0  0  0  0  0  0  0  0
   39.9020   31.5680   43.0910 H   0  0  0  0  0  0  0  0  0  0  0  0
   41.2360   30.7800   42.2620 H   0  0  0  0  0  0  0  0  0  0  0  0
   39.6970   29.4890   42.8890 C   0  0  0  0  0  0  0  0  0  0  0  0
   39.8290   28.7610   42.0540 H   0  0  0  0  0  0  0  0  0  0  0  0
   40.4120   29.1880   43.6650 H   0  0  0  0  0  0  0  0  0  0  0  0
   38.3150   29.4680   43.3070 N   0  0  0  0  0  0  0  0  0  0  0  0
   38.2930   29.4310   44.3320 H   0  0  0  0  0  0  0  0  0  0  0  0
   37.6630   27.9120   42.8630 S   0  0  0  0  0  0  0  0  0  0  0  0
   36.1890   27.8530   43.1310 O   0  0  0  0  0  0  0  0  0  0  0  0
   35.5970   28.6300   42.9480 H   0  0  0  0  0  0  0  0  0  0  0  0
   38.3830   26.8860   43.6790 O   0  0  0  0  0  0  0  0  0  0  0  0
   38.0070   26.5530   44.5280 H   0  0  0  0  0  0  0  0  0  0  0  0
   37.9660   27.5740   41.2570 O   0  0  0  0  0  0  0  0  0  0  0  0
   38.1770   26.2040   41.1630 C   0  0  0  0  0  2  0  0  0  0  0  0
   36.9520   25.5410   40.5710 C   0  0  0  0  0  2  0  0  0  0  0  0
   36.8220   24.5230   40.9800 H   0  0  0  0  0  0  0  0  0  0  0  0
  1  2  1  0  0  0  0
  2  3  2  0  0  0  0
  2 26  1  0  0  0  0
  3  7  1  0  0  0  0
  4  3  1  0  0  0  0
  5  4  2  0  0  0  0
  6  5  1  0  0  0  0
  6  1  2  0  0  0  0
  8  5  1  0  0  0  0
  9  1  1  0  0  0  0
  9 15  1  0  0  0  0
  9 14  1  0  0  0  0
 10  9  1  0  0  0  0
 11 18  1  0  0  0  0
 11 10  1  0  0  0  0
 11 12  1  0  0  0  0
 12 13  1  0  0  0  0
 13 14  1  0  0  0  0
 13 23  1  0  0  0  0
 13 22  1  0  0  0  0
 14 25  1  0  0  0  0
 16 10  1  0  0  0  0
 17 10  1  0  0  0  0
 19 11  1  0  0  0  0
 20 12  1  0  0  0  0
 21 12  1  0  0  0  0
 24 14  1  0  0  0  0
 26 27  1  0  0  0  0
 27 30  1  0  0  0  0
 27 28  1  0  0  0  0
 29 27  1  0  0  0  0
 30 33  1  0  0  0  0
 30 32  1  0  0  0  0
 31 30  1  0  0  0  0
 33 34  1  0  0  0  0
 35 36  1  0  0  0  0
 35 33  1  0  0  0  0
 35 38  1  0  0  0  0
 37 36  1  0  0  0  0
 38 39  1  0  0  0  0
 40 35  1  0  0  0  0
 41 40  1  0  0  0  0
 42 43  1  0  0  0  0
 42 41  1  0  0  0  0
M  END
>  <minimizedAffinity>
-4.71712255

$$$$
