
 OpenBabel03242520263D

 32 33  0  0  0  0  0  0  0  0999 V2000
   45.0800   35.5810   43.5210 C   0  0  0  0  0  0  0  0  0  0  0  0
   46.0200   34.5150   43.5240 C   0  0  0  0  0  0  0  0  0  0  0  0
   46.1930   33.8100   44.6990 C   0  0  0  0  0  0  0  0  0  0  0  0
   45.4630   34.1630   45.7910 N   0  0  0  0  0  0  0  0  0  0  0  0
   44.5800   35.1740   45.7640 C   0  0  0  0  0  0  0  0  0  0  0  0
   44.3940   35.8710   44.6470 N   0  0  0  0  0  0  0  0  0  0  0  0
   44.9030   36.1630   42.6420 H   0  0  0  0  0  0  0  0  0  0  0  0
   44.1200   35.2730   46.7380 H   0  0  0  0  0  0  0  0  0  0  0  0
   46.6960   34.2820   42.3000 N   0  0  0  0  0  0  0  0  0  0  0  0
   47.8320   35.0680   41.8540 C   0  0  0  0  0  0  0  0  0  0  0  0
   48.3920   34.4920   40.5930 C   0  0  0  0  0  0  0  0  0  0  0  0
   47.4050   34.2750   39.5690 N   0  0  0  0  0  0  0  0  0  0  0  0
   46.2120   33.6160   40.0050 C   0  0  0  0  0  0  0  0  0  0  0  0
   46.2190   33.1970   41.4500 C   0  0  0  0  0  0  0  0  0  0  0  0
   48.6080   34.9190   42.6570 H   0  0  0  0  0  0  0  0  0  0  0  0
   47.6340   36.1510   41.8250 H   0  0  0  0  0  0  0  0  0  0  0  0
   48.8830   33.5220   40.8420 H   0  0  0  0  0  0  0  0  0  0  0  0
   49.1730   35.1440   40.2060 H   0  0  0  0  0  0  0  0  0  0  0  0
   47.8840   33.8260   38.7590 H   0  0  0  0  0  0  0  0  0  0  0  0
   45.3770   34.3500   39.9030 H   0  0  0  0  0  0  0  0  0  0  0  0
   45.9340   32.7570   39.3810 H   0  0  0  0  0  0  0  0  0  0  0  0
   46.9030   32.3290   41.5340 H   0  0  0  0  0  0  0  0  0  0  0  0
   45.2070   32.8620   41.7120 H   0  0  0  0  0  0  0  0  0  0  0  0
   47.1220   32.7710   44.6730 O   0  0  0  0  0  0  0  0  0  0  0  0
   45.5670   30.9630   45.8200 O   0  0  0  0  0  0  0  0  0  0  0  0
   46.9860   31.5140   45.8370 P   0  0  1  0  0  0  0  0  0  0  0  0
   48.0990   30.3330   45.4520 O   0  0  0  0  0  0  0  0  0  0  0  0
   47.7190   29.7080   44.8050 H   0  0  0  0  0  0  0  0  0  0  0  0
   47.2860   32.2090   47.3510 O   0  0  0  0  0  0  0  0  0  0  0  0
   46.9150   31.3670   48.3860 C   0  0  0  0  0  0  0  0  0  0  0  0
   45.7410   31.9160   49.1940 C   0  0  0  0  0  0  0  0  0  0  0  0
   44.9350   31.1590   49.3230 H   0  0  0  0  0  0  0  0  0  0  0  0
  1  2  2  0  0  0  0
  1  6  1  0  0  0  0
  2  3  1  0  0  0  0
  3  4  2  0  0  0  0
  5  4  1  0  0  0  0
  5  8  1  0  0  0  0
  6  5  2  0  0  0  0
  7  1  1  0  0  0  0
  9  2  1  0  0  0  0
 10  9  1  0  0  0  0
 10 15  1  0  0  0  0
 11 17  1  0  0  0  0
 11 10  1  0  0  0  0
 12 13  1  0  0  0  0
 12 11  1  0  0  0  0
 13 14  1  0  0  0  0
 14 22  1  0  0  0  0
 14 23  1  0  0  0  0
 14  9  1  0  0  0  0
 16 10  1  0  0  0  0
 18 11  1  0  0  0  0
 19 12  1  0  0  0  0
 20 13  1  0  0  0  0
 21 13  1  0  0  0  0
 24  3  1  0  0  0  0
 24 26  1  0  0  0  0
 26 25  2  6  0  0  0
 26 29  1  0  0  0  0
 27 26  1  0  0  0  0
 28 27  1  0  0  0  0
 29 30  1  0  0  0  0
 30 31  1  0  0  0  0
 31 32  1  0  0  0  0
M  END
>  <minimizedAffinity>
-4.6920166

>  <minimizedRMSD>
0.645561218

$$$$
