
 OpenBabel03242517123D

 41 43  0  0  1  0  0  0  0  0999 V2000
   39.1980   28.0920   42.2820 C   0  0  2  0  0  0  0  0  0  0  0  0
   38.1110   29.0780   42.5350 C   0  0  2  0  0  0  0  0  0  0  0  0
   37.1560   28.6300   43.5790 C   0  0  0  0  0  0  0  0  0  0  0  0
   36.5930   27.2510   43.3620 C   0  0  0  0  0  0  0  0  0  0  0  0
   37.5640   26.2870   42.7430 C   0  0  0  0  0  0  0  0  0  0  0  0
   39.0000   26.7450   42.9160 C   0  0  0  0  0  0  0  0  0  0  0  0
   39.2670   27.9270   41.1650 H   0  0  0  0  0  0  0  0  0  0  0  0
   38.5730   30.0210   42.8890 H   0  0  0  0  0  0  0  0  0  0  0  0
   37.6440   28.6690   44.5730 H   0  0  0  0  0  0  0  0  0  0  0  0
   36.2920   29.3340   43.6330 H   0  0  0  0  0  0  0  0  0  0  0  0
   35.7120   27.3600   42.6830 H   0  0  0  0  0  0  0  0  0  0  0  0
   36.1640   26.8930   44.3290 H   0  0  0  0  0  0  0  0  0  0  0  0
   37.4830   25.3390   43.3520 H   0  0  0  0  0  0  0  0  0  0  0  0
   37.3440   26.0820   41.6640 H   0  0  0  0  0  0  0  0  0  0  0  0
   39.6200   26.0200   42.3150 H   0  0  0  0  0  0  0  0  0  0  0  0
   39.2470   26.6520   43.9630 H   0  0  0  0  0  0  0  0  0  0  0  0
   36.8250   30.7730   41.1720 C   0  0  1  0  0  0  0  0  0  0  0  0
   37.3900   29.4030   41.2450 C   0  0  1  0  0  0  0  0  0  0  0  0
   38.2880   29.2370   40.1970 O   0  0  0  0  0  0  0  0  0  0  0  0
   38.6600   30.4900   39.7410 C   0  0  0  0  0  0  0  0  0  0  0  0
   37.3300   31.2270   39.7970 C   0  0  2  0  0  0  0  0  0  0  0  0
   37.2680   31.4530   41.9230 H   0  0  0  0  0  0  0  0  0  0  0  0
   36.5690   28.6570   41.1240 H   0  0  0  0  0  0  0  0  0  0  0  0
   39.0070   30.3550   38.7010 H   0  0  0  0  0  0  0  0  0  0  0  0
   39.4230   30.9710   40.3670 H   0  0  0  0  0  0  0  0  0  0  0  0
   36.6700   30.8680   39.0000 H   0  0  0  0  0  0  0  0  0  0  0  0
   35.4440   30.8100   41.1550 O   0  0  0  0  0  0  0  0  0  0  0  0
   35.0590   31.3640   41.8670 H   0  0  0  0  0  0  0  0  0  0  0  0
   37.5020   32.6030   39.7910 O   0  0  0  0  0  0  0  0  0  0  0  0
   38.4550   32.9980   40.7260 C   0  0  0  0  0  2  0  0  0  0  0  0
   39.2870   34.1610   40.2720 C   0  0  0  0  0  2  0  0  0  0  0  0
   40.3580   34.0510   40.5430 H   0  0  0  0  0  0  0  0  0  0  0  0
   40.5270   28.6050   42.6730 C   0  0  0  0  0  0  0  0  0  0  0  0
   41.3820   27.6510   43.2250 C   0  0  0  0  0  0  0  0  0  0  0  0
   42.6750   28.0110   43.6340 C   0  0  0  0  0  0  0  0  0  0  0  0
   43.0110   29.3470   43.4470 N   0  0  0  0  0  0  0  0  0  0  0  0
   42.1510   30.2400   42.9090 C   0  0  0  0  0  0  0  0  0  0  0  0
   40.9050   29.8750   42.5190 N   0  0  0  0  0  0  0  0  0  0  0  0
   41.2630   26.6010   43.4360 H   0  0  0  0  0  0  0  0  0  0  0  0
   43.4240   27.3950   44.0650 H   0  0  0  0  0  0  0  0  0  0  0  0
   42.4750   31.2660   42.7920 H   0  0  0  0  0  0  0  0  0  0  0  0
  1  7  1  6  0  0  0
  1  2  1  0  0  0  0
  1 33  1  0  0  0  0
  1  6  1  0  0  0  0
  2  8  1  1  0  0  0
  2  3  1  0  0  0  0
  3 10  1  0  0  0  0
  3  9  1  0  0  0  0
  4  3  1  0  0  0  0
  4 12  1  0  0  0  0
  5  6  1  0  0  0  0
  5 13  1  0  0  0  0
  5  4  1  0  0  0  0
  6 16  1  0  0  0  0
 11  4  1  0  0  0  0
 14  5  1  0  0  0  0
 15  6  1  0  0  0  0
 17 18  1  0  0  0  0
 17 22  1  1  0  0  0
 18 23  1  6  0  0  0
 18  2  1  0  0  0  0
 19 18  1  0  0  0  0
 20 21  1  0  0  0  0
 20 19  1  0  0  0  0
 20 25  1  0  0  0  0
 21 26  1  6  0  0  0
 21 17  1  0  0  0  0
 24 20  1  0  0  0  0
 27 17  1  0  0  0  0
 27 28  1  0  0  0  0
 29 21  1  0  0  0  0
 29 30  1  0  0  0  0
 31 32  1  0  0  0  0
 31 30  1  0  0  0  0
 33 34  1  0  0  0  0
 34 39  1  0  0  0  0
 34 35  2  0  0  0  0
 35 40  1  0  0  0  0
 36 35  1  0  0  0  0
 37 36  2  0  0  0  0
 38 33  2  0  0  0  0
 38 37  1  0  0  0  0
 41 37  1  0  0  0  0
M  END
>  <minimizedAffinity>
-5.5300703

$$$$

 OpenBabel03242517123D

 41 43  0  0  1  0  0  0  0  0999 V2000
   37.0200   26.6000   41.3960 C   0  0  2  0  0  0  0  0  0  0  0  0
   37.5050   27.9680   41.0650 C   0  0  2  0  0  0  0  0  0  0  0  0
   38.1530   28.6460   42.2160 C   0  0  0  0  0  0  0  0  0  0  0  0
   37.3320   28.6560   43.4780 C   0  0  0  0  0  0  0  0  0  0  0  0
   36.5080   27.4170   43.6800 C   0  0  0  0  0  0  0  0  0  0  0  0
   37.0310   26.2540   42.8580 C   0  0  0  0  0  0  0  0  0  0  0  0
   35.9490   26.5140   41.0430 H   0  0  0  0  0  0  0  0  0  0  0  0
   38.2630   27.8820   40.2600 H   0  0  0  0  0  0  0  0  0  0  0  0
   39.1330   28.1740   42.4250 H   0  0  0  0  0  0  0  0  0  0  0  0
   38.3730   29.7090   41.9580 H   0  0  0  0  0  0  0  0  0  0  0  0
   36.6480   29.5370   43.4170 H   0  0  0  0  0  0  0  0  0  0  0  0
   38.0130   28.8850   44.3340 H   0  0  0  0  0  0  0  0  0  0  0  0
   36.6720   27.1130   44.7550 H   0  0  0  0  0  0  0  0  0  0  0  0
   35.4190   27.5830   43.4780 H   0  0  0  0  0  0  0  0  0  0  0  0
   36.2750   25.4290   42.9920 H   0  0  0  0  0  0  0  0  0  0  0  0
   37.9760   25.9520   43.2860 H   0  0  0  0  0  0  0  0  0  0  0  0
   36.6100   30.2690   40.5280 C   0  0  1  0  0  0  0  0  0  0  0  0
   36.3730   28.8040   40.5100 C   0  0  1  0  0  0  0  0  0  0  0  0
   36.1470   28.4060   39.1980 O   0  0  0  0  0  0  0  0  0  0  0  0
   36.6420   29.3870   38.3560 C   0  0  0  0  0  0  0  0  0  0  0  0
   36.2160   30.6470   39.0950 C   0  0  2  0  0  0  0  0  0  0  0  0
   37.6790   30.5220   40.6500 H   0  0  0  0  0  0  0  0  0  0  0  0
   35.4610   28.5700   41.1090 H   0  0  0  0  0  0  0  0  0  0  0  0
   36.1060   29.2770   37.3960 H   0  0  0  0  0  0  0  0  0  0  0  0
   37.7310   29.3380   38.2230 H   0  0  0  0  0  0  0  0  0  0  0  0
   35.1320   30.7820   39.0100 H   0  0  0  0  0  0  0  0  0  0  0  0
   35.7860   30.9600   41.3950 O   0  0  0  0  0  0  0  0  0  0  0  0
   36.2750   31.5050   42.0480 H   0  0  0  0  0  0  0  0  0  0  0  0
   36.9420   31.7560   38.6850 O   0  0  0  0  0  0  0  0  0  0  0  0
   38.1420   31.3810   38.0870 C   0  0  0  0  0  2  0  0  0  0  0  0
   39.3370   32.0800   38.6670 C   0  0  0  0  0  2  0  0  0  0  0  0
   40.0710   32.3840   37.8910 H   0  0  0  0  0  0  0  0  0  0  0  0
   37.7480   25.5480   40.6590 C   0  0  0  0  0  0  0  0  0  0  0  0
   37.6700   24.2760   41.2250 C   0  0  0  0  0  0  0  0  0  0  0  0
   38.3170   23.1890   40.6180 C   0  0  0  0  0  0  0  0  0  0  0  0
   39.0140   23.4840   39.4510 N   0  0  0  0  0  0  0  0  0  0  0  0
   39.0650   24.7330   38.9370 C   0  0  0  0  0  0  0  0  0  0  0  0
   38.4340   25.7710   39.5360 N   0  0  0  0  0  0  0  0  0  0  0  0
   37.1850   23.9020   42.1120 H   0  0  0  0  0  0  0  0  0  0  0  0
   38.3410   22.1770   40.9350 H   0  0  0  0  0  0  0  0  0  0  0  0
   39.6260   24.8940   38.0240 H   0  0  0  0  0  0  0  0  0  0  0  0
  1  7  1  6  0  0  0
  1  6  1  0  0  0  0
  2  8  1  6  0  0  0
  2  1  1  0  0  0  0
  2  3  1  0  0  0  0
  3  9  1  0  0  0  0
  3  4  1  0  0  0  0
  4  5  1  0  0  0  0
  4 12  1  0  0  0  0
  5 13  1  0  0  0  0
  6 15  1  0  0  0  0
  6 16  1  0  0  0  0
  6  5  1  0  0  0  0
 10  3  1  0  0  0  0
 11  4  1  0  0  0  0
 14  5  1  0  0  0  0
 17 22  1  1  0  0  0
 17 27  1  0  0  0  0
 18 17  1  0  0  0  0
 18  2  1  0  0  0  0
 18 23  1  1  0  0  0
 19 18  1  0  0  0  0
 20 21  1  0  0  0  0
 20 19  1  0  0  0  0
 21 26  1  6  0  0  0
 21 17  1  0  0  0  0
 24 20  1  0  0  0  0
 25 20  1  0  0  0  0
 27 28  1  0  0  0  0
 29 21  1  0  0  0  0
 30 31  1  0  0  0  0
 30 29  1  0  0  0  0
 32 31  1  0  0  0  0
 33 34  1  0  0  0  0
 33  1  1  0  0  0  0
 34 39  1  0  0  0  0
 35 40  1  0  0  0  0
 35 34  2  0  0  0  0
 36 35  1  0  0  0  0
 37 36  2  0  0  0  0
 37 38  1  0  0  0  0
 38 33  2  0  0  0  0
 41 37  1  0  0  0  0
M  END
>  <minimizedAffinity>
-5.32708073

$$$$

 OpenBabel03242517123D

 41 43  0  0  1  0  0  0  0  0999 V2000
   39.7030   31.8230   39.4840 C   0  0  2  0  0  0  0  0  0  0  0  0
   38.2530   31.4870   39.5110 C   0  0  2  0  0  0  0  0  0  0  0  0
   37.3920   32.6010   39.0390 C   0  0  0  0  0  0  0  0  0  0  0  0
   37.6520   33.9210   39.7120 C   0  0  0  0  0  0  0  0  0  0  0  0
   39.0950   34.1560   40.0560 C   0  0  0  0  0  0  0  0  0  0  0  0
   40.0190   33.2720   39.2420 C   0  0  0  0  0  0  0  0  0  0  0  0
   40.1440   31.5500   40.4890 H   0  0  0  0  0  0  0  0  0  0  0  0
   38.0830   30.6250   38.8340 H   0  0  0  0  0  0  0  0  0  0  0  0
   37.5080   32.7240   37.9430 H   0  0  0  0  0  0  0  0  0  0  0  0
   36.3180   32.3510   39.2070 H   0  0  0  0  0  0  0  0  0  0  0  0
   37.0510   33.9320   40.6550 H   0  0  0  0  0  0  0  0  0  0  0  0
   37.2060   34.7280   39.0820 H   0  0  0  0  0  0  0  0  0  0  0  0
   39.3220   35.2090   39.7170 H   0  0  0  0  0  0  0  0  0  0  0  0
   39.3040   34.0420   41.1510 H   0  0  0  0  0  0  0  0  0  0  0  0
   41.0490   33.4440   39.6650 H   0  0  0  0  0  0  0  0  0  0  0  0
   39.9860   33.6200   38.2190 H   0  0  0  0  0  0  0  0  0  0  0  0
   36.6080   30.2230   40.9540 C   0  0  1  0  0  0  0  0  0  0  0  0
   37.8460   31.0390   40.8970 C   0  0  1  0  0  0  0  0  0  0  0  0
   38.8920   30.2970   41.4340 O   0  0  0  0  0  0  0  0  0  0  0  0
   38.5290   28.9610   41.4200 C   0  0  0  0  0  0  0  0  0  0  0  0
   37.0680   29.0530   41.8330 C   0  0  2  0  0  0  0  0  0  0  0  0
   36.3350   29.8020   39.9680 H   0  0  0  0  0  0  0  0  0  0  0  0
   37.7130   31.9560   41.5190 H   0  0  0  0  0  0  0  0  0  0  0  0
   39.1400   28.4620   42.1930 H   0  0  0  0  0  0  0  0  0  0  0  0
   38.6490   28.4890   40.4360 H   0  0  0  0  0  0  0  0  0  0  0  0
   36.9950   29.3110   42.8960 H   0  0  0  0  0  0  0  0  0  0  0  0
   35.5530   30.8470   41.5880 O   0  0  0  0  0  0  0  0  0  0  0  0
   34.7430   30.9030   41.0370 H   0  0  0  0  0  0  0  0  0  0  0  0
   36.3630   27.9060   41.4960 O   0  0  0  0  0  0  0  0  0  0  0  0
   37.2230   26.8370   41.2590 C   0  0  0  0  0  2  0  0  0  0  0  0
   37.0020   25.6810   42.1890 C   0  0  0  0  0  2  0  0  0  0  0  0
   37.9520   25.2190   42.5290 H   0  0  0  0  0  0  0  0  0  0  0  0
   40.4530   31.0090   38.5060 C   0  0  0  0  0  0  0  0  0  0  0  0
   41.4630   31.6920   37.8290 C   0  0  0  0  0  0  0  0  0  0  0  0
   42.2510   31.0290   36.8750 C   0  0  0  0  0  0  0  0  0  0  0  0
   41.9450   29.6870   36.6760 N   0  0  0  0  0  0  0  0  0  0  0  0
   40.9560   29.0630   37.3540 C   0  0  0  0  0  0  0  0  0  0  0  0
   40.2040   29.7190   38.2710 N   0  0  0  0  0  0  0  0  0  0  0  0
   41.8060   32.7130   37.8690 H   0  0  0  0  0  0  0  0  0  0  0  0
   43.0460   31.4200   36.2920 H   0  0  0  0  0  0  0  0  0  0  0  0
   40.7680   28.0160   37.1500 H   0  0  0  0  0  0  0  0  0  0  0  0
  1  2  1  0  0  0  0
  1  7  1  1  0  0  0
  2  8  1  6  0  0  0
  2 18  1  0  0  0  0
  3 10  1  0  0  0  0
  3  2  1  0  0  0  0
  3  4  1  0  0  0  0
  4  5  1  0  0  0  0
  4 11  1  0  0  0  0
  5 14  1  0  0  0  0
  6  1  1  0  0  0  0
  6 15  1  0  0  0  0
  6  5  1  0  0  0  0
  9  3  1  0  0  0  0
 12  4  1  0  0  0  0
 13  5  1  0  0  0  0
 16  6  1  0  0  0  0
 17 22  1  6  0  0  0
 17 27  1  0  0  0  0
 17 21  1  0  0  0  0
 18 17  1  0  0  0  0
 18 19  1  0  0  0  0
 18 23  1  1  0  0  0
 20 19  1  0  0  0  0
 20 21  1  0  0  0  0
 20 24  1  0  0  0  0
 21 26  1  1  0  0  0
 25 20  1  0  0  0  0
 28 27  1  0  0  0  0
 29 21  1  0  0  0  0
 30 29  1  0  0  0  0
 30 31  1  0  0  0  0
 31 32  1  0  0  0  0
 33  1  1  0  0  0  0
 34 39  1  0  0  0  0
 34 33  2  0  0  0  0
 35 34  1  0  0  0  0
 36 35  2  0  0  0  0
 36 37  1  0  0  0  0
 37 38  2  0  0  0  0
 38 33  1  0  0  0  0
 40 35  1  0  0  0  0
 41 37  1  0  0  0  0
M  END
>  <minimizedAffinity>
-5.29572964

$$$$

 OpenBabel03242517123D

 41 43  0  0  1  0  0  0  0  0999 V2000
   36.5260   28.8290   41.2650 C   0  0  2  0  0  0  0  0  0  0  0  0
   37.8840   29.3990   41.0440 C   0  0  2  0  0  0  0  0  0  0  0  0
   38.9550   28.6160   41.7110 C   0  0  0  0  0  0  0  0  0  0  0  0
   38.7150   28.3460   43.1720 C   0  0  0  0  0  0  0  0  0  0  0  0
   37.2710   28.1280   43.5220 C   0  0  0  0  0  0  0  0  0  0  0  0
   36.4470   27.7490   42.3060 C   0  0  0  0  0  0  0  0  0  0  0  0
   35.8460   29.6670   41.6030 H   0  0  0  0  0  0  0  0  0  0  0  0
   38.0930   29.3880   39.9550 H   0  0  0  0  0  0  0  0  0  0  0  0
   39.0970   27.6520   41.1830 H   0  0  0  0  0  0  0  0  0  0  0  0
   39.9280   29.1560   41.6310 H   0  0  0  0  0  0  0  0  0  0  0  0
   39.0910   29.2340   43.7350 H   0  0  0  0  0  0  0  0  0  0  0  0
   39.3820   27.5070   43.4860 H   0  0  0  0  0  0  0  0  0  0  0  0
   37.2520   27.2140   44.1850 H   0  0  0  0  0  0  0  0  0  0  0  0
   36.8150   29.0050   44.0480 H   0  0  0  0  0  0  0  0  0  0  0  0
   35.3790   27.7320   42.6610 H   0  0  0  0  0  0  0  0  0  0  0  0
   36.7460   26.7540   42.0080 H   0  0  0  0  0  0  0  0  0  0  0  0
   39.1620   31.5770   41.1250 C   0  0  1  0  0  0  0  0  0  0  0  0
   37.9200   30.8470   41.4800 C   0  0  1  0  0  0  0  0  0  0  0  0
   36.8390   31.4990   40.8970 O   0  0  0  0  0  0  0  0  0  0  0  0
   37.3150   32.2970   39.8720 C   0  0  0  0  0  0  0  0  0  0  0  0
   38.5840   32.8540   40.5020 C   0  0  2  0  0  0  0  0  0  0  0  0
   39.7420   31.0640   40.3360 H   0  0  0  0  0  0  0  0  0  0  0  0
   37.7840   30.8660   42.5870 H   0  0  0  0  0  0  0  0  0  0  0  0
   36.5600   33.0880   39.7130 H   0  0  0  0  0  0  0  0  0  0  0  0
   37.5250   31.7410   38.9490 H   0  0  0  0  0  0  0  0  0  0  0  0
   38.3270   33.5850   41.2770 H   0  0  0  0  0  0  0  0  0  0  0  0
   39.9300   31.9410   42.2130 O   0  0  0  0  0  0  0  0  0  0  0  0
   40.8540   31.6150   42.1660 H   0  0  0  0  0  0  0  0  0  0  0  0
   39.4600   33.3490   39.5470 O   0  0  0  0  0  0  0  0  0  0  0  0
   39.8120   32.3660   38.6270 C   0  0  0  0  0  2  0  0  0  0  0  0
   41.0140   32.7270   37.8040 C   0  0  0  0  0  2  0  0  0  0  0  0
   40.9060   32.4340   36.7390 H   0  0  0  0  0  0  0  0  0  0  0  0
   35.9160   28.3250   40.0180 C   0  0  0  0  0  0  0  0  0  0  0  0
   34.8530   29.0900   39.5370 C   0  0  0  0  0  0  0  0  0  0  0  0
   34.1890   28.7180   38.3570 C   0  0  0  0  0  0  0  0  0  0  0  0
   34.6680   27.5680   37.7390 N   0  0  0  0  0  0  0  0  0  0  0  0
   35.7020   26.8550   38.2400 C   0  0  0  0  0  0  0  0  0  0  0  0
   36.3310   27.2280   39.3810 N   0  0  0  0  0  0  0  0  0  0  0  0
   34.3730   29.9820   39.9030 H   0  0  0  0  0  0  0  0  0  0  0  0
   33.3740   29.2020   37.8810 H   0  0  0  0  0  0  0  0  0  0  0  0
   36.0250   25.9680   37.7100 H   0  0  0  0  0  0  0  0  0  0  0  0
  1  7  1  1  0  0  0
  1  6  1  0  0  0  0
  2  8  1  6  0  0  0
  2  1  1  0  0  0  0
  2 18  1  0  0  0  0
  2  3  1  0  0  0  0
  3  4  1  0  0  0  0
  4 12  1  0  0  0  0
  4  5  1  0  0  0  0
  4 11  1  0  0  0  0
  5 14  1  0  0  0  0
  5 13  1  0  0  0  0
  6 15  1  0  0  0  0
  6  5  1  0  0  0  0
  9  3  1  0  0  0  0
 10  3  1  0  0  0  0
 16  6  1  0  0  0  0
 17 22  1  6  0  0  0
 17 18  1  0  0  0  0
 17 27  1  0  0  0  0
 18 23  1  1  0  0  0
 19 18  1  0  0  0  0
 20 21  1  0  0  0  0
 20 19  1  0  0  0  0
 21 17  1  0  0  0  0
 21 26  1  1  0  0  0
 24 20  1  0  0  0  0
 25 20  1  0  0  0  0
 28 27  1  0  0  0  0
 29 21  1  0  0  0  0
 30 29  1  0  0  0  0
 31 30  1  0  0  0  0
 32 31  1  0  0  0  0
 33  1  1  0  0  0  0
 34 39  1  0  0  0  0
 34 33  1  0  0  0  0
 35 34  2  0  0  0  0
 36 37  2  0  0  0  0
 36 35  1  0  0  0  0
 37 38  1  0  0  0  0
 38 33  2  0  0  0  0
 40 35  1  0  0  0  0
 41 37  1  0  0  0  0
M  END
>  <minimizedAffinity>
-5.28431273

$$$$

 OpenBabel03242517123D

 41 43  0  0  1  0  0  0  0  0999 V2000
   36.5570   27.3730   38.6740 C   0  0  2  0  0  0  0  0  0  0  0  0
   35.6380   28.3660   39.2960 C   0  0  2  0  0  0  0  0  0  0  0  0
   34.4990   28.7300   38.4160 C   0  0  0  0  0  0  0  0  0  0  0  0
   34.8930   29.1560   37.0280 C   0  0  0  0  0  0  0  0  0  0  0  0
   36.0840   28.4250   36.4800 C   0  0  0  0  0  0  0  0  0  0  0  0
   36.3270   27.1180   37.2110 C   0  0  0  0  0  0  0  0  0  0  0  0
   37.6140   27.7600   38.7820 H   0  0  0  0  0  0  0  0  0  0  0  0
   35.2160   27.9180   40.2180 H   0  0  0  0  0  0  0  0  0  0  0  0
   33.7930   27.8780   38.3470 H   0  0  0  0  0  0  0  0  0  0  0  0
   33.9220   29.5710   38.8680 H   0  0  0  0  0  0  0  0  0  0  0  0
   35.1310   30.2470   37.0750 H   0  0  0  0  0  0  0  0  0  0  0  0
   33.9900   29.0920   36.3730 H   0  0  0  0  0  0  0  0  0  0  0  0
   35.8010   28.1240   35.4280 H   0  0  0  0  0  0  0  0  0  0  0  0
   37.0130   29.0510   36.4740 H   0  0  0  0  0  0  0  0  0  0  0  0
   37.3010   26.7240   36.8040 H   0  0  0  0  0  0  0  0  0  0  0  0
   35.5250   26.4440   36.9480 H   0  0  0  0  0  0  0  0  0  0  0  0
   36.3590   29.8940   41.1740 C   0  0  1  0  0  0  0  0  0  0  0  0
   36.4090   29.5960   39.7210 C   0  0  1  0  0  0  0  0  0  0  0  0
   37.7360   29.4220   39.3490 O   0  0  0  0  0  0  0  0  0  0  0  0
   38.4760   29.1550   40.4880 C   0  0  0  0  0  0  0  0  0  0  0  0
   37.8450   30.1240   41.4780 C   0  0  2  0  0  0  0  0  0  0  0  0
   36.0350   29.0230   41.7730 H   0  0  0  0  0  0  0  0  0  0  0  0
   35.9960   30.4620   39.1520 H   0  0  0  0  0  0  0  0  0  0  0  0
   39.5200   29.4330   40.2570 H   0  0  0  0  0  0  0  0  0  0  0  0
   38.3950   28.1140   40.8250 H   0  0  0  0  0  0  0  0  0  0  0  0
   38.1390   31.1510   41.2350 H   0  0  0  0  0  0  0  0  0  0  0  0
   35.6740   31.0520   41.4860 O   0  0  0  0  0  0  0  0  0  0  0  0
   34.9440   30.9130   42.1270 H   0  0  0  0  0  0  0  0  0  0  0  0
   38.1160   29.7690   42.7910 O   0  0  0  0  0  0  0  0  0  0  0  0
   37.4250   28.6170   43.1560 C   0  0  0  0  0  2  0  0  0  0  0  0
   38.3190   27.5280   43.6740 C   0  0  0  0  0  2  0  0  0  0  0  0
   38.0220   26.5230   43.3090 H   0  0  0  0  0  0  0  0  0  0  0  0
   36.5520   26.0780   39.3830 C   0  0  0  0  0  0  0  0  0  0  0  0
   36.0020   25.0190   38.6610 C   0  0  0  0  0  0  0  0  0  0  0  0
   35.9410   23.7340   39.2240 C   0  0  0  0  0  0  0  0  0  0  0  0
   36.4580   23.6190   40.5090 N   0  0  0  0  0  0  0  0  0  0  0  0
   36.9820   24.6730   41.1740 C   0  0  0  0  0  0  0  0  0  0  0  0
   37.0330   25.9070   40.6160 N   0  0  0  0  0  0  0  0  0  0  0  0
   35.5620   24.9560   37.6790 H   0  0  0  0  0  0  0  0  0  0  0  0
   35.5540   22.8450   38.7930 H   0  0  0  0  0  0  0  0  0  0  0  0
   37.3680   24.5150   42.1740 H   0  0  0  0  0  0  0  0  0  0  0  0
  1  7  1  1  0  0  0
  1  2  1  0  0  0  0
  1 33  1  0  0  0  0
  2 18  1  0  0  0  0
  2  8  1  1  0  0  0
  3 10  1  0  0  0  0
  3  2  1  0  0  0  0
  4 11  1  0  0  0  0
  4  3  1  0  0  0  0
  5  4  1  0  0  0  0
  5  6  1  0  0  0  0
  6  1  1  0  0  0  0
  9  3  1  0  0  0  0
 12  4  1  0  0  0  0
 13  5  1  0  0  0  0
 14  5  1  0  0  0  0
 15  6  1  0  0  0  0
 16  6  1  0  0  0  0
 17 21  1  0  0  0  0
 17 27  1  0  0  0  0
 17 22  1  1  0  0  0
 18 23  1  6  0  0  0
 18 17  1  0  0  0  0
 19 18  1  0  0  0  0
 19 20  1  0  0  0  0
 20 25  1  0  0  0  0
 20 21  1  0  0  0  0
 21 26  1  6  0  0  0
 21 29  1  0  0  0  0
 24 20  1  0  0  0  0
 27 28  1  0  0  0  0
 29 30  1  0  0  0  0
 30 31  1  0  0  0  0
 32 31  1  0  0  0  0
 33 38  1  0  0  0  0
 34 35  1  0  0  0  0
 34 33  2  0  0  0  0
 35 36  2  0  0  0  0
 36 37  1  0  0  0  0
 37 41  1  0  0  0  0
 38 37  2  0  0  0  0
 39 34  1  0  0  0  0
 40 35  1  0  0  0  0
M  END
>  <minimizedAffinity>
-5.2201829

$$$$

 OpenBabel03242517123D

 41 43  0  0  1  0  0  0  0  0999 V2000
   37.1420   30.2500   38.6770 C   0  0  2  0  0  0  0  0  0  0  0  0
   36.7130   30.4080   40.0940 C   0  0  2  0  0  0  0  0  0  0  0  0
   36.5700   31.8280   40.5000 C   0  0  0  0  0  0  0  0  0  0  0  0
   37.7690   32.6870   40.2020 C   0  0  0  0  0  0  0  0  0  0  0  0
   38.4830   32.3180   38.9330 C   0  0  0  0  0  0  0  0  0  0  0  0
   37.5970   31.5130   38.0020 C   0  0  0  0  0  0  0  0  0  0  0  0
   38.0130   29.5290   38.6530 H   0  0  0  0  0  0  0  0  0  0  0  0
   35.7200   29.9270   40.2120 H   0  0  0  0  0  0  0  0  0  0  0  0
   35.6780   32.2690   40.0120 H   0  0  0  0  0  0  0  0  0  0  0  0
   36.3830   31.8940   41.5980 H   0  0  0  0  0  0  0  0  0  0  0  0
   38.4760   32.5720   41.0590 H   0  0  0  0  0  0  0  0  0  0  0  0
   37.4500   33.7570   40.2390 H   0  0  0  0  0  0  0  0  0  0  0  0
   38.6680   33.2930   38.3920 H   0  0  0  0  0  0  0  0  0  0  0  0
   39.4490   31.7810   39.1190 H   0  0  0  0  0  0  0  0  0  0  0  0
   38.2660   31.1940   37.1540 H   0  0  0  0  0  0  0  0  0  0  0  0
   36.8300   32.1760   37.6280 H   0  0  0  0  0  0  0  0  0  0  0  0
   37.0130   28.8600   42.0680 C   0  0  1  0  0  0  0  0  0  0  0  0
   37.6650   29.6740   41.0120 C   0  0  1  0  0  0  0  0  0  0  0  0
   38.4570   28.8390   40.2330 O   0  0  0  0  0  0  0  0  0  0  0  0
   38.0320   27.5360   40.4230 C   0  0  0  0  0  0  0  0  0  0  0  0
   37.7660   27.5320   41.9220 C   0  0  2  0  0  0  0  0  0  0  0  0
   35.9490   28.6570   41.8470 H   0  0  0  0  0  0  0  0  0  0  0  0
   38.3240   30.4370   41.4890 H   0  0  0  0  0  0  0  0  0  0  0  0
   38.8860   26.8860   40.1600 H   0  0  0  0  0  0  0  0  0  0  0  0
   37.1330   27.2830   39.8460 H   0  0  0  0  0  0  0  0  0  0  0  0
   38.7150   27.5580   42.4700 H   0  0  0  0  0  0  0  0  0  0  0  0
   37.2210   29.3320   43.3490 O   0  0  0  0  0  0  0  0  0  0  0  0
   36.3910   29.5000   43.8430 H   0  0  0  0  0  0  0  0  0  0  0  0
   36.9430   26.4810   42.2970 O   0  0  0  0  0  0  0  0  0  0  0  0
   37.5770   25.2540   42.1190 C   0  0  0  0  0  2  0  0  0  0  0  0
   36.7050   24.2250   41.4610 C   0  0  0  0  0  2  0  0  0  0  0  0
   36.8210   23.2170   41.9110 H   0  0  0  0  0  0  0  0  0  0  0  0
   36.1030   29.6180   37.8390 C   0  0  0  0  0  0  0  0  0  0  0  0
   35.0230   29.0900   38.5460 C   0  0  0  0  0  0  0  0  0  0  0  0
   33.9660   28.4650   37.8650 C   0  0  0  0  0  0  0  0  0  0  0  0
   34.0910   28.4230   36.4800 N   0  0  0  0  0  0  0  0  0  0  0  0
   35.1560   28.9460   35.8340 C   0  0  0  0  0  0  0  0  0  0  0  0
   36.1680   29.5460   36.5080 N   0  0  0  0  0  0  0  0  0  0  0  0
   34.7940   29.0410   39.5980 H   0  0  0  0  0  0  0  0  0  0  0  0
   33.0910   28.0260   38.2710 H   0  0  0  0  0  0  0  0  0  0  0  0
   35.1920   28.8780   34.7540 H   0  0  0  0  0  0  0  0  0  0  0  0
  1  7  1  1  0  0  0
  1  2  1  0  0  0  0
  2  8  1  1  0  0  0
  2  3  1  0  0  0  0
  2 18  1  0  0  0  0
  3 10  1  0  0  0  0
  4 12  1  0  0  0  0
  4  3  1  0  0  0  0
  4 11  1  0  0  0  0
  5 14  1  0  0  0  0
  5  4  1  0  0  0  0
  6  1  1  0  0  0  0
  6  5  1  0  0  0  0
  9  3  1  0  0  0  0
 13  5  1  0  0  0  0
 15  6  1  0  0  0  0
 16  6  1  0  0  0  0
 17 22  1  6  0  0  0
 17 27  1  0  0  0  0
 18 23  1  1  0  0  0
 18 17  1  0  0  0  0
 19 20  1  0  0  0  0
 19 18  1  0  0  0  0
 20 21  1  0  0  0  0
 21 17  1  0  0  0  0
 21 29  1  0  0  0  0
 21 26  1  1  0  0  0
 24 20  1  0  0  0  0
 25 20  1  0  0  0  0
 27 28  1  0  0  0  0
 30 29  1  0  0  0  0
 31 32  1  0  0  0  0
 31 30  1  0  0  0  0
 33 34  1  0  0  0  0
 33  1  1  0  0  0  0
 34 39  1  0  0  0  0
 35 40  1  0  0  0  0
 35 34  2  0  0  0  0
 36 35  1  0  0  0  0
 37 36  2  0  0  0  0
 37 38  1  0  0  0  0
 38 33  2  0  0  0  0
 41 37  1  0  0  0  0
M  END
>  <minimizedAffinity>
-5.20705128

$$$$

 OpenBabel03242517123D

 41 43  0  0  1  0  0  0  0  0999 V2000
   38.3990   27.3350   41.2710 C   0  0  2  0  0  0  0  0  0  0  0  0
   38.2290   28.7930   41.5220 C   0  0  2  0  0  0  0  0  0  0  0  0
   38.0640   29.1160   42.9610 C   0  0  0  0  0  0  0  0  0  0  0  0
   36.9960   28.3210   43.6620 C   0  0  0  0  0  0  0  0  0  0  0  0
   36.8670   26.9080   43.1720 C   0  0  0  0  0  0  0  0  0  0  0  0
   38.1180   26.4460   42.4490 C   0  0  0  0  0  0  0  0  0  0  0  0
   37.6790   27.0350   40.4500 H   0  0  0  0  0  0  0  0  0  0  0  0
   39.1410   29.3150   41.1660 H   0  0  0  0  0  0  0  0  0  0  0  0
   39.0270   28.9730   43.4890 H   0  0  0  0  0  0  0  0  0  0  0  0
   37.8050   30.1950   43.0820 H   0  0  0  0  0  0  0  0  0  0  0  0
   36.0270   28.8510   43.4900 H   0  0  0  0  0  0  0  0  0  0  0  0
   37.1690   28.3980   44.7630 H   0  0  0  0  0  0  0  0  0  0  0  0
   36.8110   26.2660   44.1000 H   0  0  0  0  0  0  0  0  0  0  0  0
   35.9620   26.7510   42.5300 H   0  0  0  0  0  0  0  0  0  0  0  0
   37.8640   25.4330   42.0260 H   0  0  0  0  0  0  0  0  0  0  0  0
   38.9010   26.3440   43.1870 H   0  0  0  0  0  0  0  0  0  0  0  0
   36.7800   30.7720   40.9160 C   0  0  1  0  0  0  0  0  0  0  0  0
   37.0730   29.3320   40.7090 C   0  0  1  0  0  0  0  0  0  0  0  0
   37.3590   29.1250   39.3640 O   0  0  0  0  0  0  0  0  0  0  0  0
   37.6950   30.3440   38.8000 C   0  0  0  0  0  0  0  0  0  0  0  0
   36.6810   31.2620   39.4660 C   0  0  2  0  0  0  0  0  0  0  0  0
   37.6230   31.3100   41.3860 H   0  0  0  0  0  0  0  0  0  0  0  0
   36.1710   28.7300   40.9710 H   0  0  0  0  0  0  0  0  0  0  0  0
   37.5070   30.2490   37.7150 H   0  0  0  0  0  0  0  0  0  0  0  0
   38.7280   30.6500   39.0100 H   0  0  0  0  0  0  0  0  0  0  0  0
   35.6820   31.0760   39.0570 H   0  0  0  0  0  0  0  0  0  0  0  0
   35.5690   31.0140   41.5340 O   0  0  0  0  0  0  0  0  0  0  0  0
   35.6470   31.5560   42.3480 H   0  0  0  0  0  0  0  0  0  0  0  0
   37.0650   32.5930   39.3930 O   0  0  0  0  0  0  0  0  0  0  0  0
   38.4340   32.7360   39.6040 C   0  0  0  0  0  2  0  0  0  0  0  0
   38.7840   33.9280   40.4460 C   0  0  0  0  0  2  0  0  0  0  0  0
   39.6840   34.4620   40.0760 H   0  0  0  0  0  0  0  0  0  0  0  0
   39.7370   27.0050   40.7410 C   0  0  0  0  0  0  0  0  0  0  0  0
   40.1630   25.7020   40.9990 C   0  0  0  0  0  0  0  0  0  0  0  0
   41.4160   25.2630   40.5450 C   0  0  0  0  0  0  0  0  0  0  0  0
   42.1630   26.2050   39.8460 N   0  0  0  0  0  0  0  0  0  0  0  0
   41.7120   27.4590   39.6190 C   0  0  0  0  0  0  0  0  0  0  0  0
   40.4990   27.8670   40.0640 N   0  0  0  0  0  0  0  0  0  0  0  0
   39.7090   24.8770   41.5230 H   0  0  0  0  0  0  0  0  0  0  0  0
   41.8630   24.3080   40.6670 H   0  0  0  0  0  0  0  0  0  0  0  0
   42.3440   28.1450   39.0680 H   0  0  0  0  0  0  0  0  0  0  0  0
  1  7  1  6  0  0  0
  1  2  1  0  0  0  0
  1  6  1  0  0  0  0
  2  8  1  6  0  0  0
  2  3  1  0  0  0  0
  3 10  1  0  0  0  0
  3  9  1  0  0  0  0
  3  4  1  0  0  0  0
  4 12  1  0  0  0  0
  5  4  1  0  0  0  0
  5 13  1  0  0  0  0
  6  5  1  0  0  0  0
  6 16  1  0  0  0  0
 11  4  1  0  0  0  0
 14  5  1  0  0  0  0
 15  6  1  0  0  0  0
 17 22  1  1  0  0  0
 17 27  1  0  0  0  0
 18 17  1  0  0  0  0
 18 23  1  1  0  0  0
 18  2  1  0  0  0  0
 19 18  1  0  0  0  0
 20 25  1  0  0  0  0
 20 19  1  0  0  0  0
 20 21  1  0  0  0  0
 21 26  1  6  0  0  0
 21 17  1  0  0  0  0
 24 20  1  0  0  0  0
 27 28  1  0  0  0  0
 29 21  1  0  0  0  0
 29 30  1  0  0  0  0
 30 31  1  0  0  0  0
 32 31  1  0  0  0  0
 33 34  1  0  0  0  0
 33  1  1  0  0  0  0
 34 39  1  0  0  0  0
 35 40  1  0  0  0  0
 35 34  2  0  0  0  0
 36 35  1  0  0  0  0
 37 36  2  0  0  0  0
 37 38  1  0  0  0  0
 38 33  2  0  0  0  0
 41 37  1  0  0  0  0
M  END
>  <minimizedAffinity>
-5.19748783

$$$$

 OpenBabel03242517123D

 41 43  0  0  1  0  0  0  0  0999 V2000
   37.0500   27.9090   39.8230 C   0  0  2  0  0  0  0  0  0  0  0  0
   36.4350   29.1550   40.3590 C   0  0  2  0  0  0  0  0  0  0  0  0
   34.9570   29.1770   40.2220 C   0  0  0  0  0  0  0  0  0  0  0  0
   34.4550   28.8830   38.8340 C   0  0  0  0  0  0  0  0  0  0  0  0
   35.2820   27.8780   38.0860 C   0  0  0  0  0  0  0  0  0  0  0  0
   36.1270   27.0350   39.0220 C   0  0  0  0  0  0  0  0  0  0  0  0
   37.9010   28.2060   39.1400 H   0  0  0  0  0  0  0  0  0  0  0  0
   36.6690   29.2190   41.4420 H   0  0  0  0  0  0  0  0  0  0  0  0
   34.5050   28.4560   40.9310 H   0  0  0  0  0  0  0  0  0  0  0  0
   34.5620   30.1800   40.5100 H   0  0  0  0  0  0  0  0  0  0  0  0
   34.4650   29.8480   38.2710 H   0  0  0  0  0  0  0  0  0  0  0  0
   33.3740   28.6080   38.9050 H   0  0  0  0  0  0  0  0  0  0  0  0
   34.5440   27.1560   37.6260 H   0  0  0  0  0  0  0  0  0  0  0  0
   35.9210   28.3450   37.2930 H   0  0  0  0  0  0  0  0  0  0  0  0
   36.7850   26.4120   38.3530 H   0  0  0  0  0  0  0  0  0  0  0  0
   35.4570   26.3900   39.5730 H   0  0  0  0  0  0  0  0  0  0  0  0
   37.4890   31.4340   40.6450 C   0  0  1  0  0  0  0  0  0  0  0  0
   37.0590   30.3680   39.7060 C   0  0  1  0  0  0  0  0  0  0  0  0
   38.1650   29.9450   38.9780 O   0  0  0  0  0  0  0  0  0  0  0  0
   39.3060   30.3250   39.6620 C   0  0  0  0  0  0  0  0  0  0  0  0
   38.9090   31.7150   40.1390 C   0  0  2  0  0  0  0  0  0  0  0  0
   37.5790   31.0680   41.6850 H   0  0  0  0  0  0  0  0  0  0  0  0
   36.3090   30.7850   38.9920 H   0  0  0  0  0  0  0  0  0  0  0  0
   40.1190   30.3690   38.9150 H   0  0  0  0  0  0  0  0  0  0  0  0
   39.5550   29.6590   40.4980 H   0  0  0  0  0  0  0  0  0  0  0  0
   38.8930   32.4110   39.2930 H   0  0  0  0  0  0  0  0  0  0  0  0
   36.7580   32.6010   40.5410 O   0  0  0  0  0  0  0  0  0  0  0  0
   36.3550   32.8860   41.3890 H   0  0  0  0  0  0  0  0  0  0  0  0
   39.7060   32.1460   41.1900 O   0  0  0  0  0  0  0  0  0  0  0  0
   39.8490   31.1530   42.1560 C   0  0  0  0  0  2  0  0  0  0  0  0
   41.2350   31.0730   42.7250 C   0  0  0  0  0  2  0  0  0  0  0  0
   41.5760   30.0280   42.8730 H   0  0  0  0  0  0  0  0  0  0  0  0
   37.6770   27.0890   40.8780 C   0  0  0  0  0  0  0  0  0  0  0  0
   37.4440   25.7180   40.7680 C   0  0  0  0  0  0  0  0  0  0  0  0
   37.9880   24.8290   41.7080 C   0  0  0  0  0  0  0  0  0  0  0  0
   38.7470   25.4150   42.7150 N   0  0  0  0  0  0  0  0  0  0  0  0
   38.9470   26.7500   42.7850 C   0  0  0  0  0  0  0  0  0  0  0  0
   38.4140   27.5940   41.8690 N   0  0  0  0  0  0  0  0  0  0  0  0
   36.8810   25.1280   40.0630 H   0  0  0  0  0  0  0  0  0  0  0  0
   37.8940   23.7730   41.7460 H   0  0  0  0  0  0  0  0  0  0  0  0
   39.5480   27.1420   43.5970 H   0  0  0  0  0  0  0  0  0  0  0  0
  1  7  1  6  0  0  0
  1  2  1  0  0  0  0
  1 33  1  0  0  0  0
  2  8  1  1  0  0  0
  3  2  1  0  0  0  0
  3 10  1  0  0  0  0
  3  9  1  0  0  0  0
  4 12  1  0  0  0  0
  4  3  1  0  0  0  0
  5  4  1  0  0  0  0
  5  6  1  0  0  0  0
  6 16  1  0  0  0  0
  6  1  1  0  0  0  0
 11  4  1  0  0  0  0
 13  5  1  0  0  0  0
 14  5  1  0  0  0  0
 15  6  1  0  0  0  0
 17 22  1  1  0  0  0
 18 23  1  6  0  0  0
 18  2  1  0  0  0  0
 18 17  1  0  0  0  0
 19 20  1  0  0  0  0
 19 18  1  0  0  0  0
 20 21  1  0  0  0  0
 20 25  1  0  0  0  0
 21 26  1  6  0  0  0
 21 17  1  0  0  0  0
 21 29  1  0  0  0  0
 24 20  1  0  0  0  0
 27 17  1  0  0  0  0
 27 28  1  0  0  0  0
 29 30  1  0  0  0  0
 30 31  1  0  0  0  0
 31 32  1  0  0  0  0
 33 38  1  0  0  0  0
 34 33  2  0  0  0  0
 34 35  1  0  0  0  0
 35 40  1  0  0  0  0
 35 36  2  0  0  0  0
 36 37  1  0  0  0  0
 37 41  1  0  0  0  0
 38 37  2  0  0  0  0
 39 34  1  0  0  0  0
M  END
>  <minimizedAffinity>
-5.05969143

$$$$

 OpenBabel03242517123D

 41 43  0  0  1  0  0  0  0  0999 V2000
   38.3960   30.3700   38.7110 C   0  0  2  0  0  0  0  0  0  0  0  0
   37.4190   30.2000   39.8220 C   0  0  2  0  0  0  0  0  0  0  0  0
   36.6960   31.4530   40.1530 C   0  0  0  0  0  0  0  0  0  0  0  0
   37.5860   32.6430   40.3950 C   0  0  0  0  0  0  0  0  0  0  0  0
   38.8160   32.6690   39.5350 C   0  0  0  0  0  0  0  0  0  0  0  0
   38.6640   31.7920   38.3070 C   0  0  0  0  0  0  0  0  0  0  0  0
   39.3830   29.9270   39.0420 H   0  0  0  0  0  0  0  0  0  0  0  0
   36.6620   29.4530   39.5080 H   0  0  0  0  0  0  0  0  0  0  0  0
   35.9790   31.6960   39.3440 H   0  0  0  0  0  0  0  0  0  0  0  0
   36.0820   31.3080   41.0740 H   0  0  0  0  0  0  0  0  0  0  0  0
   37.8970   32.6060   41.4680 H   0  0  0  0  0  0  0  0  0  0  0  0
   36.9630   33.5670   40.3120 H   0  0  0  0  0  0  0  0  0  0  0  0
   38.8870   33.7230   39.1350 H   0  0  0  0  0  0  0  0  0  0  0  0
   39.7460   32.3980   40.0980 H   0  0  0  0  0  0  0  0  0  0  0  0
   39.6750   31.7930   37.8100 H   0  0  0  0  0  0  0  0  0  0  0  0
   37.9410   32.2640   37.6570 H   0  0  0  0  0  0  0  0  0  0  0  0
   37.2300   28.8690   41.9620 C   0  0  1  0  0  0  0  0  0  0  0  0
   38.1100   29.6340   41.0430 C   0  0  1  0  0  0  0  0  0  0  0  0
   39.1330   28.7990   40.6100 O   0  0  0  0  0  0  0  0  0  0  0  0
   38.7420   27.4880   40.8190 C   0  0  0  0  0  0  0  0  0  0  0  0
   38.0640   27.6000   42.1770 C   0  0  2  0  0  0  0  0  0  0  0  0
   36.2840   28.5600   41.4800 H   0  0  0  0  0  0  0  0  0  0  0  0
   38.5670   30.4890   41.5950 H   0  0  0  0  0  0  0  0  0  0  0  0
   39.6680   26.8890   40.8750 H   0  0  0  0  0  0  0  0  0  0  0  0
   38.0570   27.1100   40.0480 H   0  0  0  0  0  0  0  0  0  0  0  0
   38.8160   27.7540   42.9580 H   0  0  0  0  0  0  0  0  0  0  0  0
   37.0430   29.4720   43.1900 O   0  0  0  0  0  0  0  0  0  0  0  0
   36.0990   29.6160   43.4140 H   0  0  0  0  0  0  0  0  0  0  0  0
   37.2250   26.5230   42.4250 O   0  0  0  0  0  0  0  0  0  0  0  0
   37.7900   25.3300   41.9840 C   0  0  0  0  0  2  0  0  0  0  0  0
   36.7730   24.3150   41.5520 C   0  0  0  0  0  2  0  0  0  0  0  0
   37.0320   23.2860   41.8790 H   0  0  0  0  0  0  0  0  0  0  0  0
   38.0200   29.6020   37.5060 C   0  0  0  0  0  0  0  0  0  0  0  0
   37.0000   30.1710   36.7450 C   0  0  0  0  0  0  0  0  0  0  0  0
   36.5540   29.5400   35.5730 C   0  0  0  0  0  0  0  0  0  0  0  0
   37.1940   28.3470   35.2560 N   0  0  0  0  0  0  0  0  0  0  0  0
   38.1790   27.8290   36.0240 C   0  0  0  0  0  0  0  0  0  0  0  0
   38.5970   28.4520   37.1520 N   0  0  0  0  0  0  0  0  0  0  0  0
   36.4140   31.0680   36.8650 H   0  0  0  0  0  0  0  0  0  0  0  0
   35.7950   29.8570   34.9030 H   0  0  0  0  0  0  0  0  0  0  0  0
   38.6350   26.8950   35.7200 H   0  0  0  0  0  0  0  0  0  0  0  0
  1  7  1  1  0  0  0
  1  2  1  0  0  0  0
  2  8  1  6  0  0  0
  2  3  1  0  0  0  0
  2 18  1  0  0  0  0
  3  4  1  0  0  0  0
  3 10  1  0  0  0  0
  4 11  1  0  0  0  0
  5 14  1  0  0  0  0
  5  4  1  0  0  0  0
  6  1  1  0  0  0  0
  6  5  1  0  0  0  0
  9  3  1  0  0  0  0
 12  4  1  0  0  0  0
 13  5  1  0  0  0  0
 15  6  1  0  0  0  0
 16  6  1  0  0  0  0
 17 22  1  6  0  0  0
 17 21  1  0  0  0  0
 17 27  1  0  0  0  0
 18 23  1  1  0  0  0
 18 17  1  0  0  0  0
 19 20  1  0  0  0  0
 19 18  1  0  0  0  0
 20 24  1  0  0  0  0
 20 21  1  0  0  0  0
 21 29  1  0  0  0  0
 21 26  1  1  0  0  0
 25 20  1  0  0  0  0
 27 28  1  0  0  0  0
 30 29  1  0  0  0  0
 31 32  1  0  0  0  0
 31 30  1  0  0  0  0
 33  1  1  0  0  0  0
 34 39  1  0  0  0  0
 34 33  2  0  0  0  0
 35 34  1  0  0  0  0
 36 35  2  0  0  0  0
 36 37  1  0  0  0  0
 37 38  2  0  0  0  0
 38 33  1  0  0  0  0
 40 35  1  0  0  0  0
 41 37  1  0  0  0  0
M  END
>  <minimizedAffinity>
-5.05287218

$$$$
