
 OpenBabel03252504303D

 27 27  0  0  0  0  0  0  0  0999 V2000
   43.9210   35.2250   41.1810 C   0  0  0  0  0  0  0  0  0  0  0  0
   43.9410   35.6110   42.4700 C   0  0  0  0  0  0  0  0  0  0  0  0
   45.1920   35.7370   43.3260 C   0  0  0  0  0  0  0  0  0  0  0  0
   45.2850   36.8380   43.5340 H   0  0  0  0  0  0  0  0  0  0  0  0
   46.0760   35.3680   42.7890 H   0  0  0  0  0  0  0  0  0  0  0  0
   44.9260   35.1160   44.5170 O   0  0  0  0  0  0  0  0  0  0  0  0
   45.1950   32.5610   43.8390 O   0  0  0  0  0  0  0  0  0  0  0  0
   45.7850   33.6630   44.6680 P   0  0  1  0  0  0  0  0  0  0  0  0
   47.3940   33.8820   44.1730 O   0  0  0  0  0  0  0  0  0  0  0  0
   47.8160   32.9700   44.2090 H   0  0  0  0  0  0  0  0  0  0  0  0
   45.8230   33.2220   46.3050 O   0  0  0  0  0  0  0  0  0  0  0  0
   46.8640   32.3320   46.5620 C   0  0  0  0  0  0  0  0  0  0  0  0
   47.3700   32.3770   47.9720 C   0  0  0  0  0  0  0  0  0  0  0  0
   48.4830   32.5150   48.0350 H   0  0  0  0  0  0  0  0  0  0  0  0
   42.6760   35.1710   40.5670 O   0  0  0  0  0  0  0  0  0  0  0  0
   41.4800   35.6100   41.0960 C   0  0  0  0  0  0  0  0  0  0  0  0
   41.5370   35.6000   42.2280 H   0  0  0  0  0  0  0  0  0  0  0  0
   41.2660   36.6340   40.7950 H   0  0  0  0  0  0  0  0  0  0  0  0
   40.3550   33.5320   41.5740 C   0  0  0  0  0  0  0  0  0  0  0  0
   40.3400   34.7090   40.7970 C   0  0  0  0  0  0  0  0  0  0  0  0
   39.3170   34.8580   39.9070 C   0  0  0  0  0  0  0  0  0  0  0  0
   38.4150   33.8840   39.8420 N   0  0  0  0  0  0  0  0  0  0  0  0
   38.4270   32.7750   40.5740 C   0  0  0  0  0  0  0  0  0  0  0  0
   39.4410   32.5480   41.5060 N   0  0  0  0  0  0  0  0  0  0  0  0
   41.1200   33.2890   42.3260 H   0  0  0  0  0  0  0  0  0  0  0  0
   39.3660   35.7730   39.3500 H   0  0  0  0  0  0  0  0  0  0  0  0
   37.6620   32.0140   40.4760 H   0  0  0  0  0  0  0  0  0  0  0  0
  1  2  2  0  0  0  0
  2  3  1  0  0  0  0
  3  4  1  0  0  0  0
  3  6  1  0  0  0  0
  5  3  1  0  0  0  0
  6  8  1  0  0  0  0
  8  7  2  6  0  0  0
  8 11  1  0  0  0  0
  9 10  1  0  0  0  0
  9  8  1  0  0  0  0
 11 12  1  0  0  0  0
 12 13  1  0  0  0  0
 13 14  1  0  0  0  0
 15 16  1  0  0  0  0
 15  1  1  0  0  0  0
 16 17  1  0  0  0  0
 18 16  1  0  0  0  0
 19 25  1  0  0  0  0
 20 16  1  0  0  0  0
 20 19  2  0  0  0  0
 21 20  1  0  0  0  0
 22 21  2  0  0  0  0
 22 23  1  0  0  0  0
 23 24  2  0  0  0  0
 24 19  1  0  0  0  0
 26 21  1  0  0  0  0
 27 23  1  0  0  0  0
M  END
>  <minimizedAffinity>
-4.51938581

>  <minimizedRMSD>
0.639950395

$$$$
