
 OpenBabel03252504313D

 27 27  0  0  0  0  0  0  0  0999 V2000
   39.0550   27.1430   43.4530 C   0  0  0  0  0  3  0  0  0  0  0  0
   39.5390   28.3050   42.9760 C   0  0  0  0  0  3  0  0  0  0  0  0
   38.7680   29.6150   42.9170 C   0  0  0  0  0  0  0  0  0  0  0  0
   39.2060   30.1640   42.0380 H   0  0  0  0  0  0  0  0  0  0  0  0
   38.9020   30.1930   43.8410 H   0  0  0  0  0  0  0  0  0  0  0  0
   37.4730   29.3030   42.6010 O   0  0  0  0  0  0  0  0  0  0  0  0
   36.6810   29.1210   40.0710 O   0  0  0  0  0  0  0  0  0  0  0  0
   36.9710   30.0850   41.1840 P   0  0  1  0  0  0  0  0  0  0  0  0
   35.5590   30.9790   41.4790 O   0  0  0  0  0  0  0  0  0  0  0  0
   35.2750   31.3420   40.5860 H   0  0  0  0  0  0  0  0  0  0  0  0
   38.1720   31.1880   40.7180 O   0  0  0  0  0  0  0  0  0  0  0  0
   37.6130   32.4070   40.3370 C   0  0  0  0  0  2  0  0  0  0  0  0
   37.3090   32.5060   38.8720 C   0  0  0  0  0  2  0  0  0  0  0  0
   37.7500   33.4220   38.3940 H   0  0  0  0  0  0  0  0  0  0  0  0
   39.9150   26.0530   43.4230 O   0  0  0  0  0  0  0  0  0  0  0  0
   39.5620   24.7340   43.2170 C   0  0  0  0  0  0  0  0  0  0  0  0
   40.4960   24.0940   43.1580 H   0  0  0  0  0  0  0  0  0  0  0  0
   38.9620   24.3510   44.0410 H   0  0  0  0  0  0  0  0  0  0  0  0
   37.5360   24.1630   42.0430 C   0  0  0  0  0  0  0  0  0  0  0  0
   38.8990   24.5010   41.9110 C   0  0  0  0  0  0  0  0  0  0  0  0
   39.4070   24.5670   40.6470 C   0  0  0  0  0  0  0  0  0  0  0  0
   38.5800   24.3090   39.6390 N   0  0  0  0  0  0  0  0  0  0  0  0
   37.2950   23.9910   39.7620 C   0  0  0  0  0  0  0  0  0  0  0  0
   36.7010   23.9020   41.0220 N   0  0  0  0  0  0  0  0  0  0  0  0
   37.0030   24.0760   43.0010 H   0  0  0  0  0  0  0  0  0  0  0  0
   40.4460   24.8280   40.6180 H   0  0  0  0  0  0  0  0  0  0  0  0
   36.6680   23.7900   38.9010 H   0  0  0  0  0  0  0  0  0  0  0  0
  2  1  2  0  0  0  0
  3  2  1  0  0  0  0
  3  5  1  0  0  0  0
  4  3  1  0  0  0  0
  6  3  1  0  0  0  0
  8  7  2  6  0  0  0
  8  9  1  0  0  0  0
  8  6  1  0  0  0  0
 10  9  1  0  0  0  0
 11  8  1  0  0  0  0
 12 11  1  0  0  0  0
 13 12  1  0  0  0  0
 14 13  1  0  0  0  0
 15  1  1  0  0  0  0
 16 15  1  0  0  0  0
 16 18  1  0  0  0  0
 17 16  1  0  0  0  0
 19 25  1  0  0  0  0
 20 19  1  0  0  0  0
 20 16  1  0  0  0  0
 21 20  2  0  0  0  0
 22 23  2  0  0  0  0
 22 21  1  0  0  0  0
 23 24  1  0  0  0  0
 24 19  2  0  0  0  0
 26 21  1  0  0  0  0
 27 23  1  0  0  0  0
M  END
>  <minimizedAffinity>
-4.26955509

$$$$

 OpenBabel03252504313D

 27 27  0  0  0  0  0  0  0  0999 V2000
   34.2360   28.7940   36.4820 C   0  0  0  0  0  3  0  0  0  0  0  0
   34.3590   28.3580   37.7500 C   0  0  0  0  0  3  0  0  0  0  0  0
   35.6310   28.4350   38.5810 C   0  0  0  0  0  0  0  0  0  0  0  0
   36.4620   28.2320   37.8500 H   0  0  0  0  0  0  0  0  0  0  0  0
   35.6260   27.6800   39.3800 H   0  0  0  0  0  0  0  0  0  0  0  0
   35.7590   29.7320   38.9980 O   0  0  0  0  0  0  0  0  0  0  0  0
   37.8080   30.0280   40.6630 O   0  0  0  0  0  0  0  0  0  0  0  0
   36.3230   29.8220   40.5940 P   0  0  1  0  0  0  0  0  0  0  0  0
   35.5800   31.1130   41.4050 O   0  0  0  0  0  0  0  0  0  0  0  0
   36.0210   31.1570   42.3070 H   0  0  0  0  0  0  0  0  0  0  0  0
   35.8820   28.4010   41.4070 O   0  0  0  0  0  0  0  0  0  0  0  0
   36.9370   27.9130   42.1750 C   0  0  0  0  0  2  0  0  0  0  0  0
   36.5230   27.3990   43.5210 C   0  0  0  0  0  2  0  0  0  0  0  0
   37.1160   27.8490   44.3630 H   0  0  0  0  0  0  0  0  0  0  0  0
   32.9900   28.6360   35.8890 O   0  0  0  0  0  0  0  0  0  0  0  0
   32.2050   29.6340   35.3500 C   0  0  0  0  0  0  0  0  0  0  0  0
   32.8640   30.4740   34.9690 H   0  0  0  0  0  0  0  0  0  0  0  0
   31.6280   29.2690   34.5020 H   0  0  0  0  0  0  0  0  0  0  0  0
   30.8680   31.5590   35.9150 C   0  0  0  0  0  0  0  0  0  0  0  0
   31.3340   30.3010   36.3490 C   0  0  0  0  0  0  0  0  0  0  0  0
   30.9370   29.8790   37.5840 C   0  0  0  0  0  0  0  0  0  0  0  0
   30.1430   30.6840   38.2810 N   0  0  0  0  0  0  0  0  0  0  0  0
   29.7020   31.8700   37.8730 C   0  0  0  0  0  0  0  0  0  0  0  0
   30.0650   32.3730   36.6230 N   0  0  0  0  0  0  0  0  0  0  0  0
   31.1120   32.0160   34.9450 H   0  0  0  0  0  0  0  0  0  0  0  0
   31.3260   28.9160   37.8510 H   0  0  0  0  0  0  0  0  0  0  0  0
   29.0550   32.4840   38.4880 H   0  0  0  0  0  0  0  0  0  0  0  0
  1  2  2  0  0  0  0
  2  3  1  0  0  0  0
  3  6  1  0  0  0  0
  3  5  1  0  0  0  0
  4  3  1  0  0  0  0
  6  8  1  0  0  0  0
  8  7  2  1  0  0  0
  8  9  1  0  0  0  0
  8 11  1  0  0  0  0
  9 10  1  0  0  0  0
 11 12  1  0  0  0  0
 12 13  1  0  0  0  0
 13 14  1  0  0  0  0
 15  1  1  0  0  0  0
 16 15  1  0  0  0  0
 16 20  1  0  0  0  0
 17 16  1  0  0  0  0
 18 16  1  0  0  0  0
 19 20  2  0  0  0  0
 19 24  1  0  0  0  0
 20 21  1  0  0  0  0
 21 26  1  0  0  0  0
 21 22  2  0  0  0  0
 23 22  1  0  0  0  0
 23 27  1  0  0  0  0
 24 23  2  0  0  0  0
 25 19  1  0  0  0  0
M  END
>  <minimizedAffinity>
-4.20385027

$$$$

 OpenBabel03252504313D

 27 27  0  0  0  0  0  0  0  0999 V2000
   37.3390   32.2900   40.1560 C   0  0  0  0  0  3  0  0  0  0  0  0
   38.6790   32.2160   40.2630 C   0  0  0  0  0  3  0  0  0  0  0  0
   39.6680   33.0220   39.4360 C   0  0  0  0  0  0  0  0  0  0  0  0
   39.9870   33.8620   40.1120 H   0  0  0  0  0  0  0  0  0  0  0  0
   39.1930   33.4160   38.5270 H   0  0  0  0  0  0  0  0  0  0  0  0
   40.7610   32.2240   39.2300 O   0  0  0  0  0  0  0  0  0  0  0  0
   41.1960   30.4320   37.3160 O   0  0  0  0  0  0  0  0  0  0  0  0
   40.9920   31.8950   37.5830 P   0  0  1  0  0  0  0  0  0  0  0  0
   39.6400   32.4030   36.6910 O   0  0  0  0  0  0  0  0  0  0  0  0
   39.8090   32.1020   35.7470 H   0  0  0  0  0  0  0  0  0  0  0  0
   42.3210   32.7910   37.0310 O   0  0  0  0  0  0  0  0  0  0  0  0
   43.4750   32.4690   37.7430 C   0  0  0  0  0  2  0  0  0  0  0  0
   44.5430   33.5190   37.6780 C   0  0  0  0  0  2  0  0  0  0  0  0
   45.5390   33.1110   37.3570 H   0  0  0  0  0  0  0  0  0  0  0  0
   36.6020   31.4710   41.0010 O   0  0  0  0  0  0  0  0  0  0  0  0
   36.1330   30.2050   40.7150 C   0  0  0  0  0  0  0  0  0  0  0  0
   35.0380   30.1300   40.9980 H   0  0  0  0  0  0  0  0  0  0  0  0
   36.2050   29.9870   39.6510 H   0  0  0  0  0  0  0  0  0  0  0  0
   36.5590   27.8500   41.0100 C   0  0  0  0  0  0  0  0  0  0  0  0
   36.7750   29.1440   41.5290 C   0  0  0  0  0  0  0  0  0  0  0  0
   37.5200   29.2440   42.6670 C   0  0  0  0  0  0  0  0  0  0  0  0
   37.9830   28.1170   43.1980 N   0  0  0  0  0  0  0  0  0  0  0  0
   37.7810   26.8970   42.7090 C   0  0  0  0  0  0  0  0  0  0  0  0
   37.0280   26.7110   41.5480 N   0  0  0  0  0  0  0  0  0  0  0  0
   35.9790   27.6300   40.1010 H   0  0  0  0  0  0  0  0  0  0  0  0
   37.6460   30.2530   43.0070 H   0  0  0  0  0  0  0  0  0  0  0  0
   38.1850   26.0130   43.1880 H   0  0  0  0  0  0  0  0  0  0  0  0
  1  2  2  0  0  0  0
  1 15  1  0  0  0  0
  3  4  1  0  0  0  0
  3  2  1  0  0  0  0
  5  3  1  0  0  0  0
  6  3  1  0  0  0  0
  8  7  2  6  0  0  0
  8  6  1  0  0  0  0
  9  8  1  0  0  0  0
 10  9  1  0  0  0  0
 11  8  1  0  0  0  0
 11 12  1  0  0  0  0
 13 12  1  0  0  0  0
 14 13  1  0  0  0  0
 16 17  1  0  0  0  0
 16 15  1  0  0  0  0
 16 20  1  0  0  0  0
 18 16  1  0  0  0  0
 19 20  2  0  0  0  0
 19 24  1  0  0  0  0
 20 21  1  0  0  0  0
 21 26  1  0  0  0  0
 21 22  2  0  0  0  0
 23 27  1  0  0  0  0
 23 22  1  0  0  0  0
 24 23  2  0  0  0  0
 25 19  1  0  0  0  0
M  END
>  <minimizedAffinity>
-4.08517408

$$$$

 OpenBabel03252504313D

 27 27  0  0  0  0  0  0  0  0999 V2000
   37.3430   28.5310   42.3990 C   0  0  0  0  0  3  0  0  0  0  0  0
   38.5050   28.3250   43.0470 C   0  0  0  0  0  3  0  0  0  0  0  0
   39.0520   26.9640   43.4510 C   0  0  0  0  0  0  0  0  0  0  0  0
   38.8560   26.8950   44.5560 H   0  0  0  0  0  0  0  0  0  0  0  0
   40.1280   26.8950   43.2440 H   0  0  0  0  0  0  0  0  0  0  0  0
   38.2720   26.0220   42.8360 O   0  0  0  0  0  0  0  0  0  0  0  0
   40.4310   25.3330   41.4490 O   0  0  0  0  0  0  0  0  0  0  0  0
   39.2100   24.7960   42.1370 P   0  0  1  0  0  0  0  0  0  0  0  0
   39.7230   23.7010   43.3280 O   0  0  0  0  0  0  0  0  0  0  0  0
   40.3370   23.0580   42.8590 H   0  0  0  0  0  0  0  0  0  0  0  0
   38.2450   23.9290   41.0440 O   0  0  0  0  0  0  0  0  0  0  0  0
   36.8910   24.1470   41.2890 C   0  0  0  0  0  2  0  0  0  0  0  0
   36.0090   23.8840   40.1050 C   0  0  0  0  0  2  0  0  0  0  0  0
   35.3270   24.7450   39.8670 H   0  0  0  0  0  0  0  0  0  0  0  0
   37.0140   29.8510   42.1180 O   0  0  0  0  0  0  0  0  0  0  0  0
   36.9280   30.4280   40.8670 C   0  0  0  0  0  0  0  0  0  0  0  0
   37.3220   29.7060   40.0870 H   0  0  0  0  0  0  0  0  0  0  0  0
   35.8960   30.6520   40.6050 H   0  0  0  0  0  0  0  0  0  0  0  0
   37.1640   32.6700   40.0130 C   0  0  0  0  0  0  0  0  0  0  0  0
   37.7970   31.6190   40.7100 C   0  0  0  0  0  0  0  0  0  0  0  0
   39.0770   31.8310   41.1320 C   0  0  0  0  0  0  0  0  0  0  0  0
   39.6270   33.0090   40.8540 N   0  0  0  0  0  0  0  0  0  0  0  0
   39.0310   34.0000   40.1980 C   0  0  0  0  0  0  0  0  0  0  0  0
   37.7230   33.8600   39.7330 N   0  0  0  0  0  0  0  0  0  0  0  0
   36.1380   32.6300   39.6200 H   0  0  0  0  0  0  0  0  0  0  0  0
   39.4980   30.9940   41.6530 H   0  0  0  0  0  0  0  0  0  0  0  0
   39.5330   34.9400   40.0010 H   0  0  0  0  0  0  0  0  0  0  0  0
  1  2  2  0  0  0  0
  2  3  1  0  0  0  0
  3  4  1  0  0  0  0
  5  3  1  0  0  0  0
  6  3  1  0  0  0  0
  8  7  2  6  0  0  0
  8  6  1  0  0  0  0
  8  9  1  0  0  0  0
 10  9  1  0  0  0  0
 11 12  1  0  0  0  0
 11  8  1  0  0  0  0
 13 12  1  0  0  0  0
 14 13  1  0  0  0  0
 15  1  1  0  0  0  0
 16 15  1  0  0  0  0
 17 16  1  0  0  0  0
 18 16  1  0  0  0  0
 19 20  1  0  0  0  0
 20 16  1  0  0  0  0
 20 21  2  0  0  0  0
 21 26  1  0  0  0  0
 22 21  1  0  0  0  0
 23 22  2  0  0  0  0
 24 19  2  0  0  0  0
 24 23  1  0  0  0  0
 25 19  1  0  0  0  0
 27 23  1  0  0  0  0
M  END
>  <minimizedAffinity>
-4.05062914

$$$$

 OpenBabel03252504313D

 27 27  0  0  0  0  0  0  0  0999 V2000
   37.4550   30.0250   41.4220 C   0  0  0  0  0  3  0  0  0  0  0  0
   38.6850   30.5620   41.3150 C   0  0  0  0  0  3  0  0  0  0  0  0
   39.1550   31.4510   40.1730 C   0  0  0  0  0  0  0  0  0  0  0  0
   40.2530   31.6020   40.3640 H   0  0  0  0  0  0  0  0  0  0  0  0
   38.6250   32.4130   40.1780 H   0  0  0  0  0  0  0  0  0  0  0  0
   39.0350   30.7190   39.0220 O   0  0  0  0  0  0  0  0  0  0  0  0
   37.2500   32.6040   38.4550 O   0  0  0  0  0  0  0  0  0  0  0  0
   38.1210   31.5390   37.8550 P   0  0  1  0  0  0  0  0  0  0  0  0
   39.1460   32.2820   36.7250 O   0  0  0  0  0  0  0  0  0  0  0  0
   38.5450   32.8140   36.1200 H   0  0  0  0  0  0  0  0  0  0  0  0
   37.1800   30.4100   37.0090 O   0  0  0  0  0  0  0  0  0  0  0  0
   36.2230   29.8310   37.8390 C   0  0  0  0  0  2  0  0  0  0  0  0
   36.4740   28.3840   38.1420 C   0  0  0  0  0  2  0  0  0  0  0  0
   35.5850   27.7310   37.9290 H   0  0  0  0  0  0  0  0  0  0  0  0
   37.2160   29.2390   42.5410 O   0  0  0  0  0  0  0  0  0  0  0  0
   38.1660   28.6580   43.3560 C   0  0  0  0  0  0  0  0  0  0  0  0
   39.1750   29.1390   43.1680 H   0  0  0  0  0  0  0  0  0  0  0  0
   37.9310   28.8070   44.4080 H   0  0  0  0  0  0  0  0  0  0  0  0
   39.5600   26.7170   43.6790 C   0  0  0  0  0  0  0  0  0  0  0  0
   38.4030   27.2250   43.0520 C   0  0  0  0  0  0  0  0  0  0  0  0
   37.6810   26.3630   42.2800 C   0  0  0  0  0  0  0  0  0  0  0  0
   38.1230   25.1140   42.1780 N   0  0  0  0  0  0  0  0  0  0  0  0
   39.2130   24.6340   42.7690 C   0  0  0  0  0  0  0  0  0  0  0  0
   40.0050   25.4530   43.5740 N   0  0  0  0  0  0  0  0  0  0  0  0
   40.2280   27.3030   44.3270 H   0  0  0  0  0  0  0  0  0  0  0  0
   36.8160   26.8130   41.8330 H   0  0  0  0  0  0  0  0  0  0  0  0
   39.5240   23.6030   42.6470 H   0  0  0  0  0  0  0  0  0  0  0  0
  1 15  1  0  0  0  0
  2  1  2  0  0  0  0
  3  5  1  0  0  0  0
  3  4  1  0  0  0  0
  3  2  1  0  0  0  0
  6  3  1  0  0  0  0
  8  7  2  1  0  0  0
  8  6  1  0  0  0  0
  9  8  1  0  0  0  0
 10  9  1  0  0  0  0
 11 12  1  0  0  0  0
 11  8  1  0  0  0  0
 12 13  1  0  0  0  0
 14 13  1  0  0  0  0
 15 16  1  0  0  0  0
 16 18  1  0  0  0  0
 17 16  1  0  0  0  0
 19 25  1  0  0  0  0
 20 16  1  0  0  0  0
 20 19  2  0  0  0  0
 21 20  1  0  0  0  0
 22 21  2  0  0  0  0
 22 23  1  0  0  0  0
 23 24  2  0  0  0  0
 24 19  1  0  0  0  0
 26 21  1  0  0  0  0
 27 23  1  0  0  0  0
M  END
>  <minimizedAffinity>
-4.03663826

$$$$

 OpenBabel03252504313D

 27 27  0  0  0  0  0  0  0  0999 V2000
   36.8970   29.2690   38.0380 C   0  0  0  0  0  3  0  0  0  0  0  0
   36.0350   29.1460   39.0640 C   0  0  0  0  0  3  0  0  0  0  0  0
   35.9740   27.9630   40.0180 C   0  0  0  0  0  0  0  0  0  0  0  0
   37.0110   27.5290   39.9990 H   0  0  0  0  0  0  0  0  0  0  0  0
   35.2380   27.2210   39.6800 H   0  0  0  0  0  0  0  0  0  0  0  0
   35.7640   28.4710   41.2720 O   0  0  0  0  0  0  0  0  0  0  0  0
   38.3960   28.2890   41.5850 O   0  0  0  0  0  0  0  0  0  0  0  0
   37.0800   28.1680   42.2950 P   0  0  1  0  0  0  0  0  0  0  0  0
   37.0820   29.2700   43.5870 O   0  0  0  0  0  0  0  0  0  0  0  0
   37.9280   29.0870   44.0990 H   0  0  0  0  0  0  0  0  0  0  0  0
   36.9050   26.6190   42.9620 O   0  0  0  0  0  0  0  0  0  0  0  0
   37.7160   25.6950   42.3050 C   0  0  0  0  0  2  0  0  0  0  0  0
   36.9570   24.6730   41.5130 C   0  0  0  0  0  2  0  0  0  0  0  0
   37.2540   23.6180   41.7600 H   0  0  0  0  0  0  0  0  0  0  0  0
   36.7970   30.4270   37.2770 O   0  0  0  0  0  0  0  0  0  0  0  0
   37.7770   31.3830   37.1020 C   0  0  0  0  0  0  0  0  0  0  0  0
   38.7610   30.8800   36.8500 H   0  0  0  0  0  0  0  0  0  0  0  0
   37.5360   32.0500   36.2760 H   0  0  0  0  0  0  0  0  0  0  0  0
   39.4580   32.1550   38.6480 C   0  0  0  0  0  0  0  0  0  0  0  0
   38.0820   32.1430   38.3390 C   0  0  0  0  0  0  0  0  0  0  0  0
   37.2450   32.8080   39.1860 C   0  0  0  0  0  0  0  0  0  0  0  0
   37.7900   33.4150   40.2350 N   0  0  0  0  0  0  0  0  0  0  0  0
   39.0870   33.4280   40.5270 C   0  0  0  0  0  0  0  0  0  0  0  0
   40.0070   32.7690   39.7100 N   0  0  0  0  0  0  0  0  0  0  0  0
   40.2370   31.6600   38.0500 H   0  0  0  0  0  0  0  0  0  0  0  0
   36.2150   32.7600   38.8940 H   0  0  0  0  0  0  0  0  0  0  0  0
   39.4740   33.9410   41.4000 H   0  0  0  0  0  0  0  0  0  0  0  0
  1  2  2  0  0  0  0
  2  3  1  0  0  0  0
  3  6  1  0  0  0  0
  4  3  1  0  0  0  0
  5  3  1  0  0  0  0
  6  8  1  0  0  0  0
  8  7  2  6  0  0  0
  8 11  1  0  0  0  0
  8  9  1  0  0  0  0
  9 10  1  0  0  0  0
 12 11  1  0  0  0  0
 13 14  1  0  0  0  0
 13 12  1  0  0  0  0
 15  1  1  0  0  0  0
 16 15  1  0  0  0  0
 16 20  1  0  0  0  0
 17 16  1  0  0  0  0
 18 16  1  0  0  0  0
 19 24  1  0  0  0  0
 20 19  2  0  0  0  0
 20 21  1  0  0  0  0
 21 22  2  0  0  0  0
 22 23  1  0  0  0  0
 23 27  1  0  0  0  0
 24 23  2  0  0  0  0
 25 19  1  0  0  0  0
 26 21  1  0  0  0  0
M  END
>  <minimizedAffinity>
-4.02127409

$$$$

 OpenBabel03252504313D

 27 27  0  0  0  0  0  0  0  0999 V2000
   37.8220   30.2500   41.5210 C   0  0  0  0  0  3  0  0  0  0  0  0
   37.0700   31.0640   40.7570 C   0  0  0  0  0  3  0  0  0  0  0  0
   37.6130   32.1220   39.8100 C   0  0  0  0  0  0  0  0  0  0  0  0
   38.6760   31.8100   39.6130 H   0  0  0  0  0  0  0  0  0  0  0  0
   37.5820   33.1180   40.2720 H   0  0  0  0  0  0  0  0  0  0  0  0
   36.9240   31.9980   38.6340 O   0  0  0  0  0  0  0  0  0  0  0  0
   37.0670   30.1930   36.6890 O   0  0  0  0  0  0  0  0  0  0  0  0
   37.8520   31.2230   37.4460 P   0  0  1  0  0  0  0  0  0  0  0  0
   38.4350   32.3590   36.3280 O   0  0  0  0  0  0  0  0  0  0  0  0
   38.8990   31.8240   35.6140 H   0  0  0  0  0  0  0  0  0  0  0  0
   39.2020   30.5150   38.1880 O   0  0  0  0  0  0  0  0  0  0  0  0
   39.1020   29.1250   38.1900 C   0  0  0  0  0  2  0  0  0  0  0  0
   40.1110   28.4430   39.0640 C   0  0  0  0  0  2  0  0  0  0  0  0
   40.6880   27.6430   38.5250 H   0  0  0  0  0  0  0  0  0  0  0  0
   37.1390   29.3450   42.3250 O   0  0  0  0  0  0  0  0  0  0  0  0
   37.6130   28.7490   43.4760 C   0  0  0  0  0  0  0  0  0  0  0  0
   38.4790   29.3510   43.8890 H   0  0  0  0  0  0  0  0  0  0  0  0
   36.8470   28.7160   44.2490 H   0  0  0  0  0  0  0  0  0  0  0  0
   37.3840   26.5830   42.4410 C   0  0  0  0  0  0  0  0  0  0  0  0
   38.2010   27.4070   43.2420 C   0  0  0  0  0  0  0  0  0  0  0  0
   39.3820   26.8810   43.6780 C   0  0  0  0  0  0  0  0  0  0  0  0
   39.6700   25.6360   43.3150 N   0  0  0  0  0  0  0  0  0  0  0  0
   38.9000   24.8590   42.5600 C   0  0  0  0  0  0  0  0  0  0  0  0
   37.6770   25.3230   42.0750 N   0  0  0  0  0  0  0  0  0  0  0  0
   36.4110   26.8830   42.0240 H   0  0  0  0  0  0  0  0  0  0  0  0
   39.9530   27.5590   44.2810 H   0  0  0  0  0  0  0  0  0  0  0  0
   39.1890   23.8480   42.2960 H   0  0  0  0  0  0  0  0  0  0  0  0
  1 15  1  0  0  0  0
  2  1  2  0  0  0  0
  3  5  1  0  0  0  0
  3  2  1  0  0  0  0
  4  3  1  0  0  0  0
  6  3  1  0  0  0  0
  8  7  2  6  0  0  0
  8 11  1  0  0  0  0
  8  6  1  0  0  0  0
  9  8  1  0  0  0  0
 10  9  1  0  0  0  0
 11 12  1  0  0  0  0
 12 13  1  0  0  0  0
 14 13  1  0  0  0  0
 15 16  1  0  0  0  0
 16 17  1  0  0  0  0
 16 18  1  0  0  0  0
 19 20  1  0  0  0  0
 20 16  1  0  0  0  0
 20 21  2  0  0  0  0
 21 26  1  0  0  0  0
 22 21  1  0  0  0  0
 23 22  2  0  0  0  0
 24 19  2  0  0  0  0
 24 23  1  0  0  0  0
 25 19  1  0  0  0  0
 27 23  1  0  0  0  0
M  END
>  <minimizedAffinity>
-4.00637531

$$$$

 OpenBabel03252504313D

 27 27  0  0  0  0  0  0  0  0999 V2000
   36.8720   29.0770   38.7520 C   0  0  0  0  0  3  0  0  0  0  0  0
   36.5730   30.3390   38.3910 C   0  0  0  0  0  3  0  0  0  0  0  0
   37.4510   31.2330   37.5290 C   0  0  0  0  0  0  0  0  0  0  0  0
   36.7280   31.8880   36.9690 H   0  0  0  0  0  0  0  0  0  0  0  0
   38.0540   30.6370   36.8300 H   0  0  0  0  0  0  0  0  0  0  0  0
   38.1600   32.0380   38.3790 O   0  0  0  0  0  0  0  0  0  0  0  0
   40.2260   30.3820   38.1630 O   0  0  0  0  0  0  0  0  0  0  0  0
   39.8310   31.8300   38.1880 P   0  0  1  0  0  0  0  0  0  0  0  0
   40.3450   32.5360   36.7330 O   0  0  0  0  0  0  0  0  0  0  0  0
   41.3190   32.3010   36.6470 H   0  0  0  0  0  0  0  0  0  0  0  0
   40.6270   32.6420   39.4460 O   0  0  0  0  0  0  0  0  0  0  0  0
   39.8840   32.5940   40.6240 C   0  0  0  0  0  2  0  0  0  0  0  0
   40.3480   31.5490   41.5940 C   0  0  0  0  0  2  0  0  0  0  0  0
   39.5200   30.8720   41.9380 H   0  0  0  0  0  0  0  0  0  0  0  0
   35.9400   28.4210   39.5460 O   0  0  0  0  0  0  0  0  0  0  0  0
   35.6110   28.7270   40.8510 C   0  0  0  0  0  0  0  0  0  0  0  0
   35.4330   29.8430   40.9480 H   0  0  0  0  0  0  0  0  0  0  0  0
   34.6920   28.2290   41.1550 H   0  0  0  0  0  0  0  0  0  0  0  0
   36.9830   27.0900   41.9690 C   0  0  0  0  0  0  0  0  0  0  0  0
   36.7110   28.4660   41.8110 C   0  0  0  0  0  0  0  0  0  0  0  0
   37.4680   29.3400   42.5340 C   0  0  0  0  0  0  0  0  0  0  0  0
   38.4020   28.8290   43.3300 N   0  0  0  0  0  0  0  0  0  0  0  0
   38.6600   27.5330   43.4790 C   0  0  0  0  0  0  0  0  0  0  0  0
   37.9280   26.5760   42.7750 N   0  0  0  0  0  0  0  0  0  0  0  0
   36.4490   26.2830   41.4460 H   0  0  0  0  0  0  0  0  0  0  0  0
   37.2100   30.3670   42.3680 H   0  0  0  0  0  0  0  0  0  0  0  0
   39.4360   27.1760   44.1450 H   0  0  0  0  0  0  0  0  0  0  0  0
  1 15  1  0  0  0  0
  2  1  2  0  0  0  0
  3  6  1  0  0  0  0
  3  2  1  0  0  0  0
  4  3  1  0  0  0  0
  5  3  1  0  0  0  0
  8  7  2  1  0  0  0
  8  6  1  0  0  0  0
  8 11  1  0  0  0  0
  9  8  1  0  0  0  0
 10  9  1  0  0  0  0
 11 12  1  0  0  0  0
 12 13  1  0  0  0  0
 13 14  1  0  0  0  0
 15 16  1  0  0  0  0
 16 17  1  0  0  0  0
 16 18  1  0  0  0  0
 16 20  1  0  0  0  0
 19 24  1  0  0  0  0
 20 19  2  0  0  0  0
 20 21  1  0  0  0  0
 21 22  2  0  0  0  0
 22 23  1  0  0  0  0
 23 27  1  0  0  0  0
 24 23  2  0  0  0  0
 25 19  1  0  0  0  0
 26 21  1  0  0  0  0
M  END
>  <minimizedAffinity>
-3.9390223

$$$$

 OpenBabel03252504313D

 27 27  0  0  0  0  0  0  0  0999 V2000
   38.2640   29.5520   42.9000 C   0  0  0  0  0  3  0  0  0  0  0  0
   39.5080   29.9370   42.5580 C   0  0  0  0  0  3  0  0  0  0  0  0
   39.8630   31.2610   41.8990 C   0  0  0  0  0  0  0  0  0  0  0  0
   40.9870   31.2670   41.8600 H   0  0  0  0  0  0  0  0  0  0  0  0
   39.4920   32.1090   42.4910 H   0  0  0  0  0  0  0  0  0  0  0  0
   39.4080   31.2000   40.6090 O   0  0  0  0  0  0  0  0  0  0  0  0
   38.9030   33.7560   41.1280 O   0  0  0  0  0  0  0  0  0  0  0  0
   38.6730   32.6520   40.1380 P   0  0  1  0  0  0  0  0  0  0  0  0
   39.2900   33.1600   38.6400 O   0  0  0  0  0  0  0  0  0  0  0  0
   38.8760   34.0600   38.4670 H   0  0  0  0  0  0  0  0  0  0  0  0
   37.0130   32.3780   39.9270 O   0  0  0  0  0  0  0  0  0  0  0  0
   36.7350   31.0150   39.8490 C   0  0  0  0  0  2  0  0  0  0  0  0
   36.6620   30.4880   38.4470 C   0  0  0  0  0  2  0  0  0  0  0  0
   35.7140   29.9210   38.2410 H   0  0  0  0  0  0  0  0  0  0  0  0
   38.1420   28.3020   43.4940 O   0  0  0  0  0  0  0  0  0  0  0  0
   37.0560   27.4550   43.4090 C   0  0  0  0  0  0  0  0  0  0  0  0
   37.1730   26.6090   44.1540 H   0  0  0  0  0  0  0  0  0  0  0  0
   36.1300   27.9730   43.6540 H   0  0  0  0  0  0  0  0  0  0  0  0
   37.1630   25.3660   42.2100 C   0  0  0  0  0  0  0  0  0  0  0  0
   36.9560   26.7580   42.1030 C   0  0  0  0  0  0  0  0  0  0  0  0
   36.6990   27.2580   40.8610 C   0  0  0  0  0  0  0  0  0  0  0  0
   36.6650   26.3980   39.8480 N   0  0  0  0  0  0  0  0  0  0  0  0
   36.8590   25.0870   39.9470 C   0  0  0  0  0  0  0  0  0  0  0  0
   37.1280   24.4980   41.1840 N   0  0  0  0  0  0  0  0  0  0  0  0
   37.3780   24.8360   43.1490 H   0  0  0  0  0  0  0  0  0  0  0  0
   36.5520   28.3200   40.8510 H   0  0  0  0  0  0  0  0  0  0  0  0
   36.8190   24.4340   39.0830 H   0  0  0  0  0  0  0  0  0  0  0  0
  1 15  1  0  0  0  0
  2  1  2  0  0  0  0
  3  5  1  0  0  0  0
  3  2  1  0  0  0  0
  4  3  1  0  0  0  0
  6  3  1  0  0  0  0
  8  6  1  0  0  0  0
  8  7  2  1  0  0  0
  9  8  1  0  0  0  0
 10  9  1  0  0  0  0
 11  8  1  0  0  0  0
 12 11  1  0  0  0  0
 13 12  1  0  0  0  0
 14 13  1  0  0  0  0
 16 15  1  0  0  0  0
 16 18  1  0  0  0  0
 16 17  1  0  0  0  0
 19 25  1  0  0  0  0
 20 19  1  0  0  0  0
 20 16  1  0  0  0  0
 21 20  2  0  0  0  0
 22 23  2  0  0  0  0
 22 21  1  0  0  0  0
 23 24  1  0  0  0  0
 24 19  2  0  0  0  0
 26 21  1  0  0  0  0
 27 23  1  0  0  0  0
M  END
>  <minimizedAffinity>
-3.90471029

$$$$
