
 OpenBabel03252508053D

 34 36  0  0  0  0  0  0  0  0999 V2000
   45.5930   36.1670   42.8830 C   0  0  0  0  0  0  0  0  0  0  0  0
   45.8090   34.7870   42.8910 C   0  0  0  0  0  0  0  0  0  0  0  0
   45.3700   34.0490   43.9770 C   0  0  0  0  0  0  0  0  0  0  0  0
   44.7310   34.7000   44.9980 N   0  0  0  0  0  0  0  0  0  0  0  0
   44.5330   36.0220   44.9670 C   0  0  0  0  0  0  0  0  0  0  0  0
   44.9670   36.7430   43.9130 N   0  0  0  0  0  0  0  0  0  0  0  0
   45.9110   36.8070   42.0730 H   0  0  0  0  0  0  0  0  0  0  0  0
   44.0120   36.4460   45.8330 H   0  0  0  0  0  0  0  0  0  0  0  0
   45.5320   32.6360   44.0960 C   0  0  0  0  0  0  0  0  0  0  0  0
   45.0590   31.6890   43.2020 C   0  0  0  0  0  0  0  0  0  0  0  0
   45.1360   30.3380   43.3880 C   0  0  0  0  0  0  0  0  0  0  0  0
   45.7160   29.8380   44.5380 C   0  0  0  0  0  0  0  0  0  0  0  0
   46.2080   30.7890   45.4640 C   0  0  0  0  0  0  0  0  0  0  0  0
   46.7890   30.3080   46.6170 C   0  0  0  0  0  0  0  0  0  0  0  0
   47.2950   31.1690   47.5630 C   0  0  0  0  0  0  0  0  0  0  0  0
   47.2190   32.5480   47.3440 C   0  0  0  0  0  0  0  0  0  0  0  0
   46.6200   33.0170   46.1610 C   0  0  0  0  0  0  0  0  0  0  0  0
   46.1150   32.1240   45.2380 C   0  0  0  0  0  0  0  0  0  0  0  0
   44.5860   31.9800   42.2900 H   0  0  0  0  0  0  0  0  0  0  0  0
   44.7620   29.6170   42.6740 H   0  0  0  0  0  0  0  0  0  0  0  0
   45.8000   28.7810   44.7360 H   0  0  0  0  0  0  0  0  0  0  0  0
   46.8340   29.2370   46.7550 H   0  0  0  0  0  0  0  0  0  0  0  0
   47.7310   30.6830   48.4410 H   0  0  0  0  0  0  0  0  0  0  0  0
   47.6630   33.0750   48.1770 H   0  0  0  0  0  0  0  0  0  0  0  0
   46.7320   34.0500   46.2350 H   0  0  0  0  0  0  0  0  0  0  0  0
   46.4420   34.2430   41.8050 O   0  0  0  0  0  0  0  0  0  0  0  0
   48.5180   33.6320   40.3140 O   0  0  0  0  0  0  0  0  0  0  0  0
   48.1340   34.2590   41.6110 P   0  0  1  0  0  0  0  0  0  0  0  0
   48.7250   35.8520   41.5820 O   0  0  0  0  0  0  0  0  0  0  0  0
   48.8630   36.1270   42.5250 H   0  0  0  0  0  0  0  0  0  0  0  0
   48.8340   33.4630   42.9010 O   0  0  0  0  0  0  0  0  0  0  0  0
   49.5510   32.3420   42.5480 C   0  0  0  0  0  2  0  0  0  0  0  0
   48.8590   31.0380   42.8870 C   0  0  0  0  0  2  0  0  0  0  0  0
   47.9340   30.9050   42.2980 H   0  0  0  0  0  0  0  0  0  0  0  0
  1  2  2  0  0  0  0
  1  6  1  0  0  0  0
  2  3  1  0  0  0  0
  3  9  1  0  0  0  0
  3  4  2  0  0  0  0
  5  4  1  0  0  0  0
  5  8  1  0  0  0  0
  6  5  2  0  0  0  0
  7  1  1  0  0  0  0
  9 18  1  0  0  0  0
 10 11  1  0  0  0  0
 10  9  2  0  0  0  0
 11 12  2  0  0  0  0
 12 21  1  0  0  0  0
 12 13  1  0  0  0  0
 13 14  1  0  0  0  0
 14 22  1  0  0  0  0
 14 15  2  0  0  0  0
 15 23  1  0  0  0  0
 16 15  1  0  0  0  0
 16 24  1  0  0  0  0
 17 25  1  0  0  0  0
 17 16  2  0  0  0  0
 18 13  2  0  0  0  0
 18 17  1  0  0  0  0
 19 10  1  0  0  0  0
 20 11  1  0  0  0  0
 26  2  1  0  0  0  0
 28 27  2  6  0  0  0
 28 26  1  0  0  0  0
 28 31  1  0  0  0  0
 29 28  1  0  0  0  0
 29 30  1  0  0  0  0
 32 33  1  0  0  0  0
 32 31  1  0  0  0  0
 34 33  1  0  0  0  0
M  END
>  <minimizedAffinity>
-4.68271589

>  <minimizedRMSD>
1.84886539

$$$$
