
 OpenBabel03242513283D

 24 25  0  0  0  0  0  0  0  0999 V2000
   37.7040   29.8390   41.8210 C   0  0  0  0  0  0  0  0  0  0  0  0
   37.3570   30.6480   40.7490 C   0  0  0  0  0  0  0  0  0  0  0  0
   36.2430   30.3100   40.0410 C   0  0  0  0  0  0  0  0  0  0  0  0
   35.4810   29.2000   40.3740 C   0  0  0  0  0  0  0  0  0  0  0  0
   35.8280   28.4140   41.4250 C   0  0  0  0  0  0  0  0  0  0  0  0
   36.9590   28.7200   42.1780 C   0  0  0  0  0  0  0  0  0  0  0  0
   35.9470   30.9240   39.1980 H   0  0  0  0  0  0  0  0  0  0  0  0
   34.5930   28.9270   39.8130 H   0  0  0  0  0  0  0  0  0  0  0  0
   35.2400   27.5570   41.6830 H   0  0  0  0  0  0  0  0  0  0  0  0
   38.5250   34.1590   40.0300 C   0  0  0  0  0  0  0  0  0  0  0  0
   37.6990   33.0670   40.3120 C   0  0  0  0  0  0  0  0  0  0  0  0
   38.1890   31.7810   40.4590 C   0  0  0  0  0  0  0  0  0  0  0  0
   39.5280   31.6950   40.3020 N   0  0  0  0  0  0  0  0  0  0  0  0
   40.3420   32.7270   40.0310 C   0  0  0  0  0  0  0  0  0  0  0  0
   39.8370   33.9690   39.8940 N   0  0  0  0  0  0  0  0  0  0  0  0
   38.0880   35.1550   39.9240 H   0  0  0  0  0  0  0  0  0  0  0  0
   36.6390   33.2470   40.4190 H   0  0  0  0  0  0  0  0  0  0  0  0
   41.4090   32.4800   39.9350 H   0  0  0  0  0  0  0  0  0  0  0  0
   38.8370   30.1540   42.5670 O   0  0  0  0  0  0  0  0  0  0  0  0
   39.6510   29.5720   42.5870 H   0  0  0  0  0  0  0  0  0  0  0  0
   37.3810   27.9750   43.2570 O   0  0  0  0  0  0  0  0  0  0  0  0
   38.1270   26.7900   43.1600 C   0  0  0  0  0  2  0  0  0  0  0  0
   39.5160   26.8560   43.6790 C   0  0  0  0  0  2  0  0  0  0  0  0
   39.7920   27.8740   44.0250 H   0  0  0  0  0  0  0  0  0  0  0  0
  1  6  1  0  0  0  0
  1 19  1  0  0  0  0
  2  1  2  0  0  0  0
  3  4  2  0  0  0  0
  3  2  1  0  0  0  0
  4  5  1  0  0  0  0
  5  9  1  0  0  0  0
  5  6  2  0  0  0  0
  6 21  1  0  0  0  0
  7  3  1  0  0  0  0
  8  4  1  0  0  0  0
 10 11  1  0  0  0  0
 11 17  1  0  0  0  0
 11 12  2  0  0  0  0
 12  2  1  0  0  0  0
 13 12  1  0  0  0  0
 14 13  2  0  0  0  0
 15 10  2  0  0  0  0
 15 14  1  0  0  0  0
 16 10  1  0  0  0  0
 18 14  1  0  0  0  0
 19 20  1  0  0  0  0
 22 21  1  0  0  0  0
 22 23  1  0  0  0  0
 23 24  1  0  0  0  0
M  END
>  <minimizedAffinity>
-4.44274235

$$$$

 OpenBabel03242513283D

 24 25  0  0  0  0  0  0  0  0999 V2000
   37.2870   30.7340   37.1930 C   0  0  0  0  0  0  0  0  0  0  0  0
   37.1820   31.0060   38.5490 C   0  0  0  0  0  0  0  0  0  0  0  0
   36.2870   30.2740   39.2690 C   0  0  0  0  0  0  0  0  0  0  0  0
   35.5070   29.2930   38.6760 C   0  0  0  0  0  0  0  0  0  0  0  0
   35.6160   29.0340   37.3480 C   0  0  0  0  0  0  0  0  0  0  0  0
   36.5180   29.7560   36.5700 C   0  0  0  0  0  0  0  0  0  0  0  0
   36.1830   30.4650   40.3320 H   0  0  0  0  0  0  0  0  0  0  0  0
   34.7930   28.7080   39.2460 H   0  0  0  0  0  0  0  0  0  0  0  0
   35.0150   28.2760   36.8890 H   0  0  0  0  0  0  0  0  0  0  0  0
   38.3540   34.1590   40.2520 C   0  0  0  0  0  0  0  0  0  0  0  0
   37.5230   33.1670   39.7210 C   0  0  0  0  0  0  0  0  0  0  0  0
   38.0190   32.0350   39.0990 C   0  0  0  0  0  0  0  0  0  0  0  0
   39.3680   31.9910   39.0600 N   0  0  0  0  0  0  0  0  0  0  0  0
   40.1870   32.9280   39.5620 C   0  0  0  0  0  0  0  0  0  0  0  0
   39.6760   34.0210   40.1630 N   0  0  0  0  0  0  0  0  0  0  0  0
   37.9110   35.0350   40.7340 H   0  0  0  0  0  0  0  0  0  0  0  0
   36.4540   33.3010   39.8070 H   0  0  0  0  0  0  0  0  0  0  0  0
   41.2630   32.7350   39.4440 H   0  0  0  0  0  0  0  0  0  0  0  0
   38.1920   31.4630   36.4250 O   0  0  0  0  0  0  0  0  0  0  0  0
   37.9030   32.0960   35.7040 H   0  0  0  0  0  0  0  0  0  0  0  0
   36.6900   29.5560   35.2180 O   0  0  0  0  0  0  0  0  0  0  0  0
   35.7960   30.0010   34.2310 C   0  0  0  0  0  2  0  0  0  0  0  0
   36.2270   31.1920   33.4570 C   0  0  0  0  0  2  0  0  0  0  0  0
   37.1910   31.6070   33.8180 H   0  0  0  0  0  0  0  0  0  0  0  0
  1  2  1  0  0  0  0
  2 12  1  0  0  0  0
  2  3  2  0  0  0  0
  3  7  1  0  0  0  0
  4  8  1  0  0  0  0
  4  3  1  0  0  0  0
  5  4  2  0  0  0  0
  6  1  2  0  0  0  0
  6  5  1  0  0  0  0
  9  5  1  0  0  0  0
 10 16  1  0  0  0  0
 11 17  1  0  0  0  0
 11 10  2  0  0  0  0
 12 11  1  0  0  0  0
 13 12  2  0  0  0  0
 13 14  1  0  0  0  0
 14 15  2  0  0  0  0
 15 10  1  0  0  0  0
 18 14  1  0  0  0  0
 19  1  1  0  0  0  0
 20 19  1  0  0  0  0
 21  6  1  0  0  0  0
 22 21  1  0  0  0  0
 23 24  1  0  0  0  0
 23 22  1  0  0  0  0
M  END
>  <minimizedAffinity>
-4.4078064

$$$$

 OpenBabel03242513283D

 24 25  0  0  0  0  0  0  0  0999 V2000
   37.2980   28.4800   40.9930 C   0  0  0  0  0  0  0  0  0  0  0  0
   37.7080   29.4690   41.8740 C   0  0  0  0  0  0  0  0  0  0  0  0
   37.7460   29.1560   43.1990 C   0  0  0  0  0  0  0  0  0  0  0  0
   37.3890   27.8970   43.6570 C   0  0  0  0  0  0  0  0  0  0  0  0
   36.9880   26.9340   42.7880 C   0  0  0  0  0  0  0  0  0  0  0  0
   36.9330   27.2080   41.4240 C   0  0  0  0  0  0  0  0  0  0  0  0
   38.0630   29.9100   43.9110 H   0  0  0  0  0  0  0  0  0  0  0  0
   37.4170   27.6420   44.7110 H   0  0  0  0  0  0  0  0  0  0  0  0
   36.7120   25.9610   43.1410 H   0  0  0  0  0  0  0  0  0  0  0  0
   39.6490   32.5640   40.9410 C   0  0  0  0  0  0  0  0  0  0  0  0
   39.3200   31.3140   41.4750 C   0  0  0  0  0  0  0  0  0  0  0  0
   38.0640   30.7510   41.3330 C   0  0  0  0  0  0  0  0  0  0  0  0
   37.2040   31.5240   40.6360 N   0  0  0  0  0  0  0  0  0  0  0  0
   37.4950   32.7260   40.1130 C   0  0  0  0  0  0  0  0  0  0  0  0
   38.7270   33.2500   40.2680 N   0  0  0  0  0  0  0  0  0  0  0  0
   40.6570   32.9640   41.0820 H   0  0  0  0  0  0  0  0  0  0  0  0
   40.0850   30.7760   42.0170 H   0  0  0  0  0  0  0  0  0  0  0  0
   36.6760   33.2230   39.5740 H   0  0  0  0  0  0  0  0  0  0  0  0
   37.2460   28.7650   39.6310 O   0  0  0  0  0  0  0  0  0  0  0  0
   36.3870   28.7960   39.1160 H   0  0  0  0  0  0  0  0  0  0  0  0
   36.5370   26.2890   40.4770 O   0  0  0  0  0  0  0  0  0  0  0  0
   37.2050   25.0820   40.2160 C   0  0  0  0  0  2  0  0  0  0  0  0
   36.4320   23.8440   40.4860 C   0  0  0  0  0  2  0  0  0  0  0  0
   35.4330   24.0540   40.9220 H   0  0  0  0  0  0  0  0  0  0  0  0
  1  6  2  0  0  0  0
  1  2  1  0  0  0  0
  2  3  2  0  0  0  0
  3  4  1  0  0  0  0
  3  7  1  0  0  0  0
  4  8  1  0  0  0  0
  5  9  1  0  0  0  0
  5  4  2  0  0  0  0
  6  5  1  0  0  0  0
 10 16  1  0  0  0  0
 10 11  1  0  0  0  0
 11 17  1  0  0  0  0
 12 11  2  0  0  0  0
 12  2  1  0  0  0  0
 13 12  1  0  0  0  0
 14 15  1  0  0  0  0
 14 13  2  0  0  0  0
 15 10  2  0  0  0  0
 18 14  1  0  0  0  0
 19  1  1  0  0  0  0
 20 19  1  0  0  0  0
 21  6  1  0  0  0  0
 22 21  1  0  0  0  0
 22 23  1  0  0  0  0
 23 24  1  0  0  0  0
M  END
>  <minimizedAffinity>
-4.4027667

$$$$

 OpenBabel03242513283D

 24 25  0  0  0  0  0  0  0  0999 V2000
   37.0420   27.3220   41.1640 C   0  0  0  0  0  0  0  0  0  0  0  0
   37.8940   26.3690   41.7000 C   0  0  0  0  0  0  0  0  0  0  0  0
   38.4700   26.6450   42.9030 C   0  0  0  0  0  0  0  0  0  0  0  0
   38.2190   27.8330   43.5720 C   0  0  0  0  0  0  0  0  0  0  0  0
   37.3840   28.7620   43.0400 C   0  0  0  0  0  0  0  0  0  0  0  0
   36.7720   28.5240   41.8120 C   0  0  0  0  0  0  0  0  0  0  0  0
   39.1410   25.9170   43.3460 H   0  0  0  0  0  0  0  0  0  0  0  0
   38.6750   28.0580   44.5300 H   0  0  0  0  0  0  0  0  0  0  0  0
   37.1890   29.6800   43.5560 H   0  0  0  0  0  0  0  0  0  0  0  0
   37.7940   22.7710   40.5790 C   0  0  0  0  0  0  0  0  0  0  0  0
   37.5730   23.9370   41.3170 C   0  0  0  0  0  0  0  0  0  0  0  0
   38.1110   25.1600   40.9560 C   0  0  0  0  0  0  0  0  0  0  0  0
   38.8600   25.1070   39.8330 N   0  0  0  0  0  0  0  0  0  0  0  0
   39.0880   24.0010   39.1080 C   0  0  0  0  0  0  0  0  0  0  0  0
   38.5510   22.8230   39.4840 N   0  0  0  0  0  0  0  0  0  0  0  0
   37.3460   21.8290   40.9080 H   0  0  0  0  0  0  0  0  0  0  0  0
   36.9550   23.8690   42.2010 H   0  0  0  0  0  0  0  0  0  0  0  0
   39.7230   24.1340   38.2200 H   0  0  0  0  0  0  0  0  0  0  0  0
   36.4350   27.0740   39.9350 O   0  0  0  0  0  0  0  0  0  0  0  0
   36.6410   27.6070   39.1120 H   0  0  0  0  0  0  0  0  0  0  0  0
   35.9130   29.4120   41.2030 O   0  0  0  0  0  0  0  0  0  0  0  0
   36.2110   30.7610   40.9570 C   0  0  0  0  0  2  0  0  0  0  0  0
   36.8330   31.0580   39.6420 C   0  0  0  0  0  2  0  0  0  0  0  0
   37.0310   30.1400   39.0500 H   0  0  0  0  0  0  0  0  0  0  0  0
  1  2  2  0  0  0  0
  1  6  1  0  0  0  0
  2  3  1  0  0  0  0
  3  7  1  0  0  0  0
  3  4  2  0  0  0  0
  4  8  1  0  0  0  0
  5  9  1  0  0  0  0
  5  4  1  0  0  0  0
  6  5  2  0  0  0  0
 10 16  1  0  0  0  0
 10 11  1  0  0  0  0
 11 17  1  0  0  0  0
 12 11  2  0  0  0  0
 12  2  1  0  0  0  0
 13 12  1  0  0  0  0
 14 15  1  0  0  0  0
 14 13  2  0  0  0  0
 15 10  2  0  0  0  0
 18 14  1  0  0  0  0
 19  1  1  0  0  0  0
 20 19  1  0  0  0  0
 21  6  1  0  0  0  0
 22 21  1  0  0  0  0
 23 22  1  0  0  0  0
 24 23  1  0  0  0  0
M  END
>  <minimizedAffinity>
-4.24800301

$$$$

 OpenBabel03242513283D

 24 25  0  0  0  0  0  0  0  0999 V2000
   36.6610   30.5190   38.3020 C   0  0  0  0  0  0  0  0  0  0  0  0
   36.7370   30.8510   39.6460 C   0  0  0  0  0  0  0  0  0  0  0  0
   35.9080   30.1940   40.5040 C   0  0  0  0  0  0  0  0  0  0  0  0
   35.0170   29.2300   40.0580 C   0  0  0  0  0  0  0  0  0  0  0  0
   34.9480   28.9110   38.7400 C   0  0  0  0  0  0  0  0  0  0  0  0
   35.7770   29.5560   37.8240 C   0  0  0  0  0  0  0  0  0  0  0  0
   35.9450   30.4330   41.5610 H   0  0  0  0  0  0  0  0  0  0  0  0
   34.3540   28.7040   40.7370 H   0  0  0  0  0  0  0  0  0  0  0  0
   34.2610   28.1660   38.3930 H   0  0  0  0  0  0  0  0  0  0  0  0
   39.7920   32.5660   41.0370 C   0  0  0  0  0  0  0  0  0  0  0  0
   38.8850   31.5720   40.6600 C   0  0  0  0  0  0  0  0  0  0  0  0
   37.6800   31.8580   40.0410 C   0  0  0  0  0  0  0  0  0  0  0  0
   37.4780   33.1790   39.8460 N   0  0  0  0  0  0  0  0  0  0  0  0
   38.3320   34.1520   40.1990 C   0  0  0  0  0  0  0  0  0  0  0  0
   39.4980   33.8440   40.8000 N   0  0  0  0  0  0  0  0  0  0  0  0
   40.7310   32.2860   41.5230 H   0  0  0  0  0  0  0  0  0  0  0  0
   39.1470   30.5430   40.8620 H   0  0  0  0  0  0  0  0  0  0  0  0
   38.0100   35.1780   39.9660 H   0  0  0  0  0  0  0  0  0  0  0  0
   37.4940   31.1700   37.3950 O   0  0  0  0  0  0  0  0  0  0  0  0
   37.1460   31.7860   36.6860 H   0  0  0  0  0  0  0  0  0  0  0  0
   35.7700   29.2920   36.4720 O   0  0  0  0  0  0  0  0  0  0  0  0
   36.2580   28.1100   35.8920 C   0  0  0  0  0  2  0  0  0  0  0  0
   37.7350   27.9790   35.8360 C   0  0  0  0  0  2  0  0  0  0  0  0
   38.2560   28.8820   36.2160 H   0  0  0  0  0  0  0  0  0  0  0  0
  1  2  1  0  0  0  0
  2 12  1  0  0  0  0
  2  3  2  0  0  0  0
  3  7  1  0  0  0  0
  4  3  1  0  0  0  0
  4  8  1  0  0  0  0
  5  4  2  0  0  0  0
  6  1  2  0  0  0  0
  6  5  1  0  0  0  0
  9  5  1  0  0  0  0
 10 16  1  0  0  0  0
 11 17  1  0  0  0  0
 11 10  2  0  0  0  0
 12 11  1  0  0  0  0
 13 12  2  0  0  0  0
 13 14  1  0  0  0  0
 14 15  2  0  0  0  0
 15 10  1  0  0  0  0
 18 14  1  0  0  0  0
 19  1  1  0  0  0  0
 20 19  1  0  0  0  0
 21  6  1  0  0  0  0
 22 21  1  0  0  0  0
 23 22  1  0  0  0  0
 23 24  1  0  0  0  0
M  END
>  <minimizedAffinity>
-4.16034412

$$$$

 OpenBabel03242513283D

 24 25  0  0  0  0  0  0  0  0999 V2000
   38.5140   27.0300   41.2110 C   0  0  0  0  0  0  0  0  0  0  0  0
   38.5940   28.1300   42.0510 C   0  0  0  0  0  0  0  0  0  0  0  0
   39.1560   27.9440   43.2790 C   0  0  0  0  0  0  0  0  0  0  0  0
   39.6300   26.7040   43.6790 C   0  0  0  0  0  0  0  0  0  0  0  0
   39.5480   25.6320   42.8500 C   0  0  0  0  0  0  0  0  0  0  0  0
   38.9810   25.7740   41.5850 C   0  0  0  0  0  0  0  0  0  0  0  0
   39.2320   28.7860   43.9570 H   0  0  0  0  0  0  0  0  0  0  0  0
   40.0780   26.5510   44.6560 H   0  0  0  0  0  0  0  0  0  0  0  0
   39.9140   24.6740   43.1580 H   0  0  0  0  0  0  0  0  0  0  0  0
   38.3780   31.6700   40.7750 C   0  0  0  0  0  0  0  0  0  0  0  0
   38.8930   30.4560   41.2380 C   0  0  0  0  0  0  0  0  0  0  0  0
   38.0840   29.3840   41.5750 C   0  0  0  0  0  0  0  0  0  0  0  0
   36.7670   29.6330   41.4110 N   0  0  0  0  0  0  0  0  0  0  0  0
   36.2480   30.7890   40.9690 C   0  0  0  0  0  0  0  0  0  0  0  0
   37.0600   31.8160   40.6480 N   0  0  0  0  0  0  0  0  0  0  0  0
   39.0600   32.4870   40.5230 H   0  0  0  0  0  0  0  0  0  0  0  0
   39.9650   30.3620   41.3310 H   0  0  0  0  0  0  0  0  0  0  0  0
   35.1510   30.8230   40.8950 H   0  0  0  0  0  0  0  0  0  0  0  0
   37.9460   27.1830   39.9480 O   0  0  0  0  0  0  0  0  0  0  0  0
   37.0860   26.7430   39.6850 H   0  0  0  0  0  0  0  0  0  0  0  0
   38.8590   24.7390   40.6840 O   0  0  0  0  0  0  0  0  0  0  0  0
   37.9560   23.6730   40.8210 C   0  0  0  0  0  2  0  0  0  0  0  0
   36.5390   24.0490   41.0540 C   0  0  0  0  0  2  0  0  0  0  0  0
   36.4030   25.1470   41.1480 H   0  0  0  0  0  0  0  0  0  0  0  0
  1  6  2  0  0  0  0
  1  2  1  0  0  0  0
  2  3  2  0  0  0  0
  3  4  1  0  0  0  0
  3  7  1  0  0  0  0
  4  8  1  0  0  0  0
  5  9  1  0  0  0  0
  5  4  2  0  0  0  0
  6  5  1  0  0  0  0
 10 11  1  0  0  0  0
 11 17  1  0  0  0  0
 11 12  2  0  0  0  0
 12  2  1  0  0  0  0
 13 12  1  0  0  0  0
 14 13  2  0  0  0  0
 15 10  2  0  0  0  0
 15 14  1  0  0  0  0
 16 10  1  0  0  0  0
 18 14  1  0  0  0  0
 19  1  1  0  0  0  0
 20 19  1  0  0  0  0
 21 22  1  0  0  0  0
 21  6  1  0  0  0  0
 22 23  1  0  0  0  0
 23 24  1  0  0  0  0
M  END
>  <minimizedAffinity>
-4.13535881

$$$$

 OpenBabel03242513283D

 24 25  0  0  0  0  0  0  0  0999 V2000
   38.0130   29.1840   40.4500 C   0  0  0  0  0  0  0  0  0  0  0  0
   37.4640   28.2630   41.3290 C   0  0  0  0  0  0  0  0  0  0  0  0
   36.1060   28.1970   41.4040 C   0  0  0  0  0  0  0  0  0  0  0  0
   35.2950   29.0170   40.6350 C   0  0  0  0  0  0  0  0  0  0  0  0
   35.8400   29.9180   39.7770 C   0  0  0  0  0  0  0  0  0  0  0  0
   37.2250   30.0210   39.6650 C   0  0  0  0  0  0  0  0  0  0  0  0
   35.6490   27.4850   42.0830 H   0  0  0  0  0  0  0  0  0  0  0  0
   34.2130   28.9690   40.6920 H   0  0  0  0  0  0  0  0  0  0  0  0
   35.2160   30.5520   39.1820 H   0  0  0  0  0  0  0  0  0  0  0  0
   39.2390   25.2790   42.7980 C   0  0  0  0  0  0  0  0  0  0  0  0
   38.3590   26.0610   42.0450 C   0  0  0  0  0  0  0  0  0  0  0  0
   38.3600   27.4440   42.0960 C   0  0  0  0  0  0  0  0  0  0  0  0
   39.2860   27.9490   42.9390 N   0  0  0  0  0  0  0  0  0  0  0  0
   40.1420   27.2210   43.6730 C   0  0  0  0  0  0  0  0  0  0  0  0
   40.1180   25.8750   43.6030 N   0  0  0  0  0  0  0  0  0  0  0  0
   39.1970   24.1890   42.7220 H   0  0  0  0  0  0  0  0  0  0  0  0
   37.6560   25.5540   41.3990 H   0  0  0  0  0  0  0  0  0  0  0  0
   40.8320   27.7940   44.3090 H   0  0  0  0  0  0  0  0  0  0  0  0
   39.3980   29.2800   40.3470 O   0  0  0  0  0  0  0  0  0  0  0  0
   39.9080   30.0920   40.6350 H   0  0  0  0  0  0  0  0  0  0  0  0
   37.8580   30.9070   38.8210 O   0  0  0  0  0  0  0  0  0  0  0  0
   37.4390   32.2280   38.6000 C   0  0  0  0  0  2  0  0  0  0  0  0
   37.5290   33.1400   39.7690 C   0  0  0  0  0  2  0  0  0  0  0  0
   37.8670   32.6180   40.6880 H   0  0  0  0  0  0  0  0  0  0  0  0
  1  2  1  0  0  0  0
  2  3  2  0  0  0  0
  2 12  1  0  0  0  0
  3  7  1  0  0  0  0
  4  8  1  0  0  0  0
  4  3  1  0  0  0  0
  5  4  2  0  0  0  0
  6  5  1  0  0  0  0
  6  1  2  0  0  0  0
  9  5  1  0  0  0  0
 10 15  1  0  0  0  0
 11 12  1  0  0  0  0
 11 10  2  0  0  0  0
 12 13  2  0  0  0  0
 13 14  1  0  0  0  0
 14 18  1  0  0  0  0
 15 14  2  0  0  0  0
 16 10  1  0  0  0  0
 17 11  1  0  0  0  0
 19  1  1  0  0  0  0
 19 20  1  0  0  0  0
 21  6  1  0  0  0  0
 22 21  1  0  0  0  0
 22 23  1  0  0  0  0
 23 24  1  0  0  0  0
M  END
>  <minimizedAffinity>
-4.13217974

$$$$

 OpenBabel03242513283D

 24 25  0  0  0  0  0  0  0  0999 V2000
   36.7900   29.1250   38.7440 C   0  0  0  0  0  0  0  0  0  0  0  0
   36.0380   28.9930   39.9010 C   0  0  0  0  0  0  0  0  0  0  0  0
   34.6830   28.9500   39.7680 C   0  0  0  0  0  0  0  0  0  0  0  0
   34.0720   29.0340   38.5260 C   0  0  0  0  0  0  0  0  0  0  0  0
   34.8160   29.1630   37.3980 C   0  0  0  0  0  0  0  0  0  0  0  0
   36.2060   29.2120   37.4840 C   0  0  0  0  0  0  0  0  0  0  0  0
   34.0690   28.8470   40.6560 H   0  0  0  0  0  0  0  0  0  0  0  0
   32.9930   29.0000   38.4160 H   0  0  0  0  0  0  0  0  0  0  0  0
   34.3460   29.2280   36.4380 H   0  0  0  0  0  0  0  0  0  0  0  0
   37.1800   27.8610   43.3100 C   0  0  0  0  0  0  0  0  0  0  0  0
   36.4930   27.9260   42.0950 C   0  0  0  0  0  0  0  0  0  0  0  0
   36.7330   28.9120   41.1540 C   0  0  0  0  0  0  0  0  0  0  0  0
   37.6870   29.7910   41.5300 N   0  0  0  0  0  0  0  0  0  0  0  0
   38.3610   29.7520   42.6900 C   0  0  0  0  0  0  0  0  0  0  0  0
   38.1050   28.7790   43.5880 N   0  0  0  0  0  0  0  0  0  0  0  0
   36.9520   27.0610   44.0200 H   0  0  0  0  0  0  0  0  0  0  0  0
   35.7480   27.1690   41.8930 H   0  0  0  0  0  0  0  0  0  0  0  0
   39.1060   30.5470   42.8370 H   0  0  0  0  0  0  0  0  0  0  0  0
   38.1790   29.1730   38.8410 O   0  0  0  0  0  0  0  0  0  0  0  0
   38.7100   29.9910   38.6090 H   0  0  0  0  0  0  0  0  0  0  0  0
   37.0330   29.3430   36.3900 O   0  0  0  0  0  0  0  0  0  0  0  0
   36.9070   28.5970   35.2080 C   0  0  0  0  0  2  0  0  0  0  0  0
   36.4200   29.3440   34.0210 C   0  0  0  0  0  2  0  0  0  0  0  0
   36.1630   30.3970   34.2590 H   0  0  0  0  0  0  0  0  0  0  0  0
  1 19  1  0  0  0  0
  1  2  1  0  0  0  0
  2 12  1  0  0  0  0
  3  2  2  0  0  0  0
  3  7  1  0  0  0  0
  4  3  1  0  0  0  0
  5  6  1  0  0  0  0
  5  4  2  0  0  0  0
  6  1  2  0  0  0  0
  8  4  1  0  0  0  0
  9  5  1  0  0  0  0
 10 15  1  0  0  0  0
 10 16  1  0  0  0  0
 11 10  2  0  0  0  0
 12 13  2  0  0  0  0
 12 11  1  0  0  0  0
 13 14  1  0  0  0  0
 14 18  1  0  0  0  0
 14 15  2  0  0  0  0
 17 11  1  0  0  0  0
 20 19  1  0  0  0  0
 21  6  1  0  0  0  0
 22 21  1  0  0  0  0
 23 24  1  0  0  0  0
 23 22  1  0  0  0  0
M  END
>  <minimizedAffinity>
-4.11650372

$$$$

 OpenBabel03242513283D

 24 25  0  0  0  0  0  0  0  0999 V2000
   38.8370   27.3110   42.0780 C   0  0  0  0  0  0  0  0  0  0  0  0
   37.8390   26.3520   42.0020 C   0  0  0  0  0  0  0  0  0  0  0  0
   36.7330   26.5330   42.7760 C   0  0  0  0  0  0  0  0  0  0  0  0
   36.6030   27.6320   43.6110 C   0  0  0  0  0  0  0  0  0  0  0  0
   37.5860   28.5670   43.6800 C   0  0  0  0  0  0  0  0  0  0  0  0
   38.7360   28.4240   42.9070 C   0  0  0  0  0  0  0  0  0  0  0  0
   35.9350   25.7990   42.7370 H   0  0  0  0  0  0  0  0  0  0  0  0
   35.7250   27.7810   44.2300 H   0  0  0  0  0  0  0  0  0  0  0  0
   37.4870   29.4160   44.3240 H   0  0  0  0  0  0  0  0  0  0  0  0
   38.1310   22.8470   40.6450 C   0  0  0  0  0  0  0  0  0  0  0  0
   37.9360   23.9190   41.5210 C   0  0  0  0  0  0  0  0  0  0  0  0
   38.0360   25.2390   41.1170 C   0  0  0  0  0  0  0  0  0  0  0  0
   38.3370   25.3780   39.8080 N   0  0  0  0  0  0  0  0  0  0  0  0
   38.5290   24.3670   38.9470 C   0  0  0  0  0  0  0  0  0  0  0  0
   38.4260   23.0910   39.3680 N   0  0  0  0  0  0  0  0  0  0  0  0
   38.0410   21.8220   41.0140 H   0  0  0  0  0  0  0  0  0  0  0  0
   37.6970   23.6950   42.5510 H   0  0  0  0  0  0  0  0  0  0  0  0
   38.7690   24.6590   37.9140 H   0  0  0  0  0  0  0  0  0  0  0  0
   39.9830   27.1580   41.3010 O   0  0  0  0  0  0  0  0  0  0  0  0
   40.8880   26.9930   41.6970 H   0  0  0  0  0  0  0  0  0  0  0  0
   39.7790   29.3240   42.9170 O   0  0  0  0  0  0  0  0  0  0  0  0
   39.6530   30.6860   42.6020 C   0  0  0  0  0  2  0  0  0  0  0  0
   39.1290   30.9910   41.2460 C   0  0  0  0  0  2  0  0  0  0  0  0
   38.9630   30.0760   40.6400 H   0  0  0  0  0  0  0  0  0  0  0  0
  1  6  1  0  0  0  0
  2  1  2  0  0  0  0
  2  3  1  0  0  0  0
  3  4  2  0  0  0  0
  4  5  1  0  0  0  0
  4  8  1  0  0  0  0
  5  9  1  0  0  0  0
  6 21  1  0  0  0  0
  6  5  2  0  0  0  0
  7  3  1  0  0  0  0
 10 16  1  0  0  0  0
 10 11  1  0  0  0  0
 11 17  1  0  0  0  0
 12 11  2  0  0  0  0
 12  2  1  0  0  0  0
 13 12  1  0  0  0  0
 14 15  1  0  0  0  0
 14 13  2  0  0  0  0
 15 10  2  0  0  0  0
 18 14  1  0  0  0  0
 19 20  1  0  0  0  0
 19  1  1  0  0  0  0
 22 21  1  0  0  0  0
 23 22  1  0  0  0  0
 24 23  1  0  0  0  0
M  END
>  <minimizedAffinity>
-4.07654428

$$$$
