
 OpenBabel03252507103D

 30 31  0  0  1  0  0  0  0  0999 V2000
   44.4500   35.8200   44.6300 C   0  0  0  0  0  0  0  0  0  0  0  0
   44.9600   35.8930   43.3030 C   0  0  0  0  0  0  0  0  0  0  0  0
   45.9780   35.0000   42.9820 C   0  0  0  0  0  0  0  0  0  0  0  0
   46.4190   34.1340   43.9120 N   0  0  0  0  0  0  0  0  0  0  0  0
   45.9220   34.0860   45.1510 C   0  0  0  0  0  0  0  0  0  0  0  0
   44.9270   34.9390   45.5120 N   0  0  0  0  0  0  0  0  0  0  0  0
   43.6600   36.5290   44.8440 H   0  0  0  0  0  0  0  0  0  0  0  0
   44.5800   36.6050   42.5790 H   0  0  0  0  0  0  0  0  0  0  0  0
   45.3220   32.7180   47.1670 C   0  0  1  0  0  0  0  0  0  0  0  0
   46.3700   33.1750   46.2080 C   0  0  1  0  0  0  0  0  0  0  0  0
   46.7780   31.8210   45.6080 C   0  0  0  0  0  0  0  0  0  0  0  0
   46.5390   30.8680   46.5420 O   0  0  0  0  0  0  0  0  0  0  0  0
   45.9960   31.4540   47.6820 C   0  0  0  0  0  0  0  0  0  0  0  0
   44.4330   32.4000   46.5910 H   0  0  0  0  0  0  0  0  0  0  0  0
   47.2220   33.6210   46.7450 H   0  0  0  0  0  0  0  0  0  0  0  0
   47.8720   31.9010   45.4410 H   0  0  0  0  0  0  0  0  0  0  0  0
   46.3210   31.6440   44.6180 H   0  0  0  0  0  0  0  0  0  0  0  0
   45.1870   30.7740   48.0170 H   0  0  0  0  0  0  0  0  0  0  0  0
   46.7820   31.6330   48.4150 H   0  0  0  0  0  0  0  0  0  0  0  0
   44.9950   33.6300   48.1280 O   0  0  0  0  0  0  0  0  0  0  0  0
   44.0220   33.6660   48.3480 H   0  0  0  0  0  0  0  0  0  0  0  0
   46.4600   35.0840   41.6910 O   0  0  0  0  0  0  0  0  0  0  0  0
   47.8020   32.9550   40.8230 O   0  0  0  0  0  0  0  0  0  0  0  0
   47.9690   34.3850   41.3020 P   0  0  1  0  0  0  0  0  0  0  0  0
   48.7200   35.3400   40.1580 O   0  0  0  0  0  0  0  0  0  0  0  0
   49.0210   36.1700   40.5980 H   0  0  0  0  0  0  0  0  0  0  0  0
   48.8650   34.3470   42.7460 O   0  0  0  0  0  0  0  0  0  0  0  0
   50.2000   34.5860   42.5160 C   0  0  0  0  0  0  0  0  0  0  0  0
   50.9100   33.2630   42.3240 C   0  0  0  0  0  0  0  0  0  0  0  0
   50.8700   32.6700   43.2600 H   0  0  0  0  0  0  0  0  0  0  0  0
  1  7  1  0  0  0  0
  1  6  1  0  0  0  0
  2  1  2  0  0  0  0
  3  2  1  0  0  0  0
  3  4  2  0  0  0  0
  4  5  1  0  0  0  0
  5  6  2  0  0  0  0
  5 10  1  0  0  0  0
  8  2  1  0  0  0  0
  9 14  1  6  0  0  0
  9 13  1  0  0  0  0
  9 20  1  0  0  0  0
 10 15  1  1  0  0  0
 10  9  1  0  0  0  0
 11 10  1  0  0  0  0
 11 12  1  0  0  0  0
 12 13  1  0  0  0  0
 13 18  1  0  0  0  0
 13 19  1  0  0  0  0
 16 11  1  0  0  0  0
 17 11  1  0  0  0  0
 20 21  1  0  0  0  0
 22  3  1  0  0  0  0
 24 23  2  6  0  0  0
 24 22  1  0  0  0  0
 24 27  1  0  0  0  0
 25 26  1  0  0  0  0
 25 24  1  0  0  0  0
 28 27  1  0  0  0  0
 29 28  1  0  0  0  0
 29 30  1  0  0  0  0
M  END
>  <minimizedAffinity>
-5.73139429

>  <minimizedRMSD>
0.558305681

$$$$
