
 OpenBabel03252502573D

 31 32  0  0  0  0  0  0  0  0999 V2000
   39.9180   29.2940   39.2330 Br  0  0  0  0  0  0  0  0  0  0  0  0
   38.9800   30.9510   39.5950 C   0  0  0  0  0  0  0  0  0  0  0  0
   37.6720   30.8240   39.9340 C   0  0  0  0  0  0  0  0  0  0  0  0
   37.0180   32.0410   40.1910 C   0  0  0  0  0  0  0  0  0  0  0  0
   37.6430   33.2670   40.1060 C   0  0  0  0  0  0  0  0  0  0  0  0
   38.9690   33.3040   39.7560 C   0  0  0  0  0  0  0  0  0  0  0  0
   39.6670   32.1410   39.4910 C   0  0  0  0  0  0  0  0  0  0  0  0
   35.9780   32.0730   40.4710 H   0  0  0  0  0  0  0  0  0  0  0  0
   37.1290   34.1890   40.3060 H   0  0  0  0  0  0  0  0  0  0  0  0
   39.5040   34.2430   39.6760 H   0  0  0  0  0  0  0  0  0  0  0  0
   36.8820   29.6050   40.0640 C   0  0  0  0  0  0  0  0  0  0  0  0
   37.0440   28.9300   39.2200 H   0  0  0  0  0  0  0  0  0  0  0  0
   35.7960   29.8920   40.0030 H   0  0  0  0  0  0  0  0  0  0  0  0
   37.5990   28.7930   43.6200 C   0  0  0  0  0  0  0  0  0  0  0  0
   37.3890   27.4130   43.6560 C   0  0  0  0  0  0  0  0  0  0  0  0
   37.0110   26.7920   42.4810 C   0  0  0  0  0  0  0  0  0  0  0  0
   36.8590   27.5270   41.3530 N   0  0  0  0  0  0  0  0  0  0  0  0
   37.0700   28.8780   41.3420 C   0  0  0  0  0  0  0  0  0  0  0  0
   37.4400   29.4850   42.4900 N   0  0  0  0  0  0  0  0  0  0  0  0
   37.8910   29.2110   44.5720 H   0  0  0  0  0  0  0  0  0  0  0  0
   37.5100   26.8350   44.5510 H   0  0  0  0  0  0  0  0  0  0  0  0
   36.8350   25.7310   42.4460 H   0  0  0  0  0  0  0  0  0  0  0  0
   41.0140   32.1960   39.1360 O   0  0  0  0  0  0  0  0  0  0  0  0
   42.0100   34.0500   37.6070 O   0  0  0  0  0  0  0  0  0  0  0  0
   41.5460   32.6050   37.5770 P   0  0  2  0  0  0  0  0  0  0  0  0
   40.2490   32.4270   36.5280 O   0  0  0  0  0  0  0  0  0  0  0  0
   40.1840   33.1510   35.8530 H   0  0  0  0  0  0  0  0  0  0  0  0
   42.8530   31.6500   37.0790 O   0  0  0  0  0  0  0  0  0  0  0  0
   42.4530   30.4340   36.5500 C   0  0  0  0  0  2  0  0  0  0  0  0
   43.3760   29.9680   35.4270 C   0  0  0  0  0  2  0  0  0  0  0  0
   42.7870   29.3250   34.7470 H   0  0  0  0  0  0  0  0  0  0  0  0
  1  2  1  0  0  0  0
  2  3  1  0  0  0  0
  3 11  1  0  0  0  0
  3  4  2  0  0  0  0
  4  8  1  0  0  0  0
  5  4  1  0  0  0  0
  5  9  1  0  0  0  0
  6  5  2  0  0  0  0
  7  2  2  0  0  0  0
  7  6  1  0  0  0  0
 10  6  1  0  0  0  0
 11 18  1  0  0  0  0
 12 11  1  0  0  0  0
 13 11  1  0  0  0  0
 14 15  1  0  0  0  0
 14 20  1  0  0  0  0
 15 21  1  0  0  0  0
 16 15  2  0  0  0  0
 17 16  1  0  0  0  0
 18 17  2  0  0  0  0
 18 19  1  0  0  0  0
 19 14  2  0  0  0  0
 22 16  1  0  0  0  0
 23  7  1  0  0  0  0
 25 24  2  6  0  0  0
 25 23  1  0  0  0  0
 26 25  1  0  0  0  0
 27 26  1  0  0  0  0
 28 25  1  0  0  0  0
 29 28  1  0  0  0  0
 30 29  1  0  0  0  0
 31 30  1  0  0  0  0
M  END
>  <minimizedAffinity>
-5.21789455

$$$$

 OpenBabel03252502573D

 31 32  0  0  0  0  0  0  0  0999 V2000
   39.1860   29.8630   42.8740 Br  0  0  0  0  0  0  0  0  0  0  0  0
   37.5620   29.7000   41.8280 C   0  0  0  0  0  0  0  0  0  0  0  0
   36.9120   28.5130   41.9300 C   0  0  0  0  0  0  0  0  0  0  0  0
   35.7400   28.4250   41.1610 C   0  0  0  0  0  0  0  0  0  0  0  0
   35.2800   29.4520   40.3640 C   0  0  0  0  0  0  0  0  0  0  0  0
   35.9990   30.6190   40.3180 C   0  0  0  0  0  0  0  0  0  0  0  0
   37.1610   30.7670   41.0520 C   0  0  0  0  0  0  0  0  0  0  0  0
   35.1340   27.5330   41.1590 H   0  0  0  0  0  0  0  0  0  0  0  0
   34.3800   29.3680   39.7820 H   0  0  0  0  0  0  0  0  0  0  0  0
   35.6790   31.4540   39.7070 H   0  0  0  0  0  0  0  0  0  0  0  0
   37.2750   27.3460   42.7250 C   0  0  0  0  0  0  0  0  0  0  0  0
   36.4650   27.0490   43.3950 H   0  0  0  0  0  0  0  0  0  0  0  0
   38.1210   27.6430   43.4040 H   0  0  0  0  0  0  0  0  0  0  0  0
   39.1760   25.1550   40.4000 C   0  0  0  0  0  0  0  0  0  0  0  0
   38.5020   23.9390   40.5240 C   0  0  0  0  0  0  0  0  0  0  0  0
   37.4250   23.8870   41.3870 C   0  0  0  0  0  0  0  0  0  0  0  0
   37.0630   24.9980   42.0740 N   0  0  0  0  0  0  0  0  0  0  0  0
   37.7390   26.1800   41.9370 C   0  0  0  0  0  0  0  0  0  0  0  0
   38.7920   26.2290   41.0930 N   0  0  0  0  0  0  0  0  0  0  0  0
   40.0060   25.1220   39.7100 H   0  0  0  0  0  0  0  0  0  0  0  0
   38.7920   23.0610   39.9780 H   0  0  0  0  0  0  0  0  0  0  0  0
   36.8660   22.9790   41.5250 H   0  0  0  0  0  0  0  0  0  0  0  0
   37.8800   31.9600   40.9940 O   0  0  0  0  0  0  0  0  0  0  0  0
   39.5020   33.5910   39.7800 O   0  0  0  0  0  0  0  0  0  0  0  0
   38.2710   32.7370   39.5370 P   0  0  2  0  0  0  0  0  0  0  0  0
   36.9670   33.6980   39.1000 O   0  0  0  0  0  0  0  0  0  0  0  0
   37.2310   34.5840   38.7420 H   0  0  0  0  0  0  0  0  0  0  0  0
   38.6400   31.6340   38.3060 O   0  0  0  0  0  0  0  0  0  0  0  0
   37.7410   31.6890   37.2540 C   0  0  0  0  0  2  0  0  0  0  0  0
   37.2160   30.3070   36.8770 C   0  0  0  0  0  2  0  0  0  0  0  0
   36.9370   30.3280   35.8070 H   0  0  0  0  0  0  0  0  0  0  0  0
  2  3  1  0  0  0  0
  2  1  1  0  0  0  0
  3 11  1  0  0  0  0
  4  3  2  0  0  0  0
  5  4  1  0  0  0  0
  6  5  2  0  0  0  0
  6  7  1  0  0  0  0
  7  2  2  0  0  0  0
  8  4  1  0  0  0  0
  9  5  1  0  0  0  0
 10  6  1  0  0  0  0
 11 12  1  0  0  0  0
 11 13  1  0  0  0  0
 14 15  2  0  0  0  0
 14 19  1  0  0  0  0
 15 16  1  0  0  0  0
 16 22  1  0  0  0  0
 16 17  2  0  0  0  0
 18 17  1  0  0  0  0
 18 11  1  0  0  0  0
 19 18  2  0  0  0  0
 20 14  1  0  0  0  0
 21 15  1  0  0  0  0
 23  7  1  0  0  0  0
 25 24  2  1  0  0  0
 25 23  1  0  0  0  0
 26 25  1  0  0  0  0
 27 26  1  0  0  0  0
 28 25  1  0  0  0  0
 29 28  1  0  0  0  0
 30 29  1  0  0  0  0
 31 30  1  0  0  0  0
M  END
>  <minimizedAffinity>
-5.10587358

$$$$

 OpenBabel03252502573D

 31 32  0  0  0  0  0  0  0  0999 V2000
   39.7150   28.1420   39.8790 Br  0  0  0  0  0  0  0  0  0  0  0  0
   38.5520   27.9960   41.4230 C   0  0  0  0  0  0  0  0  0  0  0  0
   38.5410   29.0680   42.2550 C   0  0  0  0  0  0  0  0  0  0  0  0
   37.6890   28.9340   43.3640 C   0  0  0  0  0  0  0  0  0  0  0  0
   36.9260   27.8100   43.5980 C   0  0  0  0  0  0  0  0  0  0  0  0
   36.9980   26.7700   42.7060 C   0  0  0  0  0  0  0  0  0  0  0  0
   37.8170   26.8420   41.5950 C   0  0  0  0  0  0  0  0  0  0  0  0
   37.5910   29.7180   44.0970 H   0  0  0  0  0  0  0  0  0  0  0  0
   36.2790   27.7230   44.4520 H   0  0  0  0  0  0  0  0  0  0  0  0
   36.4180   25.8660   42.8470 H   0  0  0  0  0  0  0  0  0  0  0  0
   39.2870   30.3160   42.1370 C   0  0  0  0  0  0  0  0  0  0  0  0
   40.3140   30.1400   41.8080 H   0  0  0  0  0  0  0  0  0  0  0  0
   39.3830   30.7560   43.1670 H   0  0  0  0  0  0  0  0  0  0  0  0
   36.9820   32.0640   39.8020 C   0  0  0  0  0  0  0  0  0  0  0  0
   37.5490   33.3380   39.7270 C   0  0  0  0  0  0  0  0  0  0  0  0
   38.6930   33.5750   40.4650 C   0  0  0  0  0  0  0  0  0  0  0  0
   39.2190   32.5830   41.2230 N   0  0  0  0  0  0  0  0  0  0  0  0
   38.6450   31.3430   41.2820 C   0  0  0  0  0  0  0  0  0  0  0  0
   37.5280   31.1110   40.5610 N   0  0  0  0  0  0  0  0  0  0  0  0
   36.0920   31.9500   39.2010 H   0  0  0  0  0  0  0  0  0  0  0  0
   37.1300   34.1210   39.1250 H   0  0  0  0  0  0  0  0  0  0  0  0
   39.1750   34.5370   40.4470 H   0  0  0  0  0  0  0  0  0  0  0  0
   37.8790   25.7770   40.6980 O   0  0  0  0  0  0  0  0  0  0  0  0
   39.1250   23.7880   39.5770 O   0  0  0  0  0  0  0  0  0  0  0  0
   38.8770   24.4250   40.9330 P   0  0  2  0  0  0  0  0  0  0  0  0
   38.0700   23.3570   41.9430 O   0  0  0  0  0  0  0  0  0  0  0  0
   38.1630   22.4080   41.6720 H   0  0  0  0  0  0  0  0  0  0  0  0
   40.3800   24.8490   41.5890 O   0  0  0  0  0  0  0  0  0  0  0  0
   40.4200   24.7030   42.9660 C   0  0  0  0  0  2  0  0  0  0  0  0
   40.7230   26.0210   43.6730 C   0  0  0  0  0  2  0  0  0  0  0  0
   41.2170   25.7870   44.6330 H   0  0  0  0  0  0  0  0  0  0  0  0
  1  2  1  0  0  0  0
  2  7  2  0  0  0  0
  2  3  1  0  0  0  0
  3  4  2  0  0  0  0
  4  5  1  0  0  0  0
  4  8  1  0  0  0  0
  5  9  1  0  0  0  0
  6 10  1  0  0  0  0
  6  5  2  0  0  0  0
  7  6  1  0  0  0  0
 11  3  1  0  0  0  0
 11 13  1  0  0  0  0
 12 11  1  0  0  0  0
 14 19  1  0  0  0  0
 15 14  2  0  0  0  0
 15 16  1  0  0  0  0
 16 17  2  0  0  0  0
 17 18  1  0  0  0  0
 18 11  1  0  0  0  0
 19 18  2  0  0  0  0
 20 14  1  0  0  0  0
 21 15  1  0  0  0  0
 22 16  1  0  0  0  0
 23 25  1  0  0  0  0
 23  7  1  0  0  0  0
 25 24  2  6  0  0  0
 25 28  1  0  0  0  0
 25 26  1  0  0  0  0
 27 26  1  0  0  0  0
 28 29  1  0  0  0  0
 29 30  1  0  0  0  0
 30 31  1  0  0  0  0
M  END
>  <minimizedAffinity>
-5.08605719

$$$$

 OpenBabel03252502573D

 31 32  0  0  0  0  0  0  0  0999 V2000
   35.7080   29.0420   40.6770 Br  0  0  0  0  0  0  0  0  0  0  0  0
   37.3570   29.9030   41.2220 C   0  0  0  0  0  0  0  0  0  0  0  0
   37.9050   29.4480   42.3780 C   0  0  0  0  0  0  0  0  0  0  0  0
   39.0990   30.0910   42.7470 C   0  0  0  0  0  0  0  0  0  0  0  0
   39.6730   31.1010   42.0060 C   0  0  0  0  0  0  0  0  0  0  0  0
   39.0520   31.5010   40.8490 C   0  0  0  0  0  0  0  0  0  0  0  0
   37.8760   30.9080   40.4330 C   0  0  0  0  0  0  0  0  0  0  0  0
   39.6300   29.8170   43.6440 H   0  0  0  0  0  0  0  0  0  0  0  0
   40.5880   31.5820   42.3020 H   0  0  0  0  0  0  0  0  0  0  0  0
   39.4640   32.2910   40.2330 H   0  0  0  0  0  0  0  0  0  0  0  0
   37.4160   28.3950   43.2600 C   0  0  0  0  0  0  0  0  0  0  0  0
   36.3360   28.2610   43.1660 H   0  0  0  0  0  0  0  0  0  0  0  0
   37.5760   28.7350   44.3200 H   0  0  0  0  0  0  0  0  0  0  0  0
   39.8940   25.6350   43.5120 C   0  0  0  0  0  0  0  0  0  0  0  0
   39.2910   24.6270   42.7580 C   0  0  0  0  0  0  0  0  0  0  0  0
   38.0640   24.9030   42.1840 C   0  0  0  0  0  0  0  0  0  0  0  0
   37.4970   26.1200   42.3680 N   0  0  0  0  0  0  0  0  0  0  0  0
   38.1070   27.0920   43.1110 C   0  0  0  0  0  0  0  0  0  0  0  0
   39.3060   26.8230   43.6710 N   0  0  0  0  0  0  0  0  0  0  0  0
   40.8490   25.3510   43.9290 H   0  0  0  0  0  0  0  0  0  0  0  0
   39.7430   23.6650   42.6150 H   0  0  0  0  0  0  0  0  0  0  0  0
   37.5500   24.1660   41.5920 H   0  0  0  0  0  0  0  0  0  0  0  0
   37.2570   31.3260   39.2560 O   0  0  0  0  0  0  0  0  0  0  0  0
   38.8640   29.7980   37.8970 O   0  0  0  0  0  0  0  0  0  0  0  0
   37.6750   30.7250   37.7250 P   0  0  2  0  0  0  0  0  0  0  0  0
   38.0840   32.0300   36.7530 O   0  0  0  0  0  0  0  0  0  0  0  0
   38.8730   31.8620   36.1770 H   0  0  0  0  0  0  0  0  0  0  0  0
   36.4170   29.8310   37.0270 O   0  0  0  0  0  0  0  0  0  0  0  0
   36.8070   29.1760   35.8710 C   0  0  0  0  0  2  0  0  0  0  0  0
   36.1970   29.8070   34.6220 C   0  0  0  0  0  2  0  0  0  0  0  0
   36.1150   29.0220   33.8490 H   0  0  0  0  0  0  0  0  0  0  0  0
  1  2  1  0  0  0  0
  2  3  1  0  0  0  0
  3  4  2  0  0  0  0
  3 11  1  0  0  0  0
  4  8  1  0  0  0  0
  5  9  1  0  0  0  0
  5  4  1  0  0  0  0
  6  5  2  0  0  0  0
  7  6  1  0  0  0  0
  7  2  2  0  0  0  0
 10  6  1  0  0  0  0
 11 13  1  0  0  0  0
 12 11  1  0  0  0  0
 14 19  1  0  0  0  0
 14 20  1  0  0  0  0
 15 14  2  0  0  0  0
 16 17  2  0  0  0  0
 16 15  1  0  0  0  0
 17 18  1  0  0  0  0
 18 11  1  0  0  0  0
 18 19  2  0  0  0  0
 21 15  1  0  0  0  0
 22 16  1  0  0  0  0
 23  7  1  0  0  0  0
 25 24  2  1  0  0  0
 25 23  1  0  0  0  0
 26 25  1  0  0  0  0
 27 26  1  0  0  0  0
 28 25  1  0  0  0  0
 29 28  1  0  0  0  0
 30 29  1  0  0  0  0
 31 30  1  0  0  0  0
M  END
>  <minimizedAffinity>
-5.06685543

$$$$

 OpenBabel03252502573D

 31 32  0  0  0  0  0  0  0  0999 V2000
   41.7770   29.1970   42.4420 Br  0  0  0  0  0  0  0  0  0  0  0  0
   39.9370   28.7410   42.8480 C   0  0  0  0  0  0  0  0  0  0  0  0
   39.0160   29.6930   42.5530 C   0  0  0  0  0  0  0  0  0  0  0  0
   37.6920   29.3350   42.8580 C   0  0  0  0  0  0  0  0  0  0  0  0
   37.3470   28.1210   43.4120 C   0  0  0  0  0  0  0  0  0  0  0  0
   38.3420   27.2150   43.6790 C   0  0  0  0  0  0  0  0  0  0  0  0
   39.6640   27.5090   43.4020 C   0  0  0  0  0  0  0  0  0  0  0  0
   36.8700   30.0060   42.6690 H   0  0  0  0  0  0  0  0  0  0  0  0
   36.3290   27.8620   43.6390 H   0  0  0  0  0  0  0  0  0  0  0  0
   38.1210   26.2480   44.1140 H   0  0  0  0  0  0  0  0  0  0  0  0
   39.2300   31.0130   41.9690 C   0  0  0  0  0  0  0  0  0  0  0  0
   40.2930   31.2550   41.9030 H   0  0  0  0  0  0  0  0  0  0  0  0
   38.8000   31.7740   42.6760 H   0  0  0  0  0  0  0  0  0  0  0  0
   37.0650   32.3140   39.2410 C   0  0  0  0  0  0  0  0  0  0  0  0
   37.4330   31.5080   38.1620 C   0  0  0  0  0  0  0  0  0  0  0  0
   38.4020   30.5480   38.3810 C   0  0  0  0  0  0  0  0  0  0  0  0
   38.9530   30.4200   39.6120 N   0  0  0  0  0  0  0  0  0  0  0  0
   38.5760   31.2210   40.6550 C   0  0  0  0  0  0  0  0  0  0  0  0
   37.6290   32.1600   40.4410 N   0  0  0  0  0  0  0  0  0  0  0  0
   36.3040   33.0410   38.9990 H   0  0  0  0  0  0  0  0  0  0  0  0
   36.9950   31.6130   37.1880 H   0  0  0  0  0  0  0  0  0  0  0  0
   38.7280   29.8970   37.5880 H   0  0  0  0  0  0  0  0  0  0  0  0
   40.6630   26.5770   43.6800 O   0  0  0  0  0  0  0  0  0  0  0  0
   39.8750   24.2160   42.9240 O   0  0  0  0  0  0  0  0  0  0  0  0
   40.9780   25.2330   42.6930 P   0  0  2  0  0  0  0  0  0  0  0  0
   42.4640   24.5990   43.1450 O   0  0  0  0  0  0  0  0  0  0  0  0
   42.4810   23.6080   43.1690 H   0  0  0  0  0  0  0  0  0  0  0  0
   40.9760   25.6370   41.0480 O   0  0  0  0  0  0  0  0  0  0  0  0
   39.8010   25.2720   40.4110 C   0  0  0  0  0  2  0  0  0  0  0  0
   38.9630   26.4840   40.0170 C   0  0  0  0  0  2  0  0  0  0  0  0
   37.9030   26.1720   39.9890 H   0  0  0  0  0  0  0  0  0  0  0  0
  1  2  1  0  0  0  0
  2  7  1  0  0  0  0
  3  2  2  0  0  0  0
  3  4  1  0  0  0  0
  4  5  2  0  0  0  0
  5  9  1  0  0  0  0
  5  6  1  0  0  0  0
  6 10  1  0  0  0  0
  7  6  2  0  0  0  0
  7 23  1  0  0  0  0
  8  4  1  0  0  0  0
 11  3  1  0  0  0  0
 11 13  1  0  0  0  0
 12 11  1  0  0  0  0
 14 19  1  0  0  0  0
 15 16  1  0  0  0  0
 15 14  2  0  0  0  0
 16 17  2  0  0  0  0
 17 18  1  0  0  0  0
 18 11  1  0  0  0  0
 19 18  2  0  0  0  0
 20 14  1  0  0  0  0
 21 15  1  0  0  0  0
 22 16  1  0  0  0  0
 25 24  2  1  0  0  0
 25 26  1  0  0  0  0
 25 23  1  0  0  0  0
 26 27  1  0  0  0  0
 28 25  1  0  0  0  0
 29 28  1  0  0  0  0
 30 29  1  0  0  0  0
 31 30  1  0  0  0  0
M  END
>  <minimizedAffinity>
-4.9660635

$$$$

 OpenBabel03252502573D

 31 32  0  0  0  0  0  0  0  0999 V2000
   38.9760   27.9460   39.2650 Br  0  0  0  0  0  0  0  0  0  0  0  0
   38.0540   27.7170   40.9540 C   0  0  0  0  0  0  0  0  0  0  0  0
   37.7150   26.4420   41.2720 C   0  0  0  0  0  0  0  0  0  0  0  0
   37.0480   26.3070   42.5020 C   0  0  0  0  0  0  0  0  0  0  0  0
   36.7560   27.3750   43.3230 C   0  0  0  0  0  0  0  0  0  0  0  0
   37.1340   28.6320   42.9240 C   0  0  0  0  0  0  0  0  0  0  0  0
   37.7930   28.8290   41.7260 C   0  0  0  0  0  0  0  0  0  0  0  0
   36.7280   25.3440   42.8660 H   0  0  0  0  0  0  0  0  0  0  0  0
   36.2450   27.2550   44.2610 H   0  0  0  0  0  0  0  0  0  0  0  0
   36.9260   29.5030   43.5350 H   0  0  0  0  0  0  0  0  0  0  0  0
   37.9560   25.2220   40.5100 C   0  0  0  0  0  0  0  0  0  0  0  0
   38.3320   24.4180   41.1470 H   0  0  0  0  0  0  0  0  0  0  0  0
   38.7890   25.4310   39.7830 H   0  0  0  0  0  0  0  0  0  0  0  0
   35.2920   24.9210   37.9350 C   0  0  0  0  0  0  0  0  0  0  0  0
   34.6250   23.7610   38.3350 C   0  0  0  0  0  0  0  0  0  0  0  0
   35.0900   23.1100   39.4610 C   0  0  0  0  0  0  0  0  0  0  0  0
   36.1580   23.6080   40.1300 N   0  0  0  0  0  0  0  0  0  0  0  0
   36.7960   24.7470   39.7190 C   0  0  0  0  0  0  0  0  0  0  0  0
   36.3410   25.3830   38.6190 N   0  0  0  0  0  0  0  0  0  0  0  0
   34.8750   25.3760   37.0490 H   0  0  0  0  0  0  0  0  0  0  0  0
   33.7800   23.3700   37.8030 H   0  0  0  0  0  0  0  0  0  0  0  0
   34.6180   22.2120   39.8180 H   0  0  0  0  0  0  0  0  0  0  0  0
   38.1700   30.1140   41.3350 O   0  0  0  0  0  0  0  0  0  0  0  0
   37.7010   32.5930   40.7050 O   0  0  0  0  0  0  0  0  0  0  0  0
   37.1100   31.2010   40.5770 P   0  0  2  0  0  0  0  0  0  0  0  0
   35.6330   31.1160   41.3680 O   0  0  0  0  0  0  0  0  0  0  0  0
   35.2050   32.0000   41.5020 H   0  0  0  0  0  0  0  0  0  0  0  0
   36.9250   30.8640   38.9280 O   0  0  0  0  0  0  0  0  0  0  0  0
   37.4900   31.8370   38.1190 C   0  0  0  0  0  2  0  0  0  0  0  0
   38.8500   31.4100   37.5750 C   0  0  0  0  0  2  0  0  0  0  0  0
   39.4430   32.3230   37.3850 H   0  0  0  0  0  0  0  0  0  0  0  0
  1  2  1  0  0  0  0
  2  3  2  0  0  0  0
  2  7  1  0  0  0  0
  3  4  1  0  0  0  0
  4  8  1  0  0  0  0
  4  5  2  0  0  0  0
  5  9  1  0  0  0  0
  6  5  1  0  0  0  0
  6 10  1  0  0  0  0
  7  6  2  0  0  0  0
 11 12  1  0  0  0  0
 11  3  1  0  0  0  0
 13 11  1  0  0  0  0
 14 15  2  0  0  0  0
 14 19  1  0  0  0  0
 15 16  1  0  0  0  0
 16 22  1  0  0  0  0
 16 17  2  0  0  0  0
 18 17  1  0  0  0  0
 18 11  1  0  0  0  0
 19 18  2  0  0  0  0
 20 14  1  0  0  0  0
 21 15  1  0  0  0  0
 23  7  1  0  0  0  0
 25 24  2  1  0  0  0
 25 23  1  0  0  0  0
 25 26  1  0  0  0  0
 26 27  1  0  0  0  0
 28 25  1  0  0  0  0
 29 28  1  0  0  0  0
 30 29  1  0  0  0  0
 31 30  1  0  0  0  0
M  END
>  <minimizedAffinity>
-4.89796448

$$$$

 OpenBabel03252502573D

 31 32  0  0  0  0  0  0  0  0999 V2000
   39.5590   30.9770   41.3700 Br  0  0  0  0  0  0  0  0  0  0  0  0
   37.8350   30.1620   41.0240 C   0  0  0  0  0  0  0  0  0  0  0  0
   37.4110   29.2660   41.9510 C   0  0  0  0  0  0  0  0  0  0  0  0
   36.1580   28.6920   41.6740 C   0  0  0  0  0  0  0  0  0  0  0  0
   35.4160   29.0050   40.5550 C   0  0  0  0  0  0  0  0  0  0  0  0
   35.9190   29.9220   39.6670 C   0  0  0  0  0  0  0  0  0  0  0  0
   37.1460   30.5210   39.8850 C   0  0  0  0  0  0  0  0  0  0  0  0
   35.7130   27.9670   42.3350 H   0  0  0  0  0  0  0  0  0  0  0  0
   34.4590   28.5560   40.3580 H   0  0  0  0  0  0  0  0  0  0  0  0
   35.3740   30.2000   38.7740 H   0  0  0  0  0  0  0  0  0  0  0  0
   38.0820   28.8390   43.1730 C   0  0  0  0  0  0  0  0  0  0  0  0
   37.4230   28.9170   44.0420 H   0  0  0  0  0  0  0  0  0  0  0  0
   38.9180   29.5620   43.3760 H   0  0  0  0  0  0  0  0  0  0  0  0
   38.6490   25.2300   42.4840 C   0  0  0  0  0  0  0  0  0  0  0  0
   39.9030   25.0140   43.0570 C   0  0  0  0  0  0  0  0  0  0  0  0
   40.5260   26.0890   43.6610 C   0  0  0  0  0  0  0  0  0  0  0  0
   39.9110   27.2970   43.6780 N   0  0  0  0  0  0  0  0  0  0  0  0
   38.6820   27.4850   43.1090 C   0  0  0  0  0  0  0  0  0  0  0  0
   38.0730   26.4340   42.5190 N   0  0  0  0  0  0  0  0  0  0  0  0
   38.2230   24.3480   42.0300 H   0  0  0  0  0  0  0  0  0  0  0  0
   40.3870   24.0560   43.0420 H   0  0  0  0  0  0  0  0  0  0  0  0
   41.4930   25.9850   44.1200 H   0  0  0  0  0  0  0  0  0  0  0  0
   37.6440   31.4500   38.9730 O   0  0  0  0  0  0  0  0  0  0  0  0
   39.1540   29.8060   37.6390 O   0  0  0  0  0  0  0  0  0  0  0  0
   38.2600   31.0180   37.4520 P   0  0  2  0  0  0  0  0  0  0  0  0
   39.1460   32.3160   36.8670 O   0  0  0  0  0  0  0  0  0  0  0  0
   39.9910   32.0500   36.4210 H   0  0  0  0  0  0  0  0  0  0  0  0
   37.0320   30.5940   36.3650 O   0  0  0  0  0  0  0  0  0  0  0  0
   36.8770   29.2230   36.2440 C   0  0  0  0  0  2  0  0  0  0  0  0
   36.7540   28.7880   34.7870 C   0  0  0  0  0  2  0  0  0  0  0  0
   36.1650   27.8530   34.7600 H   0  0  0  0  0  0  0  0  0  0  0  0
  2  1  1  0  0  0  0
  2  3  1  0  0  0  0
  3 11  1  0  0  0  0
  4  3  2  0  0  0  0
  4  8  1  0  0  0  0
  5  4  1  0  0  0  0
  6  7  1  0  0  0  0
  6  5  2  0  0  0  0
  7  2  2  0  0  0  0
  9  5  1  0  0  0  0
 10  6  1  0  0  0  0
 11 13  1  0  0  0  0
 11 12  1  0  0  0  0
 14 19  2  0  0  0  0
 14 15  1  0  0  0  0
 15 16  2  0  0  0  0
 16 17  1  0  0  0  0
 16 22  1  0  0  0  0
 18 11  1  0  0  0  0
 18 17  2  0  0  0  0
 19 18  1  0  0  0  0
 20 14  1  0  0  0  0
 21 15  1  0  0  0  0
 23  7  1  0  0  0  0
 25 24  2  1  0  0  0
 25 23  1  0  0  0  0
 26 25  1  0  0  0  0
 27 26  1  0  0  0  0
 28 25  1  0  0  0  0
 29 28  1  0  0  0  0
 30 29  1  0  0  0  0
 31 30  1  0  0  0  0
M  END
>  <minimizedAffinity>
-4.89195538

$$$$

 OpenBabel03252502573D

 31 32  0  0  0  0  0  0  0  0999 V2000
   39.1880   29.7920   42.9050 Br  0  0  0  0  0  0  0  0  0  0  0  0
   37.5670   29.6180   41.8570 C   0  0  0  0  0  0  0  0  0  0  0  0
   36.9230   28.4280   41.9630 C   0  0  0  0  0  0  0  0  0  0  0  0
   35.7520   28.3300   41.1930 C   0  0  0  0  0  0  0  0  0  0  0  0
   35.2880   29.3520   40.3920 C   0  0  0  0  0  0  0  0  0  0  0  0
   36.0010   30.5230   40.3430 C   0  0  0  0  0  0  0  0  0  0  0  0
   37.1610   30.6800   41.0780 C   0  0  0  0  0  0  0  0  0  0  0  0
   35.1510   27.4350   41.1930 H   0  0  0  0  0  0  0  0  0  0  0  0
   34.3890   29.2620   39.8090 H   0  0  0  0  0  0  0  0  0  0  0  0
   35.6770   31.3550   39.7290 H   0  0  0  0  0  0  0  0  0  0  0  0
   37.2910   27.2650   42.7630 C   0  0  0  0  0  0  0  0  0  0  0  0
   36.5130   27.0130   43.4870 H   0  0  0  0  0  0  0  0  0  0  0  0
   38.1870   27.5450   43.3820 H   0  0  0  0  0  0  0  0  0  0  0  0
   37.3570   23.8400   41.3190 C   0  0  0  0  0  0  0  0  0  0  0  0
   38.4560   23.9020   40.4610 C   0  0  0  0  0  0  0  0  0  0  0  0
   39.1470   25.0970   40.3900 C   0  0  0  0  0  0  0  0  0  0  0  0
   38.7440   26.1500   41.1420 N   0  0  0  0  0  0  0  0  0  0  0  0
   37.6630   26.0650   41.9760 C   0  0  0  0  0  0  0  0  0  0  0  0
   36.9880   24.8980   42.0450 N   0  0  0  0  0  0  0  0  0  0  0  0
   36.8650   22.8780   41.3230 H   0  0  0  0  0  0  0  0  0  0  0  0
   38.7720   23.0660   39.8670 H   0  0  0  0  0  0  0  0  0  0  0  0
   40.0020   25.2060   39.7470 H   0  0  0  0  0  0  0  0  0  0  0  0
   37.8740   31.8760   41.0170 O   0  0  0  0  0  0  0  0  0  0  0  0
   37.1280   33.4860   39.1140 O   0  0  0  0  0  0  0  0  0  0  0  0
   38.3000   32.6280   39.5560 P   0  0  2  0  0  0  0  0  0  0  0  0
   38.6040   31.4250   38.4280 O   0  0  0  0  0  0  0  0  0  0  0  0
   38.2420   31.6270   37.5270 H   0  0  0  0  0  0  0  0  0  0  0  0
   39.6470   33.6400   39.7300 O   0  0  0  0  0  0  0  0  0  0  0  0
   40.8020   33.0850   39.2030 C   0  0  0  0  0  2  0  0  0  0  0  0
   41.6640   34.1240   38.4940 C   0  0  0  0  0  2  0  0  0  0  0  0
   42.2520   33.6050   37.7150 H   0  0  0  0  0  0  0  0  0  0  0  0
  2  3  1  0  0  0  0
  2  1  1  0  0  0  0
  3 11  1  0  0  0  0
  4  8  1  0  0  0  0
  4  3  2  0  0  0  0
  5  4  1  0  0  0  0
  6  5  2  0  0  0  0
  6  7  1  0  0  0  0
  7  2  2  0  0  0  0
  9  5  1  0  0  0  0
 10  6  1  0  0  0  0
 11 13  1  0  0  0  0
 11 12  1  0  0  0  0
 14 20  1  0  0  0  0
 14 19  1  0  0  0  0
 15 14  2  0  0  0  0
 16 15  1  0  0  0  0
 16 17  2  0  0  0  0
 17 18  1  0  0  0  0
 18 19  2  0  0  0  0
 18 11  1  0  0  0  0
 21 15  1  0  0  0  0
 22 16  1  0  0  0  0
 23  7  1  0  0  0  0
 25 24  2  6  0  0  0
 25 28  1  0  0  0  0
 25 23  1  0  0  0  0
 26 25  1  0  0  0  0
 27 26  1  0  0  0  0
 29 28  1  0  0  0  0
 30 29  1  0  0  0  0
 31 30  1  0  0  0  0
M  END
>  <minimizedAffinity>
-4.82131481

$$$$

 OpenBabel03252502573D

 31 32  0  0  0  0  0  0  0  0999 V2000
   39.6220   30.7270   42.4630 Br  0  0  0  0  0  0  0  0  0  0  0  0
   37.9460   30.0660   41.7490 C   0  0  0  0  0  0  0  0  0  0  0  0
   37.2770   30.9190   40.9310 C   0  0  0  0  0  0  0  0  0  0  0  0
   36.0660   30.4120   40.4290 C   0  0  0  0  0  0  0  0  0  0  0  0
   35.5880   29.1570   40.7370 C   0  0  0  0  0  0  0  0  0  0  0  0
   36.3270   28.3590   41.5730 C   0  0  0  0  0  0  0  0  0  0  0  0
   37.5270   28.8000   42.0990 C   0  0  0  0  0  0  0  0  0  0  0  0
   35.4450   30.9940   39.7680 H   0  0  0  0  0  0  0  0  0  0  0  0
   34.6590   28.7840   40.3440 H   0  0  0  0  0  0  0  0  0  0  0  0
   35.9930   27.3650   41.8440 H   0  0  0  0  0  0  0  0  0  0  0  0
   37.6570   32.2650   40.5190 C   0  0  0  0  0  0  0  0  0  0  0  0
   37.8940   32.8960   41.3780 H   0  0  0  0  0  0  0  0  0  0  0  0
   36.7570   32.7440   40.0440 H   0  0  0  0  0  0  0  0  0  0  0  0
   39.8360   31.5830   37.5850 C   0  0  0  0  0  0  0  0  0  0  0  0
   40.8540   32.5250   37.7490 C   0  0  0  0  0  0  0  0  0  0  0  0
   40.7800   33.3650   38.8430 C   0  0  0  0  0  0  0  0  0  0  0  0
   39.7420   33.2510   39.7060 N   0  0  0  0  0  0  0  0  0  0  0  0
   38.7550   32.3210   39.5250 C   0  0  0  0  0  0  0  0  0  0  0  0
   38.8280   31.4990   38.4560 N   0  0  0  0  0  0  0  0  0  0  0  0
   39.9580   30.9610   36.7110 H   0  0  0  0  0  0  0  0  0  0  0  0
   41.6750   32.6120   37.0630 H   0  0  0  0  0  0  0  0  0  0  0  0
   41.5340   34.1110   39.0220 H   0  0  0  0  0  0  0  0  0  0  0  0
   38.2660   27.9770   42.9470 O   0  0  0  0  0  0  0  0  0  0  0  0
   40.7670   27.2610   42.9130 O   0  0  0  0  0  0  0  0  0  0  0  0
   39.4030   26.8500   42.3860 P   0  0  2  0  0  0  0  0  0  0  0  0
   39.3860   26.8920   40.7090 O   0  0  0  0  0  0  0  0  0  0  0  0
   40.2890   26.8410   40.3030 H   0  0  0  0  0  0  0  0  0  0  0  0
   39.0800   25.2850   42.9480 O   0  0  0  0  0  0  0  0  0  0  0  0
   38.4180   24.5090   42.0110 C   0  0  0  0  0  2  0  0  0  0  0  0
   36.9050   24.6970   42.0780 C   0  0  0  0  0  2  0  0  0  0  0  0
   36.4290   23.7680   41.7150 H   0  0  0  0  0  0  0  0  0  0  0  0
  2  7  1  0  0  0  0
  2  1  1  0  0  0  0
  3  2  2  0  0  0  0
  4  5  2  0  0  0  0
  4  3  1  0  0  0  0
  5  6  1  0  0  0  0
  6 10  1  0  0  0  0
  6  7  2  0  0  0  0
  7 23  1  0  0  0  0
  8  4  1  0  0  0  0
  9  5  1  0  0  0  0
 11  3  1  0  0  0  0
 11 12  1  0  0  0  0
 13 11  1  0  0  0  0
 14 15  2  0  0  0  0
 14 19  1  0  0  0  0
 15 16  1  0  0  0  0
 16 22  1  0  0  0  0
 16 17  2  0  0  0  0
 18 17  1  0  0  0  0
 18 11  1  0  0  0  0
 19 18  2  0  0  0  0
 20 14  1  0  0  0  0
 21 15  1  0  0  0  0
 25 24  2  1  0  0  0
 25 23  1  0  0  0  0
 25 28  1  0  0  0  0
 26 25  1  0  0  0  0
 27 26  1  0  0  0  0
 29 30  1  0  0  0  0
 29 28  1  0  0  0  0
 31 30  1  0  0  0  0
M  END
>  <minimizedAffinity>
-4.79513979

$$$$
