
 OpenBabel03252509313D

 21 21  0  0  0  0  0  0  0  0999 V2000
   47.1660   33.1530   42.9280 C   0  0  0  0  0  0  0  0  0  0  0  0
   47.2070   33.6330   41.9430 H   0  0  0  0  0  0  0  0  0  0  0  0
   46.6980   32.1420   42.7590 H   0  0  0  0  0  0  0  0  0  0  0  0
   45.3340   34.0560   46.0510 C   0  0  0  0  0  0  0  0  0  0  0  0
   46.1770   33.3720   45.1560 C   0  0  0  0  0  0  0  0  0  0  0  0
   46.2920   33.8530   43.8730 C   0  0  0  0  0  0  0  0  0  0  0  0
   45.5870   34.9690   43.5210 N   0  0  0  0  0  0  0  0  0  0  0  0
   44.7740   35.6180   44.4040 C   0  0  0  0  0  0  0  0  0  0  0  0
   44.6650   35.1500   45.6460 N   0  0  0  0  0  0  0  0  0  0  0  0
   45.2850   33.6300   47.0440 H   0  0  0  0  0  0  0  0  0  0  0  0
   46.7340   32.4860   45.4430 H   0  0  0  0  0  0  0  0  0  0  0  0
   44.2380   36.5040   44.0620 H   0  0  0  0  0  0  0  0  0  0  0  0
   48.4130   32.8760   43.4870 O   0  0  0  0  0  0  0  0  0  0  0  0
   50.6910   32.6320   42.2380 O   0  0  0  0  0  0  0  0  0  0  0  0
   49.5720   33.6160   42.5020 P   0  0  2  0  0  0  0  0  0  0  0  0
   50.0910   34.9950   43.3010 O   0  0  0  0  0  0  0  0  0  0  0  0
   51.0130   34.9580   43.6400 H   0  0  0  0  0  0  0  0  0  0  0  0
   48.8510   33.9800   41.0310 O   0  0  0  0  0  0  0  0  0  0  0  0
   48.2590   35.2500   41.0830 C   0  0  0  0  0  2  0  0  0  0  0  0
   49.2720   36.3290   41.3220 C   0  0  0  0  0  2  0  0  0  0  0  0
   50.2300   36.0760   40.7800 H   0  0  0  0  0  0  0  0  0  0  0  0
  1 13  1  0  0  0  0
  1  6  1  0  0  0  0
  2  1  1  0  0  0  0
  3  1  1  0  0  0  0
  4 10  1  0  0  0  0
  5 11  1  0  0  0  0
  5  4  2  0  0  0  0
  6  5  1  0  0  0  0
  7  6  2  0  0  0  0
  7  8  1  0  0  0  0
  8  9  2  0  0  0  0
  9  4  1  0  0  0  0
 12  8  1  0  0  0  0
 15 14  2  6  0  0  0
 15 16  1  0  0  0  0
 15 13  1  0  0  0  0
 16 17  1  0  0  0  0
 18 19  1  0  0  0  0
 18 15  1  0  0  0  0
 19 20  1  0  0  0  0
 21 20  1  0  0  0  0
M  END
>  <minimizedAffinity>
-4.23571682

>  <minimizedRMSD>
0.822041988

$$$$
