
 OpenBabel03252506143D

 30 31  0  0  0  0  0  0  0  0999 V2000
   37.7840   27.7000   39.5830 F   0  0  0  0  0  0  0  0  0  0  0  0
   37.5670   27.6990   40.8960 C   0  0  0  0  0  0  0  0  0  0  0  0
   37.1910   26.5220   41.5190 C   0  0  0  0  0  0  0  0  0  0  0  0
   36.9460   26.4340   42.8910 C   0  0  0  0  0  0  0  0  0  0  0  0
   37.0820   27.5780   43.6790 C   0  0  0  0  0  0  0  0  0  0  0  0
   37.4570   28.7280   43.0230 C   0  0  0  0  0  0  0  0  0  0  0  0
   37.7000   28.8350   41.6900 C   0  0  0  0  0  0  0  0  0  0  0  0
   36.6510   25.4630   43.3070 H   0  0  0  0  0  0  0  0  0  0  0  0
   36.8790   27.4370   44.7130 H   0  0  0  0  0  0  0  0  0  0  0  0
   37.5320   29.5260   43.7520 H   0  0  0  0  0  0  0  0  0  0  0  0
   37.5720   23.0430   40.4120 C   0  0  0  0  0  0  0  0  0  0  0  0
   36.7570   23.0110   39.2690 C   0  0  0  0  0  0  0  0  0  0  0  0
   36.0680   24.2000   38.8730 C   0  0  0  0  0  0  0  0  0  0  0  0
   36.2580   25.3060   39.6550 N   0  0  0  0  0  0  0  0  0  0  0  0
   37.0400   25.2950   40.7330 C   0  0  0  0  0  0  0  0  0  0  0  0
   37.6880   24.1760   41.1060 N   0  0  0  0  0  0  0  0  0  0  0  0
   36.6390   22.1110   38.6820 H   0  0  0  0  0  0  0  0  0  0  0  0
   35.4340   24.2060   37.9970 H   0  0  0  0  0  0  0  0  0  0  0  0
   38.2450   21.8580   40.7890 N   0  0  0  0  0  0  0  0  0  0  0  0
   39.1660   21.9020   41.2970 H   0  0  0  0  0  0  0  0  0  0  0  0
   37.8670   20.8980   40.5830 H   0  0  0  0  0  0  0  0  0  0  0  0
   38.0680   30.0320   41.1390 O   0  0  0  0  0  0  0  0  0  0  0  0
   37.6120   32.5650   40.5070 O   0  0  0  0  0  0  0  0  0  0  0  0
   37.0280   31.1920   40.5010 P   0  0  2  0  0  0  0  0  0  0  0  0
   35.5640   31.1420   41.3860 O   0  0  0  0  0  0  0  0  0  0  0  0
   35.0070   31.9470   41.1570 H   0  0  0  0  0  0  0  0  0  0  0  0
   36.5580   30.8090   38.9030 O   0  0  0  0  0  0  0  0  0  0  0  0
   37.7770   30.7670   38.2100 C   0  0  0  0  0  2  0  0  0  0  0  0
   37.8050   31.6580   37.0160 C   0  0  0  0  0  2  0  0  0  0  0  0
   36.9430   31.4750   36.3420 H   0  0  0  0  0  0  0  0  0  0  0  0
  1  2  1  0  0  0  0
  2  3  2  0  0  0  0
  2  7  1  0  0  0  0
  3  4  1  0  0  0  0
  4  8  1  0  0  0  0
  4  5  2  0  0  0  0
  5  9  1  0  0  0  0
  6  5  1  0  0  0  0
  6 10  1  0  0  0  0
  7  6  2  0  0  0  0
 11 19  1  0  0  0  0
 11 16  1  0  0  0  0
 12 11  2  0  0  0  0
 13 12  1  0  0  0  0
 13 14  2  0  0  0  0
 14 15  1  0  0  0  0
 15 16  2  0  0  0  0
 15  3  1  0  0  0  0
 17 12  1  0  0  0  0
 18 13  1  0  0  0  0
 19 20  1  0  0  0  0
 21 19  1  0  0  0  0
 22  7  1  0  0  0  0
 24 23  2  1  0  0  0
 24 22  1  0  0  0  0
 24 25  1  0  0  0  0
 26 25  1  0  0  0  0
 27 24  1  0  0  0  0
 28 27  1  0  0  0  0
 29 28  1  0  0  0  0
 30 29  1  0  0  0  0
M  END
>  <minimizedAffinity>
-5.56034613

$$$$

 OpenBabel03252506143D

 30 31  0  0  0  0  0  0  0  0999 V2000
   40.5020   30.3750   40.0240 F   0  0  0  0  0  0  0  0  0  0  0  0
   39.4010   31.1200   39.9760 C   0  0  0  0  0  0  0  0  0  0  0  0
   39.5090   32.4700   39.6860 C   0  0  0  0  0  0  0  0  0  0  0  0
   38.4050   33.3210   39.6150 C   0  0  0  0  0  0  0  0  0  0  0  0
   37.1300   32.8000   39.8430 C   0  0  0  0  0  0  0  0  0  0  0  0
   37.0650   31.4550   40.1270 C   0  0  0  0  0  0  0  0  0  0  0  0
   38.1260   30.6090   40.2020 C   0  0  0  0  0  0  0  0  0  0  0  0
   38.5760   34.3790   39.3810 H   0  0  0  0  0  0  0  0  0  0  0  0
   36.3390   33.5060   39.7730 H   0  0  0  0  0  0  0  0  0  0  0  0
   36.0240   31.1890   40.2710 H   0  0  0  0  0  0  0  0  0  0  0  0
   42.4010   33.8690   37.9120 C   0  0  0  0  0  0  0  0  0  0  0  0
   43.2780   34.1600   38.9690 C   0  0  0  0  0  0  0  0  0  0  0  0
   42.8710   33.8710   40.3100 C   0  0  0  0  0  0  0  0  0  0  0  0
   41.6280   33.3210   40.4660 N   0  0  0  0  0  0  0  0  0  0  0  0
   40.8260   33.0600   39.4350 C   0  0  0  0  0  0  0  0  0  0  0  0
   41.2100   33.3320   38.1750 N   0  0  0  0  0  0  0  0  0  0  0  0
   44.2520   34.5950   38.7940 H   0  0  0  0  0  0  0  0  0  0  0  0
   43.5250   34.0840   41.1440 H   0  0  0  0  0  0  0  0  0  0  0  0
   42.8210   34.1610   36.5940 N   0  0  0  0  0  0  0  0  0  0  0  0
   42.4710   33.5910   35.7800 H   0  0  0  0  0  0  0  0  0  0  0  0
   43.4890   34.9420   36.3680 H   0  0  0  0  0  0  0  0  0  0  0  0
   37.9470   29.2850   40.4930 O   0  0  0  0  0  0  0  0  0  0  0  0
   35.4790   28.5550   41.1270 O   0  0  0  0  0  0  0  0  0  0  0  0
   36.8790   28.6550   41.6320 P   0  0  2  0  0  0  0  0  0  0  0  0
   36.9590   29.6300   43.0360 O   0  0  0  0  0  0  0  0  0  0  0  0
   36.1980   29.3950   43.6500 H   0  0  0  0  0  0  0  0  0  0  0  0
   37.3720   27.1100   42.1730 O   0  0  0  0  0  0  0  0  0  0  0  0
   37.9830   27.3810   43.4060 C   0  0  0  0  0  2  0  0  0  0  0  0
   39.4430   27.0800   43.4170 C   0  0  0  0  0  2  0  0  0  0  0  0
   39.6560   26.0480   43.0700 H   0  0  0  0  0  0  0  0  0  0  0  0
  2  1  1  0  0  0  0
  2  7  1  0  0  0  0
  3  2  2  0  0  0  0
  4  3  1  0  0  0  0
  4  5  2  0  0  0  0
  5  6  1  0  0  0  0
  6  7  2  0  0  0  0
  6 10  1  0  0  0  0
  7 22  1  0  0  0  0
  8  4  1  0  0  0  0
  9  5  1  0  0  0  0
 11 16  2  0  0  0  0
 11 12  1  0  0  0  0
 12 13  2  0  0  0  0
 13 14  1  0  0  0  0
 13 18  1  0  0  0  0
 15  3  1  0  0  0  0
 15 14  2  0  0  0  0
 16 15  1  0  0  0  0
 17 12  1  0  0  0  0
 19 11  1  0  0  0  0
 20 19  1  0  0  0  0
 21 19  1  0  0  0  0
 22 24  1  0  0  0  0
 24 23  2  6  0  0  0
 24 27  1  0  0  0  0
 24 25  1  0  0  0  0
 25 26  1  0  0  0  0
 27 28  1  0  0  0  0
 28 29  1  0  0  0  0
 30 29  1  0  0  0  0
M  END
>  <minimizedAffinity>
-5.49453163

$$$$

 OpenBabel03252506143D

 30 31  0  0  0  0  0  0  0  0999 V2000
   38.5750   28.1850   39.8960 F   0  0  0  0  0  0  0  0  0  0  0  0
   38.0370   28.0020   41.0990 C   0  0  0  0  0  0  0  0  0  0  0  0
   37.9090   29.0830   41.9550 C   0  0  0  0  0  0  0  0  0  0  0  0
   37.3550   28.9790   43.2320 C   0  0  0  0  0  0  0  0  0  0  0  0
   36.9070   27.7340   43.6780 C   0  0  0  0  0  0  0  0  0  0  0  0
   37.0510   26.6850   42.7990 C   0  0  0  0  0  0  0  0  0  0  0  0
   37.5870   26.7650   41.5520 C   0  0  0  0  0  0  0  0  0  0  0  0
   37.2920   29.8840   43.8480 H   0  0  0  0  0  0  0  0  0  0  0  0
   36.4980   27.7310   44.6590 H   0  0  0  0  0  0  0  0  0  0  0  0
   36.6570   25.7920   43.2690 H   0  0  0  0  0  0  0  0  0  0  0  0
   37.8700   32.4810   40.5680 C   0  0  0  0  0  0  0  0  0  0  0  0
   39.2060   32.8790   40.7360 C   0  0  0  0  0  0  0  0  0  0  0  0
   40.1330   31.9680   41.3330 C   0  0  0  0  0  0  0  0  0  0  0  0
   39.6380   30.7480   41.7060 N   0  0  0  0  0  0  0  0  0  0  0  0
   38.3620   30.4100   41.5280 C   0  0  0  0  0  0  0  0  0  0  0  0
   37.4910   31.2670   40.9660 N   0  0  0  0  0  0  0  0  0  0  0  0
   39.5500   33.8550   40.4240 H   0  0  0  0  0  0  0  0  0  0  0  0
   41.1690   32.2460   41.4750 H   0  0  0  0  0  0  0  0  0  0  0  0
   36.9690   33.3950   39.9750 N   0  0  0  0  0  0  0  0  0  0  0  0
   36.1430   33.0510   39.4190 H   0  0  0  0  0  0  0  0  0  0  0  0
   37.0770   34.4380   40.0590 H   0  0  0  0  0  0  0  0  0  0  0  0
   37.6830   25.6550   40.7600 O   0  0  0  0  0  0  0  0  0  0  0  0
   39.0450   23.6770   39.6390 O   0  0  0  0  0  0  0  0  0  0  0  0
   38.8200   24.4220   40.9110 P   0  0  2  0  0  0  0  0  0  0  0  0
   38.3020   23.3700   42.1580 O   0  0  0  0  0  0  0  0  0  0  0  0
   38.8540   22.5290   42.1360 H   0  0  0  0  0  0  0  0  0  0  0  0
   40.3230   25.0140   41.4680 O   0  0  0  0  0  0  0  0  0  0  0  0
   40.2820   24.7550   42.8460 C   0  0  0  0  0  2  0  0  0  0  0  0
   40.5380   25.9630   43.6790 C   0  0  0  0  0  2  0  0  0  0  0  0
   41.4770   26.4770   43.3860 H   0  0  0  0  0  0  0  0  0  0  0  0
  1  2  1  0  0  0  0
  2  7  2  0  0  0  0
  2  3  1  0  0  0  0
  3  4  2  0  0  0  0
  4  5  1  0  0  0  0
  4  8  1  0  0  0  0
  5  9  1  0  0  0  0
  6 10  1  0  0  0  0
  6  5  2  0  0  0  0
  7  6  1  0  0  0  0
 11 12  2  0  0  0  0
 11 16  1  0  0  0  0
 12 13  1  0  0  0  0
 13 18  1  0  0  0  0
 13 14  2  0  0  0  0
 15 14  1  0  0  0  0
 15  3  1  0  0  0  0
 16 15  2  0  0  0  0
 17 12  1  0  0  0  0
 19 21  1  0  0  0  0
 19 11  1  0  0  0  0
 20 19  1  0  0  0  0
 22 24  1  0  0  0  0
 22  7  1  0  0  0  0
 24 23  2  6  0  0  0
 24 27  1  0  0  0  0
 24 25  1  0  0  0  0
 26 25  1  0  0  0  0
 27 28  1  0  0  0  0
 28 29  1  0  0  0  0
 30 29  1  0  0  0  0
M  END
>  <minimizedAffinity>
-5.43117619

$$$$

 OpenBabel03252506143D

 30 31  0  0  0  0  0  0  0  0999 V2000
   40.3690   29.9500   40.7520 F   0  0  0  0  0  0  0  0  0  0  0  0
   39.4430   30.8620   40.4650 C   0  0  0  0  0  0  0  0  0  0  0  0
   38.1310   30.6360   40.8440 C   0  0  0  0  0  0  0  0  0  0  0  0
   37.1000   31.5410   40.5840 C   0  0  0  0  0  0  0  0  0  0  0  0
   37.3930   32.7300   39.9140 C   0  0  0  0  0  0  0  0  0  0  0  0
   38.7080   32.9180   39.5550 C   0  0  0  0  0  0  0  0  0  0  0  0
   39.7270   32.0500   39.7970 C   0  0  0  0  0  0  0  0  0  0  0  0
   36.0860   31.2860   40.9170 H   0  0  0  0  0  0  0  0  0  0  0  0
   36.5600   33.3690   39.7500 H   0  0  0  0  0  0  0  0  0  0  0  0
   38.7900   33.8760   39.0550 H   0  0  0  0  0  0  0  0  0  0  0  0
   37.1860   27.1470   41.4760 C   0  0  0  0  0  0  0  0  0  0  0  0
   37.1190   27.1130   42.8770 C   0  0  0  0  0  0  0  0  0  0  0  0
   37.4020   28.3050   43.6160 C   0  0  0  0  0  0  0  0  0  0  0  0
   37.7240   29.4150   42.8850 N   0  0  0  0  0  0  0  0  0  0  0  0
   37.7770   29.4040   41.5540 C   0  0  0  0  0  0  0  0  0  0  0  0
   37.5110   28.2830   40.8600 N   0  0  0  0  0  0  0  0  0  0  0  0
   36.8580   26.2090   43.4110 H   0  0  0  0  0  0  0  0  0  0  0  0
   37.3570   28.3090   44.6970 H   0  0  0  0  0  0  0  0  0  0  0  0
   36.9020   25.9580   40.7630 N   0  0  0  0  0  0  0  0  0  0  0  0
   36.4930   25.9990   39.7930 H   0  0  0  0  0  0  0  0  0  0  0  0
   37.0820   25.0000   41.1570 H   0  0  0  0  0  0  0  0  0  0  0  0
   41.0010   32.3370   39.3940 O   0  0  0  0  0  0  0  0  0  0  0  0
   41.8750   34.1610   37.6810 O   0  0  0  0  0  0  0  0  0  0  0  0
   41.4830   32.7300   37.8290 P   0  0  2  0  0  0  0  0  0  0  0  0
   40.2090   32.3260   36.7610 O   0  0  0  0  0  0  0  0  0  0  0  0
   40.3910   32.7270   35.8570 H   0  0  0  0  0  0  0  0  0  0  0  0
   42.7850   31.7530   37.3060 O   0  0  0  0  0  0  0  0  0  0  0  0
   42.1500   30.5960   36.8330 C   0  0  0  0  0  2  0  0  0  0  0  0
   42.9320   29.8830   35.7840 C   0  0  0  0  0  2  0  0  0  0  0  0
   43.2260   30.5580   34.9550 H   0  0  0  0  0  0  0  0  0  0  0  0
  2  1  1  0  0  0  0
  2  3  1  0  0  0  0
  3 15  1  0  0  0  0
  4  3  2  0  0  0  0
  4  8  1  0  0  0  0
  5  4  1  0  0  0  0
  6  7  1  0  0  0  0
  6  5  2  0  0  0  0
  7  2  2  0  0  0  0
  9  5  1  0  0  0  0
 10  6  1  0  0  0  0
 11 12  1  0  0  0  0
 12 17  1  0  0  0  0
 12 13  2  0  0  0  0
 13 18  1  0  0  0  0
 14 13  1  0  0  0  0
 15 14  2  0  0  0  0
 16 11  2  0  0  0  0
 16 15  1  0  0  0  0
 19 21  1  0  0  0  0
 19 11  1  0  0  0  0
 20 19  1  0  0  0  0
 22  7  1  0  0  0  0
 24 23  2  6  0  0  0
 24 22  1  0  0  0  0
 25 24  1  0  0  0  0
 26 25  1  0  0  0  0
 27 24  1  0  0  0  0
 28 27  1  0  0  0  0
 29 28  1  0  0  0  0
 30 29  1  0  0  0  0
M  END
>  <minimizedAffinity>
-5.27180147

$$$$

 OpenBabel03252506143D

 30 31  0  0  0  0  0  0  0  0999 V2000
   40.0360   28.6420   40.9130 F   0  0  0  0  0  0  0  0  0  0  0  0
   38.9750   28.2740   41.6270 C   0  0  0  0  0  0  0  0  0  0  0  0
   37.7490   28.8630   41.3710 C   0  0  0  0  0  0  0  0  0  0  0  0
   36.5880   28.5330   42.0710 C   0  0  0  0  0  0  0  0  0  0  0  0
   36.6530   27.5680   43.0780 C   0  0  0  0  0  0  0  0  0  0  0  0
   37.8880   27.0050   43.3020 C   0  0  0  0  0  0  0  0  0  0  0  0
   39.0310   27.3120   42.6320 C   0  0  0  0  0  0  0  0  0  0  0  0
   35.6550   29.0480   41.8070 H   0  0  0  0  0  0  0  0  0  0  0  0
   35.7310   27.3690   43.5680 H   0  0  0  0  0  0  0  0  0  0  0  0
   37.7900   26.2740   44.0950 H   0  0  0  0  0  0  0  0  0  0  0  0
   37.3010   32.1110   39.7210 C   0  0  0  0  0  0  0  0  0  0  0  0
   37.4130   31.7660   38.3650 C   0  0  0  0  0  0  0  0  0  0  0  0
   37.6460   30.3990   38.0120 C   0  0  0  0  0  0  0  0  0  0  0  0
   37.7440   29.5090   39.0450 N   0  0  0  0  0  0  0  0  0  0  0  0
   37.6320   29.8780   40.3210 C   0  0  0  0  0  0  0  0  0  0  0  0
   37.4130   31.1630   40.6520 N   0  0  0  0  0  0  0  0  0  0  0  0
   37.3280   32.5070   37.5830 H   0  0  0  0  0  0  0  0  0  0  0  0
   37.7360   30.1040   36.9750 H   0  0  0  0  0  0  0  0  0  0  0  0
   37.0710   33.4670   40.0510 N   0  0  0  0  0  0  0  0  0  0  0  0
   36.5430   33.7250   40.9250 H   0  0  0  0  0  0  0  0  0  0  0  0
   37.4090   34.2630   39.4530 H   0  0  0  0  0  0  0  0  0  0  0  0
   40.2100   26.6900   42.9380 O   0  0  0  0  0  0  0  0  0  0  0  0
   39.7220   24.0920   43.1300 O   0  0  0  0  0  0  0  0  0  0  0  0
   40.6340   25.1110   42.5350 P   0  0  2  0  0  0  0  0  0  0  0  0
   42.2520   24.8510   43.0280 O   0  0  0  0  0  0  0  0  0  0  0  0
   42.4630   23.8690   42.9780 H   0  0  0  0  0  0  0  0  0  0  0  0
   40.6760   24.8810   40.8420 O   0  0  0  0  0  0  0  0  0  0  0  0
   39.4470   24.2630   40.5710 C   0  0  0  0  0  2  0  0  0  0  0  0
   38.5240   25.1160   39.7710 C   0  0  0  0  0  2  0  0  0  0  0  0
   38.3880   26.1190   40.2250 H   0  0  0  0  0  0  0  0  0  0  0  0
  1  2  1  0  0  0  0
  2  7  1  0  0  0  0
  3  2  2  0  0  0  0
  3  4  1  0  0  0  0
  4  5  2  0  0  0  0
  5  6  1  0  0  0  0
  5  9  1  0  0  0  0
  6 10  1  0  0  0  0
  7 22  1  0  0  0  0
  7  6  2  0  0  0  0
  8  4  1  0  0  0  0
 11 19  1  0  0  0  0
 11 16  1  0  0  0  0
 12 11  2  0  0  0  0
 13 12  1  0  0  0  0
 13 14  2  0  0  0  0
 14 15  1  0  0  0  0
 15 16  2  0  0  0  0
 15  3  1  0  0  0  0
 17 12  1  0  0  0  0
 18 13  1  0  0  0  0
 19 20  1  0  0  0  0
 21 19  1  0  0  0  0
 24 22  1  0  0  0  0
 24 25  1  0  0  0  0
 24 23  2  1  0  0  0
 26 25  1  0  0  0  0
 27 24  1  0  0  0  0
 28 27  1  0  0  0  0
 29 30  1  0  0  0  0
 29 28  1  0  0  0  0
M  END
>  <minimizedAffinity>
-5.23634243

$$$$

 OpenBabel03252506143D

 30 31  0  0  0  0  0  0  0  0999 V2000
   39.4570   28.7340   39.8060 F   0  0  0  0  0  0  0  0  0  0  0  0
   38.1500   28.8220   40.0410 C   0  0  0  0  0  0  0  0  0  0  0  0
   37.6130   28.1610   41.1320 C   0  0  0  0  0  0  0  0  0  0  0  0
   36.2540   28.2030   41.4510 C   0  0  0  0  0  0  0  0  0  0  0  0
   35.3890   28.9410   40.6420 C   0  0  0  0  0  0  0  0  0  0  0  0
   35.9610   29.5840   39.5680 C   0  0  0  0  0  0  0  0  0  0  0  0
   37.2800   29.5560   39.2390 C   0  0  0  0  0  0  0  0  0  0  0  0
   35.9080   27.6490   42.3330 H   0  0  0  0  0  0  0  0  0  0  0  0
   34.3710   28.9260   40.9450 H   0  0  0  0  0  0  0  0  0  0  0  0
   35.1820   30.1190   39.0380 H   0  0  0  0  0  0  0  0  0  0  0  0
   39.2040   25.2930   42.7790 C   0  0  0  0  0  0  0  0  0  0  0  0
   40.1040   25.9220   43.6530 C   0  0  0  0  0  0  0  0  0  0  0  0
   40.1650   27.3510   43.6790 C   0  0  0  0  0  0  0  0  0  0  0  0
   39.3230   28.0140   42.8290 N   0  0  0  0  0  0  0  0  0  0  0  0
   38.4830   27.3780   42.0130 C   0  0  0  0  0  0  0  0  0  0  0  0
   38.4260   26.0340   41.9900 N   0  0  0  0  0  0  0  0  0  0  0  0
   40.7500   25.3530   44.3080 H   0  0  0  0  0  0  0  0  0  0  0  0
   40.8480   27.8630   44.3430 H   0  0  0  0  0  0  0  0  0  0  0  0
   39.1580   23.8790   42.7680 N   0  0  0  0  0  0  0  0  0  0  0  0
   38.2670   23.3730   42.5240 H   0  0  0  0  0  0  0  0  0  0  0  0
   39.9910   23.2800   42.9980 H   0  0  0  0  0  0  0  0  0  0  0  0
   37.7430   30.2330   38.1450 O   0  0  0  0  0  0  0  0  0  0  0  0
   37.2740   32.7920   38.6490 O   0  0  0  0  0  0  0  0  0  0  0  0
   38.2810   31.8290   38.1180 P   0  0  2  0  0  0  0  0  0  0  0  0
   38.7170   32.2180   36.5100 O   0  0  0  0  0  0  0  0  0  0  0  0
   38.8520   33.2110   36.4310 H   0  0  0  0  0  0  0  0  0  0  0  0
   39.7330   32.0200   38.9980 O   0  0  0  0  0  0  0  0  0  0  0  0
   39.3300   32.7430   40.1310 C   0  0  0  0  0  2  0  0  0  0  0  0
   39.3540   31.9340   41.3820 C   0  0  0  0  0  2  0  0  0  0  0  0
   38.7850   30.9880   41.2750 H   0  0  0  0  0  0  0  0  0  0  0  0
  1  2  1  0  0  0  0
  2  3  1  0  0  0  0
  3  4  2  0  0  0  0
  3 15  1  0  0  0  0
  4  8  1  0  0  0  0
  5  9  1  0  0  0  0
  5  4  1  0  0  0  0
  6  5  2  0  0  0  0
  7  6  1  0  0  0  0
  7  2  2  0  0  0  0
 10  6  1  0  0  0  0
 11 12  1  0  0  0  0
 12 13  2  0  0  0  0
 12 17  1  0  0  0  0
 13 18  1  0  0  0  0
 14 13  1  0  0  0  0
 15 14  2  0  0  0  0
 16 15  1  0  0  0  0
 16 11  2  0  0  0  0
 19 11  1  0  0  0  0
 19 21  1  0  0  0  0
 20 19  1  0  0  0  0
 22  7  1  0  0  0  0
 24 22  1  0  0  0  0
 24 23  2  1  0  0  0
 24 27  1  0  0  0  0
 25 24  1  0  0  0  0
 26 25  1  0  0  0  0
 27 28  1  0  0  0  0
 28 29  1  0  0  0  0
 30 29  1  0  0  0  0
M  END
>  <minimizedAffinity>
-5.12292528

$$$$

 OpenBabel03252506143D

 30 31  0  0  0  0  0  0  0  0999 V2000
   37.2470   27.3600   39.7090 F   0  0  0  0  0  0  0  0  0  0  0  0
   37.3960   27.7430   40.9740 C   0  0  0  0  0  0  0  0  0  0  0  0
   37.5530   29.0880   41.2610 C   0  0  0  0  0  0  0  0  0  0  0  0
   37.7140   29.5740   42.5600 C   0  0  0  0  0  0  0  0  0  0  0  0
   37.7180   28.6720   43.6260 C   0  0  0  0  0  0  0  0  0  0  0  0
   37.5580   27.3450   43.3010 C   0  0  0  0  0  0  0  0  0  0  0  0
   37.4010   26.8510   42.0440 C   0  0  0  0  0  0  0  0  0  0  0  0
   37.8340   30.6550   42.7020 H   0  0  0  0  0  0  0  0  0  0  0  0
   37.8450   29.1130   44.5850 H   0  0  0  0  0  0  0  0  0  0  0  0
   37.5720   26.7670   44.2170 H   0  0  0  0  0  0  0  0  0  0  0  0
   37.2060   32.2690   39.4630 C   0  0  0  0  0  0  0  0  0  0  0  0
   37.5480   31.9010   38.1520 C   0  0  0  0  0  0  0  0  0  0  0  0
   37.9030   30.5410   37.8820 C   0  0  0  0  0  0  0  0  0  0  0  0
   37.8820   29.6810   38.9450 N   0  0  0  0  0  0  0  0  0  0  0  0
   37.5510   30.0720   40.1750 C   0  0  0  0  0  0  0  0  0  0  0  0
   37.2180   31.3500   40.4290 N   0  0  0  0  0  0  0  0  0  0  0  0
   37.5490   32.6190   37.3440 H   0  0  0  0  0  0  0  0  0  0  0  0
   38.1700   30.2290   36.8820 H   0  0  0  0  0  0  0  0  0  0  0  0
   36.8580   33.6170   39.7110 N   0  0  0  0  0  0  0  0  0  0  0  0
   36.1860   33.8650   40.4830 H   0  0  0  0  0  0  0  0  0  0  0  0
   37.2440   34.4180   39.1490 H   0  0  0  0  0  0  0  0  0  0  0  0
   37.2510   25.5080   41.8330 O   0  0  0  0  0  0  0  0  0  0  0  0
   39.2450   24.0470   42.7880 O   0  0  0  0  0  0  0  0  0  0  0  0
   38.4900   24.4030   41.5520 P   0  0  2  0  0  0  0  0  0  0  0  0
   39.5300   25.0580   40.3610 O   0  0  0  0  0  0  0  0  0  0  0  0
   40.3740   24.5130   40.3190 H   0  0  0  0  0  0  0  0  0  0  0  0
   37.9020   22.9640   40.8400 O   0  0  0  0  0  0  0  0  0  0  0  0
   37.3380   23.4080   39.6350 C   0  0  0  0  0  2  0  0  0  0  0  0
   35.9550   22.9010   39.4120 C   0  0  0  0  0  2  0  0  0  0  0  0
   35.8970   21.7970   39.5110 H   0  0  0  0  0  0  0  0  0  0  0  0
  1  2  1  0  0  0  0
  2  3  2  0  0  0  0
  2  7  1  0  0  0  0
  3  4  1  0  0  0  0
  4  8  1  0  0  0  0
  4  5  2  0  0  0  0
  5  9  1  0  0  0  0
  6  5  1  0  0  0  0
  6 10  1  0  0  0  0
  7  6  2  0  0  0  0
 11 19  1  0  0  0  0
 11 16  1  0  0  0  0
 12 11  2  0  0  0  0
 13 12  1  0  0  0  0
 13 14  2  0  0  0  0
 14 15  1  0  0  0  0
 15 16  2  0  0  0  0
 15  3  1  0  0  0  0
 17 12  1  0  0  0  0
 18 13  1  0  0  0  0
 19 20  1  0  0  0  0
 21 19  1  0  0  0  0
 22  7  1  0  0  0  0
 24 22  1  0  0  0  0
 24 23  2  1  0  0  0
 25 24  1  0  0  0  0
 26 25  1  0  0  0  0
 27 24  1  0  0  0  0
 28 27  1  0  0  0  0
 29 30  1  0  0  0  0
 29 28  1  0  0  0  0
M  END
>  <minimizedAffinity>
-5.05038881

$$$$

 OpenBabel03252506143D

 30 31  0  0  0  0  0  0  0  0999 V2000
   39.7180   30.1620   38.6330 F   0  0  0  0  0  0  0  0  0  0  0  0
   39.0080   31.1820   39.1080 C   0  0  0  0  0  0  0  0  0  0  0  0
   39.6430   32.3830   39.3760 C   0  0  0  0  0  0  0  0  0  0  0  0
   38.9720   33.5010   39.8740 C   0  0  0  0  0  0  0  0  0  0  0  0
   37.6000   33.4170   40.1170 C   0  0  0  0  0  0  0  0  0  0  0  0
   37.0060   32.2080   39.8380 C   0  0  0  0  0  0  0  0  0  0  0  0
   37.6400   31.1070   39.3530 C   0  0  0  0  0  0  0  0  0  0  0  0
   39.5490   34.4150   40.0610 H   0  0  0  0  0  0  0  0  0  0  0  0
   37.1570   34.3060   40.4960 H   0  0  0  0  0  0  0  0  0  0  0  0
   35.9490   32.2890   40.0630 H   0  0  0  0  0  0  0  0  0  0  0  0
   42.8200   33.3930   37.8420 C   0  0  0  0  0  0  0  0  0  0  0  0
   43.7590   32.7720   38.6800 C   0  0  0  0  0  0  0  0  0  0  0  0
   43.2940   31.9950   39.7880 C   0  0  0  0  0  0  0  0  0  0  0  0
   41.9390   31.9130   39.9520 N   0  0  0  0  0  0  0  0  0  0  0  0
   41.0810   32.5190   39.1320 C   0  0  0  0  0  0  0  0  0  0  0  0
   41.5180   33.2500   38.0910 N   0  0  0  0  0  0  0  0  0  0  0  0
   44.8220   32.8660   38.5090 H   0  0  0  0  0  0  0  0  0  0  0  0
   43.9940   31.5040   40.4500 H   0  0  0  0  0  0  0  0  0  0  0  0
   43.2980   34.1580   36.7520 N   0  0  0  0  0  0  0  0  0  0  0  0
   42.7270   34.2530   35.8720 H   0  0  0  0  0  0  0  0  0  0  0  0
   44.2250   34.6550   36.7680 H   0  0  0  0  0  0  0  0  0  0  0  0
   36.9500   29.9520   39.1120 O   0  0  0  0  0  0  0  0  0  0  0  0
   36.2860   27.4910   39.8380 O   0  0  0  0  0  0  0  0  0  0  0  0
   36.3080   28.9160   40.2750 P   0  0  2  0  0  0  0  0  0  0  0  0
   34.7360   29.4650   40.6690 O   0  0  0  0  0  0  0  0  0  0  0  0
   34.2620   28.7600   41.2090 H   0  0  0  0  0  0  0  0  0  0  0  0
   37.1640   29.0180   41.7510 O   0  0  0  0  0  0  0  0  0  0  0  0
   37.2110   27.6860   42.1890 C   0  0  0  0  0  2  0  0  0  0  0  0
   36.5170   27.4700   43.4890 C   0  0  0  0  0  2  0  0  0  0  0  0
   36.8740   28.1720   44.2710 H   0  0  0  0  0  0  0  0  0  0  0  0
  1  2  1  0  0  0  0
  2  7  2  0  0  0  0
  2  3  1  0  0  0  0
  3  4  2  0  0  0  0
  4  8  1  0  0  0  0
  4  5  1  0  0  0  0
  5  9  1  0  0  0  0
  6 10  1  0  0  0  0
  6  5  2  0  0  0  0
  7  6  1  0  0  0  0
 11 16  2  0  0  0  0
 11 12  1  0  0  0  0
 12 13  2  0  0  0  0
 13 14  1  0  0  0  0
 13 18  1  0  0  0  0
 15  3  1  0  0  0  0
 15 14  2  0  0  0  0
 16 15  1  0  0  0  0
 17 12  1  0  0  0  0
 19 21  1  0  0  0  0
 19 11  1  0  0  0  0
 20 19  1  0  0  0  0
 22  7  1  0  0  0  0
 22 24  1  0  0  0  0
 24 23  2  6  0  0  0
 24 25  1  0  0  0  0
 24 27  1  0  0  0  0
 25 26  1  0  0  0  0
 27 28  1  0  0  0  0
 28 29  1  0  0  0  0
 29 30  1  0  0  0  0
M  END
>  <minimizedAffinity>
-5.01830292

$$$$

 OpenBabel03252506143D

 30 31  0  0  0  0  0  0  0  0999 V2000
   39.3330   27.6120   40.1650 F   0  0  0  0  0  0  0  0  0  0  0  0
   38.6660   27.8280   41.2960 C   0  0  0  0  0  0  0  0  0  0  0  0
   37.6760   26.9400   41.6780 C   0  0  0  0  0  0  0  0  0  0  0  0
   36.9310   27.0910   42.8500 C   0  0  0  0  0  0  0  0  0  0  0  0
   37.1860   28.1840   43.6800 C   0  0  0  0  0  0  0  0  0  0  0  0
   38.1780   29.0440   43.2660 C   0  0  0  0  0  0  0  0  0  0  0  0
   38.9140   28.9150   42.1300 C   0  0  0  0  0  0  0  0  0  0  0  0
   36.1630   26.3430   43.0800 H   0  0  0  0  0  0  0  0  0  0  0  0
   36.5810   28.2350   44.5520 H   0  0  0  0  0  0  0  0  0  0  0  0
   38.2730   29.8330   44.0030 H   0  0  0  0  0  0  0  0  0  0  0  0
   37.6320   23.4930   40.4170 C   0  0  0  0  0  0  0  0  0  0  0  0
   36.8160   23.6100   39.2810 C   0  0  0  0  0  0  0  0  0  0  0  0
   36.2730   24.8890   38.9430 C   0  0  0  0  0  0  0  0  0  0  0  0
   36.5970   25.9290   39.7710 N   0  0  0  0  0  0  0  0  0  0  0  0
   37.3760   25.7750   40.8410 C   0  0  0  0  0  0  0  0  0  0  0  0
   37.8860   24.5720   41.1580 N   0  0  0  0  0  0  0  0  0  0  0  0
   36.5890   22.7570   38.6560 H   0  0  0  0  0  0  0  0  0  0  0  0
   35.6410   25.0090   38.0740 H   0  0  0  0  0  0  0  0  0  0  0  0
   38.1600   22.2200   40.7350 N   0  0  0  0  0  0  0  0  0  0  0  0
   39.0820   22.1310   41.2370 H   0  0  0  0  0  0  0  0  0  0  0  0
   37.6690   21.3230   40.4910 H   0  0  0  0  0  0  0  0  0  0  0  0
   39.8770   29.8330   41.8130 O   0  0  0  0  0  0  0  0  0  0  0  0
   40.7600   31.1960   39.7190 O   0  0  0  0  0  0  0  0  0  0  0  0
   39.6980   31.1380   40.7650 P   0  0  2  0  0  0  0  0  0  0  0  0
   39.6750   32.5720   41.6980 O   0  0  0  0  0  0  0  0  0  0  0  0
   39.7660   33.3680   41.0900 H   0  0  0  0  0  0  0  0  0  0  0  0
   38.1740   31.1230   39.9920 O   0  0  0  0  0  0  0  0  0  0  0  0
   37.5750   32.3110   40.4380 C   0  0  0  0  0  2  0  0  0  0  0  0
   37.2080   33.2370   39.3300 C   0  0  0  0  0  2  0  0  0  0  0  0
   38.0670   33.4370   38.6560 H   0  0  0  0  0  0  0  0  0  0  0  0
  1  2  1  0  0  0  0
  2  3  2  0  0  0  0
  2  7  1  0  0  0  0
  3  4  1  0  0  0  0
  4  8  1  0  0  0  0
  4  5  2  0  0  0  0
  5  9  1  0  0  0  0
  6  5  1  0  0  0  0
  6 10  1  0  0  0  0
  7  6  2  0  0  0  0
 11 19  1  0  0  0  0
 11 16  1  0  0  0  0
 12 11  2  0  0  0  0
 13 12  1  0  0  0  0
 13 14  2  0  0  0  0
 14 15  1  0  0  0  0
 15 16  2  0  0  0  0
 15  3  1  0  0  0  0
 17 12  1  0  0  0  0
 18 13  1  0  0  0  0
 19 20  1  0  0  0  0
 21 19  1  0  0  0  0
 22  7  1  0  0  0  0
 24 23  2  6  0  0  0
 24 25  1  0  0  0  0
 24 22  1  0  0  0  0
 26 25  1  0  0  0  0
 27 28  1  0  0  0  0
 27 24  1  0  0  0  0
 29 28  1  0  0  0  0
 30 29  1  0  0  0  0
M  END
>  <minimizedAffinity>
-4.98683214

$$$$
