
 OpenBabel03242523493D

 20 21  0  0  0  0  0  0  0  0999 V2000
   36.9320   29.0420   41.8410 C   0  0  0  0  0  0  0  0  0  0  0  0
   36.5270   27.6970   41.7330 C   0  0  0  0  0  0  0  0  0  0  0  0
   37.3120   26.7300   42.3880 C   0  0  0  0  0  0  0  0  0  0  0  0
   38.4190   27.1480   43.0890 N   0  0  0  0  0  0  0  0  0  0  0  0
   38.7470   28.4490   43.1500 C   0  0  0  0  0  0  0  0  0  0  0  0
   38.0090   29.3720   42.5340 N   0  0  0  0  0  0  0  0  0  0  0  0
   35.6640   27.3770   41.1880 H   0  0  0  0  0  0  0  0  0  0  0  0
   39.6300   28.7120   43.7190 H   0  0  0  0  0  0  0  0  0  0  0  0
   36.9510   25.2770   42.3480 C   0  0  0  0  0  0  0  0  0  0  0  0
   36.8760   24.6000   41.0170 C   0  0  0  0  0  0  0  0  0  0  0  0
   37.9790   24.2970   42.0410 C   0  0  0  0  0  0  0  0  0  0  0  0
   36.0690   25.0750   42.9910 H   0  0  0  0  0  0  0  0  0  0  0  0
   36.1120   23.8190   40.8550 H   0  0  0  0  0  0  0  0  0  0  0  0
   37.1600   25.1850   40.1190 H   0  0  0  0  0  0  0  0  0  0  0  0
   38.9760   24.7050   41.7500 H   0  0  0  0  0  0  0  0  0  0  0  0
   38.0120   23.2690   42.4560 H   0  0  0  0  0  0  0  0  0  0  0  0
   36.1260   29.9290   41.1800 O   0  0  0  0  0  0  0  0  0  0  0  0
   36.6480   31.1810   40.7760 C   0  0  0  0  0  2  0  0  0  0  0  0
   36.8890   31.2230   39.2780 C   0  0  0  0  0  2  0  0  0  0  0  0
   36.0980   30.6360   38.7350 H   0  0  0  0  0  0  0  0  0  0  0  0
  1  6  1  0  0  0  0
  2  1  2  0  0  0  0
  2  3  1  0  0  0  0
  3  4  2  0  0  0  0
  4  5  1  0  0  0  0
  5  8  1  0  0  0  0
  6  5  2  0  0  0  0
  7  2  1  0  0  0  0
  9  3  1  0  0  0  0
  9 12  1  0  0  0  0
 10 11  1  0  0  0  0
 10  9  1  0  0  0  0
 11  9  1  0  0  0  0
 11 16  1  0  0  0  0
 13 10  1  0  0  0  0
 14 10  1  0  0  0  0
 15 11  1  0  0  0  0
 17  1  1  0  0  0  0
 18 17  1  0  0  0  0
 19 18  1  0  0  0  0
 20 19  1  0  0  0  0
M  END
>  <minimizedAffinity>
-3.83039165

$$$$

 OpenBabel03242523493D

 20 21  0  0  0  0  0  0  0  0999 V2000
   37.2840   27.2750   42.5840 C   0  0  0  0  0  0  0  0  0  0  0  0
   36.5120   28.1860   41.8370 C   0  0  0  0  0  0  0  0  0  0  0  0
   36.9860   29.5070   41.7370 C   0  0  0  0  0  0  0  0  0  0  0  0
   38.1640   29.8310   42.3700 N   0  0  0  0  0  0  0  0  0  0  0  0
   38.8490   28.9110   43.0660 C   0  0  0  0  0  0  0  0  0  0  0  0
   38.4090   27.6570   43.1650 N   0  0  0  0  0  0  0  0  0  0  0  0
   35.5970   27.9290   41.3460 H   0  0  0  0  0  0  0  0  0  0  0  0
   39.7700   29.2300   43.5400 H   0  0  0  0  0  0  0  0  0  0  0  0
   36.2450   30.5430   40.9490 C   0  0  0  0  0  0  0  0  0  0  0  0
   36.9990   31.7360   40.4570 C   0  0  0  0  0  0  0  0  0  0  0  0
   36.4690   30.6430   39.5170 C   0  0  0  0  0  0  0  0  0  0  0  0
   35.2900   30.8070   41.4510 H   0  0  0  0  0  0  0  0  0  0  0  0
   36.4900   32.7160   40.4250 H   0  0  0  0  0  0  0  0  0  0  0  0
   38.0930   31.7700   40.6350 H   0  0  0  0  0  0  0  0  0  0  0  0
   37.2730   29.9930   39.1000 H   0  0  0  0  0  0  0  0  0  0  0  0
   35.6980   30.9440   38.7800 H   0  0  0  0  0  0  0  0  0  0  0  0
   36.7650   26.0100   42.6400 O   0  0  0  0  0  0  0  0  0  0  0  0
   37.4950   24.9300   42.0860 C   0  0  0  0  0  2  0  0  0  0  0  0
   36.6480   24.1290   41.1160 C   0  0  0  0  0  2  0  0  0  0  0  0
   35.9480   24.8050   40.5510 H   0  0  0  0  0  0  0  0  0  0  0  0
  1 17  1  0  0  0  0
  1  6  1  0  0  0  0
  2  1  2  0  0  0  0
  3  2  1  0  0  0  0
  3  4  2  0  0  0  0
  4  5  1  0  0  0  0
  5  6  2  0  0  0  0
  5  8  1  0  0  0  0
  7  2  1  0  0  0  0
  9 12  1  0  0  0  0
  9  3  1  0  0  0  0
 10 14  1  0  0  0  0
 10  9  1  0  0  0  0
 11 10  1  0  0  0  0
 11  9  1  0  0  0  0
 13 10  1  0  0  0  0
 15 11  1  0  0  0  0
 16 11  1  0  0  0  0
 18 17  1  0  0  0  0
 19 18  1  0  0  0  0
 20 19  1  0  0  0  0
M  END
>  <minimizedAffinity>
-3.8155942

$$$$

 OpenBabel03242523493D

 20 21  0  0  0  0  0  0  0  0999 V2000
   37.5940   30.8430   41.1470 C   0  0  0  0  0  0  0  0  0  0  0  0
   37.2030   29.6510   41.7900 C   0  0  0  0  0  0  0  0  0  0  0  0
   38.1200   29.0670   42.6840 C   0  0  0  0  0  0  0  0  0  0  0  0
   39.3330   29.6870   42.8770 N   0  0  0  0  0  0  0  0  0  0  0  0
   39.6390   30.8230   42.2310 C   0  0  0  0  0  0  0  0  0  0  0  0
   38.7770   31.3830   41.3830 N   0  0  0  0  0  0  0  0  0  0  0  0
   36.2580   29.1740   41.6370 H   0  0  0  0  0  0  0  0  0  0  0  0
   40.6100   31.2610   42.4280 H   0  0  0  0  0  0  0  0  0  0  0  0
   37.7890   27.8110   43.4290 C   0  0  0  0  0  0  0  0  0  0  0  0
   36.3510   27.4900   43.6780 C   0  0  0  0  0  0  0  0  0  0  0  0
   37.2240   26.6840   42.7060 C   0  0  0  0  0  0  0  0  0  0  0  0
   38.4220   27.7170   44.3360 H   0  0  0  0  0  0  0  0  0  0  0  0
   36.0680   26.9990   44.6260 H   0  0  0  0  0  0  0  0  0  0  0  0
   35.5850   28.1610   43.2390 H   0  0  0  0  0  0  0  0  0  0  0  0
   36.9730   26.8630   41.6350 H   0  0  0  0  0  0  0  0  0  0  0  0
   37.4070   25.6200   42.9590 H   0  0  0  0  0  0  0  0  0  0  0  0
   36.6560   31.3550   40.2920 O   0  0  0  0  0  0  0  0  0  0  0  0
   37.0700   32.1580   39.2010 C   0  0  0  0  0  2  0  0  0  0  0  0
   37.3950   31.3130   37.9840 C   0  0  0  0  0  2  0  0  0  0  0  0
   36.7040   30.4270   37.9220 H   0  0  0  0  0  0  0  0  0  0  0  0
  1  6  2  0  0  0  0
  1  2  1  0  0  0  0
  2  3  2  0  0  0  0
  3  4  1  0  0  0  0
  3  9  1  0  0  0  0
  5  8  1  0  0  0  0
  5  4  2  0  0  0  0
  6  5  1  0  0  0  0
  7  2  1  0  0  0  0
  9 10  1  0  0  0  0
  9 12  1  0  0  0  0
 10 13  1  0  0  0  0
 11 16  1  0  0  0  0
 11  9  1  0  0  0  0
 11 10  1  0  0  0  0
 14 10  1  0  0  0  0
 15 11  1  0  0  0  0
 17  1  1  0  0  0  0
 18 17  1  0  0  0  0
 19 18  1  0  0  0  0
 20 19  1  0  0  0  0
M  END
>  <minimizedAffinity>
-3.78489709

$$$$

 OpenBabel03242523493D

 20 21  0  0  0  0  0  0  0  0999 V2000
   36.7810   30.8410   40.8790 C   0  0  0  0  0  0  0  0  0  0  0  0
   37.5820   30.2610   41.8820 C   0  0  0  0  0  0  0  0  0  0  0  0
   37.2600   28.9540   42.2930 C   0  0  0  0  0  0  0  0  0  0  0  0
   36.1920   28.3240   41.6980 N   0  0  0  0  0  0  0  0  0  0  0  0
   35.4710   28.9370   40.7460 C   0  0  0  0  0  0  0  0  0  0  0  0
   35.7690   30.1750   40.3500 N   0  0  0  0  0  0  0  0  0  0  0  0
   38.4120   30.7550   42.3420 H   0  0  0  0  0  0  0  0  0  0  0  0
   34.6440   28.3860   40.3160 H   0  0  0  0  0  0  0  0  0  0  0  0
   38.0640   28.2460   43.3400 C   0  0  0  0  0  0  0  0  0  0  0  0
   38.5050   26.8440   43.0710 C   0  0  0  0  0  0  0  0  0  0  0  0
   39.4830   28.0260   43.1190 C   0  0  0  0  0  0  0  0  0  0  0  0
   37.6000   28.3730   44.3410 H   0  0  0  0  0  0  0  0  0  0  0  0
   38.5440   26.1240   43.9070 H   0  0  0  0  0  0  0  0  0  0  0  0
   38.2780   26.4090   42.0760 H   0  0  0  0  0  0  0  0  0  0  0  0
   39.8750   28.3160   42.1160 H   0  0  0  0  0  0  0  0  0  0  0  0
   40.2490   28.0120   43.9200 H   0  0  0  0  0  0  0  0  0  0  0  0
   37.1490   32.1120   40.5290 O   0  0  0  0  0  0  0  0  0  0  0  0
   38.4970   32.5160   40.6810 C   0  0  0  0  0  2  0  0  0  0  0  0
   38.6570   34.0080   40.4550 C   0  0  0  0  0  2  0  0  0  0  0  0
   37.7580   34.5640   40.8400 H   0  0  0  0  0  0  0  0  0  0  0  0
  1  2  1  0  0  0  0
  2  3  2  0  0  0  0
  2  7  1  0  0  0  0
  3  9  1  0  0  0  0
  4  3  1  0  0  0  0
  5  4  2  0  0  0  0
  6  5  1  0  0  0  0
  6  1  2  0  0  0  0
  8  5  1  0  0  0  0
  9 12  1  0  0  0  0
 10 11  1  0  0  0  0
 10  9  1  0  0  0  0
 10 13  1  0  0  0  0
 11  9  1  0  0  0  0
 11 16  1  0  0  0  0
 14 10  1  0  0  0  0
 15 11  1  0  0  0  0
 17 18  1  0  0  0  0
 17  1  1  0  0  0  0
 19 18  1  0  0  0  0
 19 20  1  0  0  0  0
M  END
>  <minimizedAffinity>
-3.75975657

$$$$

 OpenBabel03242523493D

 20 21  0  0  0  0  0  0  0  0999 V2000
   38.0640   29.4300   42.7300 C   0  0  0  0  0  0  0  0  0  0  0  0
   37.1900   29.9540   41.7580 C   0  0  0  0  0  0  0  0  0  0  0  0
   37.6800   30.9850   40.9340 C   0  0  0  0  0  0  0  0  0  0  0  0
   38.9710   31.4190   41.1250 N   0  0  0  0  0  0  0  0  0  0  0  0
   39.7500   30.8730   42.0720 C   0  0  0  0  0  0  0  0  0  0  0  0
   39.2950   29.8960   42.8560 N   0  0  0  0  0  0  0  0  0  0  0  0
   36.1870   29.6130   41.6130 H   0  0  0  0  0  0  0  0  0  0  0  0
   40.7580   31.2590   42.1700 H   0  0  0  0  0  0  0  0  0  0  0  0
   36.8320   31.5930   39.8600 C   0  0  0  0  0  0  0  0  0  0  0  0
   37.2250   32.9280   39.3140 C   0  0  0  0  0  0  0  0  0  0  0  0
   37.3330   31.6340   38.4960 C   0  0  0  0  0  0  0  0  0  0  0  0
   35.7570   31.5300   40.1280 H   0  0  0  0  0  0  0  0  0  0  0  0
   36.4340   33.6420   39.0230 H   0  0  0  0  0  0  0  0  0  0  0  0
   38.1690   33.3820   39.6790 H   0  0  0  0  0  0  0  0  0  0  0  0
   38.3840   31.2910   38.3490 H   0  0  0  0  0  0  0  0  0  0  0  0
   36.6970   31.5560   37.5910 H   0  0  0  0  0  0  0  0  0  0  0  0
   37.5230   28.4330   43.4960 O   0  0  0  0  0  0  0  0  0  0  0  0
   36.5510   27.5710   42.9340 C   0  0  0  0  0  2  0  0  0  0  0  0
   37.1720   26.2700   42.4600 C   0  0  0  0  0  2  0  0  0  0  0  0
   38.0070   25.9580   43.1460 H   0  0  0  0  0  0  0  0  0  0  0  0
  1  6  1  0  0  0  0
  1 17  1  0  0  0  0
  2  1  2  0  0  0  0
  3  4  2  0  0  0  0
  3  2  1  0  0  0  0
  4  5  1  0  0  0  0
  5  8  1  0  0  0  0
  5  6  2  0  0  0  0
  7  2  1  0  0  0  0
  9 12  1  0  0  0  0
  9  3  1  0  0  0  0
 10 14  1  0  0  0  0
 10  9  1  0  0  0  0
 11 10  1  0  0  0  0
 11  9  1  0  0  0  0
 13 10  1  0  0  0  0
 15 11  1  0  0  0  0
 16 11  1  0  0  0  0
 18 17  1  0  0  0  0
 19 18  1  0  0  0  0
 19 20  1  0  0  0  0
M  END
>  <minimizedAffinity>
-3.74228621

$$$$

 OpenBabel03242523493D

 20 21  0  0  0  0  0  0  0  0999 V2000
   38.8390   31.3170   41.3030 C   0  0  0  0  0  0  0  0  0  0  0  0
   38.8830   30.3040   42.2800 C   0  0  0  0  0  0  0  0  0  0  0  0
   37.6990   29.5780   42.5140 C   0  0  0  0  0  0  0  0  0  0  0  0
   36.5790   29.8970   41.7820 N   0  0  0  0  0  0  0  0  0  0  0  0
   36.6090   30.8770   40.8650 C   0  0  0  0  0  0  0  0  0  0  0  0
   37.7250   31.5690   40.6360 N   0  0  0  0  0  0  0  0  0  0  0  0
   39.7570   30.0590   42.8460 H   0  0  0  0  0  0  0  0  0  0  0  0
   35.6940   31.0770   40.3220 H   0  0  0  0  0  0  0  0  0  0  0  0
   37.6510   28.4690   43.5200 C   0  0  0  0  0  0  0  0  0  0  0  0
   36.6080   27.4110   43.3620 C   0  0  0  0  0  0  0  0  0  0  0  0
   38.1020   27.1420   43.1370 C   0  0  0  0  0  0  0  0  0  0  0  0
   37.7090   28.8750   44.5510 H   0  0  0  0  0  0  0  0  0  0  0  0
   36.1480   26.9730   44.2660 H   0  0  0  0  0  0  0  0  0  0  0  0
   35.9570   27.4520   42.4660 H   0  0  0  0  0  0  0  0  0  0  0  0
   38.3700   27.0050   42.0630 H   0  0  0  0  0  0  0  0  0  0  0  0
   38.5930   26.4230   43.8240 H   0  0  0  0  0  0  0  0  0  0  0  0
   40.0220   31.9830   41.1280 O   0  0  0  0  0  0  0  0  0  0  0  0
   40.2460   32.7080   39.9320 C   0  0  0  0  0  2  0  0  0  0  0  0
   40.5730   34.1610   40.2190 C   0  0  0  0  0  2  0  0  0  0  0  0
   41.1780   34.2510   41.1640 H   0  0  0  0  0  0  0  0  0  0  0  0
  1  2  1  0  0  0  0
  2  3  2  0  0  0  0
  2  7  1  0  0  0  0
  3  9  1  0  0  0  0
  4  3  1  0  0  0  0
  5  4  2  0  0  0  0
  6  5  1  0  0  0  0
  6  1  2  0  0  0  0
  8  5  1  0  0  0  0
  9 12  1  0  0  0  0
 10  9  1  0  0  0  0
 10 13  1  0  0  0  0
 11 10  1  0  0  0  0
 11  9  1  0  0  0  0
 11 16  1  0  0  0  0
 14 10  1  0  0  0  0
 15 11  1  0  0  0  0
 17  1  1  0  0  0  0
 18 19  1  0  0  0  0
 18 17  1  0  0  0  0
 19 20  1  0  0  0  0
M  END
>  <minimizedAffinity>
-3.68946767

$$$$

 OpenBabel03242523493D

 20 21  0  0  0  0  0  0  0  0999 V2000
   36.7970   28.6260   41.2860 C   0  0  0  0  0  0  0  0  0  0  0  0
   36.6800   27.2240   41.2260 C   0  0  0  0  0  0  0  0  0  0  0  0
   37.1890   26.4840   42.3100 C   0  0  0  0  0  0  0  0  0  0  0  0
   37.7670   27.1660   43.3560 N   0  0  0  0  0  0  0  0  0  0  0  0
   37.8450   28.5060   43.3470 C   0  0  0  0  0  0  0  0  0  0  0  0
   37.3650   29.2150   42.3260 N   0  0  0  0  0  0  0  0  0  0  0  0
   36.2290   26.6980   40.4110 H   0  0  0  0  0  0  0  0  0  0  0  0
   38.3110   28.9830   44.2010 H   0  0  0  0  0  0  0  0  0  0  0  0
   37.0950   24.9900   42.3470 C   0  0  0  0  0  0  0  0  0  0  0  0
   36.7120   24.2710   41.0930 C   0  0  0  0  0  0  0  0  0  0  0  0
   38.1220   24.1960   41.6940 C   0  0  0  0  0  0  0  0  0  0  0  0
   36.5180   24.6560   43.2350 H   0  0  0  0  0  0  0  0  0  0  0  0
   36.0850   23.3640   41.1660 H   0  0  0  0  0  0  0  0  0  0  0  0
   36.5820   24.8700   40.1690 H   0  0  0  0  0  0  0  0  0  0  0  0
   38.8830   24.7630   41.1080 H   0  0  0  0  0  0  0  0  0  0  0  0
   38.4670   23.2020   42.0470 H   0  0  0  0  0  0  0  0  0  0  0  0
   36.2830   29.2820   40.2000 O   0  0  0  0  0  0  0  0  0  0  0  0
   34.8880   29.2530   39.9630 C   0  0  0  0  0  2  0  0  0  0  0  0
   34.5780   28.8600   38.5320 C   0  0  0  0  0  2  0  0  0  0  0  0
   35.3210   28.1020   38.1600 H   0  0  0  0  0  0  0  0  0  0  0  0
  1  6  1  0  0  0  0
  2  1  2  0  0  0  0
  2  3  1  0  0  0  0
  3  9  1  0  0  0  0
  3  4  2  0  0  0  0
  5  4  1  0  0  0  0
  5  8  1  0  0  0  0
  6  5  2  0  0  0  0
  7  2  1  0  0  0  0
  9 12  1  0  0  0  0
 10 13  1  0  0  0  0
 10 11  1  0  0  0  0
 10  9  1  0  0  0  0
 11 16  1  0  0  0  0
 11  9  1  0  0  0  0
 14 10  1  0  0  0  0
 15 11  1  0  0  0  0
 17  1  1  0  0  0  0
 18 17  1  0  0  0  0
 19 18  1  0  0  0  0
 20 19  1  0  0  0  0
M  END
>  <minimizedAffinity>
-3.62050843

$$$$

 OpenBabel03242523493D

 20 21  0  0  0  0  0  0  0  0999 V2000
   38.3550   27.2840   43.3010 C   0  0  0  0  0  0  0  0  0  0  0  0
   37.4100   26.5250   42.5820 C   0  0  0  0  0  0  0  0  0  0  0  0
   37.7440   25.1900   42.2850 C   0  0  0  0  0  0  0  0  0  0  0  0
   38.9600   24.7080   42.7090 N   0  0  0  0  0  0  0  0  0  0  0  0
   39.8130   25.4890   43.3910 C   0  0  0  0  0  0  0  0  0  0  0  0
   39.5060   26.7530   43.6770 N   0  0  0  0  0  0  0  0  0  0  0  0
   36.4650   26.9040   42.2560 H   0  0  0  0  0  0  0  0  0  0  0  0
   40.7540   25.0480   43.6970 H   0  0  0  0  0  0  0  0  0  0  0  0
   36.7970   24.2980   41.5420 C   0  0  0  0  0  0  0  0  0  0  0  0
   36.5490   24.5730   40.0940 C   0  0  0  0  0  0  0  0  0  0  0  0
   37.3250   23.3420   40.5830 C   0  0  0  0  0  0  0  0  0  0  0  0
   35.8640   24.1470   42.1240 H   0  0  0  0  0  0  0  0  0  0  0  0
   35.5400   24.4000   39.6810 H   0  0  0  0  0  0  0  0  0  0  0  0
   37.1310   25.3850   39.6120 H   0  0  0  0  0  0  0  0  0  0  0  0
   38.4210   23.4030   40.3820 H   0  0  0  0  0  0  0  0  0  0  0  0
   36.8780   22.3500   40.3730 H   0  0  0  0  0  0  0  0  0  0  0  0
   37.9670   28.5720   43.5540 O   0  0  0  0  0  0  0  0  0  0  0  0
   38.6520   29.6430   42.9300 C   0  0  0  0  0  2  0  0  0  0  0  0
   37.9180   30.1230   41.6930 C   0  0  0  0  0  2  0  0  0  0  0  0
   36.8040   30.0550   41.8420 H   0  0  0  0  0  0  0  0  0  0  0  0
  1 17  1  0  0  0  0
  1  6  1  0  0  0  0
  2  1  2  0  0  0  0
  3  2  1  0  0  0  0
  3  4  2  0  0  0  0
  4  5  1  0  0  0  0
  5  6  2  0  0  0  0
  5  8  1  0  0  0  0
  7  2  1  0  0  0  0
  9 12  1  0  0  0  0
  9  3  1  0  0  0  0
 10 11  1  0  0  0  0
 10  9  1  0  0  0  0
 11  9  1  0  0  0  0
 13 10  1  0  0  0  0
 14 10  1  0  0  0  0
 15 11  1  0  0  0  0
 16 11  1  0  0  0  0
 18 17  1  0  0  0  0
 19 20  1  0  0  0  0
 19 18  1  0  0  0  0
M  END
>  <minimizedAffinity>
-3.60427475

$$$$

 OpenBabel03242523493D

 20 21  0  0  0  0  0  0  0  0999 V2000
   37.8170   29.7470   42.1340 C   0  0  0  0  0  0  0  0  0  0  0  0
   38.8960   30.6190   41.8910 C   0  0  0  0  0  0  0  0  0  0  0  0
   38.6550   31.7320   41.0620 C   0  0  0  0  0  0  0  0  0  0  0  0
   37.3920   31.9020   40.5430 N   0  0  0  0  0  0  0  0  0  0  0  0
   36.4100   31.0300   40.8180 C   0  0  0  0  0  0  0  0  0  0  0  0
   36.6280   29.9740   41.6010 N   0  0  0  0  0  0  0  0  0  0  0  0
   39.8750   30.4830   42.2970 H   0  0  0  0  0  0  0  0  0  0  0  0
   35.4380   31.2210   40.3790 H   0  0  0  0  0  0  0  0  0  0  0  0
   39.7340   32.7260   40.7600 C   0  0  0  0  0  0  0  0  0  0  0  0
   39.9570   33.1210   39.3360 C   0  0  0  0  0  0  0  0  0  0  0  0
   39.3670   34.0800   40.3800 C   0  0  0  0  0  0  0  0  0  0  0  0
   40.6710   32.4590   41.2910 H   0  0  0  0  0  0  0  0  0  0  0  0
   40.9870   33.3250   38.9920 H   0  0  0  0  0  0  0  0  0  0  0  0
   39.2670   32.7150   38.5690 H   0  0  0  0  0  0  0  0  0  0  0  0
   38.2780   34.2720   40.2370 H   0  0  0  0  0  0  0  0  0  0  0  0
   39.9610   34.9840   40.6250 H   0  0  0  0  0  0  0  0  0  0  0  0
   38.1210   28.6870   42.9450 O   0  0  0  0  0  0  0  0  0  0  0  0
   37.0890   27.8220   43.3820 C   0  0  0  0  0  2  0  0  0  0  0  0
   37.0850   26.5240   42.5970 C   0  0  0  0  0  2  0  0  0  0  0  0
   38.1370   26.2140   42.3420 H   0  0  0  0  0  0  0  0  0  0  0  0
  1 17  1  0  0  0  0
  2  1  1  0  0  0  0
  2  7  1  0  0  0  0
  3  2  2  0  0  0  0
  4  5  2  0  0  0  0
  4  3  1  0  0  0  0
  5  6  1  0  0  0  0
  6  1  2  0  0  0  0
  8  5  1  0  0  0  0
  9  3  1  0  0  0  0
  9 12  1  0  0  0  0
 10 11  1  0  0  0  0
 10  9  1  0  0  0  0
 11 16  1  0  0  0  0
 11  9  1  0  0  0  0
 13 10  1  0  0  0  0
 14 10  1  0  0  0  0
 15 11  1  0  0  0  0
 17 18  1  0  0  0  0
 19 18  1  0  0  0  0
 20 19  1  0  0  0  0
M  END
>  <minimizedAffinity>
-3.4941752

$$$$
