
 OpenBabel03252506213D

 29 30  0  0  0  0  0  0  0  0999 V2000
   45.0750   36.2520   43.1120 C   0  0  0  0  0  0  0  0  0  0  0  0
   44.0250   36.2170   42.1880 C   0  0  0  0  0  0  0  0  0  0  0  0
   44.1000   35.2690   41.1680 C   0  0  0  0  0  0  0  0  0  0  0  0
   45.1670   34.4330   41.1140 N   0  0  0  0  0  0  0  0  0  0  0  0
   46.1610   34.4970   42.0250 C   0  0  0  0  0  0  0  0  0  0  0  0
   46.1150   35.4070   43.0250 N   0  0  0  0  0  0  0  0  0  0  0  0
   43.2130   36.9240   42.3090 H   0  0  0  0  0  0  0  0  0  0  0  0
   43.2860   35.2380   40.4490 H   0  0  0  0  0  0  0  0  0  0  0  0
   48.7600   35.7290   41.0820 Cl  0  0  0  0  0  0  0  0  0  0  0  0
   48.5030   34.0580   41.4600 C   0  0  0  0  0  0  0  0  0  0  0  0
   47.2840   33.5550   41.8900 C   0  0  0  0  0  0  0  0  0  0  0  0
   47.0580   32.2400   42.1950 C   0  0  0  0  0  0  0  0  0  0  0  0
   48.1140   31.3830   42.0620 C   0  0  0  0  0  0  0  0  0  0  0  0
   49.3650   31.7540   41.6470 C   0  0  0  0  0  0  0  0  0  0  0  0
   49.5090   33.1100   41.3570 C   0  0  0  0  0  0  0  0  0  0  0  0
   46.0940   31.8770   42.5280 H   0  0  0  0  0  0  0  0  0  0  0  0
   47.9820   30.3260   42.2900 H   0  0  0  0  0  0  0  0  0  0  0  0
   50.2300   31.1130   41.5250 H   0  0  0  0  0  0  0  0  0  0  0  0
   50.4770   33.4860   41.0210 H   0  0  0  0  0  0  0  0  0  0  0  0
   45.0270   37.2400   44.2000 C   0  0  0  0  0  0  0  0  0  0  0  0
   45.4010   38.4630   43.9440 C   0  0  0  0  0  0  0  0  0  0  0  0
   45.3770   39.5080   45.0030 C   0  0  0  0  0  0  0  0  0  0  0  0
   44.9480   39.1000   45.9260 H   0  0  0  0  0  0  0  0  0  0  0  0
   46.4490   39.8030   45.1520 H   0  0  0  0  0  0  0  0  0  0  0  0
   44.5780   40.6120   44.5400 N   0  0  0  0  0  0  0  0  0  0  0  0
   43.7740   40.3450   43.9370 H   0  0  0  0  0  0  0  0  0  0  0  0
   44.2750   41.5870   45.5450 C   0  0  0  0  0  0  0  0  0  0  0  0
   43.9940   42.9510   45.0070 C   0  0  0  0  0  0  0  0  0  0  0  0
   42.9120   43.1980   45.2330 H   0  0  0  0  0  0  0  0  0  0  0  0
  1 20  1  0  0  0  0
  2  7  1  0  0  0  0
  2  1  2  0  0  0  0
  3  2  1  0  0  0  0
  4  3  2  0  0  0  0
  4  5  1  0  0  0  0
  5  6  2  0  0  0  0
  6  1  1  0  0  0  0
  8  3  1  0  0  0  0
  9 10  1  0  0  0  0
 10 11  1  0  0  0  0
 11  5  1  0  0  0  0
 11 12  2  0  0  0  0
 12 16  1  0  0  0  0
 13 12  1  0  0  0  0
 13 17  1  0  0  0  0
 14 13  2  0  0  0  0
 15 10  2  0  0  0  0
 15 14  1  0  0  0  0
 18 14  1  0  0  0  0
 19 15  1  0  0  0  0
 21 20  2  0  0  0  0
 21 22  1  0  0  0  0
 22 24  1  0  0  0  0
 22 23  1  0  0  0  0
 25 22  1  0  0  0  0
 25 27  1  0  0  0  0
 26 25  1  0  0  0  0
 28 29  1  0  0  0  0
 28 27  1  0  0  0  0
M  END
>  <minimizedAffinity>
-4.4238162

>  <minimizedRMSD>
0.928629577

$$$$
