
 OpenBabel03252509313D

 21 21  0  0  0  0  0  0  0  0999 V2000
   46.9920   33.0390   43.1110 C   0  0  0  0  0  0  0  0  0  0  0  0
   46.9040   33.2160   42.0330 H   0  0  0  0  0  0  0  0  0  0  0  0
   46.6200   31.9910   43.2830 H   0  0  0  0  0  0  0  0  0  0  0  0
   45.0040   34.4110   45.9560 C   0  0  0  0  0  0  0  0  0  0  0  0
   45.8350   33.5590   45.2050 C   0  0  0  0  0  0  0  0  0  0  0  0
   46.1280   33.9140   43.9080 C   0  0  0  0  0  0  0  0  0  0  0  0
   45.6040   35.0720   43.4070 N   0  0  0  0  0  0  0  0  0  0  0  0
   44.7990   35.8830   44.1520 C   0  0  0  0  0  0  0  0  0  0  0  0
   44.5170   35.5370   45.4070 N   0  0  0  0  0  0  0  0  0  0  0  0
   44.8100   34.0780   46.9680 H   0  0  0  0  0  0  0  0  0  0  0  0
   46.2480   32.6420   45.6100 H   0  0  0  0  0  0  0  0  0  0  0  0
   44.4120   36.7940   43.6940 H   0  0  0  0  0  0  0  0  0  0  0  0
   48.3020   33.0330   43.5900 O   0  0  0  0  0  0  0  0  0  0  0  0
   49.9840   32.4660   41.6780 O   0  0  0  0  0  0  0  0  0  0  0  0
   49.2850   33.6280   42.3490 P   0  0  2  0  0  0  0  0  0  0  0  0
   50.3520   34.7170   43.0450 O   0  0  0  0  0  0  0  0  0  0  0  0
   51.2890   34.4220   43.0760 H   0  0  0  0  0  0  0  0  0  0  0  0
   48.2980   34.3620   41.2070 O   0  0  0  0  0  0  0  0  0  0  0  0
   48.9230   35.5050   40.6890 C   0  0  0  0  0  2  0  0  0  0  0  0
   49.1600   36.5410   41.7480 C   0  0  0  0  0  2  0  0  0  0  0  0
   49.4250   36.0330   42.7200 H   0  0  0  0  0  0  0  0  0  0  0  0
  1  3  1  0  0  0  0
  1 13  1  0  0  0  0
  1  6  1  0  0  0  0
  2  1  1  0  0  0  0
  4 10  1  0  0  0  0
  5 11  1  0  0  0  0
  5  4  2  0  0  0  0
  6  5  1  0  0  0  0
  7  6  2  0  0  0  0
  7  8  1  0  0  0  0
  8  9  2  0  0  0  0
  9  4  1  0  0  0  0
 12  8  1  0  0  0  0
 15 14  2  6  0  0  0
 15 16  1  0  0  0  0
 15 13  1  0  0  0  0
 16 17  1  0  0  0  0
 18 15  1  0  0  0  0
 19 18  1  0  0  0  0
 19 20  1  0  0  0  0
 20 21  1  0  0  0  0
M  END
>  <minimizedAffinity>
-3.95241213

>  <minimizedRMSD>
0.69575876

$$$$
