
 OpenBabel03242521573D

 42 45  0  0  0  0  0  0  0  0999 V2000
   36.5350   26.9660   39.7950 C   0  0  0  0  0  0  0  0  0  0  0  0
   36.5600   25.5730   39.7860 C   0  0  0  0  0  0  0  0  0  0  0  0
   36.8710   24.8060   40.9150 C   0  0  0  0  0  0  0  0  0  0  0  0
   37.1690   25.4130   42.1030 C   0  0  0  0  0  0  0  0  0  0  0  0
   37.1600   26.8220   42.1440 C   0  0  0  0  0  0  0  0  0  0  0  0
   37.5110   27.3890   43.3270 C   0  0  0  0  0  0  0  0  0  0  0  0
   37.5780   28.7840   43.3740 C   0  0  0  0  0  0  0  0  0  0  0  0
   37.2850   29.5300   42.1830 C   0  0  0  0  0  0  0  0  0  0  0  0
   36.9460   28.8050   41.0630 C   0  0  0  0  0  0  0  0  0  0  0  0
   36.8440   27.4900   40.9580 C   0  0  0  0  0  0  0  0  0  0  0  0
   36.3210   25.0730   38.8330 H   0  0  0  0  0  0  0  0  0  0  0  0
   36.8500   23.7300   40.7530 H   0  0  0  0  0  0  0  0  0  0  0  0
   37.3890   24.7710   42.9200 H   0  0  0  0  0  0  0  0  0  0  0  0
   37.7280   26.7740   44.1920 H   0  0  0  0  0  0  0  0  0  0  0  0
   37.8570   29.1550   44.3440 H   0  0  0  0  0  0  0  0  0  0  0  0
   37.4160   30.5490   42.5150 H   0  0  0  0  0  0  0  0  0  0  0  0
   38.5460   29.9120   39.7740 C   0  0  0  0  0  0  0  0  0  0  0  0
   37.1570   29.9420   40.1890 C   0  0  0  0  0  0  0  0  0  0  0  0
   36.5640   31.0540   39.7620 C   0  0  0  0  0  0  0  0  0  0  0  0
   37.1630   32.0580   39.0310 C   0  0  0  0  0  0  0  0  0  0  0  0
   38.4820   32.0070   38.6520 C   0  0  0  0  0  0  0  0  0  0  0  0
   39.1830   30.8960   39.0410 C   0  0  0  0  0  0  0  0  0  0  0  0
   35.5270   30.9880   40.1160 H   0  0  0  0  0  0  0  0  0  0  0  0
   36.4520   32.8600   38.8120 H   0  0  0  0  0  0  0  0  0  0  0  0
   38.7320   32.8860   38.0880 H   0  0  0  0  0  0  0  0  0  0  0  0
   39.4830   28.8780   40.0420 O   0  0  0  0  0  0  0  0  0  0  0  0
   39.5420   28.1240   39.3570 H   0  0  0  0  0  0  0  0  0  0  0  0
   40.4930   30.9070   38.6370 O   0  0  0  0  0  0  0  0  0  0  0  0
   40.9620   31.7350   37.6370 C   0  0  0  0  0  2  0  0  0  0  0  0
   42.1840   31.2330   36.9030 C   0  0  0  0  0  2  0  0  0  0  0  0
   41.8310   30.9080   35.8790 H   0  0  0  0  0  0  0  0  0  0  0  0
   34.5330   28.9820   37.3770 C   0  0  0  0  0  0  0  0  0  0  0  0
   35.4930   29.1570   36.3540 C   0  0  0  0  0  0  0  0  0  0  0  0
   36.7140   28.5590   36.5600 C   0  0  0  0  0  0  0  0  0  0  0  0
   36.8400   27.8910   37.7040 N   0  0  0  0  0  0  0  0  0  0  0  0
   35.9630   27.7080   38.6840 C   0  0  0  0  0  0  0  0  0  0  0  0
   34.8100   28.2740   38.4780 N   0  0  0  0  0  0  0  0  0  0  0  0
   33.5860   29.4620   37.1850 H   0  0  0  0  0  0  0  0  0  0  0  0
   35.2940   29.7210   35.4640 H   0  0  0  0  0  0  0  0  0  0  0  0
   37.7520   28.5940   35.5900 N   0  0  0  0  0  0  0  0  0  0  0  0
   38.5410   29.2450   35.5840 H   0  0  0  0  0  0  0  0  0  0  0  0
   37.7660   27.9150   34.7840 H   0  0  0  0  0  0  0  0  0  0  0  0
  1 10  1  0  0  0  0
  2  1  2  0  0  0  0
  2  3  1  0  0  0  0
  3  4  2  0  0  0  0
  4  5  1  0  0  0  0
  4 13  1  0  0  0  0
  5  6  1  0  0  0  0
  6  7  2  0  0  0  0
  6 14  1  0  0  0  0
  7 15  1  0  0  0  0
  8 16  1  0  0  0  0
  8  7  1  0  0  0  0
  9  8  2  0  0  0  0
 10  9  1  0  0  0  0
 10  5  2  0  0  0  0
 11  2  1  0  0  0  0
 12  3  1  0  0  0  0
 17 26  1  0  0  0  0
 17 18  1  0  0  0  0
 18  9  1  0  0  0  0
 19 23  1  0  0  0  0
 19 18  2  0  0  0  0
 20 19  1  0  0  0  0
 21 20  2  0  0  0  0
 21 22  1  0  0  0  0
 22 17  2  0  0  0  0
 24 20  1  0  0  0  0
 25 21  1  0  0  0  0
 27 26  1  0  0  0  0
 28 22  1  0  0  0  0
 29 28  1  0  0  0  0
 30 29  1  0  0  0  0
 31 30  1  0  0  0  0
 32 37  1  0  0  0  0
 33 34  1  0  0  0  0
 33 32  2  0  0  0  0
 34 35  2  0  0  0  0
 35 36  1  0  0  0  0
 36  1  1  0  0  0  0
 37 36  2  0  0  0  0
 38 32  1  0  0  0  0
 39 33  1  0  0  0  0
 40 34  1  0  0  0  0
 41 40  1  0  0  0  0
 42 40  1  0  0  0  0
M  END
>  <minimizedAffinity>
-6.63021755

$$$$

 OpenBabel03242521573D

 42 45  0  0  0  0  0  0  0  0999 V2000
   37.7830   26.7930   40.6950 C   0  0  0  0  0  0  0  0  0  0  0  0
   36.9260   25.7020   40.5630 C   0  0  0  0  0  0  0  0  0  0  0  0
   36.9790   24.5820   41.4000 C   0  0  0  0  0  0  0  0  0  0  0  0
   37.8990   24.5150   42.4080 C   0  0  0  0  0  0  0  0  0  0  0  0
   38.7870   25.5980   42.5640 C   0  0  0  0  0  0  0  0  0  0  0  0
   39.7190   25.4720   43.5420 C   0  0  0  0  0  0  0  0  0  0  0  0
   40.6560   26.5020   43.6720 C   0  0  0  0  0  0  0  0  0  0  0  0
   40.5860   27.6160   42.7700 C   0  0  0  0  0  0  0  0  0  0  0  0
   39.5800   27.5930   41.8300 C   0  0  0  0  0  0  0  0  0  0  0  0
   38.6530   26.6640   41.6690 C   0  0  0  0  0  0  0  0  0  0  0  0
   36.1790   25.7470   39.7530 H   0  0  0  0  0  0  0  0  0  0  0  0
   36.2450   23.8110   41.1730 H   0  0  0  0  0  0  0  0  0  0  0  0
   37.8790   23.6380   43.0090 H   0  0  0  0  0  0  0  0  0  0  0  0
   39.7270   24.6040   44.1900 H   0  0  0  0  0  0  0  0  0  0  0  0
   41.3560   26.3310   44.4710 H   0  0  0  0  0  0  0  0  0  0  0  0
   41.4100   28.2290   43.1010 H   0  0  0  0  0  0  0  0  0  0  0  0
   39.7040   29.9040   41.5260 C   0  0  0  0  0  0  0  0  0  0  0  0
   40.2090   28.6340   41.0420 C   0  0  0  0  0  0  0  0  0  0  0  0
   40.9630   28.8100   39.9590 C   0  0  0  0  0  0  0  0  0  0  0  0
   41.2390   30.0200   39.3560 C   0  0  0  0  0  0  0  0  0  0  0  0
   40.7460   31.2090   39.8330 C   0  0  0  0  0  0  0  0  0  0  0  0
   39.9570   31.1360   40.9500 C   0  0  0  0  0  0  0  0  0  0  0  0
   41.3010   27.8060   39.6700 H   0  0  0  0  0  0  0  0  0  0  0  0
   41.8820   29.8820   38.4830 H   0  0  0  0  0  0  0  0  0  0  0  0
   41.0920   32.0180   39.2170 H   0  0  0  0  0  0  0  0  0  0  0  0
   38.8740   30.1040   42.6610 O   0  0  0  0  0  0  0  0  0  0  0  0
   39.3460   30.2580   43.5520 H   0  0  0  0  0  0  0  0  0  0  0  0
   39.4930   32.3550   41.3730 O   0  0  0  0  0  0  0  0  0  0  0  0
   39.4160   33.4560   40.5440 C   0  0  0  0  0  2  0  0  0  0  0  0
   38.0320   33.7800   40.0300 C   0  0  0  0  0  2  0  0  0  0  0  0
   37.6960   34.7080   40.5820 H   0  0  0  0  0  0  0  0  0  0  0  0
   37.3960   29.6330   38.3060 C   0  0  0  0  0  0  0  0  0  0  0  0
   36.6220   30.5120   39.0990 C   0  0  0  0  0  0  0  0  0  0  0  0
   36.3260   30.0810   40.3700 C   0  0  0  0  0  0  0  0  0  0  0  0
   36.8030   28.8820   40.6950 N   0  0  0  0  0  0  0  0  0  0  0  0
   37.5290   28.0320   39.9780 C   0  0  0  0  0  0  0  0  0  0  0  0
   37.8080   28.4510   38.7790 N   0  0  0  0  0  0  0  0  0  0  0  0
   37.6130   30.0000   37.3150 H   0  0  0  0  0  0  0  0  0  0  0  0
   36.2800   31.4630   38.7410 H   0  0  0  0  0  0  0  0  0  0  0  0
   35.6130   30.8850   41.3000 N   0  0  0  0  0  0  0  0  0  0  0  0
   34.6110   30.8250   41.4960 H   0  0  0  0  0  0  0  0  0  0  0  0
   36.1050   31.6250   41.8680 H   0  0  0  0  0  0  0  0  0  0  0  0
  1 10  1  0  0  0  0
  2  1  2  0  0  0  0
  2  3  1  0  0  0  0
  3  4  2  0  0  0  0
  4  5  1  0  0  0  0
  4 13  1  0  0  0  0
  5  6  1  0  0  0  0
  6  7  2  0  0  0  0
  6 14  1  0  0  0  0
  7 15  1  0  0  0  0
  8 16  1  0  0  0  0
  8  7  1  0  0  0  0
  9  8  2  0  0  0  0
 10  9  1  0  0  0  0
 10  5  2  0  0  0  0
 11  2  1  0  0  0  0
 12  3  1  0  0  0  0
 17 26  1  0  0  0  0
 18 17  1  0  0  0  0
 18  9  1  0  0  0  0
 19 18  2  0  0  0  0
 20 21  2  0  0  0  0
 20 19  1  0  0  0  0
 21 22  1  0  0  0  0
 22 28  1  0  0  0  0
 22 17  2  0  0  0  0
 23 19  1  0  0  0  0
 24 20  1  0  0  0  0
 25 21  1  0  0  0  0
 26 27  1  0  0  0  0
 29 28  1  0  0  0  0
 30 29  1  0  0  0  0
 30 31  1  0  0  0  0
 32 37  2  0  0  0  0
 32 33  1  0  0  0  0
 33 34  2  0  0  0  0
 34 35  1  0  0  0  0
 34 40  1  0  0  0  0
 36 35  2  0  0  0  0
 36  1  1  0  0  0  0
 37 36  1  0  0  0  0
 38 32  1  0  0  0  0
 39 33  1  0  0  0  0
 40 41  1  0  0  0  0
 40 42  1  0  0  0  0
M  END
>  <minimizedAffinity>
-6.52889967

$$$$

 OpenBabel03242521573D

 42 45  0  0  0  0  0  0  0  0999 V2000
   37.9820   31.5160   40.5640 C   0  0  0  0  0  0  0  0  0  0  0  0
   37.8660   32.7920   40.0150 C   0  0  0  0  0  0  0  0  0  0  0  0
   38.9040   33.7310   40.0360 C   0  0  0  0  0  0  0  0  0  0  0  0
   40.1050   33.4220   40.6120 C   0  0  0  0  0  0  0  0  0  0  0  0
   40.2510   32.1420   41.1830 C   0  0  0  0  0  0  0  0  0  0  0  0
   41.4390   31.8910   41.7910 C   0  0  0  0  0  0  0  0  0  0  0  0
   41.5850   30.6540   42.4270 C   0  0  0  0  0  0  0  0  0  0  0  0
   40.4830   29.7350   42.4100 C   0  0  0  0  0  0  0  0  0  0  0  0
   39.3450   30.1410   41.7510 C   0  0  0  0  0  0  0  0  0  0  0  0
   39.1500   31.2840   41.1140 C   0  0  0  0  0  0  0  0  0  0  0  0
   36.9020   33.0510   39.5470 H   0  0  0  0  0  0  0  0  0  0  0  0
   38.6630   34.6840   39.5680 H   0  0  0  0  0  0  0  0  0  0  0  0
   40.8490   34.1790   40.5870 H   0  0  0  0  0  0  0  0  0  0  0  0
   42.2350   32.6260   41.7770 H   0  0  0  0  0  0  0  0  0  0  0  0
   42.5540   30.5300   42.8780 H   0  0  0  0  0  0  0  0  0  0  0  0
   40.8790   28.8960   42.9630 H   0  0  0  0  0  0  0  0  0  0  0  0
   38.5860   27.9490   41.4930 C   0  0  0  0  0  0  0  0  0  0  0  0
   38.5440   29.1040   42.3690 C   0  0  0  0  0  0  0  0  0  0  0  0
   37.6880   28.9020   43.3690 C   0  0  0  0  0  0  0  0  0  0  0  0
   36.9310   27.7670   43.5670 C   0  0  0  0  0  0  0  0  0  0  0  0
   36.9870   26.6880   42.7200 C   0  0  0  0  0  0  0  0  0  0  0  0
   37.8430   26.7950   41.6560 C   0  0  0  0  0  0  0  0  0  0  0  0
   37.7260   29.8170   43.9760 H   0  0  0  0  0  0  0  0  0  0  0  0
   36.3110   27.8630   44.4620 H   0  0  0  0  0  0  0  0  0  0  0  0
   36.3230   25.9190   43.0680 H   0  0  0  0  0  0  0  0  0  0  0  0
   39.3870   27.8040   40.3290 O   0  0  0  0  0  0  0  0  0  0  0  0
   40.3150   27.4010   40.4590 H   0  0  0  0  0  0  0  0  0  0  0  0
   37.8500   25.6870   40.8460 O   0  0  0  0  0  0  0  0  0  0  0  0
   36.7430   25.2750   40.1320 C   0  0  0  0  0  2  0  0  0  0  0  0
   36.2810   23.8640   40.4160 C   0  0  0  0  0  2  0  0  0  0  0  0
   35.3270   23.9550   41.0170 H   0  0  0  0  0  0  0  0  0  0  0  0
   35.0630   29.1990   40.3970 C   0  0  0  0  0  0  0  0  0  0  0  0
   35.3660   28.5130   39.1980 C   0  0  0  0  0  0  0  0  0  0  0  0
   36.5360   28.8740   38.5720 C   0  0  0  0  0  0  0  0  0  0  0  0
   37.2370   29.8310   39.1750 N   0  0  0  0  0  0  0  0  0  0  0  0
   36.9820   30.4960   40.2960 C   0  0  0  0  0  0  0  0  0  0  0  0
   35.8760   30.1440   40.8820 N   0  0  0  0  0  0  0  0  0  0  0  0
   34.1400   28.8920   40.8640 H   0  0  0  0  0  0  0  0  0  0  0  0
   34.7290   27.7540   38.7890 H   0  0  0  0  0  0  0  0  0  0  0  0
   37.0020   28.2260   37.3960 N   0  0  0  0  0  0  0  0  0  0  0  0
   36.8750   28.5630   36.4390 H   0  0  0  0  0  0  0  0  0  0  0  0
   37.5310   27.3160   37.4510 H   0  0  0  0  0  0  0  0  0  0  0  0
  1 10  1  0  0  0  0
  2  3  1  0  0  0  0
  2  1  2  0  0  0  0
  3  4  2  0  0  0  0
  4  5  1  0  0  0  0
  5  6  1  0  0  0  0
  6  7  2  0  0  0  0
  7 15  1  0  0  0  0
  8  7  1  0  0  0  0
  8 16  1  0  0  0  0
  9 18  1  0  0  0  0
  9  8  2  0  0  0  0
 10  5  2  0  0  0  0
 10  9  1  0  0  0  0
 11  2  1  0  0  0  0
 12  3  1  0  0  0  0
 13  4  1  0  0  0  0
 14  6  1  0  0  0  0
 17 22  2  0  0  0  0
 17 18  1  0  0  0  0
 18 19  2  0  0  0  0
 19 20  1  0  0  0  0
 19 23  1  0  0  0  0
 20 24  1  0  0  0  0
 21 25  1  0  0  0  0
 21 20  2  0  0  0  0
 22 21  1  0  0  0  0
 26 27  1  0  0  0  0
 26 17  1  0  0  0  0
 28 22  1  0  0  0  0
 29 30  1  0  0  0  0
 29 28  1  0  0  0  0
 30 31  1  0  0  0  0
 32 38  1  0  0  0  0
 32 37  1  0  0  0  0
 33 32  2  0  0  0  0
 34 35  2  0  0  0  0
 34 33  1  0  0  0  0
 35 36  1  0  0  0  0
 36  1  1  0  0  0  0
 36 37  2  0  0  0  0
 39 33  1  0  0  0  0
 40 42  1  0  0  0  0
 40 34  1  0  0  0  0
 41 40  1  0  0  0  0
M  END
>  <minimizedAffinity>
-6.37522078

$$$$

 OpenBabel03242521573D

 42 45  0  0  0  0  0  0  0  0999 V2000
   36.6550   26.9690   39.7340 C   0  0  0  0  0  0  0  0  0  0  0  0
   36.6360   25.5760   39.7410 C   0  0  0  0  0  0  0  0  0  0  0  0
   36.8310   24.8130   40.8980 C   0  0  0  0  0  0  0  0  0  0  0  0
   37.0540   25.4250   42.1000 C   0  0  0  0  0  0  0  0  0  0  0  0
   37.0880   26.8340   42.1260 C   0  0  0  0  0  0  0  0  0  0  0  0
   37.3630   27.4030   43.3280 C   0  0  0  0  0  0  0  0  0  0  0  0
   37.4720   28.7960   43.3660 C   0  0  0  0  0  0  0  0  0  0  0  0
   37.2980   29.5370   42.1490 C   0  0  0  0  0  0  0  0  0  0  0  0
   37.0250   28.8090   41.0130 C   0  0  0  0  0  0  0  0  0  0  0  0
   36.8890   27.4970   40.9120 C   0  0  0  0  0  0  0  0  0  0  0  0
   36.4560   25.0720   38.7760 H   0  0  0  0  0  0  0  0  0  0  0  0
   36.7880   23.7360   40.7450 H   0  0  0  0  0  0  0  0  0  0  0  0
   37.1880   24.7860   42.9380 H   0  0  0  0  0  0  0  0  0  0  0  0
   37.4910   26.7930   44.2130 H   0  0  0  0  0  0  0  0  0  0  0  0
   37.6850   29.1700   44.3520 H   0  0  0  0  0  0  0  0  0  0  0  0
   37.4360   30.5550   42.4810 H   0  0  0  0  0  0  0  0  0  0  0  0
   38.7680   29.8820   39.8910 C   0  0  0  0  0  0  0  0  0  0  0  0
   37.3420   29.9280   40.1470 C   0  0  0  0  0  0  0  0  0  0  0  0
   36.8090   31.0360   39.6370 C   0  0  0  0  0  0  0  0  0  0  0  0
   37.4940   32.0220   38.9590 C   0  0  0  0  0  0  0  0  0  0  0  0
   38.8460   31.9560   38.7320 C   0  0  0  0  0  0  0  0  0  0  0  0
   39.4900   30.8490   39.2160 C   0  0  0  0  0  0  0  0  0  0  0  0
   35.7380   30.9820   39.8730 H   0  0  0  0  0  0  0  0  0  0  0  0
   36.8180   32.8230   38.6480 H   0  0  0  0  0  0  0  0  0  0  0  0
   39.1650   32.8220   38.1830 H   0  0  0  0  0  0  0  0  0  0  0  0
   39.6610   28.8480   40.2810 O   0  0  0  0  0  0  0  0  0  0  0  0
   39.7910   28.0810   39.6210 H   0  0  0  0  0  0  0  0  0  0  0  0
   40.8380   30.8440   38.9610 O   0  0  0  0  0  0  0  0  0  0  0  0
   41.3590   30.7040   37.6910 C   0  0  0  0  0  2  0  0  0  0  0  0
   41.3260   29.3000   37.1320 C   0  0  0  0  0  2  0  0  0  0  0  0
   40.5210   29.2920   36.3380 H   0  0  0  0  0  0  0  0  0  0  0  0
   36.1040   28.7220   36.4870 C   0  0  0  0  0  0  0  0  0  0  0  0
   34.7290   29.0260   36.6060 C   0  0  0  0  0  0  0  0  0  0  0  0
   34.1210   28.6380   37.7780 C   0  0  0  0  0  0  0  0  0  0  0  0
   34.9080   28.0180   38.6540 N   0  0  0  0  0  0  0  0  0  0  0  0
   36.1980   27.7150   38.5740 C   0  0  0  0  0  0  0  0  0  0  0  0
   36.7650   28.0900   37.4650 N   0  0  0  0  0  0  0  0  0  0  0  0
   36.5510   29.0390   35.5580 H   0  0  0  0  0  0  0  0  0  0  0  0
   34.1780   29.5290   35.8360 H   0  0  0  0  0  0  0  0  0  0  0  0
   32.7610   28.9350   38.0650 N   0  0  0  0  0  0  0  0  0  0  0  0
   31.9710   28.2990   37.9330 H   0  0  0  0  0  0  0  0  0  0  0  0
   32.4800   29.8750   38.4490 H   0  0  0  0  0  0  0  0  0  0  0  0
  1  2  2  0  0  0  0
  1 10  1  0  0  0  0
  2  3  1  0  0  0  0
  3  4  2  0  0  0  0
  4  5  1  0  0  0  0
  4 13  1  0  0  0  0
  5  6  1  0  0  0  0
  6  7  2  0  0  0  0
  6 14  1  0  0  0  0
  7 15  1  0  0  0  0
  8 16  1  0  0  0  0
  8  7  1  0  0  0  0
  9  8  2  0  0  0  0
 10  9  1  0  0  0  0
 10  5  2  0  0  0  0
 11  2  1  0  0  0  0
 12  3  1  0  0  0  0
 17 18  1  0  0  0  0
 17 26  1  0  0  0  0
 18  9  1  0  0  0  0
 19 23  1  0  0  0  0
 19 18  2  0  0  0  0
 20 19  1  0  0  0  0
 21 20  2  0  0  0  0
 21 22  1  0  0  0  0
 22 17  2  0  0  0  0
 24 20  1  0  0  0  0
 25 21  1  0  0  0  0
 27 26  1  0  0  0  0
 28 22  1  0  0  0  0
 29 28  1  0  0  0  0
 30 29  1  0  0  0  0
 31 30  1  0  0  0  0
 32 33  2  0  0  0  0
 32 37  1  0  0  0  0
 33 34  1  0  0  0  0
 34 40  1  0  0  0  0
 34 35  2  0  0  0  0
 36 35  1  0  0  0  0
 36  1  1  0  0  0  0
 37 36  2  0  0  0  0
 38 32  1  0  0  0  0
 39 33  1  0  0  0  0
 40 42  1  0  0  0  0
 41 40  1  0  0  0  0
M  END
>  <minimizedAffinity>
-6.29190588

$$$$

 OpenBabel03242521573D

 42 45  0  0  0  0  0  0  0  0999 V2000
   38.7920   28.2810   41.5360 C   0  0  0  0  0  0  0  0  0  0  0  0
   39.6300   28.4210   42.6400 C   0  0  0  0  0  0  0  0  0  0  0  0
   39.8850   27.3840   43.5440 C   0  0  0  0  0  0  0  0  0  0  0  0
   39.3050   26.1580   43.3710 C   0  0  0  0  0  0  0  0  0  0  0  0
   38.4450   25.9850   42.2680 C   0  0  0  0  0  0  0  0  0  0  0  0
   37.8480   24.7710   42.1590 C   0  0  0  0  0  0  0  0  0  0  0  0
   36.9370   24.5960   41.1140 C   0  0  0  0  0  0  0  0  0  0  0  0
   36.6790   25.6980   40.2310 C   0  0  0  0  0  0  0  0  0  0  0  0
   37.3660   26.8650   40.4770 C   0  0  0  0  0  0  0  0  0  0  0  0
   38.2540   27.0890   41.4320 C   0  0  0  0  0  0  0  0  0  0  0  0
   40.1030   29.4060   42.7890 H   0  0  0  0  0  0  0  0  0  0  0  0
   40.5600   27.6450   44.3570 H   0  0  0  0  0  0  0  0  0  0  0  0
   39.5470   25.4150   44.0910 H   0  0  0  0  0  0  0  0  0  0  0  0
   38.0770   23.9770   42.8600 H   0  0  0  0  0  0  0  0  0  0  0  0
   36.5120   23.6080   41.0930 H   0  0  0  0  0  0  0  0  0  0  0  0
   35.9560   25.2770   39.5480 H   0  0  0  0  0  0  0  0  0  0  0  0
   37.0220   27.5960   38.2870 C   0  0  0  0  0  0  0  0  0  0  0  0
   36.4780   27.6370   39.6310 C   0  0  0  0  0  0  0  0  0  0  0  0
   35.4400   28.4680   39.6920 C   0  0  0  0  0  0  0  0  0  0  0  0
   34.9330   29.2040   38.6410 C   0  0  0  0  0  0  0  0  0  0  0  0
   35.4680   29.1500   37.3780 C   0  0  0  0  0  0  0  0  0  0  0  0
   36.5430   28.3170   37.2090 C   0  0  0  0  0  0  0  0  0  0  0  0
   35.0950   28.4320   40.7330 H   0  0  0  0  0  0  0  0  0  0  0  0
   34.0790   29.8060   38.9630 H   0  0  0  0  0  0  0  0  0  0  0  0
   34.9150   29.7940   36.7210 H   0  0  0  0  0  0  0  0  0  0  0  0
   38.1250   26.8170   37.8480 O   0  0  0  0  0  0  0  0  0  0  0  0
   37.9160   25.8800   37.5030 H   0  0  0  0  0  0  0  0  0  0  0  0
   37.0340   28.3100   35.9280 O   0  0  0  0  0  0  0  0  0  0  0  0
   36.2190   28.2800   34.8140 C   0  0  0  0  0  2  0  0  0  0  0  0
   36.4580   29.3840   33.8100 C   0  0  0  0  0  2  0  0  0  0  0  0
   36.9670   28.9030   32.9220 H   0  0  0  0  0  0  0  0  0  0  0  0
   39.0780   30.4160   38.4900 C   0  0  0  0  0  0  0  0  0  0  0  0
   38.1720   31.4480   38.8310 C   0  0  0  0  0  0  0  0  0  0  0  0
   37.5700   31.3430   40.0630 C   0  0  0  0  0  0  0  0  0  0  0  0
   37.9150   30.2770   40.7810 N   0  0  0  0  0  0  0  0  0  0  0  0
   38.7580   29.2920   40.4930 C   0  0  0  0  0  0  0  0  0  0  0  0
   39.3250   29.4020   39.3270 N   0  0  0  0  0  0  0  0  0  0  0  0
   39.5340   30.5280   37.5180 H   0  0  0  0  0  0  0  0  0  0  0  0
   37.9570   32.2690   38.1760 H   0  0  0  0  0  0  0  0  0  0  0  0
   36.6890   32.3380   40.5670 N   0  0  0  0  0  0  0  0  0  0  0  0
   35.6670   32.3040   40.5290 H   0  0  0  0  0  0  0  0  0  0  0  0
   37.0610   33.2090   41.0300 H   0  0  0  0  0  0  0  0  0  0  0  0
  1  2  1  0  0  0  0
  2 11  1  0  0  0  0
  2  3  2  0  0  0  0
  3 12  1  0  0  0  0
  4  3  1  0  0  0  0
  4 13  1  0  0  0  0
  5  4  2  0  0  0  0
  6  5  1  0  0  0  0
  6 14  1  0  0  0  0
  7  6  2  0  0  0  0
  8  9  2  0  0  0  0
  8  7  1  0  0  0  0
  9 10  1  0  0  0  0
 10  1  2  0  0  0  0
 10  5  1  0  0  0  0
 15  7  1  0  0  0  0
 16  8  1  0  0  0  0
 17 18  1  0  0  0  0
 18 19  2  0  0  0  0
 18  9  1  0  0  0  0
 19 23  1  0  0  0  0
 20 24  1  0  0  0  0
 20 19  1  0  0  0  0
 21 20  2  0  0  0  0
 22 21  1  0  0  0  0
 22 17  2  0  0  0  0
 25 21  1  0  0  0  0
 26 17  1  0  0  0  0
 27 26  1  0  0  0  0
 28 22  1  0  0  0  0
 29 28  1  0  0  0  0
 30 29  1  0  0  0  0
 31 30  1  0  0  0  0
 32 33  2  0  0  0  0
 32 37  1  0  0  0  0
 33 34  1  0  0  0  0
 34 40  1  0  0  0  0
 34 35  2  0  0  0  0
 36 35  1  0  0  0  0
 36  1  1  0  0  0  0
 37 36  2  0  0  0  0
 38 32  1  0  0  0  0
 39 33  1  0  0  0  0
 40 42  1  0  0  0  0
 41 40  1  0  0  0  0
M  END
>  <minimizedAffinity>
-6.18789721

$$$$

 OpenBabel03242521573D

 42 45  0  0  0  0  0  0  0  0999 V2000
   40.2540   30.3390   40.9260 C   0  0  0  0  0  0  0  0  0  0  0  0
   40.8530   31.4710   40.3780 C   0  0  0  0  0  0  0  0  0  0  0  0
   42.1600   31.8680   40.6800 C   0  0  0  0  0  0  0  0  0  0  0  0
   42.9210   31.1380   41.5500 C   0  0  0  0  0  0  0  0  0  0  0  0
   42.3420   29.9910   42.1290 C   0  0  0  0  0  0  0  0  0  0  0  0
   43.1100   29.3210   43.0260 C   0  0  0  0  0  0  0  0  0  0  0  0
   42.5340   28.2210   43.6670 C   0  0  0  0  0  0  0  0  0  0  0  0
   41.1790   27.8690   43.3520 C   0  0  0  0  0  0  0  0  0  0  0  0
   40.5350   28.6510   42.4200 C   0  0  0  0  0  0  0  0  0  0  0  0
   41.0280   29.6890   41.7640 C   0  0  0  0  0  0  0  0  0  0  0  0
   40.2480   32.0670   39.6740 H   0  0  0  0  0  0  0  0  0  0  0  0
   42.4880   32.7740   40.1740 H   0  0  0  0  0  0  0  0  0  0  0  0
   43.9060   31.4940   41.7290 H   0  0  0  0  0  0  0  0  0  0  0  0
   44.1270   29.6370   43.2290 H   0  0  0  0  0  0  0  0  0  0  0  0
   43.2070   27.7420   44.3580 H   0  0  0  0  0  0  0  0  0  0  0  0
   41.0150   27.0090   43.9830 H   0  0  0  0  0  0  0  0  0  0  0  0
   39.0040   26.9380   42.0080 C   0  0  0  0  0  0  0  0  0  0  0  0
   39.2340   28.1340   42.7950 C   0  0  0  0  0  0  0  0  0  0  0  0
   38.1460   28.4530   43.4930 C   0  0  0  0  0  0  0  0  0  0  0  0
   36.9510   27.7640   43.4840 C   0  0  0  0  0  0  0  0  0  0  0  0
   36.7580   26.6350   42.7280 C   0  0  0  0  0  0  0  0  0  0  0  0
   37.8230   26.2200   41.9730 C   0  0  0  0  0  0  0  0  0  0  0  0
   38.4130   29.3580   44.0540 H   0  0  0  0  0  0  0  0  0  0  0  0
   36.2220   28.2400   44.1450 H   0  0  0  0  0  0  0  0  0  0  0  0
   35.7620   26.2630   42.8800 H   0  0  0  0  0  0  0  0  0  0  0  0
   39.9390   26.3010   41.1490 O   0  0  0  0  0  0  0  0  0  0  0  0
   40.5330   25.5860   41.5690 H   0  0  0  0  0  0  0  0  0  0  0  0
   37.5650   25.0910   41.2370 O   0  0  0  0  0  0  0  0  0  0  0  0
   36.6230   25.0530   40.2290 C   0  0  0  0  0  2  0  0  0  0  0  0
   36.0860   23.6790   39.9000 C   0  0  0  0  0  2  0  0  0  0  0  0
   35.0300   23.6440   40.3020 H   0  0  0  0  0  0  0  0  0  0  0  0
   37.4420   28.5290   39.2720 C   0  0  0  0  0  0  0  0  0  0  0  0
   36.3440   29.1900   39.8690 C   0  0  0  0  0  0  0  0  0  0  0  0
   36.6500   30.2000   40.7510 C   0  0  0  0  0  0  0  0  0  0  0  0
   37.9490   30.4260   40.9350 N   0  0  0  0  0  0  0  0  0  0  0  0
   39.0030   29.8260   40.3950 C   0  0  0  0  0  0  0  0  0  0  0  0
   38.7020   28.8750   39.5590 N   0  0  0  0  0  0  0  0  0  0  0  0
   37.1690   27.7440   38.5850 H   0  0  0  0  0  0  0  0  0  0  0  0
   35.3260   28.9290   39.6560 H   0  0  0  0  0  0  0  0  0  0  0  0
   35.6520   30.9940   41.3760 N   0  0  0  0  0  0  0  0  0  0  0  0
   35.2780   30.8520   42.3180 H   0  0  0  0  0  0  0  0  0  0  0  0
   35.2200   31.8160   40.8770 H   0  0  0  0  0  0  0  0  0  0  0  0
  1 10  1  0  0  0  0
  2  3  1  0  0  0  0
  2  1  2  0  0  0  0
  3  4  2  0  0  0  0
  4 13  1  0  0  0  0
  4  5  1  0  0  0  0
  5  6  1  0  0  0  0
  6 14  1  0  0  0  0
  6  7  2  0  0  0  0
  7 15  1  0  0  0  0
  8  7  1  0  0  0  0
  8 16  1  0  0  0  0
  9 18  1  0  0  0  0
  9  8  2  0  0  0  0
 10  5  2  0  0  0  0
 10  9  1  0  0  0  0
 11  2  1  0  0  0  0
 12  3  1  0  0  0  0
 17 18  1  0  0  0  0
 18 19  2  0  0  0  0
 19 23  1  0  0  0  0
 20 19  1  0  0  0  0
 20 24  1  0  0  0  0
 21 25  1  0  0  0  0
 21 20  2  0  0  0  0
 22 17  2  0  0  0  0
 22 21  1  0  0  0  0
 26 27  1  0  0  0  0
 26 17  1  0  0  0  0
 28 22  1  0  0  0  0
 29 28  1  0  0  0  0
 30 29  1  0  0  0  0
 30 31  1  0  0  0  0
 32 37  2  0  0  0  0
 32 33  1  0  0  0  0
 33 34  2  0  0  0  0
 34 35  1  0  0  0  0
 34 40  1  0  0  0  0
 36  1  1  0  0  0  0
 36 35  2  0  0  0  0
 37 36  1  0  0  0  0
 38 32  1  0  0  0  0
 39 33  1  0  0  0  0
 40 41  1  0  0  0  0
 42 40  1  0  0  0  0
M  END
>  <minimizedAffinity>
-6.13777828

$$$$

 OpenBabel03242521573D

 42 45  0  0  0  0  0  0  0  0999 V2000
   39.4200   30.3980   41.6070 C   0  0  0  0  0  0  0  0  0  0  0  0
   40.7710   30.4970   41.9330 C   0  0  0  0  0  0  0  0  0  0  0  0
   41.5340   31.6450   41.6900 C   0  0  0  0  0  0  0  0  0  0  0  0
   40.9660   32.7440   41.1090 C   0  0  0  0  0  0  0  0  0  0  0  0
   39.6020   32.6730   40.7600 C   0  0  0  0  0  0  0  0  0  0  0  0
   39.0860   33.7640   40.1380 C   0  0  0  0  0  0  0  0  0  0  0  0
   37.7540   33.6930   39.7190 C   0  0  0  0  0  0  0  0  0  0  0  0
   37.0190   32.4840   39.9570 C   0  0  0  0  0  0  0  0  0  0  0  0
   37.6870   31.4660   40.6000 C   0  0  0  0  0  0  0  0  0  0  0  0
   38.9350   31.4770   41.0390 C   0  0  0  0  0  0  0  0  0  0  0  0
   41.2400   29.6160   42.4030 H   0  0  0  0  0  0  0  0  0  0  0  0
   42.5760   31.5710   41.9990 H   0  0  0  0  0  0  0  0  0  0  0  0
   41.6020   33.5820   40.9590 H   0  0  0  0  0  0  0  0  0  0  0  0
   39.6910   34.6480   39.9790 H   0  0  0  0  0  0  0  0  0  0  0  0
   37.4190   34.5970   39.2410 H   0  0  0  0  0  0  0  0  0  0  0  0
   36.0530   32.7190   39.5360 H   0  0  0  0  0  0  0  0  0  0  0  0
   37.0330   30.0190   38.8900 C   0  0  0  0  0  0  0  0  0  0  0  0
   36.6890   30.4870   40.2180 C   0  0  0  0  0  0  0  0  0  0  0  0
   35.5150   29.9900   40.6020 C   0  0  0  0  0  0  0  0  0  0  0  0
   34.7140   29.1490   39.8580 C   0  0  0  0  0  0  0  0  0  0  0  0
   35.0620   28.7210   38.6010 C   0  0  0  0  0  0  0  0  0  0  0  0
   36.2580   29.1770   38.1140 C   0  0  0  0  0  0  0  0  0  0  0  0
   35.3420   30.3910   41.6090 H   0  0  0  0  0  0  0  0  0  0  0  0
   33.8040   28.8910   40.4070 H   0  0  0  0  0  0  0  0  0  0  0  0
   34.2990   28.0720   38.2140 H   0  0  0  0  0  0  0  0  0  0  0  0
   38.2120   30.3370   38.1630 O   0  0  0  0  0  0  0  0  0  0  0  0
   39.0130   29.7200   38.2960 H   0  0  0  0  0  0  0  0  0  0  0  0
   36.5460   28.7180   36.8530 O   0  0  0  0  0  0  0  0  0  0  0  0
   35.8060   27.7360   36.2270 C   0  0  0  0  0  2  0  0  0  0  0  0
   36.6150   26.6680   35.5260 C   0  0  0  0  0  2  0  0  0  0  0  0
   36.5240   25.7340   36.1570 H   0  0  0  0  0  0  0  0  0  0  0  0
   37.1090   28.0390   43.3440 C   0  0  0  0  0  0  0  0  0  0  0  0
   37.1810   26.9360   42.4620 C   0  0  0  0  0  0  0  0  0  0  0  0
   38.0190   27.0780   41.3810 C   0  0  0  0  0  0  0  0  0  0  0  0
   38.6570   28.2420   41.2990 N   0  0  0  0  0  0  0  0  0  0  0  0
   38.6120   29.2970   42.1050 C   0  0  0  0  0  0  0  0  0  0  0  0
   37.8200   29.1520   43.1260 N   0  0  0  0  0  0  0  0  0  0  0  0
   36.4440   27.8970   44.1810 H   0  0  0  0  0  0  0  0  0  0  0  0
   36.6190   26.0360   42.6140 H   0  0  0  0  0  0  0  0  0  0  0  0
   38.2420   26.0290   40.4480 N   0  0  0  0  0  0  0  0  0  0  0  0
   37.7760   25.9260   39.5430 H   0  0  0  0  0  0  0  0  0  0  0  0
   38.9360   25.2620   40.6490 H   0  0  0  0  0  0  0  0  0  0  0  0
  1  2  1  0  0  0  0
  1 36  1  0  0  0  0
  2 11  1  0  0  0  0
  3  2  2  0  0  0  0
  3 12  1  0  0  0  0
  4  3  1  0  0  0  0
  5 10  1  0  0  0  0
  5  4  2  0  0  0  0
  6  5  1  0  0  0  0
  7  8  1  0  0  0  0
  7  6  2  0  0  0  0
  8  9  2  0  0  0  0
  9 10  1  0  0  0  0
 10  1  2  0  0  0  0
 13  4  1  0  0  0  0
 14  6  1  0  0  0  0
 15  7  1  0  0  0  0
 16  8  1  0  0  0  0
 17 18  1  0  0  0  0
 18  9  1  0  0  0  0
 18 19  2  0  0  0  0
 19 23  1  0  0  0  0
 20 24  1  0  0  0  0
 20 19  1  0  0  0  0
 21 20  2  0  0  0  0
 22 21  1  0  0  0  0
 22 17  2  0  0  0  0
 25 21  1  0  0  0  0
 26 27  1  0  0  0  0
 26 17  1  0  0  0  0
 28 22  1  0  0  0  0
 29 28  1  0  0  0  0
 30 31  1  0  0  0  0
 30 29  1  0  0  0  0
 32 38  1  0  0  0  0
 33 39  1  0  0  0  0
 33 32  2  0  0  0  0
 34 33  1  0  0  0  0
 35 34  2  0  0  0  0
 35 36  1  0  0  0  0
 36 37  2  0  0  0  0
 37 32  1  0  0  0  0
 40 42  1  0  0  0  0
 40 34  1  0  0  0  0
 41 40  1  0  0  0  0
M  END
>  <minimizedAffinity>
-6.11760998

$$$$

 OpenBabel03242521573D

 42 45  0  0  0  0  0  0  0  0999 V2000
   37.6170   29.3190   37.8410 C   0  0  0  0  0  0  0  0  0  0  0  0
   37.7630   29.1220   36.4690 C   0  0  0  0  0  0  0  0  0  0  0  0
   36.6810   28.9050   35.6080 C   0  0  0  0  0  0  0  0  0  0  0  0
   35.4040   28.8790   36.0950 C   0  0  0  0  0  0  0  0  0  0  0  0
   35.2230   29.0680   37.4800 C   0  0  0  0  0  0  0  0  0  0  0  0
   33.9460   28.9840   37.9330 C   0  0  0  0  0  0  0  0  0  0  0  0
   33.7460   29.0980   39.3120 C   0  0  0  0  0  0  0  0  0  0  0  0
   34.8870   29.2850   40.1610 C   0  0  0  0  0  0  0  0  0  0  0  0
   36.1170   29.3480   39.5460 C   0  0  0  0  0  0  0  0  0  0  0  0
   36.3720   29.2690   38.2500 C   0  0  0  0  0  0  0  0  0  0  0  0
   38.7890   29.1410   36.0650 H   0  0  0  0  0  0  0  0  0  0  0  0
   36.9530   28.7660   34.5630 H   0  0  0  0  0  0  0  0  0  0  0  0
   34.6310   28.7160   35.3850 H   0  0  0  0  0  0  0  0  0  0  0  0
   33.1230   28.8350   37.2440 H   0  0  0  0  0  0  0  0  0  0  0  0
   32.7090   29.0260   39.5900 H   0  0  0  0  0  0  0  0  0  0  0  0
   34.4360   29.3350   41.1400 H   0  0  0  0  0  0  0  0  0  0  0  0
   36.9230   27.7070   40.9980 C   0  0  0  0  0  0  0  0  0  0  0  0
   36.8220   29.1390   40.7950 C   0  0  0  0  0  0  0  0  0  0  0  0
   37.2690   29.7970   41.8620 C   0  0  0  0  0  0  0  0  0  0  0  0
   37.7610   29.2230   43.0160 C   0  0  0  0  0  0  0  0  0  0  0  0
   37.8440   27.8640   43.1840 C   0  0  0  0  0  0  0  0  0  0  0  0
   37.4090   27.0940   42.1380 C   0  0  0  0  0  0  0  0  0  0  0  0
   37.1590   30.8620   41.6190 H   0  0  0  0  0  0  0  0  0  0  0  0
   38.0600   29.9900   43.7360 H   0  0  0  0  0  0  0  0  0  0  0  0
   38.2610   27.6420   44.1490 H   0  0  0  0  0  0  0  0  0  0  0  0
   36.5470   26.6970   40.0730 O   0  0  0  0  0  0  0  0  0  0  0  0
   37.2650   26.3840   39.4200 H   0  0  0  0  0  0  0  0  0  0  0  0
   37.5140   25.7460   42.3690 O   0  0  0  0  0  0  0  0  0  0  0  0
   38.7260   25.1030   42.5140 C   0  0  0  0  0  2  0  0  0  0  0  0
   39.6230   25.1350   41.2960 C   0  0  0  0  0  2  0  0  0  0  0  0
   40.4620   25.8540   41.5370 H   0  0  0  0  0  0  0  0  0  0  0  0
   40.6650   29.8600   39.9230 C   0  0  0  0  0  0  0  0  0  0  0  0
   40.7140   31.2740   39.9190 C   0  0  0  0  0  0  0  0  0  0  0  0
   39.7030   31.9130   39.2400 C   0  0  0  0  0  0  0  0  0  0  0  0
   38.8040   31.1170   38.6660 N   0  0  0  0  0  0  0  0  0  0  0  0
   38.7300   29.7910   38.6480 C   0  0  0  0  0  0  0  0  0  0  0  0
   39.6870   29.1960   39.2960 N   0  0  0  0  0  0  0  0  0  0  0  0
   41.4710   29.3890   40.4640 H   0  0  0  0  0  0  0  0  0  0  0  0
   41.4880   31.8270   40.4120 H   0  0  0  0  0  0  0  0  0  0  0  0
   39.5850   33.3290   39.2070 N   0  0  0  0  0  0  0  0  0  0  0  0
   39.9110   33.9370   38.4510 H   0  0  0  0  0  0  0  0  0  0  0  0
   39.1320   33.8550   40.0000 H   0  0  0  0  0  0  0  0  0  0  0  0
  1 10  1  0  0  0  0
  1 36  1  0  0  0  0
  2  1  2  0  0  0  0
  3  4  2  0  0  0  0
  3  2  1  0  0  0  0
  4  5  1  0  0  0  0
  5  6  2  0  0  0  0
  5 10  1  0  0  0  0
  6  7  1  0  0  0  0
  7 15  1  0  0  0  0
  7  8  2  0  0  0  0
  8 16  1  0  0  0  0
  9  8  1  0  0  0  0
  9 18  1  0  0  0  0
 10  9  2  0  0  0  0
 11  2  1  0  0  0  0
 12  3  1  0  0  0  0
 13  4  1  0  0  0  0
 14  6  1  0  0  0  0
 17 22  1  0  0  0  0
 18 17  2  0  0  0  0
 18 19  1  0  0  0  0
 19 20  2  0  0  0  0
 20 21  1  0  0  0  0
 20 24  1  0  0  0  0
 21 25  1  0  0  0  0
 22 28  1  0  0  0  0
 22 21  2  0  0  0  0
 23 19  1  0  0  0  0
 26 17  1  0  0  0  0
 27 26  1  0  0  0  0
 28 29  1  0  0  0  0
 30 31  1  0  0  0  0
 30 29  1  0  0  0  0
 32 38  1  0  0  0  0
 33 32  1  0  0  0  0
 33 39  1  0  0  0  0
 34 33  2  0  0  0  0
 35 34  1  0  0  0  0
 36 35  2  0  0  0  0
 36 37  1  0  0  0  0
 37 32  2  0  0  0  0
 40 34  1  0  0  0  0
 40 42  1  0  0  0  0
 41 40  1  0  0  0  0
M  END
>  <minimizedAffinity>
-6.05897188

$$$$

 OpenBabel03242521573D

 42 45  0  0  0  0  0  0  0  0999 V2000
   37.0370   26.0230   41.0120 C   0  0  0  0  0  0  0  0  0  0  0  0
   36.9890   24.7130   41.4840 C   0  0  0  0  0  0  0  0  0  0  0  0
   36.4990   23.6440   40.7250 C   0  0  0  0  0  0  0  0  0  0  0  0
   36.0380   23.8510   39.4550 C   0  0  0  0  0  0  0  0  0  0  0  0
   36.0660   25.1670   38.9500 C   0  0  0  0  0  0  0  0  0  0  0  0
   35.5520   25.3410   37.7060 C   0  0  0  0  0  0  0  0  0  0  0  0
   35.5040   26.6470   37.2100 C   0  0  0  0  0  0  0  0  0  0  0  0
   35.9840   27.7180   38.0360 C   0  0  0  0  0  0  0  0  0  0  0  0
   36.4740   27.3750   39.2760 C   0  0  0  0  0  0  0  0  0  0  0  0
   36.5680   26.1610   39.7950 C   0  0  0  0  0  0  0  0  0  0  0  0
   37.3590   24.5340   42.5080 H   0  0  0  0  0  0  0  0  0  0  0  0
   36.5250   22.6800   41.2300 H   0  0  0  0  0  0  0  0  0  0  0  0
   35.6870   22.9940   38.9340 H   0  0  0  0  0  0  0  0  0  0  0  0
   35.1980   24.4950   37.1300 H   0  0  0  0  0  0  0  0  0  0  0  0
   35.0890   26.7010   36.2180 H   0  0  0  0  0  0  0  0  0  0  0  0
   35.8230   28.5800   37.4070 H   0  0  0  0  0  0  0  0  0  0  0  0
   37.6970   29.3560   39.4480 C   0  0  0  0  0  0  0  0  0  0  0  0
   36.4160   28.7440   39.7460 C   0  0  0  0  0  0  0  0  0  0  0  0
   35.6590   29.5690   40.4670 C   0  0  0  0  0  0  0  0  0  0  0  0
   36.0190   30.8310   40.8900 C   0  0  0  0  0  0  0  0  0  0  0  0
   37.2390   31.3860   40.5970 C   0  0  0  0  0  0  0  0  0  0  0  0
   38.0940   30.6160   39.8540 C   0  0  0  0  0  0  0  0  0  0  0  0
   34.7190   29.0290   40.6380 H   0  0  0  0  0  0  0  0  0  0  0  0
   35.2130   31.2930   41.4670 H   0  0  0  0  0  0  0  0  0  0  0  0
   37.3000   32.3720   41.0180 H   0  0  0  0  0  0  0  0  0  0  0  0
   38.7530   28.7750   38.6960 O   0  0  0  0  0  0  0  0  0  0  0  0
   38.7440   28.9400   37.6890 H   0  0  0  0  0  0  0  0  0  0  0  0
   39.2970   31.2240   39.5990 O   0  0  0  0  0  0  0  0  0  0  0  0
   39.3960   32.5000   39.0800 C   0  0  0  0  0  2  0  0  0  0  0  0
   40.3030   33.4370   39.8440 C   0  0  0  0  0  2  0  0  0  0  0  0
   41.2310   33.5700   39.2110 H   0  0  0  0  0  0  0  0  0  0  0  0
   38.3720   28.7010   43.2400 C   0  0  0  0  0  0  0  0  0  0  0  0
   39.7260   28.7040   42.8320 C   0  0  0  0  0  0  0  0  0  0  0  0
   40.0580   27.8250   41.8270 C   0  0  0  0  0  0  0  0  0  0  0  0
   39.0590   27.0760   41.3670 N   0  0  0  0  0  0  0  0  0  0  0  0
   37.7810   27.0460   41.7280 C   0  0  0  0  0  0  0  0  0  0  0  0
   37.4760   27.8840   42.6750 N   0  0  0  0  0  0  0  0  0  0  0  0
   38.1440   29.4020   44.0280 H   0  0  0  0  0  0  0  0  0  0  0  0
   40.4610   29.3480   43.2710 H   0  0  0  0  0  0  0  0  0  0  0  0
   41.3640   27.7640   41.2710 N   0  0  0  0  0  0  0  0  0  0  0  0
   42.0920   27.0920   41.5290 H   0  0  0  0  0  0  0  0  0  0  0  0
   41.6680   28.4410   40.5230 H   0  0  0  0  0  0  0  0  0  0  0  0
  1  2  1  0  0  0  0
  1 36  1  0  0  0  0
  2 11  1  0  0  0  0
  3 12  1  0  0  0  0
  3  2  2  0  0  0  0
  4  3  1  0  0  0  0
  5  4  2  0  0  0  0
  5 10  1  0  0  0  0
  6  5  1  0  0  0  0
  7  6  2  0  0  0  0
  7  8  1  0  0  0  0
  8  9  2  0  0  0  0
  9 18  1  0  0  0  0
  9 10  1  0  0  0  0
 10  1  2  0  0  0  0
 13  4  1  0  0  0  0
 14  6  1  0  0  0  0
 15  7  1  0  0  0  0
 16  8  1  0  0  0  0
 17 18  2  0  0  0  0
 17 22  1  0  0  0  0
 18 19  1  0  0  0  0
 19 23  1  0  0  0  0
 19 20  2  0  0  0  0
 20 24  1  0  0  0  0
 21 20  1  0  0  0  0
 21 25  1  0  0  0  0
 22 21  2  0  0  0  0
 26 17  1  0  0  0  0
 27 26  1  0  0  0  0
 28 22  1  0  0  0  0
 29 28  1  0  0  0  0
 29 30  1  0  0  0  0
 31 30  1  0  0  0  0
 32 38  1  0  0  0  0
 33 32  1  0  0  0  0
 33 39  1  0  0  0  0
 34 33  2  0  0  0  0
 35 36  2  0  0  0  0
 35 34  1  0  0  0  0
 36 37  1  0  0  0  0
 37 32  2  0  0  0  0
 40 41  1  0  0  0  0
 40 34  1  0  0  0  0
 42 40  1  0  0  0  0
M  END
>  <minimizedAffinity>
-5.99194431

$$$$
