
 OpenBabel03252509313D

 21 21  0  0  0  0  0  0  0  0999 V2000
   47.0830   33.0590   43.1670 C   0  0  0  0  0  0  0  0  0  0  0  0
   46.8890   32.8400   42.1100 H   0  0  0  0  0  0  0  0  0  0  0  0
   46.8420   32.1120   43.7270 H   0  0  0  0  0  0  0  0  0  0  0  0
   44.8560   34.9430   45.4930 C   0  0  0  0  0  0  0  0  0  0  0  0
   45.7040   33.9420   44.9860 C   0  0  0  0  0  0  0  0  0  0  0  0
   46.1980   34.0920   43.7110 C   0  0  0  0  0  0  0  0  0  0  0  0
   45.8470   35.2010   42.9940 N   0  0  0  0  0  0  0  0  0  0  0  0
   45.0220   36.1600   43.5050 C   0  0  0  0  0  0  0  0  0  0  0  0
   44.5450   36.0120   44.7390 N   0  0  0  0  0  0  0  0  0  0  0  0
   44.4990   34.7680   46.5000 H   0  0  0  0  0  0  0  0  0  0  0  0
   45.9790   33.0640   45.5610 H   0  0  0  0  0  0  0  0  0  0  0  0
   44.7790   37.0220   42.8810 H   0  0  0  0  0  0  0  0  0  0  0  0
   48.4210   33.3160   43.4660 O   0  0  0  0  0  0  0  0  0  0  0  0
   49.3910   31.9090   41.4950 O   0  0  0  0  0  0  0  0  0  0  0  0
   49.2630   33.3290   42.0000 P   0  0  2  0  0  0  0  0  0  0  0  0
   50.7460   34.0540   42.2890 O   0  0  0  0  0  0  0  0  0  0  0  0
   51.5210   33.4510   42.2470 H   0  0  0  0  0  0  0  0  0  0  0  0
   48.3530   34.1910   40.8830 O   0  0  0  0  0  0  0  0  0  0  0  0
   48.9770   35.4120   40.5880 C   0  0  0  0  0  2  0  0  0  0  0  0
   49.0260   36.3180   41.7820 C   0  0  0  0  0  2  0  0  0  0  0  0
   49.1950   35.7060   42.7150 H   0  0  0  0  0  0  0  0  0  0  0  0
  1 13  1  0  0  0  0
  1  6  1  0  0  0  0
  1  3  1  0  0  0  0
  2  1  1  0  0  0  0
  4 10  1  0  0  0  0
  5  4  1  0  0  0  0
  5 11  1  0  0  0  0
  6  5  2  0  0  0  0
  7  8  2  0  0  0  0
  7  6  1  0  0  0  0
  8  9  1  0  0  0  0
  9  4  2  0  0  0  0
 12  8  1  0  0  0  0
 15 14  2  6  0  0  0
 15 16  1  0  0  0  0
 15 13  1  0  0  0  0
 17 16  1  0  0  0  0
 18 15  1  0  0  0  0
 19 18  1  0  0  0  0
 19 20  1  0  0  0  0
 20 21  1  0  0  0  0
M  END
>  <minimizedAffinity>
-3.75478101

>  <minimizedRMSD>
1.08615255

$$$$
