
 OpenBabel03252505503D

 16 16  0  0  0  0  0  0  0  0999 V2000
   37.8520   29.3520   42.1930 C   0  0  0  0  0  0  0  0  0  0  0  0
   36.8320   28.4330   42.0040 C   0  0  0  0  0  0  0  0  0  0  0  0
   35.8080   28.7870   41.1230 C   0  0  0  0  0  0  0  0  0  0  0  0
   35.8530   29.9840   40.5040 N   0  0  0  0  0  0  0  0  0  0  0  0
   36.8610   30.8500   40.7130 C   0  0  0  0  0  0  0  0  0  0  0  0
   37.8570   30.5500   41.5450 N   0  0  0  0  0  0  0  0  0  0  0  0
   38.6900   29.1520   42.8650 H   0  0  0  0  0  0  0  0  0  0  0  0
   35.0370   28.0610   40.9980 H   0  0  0  0  0  0  0  0  0  0  0  0
   36.9200   27.1570   42.7560 C   0  0  0  0  0  0  0  0  0  0  0  0
   35.9150   27.1780   43.6790 F   0  0  0  0  0  0  0  0  0  0  0  0
   38.1530   27.1100   43.3740 F   0  0  0  0  0  0  0  0  0  0  0  0
   36.8030   26.1200   41.8400 F   0  0  0  0  0  0  0  0  0  0  0  0
   36.8830   32.0770   40.0610 O   0  0  0  0  0  0  0  0  0  0  0  0
   38.0290   32.7000   39.5680 C   0  0  0  0  0  2  0  0  0  0  0  0
   38.3080   34.0590   40.1200 C   0  0  0  0  0  2  0  0  0  0  0  0
   37.9450   34.8440   39.4340 H   0  0  0  0  0  0  0  0  0  0  0  0
  1  7  1  0  0  0  0
  2  1  1  0  0  0  0
  2  9  1  0  0  0  0
  3  2  2  0  0  0  0
  4  5  2  0  0  0  0
  4  3  1  0  0  0  0
  5  6  1  0  0  0  0
  6  1  2  0  0  0  0
  8  3  1  0  0  0  0
  9 11  1  0  0  0  0
  9 10  1  0  0  0  0
 12  9  1  0  0  0  0
 13  5  1  0  0  0  0
 14 13  1  0  0  0  0
 14 15  1  0  0  0  0
 16 15  1  0  0  0  0
M  END
>  <minimizedAffinity>
-4.08893347

$$$$

 OpenBabel03252505503D

 16 16  0  0  0  0  0  0  0  0999 V2000
   38.6520   31.3060   40.9810 C   0  0  0  0  0  0  0  0  0  0  0  0
   37.5210   31.6500   40.2580 C   0  0  0  0  0  0  0  0  0  0  0  0
   36.3450   30.9540   40.5420 C   0  0  0  0  0  0  0  0  0  0  0  0
   36.3570   29.9950   41.4900 N   0  0  0  0  0  0  0  0  0  0  0  0
   37.4760   29.6890   42.1720 C   0  0  0  0  0  0  0  0  0  0  0  0
   38.6180   30.3300   41.9310 N   0  0  0  0  0  0  0  0  0  0  0  0
   39.6130   31.8020   40.8200 H   0  0  0  0  0  0  0  0  0  0  0  0
   35.4920   31.2390   39.9700 H   0  0  0  0  0  0  0  0  0  0  0  0
   37.6640   32.7260   39.2470 C   0  0  0  0  0  0  0  0  0  0  0  0
   38.9940   33.0310   39.1880 F   0  0  0  0  0  0  0  0  0  0  0  0
   36.9310   33.8150   39.6740 F   0  0  0  0  0  0  0  0  0  0  0  0
   37.1570   32.2470   38.0460 F   0  0  0  0  0  0  0  0  0  0  0  0
   37.4600   28.6960   43.1440 O   0  0  0  0  0  0  0  0  0  0  0  0
   36.6540   27.5590   43.1110 C   0  0  0  0  0  2  0  0  0  0  0  0
   37.2020   26.4080   42.3330 C   0  0  0  0  0  2  0  0  0  0  0  0
   36.7730   26.3810   41.3170 H   0  0  0  0  0  0  0  0  0  0  0  0
  1  6  1  0  0  0  0
  2  3  1  0  0  0  0
  2  1  2  0  0  0  0
  3  4  2  0  0  0  0
  4  5  1  0  0  0  0
  5 13  1  0  0  0  0
  6  5  2  0  0  0  0
  7  1  1  0  0  0  0
  8  3  1  0  0  0  0
  9 11  1  0  0  0  0
  9  2  1  0  0  0  0
 10  9  1  0  0  0  0
 12  9  1  0  0  0  0
 14 13  1  0  0  0  0
 15 14  1  0  0  0  0
 16 15  1  0  0  0  0
M  END
>  <minimizedAffinity>
-3.93083501

$$$$

 OpenBabel03252505503D

 16 16  0  0  0  0  0  0  0  0999 V2000
   36.8610   26.7090   40.6200 C   0  0  0  0  0  0  0  0  0  0  0  0
   37.2380   25.9730   41.7320 C   0  0  0  0  0  0  0  0  0  0  0  0
   37.5060   26.6800   42.9060 C   0  0  0  0  0  0  0  0  0  0  0  0
   37.3880   28.0230   42.9090 N   0  0  0  0  0  0  0  0  0  0  0  0
   37.0190   28.7040   41.8090 C   0  0  0  0  0  0  0  0  0  0  0  0
   36.7550   28.0670   40.6700 N   0  0  0  0  0  0  0  0  0  0  0  0
   36.6340   26.2330   39.6630 H   0  0  0  0  0  0  0  0  0  0  0  0
   37.7940   26.0880   43.7430 H   0  0  0  0  0  0  0  0  0  0  0  0
   37.3240   24.5010   41.5730 C   0  0  0  0  0  0  0  0  0  0  0  0
   36.0420   24.0460   41.4600 F   0  0  0  0  0  0  0  0  0  0  0  0
   37.9310   23.9830   42.6990 F   0  0  0  0  0  0  0  0  0  0  0  0
   38.0980   24.2430   40.4490 F   0  0  0  0  0  0  0  0  0  0  0  0
   36.9050   30.0880   41.8410 O   0  0  0  0  0  0  0  0  0  0  0  0
   36.2410   30.8570   40.8870 C   0  0  0  0  0  2  0  0  0  0  0  0
   37.0790   31.8800   40.1920 C   0  0  0  0  0  2  0  0  0  0  0  0
   36.9490   32.8740   40.6530 H   0  0  0  0  0  0  0  0  0  0  0  0
  1  6  2  0  0  0  0
  1  2  1  0  0  0  0
  2  3  2  0  0  0  0
  3  4  1  0  0  0  0
  3  8  1  0  0  0  0
  5 13  1  0  0  0  0
  5  4  2  0  0  0  0
  6  5  1  0  0  0  0
  7  1  1  0  0  0  0
  9  2  1  0  0  0  0
  9 11  1  0  0  0  0
 10  9  1  0  0  0  0
 12  9  1  0  0  0  0
 14 13  1  0  0  0  0
 15 16  1  0  0  0  0
 15 14  1  0  0  0  0
M  END
>  <minimizedAffinity>
-3.80228782

$$$$

 OpenBabel03252505503D

 16 16  0  0  0  0  0  0  0  0999 V2000
   37.5250   28.0380   42.6390 C   0  0  0  0  0  0  0  0  0  0  0  0
   37.1840   27.0460   41.7340 C   0  0  0  0  0  0  0  0  0  0  0  0
   36.5260   27.4430   40.5680 C   0  0  0  0  0  0  0  0  0  0  0  0
   36.2550   28.7490   40.3750 N   0  0  0  0  0  0  0  0  0  0  0  0
   36.6020   29.6850   41.2770 C   0  0  0  0  0  0  0  0  0  0  0  0
   37.2310   29.3470   42.4010 N   0  0  0  0  0  0  0  0  0  0  0  0
   38.0420   27.8130   43.5760 H   0  0  0  0  0  0  0  0  0  0  0  0
   36.2770   26.6580   39.8920 H   0  0  0  0  0  0  0  0  0  0  0  0
   37.5500   25.6530   42.0870 C   0  0  0  0  0  0  0  0  0  0  0  0
   37.9060   25.0360   40.9230 F   0  0  0  0  0  0  0  0  0  0  0  0
   36.4410   25.0470   42.6430 F   0  0  0  0  0  0  0  0  0  0  0  0
   38.5810   25.7090   43.0160 F   0  0  0  0  0  0  0  0  0  0  0  0
   36.3110   31.0250   41.0520 O   0  0  0  0  0  0  0  0  0  0  0  0
   37.1980   31.9550   40.5130 C   0  0  0  0  0  2  0  0  0  0  0  0
   37.1310   32.1200   39.0300 C   0  0  0  0  0  2  0  0  0  0  0  0
   37.9160   31.5250   38.5330 H   0  0  0  0  0  0  0  0  0  0  0  0
  1  7  1  0  0  0  0
  2  9  1  0  0  0  0
  2  1  2  0  0  0  0
  3  2  1  0  0  0  0
  4  3  2  0  0  0  0
  4  5  1  0  0  0  0
  5  6  2  0  0  0  0
  6  1  1  0  0  0  0
  8  3  1  0  0  0  0
  9 11  1  0  0  0  0
  9 12  1  0  0  0  0
 10  9  1  0  0  0  0
 13  5  1  0  0  0  0
 14 13  1  0  0  0  0
 15 14  1  0  0  0  0
 16 15  1  0  0  0  0
M  END
>  <minimizedAffinity>
-3.78264952

$$$$

 OpenBabel03252505503D

 16 16  0  0  0  0  0  0  0  0999 V2000
   35.8840   28.6200   41.4250 C   0  0  0  0  0  0  0  0  0  0  0  0
   37.0810   27.9900   41.7220 C   0  0  0  0  0  0  0  0  0  0  0  0
   38.1700   28.2580   40.8890 C   0  0  0  0  0  0  0  0  0  0  0  0
   38.0130   29.1030   39.8500 N   0  0  0  0  0  0  0  0  0  0  0  0
   36.8340   29.6980   39.5940 C   0  0  0  0  0  0  0  0  0  0  0  0
   35.7730   29.4680   40.3640 N   0  0  0  0  0  0  0  0  0  0  0  0
   34.9850   28.4650   42.0270 H   0  0  0  0  0  0  0  0  0  0  0  0
   39.0760   27.7590   41.1420 H   0  0  0  0  0  0  0  0  0  0  0  0
   37.0980   27.0860   42.8980 C   0  0  0  0  0  0  0  0  0  0  0  0
   35.9310   27.3040   43.5730 F   0  0  0  0  0  0  0  0  0  0  0  0
   38.1860   27.4190   43.6790 F   0  0  0  0  0  0  0  0  0  0  0  0
   37.2250   25.7850   42.4290 F   0  0  0  0  0  0  0  0  0  0  0  0
   36.7020   30.5650   38.5160 O   0  0  0  0  0  0  0  0  0  0  0  0
   37.2880   31.8270   38.4300 C   0  0  0  0  0  2  0  0  0  0  0  0
   37.3400   32.5980   39.7080 C   0  0  0  0  0  2  0  0  0  0  0  0
   36.5030   33.3160   39.7670 H   0  0  0  0  0  0  0  0  0  0  0  0
  1  2  1  0  0  0  0
  1  7  1  0  0  0  0
  2  9  1  0  0  0  0
  3  8  1  0  0  0  0
  3  2  2  0  0  0  0
  4  3  1  0  0  0  0
  5  4  2  0  0  0  0
  5  6  1  0  0  0  0
  6  1  2  0  0  0  0
  9 10  1  0  0  0  0
  9 11  1  0  0  0  0
 12  9  1  0  0  0  0
 13  5  1  0  0  0  0
 14 13  1  0  0  0  0
 14 15  1  0  0  0  0
 15 16  1  0  0  0  0
M  END
>  <minimizedAffinity>
-3.71692133

$$$$

 OpenBabel03252505503D

 16 16  0  0  0  0  0  0  0  0999 V2000
   37.9330   29.9580   39.3120 C   0  0  0  0  0  0  0  0  0  0  0  0
   37.3010   31.1480   39.6360 C   0  0  0  0  0  0  0  0  0  0  0  0
   36.3950   31.1230   40.6990 C   0  0  0  0  0  0  0  0  0  0  0  0
   36.1770   29.9640   41.3530 N   0  0  0  0  0  0  0  0  0  0  0  0
   36.8100   28.8280   41.0090 C   0  0  0  0  0  0  0  0  0  0  0  0
   37.6820   28.8110   40.0030 N   0  0  0  0  0  0  0  0  0  0  0  0
   38.6560   29.8920   38.4950 H   0  0  0  0  0  0  0  0  0  0  0  0
   35.9250   32.0520   40.9240 H   0  0  0  0  0  0  0  0  0  0  0  0
   37.6450   32.3410   38.8240 C   0  0  0  0  0  0  0  0  0  0  0  0
   38.9730   32.5830   39.0310 F   0  0  0  0  0  0  0  0  0  0  0  0
   36.8790   33.3980   39.2700 F   0  0  0  0  0  0  0  0  0  0  0  0
   37.3390   32.0520   37.5000 F   0  0  0  0  0  0  0  0  0  0  0  0
   36.5660   27.6480   41.7010 O   0  0  0  0  0  0  0  0  0  0  0  0
   36.6780   27.4940   43.0820 C   0  0  0  0  0  2  0  0  0  0  0  0
   38.0490   27.6910   43.6400 C   0  0  0  0  0  2  0  0  0  0  0  0
   38.5560   26.7220   43.7890 H   0  0  0  0  0  0  0  0  0  0  0  0
  1  2  2  0  0  0  0
  1  6  1  0  0  0  0
  2  3  1  0  0  0  0
  3  8  1  0  0  0  0
  3  4  2  0  0  0  0
  5  4  1  0  0  0  0
  5 13  1  0  0  0  0
  6  5  2  0  0  0  0
  7  1  1  0  0  0  0
  9 10  1  0  0  0  0
  9 11  1  0  0  0  0
  9  2  1  0  0  0  0
 12  9  1  0  0  0  0
 13 14  1  0  0  0  0
 14 15  1  0  0  0  0
 15 16  1  0  0  0  0
M  END
>  <minimizedAffinity>
-3.70867777

$$$$

 OpenBabel03252505503D

 16 16  0  0  0  0  0  0  0  0999 V2000
   38.7590   31.0210   41.1240 C   0  0  0  0  0  0  0  0  0  0  0  0
   37.7620   31.8500   40.6360 C   0  0  0  0  0  0  0  0  0  0  0  0
   36.4570   31.3550   40.6440 C   0  0  0  0  0  0  0  0  0  0  0  0
   36.2250   30.1140   41.1180 N   0  0  0  0  0  0  0  0  0  0  0  0
   37.2190   29.3380   41.5850 C   0  0  0  0  0  0  0  0  0  0  0  0
   38.4770   29.7740   41.5950 N   0  0  0  0  0  0  0  0  0  0  0  0
   39.8060   31.3330   41.1540 H   0  0  0  0  0  0  0  0  0  0  0  0
   35.7120   32.0140   40.2620 H   0  0  0  0  0  0  0  0  0  0  0  0
   38.1740   33.1890   40.1480 C   0  0  0  0  0  0  0  0  0  0  0  0
   37.0560   33.7750   39.6280 F   0  0  0  0  0  0  0  0  0  0  0  0
   39.1340   33.0140   39.1720 F   0  0  0  0  0  0  0  0  0  0  0  0
   38.7080   33.8850   41.2260 F   0  0  0  0  0  0  0  0  0  0  0  0
   36.9510   28.0630   42.0680 O   0  0  0  0  0  0  0  0  0  0  0  0
   37.4760   26.8830   41.5430 C   0  0  0  0  0  2  0  0  0  0  0  0
   37.1210   25.6370   42.2860 C   0  0  0  0  0  2  0  0  0  0  0  0
   37.9330   25.3450   42.9740 H   0  0  0  0  0  0  0  0  0  0  0  0
  1  7  1  0  0  0  0
  1  6  1  0  0  0  0
  2  3  1  0  0  0  0
  2  1  2  0  0  0  0
  3  4  2  0  0  0  0
  4  5  1  0  0  0  0
  5  6  2  0  0  0  0
  5 13  1  0  0  0  0
  8  3  1  0  0  0  0
  9  2  1  0  0  0  0
  9 12  1  0  0  0  0
 10  9  1  0  0  0  0
 11  9  1  0  0  0  0
 14 13  1  0  0  0  0
 14 15  1  0  0  0  0
 15 16  1  0  0  0  0
M  END
>  <minimizedAffinity>
-3.69172859

$$$$

 OpenBabel03252505503D

 16 16  0  0  0  0  0  0  0  0999 V2000
   36.8360   27.9160   40.5570 C   0  0  0  0  0  0  0  0  0  0  0  0
   37.0420   28.1310   41.9100 C   0  0  0  0  0  0  0  0  0  0  0  0
   37.2580   29.4470   42.3230 C   0  0  0  0  0  0  0  0  0  0  0  0
   37.2570   30.4350   41.4060 N   0  0  0  0  0  0  0  0  0  0  0  0
   37.0520   30.1880   40.1000 C   0  0  0  0  0  0  0  0  0  0  0  0
   36.8420   28.9470   39.6660 N   0  0  0  0  0  0  0  0  0  0  0  0
   36.6600   26.9170   40.1510 H   0  0  0  0  0  0  0  0  0  0  0  0
   37.4140   29.5810   43.3690 H   0  0  0  0  0  0  0  0  0  0  0  0
   37.0150   26.9420   42.7960 C   0  0  0  0  0  0  0  0  0  0  0  0
   38.2270   26.8940   43.4220 F   0  0  0  0  0  0  0  0  0  0  0  0
   36.8260   25.8240   42.0080 F   0  0  0  0  0  0  0  0  0  0  0  0
   35.9500   27.0940   43.6740 F   0  0  0  0  0  0  0  0  0  0  0  0
   37.0560   31.2270   39.1770 O   0  0  0  0  0  0  0  0  0  0  0  0
   37.1840   32.5780   39.4950 C   0  0  0  0  0  2  0  0  0  0  0  0
   38.5810   33.1070   39.4930 C   0  0  0  0  0  2  0  0  0  0  0  0
   38.9930   33.1300   40.5170 H   0  0  0  0  0  0  0  0  0  0  0  0
  1  2  1  0  0  0  0
  2  3  2  0  0  0  0
  2  9  1  0  0  0  0
  3  8  1  0  0  0  0
  4  3  1  0  0  0  0
  5  4  2  0  0  0  0
  6  5  1  0  0  0  0
  6  1  2  0  0  0  0
  7  1  1  0  0  0  0
  9 10  1  0  0  0  0
  9 12  1  0  0  0  0
 11  9  1  0  0  0  0
 13 14  1  0  0  0  0
 13  5  1  0  0  0  0
 15 14  1  0  0  0  0
 15 16  1  0  0  0  0
M  END
>  <minimizedAffinity>
-3.69170833

$$$$

 OpenBabel03252505503D

 16 16  0  0  0  0  0  0  0  0999 V2000
   36.5190   27.1490   40.1800 C   0  0  0  0  0  0  0  0  0  0  0  0
   36.2230   28.1910   41.0450 C   0  0  0  0  0  0  0  0  0  0  0  0
   36.5160   28.0020   42.3970 C   0  0  0  0  0  0  0  0  0  0  0  0
   37.0630   26.8360   42.7970 N   0  0  0  0  0  0  0  0  0  0  0  0
   37.3360   25.8480   41.9270 C   0  0  0  0  0  0  0  0  0  0  0  0
   37.0730   25.9890   40.6290 N   0  0  0  0  0  0  0  0  0  0  0  0
   36.3220   27.2170   39.1070 H   0  0  0  0  0  0  0  0  0  0  0  0
   36.2770   28.8190   43.0370 H   0  0  0  0  0  0  0  0  0  0  0  0
   35.6230   29.4120   40.4540 C   0  0  0  0  0  0  0  0  0  0  0  0
   34.2860   29.1660   40.3260 F   0  0  0  0  0  0  0  0  0  0  0  0
   36.2040   29.6220   39.2200 F   0  0  0  0  0  0  0  0  0  0  0  0
   35.9060   30.4740   41.3040 F   0  0  0  0  0  0  0  0  0  0  0  0
   37.9010   24.6560   42.3680 O   0  0  0  0  0  0  0  0  0  0  0  0
   39.2510   24.3260   42.2630 C   0  0  0  0  0  2  0  0  0  0  0  0
   40.1490   24.9760   43.2650 C   0  0  0  0  0  2  0  0  0  0  0  0
   40.6370   25.8670   42.8340 H   0  0  0  0  0  0  0  0  0  0  0  0
  1  6  2  0  0  0  0
  1  2  1  0  0  0  0
  2  3  2  0  0  0  0
  3  4  1  0  0  0  0
  3  8  1  0  0  0  0
  5 13  1  0  0  0  0
  5  4  2  0  0  0  0
  6  5  1  0  0  0  0
  7  1  1  0  0  0  0
  9  2  1  0  0  0  0
  9 12  1  0  0  0  0
 10  9  1  0  0  0  0
 11  9  1  0  0  0  0
 14 13  1  0  0  0  0
 14 15  1  0  0  0  0
 16 15  1  0  0  0  0
M  END
>  <minimizedAffinity>
-3.65104604

$$$$
