
 OpenBabel03252509303D

 21 21  0  0  0  0  0  0  0  0999 V2000
   46.6350   32.8260   43.1880 C   0  0  0  0  0  0  0  0  0  0  0  0
   46.5010   33.0700   42.1270 H   0  0  0  0  0  0  0  0  0  0  0  0
   46.1870   31.8020   43.3270 H   0  0  0  0  0  0  0  0  0  0  0  0
   45.0670   34.2570   46.2560 C   0  0  0  0  0  0  0  0  0  0  0  0
   45.7810   33.3870   45.4120 C   0  0  0  0  0  0  0  0  0  0  0  0
   45.8950   33.7190   44.0820 C   0  0  0  0  0  0  0  0  0  0  0  0
   45.3140   34.8740   43.6380 N   0  0  0  0  0  0  0  0  0  0  0  0
   44.6250   35.7030   44.4740 C   0  0  0  0  0  0  0  0  0  0  0  0
   44.5160   35.3790   45.7610 N   0  0  0  0  0  0  0  0  0  0  0  0
   45.0120   33.9410   47.2900 H   0  0  0  0  0  0  0  0  0  0  0  0
   46.2400   32.4720   45.7710 H   0  0  0  0  0  0  0  0  0  0  0  0
   44.1830   36.6100   44.0580 H   0  0  0  0  0  0  0  0  0  0  0  0
   47.9650   32.6860   43.5830 O   0  0  0  0  0  0  0  0  0  0  0  0
   49.4530   32.3030   41.4750 O   0  0  0  0  0  0  0  0  0  0  0  0
   48.9170   33.3920   42.3770 P   0  0  2  0  0  0  0  0  0  0  0  0
   50.1300   34.2560   43.1480 O   0  0  0  0  0  0  0  0  0  0  0  0
   51.0330   33.8810   43.0540 H   0  0  0  0  0  0  0  0  0  0  0  0
   47.9330   34.3870   41.4510 O   0  0  0  0  0  0  0  0  0  0  0  0
   48.7140   35.2430   40.6600 C   0  0  0  0  0  2  0  0  0  0  0  0
   49.2160   36.4220   41.4390 C   0  0  0  0  0  2  0  0  0  0  0  0
   49.4570   36.1030   42.4940 H   0  0  0  0  0  0  0  0  0  0  0  0
  1  3  1  0  0  0  0
  1 13  1  0  0  0  0
  1  6  1  0  0  0  0
  2  1  1  0  0  0  0
  4 10  1  0  0  0  0
  5 11  1  0  0  0  0
  5  4  2  0  0  0  0
  6  5  1  0  0  0  0
  7  6  2  0  0  0  0
  7  8  1  0  0  0  0
  8  9  2  0  0  0  0
  9  4  1  0  0  0  0
 12  8  1  0  0  0  0
 15 14  2  6  0  0  0
 15 16  1  0  0  0  0
 15 13  1  0  0  0  0
 17 16  1  0  0  0  0
 18 15  1  0  0  0  0
 19 20  1  0  0  0  0
 19 18  1  0  0  0  0
 20 21  1  0  0  0  0
M  END
>  <minimizedAffinity>
-3.72636127

>  <minimizedRMSD>
1.04593277

$$$$
