
 OpenBabel03252509313D

 21 21  0  0  0  0  0  0  0  0999 V2000
   46.9140   33.0350   43.3420 C   0  0  0  0  0  0  0  0  0  0  0  0
   46.8740   32.8990   42.2550 H   0  0  0  0  0  0  0  0  0  0  0  0
   46.4790   32.0970   43.7870 H   0  0  0  0  0  0  0  0  0  0  0  0
   44.7220   35.1350   45.5130 C   0  0  0  0  0  0  0  0  0  0  0  0
   45.5280   34.0670   45.0750 C   0  0  0  0  0  0  0  0  0  0  0  0
   46.0720   34.1370   43.8140 C   0  0  0  0  0  0  0  0  0  0  0  0
   45.8100   35.2340   43.0420 N   0  0  0  0  0  0  0  0  0  0  0  0
   45.0250   36.2590   43.4860 C   0  0  0  0  0  0  0  0  0  0  0  0
   44.5000   36.1880   44.7080 N   0  0  0  0  0  0  0  0  0  0  0  0
   44.3230   35.0210   46.5120 H   0  0  0  0  0  0  0  0  0  0  0  0
   45.7320   33.2000   45.6940 H   0  0  0  0  0  0  0  0  0  0  0  0
   44.8530   37.1070   42.8220 H   0  0  0  0  0  0  0  0  0  0  0  0
   48.2040   33.1110   43.8660 O   0  0  0  0  0  0  0  0  0  0  0  0
   50.2850   32.5020   42.4150 O   0  0  0  0  0  0  0  0  0  0  0  0
   49.2280   33.5680   42.6000 P   0  0  2  0  0  0  0  0  0  0  0  0
   49.8710   35.0630   43.0010 O   0  0  0  0  0  0  0  0  0  0  0  0
   50.8300   35.0600   43.2160 H   0  0  0  0  0  0  0  0  0  0  0  0
   48.3170   33.6360   41.1920 O   0  0  0  0  0  0  0  0  0  0  0  0
   48.4970   34.8740   40.5570 C   0  0  0  0  0  2  0  0  0  0  0  0
   48.4180   34.7540   39.0640 C   0  0  0  0  0  2  0  0  0  0  0  0
   47.6400   33.9850   38.7880 H   0  0  0  0  0  0  0  0  0  0  0  0
  1  3  1  0  0  0  0
  1  6  1  0  0  0  0
  1 13  1  0  0  0  0
  2  1  1  0  0  0  0
  4 10  1  0  0  0  0
  5  4  1  0  0  0  0
  5 11  1  0  0  0  0
  6  5  2  0  0  0  0
  7  8  2  0  0  0  0
  7  6  1  0  0  0  0
  8  9  1  0  0  0  0
  9  4  2  0  0  0  0
 12  8  1  0  0  0  0
 15 14  2  6  0  0  0
 15 16  1  0  0  0  0
 15 13  1  0  0  0  0
 16 17  1  0  0  0  0
 18 15  1  0  0  0  0
 19 18  1  0  0  0  0
 20 19  1  0  0  0  0
 21 20  1  0  0  0  0
M  END
>  <minimizedAffinity>
-3.82162976

>  <minimizedRMSD>
1.22895908

$$$$
