
 OpenBabel03252509313D

 21 21  0  0  0  0  0  0  0  0999 V2000
   46.9150   33.0350   43.3420 C   0  0  0  0  0  0  0  0  0  0  0  0
   46.8740   32.8990   42.2550 H   0  0  0  0  0  0  0  0  0  0  0  0
   46.4800   32.0970   43.7870 H   0  0  0  0  0  0  0  0  0  0  0  0
   44.7230   35.1350   45.5130 C   0  0  0  0  0  0  0  0  0  0  0  0
   45.5290   34.0670   45.0760 C   0  0  0  0  0  0  0  0  0  0  0  0
   46.0730   34.1370   43.8140 C   0  0  0  0  0  0  0  0  0  0  0  0
   45.8100   35.2340   43.0420 N   0  0  0  0  0  0  0  0  0  0  0  0
   45.0250   36.2580   43.4860 C   0  0  0  0  0  0  0  0  0  0  0  0
   44.5000   36.1870   44.7080 N   0  0  0  0  0  0  0  0  0  0  0  0
   44.3230   35.0210   46.5130 H   0  0  0  0  0  0  0  0  0  0  0  0
   45.7330   33.2000   45.6940 H   0  0  0  0  0  0  0  0  0  0  0  0
   44.8530   37.1060   42.8210 H   0  0  0  0  0  0  0  0  0  0  0  0
   48.2050   33.1110   43.8660 O   0  0  0  0  0  0  0  0  0  0  0  0
   50.2860   32.5030   42.4150 O   0  0  0  0  0  0  0  0  0  0  0  0
   49.2280   33.5680   42.5990 P   0  0  2  0  0  0  0  0  0  0  0  0
   49.8710   35.0640   43.0000 O   0  0  0  0  0  0  0  0  0  0  0  0
   50.8290   35.0610   43.2150 H   0  0  0  0  0  0  0  0  0  0  0  0
   48.3170   33.6360   41.1920 O   0  0  0  0  0  0  0  0  0  0  0  0
   48.4970   34.8740   40.5570 C   0  0  0  0  0  2  0  0  0  0  0  0
   48.4180   34.7540   39.0640 C   0  0  0  0  0  2  0  0  0  0  0  0
   47.6410   33.9830   38.7870 H   0  0  0  0  0  0  0  0  0  0  0  0
  1  3  1  0  0  0  0
  1  6  1  0  0  0  0
  1 13  1  0  0  0  0
  2  1  1  0  0  0  0
  4 10  1  0  0  0  0
  5  4  1  0  0  0  0
  5 11  1  0  0  0  0
  6  5  2  0  0  0  0
  7  8  2  0  0  0  0
  7  6  1  0  0  0  0
  8  9  1  0  0  0  0
  9  4  2  0  0  0  0
 12  8  1  0  0  0  0
 15 14  2  6  0  0  0
 15 16  1  0  0  0  0
 15 13  1  0  0  0  0
 16 17  1  0  0  0  0
 18 15  1  0  0  0  0
 19 18  1  0  0  0  0
 20 19  1  0  0  0  0
 21 20  1  0  0  0  0
M  END
>  <minimizedAffinity>
-3.82152653

>  <minimizedRMSD>
1.19369352

$$$$
