
 OpenBabel03252509303D

 21 21  0  0  0  0  0  0  0  0999 V2000
   47.0040   33.1210   43.0400 C   0  0  0  0  0  0  0  0  0  0  0  0
   46.9840   33.1370   41.9440 H   0  0  0  0  0  0  0  0  0  0  0  0
   46.5690   32.1270   43.3420 H   0  0  0  0  0  0  0  0  0  0  0  0
   44.8560   34.9400   45.4890 C   0  0  0  0  0  0  0  0  0  0  0  0
   45.6800   33.9490   44.9240 C   0  0  0  0  0  0  0  0  0  0  0  0
   46.1450   34.1420   43.6440 C   0  0  0  0  0  0  0  0  0  0  0  0
   45.7920   35.2820   42.9790 N   0  0  0  0  0  0  0  0  0  0  0  0
   44.9910   36.2310   43.5450 C   0  0  0  0  0  0  0  0  0  0  0  0
   44.5420   36.0410   44.7850 N   0  0  0  0  0  0  0  0  0  0  0  0
   44.5220   34.7310   46.4970 H   0  0  0  0  0  0  0  0  0  0  0  0
   45.9570   33.0470   45.4590 H   0  0  0  0  0  0  0  0  0  0  0  0
   44.7440   37.1190   42.9610 H   0  0  0  0  0  0  0  0  0  0  0  0
   48.2840   33.1300   43.5930 O   0  0  0  0  0  0  0  0  0  0  0  0
   50.0400   32.2910   41.8560 O   0  0  0  0  0  0  0  0  0  0  0  0
   49.3570   33.5450   42.3540 P   0  0  2  0  0  0  0  0  0  0  0  0
   50.4310   34.6660   42.9860 O   0  0  0  0  0  0  0  0  0  0  0  0
   51.3510   34.3420   43.1040 H   0  0  0  0  0  0  0  0  0  0  0  0
   48.4650   34.1820   41.0830 O   0  0  0  0  0  0  0  0  0  0  0  0
   49.0070   35.4100   40.6770 C   0  0  0  0  0  2  0  0  0  0  0  0
   49.0030   36.4170   41.7880 C   0  0  0  0  0  2  0  0  0  0  0  0
   49.2160   35.9000   42.7680 H   0  0  0  0  0  0  0  0  0  0  0  0
  1  3  1  0  0  0  0
  1 13  1  0  0  0  0
  1  6  1  0  0  0  0
  2  1  1  0  0  0  0
  4 10  1  0  0  0  0
  5 11  1  0  0  0  0
  5  4  1  0  0  0  0
  6  5  2  0  0  0  0
  7  8  2  0  0  0  0
  7  6  1  0  0  0  0
  8  9  1  0  0  0  0
  9  4  2  0  0  0  0
 12  8  1  0  0  0  0
 15 14  2  6  0  0  0
 15 16  1  0  0  0  0
 15 13  1  0  0  0  0
 16 17  1  0  0  0  0
 18 15  1  0  0  0  0
 19 18  1  0  0  0  0
 19 20  1  0  0  0  0
 20 21  1  0  0  0  0
M  END
>  <minimizedAffinity>
-3.93540478

>  <minimizedRMSD>
0.785879254

$$$$
