
 OpenBabel03252509313D

 21 21  0  0  0  0  0  0  0  0999 V2000
   47.0300   33.4420   42.9340 C   0  0  0  0  0  0  0  0  0  0  0  0
   46.7880   33.6510   41.8850 H   0  0  0  0  0  0  0  0  0  0  0  0
   46.8410   32.3420   43.0810 H   0  0  0  0  0  0  0  0  0  0  0  0
   45.1130   34.2850   46.0230 C   0  0  0  0  0  0  0  0  0  0  0  0
   45.9640   33.6060   45.1310 C   0  0  0  0  0  0  0  0  0  0  0  0
   46.1470   34.1360   43.8750 C   0  0  0  0  0  0  0  0  0  0  0  0
   45.5000   35.2940   43.5480 N   0  0  0  0  0  0  0  0  0  0  0  0
   44.6790   35.9370   44.4270 C   0  0  0  0  0  0  0  0  0  0  0  0
   44.5030   35.4210   45.6420 N   0  0  0  0  0  0  0  0  0  0  0  0
   45.0090   33.8190   46.9940 H   0  0  0  0  0  0  0  0  0  0  0  0
   46.4740   32.6870   45.3990 H   0  0  0  0  0  0  0  0  0  0  0  0
   44.1910   36.8580   44.1050 H   0  0  0  0  0  0  0  0  0  0  0  0
   48.3740   33.6180   43.2620 O   0  0  0  0  0  0  0  0  0  0  0  0
   50.4220   32.9810   41.7770 O   0  0  0  0  0  0  0  0  0  0  0  0
   49.2070   33.8820   41.8140 P   0  0  2  0  0  0  0  0  0  0  0  0
   49.6010   35.5100   41.7610 O   0  0  0  0  0  0  0  0  0  0  0  0
   50.5570   35.7110   41.8600 H   0  0  0  0  0  0  0  0  0  0  0  0
   48.2010   33.4400   40.5460 O   0  0  0  0  0  0  0  0  0  0  0  0
   48.0710   34.5010   39.6380 C   0  0  0  0  0  2  0  0  0  0  0  0
   48.1180   34.0310   38.2150 C   0  0  0  0  0  2  0  0  0  0  0  0
   47.6020   33.0310   38.1300 H   0  0  0  0  0  0  0  0  0  0  0  0
  1  3  1  0  0  0  0
  1 13  1  0  0  0  0
  1  6  1  0  0  0  0
  2  1  1  0  0  0  0
  4 10  1  0  0  0  0
  5 11  1  0  0  0  0
  5  4  2  0  0  0  0
  6  5  1  0  0  0  0
  7  6  2  0  0  0  0
  7  8  1  0  0  0  0
  8  9  2  0  0  0  0
  9  4  1  0  0  0  0
 12  8  1  0  0  0  0
 15 14  2  6  0  0  0
 15 13  1  0  0  0  0
 16 15  1  0  0  0  0
 16 17  1  0  0  0  0
 18 15  1  0  0  0  0
 19 18  1  0  0  0  0
 20 19  1  0  0  0  0
 21 20  1  0  0  0  0
M  END
>  <minimizedAffinity>
-3.76413155

>  <minimizedRMSD>
1.26421797

$$$$
