
 OpenBabel03252507563D

 38 40  0  0  1  0  0  0  0  0999 V2000
   36.6420   28.4620   41.9660 C   0  0  2  0  0  0  0  0  0  0  0  0
   36.1510   28.0940   40.5640 C   0  0  0  0  0  0  0  0  0  0  0  0
   35.3310   29.3750   40.2910 C   0  0  0  0  0  0  0  0  0  0  0  0
   36.1140   30.4780   40.9320 C   0  0  1  0  0  0  0  0  0  0  0  0
   37.2380   29.8110   41.6710 C   0  0  0  0  0  0  0  0  0  0  0  0
   35.7700   28.5290   42.6200 H   0  0  0  0  0  0  0  0  0  0  0  0
   37.0070   28.0000   39.8960 H   0  0  0  0  0  0  0  0  0  0  0  0
   35.5080   27.2140   40.6310 H   0  0  0  0  0  0  0  0  0  0  0  0
   35.1430   29.5110   39.2180 H   0  0  0  0  0  0  0  0  0  0  0  0
   34.4020   29.2460   40.8840 H   0  0  0  0  0  0  0  0  0  0  0  0
   35.4940   31.0910   41.6260 H   0  0  0  0  0  0  0  0  0  0  0  0
   38.1590   29.7230   41.0890 H   0  0  0  0  0  0  0  0  0  0  0  0
   37.4010   30.3260   42.6490 H   0  0  0  0  0  0  0  0  0  0  0  0
   39.5770   26.8680   43.7020 C   0  0  0  0  0  0  0  0  0  0  0  0
   38.6710   27.8560   43.3360 C   0  0  0  0  0  0  0  0  0  0  0  0
   37.6590   27.4920   42.4550 C   0  0  0  0  0  0  0  0  0  0  0  0
   37.5780   26.1790   41.9720 N   0  0  0  0  0  0  0  0  0  0  0  0
   38.4950   25.2570   42.3670 C   0  0  0  0  0  0  0  0  0  0  0  0
   39.4890   25.6040   43.2290 N   0  0  0  0  0  0  0  0  0  0  0  0
   40.3600   27.1760   44.3930 H   0  0  0  0  0  0  0  0  0  0  0  0
   38.7050   28.8750   43.6890 H   0  0  0  0  0  0  0  0  0  0  0  0
   38.4040   24.2540   41.9740 H   0  0  0  0  0  0  0  0  0  0  0  0
   36.7410   31.4520   39.9590 C   0  0  2  0  0  0  0  0  0  0  0  0
   37.0070   30.9370   38.6240 C   0  0  0  0  0  0  0  0  0  0  0  0
   38.1330   31.3140   39.5320 C   0  0  1  0  0  0  0  0  0  0  0  0
   36.3470   32.4800   40.0550 H   0  0  0  0  0  0  0  0  0  0  0  0
   36.8890   29.8430   38.4380 H   0  0  0  0  0  0  0  0  0  0  0  0
   36.8730   31.5090   37.6790 H   0  0  0  0  0  0  0  0  0  0  0  0
   38.7110   30.5710   40.1130 H   0  0  0  0  0  0  0  0  0  0  0  0
   38.8370   32.5040   39.2190 O   0  0  0  0  0  0  0  0  0  0  0  0
   40.9440   33.6710   40.2160 O   0  0  0  0  0  0  0  0  0  0  0  0
   39.6400   33.0170   40.6040 P   0  0  1  0  0  0  0  0  0  0  0  0
   38.7010   34.1980   41.4180 O   0  0  0  0  0  0  0  0  0  0  0  0
   38.7450   34.1030   42.3860 H   0  0  0  0  0  0  0  0  0  0  0  0
   39.9600   31.8150   41.7040 O   0  0  0  0  0  0  0  0  0  0  0  0
   41.2890   31.4120   41.6490 C   0  0  0  0  0  2  0  0  0  0  0  0
   41.8760   31.1630   43.0100 C   0  0  0  0  0  2  0  0  0  0  0  0
   42.4800   32.0060   43.3790 H   0  0  0  0  0  0  0  0  0  0  0  0
  1 16  1  0  0  0  0
  1  6  1  1  0  0  0
  2  8  1  0  0  0  0
  2  1  1  0  0  0  0
  3  2  1  0  0  0  0
  3 10  1  0  0  0  0
  3  4  1  0  0  0  0
  4 11  1  1  0  0  0
  4  5  1  0  0  0  0
  5  1  1  0  0  0  0
  5 13  1  0  0  0  0
  7  2  1  0  0  0  0
  9  3  1  0  0  0  0
 12  5  1  0  0  0  0
 14 20  1  0  0  0  0
 15 21  1  0  0  0  0
 15 14  1  0  0  0  0
 16 15  2  0  0  0  0
 17 18  2  0  0  0  0
 17 16  1  0  0  0  0
 18 19  1  0  0  0  0
 19 14  2  0  0  0  0
 22 18  1  0  0  0  0
 23 26  1  1  0  0  0
 23  4  1  0  0  0  0
 24 25  1  0  0  0  0
 24 23  1  0  0  0  0
 25 23  1  0  0  0  0
 25 29  1  1  0  0  0
 27 24  1  0  0  0  0
 28 24  1  0  0  0  0
 30 25  1  0  0  0  0
 30 32  1  0  0  0  0
 32 31  2  6  0  0  0
 32 33  1  0  0  0  0
 32 35  1  0  0  0  0
 33 34  1  0  0  0  0
 36 35  1  0  0  0  0
 36 37  1  0  0  0  0
 37 38  1  0  0  0  0
M  END
>  <minimizedAffinity>
-5.43667173

$$$$

 OpenBabel03252507563D

 38 40  0  0  1  0  0  0  0  0999 V2000
   37.3650   28.8670   42.3390 C   0  0  2  0  0  0  0  0  0  0  0  0
   36.6400   27.9140   41.3850 C   0  0  0  0  0  0  0  0  0  0  0  0
   35.5350   28.8880   40.9220 C   0  0  0  0  0  0  0  0  0  0  0  0
   36.2040   30.2260   40.8480 C   0  0  1  0  0  0  0  0  0  0  0  0
   37.5840   30.0270   41.4060 C   0  0  0  0  0  0  0  0  0  0  0  0
   36.6800   29.1130   43.1510 H   0  0  0  0  0  0  0  0  0  0  0  0
   37.3140   27.6350   40.5740 H   0  0  0  0  0  0  0  0  0  0  0  0
   36.2270   27.0830   41.9590 H   0  0  0  0  0  0  0  0  0  0  0  0
   35.0730   28.5560   39.9830 H   0  0  0  0  0  0  0  0  0  0  0  0
   34.8200   28.9270   41.7700 H   0  0  0  0  0  0  0  0  0  0  0  0
   35.6550   31.0070   41.4210 H   0  0  0  0  0  0  0  0  0  0  0  0
   38.3370   29.7960   40.6490 H   0  0  0  0  0  0  0  0  0  0  0  0
   37.8650   30.9090   42.0310 H   0  0  0  0  0  0  0  0  0  0  0  0
   39.9500   26.6710   43.9720 C   0  0  0  0  0  0  0  0  0  0  0  0
   38.6960   27.1070   43.5590 C   0  0  0  0  0  0  0  0  0  0  0  0
   38.6470   28.2820   42.8190 C   0  0  0  0  0  0  0  0  0  0  0  0
   39.8240   28.9790   42.5150 N   0  0  0  0  0  0  0  0  0  0  0  0
   41.0200   28.5030   42.9470 C   0  0  0  0  0  0  0  0  0  0  0  0
   41.0800   27.3540   43.6720 N   0  0  0  0  0  0  0  0  0  0  0  0
   39.9640   25.7490   44.5500 H   0  0  0  0  0  0  0  0  0  0  0  0
   37.7720   26.5950   43.7760 H   0  0  0  0  0  0  0  0  0  0  0  0
   41.9090   29.0670   42.6960 H   0  0  0  0  0  0  0  0  0  0  0  0
   36.3670   30.7700   39.4460 C   0  0  2  0  0  0  0  0  0  0  0  0
   36.0280   29.8570   38.3640 C   0  0  0  0  0  0  0  0  0  0  0  0
   37.4400   30.3050   38.5680 C   0  0  1  0  0  0  0  0  0  0  0  0
   36.0680   31.8290   39.3520 H   0  0  0  0  0  0  0  0  0  0  0  0
   35.8260   28.7880   38.6090 H   0  0  0  0  0  0  0  0  0  0  0  0
   35.5110   30.1460   37.4230 H   0  0  0  0  0  0  0  0  0  0  0  0
   38.2010   29.6820   39.0750 H   0  0  0  0  0  0  0  0  0  0  0  0
   37.9600   31.2330   37.6300 O   0  0  0  0  0  0  0  0  0  0  0  0
   40.3090   30.1080   37.7210 O   0  0  0  0  0  0  0  0  0  0  0  0
   39.6020   31.4230   37.9360 P   0  0  1  0  0  0  0  0  0  0  0  0
   40.2740   32.5490   36.8320 O   0  0  0  0  0  0  0  0  0  0  0  0
   40.9370   33.1260   37.2510 H   0  0  0  0  0  0  0  0  0  0  0  0
   39.9620   31.9710   39.4620 O   0  0  0  0  0  0  0  0  0  0  0  0
   39.7890   33.3470   39.5650 C   0  0  0  0  0  2  0  0  0  0  0  0
   38.4530   33.7220   40.1430 C   0  0  0  0  0  2  0  0  0  0  0  0
   37.7170   34.0090   39.3760 H   0  0  0  0  0  0  0  0  0  0  0  0
  1 16  1  0  0  0  0
  1  6  1  1  0  0  0
  2  8  1  0  0  0  0
  2  1  1  0  0  0  0
  3  2  1  0  0  0  0
  3 10  1  0  0  0  0
  4  3  1  0  0  0  0
  4  5  1  0  0  0  0
  4 11  1  1  0  0  0
  5 13  1  0  0  0  0
  5  1  1  0  0  0  0
  7  2  1  0  0  0  0
  9  3  1  0  0  0  0
 12  5  1  0  0  0  0
 14 20  1  0  0  0  0
 15 21  1  0  0  0  0
 15 14  2  0  0  0  0
 16 15  1  0  0  0  0
 17 16  2  0  0  0  0
 17 18  1  0  0  0  0
 18 19  2  0  0  0  0
 19 14  1  0  0  0  0
 22 18  1  0  0  0  0
 23 26  1  6  0  0  0
 23  4  1  0  0  0  0
 24 25  1  0  0  0  0
 24 27  1  0  0  0  0
 24 23  1  0  0  0  0
 25 29  1  1  0  0  0
 25 23  1  0  0  0  0
 28 24  1  0  0  0  0
 30 32  1  0  0  0  0
 30 25  1  0  0  0  0
 32 31  2  6  0  0  0
 32 35  1  0  0  0  0
 33 34  1  0  0  0  0
 33 32  1  0  0  0  0
 35 36  1  0  0  0  0
 36 37  1  0  0  0  0
 38 37  1  0  0  0  0
M  END
>  <minimizedAffinity>
-5.32082844

$$$$

 OpenBabel03252507563D

 38 40  0  0  1  0  0  0  0  0999 V2000
   37.4750   30.7150   40.1500 C   0  0  2  0  0  0  0  0  0  0  0  0
   36.1620   30.7570   40.9360 C   0  0  0  0  0  0  0  0  0  0  0  0
   35.8410   29.2480   40.8800 C   0  0  0  0  0  0  0  0  0  0  0  0
   37.1690   28.5650   40.9870 C   0  0  1  0  0  0  0  0  0  0  0  0
   38.1980   29.6570   40.9380 C   0  0  0  0  0  0  0  0  0  0  0  0
   37.2460   30.3890   39.1330 H   0  0  0  0  0  0  0  0  0  0  0  0
   36.3620   31.1020   41.9500 H   0  0  0  0  0  0  0  0  0  0  0  0
   35.4310   31.3440   40.3760 H   0  0  0  0  0  0  0  0  0  0  0  0
   35.1160   28.9620   41.6540 H   0  0  0  0  0  0  0  0  0  0  0  0
   35.4670   29.0770   39.8500 H   0  0  0  0  0  0  0  0  0  0  0  0
   37.3350   27.8290   40.1670 H   0  0  0  0  0  0  0  0  0  0  0  0
   38.4980   30.0260   41.9220 H   0  0  0  0  0  0  0  0  0  0  0  0
   39.0710   29.3220   40.3260 H   0  0  0  0  0  0  0  0  0  0  0  0
   38.2860   34.3870   39.9930 C   0  0  0  0  0  0  0  0  0  0  0  0
   37.5210   33.2280   39.9460 C   0  0  0  0  0  0  0  0  0  0  0  0
   38.1750   32.0270   40.1940 C   0  0  0  0  0  0  0  0  0  0  0  0
   39.5490   32.0120   40.4750 N   0  0  0  0  0  0  0  0  0  0  0  0
   40.2430   33.1800   40.5060 C   0  0  0  0  0  0  0  0  0  0  0  0
   39.6110   34.3600   40.2660 N   0  0  0  0  0  0  0  0  0  0  0  0
   37.7530   35.3150   39.7960 H   0  0  0  0  0  0  0  0  0  0  0  0
   36.4640   33.2040   39.7330 H   0  0  0  0  0  0  0  0  0  0  0  0
   41.3010   33.1320   40.7250 H   0  0  0  0  0  0  0  0  0  0  0  0
   37.3850   27.8100   42.2800 C   0  0  2  0  0  0  0  0  0  0  0  0
   37.9020   28.5890   43.3950 C   0  0  0  0  0  0  0  0  0  0  0  0
   38.7300   27.5110   42.7720 C   0  0  1  0  0  0  0  0  0  0  0  0
   36.6010   27.0600   42.4830 H   0  0  0  0  0  0  0  0  0  0  0  0
   38.2520   29.6310   43.2040 H   0  0  0  0  0  0  0  0  0  0  0  0
   37.5900   28.4720   44.4560 H   0  0  0  0  0  0  0  0  0  0  0  0
   39.5350   27.7180   42.0410 H   0  0  0  0  0  0  0  0  0  0  0  0
   38.8980   26.3190   43.5210 O   0  0  0  0  0  0  0  0  0  0  0  0
   41.1220   25.6090   42.3630 O   0  0  0  0  0  0  0  0  0  0  0  0
   39.6830   25.1960   42.5470 P   0  0  1  0  0  0  0  0  0  0  0  0
   39.6880   23.6620   43.3140 O   0  0  0  0  0  0  0  0  0  0  0  0
   39.5530   22.9330   42.6830 H   0  0  0  0  0  0  0  0  0  0  0  0
   39.0000   24.9820   41.0490 O   0  0  0  0  0  0  0  0  0  0  0  0
   38.1330   23.8950   41.0320 C   0  0  0  0  0  2  0  0  0  0  0  0
   36.7240   24.2690   41.3940 C   0  0  0  0  0  2  0  0  0  0  0  0
   36.4750   24.0440   42.4430 H   0  0  0  0  0  0  0  0  0  0  0  0
  1  6  1  6  0  0  0
  1 16  1  0  0  0  0
  1  2  1  0  0  0  0
  1  5  1  0  0  0  0
  2  7  1  0  0  0  0
  3  2  1  0  0  0  0
  3  4  1  0  0  0  0
  3  9  1  0  0  0  0
  4 11  1  6  0  0  0
  4 23  1  0  0  0  0
  5  4  1  0  0  0  0
  5 12  1  0  0  0  0
  8  2  1  0  0  0  0
 10  3  1  0  0  0  0
 13  5  1  0  0  0  0
 14 19  1  0  0  0  0
 15 14  2  0  0  0  0
 15 16  1  0  0  0  0
 16 17  2  0  0  0  0
 17 18  1  0  0  0  0
 18 22  1  0  0  0  0
 19 18  2  0  0  0  0
 20 14  1  0  0  0  0
 21 15  1  0  0  0  0
 23 26  1  1  0  0  0
 23 25  1  0  0  0  0
 23 24  1  0  0  0  0
 24 28  1  0  0  0  0
 25 29  1  6  0  0  0
 25 24  1  0  0  0  0
 25 30  1  0  0  0  0
 27 24  1  0  0  0  0
 32 31  2  6  0  0  0
 32 33  1  0  0  0  0
 32 30  1  0  0  0  0
 34 33  1  0  0  0  0
 35 32  1  0  0  0  0
 36 35  1  0  0  0  0
 36 37  1  0  0  0  0
 37 38  1  0  0  0  0
M  END
>  <minimizedAffinity>
-5.22832584

$$$$

 OpenBabel03252507563D

 38 40  0  0  1  0  0  0  0  0999 V2000
   40.6640   31.1820   41.5600 C   0  0  2  0  0  0  0  0  0  0  0  0
   40.4820   29.9980   40.6070 C   0  0  0  0  0  0  0  0  0  0  0  0
   40.2740   28.9040   41.6770 C   0  0  0  0  0  0  0  0  0  0  0  0
   39.4950   29.5730   42.7670 C   0  0  1  0  0  0  0  0  0  0  0  0
   39.4180   31.0230   42.3880 C   0  0  0  0  0  0  0  0  0  0  0  0
   41.5720   31.0090   42.1400 H   0  0  0  0  0  0  0  0  0  0  0  0
   39.5920   30.1580   39.9990 H   0  0  0  0  0  0  0  0  0  0  0  0
   41.4090   29.8430   40.0510 H   0  0  0  0  0  0  0  0  0  0  0  0
   39.7930   28.0120   41.2530 H   0  0  0  0  0  0  0  0  0  0  0  0
   41.2890   28.7030   42.0770 H   0  0  0  0  0  0  0  0  0  0  0  0
   39.9720   29.4500   43.7660 H   0  0  0  0  0  0  0  0  0  0  0  0
   38.5230   31.2840   41.8180 H   0  0  0  0  0  0  0  0  0  0  0  0
   39.5410   31.6560   43.3010 H   0  0  0  0  0  0  0  0  0  0  0  0
   41.7210   34.1540   39.5050 C   0  0  0  0  0  0  0  0  0  0  0  0
   41.8120   32.9200   40.1390 C   0  0  0  0  0  0  0  0  0  0  0  0
   40.6870   32.4730   40.8200 C   0  0  0  0  0  0  0  0  0  0  0  0
   39.5210   33.2520   40.8520 N   0  0  0  0  0  0  0  0  0  0  0  0
   39.4930   34.4500   40.2130 C   0  0  0  0  0  0  0  0  0  0  0  0
   40.5900   34.8960   39.5430 N   0  0  0  0  0  0  0  0  0  0  0  0
   42.6140   34.4840   38.9790 H   0  0  0  0  0  0  0  0  0  0  0  0
   42.6930   32.2970   40.1350 H   0  0  0  0  0  0  0  0  0  0  0  0
   38.5790   35.0250   40.2580 H   0  0  0  0  0  0  0  0  0  0  0  0
   38.0730   29.0780   42.9180 C   0  0  2  0  0  0  0  0  0  0  0  0
   37.9210   27.6770   43.2820 C   0  0  0  0  0  0  0  0  0  0  0  0
   37.4750   28.1670   41.9420 C   0  0  1  0  0  0  0  0  0  0  0  0
   37.4010   29.8180   43.3880 H   0  0  0  0  0  0  0  0  0  0  0  0
   38.8230   27.0200   43.2750 H   0  0  0  0  0  0  0  0  0  0  0  0
   37.1540   27.2790   43.9820 H   0  0  0  0  0  0  0  0  0  0  0  0
   38.0760   28.0330   41.0230 H   0  0  0  0  0  0  0  0  0  0  0  0
   36.0770   28.2700   41.7290 O   0  0  0  0  0  0  0  0  0  0  0  0
   34.5490   29.2070   39.8370 O   0  0  0  0  0  0  0  0  0  0  0  0
   35.8060   29.5020   40.6180 P   0  0  1  0  0  0  0  0  0  0  0  0
   35.5570   30.9850   41.4420 O   0  0  0  0  0  0  0  0  0  0  0  0
   35.9680   31.7370   40.9820 H   0  0  0  0  0  0  0  0  0  0  0  0
   37.0480   29.7520   39.5440 O   0  0  0  0  0  0  0  0  0  0  0  0
   37.2190   31.1030   39.2650 C   0  0  0  0  0  2  0  0  0  0  0  0
   37.6690   31.3510   37.8530 C   0  0  0  0  0  2  0  0  0  0  0  0
   38.7530   31.5250   37.7710 H   0  0  0  0  0  0  0  0  0  0  0  0
  1  6  1  1  0  0  0
  1  5  1  0  0  0  0
  2  1  1  0  0  0  0
  2  3  1  0  0  0  0
  3 10  1  0  0  0  0
  3  4  1  0  0  0  0
  4 23  1  0  0  0  0
  4 11  1  1  0  0  0
  5  4  1  0  0  0  0
  5 13  1  0  0  0  0
  7  2  1  0  0  0  0
  8  2  1  0  0  0  0
  9  3  1  0  0  0  0
 12  5  1  0  0  0  0
 14 19  2  0  0  0  0
 14 15  1  0  0  0  0
 15 16  2  0  0  0  0
 16 17  1  0  0  0  0
 16  1  1  0  0  0  0
 18 22  1  0  0  0  0
 18 17  2  0  0  0  0
 19 18  1  0  0  0  0
 20 14  1  0  0  0  0
 21 15  1  0  0  0  0
 23 24  1  0  0  0  0
 23 26  1  1  0  0  0
 24 28  1  0  0  0  0
 25 29  1  6  0  0  0
 25 23  1  0  0  0  0
 25 24  1  0  0  0  0
 27 24  1  0  0  0  0
 30 25  1  0  0  0  0
 32 31  2  6  0  0  0
 32 33  1  0  0  0  0
 32 30  1  0  0  0  0
 34 33  1  0  0  0  0
 35 32  1  0  0  0  0
 36 35  1  0  0  0  0
 37 36  1  0  0  0  0
 38 37  1  0  0  0  0
M  END
>  <minimizedAffinity>
-5.201159

$$$$

 OpenBabel03252507563D

 38 40  0  0  1  0  0  0  0  0999 V2000
   36.6450   28.1500   41.7370 C   0  0  2  0  0  0  0  0  0  0  0  0
   36.3780   28.2140   40.2310 C   0  0  0  0  0  0  0  0  0  0  0  0
   35.7380   29.6190   40.1950 C   0  0  0  0  0  0  0  0  0  0  0  0
   36.4900   30.4130   41.2170 C   0  0  1  0  0  0  0  0  0  0  0  0
   37.4020   29.4390   41.9060 C   0  0  0  0  0  0  0  0  0  0  0  0
   35.6810   28.1670   42.2490 H   0  0  0  0  0  0  0  0  0  0  0  0
   37.3270   28.1760   39.6960 H   0  0  0  0  0  0  0  0  0  0  0  0
   35.6580   27.4380   39.9650 H   0  0  0  0  0  0  0  0  0  0  0  0
   35.7550   30.0430   39.1820 H   0  0  0  0  0  0  0  0  0  0  0  0
   34.7110   29.4700   40.5880 H   0  0  0  0  0  0  0  0  0  0  0  0
   35.8150   30.9090   41.9510 H   0  0  0  0  0  0  0  0  0  0  0  0
   38.3990   29.3790   41.4640 H   0  0  0  0  0  0  0  0  0  0  0  0
   37.4340   29.6670   43.0000 H   0  0  0  0  0  0  0  0  0  0  0  0
   37.9660   24.6450   42.1040 C   0  0  0  0  0  0  0  0  0  0  0  0
   37.1310   25.6770   41.6910 C   0  0  0  0  0  0  0  0  0  0  0  0
   37.4690   26.9630   42.0920 C   0  0  0  0  0  0  0  0  0  0  0  0
   38.6090   27.1850   42.8780 N   0  0  0  0  0  0  0  0  0  0  0  0
   39.3850   26.1350   43.2510 C   0  0  0  0  0  0  0  0  0  0  0  0
   39.0630   24.8710   42.8630 N   0  0  0  0  0  0  0  0  0  0  0  0
   37.6810   23.6460   41.7790 H   0  0  0  0  0  0  0  0  0  0  0  0
   36.2480   25.5400   41.0870 H   0  0  0  0  0  0  0  0  0  0  0  0
   40.2560   26.3410   43.8580 H   0  0  0  0  0  0  0  0  0  0  0  0
   37.3630   31.5080   40.6430 C   0  0  2  0  0  0  0  0  0  0  0  0
   36.9310   32.0680   39.3720 C   0  0  0  0  0  0  0  0  0  0  0  0
   38.1970   31.2780   39.4630 C   0  0  1  0  0  0  0  0  0  0  0  0
   37.7620   32.1950   41.4110 H   0  0  0  0  0  0  0  0  0  0  0  0
   36.0960   31.5710   38.8240 H   0  0  0  0  0  0  0  0  0  0  0  0
   36.9950   33.1430   39.0920 H   0  0  0  0  0  0  0  0  0  0  0  0
   38.2660   30.2170   39.1590 H   0  0  0  0  0  0  0  0  0  0  0  0
   39.4120   32.0030   39.3760 O   0  0  0  0  0  0  0  0  0  0  0  0
   40.0230   30.0600   37.7510 O   0  0  0  0  0  0  0  0  0  0  0  0
   40.1950   31.5440   37.9610 P   0  0  1  0  0  0  0  0  0  0  0  0
   39.4820   32.3340   36.6170 O   0  0  0  0  0  0  0  0  0  0  0  0
   40.1410   32.6070   35.9560 H   0  0  0  0  0  0  0  0  0  0  0  0
   41.8170   31.8980   37.9210 O   0  0  0  0  0  0  0  0  0  0  0  0
   42.1020   33.0680   38.6150 C   0  0  0  0  0  2  0  0  0  0  0  0
   42.3430   34.2390   37.7050 C   0  0  0  0  0  2  0  0  0  0  0  0
   43.4110   34.4510   37.5470 H   0  0  0  0  0  0  0  0  0  0  0  0
  1  5  1  0  0  0  0
  1 16  1  0  0  0  0
  1  6  1  1  0  0  0
  2  1  1  0  0  0  0
  3  2  1  0  0  0  0
  3 10  1  0  0  0  0
  3  4  1  0  0  0  0
  4  5  1  0  0  0  0
  4 11  1  1  0  0  0
  5 13  1  0  0  0  0
  7  2  1  0  0  0  0
  8  2  1  0  0  0  0
  9  3  1  0  0  0  0
 12  5  1  0  0  0  0
 14 19  1  0  0  0  0
 15 16  1  0  0  0  0
 15 14  2  0  0  0  0
 16 17  2  0  0  0  0
 17 18  1  0  0  0  0
 18 22  1  0  0  0  0
 19 18  2  0  0  0  0
 20 14  1  0  0  0  0
 21 15  1  0  0  0  0
 23  4  1  0  0  0  0
 23 26  1  1  0  0  0
 24 25  1  0  0  0  0
 24 23  1  0  0  0  0
 25 29  1  6  0  0  0
 25 23  1  0  0  0  0
 27 24  1  0  0  0  0
 28 24  1  0  0  0  0
 30 25  1  0  0  0  0
 32 31  2  6  0  0  0
 32 30  1  0  0  0  0
 33 32  1  0  0  0  0
 34 33  1  0  0  0  0
 35 32  1  0  0  0  0
 35 36  1  0  0  0  0
 37 36  1  0  0  0  0
 38 37  1  0  0  0  0
M  END
>  <minimizedAffinity>
-5.19674587

$$$$

 OpenBabel03252507563D

 38 40  0  0  1  0  0  0  0  0999 V2000
   37.1150   29.1490   42.0810 C   0  0  2  0  0  0  0  0  0  0  0  0
   38.0210   28.8550   43.2790 C   0  0  0  0  0  0  0  0  0  0  0  0
   37.5370   27.4140   43.5540 C   0  0  0  0  0  0  0  0  0  0  0  0
   37.2720   26.8300   42.2010 C   0  0  1  0  0  0  0  0  0  0  0  0
   37.4460   27.9570   41.2240 C   0  0  0  0  0  0  0  0  0  0  0  0
   36.0810   29.1320   42.4310 H   0  0  0  0  0  0  0  0  0  0  0  0
   39.0630   28.8880   42.9580 H   0  0  0  0  0  0  0  0  0  0  0  0
   37.7600   29.5290   44.0960 H   0  0  0  0  0  0  0  0  0  0  0  0
   38.2620   26.8550   44.1590 H   0  0  0  0  0  0  0  0  0  0  0  0
   36.5540   27.5380   44.0550 H   0  0  0  0  0  0  0  0  0  0  0  0
   36.2500   26.3930   42.1200 H   0  0  0  0  0  0  0  0  0  0  0  0
   38.4540   28.0300   40.8100 H   0  0  0  0  0  0  0  0  0  0  0  0
   36.6640   27.8890   40.4300 H   0  0  0  0  0  0  0  0  0  0  0  0
   37.0790   32.2930   40.0100 C   0  0  0  0  0  0  0  0  0  0  0  0
   36.6130   31.1150   40.5840 C   0  0  0  0  0  0  0  0  0  0  0  0
   37.4830   30.4330   41.4250 C   0  0  0  0  0  0  0  0  0  0  0  0
   38.7710   30.9310   41.6690 N   0  0  0  0  0  0  0  0  0  0  0  0
   39.1690   32.0880   41.0780 C   0  0  0  0  0  0  0  0  0  0  0  0
   38.3240   32.7630   40.2530 N   0  0  0  0  0  0  0  0  0  0  0  0
   36.3800   32.8100   39.3560 H   0  0  0  0  0  0  0  0  0  0  0  0
   35.6290   30.7040   40.4170 H   0  0  0  0  0  0  0  0  0  0  0  0
   40.1690   32.4430   41.2870 H   0  0  0  0  0  0  0  0  0  0  0  0
   38.2310   25.7360   41.7900 C   0  0  2  0  0  0  0  0  0  0  0  0
   37.8840   24.3890   42.2190 C   0  0  0  0  0  0  0  0  0  0  0  0
   39.0950   25.0730   42.7670 C   0  0  1  0  0  0  0  0  0  0  0  0
   38.6400   25.8720   40.7730 H   0  0  0  0  0  0  0  0  0  0  0  0
   37.0430   24.2560   42.9400 H   0  0  0  0  0  0  0  0  0  0  0  0
   38.0250   23.4680   41.6110 H   0  0  0  0  0  0  0  0  0  0  0  0
   39.1120   25.5620   43.7590 H   0  0  0  0  0  0  0  0  0  0  0  0
   40.3550   24.6090   42.3110 O   0  0  0  0  0  0  0  0  0  0  0  0
   41.0000   26.3210   44.1660 O   0  0  0  0  0  0  0  0  0  0  0  0
   41.5450   25.6050   42.9550 P   0  0  1  0  0  0  0  0  0  0  0  0
   42.8760   24.6610   43.4780 O   0  0  0  0  0  0  0  0  0  0  0  0
   43.7300   25.0910   43.2950 H   0  0  0  0  0  0  0  0  0  0  0  0
   42.1450   26.7380   41.8990 O   0  0  0  0  0  0  0  0  0  0  0  0
   41.3510   27.8790   41.8670 C   0  0  0  0  0  2  0  0  0  0  0  0
   40.9450   28.2650   40.4730 C   0  0  0  0  0  2  0  0  0  0  0  0
   41.5630   29.0730   40.0520 H   0  0  0  0  0  0  0  0  0  0  0  0
  1  6  1  1  0  0  0
  1  2  1  0  0  0  0
  2  3  1  0  0  0  0
  2  8  1  0  0  0  0
  3 10  1  0  0  0  0
  3  9  1  0  0  0  0
  4 11  1  6  0  0  0
  4  3  1  0  0  0  0
  5  1  1  0  0  0  0
  5  4  1  0  0  0  0
  7  2  1  0  0  0  0
 12  5  1  0  0  0  0
 13  5  1  0  0  0  0
 14 19  2  0  0  0  0
 14 15  1  0  0  0  0
 15 16  2  0  0  0  0
 16 17  1  0  0  0  0
 16  1  1  0  0  0  0
 18 22  1  0  0  0  0
 18 17  2  0  0  0  0
 19 18  1  0  0  0  0
 20 14  1  0  0  0  0
 21 15  1  0  0  0  0
 23 26  1  6  0  0  0
 23  4  1  0  0  0  0
 23 24  1  0  0  0  0
 23 25  1  0  0  0  0
 24 25  1  0  0  0  0
 24 27  1  0  0  0  0
 25 29  1  1  0  0  0
 28 24  1  0  0  0  0
 30 25  1  0  0  0  0
 30 32  1  0  0  0  0
 32 33  1  0  0  0  0
 32 31  2  1  0  0  0
 34 33  1  0  0  0  0
 35 32  1  0  0  0  0
 36 35  1  0  0  0  0
 37 36  1  0  0  0  0
 38 37  1  0  0  0  0
M  END
>  <minimizedAffinity>
-5.17163086

$$$$

 OpenBabel03252507563D

 38 40  0  0  1  0  0  0  0  0999 V2000
   37.2260   32.1580   40.4020 C   0  0  2  0  0  0  0  0  0  0  0  0
   37.3210   33.2580   39.3420 C   0  0  0  0  0  0  0  0  0  0  0  0
   38.2510   34.2150   40.1210 C   0  0  0  0  0  0  0  0  0  0  0  0
   39.1890   33.3180   40.8680 C   0  0  1  0  0  0  0  0  0  0  0  0
   38.6920   31.9200   40.6400 C   0  0  0  0  0  0  0  0  0  0  0  0
   36.7280   32.5800   41.2780 H   0  0  0  0  0  0  0  0  0  0  0  0
   37.7960   32.8550   38.4470 H   0  0  0  0  0  0  0  0  0  0  0  0
   36.3320   33.6950   39.1920 H   0  0  0  0  0  0  0  0  0  0  0  0
   38.7420   34.9330   39.4500 H   0  0  0  0  0  0  0  0  0  0  0  0
   37.5930   34.6980   40.8710 H   0  0  0  0  0  0  0  0  0  0  0  0
   39.2230   33.5530   41.9570 H   0  0  0  0  0  0  0  0  0  0  0  0
   39.1590   31.4190   39.7890 H   0  0  0  0  0  0  0  0  0  0  0  0
   38.7860   31.3310   41.5840 H   0  0  0  0  0  0  0  0  0  0  0  0
   35.8930   29.4570   38.1450 C   0  0  0  0  0  0  0  0  0  0  0  0
   36.5960   30.5940   38.5290 C   0  0  0  0  0  0  0  0  0  0  0  0
   36.5380   30.9510   39.8700 C   0  0  0  0  0  0  0  0  0  0  0  0
   35.7970   30.1820   40.7780 N   0  0  0  0  0  0  0  0  0  0  0  0
   35.1300   29.0820   40.3430 C   0  0  0  0  0  0  0  0  0  0  0  0
   35.1800   28.7230   39.0320 N   0  0  0  0  0  0  0  0  0  0  0  0
   35.9520   29.1960   37.0910 H   0  0  0  0  0  0  0  0  0  0  0  0
   37.1750   31.2070   37.8560 H   0  0  0  0  0  0  0  0  0  0  0  0
   34.5670   28.5130   41.0700 H   0  0  0  0  0  0  0  0  0  0  0  0
   40.6210   33.3640   40.3840 C   0  0  2  0  0  0  0  0  0  0  0  0
   41.1830   34.6910   40.1790 C   0  0  0  0  0  0  0  0  0  0  0  0
   40.9530   33.7750   39.0200 C   0  0  1  0  0  0  0  0  0  0  0  0
   41.2620   32.5890   40.8420 H   0  0  0  0  0  0  0  0  0  0  0  0
   40.5040   35.5750   40.2320 H   0  0  0  0  0  0  0  0  0  0  0  0
   42.2270   34.9880   40.4200 H   0  0  0  0  0  0  0  0  0  0  0  0
   40.0760   33.8620   38.3500 H   0  0  0  0  0  0  0  0  0  0  0  0
   42.1000   33.1910   38.4260 O   0  0  0  0  0  0  0  0  0  0  0  0
   41.3210   30.7040   38.3800 O   0  0  0  0  0  0  0  0  0  0  0  0
   41.6000   31.8890   37.4880 P   0  0  1  0  0  0  0  0  0  0  0  0
   40.1350   32.2770   36.6870 O   0  0  0  0  0  0  0  0  0  0  0  0
   40.1040   31.9230   35.7800 H   0  0  0  0  0  0  0  0  0  0  0  0
   42.6810   31.4240   36.3160 O   0  0  0  0  0  0  0  0  0  0  0  0
   43.9600   31.2610   36.8360 C   0  0  0  0  0  2  0  0  0  0  0  0
   44.9590   30.8390   35.7970 C   0  0  0  0  0  2  0  0  0  0  0  0
   45.1630   29.7570   35.8090 H   0  0  0  0  0  0  0  0  0  0  0  0
  1  5  1  0  0  0  0
  1  6  1  1  0  0  0
  2  3  1  0  0  0  0
  2  1  1  0  0  0  0
  3  4  1  0  0  0  0
  3 10  1  0  0  0  0
  4 11  1  1  0  0  0
  5  4  1  0  0  0  0
  5 13  1  0  0  0  0
  7  2  1  0  0  0  0
  8  2  1  0  0  0  0
  9  3  1  0  0  0  0
 12  5  1  0  0  0  0
 14 15  2  0  0  0  0
 14 19  1  0  0  0  0
 15 16  1  0  0  0  0
 16  1  1  0  0  0  0
 16 17  2  0  0  0  0
 18 17  1  0  0  0  0
 18 22  1  0  0  0  0
 19 18  2  0  0  0  0
 20 14  1  0  0  0  0
 21 15  1  0  0  0  0
 23 26  1  1  0  0  0
 23  4  1  0  0  0  0
 24 27  1  0  0  0  0
 24 23  1  0  0  0  0
 24 28  1  0  0  0  0
 25 29  1  6  0  0  0
 25 24  1  0  0  0  0
 25 23  1  0  0  0  0
 30 25  1  0  0  0  0
 32 31  2  1  0  0  0
 32 30  1  0  0  0  0
 33 32  1  0  0  0  0
 34 33  1  0  0  0  0
 35 36  1  0  0  0  0
 35 32  1  0  0  0  0
 37 38  1  0  0  0  0
 37 36  1  0  0  0  0
M  END
>  <minimizedAffinity>
-5.15107489

$$$$

 OpenBabel03252507563D

 38 40  0  0  1  0  0  0  0  0999 V2000
   36.6480   28.6160   41.8570 C   0  0  2  0  0  0  0  0  0  0  0  0
   36.0070   28.2500   40.5160 C   0  0  0  0  0  0  0  0  0  0  0  0
   35.2860   29.5920   40.2600 C   0  0  0  0  0  0  0  0  0  0  0  0
   36.2160   30.6380   40.7900 C   0  0  1  0  0  0  0  0  0  0  0  0
   37.3350   29.8940   41.4600 C   0  0  0  0  0  0  0  0  0  0  0  0
   35.8440   28.7840   42.5770 H   0  0  0  0  0  0  0  0  0  0  0  0
   36.7920   28.0550   39.7840 H   0  0  0  0  0  0  0  0  0  0  0  0
   35.2970   27.4360   40.6710 H   0  0  0  0  0  0  0  0  0  0  0  0
   35.0200   29.7100   39.2010 H   0  0  0  0  0  0  0  0  0  0  0  0
   34.4030   29.5690   40.9310 H   0  0  0  0  0  0  0  0  0  0  0  0
   35.7150   31.3280   41.5070 H   0  0  0  0  0  0  0  0  0  0  0  0
   38.1910   29.7020   40.8090 H   0  0  0  0  0  0  0  0  0  0  0  0
   37.6250   30.4220   42.4010 H   0  0  0  0  0  0  0  0  0  0  0  0
   38.4570   25.3590   42.3920 C   0  0  0  0  0  0  0  0  0  0  0  0
   37.5110   26.2470   41.8940 C   0  0  0  0  0  0  0  0  0  0  0  0
   37.6120   27.5720   42.2990 C   0  0  0  0  0  0  0  0  0  0  0  0
   38.6320   27.9710   43.1740 N   0  0  0  0  0  0  0  0  0  0  0  0
   39.5270   27.0550   43.6270 C   0  0  0  0  0  0  0  0  0  0  0  0
   39.4380   25.7560   43.2360 N   0  0  0  0  0  0  0  0  0  0  0  0
   38.3590   24.3270   42.0610 H   0  0  0  0  0  0  0  0  0  0  0  0
   36.7140   25.9730   41.2200 H   0  0  0  0  0  0  0  0  0  0  0  0
   40.3010   27.3970   44.3020 H   0  0  0  0  0  0  0  0  0  0  0  0
   36.8420   31.5170   39.7300 C   0  0  2  0  0  0  0  0  0  0  0  0
   37.4170   30.8260   38.5860 C   0  0  0  0  0  0  0  0  0  0  0  0
   38.2920   31.5720   39.5420 C   0  0  1  0  0  0  0  0  0  0  0  0
   36.2800   32.4510   39.5500 H   0  0  0  0  0  0  0  0  0  0  0  0
   37.5090   29.7140   38.6220 H   0  0  0  0  0  0  0  0  0  0  0  0
   37.3630   31.1790   37.5320 H   0  0  0  0  0  0  0  0  0  0  0  0
   38.8690   31.0720   40.3430 H   0  0  0  0  0  0  0  0  0  0  0  0
   38.8430   32.7960   39.0870 O   0  0  0  0  0  0  0  0  0  0  0  0
   38.7340   34.7890   40.7630 O   0  0  0  0  0  0  0  0  0  0  0  0
   39.5500   33.5730   40.3990 P   0  0  1  0  0  0  0  0  0  0  0  0
   39.5480   32.5330   41.7620 O   0  0  0  0  0  0  0  0  0  0  0  0
   40.3640   32.6110   42.2870 H   0  0  0  0  0  0  0  0  0  0  0  0
   41.1230   34.0470   40.1570 O   0  0  0  0  0  0  0  0  0  0  0  0
   42.0210   33.0800   40.5940 C   0  0  0  0  0  2  0  0  0  0  0  0
   42.3010   32.0340   39.5520 C   0  0  0  0  0  2  0  0  0  0  0  0
   41.7240   31.1090   39.7050 H   0  0  0  0  0  0  0  0  0  0  0  0
  1 16  1  0  0  0  0
  1  6  1  1  0  0  0
  2  8  1  0  0  0  0
  2  1  1  0  0  0  0
  3  2  1  0  0  0  0
  3  4  1  0  0  0  0
  3 10  1  0  0  0  0
  4  5  1  0  0  0  0
  4 11  1  1  0  0  0
  5  1  1  0  0  0  0
  5 13  1  0  0  0  0
  7  2  1  0  0  0  0
  9  3  1  0  0  0  0
 12  5  1  0  0  0  0
 14 19  1  0  0  0  0
 15 16  1  0  0  0  0
 15 14  2  0  0  0  0
 16 17  2  0  0  0  0
 17 18  1  0  0  0  0
 18 22  1  0  0  0  0
 19 18  2  0  0  0  0
 20 14  1  0  0  0  0
 21 15  1  0  0  0  0
 23 26  1  6  0  0  0
 23  4  1  0  0  0  0
 24 27  1  0  0  0  0
 24 25  1  0  0  0  0
 24 23  1  0  0  0  0
 25 23  1  0  0  0  0
 25 29  1  1  0  0  0
 28 24  1  0  0  0  0
 30 25  1  0  0  0  0
 30 32  1  0  0  0  0
 32 31  2  1  0  0  0
 32 33  1  0  0  0  0
 33 34  1  0  0  0  0
 35 32  1  0  0  0  0
 35 36  1  0  0  0  0
 37 38  1  0  0  0  0
 37 36  1  0  0  0  0
M  END
>  <minimizedAffinity>
-5.11523342

$$$$

 OpenBabel03252507563D

 38 40  0  0  1  0  0  0  0  0999 V2000
   38.4720   32.3220   38.9820 C   0  0  2  0  0  0  0  0  0  0  0  0
   38.4300   32.1060   40.4970 C   0  0  0  0  0  0  0  0  0  0  0  0
   36.9270   31.7710   40.6160 C   0  0  0  0  0  0  0  0  0  0  0  0
   36.6070   30.9890   39.3800 C   0  0  1  0  0  0  0  0  0  0  0  0
   37.8460   31.0300   38.5330 C   0  0  0  0  0  0  0  0  0  0  0  0
   37.8470   33.1870   38.7510 H   0  0  0  0  0  0  0  0  0  0  0  0
   39.0660   31.2590   40.7570 H   0  0  0  0  0  0  0  0  0  0  0  0
   38.6730   33.0450   40.9970 H   0  0  0  0  0  0  0  0  0  0  0  0
   36.7040   31.2510   41.5570 H   0  0  0  0  0  0  0  0  0  0  0  0
   36.4130   32.7500   40.5260 H   0  0  0  0  0  0  0  0  0  0  0  0
   35.7360   31.4080   38.8260 H   0  0  0  0  0  0  0  0  0  0  0  0
   38.5180   30.1830   38.6920 H   0  0  0  0  0  0  0  0  0  0  0  0
   37.5610   31.1520   37.4600 H   0  0  0  0  0  0  0  0  0  0  0  0
   41.7580   31.8150   37.2170 C   0  0  0  0  0  0  0  0  0  0  0  0
   40.4350   31.5890   37.5800 C   0  0  0  0  0  0  0  0  0  0  0  0
   39.8700   32.4700   38.4940 C   0  0  0  0  0  0  0  0  0  0  0  0
   40.6220   33.5320   39.0140 N   0  0  0  0  0  0  0  0  0  0  0  0
   41.9110   33.7010   38.6210 C   0  0  0  0  0  0  0  0  0  0  0  0
   42.4730   32.8450   37.7260 N   0  0  0  0  0  0  0  0  0  0  0  0
   42.1790   31.1140   36.5000 H   0  0  0  0  0  0  0  0  0  0  0  0
   39.8280   30.7820   37.1990 H   0  0  0  0  0  0  0  0  0  0  0  0
   42.4630   34.5300   39.0420 H   0  0  0  0  0  0  0  0  0  0  0  0
   36.2860   29.5310   39.6250 C   0  0  2  0  0  0  0  0  0  0  0  0
   34.8820   29.2140   39.8440 C   0  0  0  0  0  0  0  0  0  0  0  0
   35.8800   29.0510   40.9460 C   0  0  1  0  0  0  0  0  0  0  0  0
   36.8880   28.8420   39.0070 H   0  0  0  0  0  0  0  0  0  0  0  0
   34.1580   30.0530   39.9760 H   0  0  0  0  0  0  0  0  0  0  0  0
   34.3640   28.3090   39.4600 H   0  0  0  0  0  0  0  0  0  0  0  0
   36.0090   29.7940   41.7550 H   0  0  0  0  0  0  0  0  0  0  0  0
   36.2390   27.7240   41.2940 O   0  0  0  0  0  0  0  0  0  0  0  0
   37.7280   29.1300   42.9060 O   0  0  0  0  0  0  0  0  0  0  0  0
   37.0860   27.7740   42.7450 P   0  0  1  0  0  0  0  0  0  0  0  0
   36.0040   27.5630   44.0580 O   0  0  0  0  0  0  0  0  0  0  0  0
   36.3870   27.0180   44.7680 H   0  0  0  0  0  0  0  0  0  0  0  0
   38.2620   26.6120   42.8990 O   0  0  0  0  0  0  0  0  0  0  0  0
   39.5350   27.1700   42.8950 C   0  0  0  0  0  2  0  0  0  0  0  0
   40.3860   26.6850   44.0350 C   0  0  0  0  0  2  0  0  0  0  0  0
   40.4260   27.3960   44.8750 H   0  0  0  0  0  0  0  0  0  0  0  0
  1  6  1  6  0  0  0
  1  2  1  0  0  0  0
  2  3  1  0  0  0  0
  2  7  1  0  0  0  0
  2  8  1  0  0  0  0
  3  9  1  0  0  0  0
  4 11  1  6  0  0  0
  4 23  1  0  0  0  0
  4  3  1  0  0  0  0
  5 12  1  0  0  0  0
  5  1  1  0  0  0  0
  5  4  1  0  0  0  0
 10  3  1  0  0  0  0
 13  5  1  0  0  0  0
 14 15  2  0  0  0  0
 14 19  1  0  0  0  0
 15 16  1  0  0  0  0
 16  1  1  0  0  0  0
 16 17  2  0  0  0  0
 18 17  1  0  0  0  0
 18 22  1  0  0  0  0
 19 18  2  0  0  0  0
 20 14  1  0  0  0  0
 21 15  1  0  0  0  0
 23 26  1  6  0  0  0
 23 24  1  0  0  0  0
 23 25  1  0  0  0  0
 24 27  1  0  0  0  0
 24 25  1  0  0  0  0
 25 30  1  0  0  0  0
 25 29  1  1  0  0  0
 28 24  1  0  0  0  0
 30 32  1  0  0  0  0
 32 35  1  0  0  0  0
 32 31  2  1  0  0  0
 32 33  1  0  0  0  0
 33 34  1  0  0  0  0
 36 35  1  0  0  0  0
 36 37  1  0  0  0  0
 37 38  1  0  0  0  0
M  END
>  <minimizedAffinity>
-5.06934977

$$$$
