
 OpenBabel03252504323D

 34 35  0  0  0  0  0  0  0  0999 V2000
   43.8400   35.1720   40.9960 C   0  0  0  0  0  3  0  0  0  0  0  0
   43.9150   35.6000   42.2510 C   0  0  0  0  0  3  0  0  0  0  0  0
   45.1630   35.6110   43.1160 C   0  0  0  0  0  0  0  0  0  0  0  0
   45.9730   35.2260   42.4550 H   0  0  0  0  0  0  0  0  0  0  0  0
   45.3920   36.6340   43.4760 H   0  0  0  0  0  0  0  0  0  0  0  0
   44.9450   34.7410   44.1630 O   0  0  0  0  0  0  0  0  0  0  0  0
   45.7060   32.5850   42.7960 O   0  0  0  0  0  0  0  0  0  0  0  0
   45.9490   33.3910   44.0500 P   0  0  1  0  0  0  0  0  0  0  0  0
   47.5820   33.8840   44.0140 O   0  0  0  0  0  0  0  0  0  0  0  0
   47.7100   34.7430   44.4890 H   0  0  0  0  0  0  0  0  0  0  0  0
   45.7600   32.4120   45.4120 O   0  0  0  0  0  0  0  0  0  0  0  0
   46.0690   33.0760   46.5820 C   0  0  0  0  0  0  0  0  0  0  0  0
   46.9820   32.4040   47.5630 C   0  0  0  0  0  0  0  0  0  0  0  0
   45.4990   32.4740   47.8440 C   0  0  0  0  0  0  0  0  0  0  0  0
   46.1430   34.1810   46.5360 H   0  0  0  0  0  0  0  0  0  0  0  0
   47.3520   31.4090   47.2420 H   0  0  0  0  0  0  0  0  0  0  0  0
   47.6050   33.0040   48.2360 H   0  0  0  0  0  0  0  0  0  0  0  0
   45.1310   33.1230   48.6550 H   0  0  0  0  0  0  0  0  0  0  0  0
   44.9210   31.5320   47.7710 H   0  0  0  0  0  0  0  0  0  0  0  0
   42.5910   35.2540   40.4010 O   0  0  0  0  0  0  0  0  0  0  0  0
   41.4010   35.5920   40.9780 C   0  0  0  0  0  0  0  0  0  0  0  0
   41.4030   35.8420   42.0600 H   0  0  0  0  0  0  0  0  0  0  0  0
   40.9530   36.4630   40.4530 H   0  0  0  0  0  0  0  0  0  0  0  0
   40.6960   33.3410   41.6320 C   0  0  0  0  0  0  0  0  0  0  0  0
   40.3780   34.4970   40.8820 C   0  0  0  0  0  0  0  0  0  0  0  0
   39.2120   34.4910   40.1840 C   0  0  0  0  0  0  0  0  0  0  0  0
   38.4630   33.4030   40.2590 N   0  0  0  0  0  0  0  0  0  0  0  0
   38.7500   32.3200   40.9550 C   0  0  0  0  0  0  0  0  0  0  0  0
   39.9270   32.2470   41.6970 N   0  0  0  0  0  0  0  0  0  0  0  0
   41.5970   33.2380   42.2240 H   0  0  0  0  0  0  0  0  0  0  0  0
   39.0190   35.4060   39.6260 H   0  0  0  0  0  0  0  0  0  0  0  0
   37.8290   31.1590   40.9610 C   0  0  0  0  0  2  0  0  0  0  0  0
   38.5170   29.9590   41.6070 C   0  0  0  0  0  2  0  0  0  0  0  0
   39.5970   30.1920   41.8310 H   0  0  0  0  0  0  0  0  0  0  0  0
  1  2  2  0  0  0  0
  2  3  1  0  0  0  0
  3  5  1  0  0  0  0
  3  6  1  0  0  0  0
  4  3  1  0  0  0  0
  8  7  2  6  0  0  0
  8  6  1  0  0  0  0
  8 11  1  0  0  0  0
  9  8  1  0  0  0  0
  9 10  1  0  0  0  0
 11 12  1  0  0  0  0
 12 13  1  0  0  0  0
 12 14  1  0  0  0  0
 13 14  1  0  0  0  0
 13 17  1  0  0  0  0
 14 18  1  0  0  0  0
 15 12  1  0  0  0  0
 16 13  1  0  0  0  0
 19 14  1  0  0  0  0
 20 21  1  0  0  0  0
 20  1  1  0  0  0  0
 21 22  1  0  0  0  0
 23 21  1  0  0  0  0
 24 29  1  0  0  0  0
 24 30  1  0  0  0  0
 25 21  1  0  0  0  0
 25 24  2  0  0  0  0
 26 27  2  0  0  0  0
 26 25  1  0  0  0  0
 27 28  1  0  0  0  0
 28 32  1  0  0  0  0
 28 29  2  0  0  0  0
 31 26  1  0  0  0  0
 32 33  1  0  0  0  0
 33 34  1  0  0  0  0
M  END
>  <minimizedAffinity>
-4.69396734

>  <minimizedRMSD>
0.598767221

$$$$
