
 OpenBabel03252501053D

 34 36  0  0  1  0  0  0  0  0999 V2000
   47.7450   34.0480   39.7690 O   0  0  0  0  0  0  0  0  0  0  0  0
   47.9730   35.4080   41.7580 C   0  0  1  0  0  0  0  0  0  0  0  0
   49.2350   34.6610   41.6830 C   0  0  0  0  0  0  0  0  0  0  0  0
   48.4210   35.0130   40.4240 C   0  0  1  0  0  0  0  0  0  0  0  0
   47.9620   36.4630   42.0700 H   0  0  0  0  0  0  0  0  0  0  0  0
   50.1960   35.1680   41.8220 H   0  0  0  0  0  0  0  0  0  0  0  0
   49.2410   33.5460   41.8500 H   0  0  0  0  0  0  0  0  0  0  0  0
   48.9460   35.7480   39.7860 H   0  0  0  0  0  0  0  0  0  0  0  0
   45.9470   32.9490   43.8100 C   0  0  0  0  0  0  0  0  0  0  0  0
   47.0340   33.6590   43.3090 C   0  0  0  0  0  0  0  0  0  0  0  0
   46.8130   34.6400   42.3250 C   0  0  0  0  0  0  0  0  0  0  0  0
   45.5460   34.8640   41.8930 N   0  0  0  0  0  0  0  0  0  0  0  0
   44.5010   34.1620   42.3930 C   0  0  0  0  0  0  0  0  0  0  0  0
   44.7010   33.2060   43.3510 N   0  0  0  0  0  0  0  0  0  0  0  0
   46.1030   32.1950   44.5650 H   0  0  0  0  0  0  0  0  0  0  0  0
   48.0030   33.4410   43.6840 H   0  0  0  0  0  0  0  0  0  0  0  0
   43.5170   34.3970   41.9990 H   0  0  0  0  0  0  0  0  0  0  0  0
   48.6160   32.3260   37.9880 O   0  0  0  0  0  0  0  0  0  0  0  0
   48.1160   33.7550   38.2040 P   0  0  2  0  0  0  0  0  0  0  0  0
   49.3250   34.7540   37.5590 O   0  0  0  0  0  0  0  0  0  0  0  0
   50.2070   34.3370   37.5550 H   0  0  0  0  0  0  0  0  0  0  0  0
   46.7690   33.8950   37.2150 O   0  0  0  0  0  0  0  0  0  0  0  0
   45.6970   33.0190   37.2350 C   0  0  0  0  0  0  0  0  0  0  0  0
   45.4790   31.8950   36.4620 C   0  0  0  0  0  0  0  0  0  0  0  0
   44.3630   31.1270   36.6010 C   0  0  0  0  0  0  0  0  0  0  0  0
   43.4090   31.4610   37.5340 C   0  0  0  0  0  0  0  0  0  0  0  0
   43.6610   32.6040   38.3000 C   0  0  0  0  0  0  0  0  0  0  0  0
   44.7740   33.3490   38.1440 N   0  0  0  0  0  0  0  0  0  0  0  0
   46.2810   31.6990   35.7460 H   0  0  0  0  0  0  0  0  0  0  0  0
   44.2860   30.2660   35.9460 H   0  0  0  0  0  0  0  0  0  0  0  0
   42.5510   30.8410   37.6170 H   0  0  0  0  0  0  0  0  0  0  0  0
   42.6280   32.9870   39.3280 C   0  0  0  0  0  2  0  0  0  0  0  0
   42.3620   34.4540   39.3240 C   0  0  0  0  0  2  0  0  0  0  0  0
   43.3040   34.9990   39.4990 H   0  0  0  0  0  0  0  0  0  0  0  0
  1  4  1  0  0  0  0
  2  5  1  1  0  0  0
  2 11  1  0  0  0  0
  3  2  1  0  0  0  0
  3  6  1  0  0  0  0
  3  7  1  0  0  0  0
  4  8  1  6  0  0  0
  4  3  1  0  0  0  0
  4  2  1  0  0  0  0
  9 15  1  0  0  0  0
 10 16  1  0  0  0  0
 10  9  2  0  0  0  0
 11 10  1  0  0  0  0
 12 11  2  0  0  0  0
 12 13  1  0  0  0  0
 13 14  2  0  0  0  0
 14  9  1  0  0  0  0
 17 13  1  0  0  0  0
 19 18  2  6  0  0  0
 19  1  1  0  0  0  0
 20 19  1  0  0  0  0
 21 20  1  0  0  0  0
 22 23  1  0  0  0  0
 22 19  1  0  0  0  0
 23 28  1  0  0  0  0
 24 25  1  0  0  0  0
 24 23  2  0  0  0  0
 25 26  2  0  0  0  0
 26 31  1  0  0  0  0
 26 27  1  0  0  0  0
 27 32  1  0  0  0  0
 28 27  2  0  0  0  0
 29 24  1  0  0  0  0
 30 25  1  0  0  0  0
 33 32  1  0  0  0  0
 33 34  1  0  0  0  0
M  END
>  <minimizedAffinity>
-4.43266392

>  <minimizedRMSD>
0.58170265

$$$$
