
 OpenBabel03252501053D

 34 36  0  0  1  0  0  0  0  0999 V2000
   47.7570   34.0350   39.7750 O   0  0  0  0  0  0  0  0  0  0  0  0
   47.9600   35.4000   41.7630 C   0  0  1  0  0  0  0  0  0  0  0  0
   49.2230   34.6550   41.7050 C   0  0  0  0  0  0  0  0  0  0  0  0
   48.4240   35.0020   40.4360 C   0  0  1  0  0  0  0  0  0  0  0  0
   47.9430   36.4560   42.0730 H   0  0  0  0  0  0  0  0  0  0  0  0
   50.1820   35.1630   41.8540 H   0  0  0  0  0  0  0  0  0  0  0  0
   49.2290   33.5410   41.8740 H   0  0  0  0  0  0  0  0  0  0  0  0
   48.9550   35.7380   39.8020 H   0  0  0  0  0  0  0  0  0  0  0  0
   45.9140   32.9340   43.7880 C   0  0  0  0  0  0  0  0  0  0  0  0
   47.0060   33.6450   43.2990 C   0  0  0  0  0  0  0  0  0  0  0  0
   46.7940   34.6320   42.3180 C   0  0  0  0  0  0  0  0  0  0  0  0
   45.5300   34.8600   41.8790 N   0  0  0  0  0  0  0  0  0  0  0  0
   44.4800   34.1570   42.3680 C   0  0  0  0  0  0  0  0  0  0  0  0
   44.6710   33.1960   43.3220 N   0  0  0  0  0  0  0  0  0  0  0  0
   46.0630   32.1760   44.5400 H   0  0  0  0  0  0  0  0  0  0  0  0
   47.9720   33.4230   43.6800 H   0  0  0  0  0  0  0  0  0  0  0  0
   43.5000   34.3970   41.9680 H   0  0  0  0  0  0  0  0  0  0  0  0
   48.5870   32.3490   37.9420 O   0  0  0  0  0  0  0  0  0  0  0  0
   48.1080   33.7780   38.1990 P   0  0  2  0  0  0  0  0  0  0  0  0
   49.3230   34.7780   37.5660 O   0  0  0  0  0  0  0  0  0  0  0  0
   50.1990   34.3500   37.5420 H   0  0  0  0  0  0  0  0  0  0  0  0
   46.7530   33.9600   37.2280 O   0  0  0  0  0  0  0  0  0  0  0  0
   45.7020   33.0580   37.1850 C   0  0  0  0  0  0  0  0  0  0  0  0
   45.4840   32.0210   36.3000 C   0  0  0  0  0  0  0  0  0  0  0  0
   44.3920   31.2120   36.3870 C   0  0  0  0  0  0  0  0  0  0  0  0
   43.4630   31.4160   37.3800 C   0  0  0  0  0  0  0  0  0  0  0  0
   43.7130   32.4750   38.2590 C   0  0  0  0  0  0  0  0  0  0  0  0
   44.8030   33.2620   38.1530 N   0  0  0  0  0  0  0  0  0  0  0  0
   46.2670   31.9260   35.5420 H   0  0  0  0  0  0  0  0  0  0  0  0
   44.3130   30.4270   35.6430 H   0  0  0  0  0  0  0  0  0  0  0  0
   42.6230   30.7680   37.4210 H   0  0  0  0  0  0  0  0  0  0  0  0
   42.7070   32.7150   39.3550 C   0  0  0  0  0  2  0  0  0  0  0  0
   42.6350   31.5660   40.3010 C   0  0  0  0  0  2  0  0  0  0  0  0
   42.3880   30.6470   39.7440 H   0  0  0  0  0  0  0  0  0  0  0  0
  1  4  1  0  0  0  0
  2  5  1  1  0  0  0
  2 11  1  0  0  0  0
  3  2  1  0  0  0  0
  3  6  1  0  0  0  0
  3  7  1  0  0  0  0
  4  8  1  6  0  0  0
  4  3  1  0  0  0  0
  4  2  1  0  0  0  0
  9 15  1  0  0  0  0
 10 16  1  0  0  0  0
 10  9  2  0  0  0  0
 11 10  1  0  0  0  0
 12 11  2  0  0  0  0
 12 13  1  0  0  0  0
 13 14  2  0  0  0  0
 14  9  1  0  0  0  0
 17 13  1  0  0  0  0
 19 18  2  6  0  0  0
 19  1  1  0  0  0  0
 20 19  1  0  0  0  0
 21 20  1  0  0  0  0
 22 19  1  0  0  0  0
 23 22  1  0  0  0  0
 23 28  1  0  0  0  0
 24 25  1  0  0  0  0
 24 23  2  0  0  0  0
 25 26  2  0  0  0  0
 26 31  1  0  0  0  0
 26 27  1  0  0  0  0
 27 32  1  0  0  0  0
 28 27  2  0  0  0  0
 29 24  1  0  0  0  0
 30 25  1  0  0  0  0
 32 33  1  0  0  0  0
 34 33  1  0  0  0  0
M  END
>  <minimizedAffinity>
-4.29263926

>  <minimizedRMSD>
0.421873569

$$$$
