
 OpenBabel03252501093D

 34 36  0  0  1  0  0  0  0  0999 V2000
   37.1290   29.3890   39.5970 O   0  0  0  0  0  0  0  0  0  0  0  0
   37.2610   30.6930   37.5630 C   0  0  1  0  0  0  0  0  0  0  0  0
   38.1320   29.5390   37.3100 C   0  0  0  0  0  0  0  0  0  0  0  0
   36.9280   29.4560   38.2660 C   0  0  1  0  0  0  0  0  0  0  0  0
   36.6140   31.0940   36.7690 H   0  0  0  0  0  0  0  0  0  0  0  0
   38.0680   28.9830   36.3670 H   0  0  0  0  0  0  0  0  0  0  0  0
   39.0970   29.4240   37.8810 H   0  0  0  0  0  0  0  0  0  0  0  0
   36.1290   28.8020   37.8680 H   0  0  0  0  0  0  0  0  0  0  0  0
   39.8280   32.8990   39.2690 C   0  0  0  0  0  0  0  0  0  0  0  0
   39.2780   31.8900   38.4830 C   0  0  0  0  0  0  0  0  0  0  0  0
   37.8780   31.7840   38.3920 C   0  0  0  0  0  0  0  0  0  0  0  0
   37.1060   32.6680   39.0740 N   0  0  0  0  0  0  0  0  0  0  0  0
   37.6610   33.6430   39.8330 C   0  0  0  0  0  0  0  0  0  0  0  0
   39.0200   33.7590   39.9300 N   0  0  0  0  0  0  0  0  0  0  0  0
   40.9000   32.9920   39.3470 H   0  0  0  0  0  0  0  0  0  0  0  0
   39.9310   31.2270   37.9730 H   0  0  0  0  0  0  0  0  0  0  0  0
   36.9790   34.3130   40.3480 H   0  0  0  0  0  0  0  0  0  0  0  0
   34.5220   29.2240   39.8550 O   0  0  0  0  0  0  0  0  0  0  0  0
   35.8360   29.4860   40.5920 P   0  0  2  0  0  0  0  0  0  0  0  0
   35.6310   30.9890   41.3500 O   0  0  0  0  0  0  0  0  0  0  0  0
   34.9780   31.5590   40.9030 H   0  0  0  0  0  0  0  0  0  0  0  0
   35.8950   28.3210   41.7960 O   0  0  0  0  0  0  0  0  0  0  0  0
   37.0670   27.7700   42.2860 C   0  0  0  0  0  0  0  0  0  0  0  0
   38.0880   28.3810   42.9870 C   0  0  0  0  0  0  0  0  0  0  0  0
   39.1900   27.6990   43.4040 C   0  0  0  0  0  0  0  0  0  0  0  0
   39.3120   26.3570   43.1310 C   0  0  0  0  0  0  0  0  0  0  0  0
   38.2620   25.7680   42.4190 C   0  0  0  0  0  0  0  0  0  0  0  0
   37.1800   26.4650   42.0160 N   0  0  0  0  0  0  0  0  0  0  0  0
   37.9150   29.4470   43.1630 H   0  0  0  0  0  0  0  0  0  0  0  0
   39.9340   28.2710   43.9470 H   0  0  0  0  0  0  0  0  0  0  0  0
   40.1830   25.8530   43.4700 H   0  0  0  0  0  0  0  0  0  0  0  0
   38.3760   24.2980   42.1090 C   0  0  0  0  0  2  0  0  0  0  0  0
   37.2730   23.8330   41.2220 C   0  0  0  0  0  2  0  0  0  0  0  0
   36.3020   24.0550   41.6950 H   0  0  0  0  0  0  0  0  0  0  0  0
  1 19  1  0  0  0  0
  2  5  1  6  0  0  0
  2  4  1  0  0  0  0
  2 11  1  0  0  0  0
  3  2  1  0  0  0  0
  3  7  1  0  0  0  0
  3  4  1  0  0  0  0
  4  8  1  6  0  0  0
  4  1  1  0  0  0  0
  6  3  1  0  0  0  0
  9 15  1  0  0  0  0
  9 14  1  0  0  0  0
 10  9  2  0  0  0  0
 11 10  1  0  0  0  0
 11 12  2  0  0  0  0
 12 13  1  0  0  0  0
 13 14  2  0  0  0  0
 13 17  1  0  0  0  0
 16 10  1  0  0  0  0
 19 18  2  6  0  0  0
 19 20  1  0  0  0  0
 19 22  1  0  0  0  0
 21 20  1  0  0  0  0
 22 23  1  0  0  0  0
 23 24  1  0  0  0  0
 24 29  1  0  0  0  0
 24 25  2  0  0  0  0
 25 30  1  0  0  0  0
 26 25  1  0  0  0  0
 26 31  1  0  0  0  0
 27 26  2  0  0  0  0
 28 23  2  0  0  0  0
 28 27  1  0  0  0  0
 32 27  1  0  0  0  0
 33 34  1  0  0  0  0
 33 32  1  0  0  0  0
M  END
>  <minimizedAffinity>
-5.82516861

$$$$

 OpenBabel03252501093D

 34 36  0  0  1  0  0  0  0  0999 V2000
   37.4830   29.6310   39.8390 O   0  0  0  0  0  0  0  0  0  0  0  0
   37.3270   31.0660   37.8960 C   0  0  1  0  0  0  0  0  0  0  0  0
   38.1530   29.9380   37.4480 C   0  0  0  0  0  0  0  0  0  0  0  0
   37.0960   29.7830   38.5570 C   0  0  1  0  0  0  0  0  0  0  0  0
   36.5740   31.5120   37.2290 H   0  0  0  0  0  0  0  0  0  0  0  0
   37.9570   29.4440   36.4900 H   0  0  0  0  0  0  0  0  0  0  0  0
   39.1890   29.7960   37.8690 H   0  0  0  0  0  0  0  0  0  0  0  0
   36.2490   29.1490   38.2330 H   0  0  0  0  0  0  0  0  0  0  0  0
   40.1150   33.1300   39.4230 C   0  0  0  0  0  0  0  0  0  0  0  0
   39.4600   32.1680   38.6600 C   0  0  0  0  0  0  0  0  0  0  0  0
   38.0550   32.1060   38.6990 C   0  0  0  0  0  0  0  0  0  0  0  0
   37.3810   32.9860   39.4820 N   0  0  0  0  0  0  0  0  0  0  0  0
   38.0370   33.9160   40.2180 C   0  0  0  0  0  0  0  0  0  0  0  0
   39.4020   33.9880   40.1890 N   0  0  0  0  0  0  0  0  0  0  0  0
   41.1920   33.1880   39.4010 H   0  0  0  0  0  0  0  0  0  0  0  0
   40.0400   31.5060   38.0660 H   0  0  0  0  0  0  0  0  0  0  0  0
   37.4290   34.5850   40.8190 H   0  0  0  0  0  0  0  0  0  0  0  0
   35.1460   28.7570   40.6540 O   0  0  0  0  0  0  0  0  0  0  0  0
   36.3420   29.6410   41.0090 P   0  0  2  0  0  0  0  0  0  0  0  0
   35.6840   31.1670   41.3510 O   0  0  0  0  0  0  0  0  0  0  0  0
   34.8310   31.3260   40.9070 H   0  0  0  0  0  0  0  0  0  0  0  0
   36.9290   29.0140   42.4490 O   0  0  0  0  0  0  0  0  0  0  0  0
   37.6940   27.8620   42.5390 C   0  0  0  0  0  0  0  0  0  0  0  0
   37.3480   26.5640   42.2220 C   0  0  0  0  0  0  0  0  0  0  0  0
   38.2180   25.5260   42.3670 C   0  0  0  0  0  0  0  0  0  0  0  0
   39.4880   25.7560   42.8420 C   0  0  0  0  0  0  0  0  0  0  0  0
   39.8060   27.0820   43.1540 C   0  0  0  0  0  0  0  0  0  0  0  0
   38.9260   28.0920   43.0020 N   0  0  0  0  0  0  0  0  0  0  0  0
   36.3230   26.4650   41.8520 H   0  0  0  0  0  0  0  0  0  0  0  0
   37.8490   24.5450   42.0900 H   0  0  0  0  0  0  0  0  0  0  0  0
   40.1430   24.9260   42.9440 H   0  0  0  0  0  0  0  0  0  0  0  0
   41.1930   27.3550   43.6770 C   0  0  0  0  0  2  0  0  0  0  0  0
   41.8070   28.5430   43.0200 C   0  0  0  0  0  2  0  0  0  0  0  0
   41.8270   28.3900   41.9280 H   0  0  0  0  0  0  0  0  0  0  0  0
  1 19  1  0  0  0  0
  2  5  1  6  0  0  0
  2  4  1  0  0  0  0
  2 11  1  0  0  0  0
  3  7  1  0  0  0  0
  3  2  1  0  0  0  0
  3  4  1  0  0  0  0
  4  8  1  6  0  0  0
  4  1  1  0  0  0  0
  6  3  1  0  0  0  0
  9 14  1  0  0  0  0
 10 11  1  0  0  0  0
 10  9  2  0  0  0  0
 11 12  2  0  0  0  0
 12 13  1  0  0  0  0
 13 17  1  0  0  0  0
 14 13  2  0  0  0  0
 15  9  1  0  0  0  0
 16 10  1  0  0  0  0
 19 18  2  6  0  0  0
 19 20  1  0  0  0  0
 19 22  1  0  0  0  0
 21 20  1  0  0  0  0
 22 23  1  0  0  0  0
 23 28  1  0  0  0  0
 24 25  1  0  0  0  0
 24 23  2  0  0  0  0
 25 26  2  0  0  0  0
 26 31  1  0  0  0  0
 26 27  1  0  0  0  0
 27 32  1  0  0  0  0
 28 27  2  0  0  0  0
 29 24  1  0  0  0  0
 30 25  1  0  0  0  0
 33 32  1  0  0  0  0
 34 33  1  0  0  0  0
M  END
>  <minimizedAffinity>
-5.41581106

$$$$

 OpenBabel03252501093D

 34 36  0  0  1  0  0  0  0  0999 V2000
   37.7160   30.7620   40.9050 O   0  0  0  0  0  0  0  0  0  0  0  0
   37.4070   32.7260   39.5260 C   0  0  1  0  0  0  0  0  0  0  0  0
   36.9400   31.6170   38.6860 C   0  0  0  0  0  0  0  0  0  0  0  0
   36.8710   31.5600   40.2230 C   0  0  1  0  0  0  0  0  0  0  0  0
   36.8770   33.6910   39.5300 H   0  0  0  0  0  0  0  0  0  0  0  0
   35.9930   31.6870   38.1390 H   0  0  0  0  0  0  0  0  0  0  0  0
   37.6750   30.8570   38.2960 H   0  0  0  0  0  0  0  0  0  0  0  0
   35.8270   31.5770   40.5890 H   0  0  0  0  0  0  0  0  0  0  0  0
   40.8540   33.9370   40.5330 C   0  0  0  0  0  0  0  0  0  0  0  0
   39.4720   33.7770   40.5150 C   0  0  0  0  0  0  0  0  0  0  0  0
   38.8980   32.9030   39.5740 C   0  0  0  0  0  0  0  0  0  0  0  0
   39.7110   32.2430   38.7100 N   0  0  0  0  0  0  0  0  0  0  0  0
   41.0550   32.4120   38.7430 C   0  0  0  0  0  0  0  0  0  0  0  0
   41.6260   33.2580   39.6530 N   0  0  0  0  0  0  0  0  0  0  0  0
   41.3060   34.6040   41.2500 H   0  0  0  0  0  0  0  0  0  0  0  0
   38.8860   34.3200   41.2150 H   0  0  0  0  0  0  0  0  0  0  0  0
   41.6380   31.8500   38.0210 H   0  0  0  0  0  0  0  0  0  0  0  0
   35.6910   29.1090   41.1480 O   0  0  0  0  0  0  0  0  0  0  0  0
   37.1310   29.3920   41.5770 P   0  0  2  0  0  0  0  0  0  0  0  0
   37.1010   29.3860   43.2730 O   0  0  0  0  0  0  0  0  0  0  0  0
   36.2270   29.6080   43.6430 H   0  0  0  0  0  0  0  0  0  0  0  0
   38.0000   28.0440   41.0870 O   0  0  0  0  0  0  0  0  0  0  0  0
   37.5270   26.7450   41.1660 C   0  0  0  0  0  0  0  0  0  0  0  0
   37.5110   25.8910   42.2510 C   0  0  0  0  0  0  0  0  0  0  0  0
   37.0070   24.6280   42.1710 C   0  0  0  0  0  0  0  0  0  0  0  0
   36.4930   24.1670   40.9820 C   0  0  0  0  0  0  0  0  0  0  0  0
   36.5250   25.0560   39.9030 C   0  0  0  0  0  0  0  0  0  0  0  0
   37.0290   26.3030   40.0060 N   0  0  0  0  0  0  0  0  0  0  0  0
   37.9370   26.3320   43.1560 H   0  0  0  0  0  0  0  0  0  0  0  0
   37.0410   24.0370   43.0800 H   0  0  0  0  0  0  0  0  0  0  0  0
   36.1080   23.1780   40.9520 H   0  0  0  0  0  0  0  0  0  0  0  0
   35.9660   24.5710   38.5900 C   0  0  0  0  0  2  0  0  0  0  0  0
   36.0990   25.5980   37.5190 C   0  0  0  0  0  2  0  0  0  0  0  0
   35.5960   26.5260   37.8350 H   0  0  0  0  0  0  0  0  0  0  0  0
  1 19  1  0  0  0  0
  2  5  1  1  0  0  0
  2 11  1  0  0  0  0
  2  4  1  0  0  0  0
  3  2  1  0  0  0  0
  3  4  1  0  0  0  0
  4  8  1  1  0  0  0
  4  1  1  0  0  0  0
  6  3  1  0  0  0  0
  7  3  1  0  0  0  0
  9 15  1  0  0  0  0
 10  9  1  0  0  0  0
 10 16  1  0  0  0  0
 11 10  2  0  0  0  0
 12 13  2  0  0  0  0
 12 11  1  0  0  0  0
 13 14  1  0  0  0  0
 14  9  2  0  0  0  0
 17 13  1  0  0  0  0
 19 18  2  6  0  0  0
 19 20  1  0  0  0  0
 20 21  1  0  0  0  0
 22 23  1  0  0  0  0
 22 19  1  0  0  0  0
 23 24  1  0  0  0  0
 24 29  1  0  0  0  0
 25 24  2  0  0  0  0
 25 30  1  0  0  0  0
 26 25  1  0  0  0  0
 27 28  1  0  0  0  0
 27 26  2  0  0  0  0
 28 23  2  0  0  0  0
 31 26  1  0  0  0  0
 32 27  1  0  0  0  0
 33 34  1  0  0  0  0
 33 32  1  0  0  0  0
M  END
>  <minimizedAffinity>
-5.27565718

$$$$

 OpenBabel03252501093D

 34 36  0  0  1  0  0  0  0  0999 V2000
   37.6440   29.8990   39.8950 O   0  0  0  0  0  0  0  0  0  0  0  0
   37.3620   31.6250   38.2240 C   0  0  1  0  0  0  0  0  0  0  0  0
   37.9560   30.5030   37.4880 C   0  0  0  0  0  0  0  0  0  0  0  0
   37.0790   30.2860   38.7350 C   0  0  1  0  0  0  0  0  0  0  0  0
   36.5740   32.2430   37.7670 H   0  0  0  0  0  0  0  0  0  0  0  0
   37.5480   30.1860   36.5210 H   0  0  0  0  0  0  0  0  0  0  0  0
   39.0190   30.1920   37.6950 H   0  0  0  0  0  0  0  0  0  0  0  0
   36.1180   29.7990   38.4830 H   0  0  0  0  0  0  0  0  0  0  0  0
   40.6000   33.0950   39.5350 C   0  0  0  0  0  0  0  0  0  0  0  0
   39.7150   32.3340   38.7770 C   0  0  0  0  0  0  0  0  0  0  0  0
   38.3340   32.4490   39.0190 C   0  0  0  0  0  0  0  0  0  0  0  0
   37.9060   33.3000   39.9860 N   0  0  0  0  0  0  0  0  0  0  0  0
   38.7830   34.0330   40.7130 C   0  0  0  0  0  0  0  0  0  0  0  0
   40.1280   33.9310   40.4880 N   0  0  0  0  0  0  0  0  0  0  0  0
   41.6610   33.0160   39.3590 H   0  0  0  0  0  0  0  0  0  0  0  0
   40.1080   31.6850   38.0340 H   0  0  0  0  0  0  0  0  0  0  0  0
   38.3650   34.6920   41.4680 H   0  0  0  0  0  0  0  0  0  0  0  0
   35.8660   28.4840   41.2100 O   0  0  0  0  0  0  0  0  0  0  0  0
   36.6990   29.7660   41.2220 P   0  0  2  0  0  0  0  0  0  0  0  0
   35.5800   31.0240   41.4290 O   0  0  0  0  0  0  0  0  0  0  0  0
   34.6850   30.7990   41.1130 H   0  0  0  0  0  0  0  0  0  0  0  0
   37.6130   29.6730   42.6250 O   0  0  0  0  0  0  0  0  0  0  0  0
   38.9900   29.8170   42.6640 C   0  0  0  0  0  0  0  0  0  0  0  0
   39.7450   30.9710   42.5930 C   0  0  0  0  0  0  0  0  0  0  0  0
   41.1050   30.9510   42.6450 C   0  0  0  0  0  0  0  0  0  0  0  0
   41.7710   29.7550   42.7720 C   0  0  0  0  0  0  0  0  0  0  0  0
   40.9780   28.6050   42.8400 C   0  0  0  0  0  0  0  0  0  0  0  0
   39.6310   28.6500   42.7870 N   0  0  0  0  0  0  0  0  0  0  0  0
   39.1420   31.8780   42.4930 H   0  0  0  0  0  0  0  0  0  0  0  0
   41.6050   31.9120   42.5810 H   0  0  0  0  0  0  0  0  0  0  0  0
   42.8320   29.7730   42.8100 H   0  0  0  0  0  0  0  0  0  0  0  0
   41.6880   27.2830   42.9800 C   0  0  0  0  0  2  0  0  0  0  0  0
   42.6050   27.0250   41.8350 C   0  0  0  0  0  2  0  0  0  0  0  0
   42.0350   27.0610   40.8920 H   0  0  0  0  0  0  0  0  0  0  0  0
  1 19  1  0  0  0  0
  2  5  1  6  0  0  0
  2  4  1  0  0  0  0
  2 11  1  0  0  0  0
  3  7  1  0  0  0  0
  3  2  1  0  0  0  0
  3  4  1  0  0  0  0
  4  8  1  6  0  0  0
  4  1  1  0  0  0  0
  6  3  1  0  0  0  0
  9 14  1  0  0  0  0
 10 11  1  0  0  0  0
 10  9  2  0  0  0  0
 11 12  2  0  0  0  0
 12 13  1  0  0  0  0
 13 17  1  0  0  0  0
 14 13  2  0  0  0  0
 15  9  1  0  0  0  0
 16 10  1  0  0  0  0
 19 18  2  6  0  0  0
 19 20  1  0  0  0  0
 19 22  1  0  0  0  0
 21 20  1  0  0  0  0
 22 23  1  0  0  0  0
 23 28  1  0  0  0  0
 24 25  1  0  0  0  0
 24 23  2  0  0  0  0
 25 26  2  0  0  0  0
 26 31  1  0  0  0  0
 26 27  1  0  0  0  0
 27 32  1  0  0  0  0
 28 27  2  0  0  0  0
 29 24  1  0  0  0  0
 30 25  1  0  0  0  0
 33 32  1  0  0  0  0
 34 33  1  0  0  0  0
M  END
>  <minimizedAffinity>
-5.24949503

$$$$

 OpenBabel03252501093D

 34 36  0  0  1  0  0  0  0  0999 V2000
   36.6620   28.1830   41.0120 O   0  0  0  0  0  0  0  0  0  0  0  0
   36.8270   27.0010   43.1160 C   0  0  1  0  0  0  0  0  0  0  0  0
   37.5950   28.2330   43.3320 C   0  0  0  0  0  0  0  0  0  0  0  0
   36.4210   28.1680   42.3380 C   0  0  1  0  0  0  0  0  0  0  0  0
   36.1860   26.5900   43.9110 H   0  0  0  0  0  0  0  0  0  0  0  0
   37.4560   28.8290   44.2410 H   0  0  0  0  0  0  0  0  0  0  0  0
   38.5670   28.3940   42.7850 H   0  0  0  0  0  0  0  0  0  0  0  0
   35.5610   28.7760   42.6760 H   0  0  0  0  0  0  0  0  0  0  0  0
   37.5570   23.7810   41.2550 C   0  0  0  0  0  0  0  0  0  0  0  0
   36.8610   24.7760   41.9350 C   0  0  0  0  0  0  0  0  0  0  0  0
   37.5540   25.9210   42.3670 C   0  0  0  0  0  0  0  0  0  0  0  0
   38.8830   26.0200   42.1080 N   0  0  0  0  0  0  0  0  0  0  0  0
   39.5440   25.0410   41.4450 C   0  0  0  0  0  0  0  0  0  0  0  0
   38.8820   23.9220   41.0190 N   0  0  0  0  0  0  0  0  0  0  0  0
   37.0370   22.8980   40.9190 H   0  0  0  0  0  0  0  0  0  0  0  0
   35.8220   24.6430   42.1080 H   0  0  0  0  0  0  0  0  0  0  0  0
   40.6050   25.1920   41.2750 H   0  0  0  0  0  0  0  0  0  0  0  0
   34.4140   29.0780   39.9920 O   0  0  0  0  0  0  0  0  0  0  0  0
   35.9220   29.3150   40.0930 P   0  0  2  0  0  0  0  0  0  0  0  0
   36.4680   29.4010   38.4890 O   0  0  0  0  0  0  0  0  0  0  0  0
   35.8970   28.9200   37.8620 H   0  0  0  0  0  0  0  0  0  0  0  0
   36.0750   30.8460   40.7570 O   0  0  0  0  0  0  0  0  0  0  0  0
   37.2070   31.6350   40.6370 C   0  0  0  0  0  0  0  0  0  0  0  0
   37.3820   32.8000   39.9180 C   0  0  0  0  0  0  0  0  0  0  0  0
   38.5690   33.4680   39.8980 C   0  0  0  0  0  0  0  0  0  0  0  0
   39.6420   32.9840   40.6080 C   0  0  0  0  0  0  0  0  0  0  0  0
   39.4330   31.8010   41.3240 C   0  0  0  0  0  0  0  0  0  0  0  0
   38.2470   31.1580   41.3300 N   0  0  0  0  0  0  0  0  0  0  0  0
   36.4830   33.1180   39.3820 H   0  0  0  0  0  0  0  0  0  0  0  0
   38.6020   34.3740   39.3020 H   0  0  0  0  0  0  0  0  0  0  0  0
   40.5540   33.5270   40.5720 H   0  0  0  0  0  0  0  0  0  0  0  0
   40.5970   31.2540   42.1100 C   0  0  0  0  0  2  0  0  0  0  0  0
   40.7070   29.7740   41.9740 C   0  0  0  0  0  2  0  0  0  0  0  0
   39.7650   29.3030   42.2990 H   0  0  0  0  0  0  0  0  0  0  0  0
  1  4  1  0  0  0  0
  2  3  1  0  0  0  0
  2  5  1  1  0  0  0
  3  6  1  0  0  0  0
  4  8  1  1  0  0  0
  4  2  1  0  0  0  0
  4  3  1  0  0  0  0
  7  3  1  0  0  0  0
  9 10  1  0  0  0  0
 10 16  1  0  0  0  0
 10 11  2  0  0  0  0
 11  2  1  0  0  0  0
 12 11  1  0  0  0  0
 13 12  2  0  0  0  0
 14  9  2  0  0  0  0
 14 13  1  0  0  0  0
 15  9  1  0  0  0  0
 17 13  1  0  0  0  0
 19 18  2  6  0  0  0
 19 22  1  0  0  0  0
 19  1  1  0  0  0  0
 20 19  1  0  0  0  0
 21 20  1  0  0  0  0
 23 22  1  0  0  0  0
 23 28  1  0  0  0  0
 24 23  2  0  0  0  0
 25 24  1  0  0  0  0
 25 26  2  0  0  0  0
 26 27  1  0  0  0  0
 27 28  2  0  0  0  0
 27 32  1  0  0  0  0
 29 24  1  0  0  0  0
 30 25  1  0  0  0  0
 31 26  1  0  0  0  0
 33 32  1  0  0  0  0
 33 34  1  0  0  0  0
M  END
>  <minimizedAffinity>
-5.1966362

$$$$

 OpenBabel03252501093D

 34 36  0  0  1  0  0  0  0  0999 V2000
   37.5000   29.6690   39.8280 O   0  0  0  0  0  0  0  0  0  0  0  0
   39.0340   31.4690   39.3180 C   0  0  1  0  0  0  0  0  0  0  0  0
   38.9700   30.6860   38.0780 C   0  0  0  0  0  0  0  0  0  0  0  0
   37.7920   30.7420   39.0680 C   0  0  1  0  0  0  0  0  0  0  0  0
   39.0720   32.5690   39.2870 H   0  0  0  0  0  0  0  0  0  0  0  0
   38.8400   31.1790   37.1080 H   0  0  0  0  0  0  0  0  0  0  0  0
   39.4060   29.6470   38.0440 H   0  0  0  0  0  0  0  0  0  0  0  0
   36.9220   31.2800   38.6430 H   0  0  0  0  0  0  0  0  0  0  0  0
   40.7340   30.8910   42.6550 C   0  0  0  0  0  0  0  0  0  0  0  0
   39.8810   31.4180   41.6900 C   0  0  0  0  0  0  0  0  0  0  0  0
   39.9330   30.9050   40.3800 C   0  0  0  0  0  0  0  0  0  0  0  0
   40.8140   29.9110   40.0990 N   0  0  0  0  0  0  0  0  0  0  0  0
   41.6350   29.4110   41.0530 C   0  0  0  0  0  0  0  0  0  0  0  0
   41.5950   29.9000   42.3300 N   0  0  0  0  0  0  0  0  0  0  0  0
   40.7040   31.2750   43.6630 H   0  0  0  0  0  0  0  0  0  0  0  0
   39.2130   32.1950   41.9680 H   0  0  0  0  0  0  0  0  0  0  0  0
   42.3110   28.6170   40.7520 H   0  0  0  0  0  0  0  0  0  0  0  0
   34.9130   29.2980   39.5730 O   0  0  0  0  0  0  0  0  0  0  0  0
   36.0400   29.6000   40.5610 P   0  0  2  0  0  0  0  0  0  0  0  0
   35.5720   31.0250   41.3520 O   0  0  0  0  0  0  0  0  0  0  0  0
   34.9670   31.5780   40.8220 H   0  0  0  0  0  0  0  0  0  0  0  0
   35.9730   28.3580   41.6850 O   0  0  0  0  0  0  0  0  0  0  0  0
   37.0870   27.7380   42.2260 C   0  0  0  0  0  0  0  0  0  0  0  0
   38.0790   28.2770   43.0210 C   0  0  0  0  0  0  0  0  0  0  0  0
   39.1240   27.5320   43.4790 C   0  0  0  0  0  0  0  0  0  0  0  0
   39.2150   26.2000   43.1510 C   0  0  0  0  0  0  0  0  0  0  0  0
   38.1950   25.6860   42.3440 C   0  0  0  0  0  0  0  0  0  0  0  0
   37.1700   26.4440   41.9020 N   0  0  0  0  0  0  0  0  0  0  0  0
   37.9350   29.3390   43.2360 H   0  0  0  0  0  0  0  0  0  0  0  0
   39.8500   28.0490   44.0980 H   0  0  0  0  0  0  0  0  0  0  0  0
   40.0410   25.6470   43.5240 H   0  0  0  0  0  0  0  0  0  0  0  0
   38.2760   24.2280   41.9730 C   0  0  0  0  0  2  0  0  0  0  0  0
   37.1280   23.8110   41.1180 C   0  0  0  0  0  2  0  0  0  0  0  0
   36.1820   24.0260   41.6420 H   0  0  0  0  0  0  0  0  0  0  0  0
  1 19  1  0  0  0  0
  2  5  1  6  0  0  0
  2 11  1  0  0  0  0
  3  4  1  0  0  0  0
  3  2  1  0  0  0  0
  4  8  1  6  0  0  0
  4  2  1  0  0  0  0
  4  1  1  0  0  0  0
  6  3  1  0  0  0  0
  7  3  1  0  0  0  0
  9 15  1  0  0  0  0
 10 16  1  0  0  0  0
 10  9  2  0  0  0  0
 11 10  1  0  0  0  0
 12 11  2  0  0  0  0
 12 13  1  0  0  0  0
 13 14  2  0  0  0  0
 14  9  1  0  0  0  0
 17 13  1  0  0  0  0
 19 18  2  6  0  0  0
 19 20  1  0  0  0  0
 19 22  1  0  0  0  0
 21 20  1  0  0  0  0
 22 23  1  0  0  0  0
 23 24  1  0  0  0  0
 24 29  1  0  0  0  0
 24 25  2  0  0  0  0
 25 30  1  0  0  0  0
 26 25  1  0  0  0  0
 26 31  1  0  0  0  0
 27 26  2  0  0  0  0
 28 23  2  0  0  0  0
 28 27  1  0  0  0  0
 32 27  1  0  0  0  0
 33 34  1  0  0  0  0
 33 32  1  0  0  0  0
M  END
>  <minimizedAffinity>
-5.07600307

$$$$

 OpenBabel03252501093D

 34 36  0  0  1  0  0  0  0  0999 V2000
   38.4900   30.6500   40.5520 O   0  0  0  0  0  0  0  0  0  0  0  0
   39.4050   30.5540   42.7900 C   0  0  1  0  0  0  0  0  0  0  0  0
   40.5840   30.6490   41.9210 C   0  0  0  0  0  0  0  0  0  0  0  0
   39.2230   31.2440   41.5150 C   0  0  1  0  0  0  0  0  0  0  0  0
   39.3660   31.0970   43.7470 H   0  0  0  0  0  0  0  0  0  0  0  0
   41.3950   31.3500   42.1490 H   0  0  0  0  0  0  0  0  0  0  0  0
   40.8560   29.7890   41.2450 H   0  0  0  0  0  0  0  0  0  0  0  0
   39.2490   32.3490   41.4850 H   0  0  0  0  0  0  0  0  0  0  0  0
   39.0150   26.7850   42.7470 C   0  0  0  0  0  0  0  0  0  0  0  0
   39.5970   28.0460   42.6570 C   0  0  0  0  0  0  0  0  0  0  0  0
   38.8020   29.1820   42.8970 C   0  0  0  0  0  0  0  0  0  0  0  0
   37.4920   29.0140   43.2070 N   0  0  0  0  0  0  0  0  0  0  0  0
   36.9440   27.7770   43.2890 C   0  0  0  0  0  0  0  0  0  0  0  0
   37.7050   26.6640   43.0600 N   0  0  0  0  0  0  0  0  0  0  0  0
   39.6130   25.9050   42.5660 H   0  0  0  0  0  0  0  0  0  0  0  0
   40.6270   28.1160   42.4110 H   0  0  0  0  0  0  0  0  0  0  0  0
   35.8900   27.7230   43.5420 H   0  0  0  0  0  0  0  0  0  0  0  0
   37.0930   32.8280   40.1060 O   0  0  0  0  0  0  0  0  0  0  0  0
   37.0440   31.3000   40.1540 P   0  0  2  0  0  0  0  0  0  0  0  0
   35.7770   30.9280   41.2190 O   0  0  0  0  0  0  0  0  0  0  0  0
   35.6010   31.6330   41.8690 H   0  0  0  0  0  0  0  0  0  0  0  0
   36.5600   30.8360   38.6180 O   0  0  0  0  0  0  0  0  0  0  0  0
   35.9980   29.6050   38.3200 C   0  0  0  0  0  0  0  0  0  0  0  0
   35.0330   29.2950   37.3830 C   0  0  0  0  0  0  0  0  0  0  0  0
   34.5760   28.0250   37.2060 C   0  0  0  0  0  0  0  0  0  0  0  0
   35.0780   27.0010   37.9750 C   0  0  0  0  0  0  0  0  0  0  0  0
   36.0530   27.3480   38.9160 C   0  0  0  0  0  0  0  0  0  0  0  0
   36.4900   28.6150   39.0720 N   0  0  0  0  0  0  0  0  0  0  0  0
   34.6860   30.1620   36.8140 H   0  0  0  0  0  0  0  0  0  0  0  0
   33.8170   27.8860   36.4440 H   0  0  0  0  0  0  0  0  0  0  0  0
   34.7010   26.0210   37.8140 H   0  0  0  0  0  0  0  0  0  0  0  0
   36.6170   26.2410   39.7690 C   0  0  0  0  0  2  0  0  0  0  0  0
   37.6460   25.4490   39.0370 C   0  0  0  0  0  2  0  0  0  0  0  0
   37.2060   25.0410   38.1120 H   0  0  0  0  0  0  0  0  0  0  0  0
  1  4  1  0  0  0  0
  2 11  1  0  0  0  0
  2  5  1  1  0  0  0
  3  6  1  0  0  0  0
  3  2  1  0  0  0  0
  4  8  1  1  0  0  0
  4  3  1  0  0  0  0
  4  2  1  0  0  0  0
  7  3  1  0  0  0  0
  9 14  1  0  0  0  0
 10  9  2  0  0  0  0
 10 11  1  0  0  0  0
 11 12  2  0  0  0  0
 12 13  1  0  0  0  0
 13 17  1  0  0  0  0
 14 13  2  0  0  0  0
 15  9  1  0  0  0  0
 16 10  1  0  0  0  0
 19 18  2  6  0  0  0
 19  1  1  0  0  0  0
 19 20  1  0  0  0  0
 20 21  1  0  0  0  0
 22 19  1  0  0  0  0
 23 22  1  0  0  0  0
 23 28  1  0  0  0  0
 24 23  2  0  0  0  0
 25 24  1  0  0  0  0
 25 26  2  0  0  0  0
 26 27  1  0  0  0  0
 27 28  2  0  0  0  0
 27 32  1  0  0  0  0
 29 24  1  0  0  0  0
 30 25  1  0  0  0  0
 31 26  1  0  0  0  0
 33 32  1  0  0  0  0
 34 33  1  0  0  0  0
M  END
>  <minimizedAffinity>
-5.03299379

$$$$

 OpenBabel03252501093D

 34 36  0  0  1  0  0  0  0  0999 V2000
   38.0490   31.1700   40.7420 O   0  0  0  0  0  0  0  0  0  0  0  0
   37.8450   33.3930   39.8090 C   0  0  1  0  0  0  0  0  0  0  0  0
   37.1750   32.5280   38.8310 C   0  0  0  0  0  0  0  0  0  0  0  0
   37.2430   32.1670   40.3260 C   0  0  1  0  0  0  0  0  0  0  0  0
   37.4340   34.3840   40.0580 H   0  0  0  0  0  0  0  0  0  0  0  0
   36.1960   32.7970   38.4190 H   0  0  0  0  0  0  0  0  0  0  0  0
   37.7770   31.7950   38.2220 H   0  0  0  0  0  0  0  0  0  0  0  0
   36.2460   32.2100   40.8060 H   0  0  0  0  0  0  0  0  0  0  0  0
   41.4820   34.1570   40.5510 C   0  0  0  0  0  0  0  0  0  0  0  0
   40.0950   34.1400   40.6610 C   0  0  0  0  0  0  0  0  0  0  0  0
   39.3440   33.4120   39.7200 C   0  0  0  0  0  0  0  0  0  0  0  0
   39.9960   32.7490   38.7310 N   0  0  0  0  0  0  0  0  0  0  0  0
   41.3480   32.7770   38.6410 C   0  0  0  0  0  0  0  0  0  0  0  0
   42.0900   33.4800   39.5500 N   0  0  0  0  0  0  0  0  0  0  0  0
   42.0690   34.7110   41.2670 H   0  0  0  0  0  0  0  0  0  0  0  0
   39.6390   34.6780   41.4550 H   0  0  0  0  0  0  0  0  0  0  0  0
   41.7980   32.2210   37.8240 H   0  0  0  0  0  0  0  0  0  0  0  0
   36.0670   29.4730   40.4500 O   0  0  0  0  0  0  0  0  0  0  0  0
   37.3730   29.7520   41.1950 P   0  0  2  0  0  0  0  0  0  0  0  0
   36.9800   29.6420   42.8410 O   0  0  0  0  0  0  0  0  0  0  0  0
   36.0410   29.8280   43.0250 H   0  0  0  0  0  0  0  0  0  0  0  0
   38.3650   28.4510   40.8280 O   0  0  0  0  0  0  0  0  0  0  0  0
   38.1610   27.1640   41.2960 C   0  0  0  0  0  0  0  0  0  0  0  0
   37.0010   26.4140   41.2970 C   0  0  0  0  0  0  0  0  0  0  0  0
   36.9570   25.1490   41.7980 C   0  0  0  0  0  0  0  0  0  0  0  0
   38.0920   24.5780   42.3250 C   0  0  0  0  0  0  0  0  0  0  0  0
   39.2490   25.3640   42.3090 C   0  0  0  0  0  0  0  0  0  0  0  0
   39.2680   26.6150   41.8070 N   0  0  0  0  0  0  0  0  0  0  0  0
   36.1450   26.9380   40.8620 H   0  0  0  0  0  0  0  0  0  0  0  0
   35.9980   24.6450   41.7520 H   0  0  0  0  0  0  0  0  0  0  0  0
   38.0250   23.5900   42.7080 H   0  0  0  0  0  0  0  0  0  0  0  0
   40.5040   24.7570   42.8820 C   0  0  0  0  0  2  0  0  0  0  0  0
   41.6840   25.6470   42.6940 C   0  0  0  0  0  2  0  0  0  0  0  0
   41.8130   25.8630   41.6200 H   0  0  0  0  0  0  0  0  0  0  0  0
  1 19  1  0  0  0  0
  2  5  1  1  0  0  0
  2  4  1  0  0  0  0
  3  2  1  0  0  0  0
  3  4  1  0  0  0  0
  4  1  1  0  0  0  0
  4  8  1  1  0  0  0
  6  3  1  0  0  0  0
  7  3  1  0  0  0  0
  9 10  1  0  0  0  0
  9 15  1  0  0  0  0
 10 16  1  0  0  0  0
 11  2  1  0  0  0  0
 11 10  2  0  0  0  0
 12 11  1  0  0  0  0
 13 12  2  0  0  0  0
 13 14  1  0  0  0  0
 14  9  2  0  0  0  0
 17 13  1  0  0  0  0
 19 18  2  6  0  0  0
 19 20  1  0  0  0  0
 20 21  1  0  0  0  0
 22 19  1  0  0  0  0
 22 23  1  0  0  0  0
 23 24  2  0  0  0  0
 23 28  1  0  0  0  0
 24 25  1  0  0  0  0
 25 26  2  0  0  0  0
 26 31  1  0  0  0  0
 27 26  1  0  0  0  0
 27 32  1  0  0  0  0
 28 27  2  0  0  0  0
 29 24  1  0  0  0  0
 30 25  1  0  0  0  0
 33 32  1  0  0  0  0
 34 33  1  0  0  0  0
M  END
>  <minimizedAffinity>
-5.02754927

$$$$

 OpenBabel03252501093D

 34 36  0  0  1  0  0  0  0  0999 V2000
   38.4460   30.4730   40.6290 O   0  0  0  0  0  0  0  0  0  0  0  0
   39.4100   29.9770   42.7920 C   0  0  1  0  0  0  0  0  0  0  0  0
   40.5570   29.9780   41.8760 C   0  0  0  0  0  0  0  0  0  0  0  0
   39.3010   30.8270   41.6090 C   0  0  1  0  0  0  0  0  0  0  0  0
   39.4950   30.4060   43.8020 H   0  0  0  0  0  0  0  0  0  0  0  0
   41.4810   30.5090   42.1340 H   0  0  0  0  0  0  0  0  0  0  0  0
   40.6590   29.1690   41.0990 H   0  0  0  0  0  0  0  0  0  0  0  0
   39.5090   31.9110   41.6960 H   0  0  0  0  0  0  0  0  0  0  0  0
   38.3910   26.3540   42.3420 C   0  0  0  0  0  0  0  0  0  0  0  0
   39.1710   27.5070   42.3570 C   0  0  0  0  0  0  0  0  0  0  0  0
   38.5920   28.7170   42.7840 C   0  0  0  0  0  0  0  0  0  0  0  0
   37.2900   28.7230   43.1670 N   0  0  0  0  0  0  0  0  0  0  0  0
   36.5480   27.5900   43.1460 C   0  0  0  0  0  0  0  0  0  0  0  0
   37.0970   26.4060   42.7350 N   0  0  0  0  0  0  0  0  0  0  0  0
   38.8220   25.4200   42.0180 H   0  0  0  0  0  0  0  0  0  0  0  0
   40.1830   27.4420   42.0450 H   0  0  0  0  0  0  0  0  0  0  0  0
   35.5150   27.6730   43.4690 H   0  0  0  0  0  0  0  0  0  0  0  0
   37.4020   32.8800   40.5360 O   0  0  0  0  0  0  0  0  0  0  0  0
   37.1130   31.3870   40.3830 P   0  0  2  0  0  0  0  0  0  0  0  0
   35.8260   31.0700   41.4420 O   0  0  0  0  0  0  0  0  0  0  0  0
   35.7780   31.6980   42.1870 H   0  0  0  0  0  0  0  0  0  0  0  0
   36.5290   31.2180   38.8200 O   0  0  0  0  0  0  0  0  0  0  0  0
   36.1440   30.0100   38.2620 C   0  0  0  0  0  0  0  0  0  0  0  0
   35.3480   29.0190   38.8020 C   0  0  0  0  0  0  0  0  0  0  0  0
   35.0560   27.8750   38.1230 C   0  0  0  0  0  0  0  0  0  0  0  0
   35.5590   27.6790   36.8580 C   0  0  0  0  0  0  0  0  0  0  0  0
   36.3610   28.7020   36.3410 C   0  0  0  0  0  0  0  0  0  0  0  0
   36.6360   29.8260   37.0330 N   0  0  0  0  0  0  0  0  0  0  0  0
   34.9900   29.2500   39.8090 H   0  0  0  0  0  0  0  0  0  0  0  0
   34.4230   27.1580   38.6350 H   0  0  0  0  0  0  0  0  0  0  0  0
   35.3130   26.7770   36.3550 H   0  0  0  0  0  0  0  0  0  0  0  0
   36.9210   28.5070   34.9550 C   0  0  0  0  0  2  0  0  0  0  0  0
   35.8470   28.4860   33.9230 C   0  0  0  0  0  2  0  0  0  0  0  0
   35.1220   27.6900   34.1630 H   0  0  0  0  0  0  0  0  0  0  0  0
  1  4  1  0  0  0  0
  2  5  1  1  0  0  0
  3  6  1  0  0  0  0
  3  2  1  0  0  0  0
  4  8  1  1  0  0  0
  4  3  1  0  0  0  0
  4  2  1  0  0  0  0
  7  3  1  0  0  0  0
  9 10  2  0  0  0  0
  9 14  1  0  0  0  0
 10 11  1  0  0  0  0
 11  2  1  0  0  0  0
 11 12  2  0  0  0  0
 13 12  1  0  0  0  0
 13 17  1  0  0  0  0
 14 13  2  0  0  0  0
 15  9  1  0  0  0  0
 16 10  1  0  0  0  0
 19 18  2  1  0  0  0
 19  1  1  0  0  0  0
 19 20  1  0  0  0  0
 20 21  1  0  0  0  0
 22 19  1  0  0  0  0
 23 24  1  0  0  0  0
 23 22  1  0  0  0  0
 24 29  1  0  0  0  0
 25 30  1  0  0  0  0
 25 24  2  0  0  0  0
 26 25  1  0  0  0  0
 27 26  2  0  0  0  0
 27 28  1  0  0  0  0
 28 23  2  0  0  0  0
 31 26  1  0  0  0  0
 32 27  1  0  0  0  0
 33 34  1  0  0  0  0
 33 32  1  0  0  0  0
M  END
>  <minimizedAffinity>
-5.00587893

$$$$
