
 OpenBabel03252504323D

 34 35  0  0  0  0  0  0  0  0999 V2000
   43.8400   35.1740   40.9960 C   0  0  0  0  0  3  0  0  0  0  0  0
   43.9140   35.6000   42.2520 C   0  0  0  0  0  3  0  0  0  0  0  0
   45.1620   35.6110   43.1170 C   0  0  0  0  0  0  0  0  0  0  0  0
   45.9730   35.2280   42.4560 H   0  0  0  0  0  0  0  0  0  0  0  0
   45.3900   36.6350   43.4770 H   0  0  0  0  0  0  0  0  0  0  0  0
   44.9450   34.7410   44.1630 O   0  0  0  0  0  0  0  0  0  0  0  0
   45.7050   32.5860   42.7950 O   0  0  0  0  0  0  0  0  0  0  0  0
   45.9490   33.3920   44.0490 P   0  0  1  0  0  0  0  0  0  0  0  0
   47.5820   33.8850   44.0140 O   0  0  0  0  0  0  0  0  0  0  0  0
   47.7100   34.7440   44.4880 H   0  0  0  0  0  0  0  0  0  0  0  0
   45.7600   32.4110   45.4110 O   0  0  0  0  0  0  0  0  0  0  0  0
   46.0700   33.0750   46.5810 C   0  0  0  0  0  0  0  0  0  0  0  0
   46.9870   32.4050   47.5590 C   0  0  0  0  0  0  0  0  0  0  0  0
   45.5040   32.4680   47.8440 C   0  0  0  0  0  0  0  0  0  0  0  0
   46.1380   34.1800   46.5360 H   0  0  0  0  0  0  0  0  0  0  0  0
   47.3610   31.4120   47.2350 H   0  0  0  0  0  0  0  0  0  0  0  0
   47.6090   33.0060   48.2310 H   0  0  0  0  0  0  0  0  0  0  0  0
   45.1360   33.1150   48.6560 H   0  0  0  0  0  0  0  0  0  0  0  0
   44.9300   31.5240   47.7710 H   0  0  0  0  0  0  0  0  0  0  0  0
   42.5910   35.2540   40.4010 O   0  0  0  0  0  0  0  0  0  0  0  0
   41.4010   35.5930   40.9780 C   0  0  0  0  0  0  0  0  0  0  0  0
   41.4020   35.8420   42.0600 H   0  0  0  0  0  0  0  0  0  0  0  0
   40.9520   36.4640   40.4540 H   0  0  0  0  0  0  0  0  0  0  0  0
   40.6950   33.3410   41.6340 C   0  0  0  0  0  0  0  0  0  0  0  0
   40.3770   34.4970   40.8830 C   0  0  0  0  0  0  0  0  0  0  0  0
   39.2120   34.4900   40.1830 C   0  0  0  0  0  0  0  0  0  0  0  0
   38.4630   33.4020   40.2590 N   0  0  0  0  0  0  0  0  0  0  0  0
   38.7500   32.3210   40.9560 C   0  0  0  0  0  0  0  0  0  0  0  0
   39.9260   32.2480   41.6990 N   0  0  0  0  0  0  0  0  0  0  0  0
   41.5960   33.2390   42.2260 H   0  0  0  0  0  0  0  0  0  0  0  0
   39.0190   35.4050   39.6250 H   0  0  0  0  0  0  0  0  0  0  0  0
   37.8280   31.1590   40.9630 C   0  0  0  0  0  2  0  0  0  0  0  0
   38.5180   29.9580   41.6060 C   0  0  0  0  0  2  0  0  0  0  0  0
   39.5990   30.1920   41.8290 H   0  0  0  0  0  0  0  0  0  0  0  0
  1  2  2  0  0  0  0
  2  3  1  0  0  0  0
  3  5  1  0  0  0  0
  3  6  1  0  0  0  0
  4  3  1  0  0  0  0
  8  7  2  6  0  0  0
  8  6  1  0  0  0  0
  8 11  1  0  0  0  0
  9  8  1  0  0  0  0
  9 10  1  0  0  0  0
 11 12  1  0  0  0  0
 12 13  1  0  0  0  0
 12 14  1  0  0  0  0
 13 14  1  0  0  0  0
 13 17  1  0  0  0  0
 14 18  1  0  0  0  0
 15 12  1  0  0  0  0
 16 13  1  0  0  0  0
 19 14  1  0  0  0  0
 20 21  1  0  0  0  0
 20  1  1  0  0  0  0
 21 22  1  0  0  0  0
 23 21  1  0  0  0  0
 24 29  1  0  0  0  0
 24 30  1  0  0  0  0
 25 21  1  0  0  0  0
 25 24  2  0  0  0  0
 26 27  2  0  0  0  0
 26 25  1  0  0  0  0
 27 28  1  0  0  0  0
 28 32  1  0  0  0  0
 28 29  2  0  0  0  0
 31 26  1  0  0  0  0
 32 33  1  0  0  0  0
 33 34  1  0  0  0  0
M  END
>  <minimizedAffinity>
-4.69401264

>  <minimizedRMSD>
0.518590629

$$$$
