
 OpenBabel03252504323D

 34 35  0  0  0  0  0  0  0  0999 V2000
   43.8420   35.1720   40.9970 C   0  0  0  0  0  3  0  0  0  0  0  0
   43.9140   35.5950   42.2550 C   0  0  0  0  0  3  0  0  0  0  0  0
   45.1590   35.6090   43.1220 C   0  0  0  0  0  0  0  0  0  0  0  0
   45.9720   35.2280   42.4610 H   0  0  0  0  0  0  0  0  0  0  0  0
   45.3850   36.6330   43.4830 H   0  0  0  0  0  0  0  0  0  0  0  0
   44.9430   34.7370   44.1670 O   0  0  0  0  0  0  0  0  0  0  0  0
   45.7050   32.5830   42.7990 O   0  0  0  0  0  0  0  0  0  0  0  0
   45.9480   33.3890   44.0530 P   0  0  1  0  0  0  0  0  0  0  0  0
   47.5810   33.8850   44.0140 O   0  0  0  0  0  0  0  0  0  0  0  0
   47.7080   34.7440   44.4890 H   0  0  0  0  0  0  0  0  0  0  0  0
   45.7630   32.4100   45.4150 O   0  0  0  0  0  0  0  0  0  0  0  0
   46.0700   33.0760   46.5850 C   0  0  0  0  0  0  0  0  0  0  0  0
   46.9730   32.4020   47.5730 C   0  0  0  0  0  0  0  0  0  0  0  0
   45.4880   32.4810   47.8460 C   0  0  0  0  0  0  0  0  0  0  0  0
   46.1490   34.1800   46.5360 H   0  0  0  0  0  0  0  0  0  0  0  0
   47.3400   31.4040   47.2570 H   0  0  0  0  0  0  0  0  0  0  0  0
   47.5950   33.0000   48.2470 H   0  0  0  0  0  0  0  0  0  0  0  0
   45.1200   33.1340   48.6520 H   0  0  0  0  0  0  0  0  0  0  0  0
   44.9060   31.5410   47.7720 H   0  0  0  0  0  0  0  0  0  0  0  0
   42.5940   35.2510   40.4010 O   0  0  0  0  0  0  0  0  0  0  0  0
   41.4030   35.5910   40.9750 C   0  0  0  0  0  0  0  0  0  0  0  0
   41.4030   35.8430   42.0560 H   0  0  0  0  0  0  0  0  0  0  0  0
   40.9570   36.4610   40.4470 H   0  0  0  0  0  0  0  0  0  0  0  0
   40.6990   33.3390   41.6290 C   0  0  0  0  0  0  0  0  0  0  0  0
   40.3790   34.4960   40.8800 C   0  0  0  0  0  0  0  0  0  0  0  0
   39.2120   34.4910   40.1840 C   0  0  0  0  0  0  0  0  0  0  0  0
   38.4630   33.4030   40.2600 N   0  0  0  0  0  0  0  0  0  0  0  0
   38.7510   32.3200   40.9550 C   0  0  0  0  0  0  0  0  0  0  0  0
   39.9290   32.2460   41.6950 N   0  0  0  0  0  0  0  0  0  0  0  0
   41.6010   33.2360   42.2190 H   0  0  0  0  0  0  0  0  0  0  0  0
   39.0180   35.4060   39.6270 H   0  0  0  0  0  0  0  0  0  0  0  0
   37.8290   31.1590   40.9620 C   0  0  0  0  0  2  0  0  0  0  0  0
   38.5180   29.9580   41.6080 C   0  0  0  0  0  2  0  0  0  0  0  0
   39.5990   30.1920   41.8300 H   0  0  0  0  0  0  0  0  0  0  0  0
  1  2  2  0  0  0  0
  2  3  1  0  0  0  0
  3  5  1  0  0  0  0
  3  6  1  0  0  0  0
  4  3  1  0  0  0  0
  8  7  2  6  0  0  0
  8  6  1  0  0  0  0
  8 11  1  0  0  0  0
  9  8  1  0  0  0  0
  9 10  1  0  0  0  0
 11 12  1  0  0  0  0
 12 13  1  0  0  0  0
 12 14  1  0  0  0  0
 13 14  1  0  0  0  0
 13 17  1  0  0  0  0
 14 18  1  0  0  0  0
 15 12  1  0  0  0  0
 16 13  1  0  0  0  0
 19 14  1  0  0  0  0
 20 21  1  0  0  0  0
 20  1  1  0  0  0  0
 21 22  1  0  0  0  0
 23 21  1  0  0  0  0
 24 29  1  0  0  0  0
 24 30  1  0  0  0  0
 25 21  1  0  0  0  0
 25 24  2  0  0  0  0
 26 27  2  0  0  0  0
 26 25  1  0  0  0  0
 27 28  1  0  0  0  0
 28 32  1  0  0  0  0
 28 29  2  0  0  0  0
 31 26  1  0  0  0  0
 32 33  1  0  0  0  0
 33 34  1  0  0  0  0
M  END
>  <minimizedAffinity>
-4.69400692

>  <minimizedRMSD>
0.572449744

$$$$
