
 OpenBabel03252504323D

 34 35  0  0  0  0  0  0  0  0999 V2000
   43.8410   35.1710   40.9970 C   0  0  0  0  0  3  0  0  0  0  0  0
   43.9150   35.5990   42.2530 C   0  0  0  0  0  3  0  0  0  0  0  0
   45.1620   35.6100   43.1190 C   0  0  0  0  0  0  0  0  0  0  0  0
   45.9730   35.2270   42.4580 H   0  0  0  0  0  0  0  0  0  0  0  0
   45.3900   36.6340   43.4790 H   0  0  0  0  0  0  0  0  0  0  0  0
   44.9440   34.7390   44.1640 O   0  0  0  0  0  0  0  0  0  0  0  0
   45.7050   32.5840   42.7970 O   0  0  0  0  0  0  0  0  0  0  0  0
   45.9490   33.3900   44.0510 P   0  0  1  0  0  0  0  0  0  0  0  0
   47.5820   33.8850   44.0150 O   0  0  0  0  0  0  0  0  0  0  0  0
   47.7090   34.7440   44.4890 H   0  0  0  0  0  0  0  0  0  0  0  0
   45.7610   32.4110   45.4140 O   0  0  0  0  0  0  0  0  0  0  0  0
   46.0700   33.0760   46.5830 C   0  0  0  0  0  0  0  0  0  0  0  0
   46.9780   32.4030   47.5670 C   0  0  0  0  0  0  0  0  0  0  0  0
   45.4950   32.4770   47.8450 C   0  0  0  0  0  0  0  0  0  0  0  0
   46.1460   34.1810   46.5360 H   0  0  0  0  0  0  0  0  0  0  0  0
   47.3470   31.4060   47.2480 H   0  0  0  0  0  0  0  0  0  0  0  0
   47.6010   33.0020   48.2410 H   0  0  0  0  0  0  0  0  0  0  0  0
   45.1270   33.1280   48.6540 H   0  0  0  0  0  0  0  0  0  0  0  0
   44.9140   31.5360   47.7720 H   0  0  0  0  0  0  0  0  0  0  0  0
   42.5930   35.2530   40.4010 O   0  0  0  0  0  0  0  0  0  0  0  0
   41.4020   35.5920   40.9770 C   0  0  0  0  0  0  0  0  0  0  0  0
   41.4030   35.8420   42.0590 H   0  0  0  0  0  0  0  0  0  0  0  0
   40.9550   36.4620   40.4520 H   0  0  0  0  0  0  0  0  0  0  0  0
   40.6970   33.3400   41.6310 C   0  0  0  0  0  0  0  0  0  0  0  0
   40.3790   34.4970   40.8820 C   0  0  0  0  0  0  0  0  0  0  0  0
   39.2120   34.4910   40.1840 C   0  0  0  0  0  0  0  0  0  0  0  0
   38.4630   33.4030   40.2590 N   0  0  0  0  0  0  0  0  0  0  0  0
   38.7510   32.3200   40.9550 C   0  0  0  0  0  0  0  0  0  0  0  0
   39.9280   32.2470   41.6970 N   0  0  0  0  0  0  0  0  0  0  0  0
   41.5990   33.2370   42.2220 H   0  0  0  0  0  0  0  0  0  0  0  0
   39.0190   35.4060   39.6270 H   0  0  0  0  0  0  0  0  0  0  0  0
   37.8290   31.1590   40.9620 C   0  0  0  0  0  2  0  0  0  0  0  0
   38.5170   29.9590   41.6070 C   0  0  0  0  0  2  0  0  0  0  0  0
   39.5980   30.1920   41.8310 H   0  0  0  0  0  0  0  0  0  0  0  0
  1  2  2  0  0  0  0
  2  3  1  0  0  0  0
  3  5  1  0  0  0  0
  3  6  1  0  0  0  0
  4  3  1  0  0  0  0
  8  7  2  6  0  0  0
  8  6  1  0  0  0  0
  8 11  1  0  0  0  0
  9  8  1  0  0  0  0
  9 10  1  0  0  0  0
 11 12  1  0  0  0  0
 12 13  1  0  0  0  0
 12 14  1  0  0  0  0
 13 14  1  0  0  0  0
 13 17  1  0  0  0  0
 14 18  1  0  0  0  0
 15 12  1  0  0  0  0
 16 13  1  0  0  0  0
 19 14  1  0  0  0  0
 20 21  1  0  0  0  0
 20  1  1  0  0  0  0
 21 22  1  0  0  0  0
 23 21  1  0  0  0  0
 24 29  1  0  0  0  0
 24 30  1  0  0  0  0
 25 21  1  0  0  0  0
 25 24  2  0  0  0  0
 26 27  2  0  0  0  0
 26 25  1  0  0  0  0
 27 28  1  0  0  0  0
 28 32  1  0  0  0  0
 28 29  2  0  0  0  0
 31 26  1  0  0  0  0
 32 33  1  0  0  0  0
 33 34  1  0  0  0  0
M  END
>  <minimizedAffinity>
-4.69399118

>  <minimizedRMSD>
0.535419643

$$$$
