
 OpenBabel03252501053D

 34 36  0  0  1  0  0  0  0  0999 V2000
   47.7070   34.1770   39.7930 O   0  0  0  0  0  0  0  0  0  0  0  0
   48.0840   35.4540   41.8130 C   0  0  1  0  0  0  0  0  0  0  0  0
   49.3050   34.6530   41.6580 C   0  0  0  0  0  0  0  0  0  0  0  0
   48.4550   35.0860   40.4490 C   0  0  1  0  0  0  0  0  0  0  0  0
   48.1350   36.4960   42.1610 H   0  0  0  0  0  0  0  0  0  0  0  0
   50.2940   35.1110   41.7700 H   0  0  0  0  0  0  0  0  0  0  0  0
   49.2660   33.5340   41.7860 H   0  0  0  0  0  0  0  0  0  0  0  0
   48.9860   35.8200   39.8130 H   0  0  0  0  0  0  0  0  0  0  0  0
   46.0360   32.9380   43.7730 C   0  0  0  0  0  0  0  0  0  0  0  0
   47.1330   33.6130   43.2470 C   0  0  0  0  0  0  0  0  0  0  0  0
   46.9150   34.7200   42.4050 C   0  0  0  0  0  0  0  0  0  0  0  0
   45.6390   35.0940   42.1310 N   0  0  0  0  0  0  0  0  0  0  0  0
   44.5840   34.4240   42.6530 C   0  0  0  0  0  0  0  0  0  0  0  0
   44.7810   33.3470   43.4730 N   0  0  0  0  0  0  0  0  0  0  0  0
   46.1890   32.0880   44.4190 H   0  0  0  0  0  0  0  0  0  0  0  0
   48.1080   33.2740   43.4960 H   0  0  0  0  0  0  0  0  0  0  0  0
   43.5940   34.7830   42.3890 H   0  0  0  0  0  0  0  0  0  0  0  0
   48.5650   32.3750   38.0870 O   0  0  0  0  0  0  0  0  0  0  0  0
   48.0880   33.8190   38.2440 P   0  0  2  0  0  0  0  0  0  0  0  0
   49.3220   34.7720   37.5740 O   0  0  0  0  0  0  0  0  0  0  0  0
   50.1960   34.3400   37.5950 H   0  0  0  0  0  0  0  0  0  0  0  0
   46.7550   33.9450   37.2350 O   0  0  0  0  0  0  0  0  0  0  0  0
   45.7340   33.0110   37.1790 C   0  0  0  0  0  0  0  0  0  0  0  0
   45.6390   31.8740   36.4020 C   0  0  0  0  0  0  0  0  0  0  0  0
   44.5600   31.0450   36.4590 C   0  0  0  0  0  0  0  0  0  0  0  0
   43.5180   31.3310   37.3100 C   0  0  0  0  0  0  0  0  0  0  0  0
   43.6440   32.4910   38.0820 C   0  0  0  0  0  0  0  0  0  0  0  0
   44.7240   33.2950   38.0080 N   0  0  0  0  0  0  0  0  0  0  0  0
   46.5060   31.7180   35.7540 H   0  0  0  0  0  0  0  0  0  0  0  0
   44.5830   30.1780   35.8080 H   0  0  0  0  0  0  0  0  0  0  0  0
   42.6910   30.6660   37.3310 H   0  0  0  0  0  0  0  0  0  0  0  0
   42.5130   32.8220   39.0210 C   0  0  0  0  0  0  0  0  0  0  0  0
   41.2420   33.0770   38.2870 C   0  0  0  0  0  0  0  0  0  0  0  0
   41.3950   33.8930   37.5610 H   0  0  0  0  0  0  0  0  0  0  0  0
  1  4  1  0  0  0  0
  2  5  1  1  0  0  0
  2 11  1  0  0  0  0
  3  6  1  0  0  0  0
  3  7  1  0  0  0  0
  3  2  1  0  0  0  0
  4  8  1  6  0  0  0
  4  3  1  0  0  0  0
  4  2  1  0  0  0  0
  9 15  1  0  0  0  0
 10 16  1  0  0  0  0
 10  9  2  0  0  0  0
 11 10  1  0  0  0  0
 12 11  2  0  0  0  0
 12 13  1  0  0  0  0
 13 14  2  0  0  0  0
 14  9  1  0  0  0  0
 17 13  1  0  0  0  0
 19 18  2  6  0  0  0
 19  1  1  0  0  0  0
 20 21  1  0  0  0  0
 20 19  1  0  0  0  0
 22 19  1  0  0  0  0
 23 22  1  0  0  0  0
 23 28  1  0  0  0  0
 24 25  1  0  0  0  0
 24 23  2  0  0  0  0
 25 26  2  0  0  0  0
 26 31  1  0  0  0  0
 26 27  1  0  0  0  0
 27 32  1  0  0  0  0
 28 27  2  0  0  0  0
 29 24  1  0  0  0  0
 30 25  1  0  0  0  0
 33 32  1  0  0  0  0
 34 33  1  0  0  0  0
M  END
>  <minimizedAffinity>
-4.48219681

>  <minimizedRMSD>
0.571003318

$$$$
