
 OpenBabel03252501053D

 34 36  0  0  1  0  0  0  0  0999 V2000
   47.7420   34.1710   39.8020 O   0  0  0  0  0  0  0  0  0  0  0  0
   48.1140   35.4630   41.8130 C   0  0  1  0  0  0  0  0  0  0  0  0
   49.3340   34.6610   41.6680 C   0  0  0  0  0  0  0  0  0  0  0  0
   48.4890   35.0850   40.4530 C   0  0  1  0  0  0  0  0  0  0  0  0
   48.1650   36.5090   42.1530 H   0  0  0  0  0  0  0  0  0  0  0  0
   50.3230   35.1180   41.7800 H   0  0  0  0  0  0  0  0  0  0  0  0
   49.2930   33.5430   41.8060 H   0  0  0  0  0  0  0  0  0  0  0  0
   49.0230   35.8120   39.8130 H   0  0  0  0  0  0  0  0  0  0  0  0
   46.0540   32.9460   43.7580 C   0  0  0  0  0  0  0  0  0  0  0  0
   47.1540   33.6150   43.2310 C   0  0  0  0  0  0  0  0  0  0  0  0
   46.9410   34.7360   42.4070 C   0  0  0  0  0  0  0  0  0  0  0  0
   45.6680   35.1310   42.1520 N   0  0  0  0  0  0  0  0  0  0  0  0
   44.6090   34.4660   42.6760 C   0  0  0  0  0  0  0  0  0  0  0  0
   44.8020   33.3760   43.4780 N   0  0  0  0  0  0  0  0  0  0  0  0
   46.2030   32.0850   44.3910 H   0  0  0  0  0  0  0  0  0  0  0  0
   48.1270   33.2600   43.4640 H   0  0  0  0  0  0  0  0  0  0  0  0
   43.6220   34.8420   42.4270 H   0  0  0  0  0  0  0  0  0  0  0  0
   48.5140   32.3960   38.0280 O   0  0  0  0  0  0  0  0  0  0  0  0
   48.0860   33.8490   38.2360 P   0  0  2  0  0  0  0  0  0  0  0  0
   49.3380   34.7830   37.5750 O   0  0  0  0  0  0  0  0  0  0  0  0
   50.1980   34.3230   37.5670 H   0  0  0  0  0  0  0  0  0  0  0  0
   46.7400   34.0480   37.2550 O   0  0  0  0  0  0  0  0  0  0  0  0
   45.7780   33.0730   37.0530 C   0  0  0  0  0  0  0  0  0  0  0  0
   45.6200   32.2180   35.9800 C   0  0  0  0  0  0  0  0  0  0  0  0
   44.6130   31.3030   35.9250 C   0  0  0  0  0  0  0  0  0  0  0  0
   43.7110   31.2110   36.9590 C   0  0  0  0  0  0  0  0  0  0  0  0
   43.8980   32.0910   38.0290 C   0  0  0  0  0  0  0  0  0  0  0  0
   44.9040   32.9890   38.0610 N   0  0  0  0  0  0  0  0  0  0  0  0
   46.3760   32.3540   35.2020 H   0  0  0  0  0  0  0  0  0  0  0  0
   44.5760   30.6790   35.0390 H   0  0  0  0  0  0  0  0  0  0  0  0
   42.9370   30.4880   36.8860 H   0  0  0  0  0  0  0  0  0  0  0  0
   42.9200   32.0060   39.1730 C   0  0  0  0  0  2  0  0  0  0  0  0
   43.5940   31.6380   40.4500 C   0  0  0  0  0  2  0  0  0  0  0  0
   44.1240   30.6800   40.3230 H   0  0  0  0  0  0  0  0  0  0  0  0
  1  4  1  0  0  0  0
  2  5  1  1  0  0  0
  2 11  1  0  0  0  0
  3  6  1  0  0  0  0
  3  7  1  0  0  0  0
  3  2  1  0  0  0  0
  4  8  1  6  0  0  0
  4  3  1  0  0  0  0
  4  2  1  0  0  0  0
  9 15  1  0  0  0  0
 10 16  1  0  0  0  0
 10  9  2  0  0  0  0
 11 10  1  0  0  0  0
 12 11  2  0  0  0  0
 12 13  1  0  0  0  0
 13 14  2  0  0  0  0
 14  9  1  0  0  0  0
 17 13  1  0  0  0  0
 19 18  2  6  0  0  0
 19  1  1  0  0  0  0
 20 19  1  0  0  0  0
 21 20  1  0  0  0  0
 22 19  1  0  0  0  0
 23 22  1  0  0  0  0
 23 28  1  0  0  0  0
 24 23  2  0  0  0  0
 25 24  1  0  0  0  0
 25 26  2  0  0  0  0
 26 27  1  0  0  0  0
 27 28  2  0  0  0  0
 27 32  1  0  0  0  0
 29 24  1  0  0  0  0
 30 25  1  0  0  0  0
 31 26  1  0  0  0  0
 32 33  1  0  0  0  0
 34 33  1  0  0  0  0
M  END
>  <minimizedAffinity>
-4.24208546

>  <minimizedRMSD>
0.0746432841

$$$$
