
 OpenBabel03252500223D

 30 31  0  0  1  0  0  0  0  0999 V2000
   46.1050   34.8700   42.2150 C   0  0  1  0  0  0  0  0  0  0  0  0
   47.5560   35.3750   42.2140 C   0  0  0  0  0  0  0  0  0  0  0  0
   48.4320   35.0650   41.0960 C   0  0  0  0  0  0  0  0  0  0  0  0
   47.7870   34.2240   40.0040 C   0  0  0  0  0  0  0  0  0  0  0  0
   47.0750   33.1120   40.7310 C   0  0  0  0  0  0  0  0  0  0  0  0
   45.8210   33.7740   41.3120 C   0  0  2  0  0  0  0  0  0  0  0  0
   45.5980   35.8320   41.9250 H   0  0  0  0  0  0  0  0  0  0  0  0
   47.9170   35.9450   43.0240 H   0  0  0  0  0  0  0  0  0  0  0  0
   49.4450   35.4450   41.1430 H   0  0  0  0  0  0  0  0  0  0  0  0
   48.6660   33.7730   39.4960 H   0  0  0  0  0  0  0  0  0  0  0  0
   47.1760   34.8490   39.3650 H   0  0  0  0  0  0  0  0  0  0  0  0
   46.7420   32.3000   40.0740 H   0  0  0  0  0  0  0  0  0  0  0  0
   47.6900   32.7810   41.5680 H   0  0  0  0  0  0  0  0  0  0  0  0
   45.2880   32.9550   41.8470 H   0  0  0  0  0  0  0  0  0  0  0  0
   46.2570   33.4910   44.3160 C   0  0  0  0  0  0  0  0  0  0  0  0
   45.7870   34.6490   43.6520 C   0  0  0  0  0  0  0  0  0  0  0  0
   44.9560   35.5020   44.3900 C   0  0  0  0  0  0  0  0  0  0  0  0
   44.6360   35.2100   45.6680 N   0  0  0  0  0  0  0  0  0  0  0  0
   45.1200   34.0800   46.2520 C   0  0  0  0  0  0  0  0  0  0  0  0
   45.9260   33.2240   45.5780 N   0  0  0  0  0  0  0  0  0  0  0  0
   44.8190   33.7560   47.5880 N   0  0  0  0  0  0  0  0  0  0  0  0
   46.9080   32.7710   43.8400 H   0  0  0  0  0  0  0  0  0  0  0  0
   45.6460   33.5040   48.2030 H   0  0  0  0  0  0  0  0  0  0  0  0
   43.8430   33.7660   47.9460 H   0  0  0  0  0  0  0  0  0  0  0  0
   44.5080   36.6770   43.7450 N   0  0  0  0  0  0  0  0  0  0  0  0
   43.5660   36.6300   43.3130 H   0  0  0  0  0  0  0  0  0  0  0  0
   45.0320   37.5950   43.6580 H   0  0  0  0  0  0  0  0  0  0  0  0
   44.8520   34.1380   40.1920 C   0  0  0  0  0  0  0  0  0  0  0  0
   43.6410   34.8790   40.7170 C   0  0  0  0  0  0  0  0  0  0  0  0
   42.9480   34.1320   41.1660 H   0  0  0  0  0  0  0  0  0  0  0  0
  1  7  1  6  0  0  0
  1 16  1  0  0  0  0
  2  1  1  0  0  0  0
  2  8  1  0  0  0  0
  3  9  1  0  0  0  0
  3  2  2  0  0  0  0
  4  5  1  0  0  0  0
  4  3  1  0  0  0  0
  5  6  1  0  0  0  0
  5 13  1  0  0  0  0
  6 14  1  1  0  0  0
  6  1  1  0  0  0  0
 10  4  1  0  0  0  0
 11  4  1  0  0  0  0
 12  5  1  0  0  0  0
 15 20  1  0  0  0  0
 16 15  2  0  0  0  0
 16 17  1  0  0  0  0
 17 18  2  0  0  0  0
 18 19  1  0  0  0  0
 19 21  1  0  0  0  0
 20 19  2  0  0  0  0
 21 24  1  0  0  0  0
 21 23  1  0  0  0  0
 22 15  1  0  0  0  0
 25 17  1  0  0  0  0
 26 25  1  0  0  0  0
 27 25  1  0  0  0  0
 28 29  1  0  0  0  0
 28  6  1  0  0  0  0
 29 30  1  0  0  0  0
M  END
>  <minimizedAffinity>
-5.92170238

>  <minimizedRMSD>
3.30169916

$$$$
