
 OpenBabel03252509143D

 39 42  0  0  1  0  0  0  0  0999 V2000
   47.4860   32.5660   44.2890 C   0  0  0  0  0  0  0  0  0  0  0  0
   46.7950   33.5410   43.5640 C   0  0  0  0  0  0  0  0  0  0  0  0
   45.7540   34.2860   44.1090 C   0  0  0  0  0  0  0  0  0  0  0  0
   45.3750   34.0600   45.4390 C   0  0  0  0  0  0  0  0  0  0  0  0
   44.4480   34.5720   46.2720 N   0  0  0  0  0  0  0  0  0  0  0  0
   44.5320   33.9620   47.4750 C   0  0  0  0  0  0  0  0  0  0  0  0
   45.5210   33.0750   47.3570 N   0  0  0  0  0  0  0  0  0  0  0  0
   46.0690   33.0970   46.1300 C   0  0  0  0  0  0  0  0  0  0  0  0
   47.1030   32.3410   45.6200 C   0  0  0  0  0  0  0  0  0  0  0  0
   48.2760   32.0430   43.7750 H   0  0  0  0  0  0  0  0  0  0  0  0
   43.7650   35.3340   46.0110 H   0  0  0  0  0  0  0  0  0  0  0  0
   43.9450   34.1260   48.3670 H   0  0  0  0  0  0  0  0  0  0  0  0
   47.6320   31.6000   46.1650 H   0  0  0  0  0  0  0  0  0  0  0  0
   47.0480   33.2110   39.9310 C   0  0  0  0  0  0  0  0  0  0  0  0
   47.8920   34.2660   39.5780 C   0  0  0  0  0  0  0  0  0  0  0  0
   48.3680   35.0840   40.5960 C   0  0  0  0  0  0  0  0  0  0  0  0
   47.9930   34.8230   41.8920 N   0  0  0  0  0  0  0  0  0  0  0  0
   47.1750   33.7910   42.1770 C   0  0  0  0  0  0  0  0  0  0  0  0
   46.6850   32.9660   41.2270 N   0  0  0  0  0  0  0  0  0  0  0  0
   46.6750   32.5710   39.1440 H   0  0  0  0  0  0  0  0  0  0  0  0
   48.1640   34.4390   38.5500 H   0  0  0  0  0  0  0  0  0  0  0  0
   49.0260   35.9200   40.3970 H   0  0  0  0  0  0  0  0  0  0  0  0
   44.8910   35.5170   43.1720 S   0  0  0  0  0  0  0  0  0  0  0  0
   42.3620   35.4740   42.4630 N   0  0  0  0  0  0  0  0  0  0  0  0
   43.6220   34.8490   42.0780 C   0  0  1  0  0  0  0  0  0  0  0  0
   44.0250   35.2430   40.6670 C   0  0  0  0  0  0  0  0  0  0  0  0
   42.9770   35.2280   39.7680 O   0  0  0  0  0  0  0  0  0  0  0  0
   41.8150   34.6410   40.2240 C   0  0  0  0  0  0  0  0  0  0  0  0
   41.3550   35.3700   41.4510 C   0  0  1  0  0  0  0  0  0  0  0  0
   42.1020   35.0660   43.3870 H   0  0  0  0  0  0  0  0  0  0  0  0
   43.5360   33.7470   42.1820 H   0  0  0  0  0  0  0  0  0  0  0  0
   44.4670   36.2590   40.6860 H   0  0  0  0  0  0  0  0  0  0  0  0
   44.7230   34.5020   40.2840 H   0  0  0  0  0  0  0  0  0  0  0  0
   41.0560   34.7610   39.4460 H   0  0  0  0  0  0  0  0  0  0  0  0
   42.0210   33.5890   40.4820 H   0  0  0  0  0  0  0  0  0  0  0  0
   40.9460   36.3770   41.1880 H   0  0  0  0  0  0  0  0  0  0  0  0
   40.1880   34.5720   42.0440 C   0  0  0  0  0  2  0  0  0  0  0  0
   40.1430   33.1580   41.5690 C   0  0  0  0  0  2  0  0  0  0  0  0
   40.6600   32.4690   42.2790 H   0  0  0  0  0  0  0  0  0  0  0  0
  1  9  1  0  0  0  0
  2  3  1  0  0  0  0
  2  1  2  0  0  0  0
  3  4  2  0  0  0  0
  4  8  1  0  0  0  0
  4  5  1  0  0  0  0
  5  6  1  0  0  0  0
  6 12  1  0  0  0  0
  7  6  2  0  0  0  0
  8  7  1  0  0  0  0
  9  8  2  0  0  0  0
  9 13  1  0  0  0  0
 10  1  1  0  0  0  0
 11  5  1  0  0  0  0
 14 19  1  0  0  0  0
 15 14  2  0  0  0  0
 15 16  1  0  0  0  0
 16 17  2  0  0  0  0
 17 18  1  0  0  0  0
 18  2  1  0  0  0  0
 19 18  2  0  0  0  0
 20 14  1  0  0  0  0
 21 15  1  0  0  0  0
 22 16  1  0  0  0  0
 23  3  1  0  0  0  0
 24 30  1  0  0  0  0
 25 31  1  1  0  0  0
 25 24  1  0  0  0  0
 25 23  1  0  0  0  0
 26 32  1  0  0  0  0
 26 25  1  0  0  0  0
 27 28  1  0  0  0  0
 27 26  1  0  0  0  0
 28 35  1  0  0  0  0
 28 29  1  0  0  0  0
 29 36  1  6  0  0  0
 29 37  1  0  0  0  0
 29 24  1  0  0  0  0
 33 26  1  0  0  0  0
 34 28  1  0  0  0  0
 38 37  1  0  0  0  0
 38 39  1  0  0  0  0
M  END
>  <minimizedAffinity>
-5.80401611

>  <minimizedRMSD>
0.363268197

$$$$
