
 OpenBabel03242519053D

 37 39  0  0  1  0  0  0  0  0999 V2000
   47.7200   34.3670   42.3900 N   0  0  0  0  0  0  0  0  0  0  0  0
   47.9360   34.6790   40.9890 C   0  0  0  0  0  0  0  0  0  0  0  0
   48.4200   33.3390   40.5260 C   0  0  2  0  0  0  0  0  0  0  0  0
   49.4770   33.0430   41.5610 C   0  0  0  0  0  0  0  0  0  0  0  0
   48.8670   33.5990   42.8220 C   0  0  0  0  0  0  0  0  0  0  0  0
   48.6580   35.4850   40.8420 H   0  0  0  0  0  0  0  0  0  0  0  0
   46.9360   34.8830   40.5320 H   0  0  0  0  0  0  0  0  0  0  0  0
   47.5790   32.6440   40.5680 H   0  0  0  0  0  0  0  0  0  0  0  0
   49.7530   31.9730   41.6260 H   0  0  0  0  0  0  0  0  0  0  0  0
   50.3670   33.6880   41.3100 H   0  0  0  0  0  0  0  0  0  0  0  0
   48.5660   32.8190   43.5310 H   0  0  0  0  0  0  0  0  0  0  0  0
   49.5540   34.3040   43.3280 H   0  0  0  0  0  0  0  0  0  0  0  0
   44.7330   35.9790   43.9450 C   0  0  0  0  0  0  0  0  0  0  0  0
   45.7680   35.7300   43.0340 C   0  0  0  0  0  0  0  0  0  0  0  0
   46.6540   34.6940   43.2440 C   0  0  0  0  0  0  0  0  0  0  0  0
   46.4720   33.9410   44.3630 N   0  0  0  0  0  0  0  0  0  0  0  0
   45.4870   34.1620   45.2480 C   0  0  0  0  0  0  0  0  0  0  0  0
   44.6150   35.1840   45.0390 N   0  0  0  0  0  0  0  0  0  0  0  0
   44.0350   36.7860   43.7910 H   0  0  0  0  0  0  0  0  0  0  0  0
   45.8920   36.3490   42.1440 H   0  0  0  0  0  0  0  0  0  0  0  0
   45.4090   33.5050   46.1270 H   0  0  0  0  0  0  0  0  0  0  0  0
   49.0740   33.3980   39.2360 N   0  0  0  0  0  0  0  0  0  0  0  0
   50.0140   33.8830   39.2400 H   0  0  0  0  0  0  0  0  0  0  0  0
   49.5140   32.1850   37.1080 C   0  0  0  0  0  0  0  0  0  0  0  0
   48.6870   32.9210   37.9660 C   0  0  0  0  0  0  0  0  0  0  0  0
   47.4310   33.1540   37.4690 C   0  0  0  0  0  0  0  0  0  0  0  0
   46.9700   32.7280   36.2430 C   0  0  0  0  0  0  0  0  0  0  0  0
   47.8050   32.0060   35.4200 C   0  0  0  0  0  0  0  0  0  0  0  0
   49.0840   31.7490   35.8870 C   0  0  0  0  0  0  0  0  0  0  0  0
   46.7200   33.7170   38.0630 H   0  0  0  0  0  0  0  0  0  0  0  0
   45.9640   32.9370   35.8870 H   0  0  0  0  0  0  0  0  0  0  0  0
   47.4870   31.6510   34.4490 H   0  0  0  0  0  0  0  0  0  0  0  0
   51.9380   31.6640   37.9400 N   0  0  0  0  0  0  0  0  0  0  0  0
   50.8690   31.8910   37.5620 C   0  0  0  0  0  0  0  0  0  0  0  0
   50.0000   30.9750   35.0140 C   0  0  0  0  0  0  0  0  0  0  0  0
   49.9450   31.5850   33.6350 C   0  0  0  0  0  0  0  0  0  0  0  0
   49.8110   32.6800   33.6600 H   0  0  0  0  0  0  0  0  0  0  0  0
  1  5  1  0  0  0  0
  1 15  1  0  0  0  0
  2  1  1  0  0  0  0
  3  8  1  1  0  0  0
  3  2  1  0  0  0  0
  3  4  1  0  0  0  0
  4  9  1  0  0  0  0
  4  5  1  0  0  0  0
  5 12  1  0  0  0  0
  5 11  1  0  0  0  0
  6  2  1  0  0  0  0
  7  2  1  0  0  0  0
 10  4  1  0  0  0  0
 13 18  1  0  0  0  0
 14 15  1  0  0  0  0
 14 13  2  0  0  0  0
 15 16  2  0  0  0  0
 16 17  1  0  0  0  0
 17 21  1  0  0  0  0
 18 17  2  0  0  0  0
 19 13  1  0  0  0  0
 20 14  1  0  0  0  0
 22 23  1  0  0  0  0
 22  3  1  0  0  0  0
 24 34  1  0  0  0  0
 24 25  1  0  0  0  0
 25 22  1  0  0  0  0
 26 25  2  0  0  0  0
 26 30  1  0  0  0  0
 27 26  1  0  0  0  0
 28 29  1  0  0  0  0
 28 27  2  0  0  0  0
 29 24  2  0  0  0  0
 31 27  1  0  0  0  0
 32 28  1  0  0  0  0
 34 33  3  0  0  0  0
 35 29  1  0  0  0  0
 36 37  1  0  0  0  0
 36 35  1  0  0  0  0
M  END
>  <minimizedAffinity>
-4.82094431

>  <minimizedRMSD>
1.55357456

$$$$
