
 OpenBabel03252509153D

 39 42  0  0  1  0  0  0  0  0999 V2000
   37.4690   33.0330   39.7370 C   0  0  0  0  0  0  0  0  0  0  0  0
   37.7990   31.6760   39.7680 C   0  0  0  0  0  0  0  0  0  0  0  0
   39.0840   31.2210   40.0490 C   0  0  0  0  0  0  0  0  0  0  0  0
   40.0950   32.1530   40.3150 C   0  0  0  0  0  0  0  0  0  0  0  0
   41.4070   32.0840   40.6160 N   0  0  0  0  0  0  0  0  0  0  0  0
   41.9020   33.3310   40.7740 C   0  0  0  0  0  0  0  0  0  0  0  0
   40.8740   34.1540   40.5620 N   0  0  0  0  0  0  0  0  0  0  0  0
   39.7450   33.4810   40.2780 C   0  0  0  0  0  0  0  0  0  0  0  0
   38.4850   33.9640   40.0030 C   0  0  0  0  0  0  0  0  0  0  0  0
   36.4450   33.2820   39.5080 H   0  0  0  0  0  0  0  0  0  0  0  0
   41.9530   31.1850   40.7120 H   0  0  0  0  0  0  0  0  0  0  0  0
   42.9090   33.6420   41.0170 H   0  0  0  0  0  0  0  0  0  0  0  0
   38.2270   34.9930   39.9780 H   0  0  0  0  0  0  0  0  0  0  0  0
   35.0610   29.3030   40.2650 C   0  0  0  0  0  0  0  0  0  0  0  0
   34.8100   28.8390   38.9720 C   0  0  0  0  0  0  0  0  0  0  0  0
   35.5870   29.3470   37.9370 C   0  0  0  0  0  0  0  0  0  0  0  0
   36.5590   30.2740   38.2270 N   0  0  0  0  0  0  0  0  0  0  0  0
   36.7590   30.6890   39.4930 C   0  0  0  0  0  0  0  0  0  0  0  0
   36.0330   30.2270   40.5340 N   0  0  0  0  0  0  0  0  0  0  0  0
   34.4610   28.9120   41.0730 H   0  0  0  0  0  0  0  0  0  0  0  0
   34.0390   28.1100   38.7840 H   0  0  0  0  0  0  0  0  0  0  0  0
   35.4490   29.0330   36.9110 H   0  0  0  0  0  0  0  0  0  0  0  0
   39.4810   29.4950   40.0830 S   0  0  0  0  0  0  0  0  0  0  0  0
   38.3480   27.4880   41.3440 N   0  0  0  0  0  0  0  0  0  0  0  0
   39.1160   28.6890   41.6540 C   0  0  1  0  0  0  0  0  0  0  0  0
   40.4560   28.3420   42.2780 C   0  0  0  0  0  0  0  0  0  0  0  0
   40.3830   27.3400   43.2260 O   0  0  0  0  0  0  0  0  0  0  0  0
   39.1080   26.9910   43.6200 C   0  0  0  0  0  0  0  0  0  0  0  0
   38.3360   26.5400   42.4170 C   0  0  1  0  0  0  0  0  0  0  0  0
   37.4080   27.8120   41.0320 H   0  0  0  0  0  0  0  0  0  0  0  0
   38.5180   29.3480   42.3190 H   0  0  0  0  0  0  0  0  0  0  0  0
   41.1590   28.0290   41.4790 H   0  0  0  0  0  0  0  0  0  0  0  0
   40.8210   29.2070   42.8250 H   0  0  0  0  0  0  0  0  0  0  0  0
   39.1950   26.1480   44.3120 H   0  0  0  0  0  0  0  0  0  0  0  0
   38.6150   27.8740   44.0590 H   0  0  0  0  0  0  0  0  0  0  0  0
   38.6870   25.5370   42.0690 H   0  0  0  0  0  0  0  0  0  0  0  0
   36.8780   26.3590   42.8530 C   0  0  0  0  0  2  0  0  0  0  0  0
   36.3640   27.4960   43.6700 C   0  0  0  0  0  2  0  0  0  0  0  0
   35.8300   28.2480   43.0420 H   0  0  0  0  0  0  0  0  0  0  0  0
  1  2  2  0  0  0  0
  1  9  1  0  0  0  0
  2  3  1  0  0  0  0
  3 23  1  0  0  0  0
  3  4  2  0  0  0  0
  4  5  1  0  0  0  0
  5 11  1  0  0  0  0
  5  6  1  0  0  0  0
  6 12  1  0  0  0  0
  7  6  2  0  0  0  0
  8  4  1  0  0  0  0
  8  7  1  0  0  0  0
  9  8  2  0  0  0  0
 10  1  1  0  0  0  0
 13  9  1  0  0  0  0
 14 19  1  0  0  0  0
 14 20  1  0  0  0  0
 15 14  2  0  0  0  0
 16 17  2  0  0  0  0
 16 15  1  0  0  0  0
 17 18  1  0  0  0  0
 18  2  1  0  0  0  0
 18 19  2  0  0  0  0
 21 15  1  0  0  0  0
 22 16  1  0  0  0  0
 23 25  1  0  0  0  0
 24 25  1  0  0  0  0
 24 29  1  0  0  0  0
 25 26  1  0  0  0  0
 25 31  1  1  0  0  0
 26 33  1  0  0  0  0
 26 27  1  0  0  0  0
 27 28  1  0  0  0  0
 28 35  1  0  0  0  0
 28 34  1  0  0  0  0
 29 36  1  6  0  0  0
 29 37  1  0  0  0  0
 29 28  1  0  0  0  0
 30 24  1  0  0  0  0
 32 26  1  0  0  0  0
 37 38  1  0  0  0  0
 39 38  1  0  0  0  0
M  END
>  <minimizedAffinity>
-5.83984375

$$$$

 OpenBabel03252509153D

 39 42  0  0  1  0  0  0  0  0999 V2000
   37.0610   30.1390   36.9340 C   0  0  0  0  0  0  0  0  0  0  0  0
   36.3500   29.5140   37.9620 C   0  0  0  0  0  0  0  0  0  0  0  0
   36.2320   30.0610   39.2360 C   0  0  0  0  0  0  0  0  0  0  0  0
   36.8470   31.2890   39.5110 C   0  0  0  0  0  0  0  0  0  0  0  0
   36.9430   32.0930   40.5890 N   0  0  0  0  0  0  0  0  0  0  0  0
   37.6780   33.1830   40.2770 C   0  0  0  0  0  0  0  0  0  0  0  0
   38.0240   33.0280   39.0000 N   0  0  0  0  0  0  0  0  0  0  0  0
   37.5400   31.8840   38.4850 C   0  0  0  0  0  0  0  0  0  0  0  0
   37.6760   31.3700   37.2140 C   0  0  0  0  0  0  0  0  0  0  0  0
   37.0930   29.6330   35.9830 H   0  0  0  0  0  0  0  0  0  0  0  0
   36.5060   31.8890   41.5290 H   0  0  0  0  0  0  0  0  0  0  0  0
   37.9510   34.0240   40.8990 H   0  0  0  0  0  0  0  0  0  0  0  0
   38.2140   31.8400   36.4290 H   0  0  0  0  0  0  0  0  0  0  0  0
   33.8340   27.0420   36.9960 C   0  0  0  0  0  0  0  0  0  0  0  0
   34.4950   25.8280   37.1950 C   0  0  0  0  0  0  0  0  0  0  0  0
   35.8030   25.8700   37.6630 C   0  0  0  0  0  0  0  0  0  0  0  0
   36.3860   27.0910   37.9050 N   0  0  0  0  0  0  0  0  0  0  0  0
   35.7030   28.2330   37.6940 C   0  0  0  0  0  0  0  0  0  0  0  0
   34.4300   28.2480   37.2430 N   0  0  0  0  0  0  0  0  0  0  0  0
   32.8170   27.0160   36.6330 H   0  0  0  0  0  0  0  0  0  0  0  0
   34.0040   24.8900   36.9940 H   0  0  0  0  0  0  0  0  0  0  0  0
   36.3750   24.9690   37.8410 H   0  0  0  0  0  0  0  0  0  0  0  0
   35.3260   29.2500   40.5240 S   0  0  0  0  0  0  0  0  0  0  0  0
   37.1770   27.3950   40.7230 N   0  0  0  0  0  0  0  0  0  0  0  0
   36.3430   28.2140   41.5950 C   0  0  1  0  0  0  0  0  0  0  0  0
   37.1840   29.1620   42.4330 C   0  0  0  0  0  0  0  0  0  0  0  0
   38.3180   28.5770   42.9600 O   0  0  0  0  0  0  0  0  0  0  0  0
   38.3810   27.2030   42.8490 C   0  0  0  0  0  0  0  0  0  0  0  0
   38.3060   26.8320   41.3980 C   0  0  1  0  0  0  0  0  0  0  0  0
   36.5400   26.7020   40.2740 H   0  0  0  0  0  0  0  0  0  0  0  0
   35.7170   27.5560   42.2340 H   0  0  0  0  0  0  0  0  0  0  0  0
   37.4840   30.0290   41.8090 H   0  0  0  0  0  0  0  0  0  0  0  0
   36.6050   29.4660   43.3010 H   0  0  0  0  0  0  0  0  0  0  0  0
   39.3520   26.8830   43.2380 H   0  0  0  0  0  0  0  0  0  0  0  0
   37.5230   26.7600   43.3820 H   0  0  0  0  0  0  0  0  0  0  0  0
   39.2580   27.0890   40.8700 H   0  0  0  0  0  0  0  0  0  0  0  0
   38.1720   25.3070   41.3240 C   0  0  0  0  0  2  0  0  0  0  0  0
   37.0140   24.7820   42.1050 C   0  0  0  0  0  2  0  0  0  0  0  0
   36.1100   24.6500   41.4640 H   0  0  0  0  0  0  0  0  0  0  0  0
  1  9  2  0  0  0  0
  1  2  1  0  0  0  0
  2  3  2  0  0  0  0
  3  4  1  0  0  0  0
  3 23  1  0  0  0  0
  4  5  1  0  0  0  0
  5 11  1  0  0  0  0
  6  5  1  0  0  0  0
  6 12  1  0  0  0  0
  7  6  2  0  0  0  0
  8  7  1  0  0  0  0
  8  4  2  0  0  0  0
  9  8  1  0  0  0  0
 10  1  1  0  0  0  0
 13  9  1  0  0  0  0
 14 15  2  0  0  0  0
 14 19  1  0  0  0  0
 15 16  1  0  0  0  0
 16 22  1  0  0  0  0
 16 17  2  0  0  0  0
 18 17  1  0  0  0  0
 18  2  1  0  0  0  0
 19 18  2  0  0  0  0
 20 14  1  0  0  0  0
 21 15  1  0  0  0  0
 23 25  1  0  0  0  0
 24 29  1  0  0  0  0
 24 25  1  0  0  0  0
 25 31  1  1  0  0  0
 25 26  1  0  0  0  0
 26 27  1  0  0  0  0
 26 33  1  0  0  0  0
 28 27  1  0  0  0  0
 28 34  1  0  0  0  0
 28 35  1  0  0  0  0
 29 36  1  6  0  0  0
 29 28  1  0  0  0  0
 30 24  1  0  0  0  0
 32 26  1  0  0  0  0
 37 29  1  0  0  0  0
 37 38  1  0  0  0  0
 39 38  1  0  0  0  0
M  END
>  <minimizedAffinity>
-5.56146383

$$$$

 OpenBabel03252509153D

 39 42  0  0  1  0  0  0  0  0999 V2000
   37.3870   30.8010   36.9060 C   0  0  0  0  0  0  0  0  0  0  0  0
   37.0730   30.8250   38.2680 C   0  0  0  0  0  0  0  0  0  0  0  0
   36.1450   29.9610   38.8410 C   0  0  0  0  0  0  0  0  0  0  0  0
   35.4920   29.0250   38.0300 C   0  0  0  0  0  0  0  0  0  0  0  0
   34.5680   28.0640   38.2280 N   0  0  0  0  0  0  0  0  0  0  0  0
   34.2960   27.4480   37.0560 C   0  0  0  0  0  0  0  0  0  0  0  0
   35.0660   28.0490   36.1490 N   0  0  0  0  0  0  0  0  0  0  0  0
   35.8170   29.0210   36.6950 C   0  0  0  0  0  0  0  0  0  0  0  0
   36.7310   29.8610   36.0970 C   0  0  0  0  0  0  0  0  0  0  0  0
   38.1200   31.5120   36.5600 H   0  0  0  0  0  0  0  0  0  0  0  0
   34.1310   27.8370   39.1620 H   0  0  0  0  0  0  0  0  0  0  0  0
   33.6090   26.6390   36.8530 H   0  0  0  0  0  0  0  0  0  0  0  0
   36.9730   29.8480   35.0630 H   0  0  0  0  0  0  0  0  0  0  0  0
   37.8730   33.9440   40.0020 C   0  0  0  0  0  0  0  0  0  0  0  0
   39.0040   33.6070   40.7470 C   0  0  0  0  0  0  0  0  0  0  0  0
   39.4850   32.3060   40.6460 C   0  0  0  0  0  0  0  0  0  0  0  0
   38.8330   31.4170   39.8270 N   0  0  0  0  0  0  0  0  0  0  0  0
   37.7430   31.7940   39.1300 C   0  0  0  0  0  0  0  0  0  0  0  0
   37.2360   33.0440   39.1910 N   0  0  0  0  0  0  0  0  0  0  0  0
   37.4950   34.9530   40.0760 H   0  0  0  0  0  0  0  0  0  0  0  0
   39.4890   34.3330   41.3790 H   0  0  0  0  0  0  0  0  0  0  0  0
   40.3570   31.9750   41.1940 H   0  0  0  0  0  0  0  0  0  0  0  0
   35.7620   30.0100   40.5690 S   0  0  0  0  0  0  0  0  0  0  0  0
   37.0500   27.7200   40.5420 N   0  0  0  0  0  0  0  0  0  0  0  0
   36.4200   28.6160   41.5060 C   0  0  1  0  0  0  0  0  0  0  0  0
   37.4390   29.1930   42.4720 C   0  0  0  0  0  0  0  0  0  0  0  0
   38.3550   28.2660   42.9310 O   0  0  0  0  0  0  0  0  0  0  0  0
   38.0600   26.9500   42.6380 C   0  0  0  0  0  0  0  0  0  0  0  0
   37.9590   26.7970   41.1500 C   0  0  1  0  0  0  0  0  0  0  0  0
   36.2760   27.2830   39.9980 H   0  0  0  0  0  0  0  0  0  0  0  0
   35.6140   28.0730   42.0440 H   0  0  0  0  0  0  0  0  0  0  0  0
   37.9850   30.0190   41.9730 H   0  0  0  0  0  0  0  0  0  0  0  0
   36.9210   29.5290   43.3670 H   0  0  0  0  0  0  0  0  0  0  0  0
   38.8940   26.3380   42.9940 H   0  0  0  0  0  0  0  0  0  0  0  0
   37.0920   26.6890   43.0980 H   0  0  0  0  0  0  0  0  0  0  0  0
   38.9680   26.8560   40.6730 H   0  0  0  0  0  0  0  0  0  0  0  0
   37.4330   25.3840   40.8730 C   0  0  0  0  0  2  0  0  0  0  0  0
   36.9060   24.7040   42.0920 C   0  0  0  0  0  2  0  0  0  0  0  0
   35.8030   24.8340   42.1930 H   0  0  0  0  0  0  0  0  0  0  0  0
  1  2  1  0  0  0  0
  2  3  2  0  0  0  0
  2 18  1  0  0  0  0
  3 23  1  0  0  0  0
  4  5  1  0  0  0  0
  4  3  1  0  0  0  0
  5 11  1  0  0  0  0
  6  5  1  0  0  0  0
  7  8  1  0  0  0  0
  7  6  2  0  0  0  0
  8  4  2  0  0  0  0
  9  8  1  0  0  0  0
  9  1  2  0  0  0  0
 10  1  1  0  0  0  0
 12  6  1  0  0  0  0
 13  9  1  0  0  0  0
 14 20  1  0  0  0  0
 14 15  1  0  0  0  0
 15 21  1  0  0  0  0
 16 15  2  0  0  0  0
 16 22  1  0  0  0  0
 17 16  1  0  0  0  0
 18 19  1  0  0  0  0
 18 17  2  0  0  0  0
 19 14  2  0  0  0  0
 23 25  1  0  0  0  0
 24 29  1  0  0  0  0
 24 25  1  0  0  0  0
 25 31  1  1  0  0  0
 25 26  1  0  0  0  0
 26 27  1  0  0  0  0
 26 33  1  0  0  0  0
 28 27  1  0  0  0  0
 28 34  1  0  0  0  0
 28 35  1  0  0  0  0
 29 36  1  6  0  0  0
 29 28  1  0  0  0  0
 30 24  1  0  0  0  0
 32 26  1  0  0  0  0
 37 29  1  0  0  0  0
 37 38  1  0  0  0  0
 38 39  1  0  0  0  0
M  END
>  <minimizedAffinity>
-5.55088234

$$$$

 OpenBabel03252509153D

 39 42  0  0  1  0  0  0  0  0999 V2000
   39.4890   30.4010   42.0930 C   0  0  0  0  0  0  0  0  0  0  0  0
   38.2540   29.9380   41.6320 C   0  0  0  0  0  0  0  0  0  0  0  0
   37.3760   30.7360   40.9040 C   0  0  0  0  0  0  0  0  0  0  0  0
   37.7350   32.0590   40.6160 C   0  0  0  0  0  0  0  0  0  0  0  0
   37.1600   33.0870   39.9610 N   0  0  0  0  0  0  0  0  0  0  0  0
   37.9800   34.1610   39.9950 C   0  0  0  0  0  0  0  0  0  0  0  0
   39.0540   33.7700   40.6790 N   0  0  0  0  0  0  0  0  0  0  0  0
   38.9530   32.4910   41.0810 C   0  0  0  0  0  0  0  0  0  0  0  0
   39.8450   31.7270   41.8040 C   0  0  0  0  0  0  0  0  0  0  0  0
   40.0960   29.7040   42.6490 H   0  0  0  0  0  0  0  0  0  0  0  0
   36.2130   33.0460   39.4950 H   0  0  0  0  0  0  0  0  0  0  0  0
   37.8340   35.1450   39.5720 H   0  0  0  0  0  0  0  0  0  0  0  0
   40.7840   32.0730   42.1570 H   0  0  0  0  0  0  0  0  0  0  0  0
   36.7920   27.0350   43.3070 C   0  0  0  0  0  0  0  0  0  0  0  0
   37.1320   25.9790   42.4590 C   0  0  0  0  0  0  0  0  0  0  0  0
   37.8640   26.2750   41.3160 C   0  0  0  0  0  0  0  0  0  0  0  0
   38.2180   27.5800   41.0700 N   0  0  0  0  0  0  0  0  0  0  0  0
   37.8620   28.5620   41.9220 C   0  0  0  0  0  0  0  0  0  0  0  0
   37.1530   28.3290   43.0460 N   0  0  0  0  0  0  0  0  0  0  0  0
   36.2220   26.8110   44.1980 H   0  0  0  0  0  0  0  0  0  0  0  0
   36.8360   24.9680   42.6860 H   0  0  0  0  0  0  0  0  0  0  0  0
   38.1630   25.5080   40.6140 H   0  0  0  0  0  0  0  0  0  0  0  0
   35.8150   30.1280   40.3290 S   0  0  0  0  0  0  0  0  0  0  0  0
   36.9670   28.7240   38.4300 N   0  0  0  0  0  0  0  0  0  0  0  0
   35.8210   29.6110   38.6010 C   0  0  1  0  0  0  0  0  0  0  0  0
   34.5130   28.8740   38.3720 C   0  0  0  0  0  0  0  0  0  0  0  0
   34.5380   28.0290   37.2790 O   0  0  0  0  0  0  0  0  0  0  0  0
   35.6330   28.1650   36.4510 C   0  0  0  0  0  0  0  0  0  0  0  0
   36.8770   27.9190   37.2500 C   0  0  1  0  0  0  0  0  0  0  0  0
   37.8150   29.3260   38.4890 H   0  0  0  0  0  0  0  0  0  0  0  0
   35.9210   30.4810   37.9180 H   0  0  0  0  0  0  0  0  0  0  0  0
   34.2650   28.2840   39.2770 H   0  0  0  0  0  0  0  0  0  0  0  0
   33.7400   29.6010   38.1350 H   0  0  0  0  0  0  0  0  0  0  0  0
   35.5600   27.3960   35.6770 H   0  0  0  0  0  0  0  0  0  0  0  0
   35.6540   29.1930   36.0520 H   0  0  0  0  0  0  0  0  0  0  0  0
   36.9850   26.8330   37.4980 H   0  0  0  0  0  0  0  0  0  0  0  0
   38.0700   28.2770   36.3570 C   0  0  0  0  0  2  0  0  0  0  0  0
   39.3760   28.2320   37.0770 C   0  0  0  0  0  2  0  0  0  0  0  0
   39.8850   27.2480   36.9480 H   0  0  0  0  0  0  0  0  0  0  0  0
  1 10  1  0  0  0  0
  2 18  1  0  0  0  0
  2  1  2  0  0  0  0
  3  2  1  0  0  0  0
  4  3  2  0  0  0  0
  4  8  1  0  0  0  0
  5  6  1  0  0  0  0
  5  4  1  0  0  0  0
  6  7  2  0  0  0  0
  7  8  1  0  0  0  0
  8  9  2  0  0  0  0
  9  1  1  0  0  0  0
  9 13  1  0  0  0  0
 11  5  1  0  0  0  0
 12  6  1  0  0  0  0
 14 20  1  0  0  0  0
 15 21  1  0  0  0  0
 15 14  2  0  0  0  0
 16 15  1  0  0  0  0
 17 16  2  0  0  0  0
 17 18  1  0  0  0  0
 18 19  2  0  0  0  0
 19 14  1  0  0  0  0
 22 16  1  0  0  0  0
 23  3  1  0  0  0  0
 24 30  1  0  0  0  0
 24 25  1  0  0  0  0
 25 31  1  6  0  0  0
 25 23  1  0  0  0  0
 26 25  1  0  0  0  0
 26 32  1  0  0  0  0
 27 26  1  0  0  0  0
 28 29  1  0  0  0  0
 28 27  1  0  0  0  0
 29 36  1  1  0  0  0
 29 24  1  0  0  0  0
 33 26  1  0  0  0  0
 34 28  1  0  0  0  0
 35 28  1  0  0  0  0
 37 38  1  0  0  0  0
 37 29  1  0  0  0  0
 39 38  1  0  0  0  0
M  END
>  <minimizedAffinity>
-5.49392271

$$$$

 OpenBabel03252509153D

 39 42  0  0  1  0  0  0  0  0999 V2000
   35.0020   28.6020   39.4870 C   0  0  0  0  0  0  0  0  0  0  0  0
   36.3760   28.6250   39.7400 C   0  0  0  0  0  0  0  0  0  0  0  0
   37.3180   28.9090   38.7560 C   0  0  0  0  0  0  0  0  0  0  0  0
   36.8830   29.1850   37.4540 C   0  0  0  0  0  0  0  0  0  0  0  0
   37.4840   29.4920   36.2870 N   0  0  0  0  0  0  0  0  0  0  0  0
   36.5490   29.6590   35.3260 C   0  0  0  0  0  0  0  0  0  0  0  0
   35.3770   29.4490   35.9260 N   0  0  0  0  0  0  0  0  0  0  0  0
   35.5280   29.1560   37.2290 C   0  0  0  0  0  0  0  0  0  0  0  0
   34.5700   28.8790   38.1810 C   0  0  0  0  0  0  0  0  0  0  0  0
   34.3550   28.3710   40.3170 H   0  0  0  0  0  0  0  0  0  0  0  0
   38.5280   29.5840   36.1580 H   0  0  0  0  0  0  0  0  0  0  0  0
   36.6790   29.9090   34.2820 H   0  0  0  0  0  0  0  0  0  0  0  0
   33.5250   28.8600   37.9940 H   0  0  0  0  0  0  0  0  0  0  0  0
   37.3970   26.7920   42.7360 C   0  0  0  0  0  0  0  0  0  0  0  0
   37.7360   27.8120   43.6270 C   0  0  0  0  0  0  0  0  0  0  0  0
   37.6100   29.1250   43.1890 C   0  0  0  0  0  0  0  0  0  0  0  0
   37.1630   29.3620   41.9120 N   0  0  0  0  0  0  0  0  0  0  0  0
   36.8490   28.3400   41.0920 C   0  0  0  0  0  0  0  0  0  0  0  0
   36.9520   27.0470   41.4670 N   0  0  0  0  0  0  0  0  0  0  0  0
   37.4930   25.7690   43.0700 H   0  0  0  0  0  0  0  0  0  0  0  0
   38.0840   27.5860   44.6210 H   0  0  0  0  0  0  0  0  0  0  0  0
   37.8550   29.9650   43.8250 H   0  0  0  0  0  0  0  0  0  0  0  0
   39.0550   28.9330   39.1010 S   0  0  0  0  0  0  0  0  0  0  0  0
   38.6980   31.3170   40.1440 N   0  0  0  0  0  0  0  0  0  0  0  0
   39.7200   30.5810   39.4080 C   0  0  1  0  0  0  0  0  0  0  0  0
   40.9720   30.3870   40.2460 C   0  0  0  0  0  0  0  0  0  0  0  0
   41.3470   31.5140   40.9500 O   0  0  0  0  0  0  0  0  0  0  0  0
   40.6870   32.6750   40.6040 C   0  0  0  0  0  0  0  0  0  0  0  0
   39.2150   32.4740   40.8110 C   0  0  1  0  0  0  0  0  0  0  0  0
   37.9280   31.5060   39.4680 H   0  0  0  0  0  0  0  0  0  0  0  0
   39.9460   31.1100   38.4580 H   0  0  0  0  0  0  0  0  0  0  0  0
   40.8060   29.5560   40.9610 H   0  0  0  0  0  0  0  0  0  0  0  0
   41.8090   30.1900   39.5810 H   0  0  0  0  0  0  0  0  0  0  0  0
   41.0270   33.4640   41.2800 H   0  0  0  0  0  0  0  0  0  0  0  0
   40.8780   32.8920   39.5390 H   0  0  0  0  0  0  0  0  0  0  0  0
   38.9640   32.4530   41.9000 H   0  0  0  0  0  0  0  0  0  0  0  0
   38.5020   33.6980   40.2270 C   0  0  0  0  0  2  0  0  0  0  0  0
   37.2560   33.3520   39.4830 C   0  0  0  0  0  2  0  0  0  0  0  0
   36.3520   33.4350   40.1320 H   0  0  0  0  0  0  0  0  0  0  0  0
  1  2  1  0  0  0  0
  1 10  1  0  0  0  0
  2 18  1  0  0  0  0
  3 23  1  0  0  0  0
  3  2  2  0  0  0  0
  4  3  1  0  0  0  0
  5  4  1  0  0  0  0
  6  7  2  0  0  0  0
  6  5  1  0  0  0  0
  7  8  1  0  0  0  0
  8  4  2  0  0  0  0
  8  9  1  0  0  0  0
  9  1  2  0  0  0  0
 11  5  1  0  0  0  0
 12  6  1  0  0  0  0
 13  9  1  0  0  0  0
 14 20  1  0  0  0  0
 14 15  1  0  0  0  0
 15 21  1  0  0  0  0
 16 15  2  0  0  0  0
 16 22  1  0  0  0  0
 17 16  1  0  0  0  0
 18 19  1  0  0  0  0
 18 17  2  0  0  0  0
 19 14  2  0  0  0  0
 23 25  1  0  0  0  0
 24 29  1  0  0  0  0
 25 31  1  6  0  0  0
 25 24  1  0  0  0  0
 25 26  1  0  0  0  0
 26 27  1  0  0  0  0
 26 32  1  0  0  0  0
 28 29  1  0  0  0  0
 28 27  1  0  0  0  0
 28 34  1  0  0  0  0
 29 36  1  1  0  0  0
 30 24  1  0  0  0  0
 33 26  1  0  0  0  0
 35 28  1  0  0  0  0
 37 29  1  0  0  0  0
 38 39  1  0  0  0  0
 38 37  1  0  0  0  0
M  END
>  <minimizedAffinity>
-5.40284824

$$$$

 OpenBabel03252509153D

 39 42  0  0  1  0  0  0  0  0999 V2000
   37.1750   32.4770   39.5560 C   0  0  0  0  0  0  0  0  0  0  0  0
   37.5000   31.1560   39.2380 C   0  0  0  0  0  0  0  0  0  0  0  0
   38.7840   30.6410   39.3850 C   0  0  0  0  0  0  0  0  0  0  0  0
   39.8010   31.4720   39.8710 C   0  0  0  0  0  0  0  0  0  0  0  0
   41.1150   31.3250   40.1350 N   0  0  0  0  0  0  0  0  0  0  0  0
   41.6170   32.4900   40.6010 C   0  0  0  0  0  0  0  0  0  0  0  0
   40.5910   33.3410   40.6140 N   0  0  0  0  0  0  0  0  0  0  0  0
   39.4580   32.7660   40.1770 C   0  0  0  0  0  0  0  0  0  0  0  0
   38.1970   33.3060   40.0430 C   0  0  0  0  0  0  0  0  0  0  0  0
   36.1510   32.7790   39.4060 H   0  0  0  0  0  0  0  0  0  0  0  0
   41.6580   30.4300   39.9950 H   0  0  0  0  0  0  0  0  0  0  0  0
   42.6260   32.7260   40.9070 H   0  0  0  0  0  0  0  0  0  0  0  0
   37.9440   34.3090   40.2830 H   0  0  0  0  0  0  0  0  0  0  0  0
   34.6010   28.9280   39.1270 C   0  0  0  0  0  0  0  0  0  0  0  0
   34.4930   28.6220   37.7700 C   0  0  0  0  0  0  0  0  0  0  0  0
   35.4210   29.1840   36.9010 C   0  0  0  0  0  0  0  0  0  0  0  0
   36.3950   30.0100   37.4090 N   0  0  0  0  0  0  0  0  0  0  0  0
   36.4530   30.2740   38.7290 C   0  0  0  0  0  0  0  0  0  0  0  0
   35.5780   29.7530   39.6160 N   0  0  0  0  0  0  0  0  0  0  0  0
   33.8830   28.4940   39.8080 H   0  0  0  0  0  0  0  0  0  0  0  0
   33.7160   27.9690   37.4080 H   0  0  0  0  0  0  0  0  0  0  0  0
   35.3990   28.9900   35.8370 H   0  0  0  0  0  0  0  0  0  0  0  0
   39.1740   28.9620   38.9740 S   0  0  0  0  0  0  0  0  0  0  0  0
   38.0780   28.5240   41.3220 N   0  0  0  0  0  0  0  0  0  0  0  0
   38.6650   27.7650   40.2240 C   0  0  1  0  0  0  0  0  0  0  0  0
   37.6340   26.8680   39.5600 C   0  0  0  0  0  0  0  0  0  0  0  0
   36.8140   26.2100   40.4560 O   0  0  0  0  0  0  0  0  0  0  0  0
   37.2050   26.2800   41.7770 C   0  0  0  0  0  0  0  0  0  0  0  0
   37.2690   27.7210   42.1870 C   0  0  1  0  0  0  0  0  0  0  0  0
   38.8660   29.0200   41.7910 H   0  0  0  0  0  0  0  0  0  0  0  0
   39.5300   27.1790   40.5990 H   0  0  0  0  0  0  0  0  0  0  0  0
   37.0060   27.4780   38.8800 H   0  0  0  0  0  0  0  0  0  0  0  0
   38.1530   26.0720   39.0310 H   0  0  0  0  0  0  0  0  0  0  0  0
   36.4370   25.7830   42.3760 H   0  0  0  0  0  0  0  0  0  0  0  0
   38.2070   25.8280   41.8790 H   0  0  0  0  0  0  0  0  0  0  0  0
   36.2420   28.1520   42.2900 H   0  0  0  0  0  0  0  0  0  0  0  0
   37.8990   27.7700   43.5830 C   0  0  0  0  0  2  0  0  0  0  0  0
   39.1820   27.0140   43.6740 C   0  0  0  0  0  2  0  0  0  0  0  0
   40.0640   27.6790   43.5170 H   0  0  0  0  0  0  0  0  0  0  0  0
  1  9  1  0  0  0  0
  2  3  1  0  0  0  0
  2  1  2  0  0  0  0
  3  4  2  0  0  0  0
  4  5  1  0  0  0  0
  4  8  1  0  0  0  0
  5  6  1  0  0  0  0
  6  7  2  0  0  0  0
  6 12  1  0  0  0  0
  8  7  1  0  0  0  0
  9  8  2  0  0  0  0
  9 13  1  0  0  0  0
 10  1  1  0  0  0  0
 11  5  1  0  0  0  0
 14 19  1  0  0  0  0
 14 20  1  0  0  0  0
 15 14  2  0  0  0  0
 16 17  2  0  0  0  0
 16 15  1  0  0  0  0
 17 18  1  0  0  0  0
 18  2  1  0  0  0  0
 18 19  2  0  0  0  0
 21 15  1  0  0  0  0
 22 16  1  0  0  0  0
 23  3  1  0  0  0  0
 23 25  1  0  0  0  0
 24 30  1  0  0  0  0
 24 29  1  0  0  0  0
 25 31  1  1  0  0  0
 25 24  1  0  0  0  0
 26 25  1  0  0  0  0
 26 27  1  0  0  0  0
 27 28  1  0  0  0  0
 28 35  1  0  0  0  0
 28 29  1  0  0  0  0
 28 34  1  0  0  0  0
 29 36  1  1  0  0  0
 29 37  1  0  0  0  0
 32 26  1  0  0  0  0
 33 26  1  0  0  0  0
 37 38  1  0  0  0  0
 39 38  1  0  0  0  0
M  END
>  <minimizedAffinity>
-5.3992734

$$$$

 OpenBabel03252509153D

 39 42  0  0  1  0  0  0  0  0999 V2000
   37.0070   28.4390   42.9000 C   0  0  0  0  0  0  0  0  0  0  0  0
   37.5810   28.7080   41.6550 C   0  0  0  0  0  0  0  0  0  0  0  0
   37.9010   27.7080   40.7420 C   0  0  0  0  0  0  0  0  0  0  0  0
   37.6410   26.3730   41.0740 C   0  0  0  0  0  0  0  0  0  0  0  0
   37.8110   25.1830   40.4630 N   0  0  0  0  0  0  0  0  0  0  0  0
   37.3700   24.1920   41.2700 C   0  0  0  0  0  0  0  0  0  0  0  0
   36.9330   24.7980   42.3740 N   0  0  0  0  0  0  0  0  0  0  0  0
   37.0770   26.1330   42.3030 C   0  0  0  0  0  0  0  0  0  0  0  0
   36.7480   27.0990   43.2290 C   0  0  0  0  0  0  0  0  0  0  0  0
   36.7970   29.2840   43.5360 H   0  0  0  0  0  0  0  0  0  0  0  0
   38.2260   25.0580   39.5000 H   0  0  0  0  0  0  0  0  0  0  0  0
   37.3560   23.1260   41.0980 H   0  0  0  0  0  0  0  0  0  0  0  0
   36.3120   26.9010   44.1770 H   0  0  0  0  0  0  0  0  0  0  0  0
   37.1810   32.0740   40.2800 C   0  0  0  0  0  0  0  0  0  0  0  0
   38.3870   32.6930   40.6120 C   0  0  0  0  0  0  0  0  0  0  0  0
   39.3310   31.9460   41.3060 C   0  0  0  0  0  0  0  0  0  0  0  0
   39.0400   30.6440   41.6350 N   0  0  0  0  0  0  0  0  0  0  0  0
   37.8590   30.0950   41.2910 C   0  0  0  0  0  0  0  0  0  0  0  0
   36.9080   30.7750   40.6160 N   0  0  0  0  0  0  0  0  0  0  0  0
   36.4430   32.6490   39.7400 H   0  0  0  0  0  0  0  0  0  0  0  0
   38.5790   33.7170   40.3370 H   0  0  0  0  0  0  0  0  0  0  0  0
   40.2880   32.3600   41.5960 H   0  0  0  0  0  0  0  0  0  0  0  0
   38.6280   28.0730   39.1690 S   0  0  0  0  0  0  0  0  0  0  0  0
   36.4890   28.9740   37.9370 N   0  0  0  0  0  0  0  0  0  0  0  0
   37.4870   27.9210   37.7800 C   0  0  1  0  0  0  0  0  0  0  0  0
   38.3150   28.1280   36.5240 C   0  0  0  0  0  0  0  0  0  0  0  0
   37.5670   28.5000   35.4230 O   0  0  0  0  0  0  0  0  0  0  0  0
   36.2000   28.3930   35.5740 C   0  0  0  0  0  0  0  0  0  0  0  0
   35.7720   29.2470   36.7290 C   0  0  1  0  0  0  0  0  0  0  0  0
   35.8960   28.6970   38.7490 H   0  0  0  0  0  0  0  0  0  0  0  0
   36.9840   26.9310   37.7760 H   0  0  0  0  0  0  0  0  0  0  0  0
   39.0800   28.9060   36.7170 H   0  0  0  0  0  0  0  0  0  0  0  0
   38.7610   27.1780   36.2400 H   0  0  0  0  0  0  0  0  0  0  0  0
   35.7350   28.7820   34.6640 H   0  0  0  0  0  0  0  0  0  0  0  0
   35.9440   27.3400   35.7850 H   0  0  0  0  0  0  0  0  0  0  0  0
   35.8290   30.3320   36.4660 H   0  0  0  0  0  0  0  0  0  0  0  0
   34.2930   28.9460   36.9950 C   0  0  0  0  0  2  0  0  0  0  0  0
   33.9570   28.8880   38.4470 C   0  0  0  0  0  2  0  0  0  0  0  0
   33.5760   29.8680   38.8220 H   0  0  0  0  0  0  0  0  0  0  0  0
  1  9  1  0  0  0  0
  1 10  1  0  0  0  0
  2  1  2  0  0  0  0
  3  4  2  0  0  0  0
  3  2  1  0  0  0  0
  4  8  1  0  0  0  0
  5  4  1  0  0  0  0
  5  6  1  0  0  0  0
  6  7  2  0  0  0  0
  8  7  1  0  0  0  0
  8  9  2  0  0  0  0
  9 13  1  0  0  0  0
 11  5  1  0  0  0  0
 12  6  1  0  0  0  0
 14 15  2  0  0  0  0
 14 19  1  0  0  0  0
 15 16  1  0  0  0  0
 16 22  1  0  0  0  0
 16 17  2  0  0  0  0
 18 17  1  0  0  0  0
 18  2  1  0  0  0  0
 19 18  2  0  0  0  0
 20 14  1  0  0  0  0
 21 15  1  0  0  0  0
 23  3  1  0  0  0  0
 24 30  1  0  0  0  0
 25 31  1  6  0  0  0
 25 24  1  0  0  0  0
 25 23  1  0  0  0  0
 26 32  1  0  0  0  0
 26 25  1  0  0  0  0
 27 28  1  0  0  0  0
 27 26  1  0  0  0  0
 28 35  1  0  0  0  0
 28 29  1  0  0  0  0
 29 36  1  6  0  0  0
 29 37  1  0  0  0  0
 29 24  1  0  0  0  0
 33 26  1  0  0  0  0
 34 28  1  0  0  0  0
 37 38  1  0  0  0  0
 38 39  1  0  0  0  0
M  END
>  <minimizedAffinity>
-5.30322075

$$$$

 OpenBabel03252509153D

 39 42  0  0  1  0  0  0  0  0999 V2000
   37.1850   30.7370   36.5730 C   0  0  0  0  0  0  0  0  0  0  0  0
   36.9800   30.7180   37.9560 C   0  0  0  0  0  0  0  0  0  0  0  0
   36.1100   29.8260   38.5750 C   0  0  0  0  0  0  0  0  0  0  0  0
   35.4060   28.9040   37.7910 C   0  0  0  0  0  0  0  0  0  0  0  0
   34.5110   27.9250   38.0330 N   0  0  0  0  0  0  0  0  0  0  0  0
   34.1540   27.3380   36.8690 C   0  0  0  0  0  0  0  0  0  0  0  0
   34.8420   27.9760   35.9220 N   0  0  0  0  0  0  0  0  0  0  0  0
   35.6230   28.9420   36.4350 C   0  0  0  0  0  0  0  0  0  0  0  0
   36.4770   29.8120   35.7910 C   0  0  0  0  0  0  0  0  0  0  0  0
   37.8790   31.4680   36.1920 H   0  0  0  0  0  0  0  0  0  0  0  0
   34.1520   27.6660   38.9920 H   0  0  0  0  0  0  0  0  0  0  0  0
   33.4620   26.5260   36.6970 H   0  0  0  0  0  0  0  0  0  0  0  0
   36.6360   29.8310   34.7420 H   0  0  0  0  0  0  0  0  0  0  0  0
   39.6150   32.2370   39.9860 C   0  0  0  0  0  0  0  0  0  0  0  0
   39.0600   33.4640   40.3540 C   0  0  0  0  0  0  0  0  0  0  0  0
   37.7800   33.7590   39.9000 C   0  0  0  0  0  0  0  0  0  0  0  0
   37.1220   32.8420   39.1160 N   0  0  0  0  0  0  0  0  0  0  0  0
   37.7050   31.6720   38.7900 C   0  0  0  0  0  0  0  0  0  0  0  0
   38.9450   31.3350   39.2050 N   0  0  0  0  0  0  0  0  0  0  0  0
   40.6100   32.0010   40.3360 H   0  0  0  0  0  0  0  0  0  0  0  0
   39.6060   34.1580   40.9710 H   0  0  0  0  0  0  0  0  0  0  0  0
   37.2870   34.6900   40.1460 H   0  0  0  0  0  0  0  0  0  0  0  0
   35.8660   29.8200   40.3290 S   0  0  0  0  0  0  0  0  0  0  0  0
   37.9290   29.9470   41.9510 N   0  0  0  0  0  0  0  0  0  0  0  0
   37.1460   28.9390   41.2450 C   0  0  1  0  0  0  0  0  0  0  0  0
   36.4220   28.0220   42.2150 C   0  0  0  0  0  0  0  0  0  0  0  0
   37.1990   27.6260   43.2870 O   0  0  0  0  0  0  0  0  0  0  0  0
   38.5430   27.9200   43.1840 C   0  0  0  0  0  0  0  0  0  0  0  0
   38.7030   29.4020   43.0240 C   0  0  1  0  0  0  0  0  0  0  0  0
   38.4780   30.4550   41.2250 H   0  0  0  0  0  0  0  0  0  0  0  0
   37.8100   28.3650   40.5640 H   0  0  0  0  0  0  0  0  0  0  0  0
   35.5190   28.5390   42.5990 H   0  0  0  0  0  0  0  0  0  0  0  0
   36.1750   27.0960   41.7020 H   0  0  0  0  0  0  0  0  0  0  0  0
   39.0200   27.6180   44.1200 H   0  0  0  0  0  0  0  0  0  0  0  0
   38.9530   27.4120   42.2940 H   0  0  0  0  0  0  0  0  0  0  0  0
   38.4860   29.9330   43.9840 H   0  0  0  0  0  0  0  0  0  0  0  0
   40.1790   29.6690   42.7080 C   0  0  0  0  0  2  0  0  0  0  0  0
   40.9780   28.4210   42.5410 C   0  0  0  0  0  2  0  0  0  0  0  0
   41.0530   28.1190   41.4700 H   0  0  0  0  0  0  0  0  0  0  0  0
  1  2  1  0  0  0  0
  2  3  2  0  0  0  0
  2 18  1  0  0  0  0
  3 23  1  0  0  0  0
  4  5  1  0  0  0  0
  4  3  1  0  0  0  0
  5 11  1  0  0  0  0
  6  5  1  0  0  0  0
  7  8  1  0  0  0  0
  7  6  2  0  0  0  0
  8  4  2  0  0  0  0
  9  8  1  0  0  0  0
  9  1  2  0  0  0  0
 10  1  1  0  0  0  0
 12  6  1  0  0  0  0
 13  9  1  0  0  0  0
 14 20  1  0  0  0  0
 14 15  1  0  0  0  0
 15 21  1  0  0  0  0
 16 22  1  0  0  0  0
 16 15  2  0  0  0  0
 17 16  1  0  0  0  0
 18 17  2  0  0  0  0
 18 19  1  0  0  0  0
 19 14  2  0  0  0  0
 23 25  1  0  0  0  0
 24 29  1  0  0  0  0
 25 31  1  6  0  0  0
 25 24  1  0  0  0  0
 25 26  1  0  0  0  0
 26 32  1  0  0  0  0
 26 27  1  0  0  0  0
 28 27  1  0  0  0  0
 28 34  1  0  0  0  0
 29 28  1  0  0  0  0
 29 36  1  1  0  0  0
 30 24  1  0  0  0  0
 33 26  1  0  0  0  0
 35 28  1  0  0  0  0
 37 29  1  0  0  0  0
 38 37  1  0  0  0  0
 39 38  1  0  0  0  0
M  END
>  <minimizedAffinity>
-5.27105856

$$$$

 OpenBabel03252509153D

 39 42  0  0  1  0  0  0  0  0999 V2000
   37.3330   31.0640   36.6360 C   0  0  0  0  0  0  0  0  0  0  0  0
   37.8780   30.8640   37.9070 C   0  0  0  0  0  0  0  0  0  0  0  0
   37.9170   29.6150   38.5200 C   0  0  0  0  0  0  0  0  0  0  0  0
   37.3920   28.5060   37.8450 C   0  0  0  0  0  0  0  0  0  0  0  0
   37.2620   27.1920   38.1160 N   0  0  0  0  0  0  0  0  0  0  0  0
   36.6630   26.5720   37.0750 C   0  0  0  0  0  0  0  0  0  0  0  0
   36.4340   27.5270   36.1730 N   0  0  0  0  0  0  0  0  0  0  0  0
   36.8620   28.7290   36.5970 C   0  0  0  0  0  0  0  0  0  0  0  0
   36.8080   29.9510   35.9630 C   0  0  0  0  0  0  0  0  0  0  0  0
   37.3510   32.0710   36.2490 H   0  0  0  0  0  0  0  0  0  0  0  0
   37.5830   26.7310   39.0100 H   0  0  0  0  0  0  0  0  0  0  0  0
   36.4060   25.5290   36.9570 H   0  0  0  0  0  0  0  0  0  0  0  0
   36.3950   30.1100   34.9980 H   0  0  0  0  0  0  0  0  0  0  0  0
   38.1190   33.8170   40.0510 C   0  0  0  0  0  0  0  0  0  0  0  0
   39.4730   34.1510   39.9740 C   0  0  0  0  0  0  0  0  0  0  0  0
   40.2930   33.3560   39.1820 C   0  0  0  0  0  0  0  0  0  0  0  0
   39.7440   32.2860   38.5170 N   0  0  0  0  0  0  0  0  0  0  0  0
   38.4310   32.0080   38.6270 C   0  0  0  0  0  0  0  0  0  0  0  0
   37.5900   32.7470   39.3810 N   0  0  0  0  0  0  0  0  0  0  0  0
   37.4760   34.4310   40.6650 H   0  0  0  0  0  0  0  0  0  0  0  0
   39.8660   34.9980   40.5100 H   0  0  0  0  0  0  0  0  0  0  0  0
   41.3510   33.5550   39.0750 H   0  0  0  0  0  0  0  0  0  0  0  0
   38.6130   29.3840   40.1320 S   0  0  0  0  0  0  0  0  0  0  0  0
   38.0970   27.1490   41.4140 N   0  0  0  0  0  0  0  0  0  0  0  0
   37.5390   28.4900   41.2730 C   0  0  1  0  0  0  0  0  0  0  0  0
   37.5870   29.2480   42.5880 C   0  0  0  0  0  0  0  0  0  0  0  0
   37.2150   28.4890   43.6800 O   0  0  0  0  0  0  0  0  0  0  0  0
   36.6430   27.2680   43.3830 C   0  0  0  0  0  0  0  0  0  0  0  0
   37.6150   26.4630   42.5740 C   0  0  1  0  0  0  0  0  0  0  0  0
   37.9230   26.6620   40.5090 H   0  0  0  0  0  0  0  0  0  0  0  0
   36.5020   28.4200   40.8820 H   0  0  0  0  0  0  0  0  0  0  0  0
   38.6150   29.6300   42.7500 H   0  0  0  0  0  0  0  0  0  0  0  0
   36.8550   30.0520   42.5530 H   0  0  0  0  0  0  0  0  0  0  0  0
   36.4650   26.7480   44.3290 H   0  0  0  0  0  0  0  0  0  0  0  0
   35.7270   27.4360   42.7910 H   0  0  0  0  0  0  0  0  0  0  0  0
   38.4630   26.1040   43.2080 H   0  0  0  0  0  0  0  0  0  0  0  0
   36.8770   25.2090   42.0920 C   0  0  0  0  0  2  0  0  0  0  0  0
   37.7920   24.0740   41.7760 C   0  0  0  0  0  2  0  0  0  0  0  0
   37.9040   23.3810   42.6430 H   0  0  0  0  0  0  0  0  0  0  0  0
  1  2  1  0  0  0  0
  2  3  2  0  0  0  0
  2 18  1  0  0  0  0
  3 23  1  0  0  0  0
  4  5  1  0  0  0  0
  4  3  1  0  0  0  0
  5 11  1  0  0  0  0
  6  5  1  0  0  0  0
  7  8  1  0  0  0  0
  7  6  2  0  0  0  0
  8  4  2  0  0  0  0
  9  8  1  0  0  0  0
  9  1  2  0  0  0  0
 10  1  1  0  0  0  0
 12  6  1  0  0  0  0
 13  9  1  0  0  0  0
 14 20  1  0  0  0  0
 15 14  1  0  0  0  0
 15 21  1  0  0  0  0
 16 15  2  0  0  0  0
 17 18  2  0  0  0  0
 17 16  1  0  0  0  0
 18 19  1  0  0  0  0
 19 14  2  0  0  0  0
 22 16  1  0  0  0  0
 23 25  1  0  0  0  0
 24 29  1  0  0  0  0
 25 31  1  6  0  0  0
 25 24  1  0  0  0  0
 25 26  1  0  0  0  0
 26 32  1  0  0  0  0
 26 27  1  0  0  0  0
 28 27  1  0  0  0  0
 28 34  1  0  0  0  0
 29 36  1  1  0  0  0
 29 28  1  0  0  0  0
 30 24  1  0  0  0  0
 33 26  1  0  0  0  0
 35 28  1  0  0  0  0
 37 29  1  0  0  0  0
 38 37  1  0  0  0  0
 38 39  1  0  0  0  0
M  END
>  <minimizedAffinity>
-5.24150085

$$$$
