
 OpenBabel03252509143D

 39 42  0  0  1  0  0  0  0  0999 V2000
   47.4540   32.6870   44.0800 C   0  0  0  0  0  0  0  0  0  0  0  0
   46.7470   33.6120   43.3070 C   0  0  0  0  0  0  0  0  0  0  0  0
   45.6940   34.3670   43.8150 C   0  0  0  0  0  0  0  0  0  0  0  0
   45.3190   34.2010   45.1540 C   0  0  0  0  0  0  0  0  0  0  0  0
   44.3820   34.7390   45.9610 N   0  0  0  0  0  0  0  0  0  0  0  0
   44.4770   34.1920   47.1930 C   0  0  0  0  0  0  0  0  0  0  0  0
   45.4800   33.3180   47.1200 N   0  0  0  0  0  0  0  0  0  0  0  0
   46.0290   33.2860   45.8930 C   0  0  0  0  0  0  0  0  0  0  0  0
   47.0750   32.5230   45.4210 C   0  0  0  0  0  0  0  0  0  0  0  0
   48.2530   32.1520   43.5920 H   0  0  0  0  0  0  0  0  0  0  0  0
   43.6870   35.4760   45.6620 H   0  0  0  0  0  0  0  0  0  0  0  0
   43.8870   34.3910   48.0760 H   0  0  0  0  0  0  0  0  0  0  0  0
   47.6160   31.8190   46.0020 H   0  0  0  0  0  0  0  0  0  0  0  0
   46.9380   33.1560   39.6830 C   0  0  0  0  0  0  0  0  0  0  0  0
   47.8330   34.1530   39.2890 C   0  0  0  0  0  0  0  0  0  0  0  0
   48.3640   34.9760   40.2750 C   0  0  0  0  0  0  0  0  0  0  0  0
   47.9910   34.7760   41.5830 N   0  0  0  0  0  0  0  0  0  0  0  0
   47.1230   33.7980   41.9080 C   0  0  0  0  0  0  0  0  0  0  0  0
   46.5780   32.9720   40.9910 N   0  0  0  0  0  0  0  0  0  0  0  0
   46.5220   32.5130   38.9210 H   0  0  0  0  0  0  0  0  0  0  0  0
   48.1010   34.2790   38.2530 H   0  0  0  0  0  0  0  0  0  0  0  0
   49.0630   35.7680   40.0430 H   0  0  0  0  0  0  0  0  0  0  0  0
   44.8110   35.5330   42.8170 S   0  0  0  0  0  0  0  0  0  0  0  0
   42.2480   35.3760   42.2580 N   0  0  0  0  0  0  0  0  0  0  0  0
   43.5100   34.7980   41.8070 C   0  0  1  0  0  0  0  0  0  0  0  0
   43.8130   35.1880   40.3710 C   0  0  0  0  0  0  0  0  0  0  0  0
   42.7160   35.1170   39.5340 O   0  0  0  0  0  0  0  0  0  0  0  0
   41.6080   34.4900   40.0650 C   0  0  0  0  0  0  0  0  0  0  0  0
   41.1900   35.2160   41.3080 C   0  0  1  0  0  0  0  0  0  0  0  0
   42.0600   34.9710   43.2000 H   0  0  0  0  0  0  0  0  0  0  0  0
   43.4760   33.6950   41.9290 H   0  0  0  0  0  0  0  0  0  0  0  0
   44.2120   36.2220   40.3510 H   0  0  0  0  0  0  0  0  0  0  0  0
   44.5180   34.4710   39.9560 H   0  0  0  0  0  0  0  0  0  0  0  0
   40.8010   34.5660   39.3310 H   0  0  0  0  0  0  0  0  0  0  0  0
   41.8730   33.4500   40.3220 H   0  0  0  0  0  0  0  0  0  0  0  0
   40.7240   36.2010   41.0580 H   0  0  0  0  0  0  0  0  0  0  0  0
   40.0940   34.3790   41.9770 C   0  0  0  0  0  2  0  0  0  0  0  0
   39.4080   33.4470   41.0350 C   0  0  0  0  0  2  0  0  0  0  0  0
   39.8650   32.4290   41.0600 H   0  0  0  0  0  0  0  0  0  0  0  0
  1  9  1  0  0  0  0
  2  3  1  0  0  0  0
  2  1  2  0  0  0  0
  3  4  2  0  0  0  0
  4  8  1  0  0  0  0
  4  5  1  0  0  0  0
  5  6  1  0  0  0  0
  6 12  1  0  0  0  0
  7  6  2  0  0  0  0
  8  7  1  0  0  0  0
  9  8  2  0  0  0  0
  9 13  1  0  0  0  0
 10  1  1  0  0  0  0
 11  5  1  0  0  0  0
 14 19  1  0  0  0  0
 15 14  2  0  0  0  0
 15 16  1  0  0  0  0
 16 17  2  0  0  0  0
 17 18  1  0  0  0  0
 18  2  1  0  0  0  0
 19 18  2  0  0  0  0
 20 14  1  0  0  0  0
 21 15  1  0  0  0  0
 22 16  1  0  0  0  0
 23  3  1  0  0  0  0
 24 30  1  0  0  0  0
 25 31  1  1  0  0  0
 25 24  1  0  0  0  0
 25 23  1  0  0  0  0
 26 25  1  0  0  0  0
 27 28  1  0  0  0  0
 27 26  1  0  0  0  0
 28 35  1  0  0  0  0
 28 29  1  0  0  0  0
 29 36  1  6  0  0  0
 29 37  1  0  0  0  0
 29 24  1  0  0  0  0
 32 26  1  0  0  0  0
 33 26  1  0  0  0  0
 34 28  1  0  0  0  0
 38 39  1  0  0  0  0
 38 37  1  0  0  0  0
M  END
>  <minimizedAffinity>
-5.76293755

>  <minimizedRMSD>
0.629017651

$$$$
