
 OpenBabel03252509133D

 39 42  0  0  1  0  0  0  0  0999 V2000
   47.4790   32.5790   44.2520 C   0  0  0  0  0  0  0  0  0  0  0  0
   46.7790   33.5460   43.5250 C   0  0  0  0  0  0  0  0  0  0  0  0
   45.7400   34.2920   44.0720 C   0  0  0  0  0  0  0  0  0  0  0  0
   45.3720   34.0740   45.4050 C   0  0  0  0  0  0  0  0  0  0  0  0
   44.4480   34.5890   46.2420 N   0  0  0  0  0  0  0  0  0  0  0  0
   44.5440   33.9890   47.4480 C   0  0  0  0  0  0  0  0  0  0  0  0
   45.5350   33.1050   47.3310 N   0  0  0  0  0  0  0  0  0  0  0  0
   46.0740   33.1190   46.0990 C   0  0  0  0  0  0  0  0  0  0  0  0
   47.1070   32.3640   45.5870 C   0  0  0  0  0  0  0  0  0  0  0  0
   48.2680   32.0550   43.7360 H   0  0  0  0  0  0  0  0  0  0  0  0
   43.7600   35.3470   45.9800 H   0  0  0  0  0  0  0  0  0  0  0  0
   43.9620   34.1570   48.3440 H   0  0  0  0  0  0  0  0  0  0  0  0
   47.6420   31.6280   46.1340 H   0  0  0  0  0  0  0  0  0  0  0  0
   46.9910   33.2020   39.8900 C   0  0  0  0  0  0  0  0  0  0  0  0
   47.8440   34.2450   39.5260 C   0  0  0  0  0  0  0  0  0  0  0  0
   48.3420   35.0600   40.5360 C   0  0  0  0  0  0  0  0  0  0  0  0
   47.9760   34.8080   41.8360 N   0  0  0  0  0  0  0  0  0  0  0  0
   47.1480   33.7870   42.1330 C   0  0  0  0  0  0  0  0  0  0  0  0
   46.6380   32.9650   41.1910 N   0  0  0  0  0  0  0  0  0  0  0  0
   46.6010   32.5640   39.1090 H   0  0  0  0  0  0  0  0  0  0  0  0
   48.1080   34.4110   38.4940 H   0  0  0  0  0  0  0  0  0  0  0  0
   49.0080   35.8870   40.3270 H   0  0  0  0  0  0  0  0  0  0  0  0
   44.8660   35.5120   43.1320 S   0  0  0  0  0  0  0  0  0  0  0  0
   42.3290   35.4000   42.4560 N   0  0  0  0  0  0  0  0  0  0  0  0
   43.6040   34.8300   42.0370 C   0  0  1  0  0  0  0  0  0  0  0  0
   43.9730   35.2740   40.6320 C   0  0  0  0  0  0  0  0  0  0  0  0
   42.9130   35.2460   39.7470 O   0  0  0  0  0  0  0  0  0  0  0  0
   41.7780   34.6080   40.2030 C   0  0  0  0  0  0  0  0  0  0  0  0
   41.3120   35.2880   41.4550 C   0  0  1  0  0  0  0  0  0  0  0  0
   42.0970   34.9600   43.3720 H   0  0  0  0  0  0  0  0  0  0  0  0
   43.5580   33.7230   42.1130 H   0  0  0  0  0  0  0  0  0  0  0  0
   44.3810   36.3040   40.6720 H   0  0  0  0  0  0  0  0  0  0  0  0
   44.6900   34.5680   40.2200 H   0  0  0  0  0  0  0  0  0  0  0  0
   41.0050   34.7220   39.4380 H   0  0  0  0  0  0  0  0  0  0  0  0
   42.0240   33.5570   40.4300 H   0  0  0  0  0  0  0  0  0  0  0  0
   40.8650   36.2870   41.2250 H   0  0  0  0  0  0  0  0  0  0  0  0
   40.1820   34.4350   42.0420 C   0  0  0  0  0  2  0  0  0  0  0  0
   39.5050   33.5780   41.0260 C   0  0  0  0  0  2  0  0  0  0  0  0
   39.9400   32.5500   40.9990 H   0  0  0  0  0  0  0  0  0  0  0  0
  1  9  1  0  0  0  0
  2  3  1  0  0  0  0
  2  1  2  0  0  0  0
  3  4  2  0  0  0  0
  4  8  1  0  0  0  0
  4  5  1  0  0  0  0
  5  6  1  0  0  0  0
  6 12  1  0  0  0  0
  7  6  2  0  0  0  0
  8  7  1  0  0  0  0
  9  8  2  0  0  0  0
  9 13  1  0  0  0  0
 10  1  1  0  0  0  0
 11  5  1  0  0  0  0
 14 19  1  0  0  0  0
 15 14  2  0  0  0  0
 15 16  1  0  0  0  0
 16 17  2  0  0  0  0
 17 18  1  0  0  0  0
 18  2  1  0  0  0  0
 19 18  2  0  0  0  0
 20 14  1  0  0  0  0
 21 15  1  0  0  0  0
 22 16  1  0  0  0  0
 23  3  1  0  0  0  0
 24 30  1  0  0  0  0
 25 31  1  1  0  0  0
 25 24  1  0  0  0  0
 25 23  1  0  0  0  0
 26 32  1  0  0  0  0
 26 25  1  0  0  0  0
 27 28  1  0  0  0  0
 27 26  1  0  0  0  0
 28 35  1  0  0  0  0
 28 29  1  0  0  0  0
 29 36  1  6  0  0  0
 29 37  1  0  0  0  0
 29 24  1  0  0  0  0
 33 26  1  0  0  0  0
 34 28  1  0  0  0  0
 38 37  1  0  0  0  0
 39 38  1  0  0  0  0
M  END
>  <minimizedAffinity>
-5.84090328

>  <minimizedRMSD>
0.279157698

$$$$
