
 OpenBabel03252507373D

 32 35  0  0  0  0  0  0  0  0999 V2000
   45.2030   34.9110   43.1130 C   0  0  0  0  0  0  0  0  0  0  0  0
   45.8850   33.8050   43.6870 C   0  0  0  0  0  0  0  0  0  0  0  0
   45.8080   33.6750   45.0710 C   0  0  0  0  0  0  0  0  0  0  0  0
   45.1080   34.5830   45.7850 N   0  0  0  0  0  0  0  0  0  0  0  0
   44.4670   35.6290   45.2060 C   0  0  0  0  0  0  0  0  0  0  0  0
   44.5210   35.7820   43.8890 N   0  0  0  0  0  0  0  0  0  0  0  0
   46.4400   33.0820   43.1420 H   0  0  0  0  0  0  0  0  0  0  0  0
   43.9130   36.3480   45.7780 H   0  0  0  0  0  0  0  0  0  0  0  0
   46.7580   32.8350   47.1500 C   0  0  0  0  0  0  0  0  0  0  0  0
   46.4500   32.5960   45.8160 C   0  0  0  0  0  0  0  0  0  0  0  0
   46.7650   31.3760   45.2880 C   0  0  0  0  0  0  0  0  0  0  0  0
   47.3730   30.3810   46.0260 C   0  0  0  0  0  0  0  0  0  0  0  0
   47.7650   29.1190   45.7040 N   0  0  0  0  0  0  0  0  0  0  0  0
   48.3220   28.5690   46.8510 C   0  0  0  0  0  0  0  0  0  0  0  0
   48.2560   29.4900   47.8200 N   0  0  0  0  0  0  0  0  0  0  0  0
   47.6790   30.6060   47.3390 C   0  0  0  0  0  0  0  0  0  0  0  0
   47.3720   31.8280   47.8950 C   0  0  0  0  0  0  0  0  0  0  0  0
   46.5350   33.7800   47.6260 H   0  0  0  0  0  0  0  0  0  0  0  0
   46.5090   31.2280   44.2410 H   0  0  0  0  0  0  0  0  0  0  0  0
   47.6620   28.6530   44.7590 H   0  0  0  0  0  0  0  0  0  0  0  0
   48.7070   27.5640   46.8360 H   0  0  0  0  0  0  0  0  0  0  0  0
   47.6150   32.0170   48.9500 H   0  0  0  0  0  0  0  0  0  0  0  0
   45.2750   35.0490   41.7300 O   0  0  0  0  0  0  0  0  0  0  0  0
   44.1370   34.8660   40.9520 C   0  0  0  0  0  0  0  0  0  0  0  0
   44.4810   33.7630   40.2600 C   0  0  0  0  0  0  0  0  0  0  0  0
   42.9470   33.4730   39.1810 S   0  0  0  0  0  0  0  0  0  0  0  0
   42.1420   35.0090   39.9620 C   0  0  0  0  0  0  0  0  0  0  0  0
   42.9450   35.3140   40.6490 N   0  0  0  0  0  0  0  0  0  0  0  0
   45.1370   32.8180   39.8680 H   0  0  0  0  0  0  0  0  0  0  0  0
   40.7850   35.5000   39.6040 C   0  0  0  0  0  2  0  0  0  0  0  0
   40.2870   36.3390   40.7280 C   0  0  0  0  0  2  0  0  0  0  0  0
   40.6720   37.3890   40.5830 H   0  0  0  0  0  0  0  0  0  0  0  0
  1  2  2  0  0  0  0
  1  6  1  0  0  0  0
  2  3  1  0  0  0  0
  3  4  2  0  0  0  0
  3 10  1  0  0  0  0
  5  8  1  0  0  0  0
  5  4  1  0  0  0  0
  6  5  2  0  0  0  0
  7  2  1  0  0  0  0
  9 18  1  0  0  0  0
  9 17  1  0  0  0  0
 10  9  2  0  0  0  0
 11 10  1  0  0  0  0
 11 12  2  0  0  0  0
 12 16  1  0  0  0  0
 13 12  1  0  0  0  0
 13 14  1  0  0  0  0
 14 15  2  0  0  0  0
 16 15  1  0  0  0  0
 16 17  2  0  0  0  0
 17 22  1  0  0  0  0
 19 11  1  0  0  0  0
 20 13  1  0  0  0  0
 21 14  1  0  0  0  0
 23  1  1  0  0  0  0
 24 23  1  0  0  0  0
 25 24  2  0  0  0  0
 26 27  1  0  0  0  0
 26 25  1  0  0  0  0
 27 28  2  0  0  0  0
 28 24  1  0  0  0  0
 29 25  1  0  0  0  0
 30 27  1  0  0  0  0
 30 31  1  0  0  0  0
 32 31  1  0  0  0  0
M  END
>  <minimizedAffinity>
-5.81401539

>  <minimizedRMSD>
0.548172712

$$$$
