
 OpenBabel03252506313D

 26 27  0  0  1  0  0  0  0  0999 V2000
   44.5520   35.7960   44.9640 C   0  0  0  0  0  0  0  0  0  0  0  0
   44.7820   35.5400   43.5950 C   0  0  0  0  0  0  0  0  0  0  0  0
   45.3360   34.3190   43.2180 C   0  0  0  0  0  0  0  0  0  0  0  0
   45.6160   33.4520   44.2260 N   0  0  0  0  0  0  0  0  0  0  0  0
   45.3960   33.6990   45.5130 C   0  0  0  0  0  0  0  0  0  0  0  0
   44.8680   34.8650   45.8790 N   0  0  0  0  0  0  0  0  0  0  0  0
   45.7220   32.7060   46.4580 N   0  0  0  0  0  0  0  0  0  0  0  0
   45.2500   32.6930   47.8450 C   0  0  0  0  0  0  0  0  0  0  0  0
   46.4510   32.1680   48.5850 C   0  0  0  0  0  0  0  0  0  0  0  0
   47.4330   31.6720   47.5540 C   0  0  0  0  0  0  0  0  0  0  0  0
   46.5320   31.5320   46.3390 C   0  0  2  0  0  0  0  0  0  0  0  0
   44.1230   36.7220   45.3430 H   0  0  0  0  0  0  0  0  0  0  0  0
   45.4990   34.1550   42.1820 H   0  0  0  0  0  0  0  0  0  0  0  0
   44.3590   32.0500   47.9660 H   0  0  0  0  0  0  0  0  0  0  0  0
   45.0870   33.7450   48.1380 H   0  0  0  0  0  0  0  0  0  0  0  0
   46.8990   32.9130   49.2710 H   0  0  0  0  0  0  0  0  0  0  0  0
   46.1190   31.2910   49.1760 H   0  0  0  0  0  0  0  0  0  0  0  0
   47.9450   30.7330   47.8320 H   0  0  0  0  0  0  0  0  0  0  0  0
   48.1450   32.4960   47.3190 H   0  0  0  0  0  0  0  0  0  0  0  0
   45.9300   30.5930   46.4190 H   0  0  0  0  0  0  0  0  0  0  0  0
   44.4150   36.5870   42.6810 N   0  0  0  0  0  0  0  0  0  0  0  0
   44.4630   37.5620   42.9850 H   0  0  0  0  0  0  0  0  0  0  0  0
   44.1110   36.2770   41.7300 H   0  0  0  0  0  0  0  0  0  0  0  0
   47.4110   31.5500   45.1340 C   0  0  0  0  0  0  0  0  0  0  0  0
   48.0320   30.1420   45.0250 C   0  0  0  0  0  0  0  0  0  0  0  0
   47.1790   29.4180   45.0550 H   0  0  0  0  0  0  0  0  0  0  0  0
  1 12  1  0  0  0  0
  1  6  1  0  0  0  0
  2  1  2  0  0  0  0
  3  2  1  0  0  0  0
  3  4  2  0  0  0  0
  4  5  1  0  0  0  0
  5  6  2  0  0  0  0
  5  7  1  0  0  0  0
  7  8  1  0  0  0  0
  8 14  1  0  0  0  0
  8 15  1  0  0  0  0
  8  9  1  0  0  0  0
  9 17  1  0  0  0  0
  9 16  1  0  0  0  0
 10 18  1  0  0  0  0
 10  9  1  0  0  0  0
 11 20  1  1  0  0  0
 11  7  1  0  0  0  0
 11 10  1  0  0  0  0
 13  3  1  0  0  0  0
 19 10  1  0  0  0  0
 21 22  1  0  0  0  0
 21  2  1  0  0  0  0
 23 21  1  0  0  0  0
 24 11  1  0  0  0  0
 25 26  1  0  0  0  0
 25 24  1  0  0  0  0
M  END
>  <minimizedAffinity>
-4.43996382

>  <minimizedRMSD>
0.793463469

$$$$
