
 OpenBabel03252502483D

 39 41  0  0  1  0  0  0  0  0999 V2000
   36.7980   28.9840   41.0950 C   0  0  1  0  0  0  0  0  0  0  0  0
   35.6490   29.7090   40.4830 C   0  0  0  0  0  0  0  0  0  0  0  0
   36.6870   30.4230   41.2580 C   0  0  2  0  0  0  0  0  0  0  0  0
   37.5170   28.5350   40.4170 H   0  0  0  0  0  0  0  0  0  0  0  0
   34.6420   29.5310   40.9310 H   0  0  0  0  0  0  0  0  0  0  0  0
   35.5900   29.7730   39.3740 H   0  0  0  0  0  0  0  0  0  0  0  0
   36.3210   30.9350   42.1540 H   0  0  0  0  0  0  0  0  0  0  0  0
   37.5930   31.1830   40.4090 N   0  0  0  0  0  0  0  0  0  0  0  0
   38.7370   31.6870   41.0760 C   0  0  0  0  0  0  0  0  0  0  0  0
   39.5270   32.4450   40.0250 C   0  0  0  0  0  0  0  0  0  0  0  0
   38.8010   33.5460   39.4860 N   0  0  0  0  0  0  0  0  0  0  0  0
   37.3770   33.3980   39.5580 C   0  0  0  0  0  0  0  0  0  0  0  0
   37.0070   31.9260   39.3770 C   0  0  0  0  0  0  0  0  0  0  0  0
   38.5090   32.3210   41.9670 H   0  0  0  0  0  0  0  0  0  0  0  0
   39.3660   30.8670   41.4380 H   0  0  0  0  0  0  0  0  0  0  0  0
   40.4490   32.8140   40.5030 H   0  0  0  0  0  0  0  0  0  0  0  0
   39.8290   31.6890   39.2720 H   0  0  0  0  0  0  0  0  0  0  0  0
   39.1080   34.4850   39.7750 H   0  0  0  0  0  0  0  0  0  0  0  0
   36.8500   33.9660   38.7680 H   0  0  0  0  0  0  0  0  0  0  0  0
   37.0400   33.7790   40.5530 H   0  0  0  0  0  0  0  0  0  0  0  0
   37.2680   31.6540   38.3490 H   0  0  0  0  0  0  0  0  0  0  0  0
   35.8850   31.9170   39.4940 H   0  0  0  0  0  0  0  0  0  0  0  0
   36.5180   28.1390   42.3020 C   0  0  0  0  0  0  0  0  0  0  0  0
   36.2050   27.0960   42.0370 H   0  0  0  0  0  0  0  0  0  0  0  0
   35.6560   28.5620   42.8500 H   0  0  0  0  0  0  0  0  0  0  0  0
   37.7480   28.1780   43.1560 C   0  0  0  0  0  0  0  0  0  0  0  0
   37.6480   28.5510   44.1620 H   0  0  0  0  0  0  0  0  0  0  0  0
   38.4640   28.8910   42.6470 H   0  0  0  0  0  0  0  0  0  0  0  0
   40.3030   25.4770   43.5580 C   0  0  0  0  0  0  0  0  0  0  0  0
   39.6530   26.7250   43.6790 C   0  0  0  0  0  0  0  0  0  0  0  0
   38.4480   26.8570   43.0340 C   0  0  0  0  0  0  0  0  0  0  0  0
   37.9480   25.8190   42.3310 N   0  0  0  0  0  0  0  0  0  0  0  0
   38.5620   24.6610   42.2240 C   0  0  0  0  0  0  0  0  0  0  0  0
   39.7440   24.4850   42.8380 N   0  0  0  0  0  0  0  0  0  0  0  0
   41.2610   25.3320   44.0540 H   0  0  0  0  0  0  0  0  0  0  0  0
   40.1330   27.5000   44.2670 H   0  0  0  0  0  0  0  0  0  0  0  0
   37.8810   23.6200   41.4150 C   0  0  0  0  0  2  0  0  0  0  0  0
   36.5050   24.0840   40.9800 C   0  0  0  0  0  2  0  0  0  0  0  0
   36.2710   23.6410   39.9970 H   0  0  0  0  0  0  0  0  0  0  0  0
  1  4  1  6  0  0  0
  1  3  1  0  0  0  0
  1 23  1  0  0  0  0
  2  5  1  0  0  0  0
  2  1  1  0  0  0  0
  2  3  1  0  0  0  0
  3  7  1  1  0  0  0
  6  2  1  0  0  0  0
  8  9  1  0  0  0  0
  8  3  1  0  0  0  0
  9 15  1  0  0  0  0
  9 14  1  0  0  0  0
 10 16  1  0  0  0  0
 10  9  1  0  0  0  0
 11 12  1  0  0  0  0
 11 18  1  0  0  0  0
 11 10  1  0  0  0  0
 12 20  1  0  0  0  0
 13 22  1  0  0  0  0
 13 12  1  0  0  0  0
 13  8  1  0  0  0  0
 17 10  1  0  0  0  0
 19 12  1  0  0  0  0
 21 13  1  0  0  0  0
 23 25  1  0  0  0  0
 23 26  1  0  0  0  0
 24 23  1  0  0  0  0
 26 27  1  0  0  0  0
 28 26  1  0  0  0  0
 29 30  1  0  0  0  0
 29 35  1  0  0  0  0
 30 36  1  0  0  0  0
 31 26  1  0  0  0  0
 31 30  2  0  0  0  0
 32 31  1  0  0  0  0
 33 32  2  0  0  0  0
 33 34  1  0  0  0  0
 34 29  2  0  0  0  0
 37 33  1  0  0  0  0
 38 37  1  0  0  0  0
 39 38  1  0  0  0  0
M  END
>  <minimizedAffinity>
-5.2750597

$$$$

 OpenBabel03252502483D

 39 41  0  0  1  0  0  0  0  0999 V2000
   37.2720   31.6470   39.9120 C   0  0  1  0  0  0  0  0  0  0  0  0
   37.1760   33.1200   39.7130 C   0  0  0  0  0  0  0  0  0  0  0  0
   38.3080   32.5130   40.4470 C   0  0  2  0  0  0  0  0  0  0  0  0
   37.4310   31.0390   39.0270 H   0  0  0  0  0  0  0  0  0  0  0  0
   36.3700   33.6550   40.2720 H   0  0  0  0  0  0  0  0  0  0  0  0
   37.2890   33.5270   38.6830 H   0  0  0  0  0  0  0  0  0  0  0  0
   38.3980   32.8260   41.4930 H   0  0  0  0  0  0  0  0  0  0  0  0
   39.5380   32.5090   39.6700 N   0  0  0  0  0  0  0  0  0  0  0  0
   40.0620   33.7970   39.3950 C   0  0  0  0  0  0  0  0  0  0  0  0
   41.3200   33.5660   38.5780 C   0  0  0  0  0  0  0  0  0  0  0  0
   41.0530   32.9150   37.3380 N   0  0  0  0  0  0  0  0  0  0  0  0
   39.8640   32.1130   37.3440 C   0  0  0  0  0  0  0  0  0  0  0  0
   39.6770   31.4860   38.7240 C   0  0  0  0  0  0  0  0  0  0  0  0
   39.3480   34.4840   38.8800 H   0  0  0  0  0  0  0  0  0  0  0  0
   40.3550   34.3010   40.3220 H   0  0  0  0  0  0  0  0  0  0  0  0
   41.7770   34.5480   38.3840 H   0  0  0  0  0  0  0  0  0  0  0  0
   42.0110   33.0080   39.2420 H   0  0  0  0  0  0  0  0  0  0  0  0
   41.1260   33.4950   36.4910 H   0  0  0  0  0  0  0  0  0  0  0  0
   39.9080   31.2850   36.6120 H   0  0  0  0  0  0  0  0  0  0  0  0
   39.0020   32.7740   37.0800 H   0  0  0  0  0  0  0  0  0  0  0  0
   40.4980   30.7760   38.8680 H   0  0  0  0  0  0  0  0  0  0  0  0
   38.7050   30.9210   38.6320 H   0  0  0  0  0  0  0  0  0  0  0  0
   36.3320   31.0200   40.8980 C   0  0  0  0  0  0  0  0  0  0  0  0
   35.3730   31.5900   41.0060 H   0  0  0  0  0  0  0  0  0  0  0  0
   36.7900   31.0450   41.9040 H   0  0  0  0  0  0  0  0  0  0  0  0
   36.1200   29.6040   40.4580 C   0  0  0  0  0  0  0  0  0  0  0  0
   36.3380   29.3600   39.4300 H   0  0  0  0  0  0  0  0  0  0  0  0
   35.0150   29.3960   40.5810 H   0  0  0  0  0  0  0  0  0  0  0  0
   38.0090   28.4240   43.4620 C   0  0  0  0  0  0  0  0  0  0  0  0
   37.4220   29.2890   42.5120 C   0  0  0  0  0  0  0  0  0  0  0  0
   36.7480   28.6950   41.4730 C   0  0  0  0  0  0  0  0  0  0  0  0
   36.6750   27.3490   41.4050 N   0  0  0  0  0  0  0  0  0  0  0  0
   37.2250   26.5540   42.2940 C   0  0  0  0  0  0  0  0  0  0  0  0
   37.8960   27.0880   43.3290 N   0  0  0  0  0  0  0  0  0  0  0  0
   38.5520   28.8550   44.3000 H   0  0  0  0  0  0  0  0  0  0  0  0
   37.5330   30.3590   42.6510 H   0  0  0  0  0  0  0  0  0  0  0  0
   37.0550   25.0960   42.0780 C   0  0  0  0  0  2  0  0  0  0  0  0
   38.3640   24.3600   42.2860 C   0  0  0  0  0  2  0  0  0  0  0  0
   38.1500   23.3540   42.6870 H   0  0  0  0  0  0  0  0  0  0  0  0
  1  4  1  6  0  0  0
  1  3  1  0  0  0  0
  1 23  1  0  0  0  0
  2  1  1  0  0  0  0
  2  5  1  0  0  0  0
  2  3  1  0  0  0  0
  3  7  1  1  0  0  0
  6  2  1  0  0  0  0
  8  3  1  0  0  0  0
  9  8  1  0  0  0  0
  9 15  1  0  0  0  0
 10 17  1  0  0  0  0
 10  9  1  0  0  0  0
 11 12  1  0  0  0  0
 11 10  1  0  0  0  0
 12 13  1  0  0  0  0
 13 21  1  0  0  0  0
 13  8  1  0  0  0  0
 14  9  1  0  0  0  0
 16 10  1  0  0  0  0
 18 11  1  0  0  0  0
 19 12  1  0  0  0  0
 20 12  1  0  0  0  0
 22 13  1  0  0  0  0
 23 24  1  0  0  0  0
 23 25  1  0  0  0  0
 26 28  1  0  0  0  0
 26 23  1  0  0  0  0
 26 31  1  0  0  0  0
 27 26  1  0  0  0  0
 29 35  1  0  0  0  0
 30 36  1  0  0  0  0
 30 29  2  0  0  0  0
 31 30  1  0  0  0  0
 32 31  2  0  0  0  0
 32 33  1  0  0  0  0
 33 34  2  0  0  0  0
 34 29  1  0  0  0  0
 37 38  1  0  0  0  0
 37 33  1  0  0  0  0
 38 39  1  0  0  0  0
M  END
>  <minimizedAffinity>
-5.19016647

$$$$

 OpenBabel03252502483D

 39 41  0  0  1  0  0  0  0  0999 V2000
   38.9260   29.9320   42.6140 C   0  0  1  0  0  0  0  0  0  0  0  0
   40.1700   30.7470   42.6920 C   0  0  0  0  0  0  0  0  0  0  0  0
   39.6550   30.2490   41.3980 C   0  0  2  0  0  0  0  0  0  0  0  0
   37.9950   30.4260   42.8730 H   0  0  0  0  0  0  0  0  0  0  0  0
   41.0630   30.2660   43.1600 H   0  0  0  0  0  0  0  0  0  0  0  0
   40.0880   31.8170   42.9890 H   0  0  0  0  0  0  0  0  0  0  0  0
   40.3290   29.5700   40.8660 H   0  0  0  0  0  0  0  0  0  0  0  0
   39.0400   31.3000   40.6010 N   0  0  0  0  0  0  0  0  0  0  0  0
   39.1510   32.5990   41.1560 C   0  0  0  0  0  0  0  0  0  0  0  0
   38.4440   33.5250   40.1850 C   0  0  0  0  0  0  0  0  0  0  0  0
   37.0610   33.2150   40.0430 N   0  0  0  0  0  0  0  0  0  0  0  0
   36.7380   31.8460   40.3250 C   0  0  0  0  0  0  0  0  0  0  0  0
   37.8910   30.9470   39.8820 C   0  0  0  0  0  0  0  0  0  0  0  0
   38.7470   32.6920   42.1930 H   0  0  0  0  0  0  0  0  0  0  0  0
   40.2000   32.9080   41.2090 H   0  0  0  0  0  0  0  0  0  0  0  0
   38.5510   34.5530   40.5660 H   0  0  0  0  0  0  0  0  0  0  0  0
   39.0200   33.4660   39.2390 H   0  0  0  0  0  0  0  0  0  0  0  0
   36.3960   33.8680   40.4800 H   0  0  0  0  0  0  0  0  0  0  0  0
   35.8330   31.5040   39.7880 H   0  0  0  0  0  0  0  0  0  0  0  0
   36.5540   31.7550   41.4230 H   0  0  0  0  0  0  0  0  0  0  0  0
   37.9430   31.0070   38.7900 H   0  0  0  0  0  0  0  0  0  0  0  0
   37.5560   29.9140   40.1850 H   0  0  0  0  0  0  0  0  0  0  0  0
   38.9970   28.5140   43.1010 C   0  0  0  0  0  0  0  0  0  0  0  0
   39.6060   28.4080   44.0350 H   0  0  0  0  0  0  0  0  0  0  0  0
   39.5230   27.8980   42.3490 H   0  0  0  0  0  0  0  0  0  0  0  0
   37.5860   28.0410   43.2680 C   0  0  0  0  0  0  0  0  0  0  0  0
   36.8440   28.7670   43.5600 H   0  0  0  0  0  0  0  0  0  0  0  0
   37.6030   27.2850   44.1100 H   0  0  0  0  0  0  0  0  0  0  0  0
   37.0260   25.0700   41.0670 C   0  0  0  0  0  0  0  0  0  0  0  0
   37.3690   25.8460   42.1960 C   0  0  0  0  0  0  0  0  0  0  0  0
   37.2240   27.2060   42.0750 C   0  0  0  0  0  0  0  0  0  0  0  0
   36.7730   27.7310   40.9170 N   0  0  0  0  0  0  0  0  0  0  0  0
   36.4560   27.0000   39.8720 C   0  0  0  0  0  0  0  0  0  0  0  0
   36.5820   25.6640   39.9420 N   0  0  0  0  0  0  0  0  0  0  0  0
   37.1270   23.9880   41.1220 H   0  0  0  0  0  0  0  0  0  0  0  0
   37.7230   25.3340   43.0840 H   0  0  0  0  0  0  0  0  0  0  0  0
   35.9740   27.7280   38.6720 C   0  0  0  0  0  2  0  0  0  0  0  0
   34.9440   28.7740   39.0500 C   0  0  0  0  0  2  0  0  0  0  0  0
   35.0260   29.6260   38.3530 H   0  0  0  0  0  0  0  0  0  0  0  0
  1  2  1  0  0  0  0
  1  4  1  1  0  0  0
  1 23  1  0  0  0  0
  2  6  1  0  0  0  0
  2  5  1  0  0  0  0
  3  7  1  6  0  0  0
  3  1  1  0  0  0  0
  3  2  1  0  0  0  0
  8  9  1  0  0  0  0
  8  3  1  0  0  0  0
  9 15  1  0  0  0  0
  9 14  1  0  0  0  0
 10 16  1  0  0  0  0
 10  9  1  0  0  0  0
 11 10  1  0  0  0  0
 11 12  1  0  0  0  0
 11 18  1  0  0  0  0
 12 20  1  0  0  0  0
 13 22  1  0  0  0  0
 13 12  1  0  0  0  0
 13  8  1  0  0  0  0
 17 10  1  0  0  0  0
 19 12  1  0  0  0  0
 21 13  1  0  0  0  0
 23 26  1  0  0  0  0
 23 24  1  0  0  0  0
 25 23  1  0  0  0  0
 26 27  1  0  0  0  0
 26 28  1  0  0  0  0
 29 35  1  0  0  0  0
 29 30  1  0  0  0  0
 30 36  1  0  0  0  0
 31 30  2  0  0  0  0
 31 26  1  0  0  0  0
 32 31  1  0  0  0  0
 33 34  1  0  0  0  0
 33 32  2  0  0  0  0
 34 29  2  0  0  0  0
 37 38  1  0  0  0  0
 37 33  1  0  0  0  0
 39 38  1  0  0  0  0
M  END
>  <minimizedAffinity>
-4.9488678

$$$$

 OpenBabel03252502483D

 39 41  0  0  1  0  0  0  0  0999 V2000
   37.0710   29.6530   40.2860 C   0  0  1  0  0  0  0  0  0  0  0  0
   36.4310   30.3410   39.1290 C   0  0  0  0  0  0  0  0  0  0  0  0
   36.5170   30.9850   40.4580 C   0  0  2  0  0  0  0  0  0  0  0  0
   38.1400   29.4780   40.2270 H   0  0  0  0  0  0  0  0  0  0  0  0
   35.4570   29.9280   38.7710 H   0  0  0  0  0  0  0  0  0  0  0  0
   37.0730   30.6560   38.2770 H   0  0  0  0  0  0  0  0  0  0  0  0
   35.5520   31.2170   40.9200 H   0  0  0  0  0  0  0  0  0  0  0  0
   37.5200   32.0380   40.5040 N   0  0  0  0  0  0  0  0  0  0  0  0
   37.1850   33.1990   39.7630 C   0  0  0  0  0  0  0  0  0  0  0  0
   38.3550   34.1500   39.9350 C   0  0  0  0  0  0  0  0  0  0  0  0
   39.5710   33.6200   39.4140 N   0  0  0  0  0  0  0  0  0  0  0  0
   39.6180   32.1870   39.3850 C   0  0  0  0  0  0  0  0  0  0  0  0
   38.8560   31.6260   40.5840 C   0  0  0  0  0  0  0  0  0  0  0  0
   36.9560   33.0080   38.6870 H   0  0  0  0  0  0  0  0  0  0  0  0
   36.2970   33.6830   40.1830 H   0  0  0  0  0  0  0  0  0  0  0  0
   38.1060   35.0830   39.4050 H   0  0  0  0  0  0  0  0  0  0  0  0
   38.3920   34.3880   41.0170 H   0  0  0  0  0  0  0  0  0  0  0  0
   39.9160   34.0380   38.5390 H   0  0  0  0  0  0  0  0  0  0  0  0
   40.6510   31.7950   39.4420 H   0  0  0  0  0  0  0  0  0  0  0  0
   39.1620   31.8470   38.4220 H   0  0  0  0  0  0  0  0  0  0  0  0
   39.4170   31.9090   41.4810 H   0  0  0  0  0  0  0  0  0  0  0  0
   38.9170   30.5090   40.4410 H   0  0  0  0  0  0  0  0  0  0  0  0
   36.3210   28.5170   40.9160 C   0  0  0  0  0  0  0  0  0  0  0  0
   36.5090   27.5370   40.4050 H   0  0  0  0  0  0  0  0  0  0  0  0
   35.2350   28.6910   40.8010 H   0  0  0  0  0  0  0  0  0  0  0  0
   36.6960   28.4980   42.3660 C   0  0  0  0  0  0  0  0  0  0  0  0
   35.9030   28.5950   43.0900 H   0  0  0  0  0  0  0  0  0  0  0  0
   37.3580   29.3990   42.5330 H   0  0  0  0  0  0  0  0  0  0  0  0
   39.5960   26.4890   43.6050 C   0  0  0  0  0  0  0  0  0  0  0  0
   38.7220   27.5790   43.3960 C   0  0  0  0  0  0  0  0  0  0  0  0
   37.6310   27.3480   42.5960 C   0  0  0  0  0  0  0  0  0  0  0  0
   37.4420   26.1240   42.0580 N   0  0  0  0  0  0  0  0  0  0  0  0
   38.2610   25.1160   42.2590 C   0  0  0  0  0  0  0  0  0  0  0  0
   39.3440   25.2940   43.0350 N   0  0  0  0  0  0  0  0  0  0  0  0
   40.4730   26.6310   44.2330 H   0  0  0  0  0  0  0  0  0  0  0  0
   38.9570   28.5250   43.8710 H   0  0  0  0  0  0  0  0  0  0  0  0
   37.9140   23.8340   41.5980 C   0  0  0  0  0  2  0  0  0  0  0  0
   36.5830   23.9380   40.8790 C   0  0  0  0  0  2  0  0  0  0  0  0
   36.6050   23.2870   39.9880 H   0  0  0  0  0  0  0  0  0  0  0  0
  1  4  1  6  0  0  0
  1  3  1  0  0  0  0
  1 23  1  0  0  0  0
  2  1  1  0  0  0  0
  2  3  1  0  0  0  0
  3  8  1  0  0  0  0
  3  7  1  1  0  0  0
  5  2  1  0  0  0  0
  6  2  1  0  0  0  0
  8 13  1  0  0  0  0
  9 10  1  0  0  0  0
  9 15  1  0  0  0  0
  9  8  1  0  0  0  0
 10 17  1  0  0  0  0
 11 10  1  0  0  0  0
 12 11  1  0  0  0  0
 12 19  1  0  0  0  0
 12 13  1  0  0  0  0
 13 21  1  0  0  0  0
 14  9  1  0  0  0  0
 16 10  1  0  0  0  0
 18 11  1  0  0  0  0
 20 12  1  0  0  0  0
 22 13  1  0  0  0  0
 23 26  1  0  0  0  0
 24 23  1  0  0  0  0
 25 23  1  0  0  0  0
 26 28  1  0  0  0  0
 26 31  1  0  0  0  0
 26 27  1  0  0  0  0
 29 35  1  0  0  0  0
 30 29  1  0  0  0  0
 30 36  1  0  0  0  0
 31 30  2  0  0  0  0
 32 33  2  0  0  0  0
 32 31  1  0  0  0  0
 33 34  1  0  0  0  0
 34 29  2  0  0  0  0
 37 33  1  0  0  0  0
 38 37  1  0  0  0  0
 39 38  1  0  0  0  0
M  END
>  <minimizedAffinity>
-4.9236064

$$$$

 OpenBabel03252502483D

 39 41  0  0  1  0  0  0  0  0999 V2000
   38.9390   30.7320   41.7430 C   0  0  1  0  0  0  0  0  0  0  0  0
   40.2340   31.4670   41.6930 C   0  0  0  0  0  0  0  0  0  0  0  0
   39.7840   30.6180   40.5680 C   0  0  2  0  0  0  0  0  0  0  0  0
   38.0320   31.3290   41.7450 H   0  0  0  0  0  0  0  0  0  0  0  0
   41.0460   31.1100   42.3720 H   0  0  0  0  0  0  0  0  0  0  0  0
   40.2130   32.5780   41.6400 H   0  0  0  0  0  0  0  0  0  0  0  0
   40.4420   29.7740   40.3380 H   0  0  0  0  0  0  0  0  0  0  0  0
   39.3200   31.3980   39.4310 N   0  0  0  0  0  0  0  0  0  0  0  0
   38.6010   30.6530   38.4630 C   0  0  0  0  0  0  0  0  0  0  0  0
   38.2260   31.6420   37.3750 C   0  0  0  0  0  0  0  0  0  0  0  0
   39.3670   32.2160   36.7430 N   0  0  0  0  0  0  0  0  0  0  0  0
   40.5410   32.2380   37.5660 C   0  0  0  0  0  0  0  0  0  0  0  0
   40.1400   32.4580   39.0230 C   0  0  0  0  0  0  0  0  0  0  0  0
   39.1550   29.7720   38.0560 H   0  0  0  0  0  0  0  0  0  0  0  0
   37.6730   30.2590   38.8900 H   0  0  0  0  0  0  0  0  0  0  0  0
   37.6270   31.1020   36.6260 H   0  0  0  0  0  0  0  0  0  0  0  0
   37.5570   32.3810   37.8590 H   0  0  0  0  0  0  0  0  0  0  0  0
   39.5710   31.8970   35.7850 H   0  0  0  0  0  0  0  0  0  0  0  0
   41.2360   33.0540   37.2920 H   0  0  0  0  0  0  0  0  0  0  0  0
   41.0720   31.2630   37.4360 H   0  0  0  0  0  0  0  0  0  0  0  0
   39.7260   33.4690   39.0930 H   0  0  0  0  0  0  0  0  0  0  0  0
   41.1190   32.4150   39.5800 H   0  0  0  0  0  0  0  0  0  0  0  0
   38.8590   29.5350   42.6440 C   0  0  0  0  0  0  0  0  0  0  0  0
   39.3010   29.7230   43.6560 H   0  0  0  0  0  0  0  0  0  0  0  0
   39.4680   28.7170   42.2170 H   0  0  0  0  0  0  0  0  0  0  0  0
   37.4170   29.1320   42.7050 C   0  0  0  0  0  0  0  0  0  0  0  0
   36.6760   29.8970   42.5380 H   0  0  0  0  0  0  0  0  0  0  0  0
   37.2340   28.7710   43.7610 H   0  0  0  0  0  0  0  0  0  0  0  0
   36.5350   26.8490   39.8780 C   0  0  0  0  0  0  0  0  0  0  0  0
   36.6970   28.0290   40.6370 C   0  0  0  0  0  0  0  0  0  0  0  0
   37.2410   27.8860   41.8890 C   0  0  0  0  0  0  0  0  0  0  0  0
   37.5900   26.6590   42.3310 N   0  0  0  0  0  0  0  0  0  0  0  0
   37.4350   25.5670   41.6170 C   0  0  0  0  0  0  0  0  0  0  0  0
   36.9060   25.6570   40.3840 N   0  0  0  0  0  0  0  0  0  0  0  0
   36.1070   26.9200   38.8800 H   0  0  0  0  0  0  0  0  0  0  0  0
   36.3870   28.9710   40.1970 H   0  0  0  0  0  0  0  0  0  0  0  0
   37.8690   24.2940   42.2440 C   0  0  0  0  0  2  0  0  0  0  0  0
   39.3260   24.3620   42.6580 C   0  0  0  0  0  2  0  0  0  0  0  0
   39.4720   23.7440   43.5600 H   0  0  0  0  0  0  0  0  0  0  0  0
  1  4  1  6  0  0  0
  1 23  1  0  0  0  0
  2  1  1  0  0  0  0
  2  5  1  0  0  0  0
  3  7  1  6  0  0  0
  3  2  1  0  0  0  0
  3  1  1  0  0  0  0
  6  2  1  0  0  0  0
  8  3  1  0  0  0  0
  9 15  1  0  0  0  0
  9  8  1  0  0  0  0
 10 17  1  0  0  0  0
 10  9  1  0  0  0  0
 11 10  1  0  0  0  0
 11 12  1  0  0  0  0
 12 13  1  0  0  0  0
 13 21  1  0  0  0  0
 13  8  1  0  0  0  0
 13 22  1  0  0  0  0
 14  9  1  0  0  0  0
 16 10  1  0  0  0  0
 18 11  1  0  0  0  0
 19 12  1  0  0  0  0
 20 12  1  0  0  0  0
 23 26  1  0  0  0  0
 23 24  1  0  0  0  0
 25 23  1  0  0  0  0
 26 28  1  0  0  0  0
 27 26  1  0  0  0  0
 29 34  2  0  0  0  0
 29 30  1  0  0  0  0
 30 31  2  0  0  0  0
 31 32  1  0  0  0  0
 31 26  1  0  0  0  0
 33 37  1  0  0  0  0
 33 32  2  0  0  0  0
 34 33  1  0  0  0  0
 35 29  1  0  0  0  0
 36 30  1  0  0  0  0
 37 38  1  0  0  0  0
 38 39  1  0  0  0  0
M  END
>  <minimizedAffinity>
-4.82057619

$$$$

 OpenBabel03252502483D

 39 41  0  0  1  0  0  0  0  0999 V2000
   37.9400   27.9790   43.4760 C   0  0  1  0  0  0  0  0  0  0  0  0
   36.5270   27.5260   43.6120 C   0  0  0  0  0  0  0  0  0  0  0  0
   37.3570   27.1280   42.4540 C   0  0  2  0  0  0  0  0  0  0  0  0
   38.6510   27.6010   44.2030 H   0  0  0  0  0  0  0  0  0  0  0  0
   35.7320   28.3020   43.4890 H   0  0  0  0  0  0  0  0  0  0  0  0
   36.2720   26.8150   44.4290 H   0  0  0  0  0  0  0  0  0  0  0  0
   36.9820   27.4660   41.4820 H   0  0  0  0  0  0  0  0  0  0  0  0
   37.7880   25.7400   42.5270 N   0  0  0  0  0  0  0  0  0  0  0  0
   39.1580   25.5350   42.2310 C   0  0  0  0  0  0  0  0  0  0  0  0
   39.3890   24.0410   42.3530 C   0  0  0  0  0  0  0  0  0  0  0  0
   38.6120   23.2910   41.4230 N   0  0  0  0  0  0  0  0  0  0  0  0
   37.4100   23.9500   41.0010 C   0  0  0  0  0  0  0  0  0  0  0  0
   36.8450   24.7720   42.1580 C   0  0  0  0  0  0  0  0  0  0  0  0
   39.4780   25.9280   41.2350 H   0  0  0  0  0  0  0  0  0  0  0  0
   39.7920   26.0320   42.9730 H   0  0  0  0  0  0  0  0  0  0  0  0
   40.4580   23.8520   42.1710 H   0  0  0  0  0  0  0  0  0  0  0  0
   39.1880   23.7910   43.4150 H   0  0  0  0  0  0  0  0  0  0  0  0
   39.1200   22.8700   40.6340 H   0  0  0  0  0  0  0  0  0  0  0  0
   36.6220   23.2380   40.6920 H   0  0  0  0  0  0  0  0  0  0  0  0
   37.6620   24.6010   40.1290 H   0  0  0  0  0  0  0  0  0  0  0  0
   36.5240   24.0640   42.9290 H   0  0  0  0  0  0  0  0  0  0  0  0
   35.9400   25.2760   41.7120 H   0  0  0  0  0  0  0  0  0  0  0  0
   38.1730   29.4160   43.1140 C   0  0  0  0  0  0  0  0  0  0  0  0
   38.0360   30.1100   43.9840 H   0  0  0  0  0  0  0  0  0  0  0  0
   37.4110   29.7330   42.3770 H   0  0  0  0  0  0  0  0  0  0  0  0
   39.5430   29.4970   42.5150 C   0  0  0  0  0  0  0  0  0  0  0  0
   40.2090   28.6650   42.6730 H   0  0  0  0  0  0  0  0  0  0  0  0
   40.0530   30.3790   43.0080 H   0  0  0  0  0  0  0  0  0  0  0  0
   40.2360   29.9470   38.8680 C   0  0  0  0  0  0  0  0  0  0  0  0
   40.3730   29.5210   40.2080 C   0  0  0  0  0  0  0  0  0  0  0  0
   39.4080   29.9430   41.0890 C   0  0  0  0  0  0  0  0  0  0  0  0
   38.3980   30.7250   40.6530 N   0  0  0  0  0  0  0  0  0  0  0  0
   38.2800   31.1160   39.4030 C   0  0  0  0  0  0  0  0  0  0  0  0
   39.2000   30.7280   38.5030 N   0  0  0  0  0  0  0  0  0  0  0  0
   40.9800   29.6340   38.1380 H   0  0  0  0  0  0  0  0  0  0  0  0
   41.2190   28.8940   40.4640 H   0  0  0  0  0  0  0  0  0  0  0  0
   37.1120   31.9730   39.0820 C   0  0  0  0  0  2  0  0  0  0  0  0
   37.3380   33.3960   39.5510 C   0  0  0  0  0  2  0  0  0  0  0  0
   36.8220   34.0870   38.8620 H   0  0  0  0  0  0  0  0  0  0  0  0
  1  2  1  0  0  0  0
  1  4  1  1  0  0  0
  2  6  1  0  0  0  0
  3  7  1  6  0  0  0
  3  8  1  0  0  0  0
  3  1  1  0  0  0  0
  3  2  1  0  0  0  0
  5  2  1  0  0  0  0
  9 10  1  0  0  0  0
  9  8  1  0  0  0  0
  9 15  1  0  0  0  0
 10 17  1  0  0  0  0
 11 10  1  0  0  0  0
 12 11  1  0  0  0  0
 12 13  1  0  0  0  0
 13  8  1  0  0  0  0
 13 21  1  0  0  0  0
 14  9  1  0  0  0  0
 16 10  1  0  0  0  0
 18 11  1  0  0  0  0
 19 12  1  0  0  0  0
 20 12  1  0  0  0  0
 22 13  1  0  0  0  0
 23  1  1  0  0  0  0
 23 24  1  0  0  0  0
 25 23  1  0  0  0  0
 26 27  1  0  0  0  0
 26 28  1  0  0  0  0
 26 23  1  0  0  0  0
 29 30  1  0  0  0  0
 30 36  1  0  0  0  0
 30 31  2  0  0  0  0
 31 26  1  0  0  0  0
 32 31  1  0  0  0  0
 33 32  2  0  0  0  0
 34 29  2  0  0  0  0
 34 33  1  0  0  0  0
 35 29  1  0  0  0  0
 37 33  1  0  0  0  0
 37 38  1  0  0  0  0
 39 38  1  0  0  0  0
M  END
>  <minimizedAffinity>
-4.74102259

$$$$

 OpenBabel03252502483D

 39 41  0  0  1  0  0  0  0  0999 V2000
   37.1080   29.3450   40.7470 C   0  0  1  0  0  0  0  0  0  0  0  0
   36.8430   29.8120   39.3580 C   0  0  0  0  0  0  0  0  0  0  0  0
   36.5370   30.6620   40.5300 C   0  0  2  0  0  0  0  0  0  0  0  0
   38.1470   29.2070   41.0320 H   0  0  0  0  0  0  0  0  0  0  0  0
   36.0160   29.3080   38.8030 H   0  0  0  0  0  0  0  0  0  0  0  0
   37.7100   30.0160   38.6900 H   0  0  0  0  0  0  0  0  0  0  0  0
   35.4800   30.9240   40.6440 H   0  0  0  0  0  0  0  0  0  0  0  0
   37.4890   31.7510   40.6930 N   0  0  0  0  0  0  0  0  0  0  0  0
   37.3250   32.8160   39.7720 C   0  0  0  0  0  0  0  0  0  0  0  0
   38.4100   33.8220   40.1080 C   0  0  0  0  0  0  0  0  0  0  0  0
   39.7210   33.2860   39.9460 N   0  0  0  0  0  0  0  0  0  0  0  0
   39.7900   31.8610   40.0850 C   0  0  0  0  0  0  0  0  0  0  0  0
   38.7730   31.3990   41.1280 C   0  0  0  0  0  0  0  0  0  0  0  0
   37.3590   32.5060   38.7000 H   0  0  0  0  0  0  0  0  0  0  0  0
   36.3580   33.3070   39.9180 H   0  0  0  0  0  0  0  0  0  0  0  0
   38.2830   34.6860   39.4370 H   0  0  0  0  0  0  0  0  0  0  0  0
   38.1880   34.1720   41.1370 H   0  0  0  0  0  0  0  0  0  0  0  0
   40.2580   33.6230   39.1360 H   0  0  0  0  0  0  0  0  0  0  0  0
   40.7840   31.5150   40.4240 H   0  0  0  0  0  0  0  0  0  0  0  0
   39.5780   31.4060   39.0860 H   0  0  0  0  0  0  0  0  0  0  0  0
   39.1030   31.7930   42.0940 H   0  0  0  0  0  0  0  0  0  0  0  0
   38.8790   30.2760   41.1250 H   0  0  0  0  0  0  0  0  0  0  0  0
   36.1980   28.2910   41.3070 C   0  0  0  0  0  0  0  0  0  0  0  0
   36.1640   27.3670   40.6740 H   0  0  0  0  0  0  0  0  0  0  0  0
   35.1600   28.6720   41.3090 H   0  0  0  0  0  0  0  0  0  0  0  0
   36.6560   28.0210   42.7080 C   0  0  0  0  0  0  0  0  0  0  0  0
   35.9150   28.0340   43.4890 H   0  0  0  0  0  0  0  0  0  0  0  0
   37.3770   28.8520   42.9710 H   0  0  0  0  0  0  0  0  0  0  0  0
   37.8420   24.5170   42.1550 C   0  0  0  0  0  0  0  0  0  0  0  0
   37.0040   25.6540   42.1690 C   0  0  0  0  0  0  0  0  0  0  0  0
   37.5380   26.8070   42.6880 C   0  0  0  0  0  0  0  0  0  0  0  0
   38.8060   26.8080   43.1510 N   0  0  0  0  0  0  0  0  0  0  0  0
   39.5780   25.7450   43.1340 C   0  0  0  0  0  0  0  0  0  0  0  0
   39.0990   24.5920   42.6350 N   0  0  0  0  0  0  0  0  0  0  0  0
   37.4560   23.5830   41.7520 H   0  0  0  0  0  0  0  0  0  0  0  0
   35.9980   25.5560   41.7740 H   0  0  0  0  0  0  0  0  0  0  0  0
   40.9480   25.9090   43.6800 C   0  0  0  0  0  2  0  0  0  0  0  0
   41.9670   25.1990   42.8100 C   0  0  0  0  0  2  0  0  0  0  0  0
   42.9190   25.7550   42.8460 H   0  0  0  0  0  0  0  0  0  0  0  0
  1  4  1  1  0  0  0
  1 23  1  0  0  0  0
  2  3  1  0  0  0  0
  2  1  1  0  0  0  0
  3  7  1  1  0  0  0
  3  8  1  0  0  0  0
  3  1  1  0  0  0  0
  5  2  1  0  0  0  0
  6  2  1  0  0  0  0
  8 13  1  0  0  0  0
  9 15  1  0  0  0  0
  9 10  1  0  0  0  0
  9  8  1  0  0  0  0
 10 17  1  0  0  0  0
 11 12  1  0  0  0  0
 11 10  1  0  0  0  0
 12 19  1  0  0  0  0
 12 13  1  0  0  0  0
 13 21  1  0  0  0  0
 14  9  1  0  0  0  0
 16 10  1  0  0  0  0
 18 11  1  0  0  0  0
 20 12  1  0  0  0  0
 22 13  1  0  0  0  0
 23 25  1  0  0  0  0
 23 26  1  0  0  0  0
 24 23  1  0  0  0  0
 26 28  1  0  0  0  0
 26 27  1  0  0  0  0
 29 30  2  0  0  0  0
 29 34  1  0  0  0  0
 30 31  1  0  0  0  0
 31 26  1  0  0  0  0
 31 32  2  0  0  0  0
 33 32  1  0  0  0  0
 33 37  1  0  0  0  0
 34 33  2  0  0  0  0
 35 29  1  0  0  0  0
 36 30  1  0  0  0  0
 38 39  1  0  0  0  0
 38 37  1  0  0  0  0
M  END
>  <minimizedAffinity>
-4.72752428

$$$$

 OpenBabel03252502483D

 39 41  0  0  1  0  0  0  0  0999 V2000
   37.9560   27.8780   43.1080 C   0  0  1  0  0  0  0  0  0  0  0  0
   36.6260   27.2480   43.3370 C   0  0  0  0  0  0  0  0  0  0  0  0
   37.2410   27.2840   41.9920 C   0  0  2  0  0  0  0  0  0  0  0  0
   38.8160   27.3960   43.5630 H   0  0  0  0  0  0  0  0  0  0  0  0
   35.7770   27.9310   43.5810 H   0  0  0  0  0  0  0  0  0  0  0  0
   36.5760   26.3130   43.9400 H   0  0  0  0  0  0  0  0  0  0  0  0
   36.6680   27.8340   41.2390 H   0  0  0  0  0  0  0  0  0  0  0  0
   37.7620   25.9880   41.5820 N   0  0  0  0  0  0  0  0  0  0  0  0
   36.8650   24.9080   41.7760 C   0  0  0  0  0  0  0  0  0  0  0  0
   37.6020   23.6700   41.3000 C   0  0  0  0  0  0  0  0  0  0  0  0
   38.7830   23.4140   42.0540 N   0  0  0  0  0  0  0  0  0  0  0  0
   39.3550   24.5820   42.6590 C   0  0  0  0  0  0  0  0  0  0  0  0
   39.1380   25.7870   41.7460 C   0  0  0  0  0  0  0  0  0  0  0  0
   36.4960   24.7990   42.8250 H   0  0  0  0  0  0  0  0  0  0  0  0
   35.9750   25.0270   41.1500 H   0  0  0  0  0  0  0  0  0  0  0  0
   36.9140   22.8150   41.3970 H   0  0  0  0  0  0  0  0  0  0  0  0
   37.7810   23.8240   40.2170 H   0  0  0  0  0  0  0  0  0  0  0  0
   38.7490   22.6180   42.7060 H   0  0  0  0  0  0  0  0  0  0  0  0
   40.4450   24.4860   42.8200 H   0  0  0  0  0  0  0  0  0  0  0  0
   38.8620   24.7330   43.6510 H   0  0  0  0  0  0  0  0  0  0  0  0
   39.7320   25.6170   40.8420 H   0  0  0  0  0  0  0  0  0  0  0  0
   39.5800   26.6460   42.3280 H   0  0  0  0  0  0  0  0  0  0  0  0
   38.0280   29.3760   43.1520 C   0  0  0  0  0  0  0  0  0  0  0  0
   38.0500   29.7780   44.1970 H   0  0  0  0  0  0  0  0  0  0  0  0
   37.1080   29.7960   42.7060 H   0  0  0  0  0  0  0  0  0  0  0  0
   39.2270   29.7770   42.3480 C   0  0  0  0  0  0  0  0  0  0  0  0
   39.8450   28.9920   41.9430 H   0  0  0  0  0  0  0  0  0  0  0  0
   39.9030   30.3490   43.0530 H   0  0  0  0  0  0  0  0  0  0  0  0
   37.0790   31.8980   40.1420 C   0  0  0  0  0  0  0  0  0  0  0  0
   37.4650   30.9070   41.0700 C   0  0  0  0  0  0  0  0  0  0  0  0
   38.8040   30.8270   41.3640 C   0  0  0  0  0  0  0  0  0  0  0  0
   39.6710   31.6750   40.7710 N   0  0  0  0  0  0  0  0  0  0  0  0
   39.3010   32.5940   39.9080 C   0  0  0  0  0  0  0  0  0  0  0  0
   38.0000   32.7100   39.5890 N   0  0  0  0  0  0  0  0  0  0  0  0
   36.0260   31.9940   39.8820 H   0  0  0  0  0  0  0  0  0  0  0  0
   36.6960   30.2710   41.4950 H   0  0  0  0  0  0  0  0  0  0  0  0
   40.3750   33.4490   39.3440 C   0  0  0  0  0  2  0  0  0  0  0  0
   41.1410   34.1540   40.4460 C   0  0  0  0  0  2  0  0  0  0  0  0
   42.1900   34.2840   40.1280 H   0  0  0  0  0  0  0  0  0  0  0  0
  1 23  1  0  0  0  0
  1  2  1  0  0  0  0
  1  4  1  1  0  0  0
  2  5  1  0  0  0  0
  2  6  1  0  0  0  0
  3  7  1  6  0  0  0
  3  1  1  0  0  0  0
  3  2  1  0  0  0  0
  8 13  1  0  0  0  0
  8  9  1  0  0  0  0
  8  3  1  0  0  0  0
  9 14  1  0  0  0  0
 10 16  1  0  0  0  0
 10  9  1  0  0  0  0
 10 11  1  0  0  0  0
 11 12  1  0  0  0  0
 11 18  1  0  0  0  0
 12 19  1  0  0  0  0
 12 20  1  0  0  0  0
 13 22  1  0  0  0  0
 13 12  1  0  0  0  0
 15  9  1  0  0  0  0
 17 10  1  0  0  0  0
 21 13  1  0  0  0  0
 23 24  1  0  0  0  0
 25 23  1  0  0  0  0
 26 28  1  0  0  0  0
 26 23  1  0  0  0  0
 27 26  1  0  0  0  0
 29 30  1  0  0  0  0
 30 31  2  0  0  0  0
 30 36  1  0  0  0  0
 31 26  1  0  0  0  0
 32 31  1  0  0  0  0
 33 32  2  0  0  0  0
 34 33  1  0  0  0  0
 34 29  2  0  0  0  0
 35 29  1  0  0  0  0
 37 33  1  0  0  0  0
 37 38  1  0  0  0  0
 39 38  1  0  0  0  0
M  END
>  <minimizedAffinity>
-4.72728682

$$$$

 OpenBabel03252502483D

 39 41  0  0  1  0  0  0  0  0999 V2000
   36.4080   26.7860   39.7070 C   0  0  1  0  0  0  0  0  0  0  0  0
   37.1520   25.5520   40.0860 C   0  0  0  0  0  0  0  0  0  0  0  0
   37.7680   26.8920   40.2060 C   0  0  2  0  0  0  0  0  0  0  0  0
   35.5490   27.0510   40.3160 H   0  0  0  0  0  0  0  0  0  0  0  0
   37.4570   24.8690   39.2560 H   0  0  0  0  0  0  0  0  0  0  0  0
   36.8100   24.9770   40.9760 H   0  0  0  0  0  0  0  0  0  0  0  0
   38.6600   27.0440   39.5900 H   0  0  0  0  0  0  0  0  0  0  0  0
   37.8550   27.3450   41.5860 N   0  0  0  0  0  0  0  0  0  0  0  0
   36.6220   27.3400   42.2840 C   0  0  0  0  0  0  0  0  0  0  0  0
   36.9340   27.8510   43.6780 C   0  0  0  0  0  0  0  0  0  0  0  0
   37.4410   29.1830   43.6700 N   0  0  0  0  0  0  0  0  0  0  0  0
   38.0900   29.5530   42.4470 C   0  0  0  0  0  0  0  0  0  0  0  0
   38.8040   28.3370   41.8580 C   0  0  0  0  0  0  0  0  0  0  0  0
   35.8130   27.9320   41.7920 H   0  0  0  0  0  0  0  0  0  0  0  0
   36.2370   26.3190   42.3810 H   0  0  0  0  0  0  0  0  0  0  0  0
   36.0010   27.8180   44.2620 H   0  0  0  0  0  0  0  0  0  0  0  0
   37.6250   27.1070   44.1230 H   0  0  0  0  0  0  0  0  0  0  0  0
   36.8050   29.9180   44.0090 H   0  0  0  0  0  0  0  0  0  0  0  0
   38.8540   30.3410   42.5930 H   0  0  0  0  0  0  0  0  0  0  0  0
   37.3110   29.9410   41.7460 H   0  0  0  0  0  0  0  0  0  0  0  0
   39.6180   28.0800   42.5440 H   0  0  0  0  0  0  0  0  0  0  0  0
   39.2380   28.7230   40.8910 H   0  0  0  0  0  0  0  0  0  0  0  0
   36.1960   27.0430   38.2440 C   0  0  0  0  0  0  0  0  0  0  0  0
   35.8280   26.1390   37.6940 H   0  0  0  0  0  0  0  0  0  0  0  0
   37.1670   27.2840   37.7740 H   0  0  0  0  0  0  0  0  0  0  0  0
   35.2620   28.2090   38.1380 C   0  0  0  0  0  0  0  0  0  0  0  0
   34.4450   28.2620   38.8400 H   0  0  0  0  0  0  0  0  0  0  0  0
   34.7710   28.1300   37.1220 H   0  0  0  0  0  0  0  0  0  0  0  0
   37.4190   30.9020   36.6970 C   0  0  0  0  0  0  0  0  0  0  0  0
   36.6500   29.7220   36.7980 C   0  0  0  0  0  0  0  0  0  0  0  0
   36.0810   29.4600   38.0200 C   0  0  0  0  0  0  0  0  0  0  0  0
   36.2740   30.3160   39.0450 N   0  0  0  0  0  0  0  0  0  0  0  0
   36.9920   31.4120   38.9410 C   0  0  0  0  0  0  0  0  0  0  0  0
   37.5690   31.7110   37.7650 N   0  0  0  0  0  0  0  0  0  0  0  0
   37.8870   31.1460   35.7460 H   0  0  0  0  0  0  0  0  0  0  0  0
   36.5510   29.0950   35.9180 H   0  0  0  0  0  0  0  0  0  0  0  0
   37.1080   32.2490   40.1610 C   0  0  0  0  0  2  0  0  0  0  0  0
   37.5580   33.6550   39.8130 C   0  0  0  0  0  2  0  0  0  0  0  0
   37.1090   34.3630   40.5310 H   0  0  0  0  0  0  0  0  0  0  0  0
  1  2  1  0  0  0  0
  1  3  1  0  0  0  0
  1  4  1  1  0  0  0
  2  3  1  0  0  0  0
  2  6  1  0  0  0  0
  3  7  1  6  0  0  0
  3  8  1  0  0  0  0
  5  2  1  0  0  0  0
  8 13  1  0  0  0  0
  8  9  1  0  0  0  0
  9 15  1  0  0  0  0
  9 10  1  0  0  0  0
 10 17  1  0  0  0  0
 10 16  1  0  0  0  0
 11 10  1  0  0  0  0
 11 18  1  0  0  0  0
 12 19  1  0  0  0  0
 12 11  1  0  0  0  0
 13 12  1  0  0  0  0
 13 21  1  0  0  0  0
 14  9  1  0  0  0  0
 20 12  1  0  0  0  0
 22 13  1  0  0  0  0
 23  1  1  0  0  0  0
 24 23  1  0  0  0  0
 25 23  1  0  0  0  0
 26 23  1  0  0  0  0
 26 27  1  0  0  0  0
 28 26  1  0  0  0  0
 29 30  2  0  0  0  0
 29 34  1  0  0  0  0
 30 31  1  0  0  0  0
 31 26  1  0  0  0  0
 31 32  2  0  0  0  0
 33 32  1  0  0  0  0
 33 37  1  0  0  0  0
 34 33  2  0  0  0  0
 35 29  1  0  0  0  0
 36 30  1  0  0  0  0
 38 37  1  0  0  0  0
 38 39  1  0  0  0  0
M  END
>  <minimizedAffinity>
-4.70792198

$$$$
