
 OpenBabel03252507133D

 36 37  0  0  1  0  0  0  0  0999 V2000
   50.2370   34.8360   42.6120 O   0  0  0  0  0  0  0  0  0  0  0  0
   49.0740   34.4810   41.7670 P   0  0  1  0  0  0  0  0  0  0  0  0
   48.8970   35.7230   40.6130 O   0  0  0  0  0  0  0  0  0  0  0  0
   48.7610   36.5480   41.1480 H   0  0  0  0  0  0  0  0  0  0  0  0
   49.3930   33.0320   40.8930 O   0  0  0  0  0  0  0  0  0  0  0  0
   49.7320   31.3330   42.4930 C   0  0  0  0  0  0  0  0  0  0  0  0
   50.2000   32.0390   41.4100 C   0  0  0  0  0  0  0  0  0  0  0  0
   51.4760   31.7140   40.8820 C   0  0  0  0  0  0  0  0  0  0  0  0
   52.1590   30.7160   41.4890 N   0  0  0  0  0  0  0  0  0  0  0  0
   51.6780   30.0580   42.5290 C   0  0  0  0  0  0  0  0  0  0  0  0
   50.4530   30.3790   43.0250 N   0  0  0  0  0  0  0  0  0  0  0  0
   47.3210   30.7910   42.7990 C   0  0  0  0  0  0  0  0  0  0  0  0
   47.1550   30.4420   41.5700 O   0  0  0  0  0  0  0  0  0  0  0  0
   48.5990   31.2650   43.3460 N   0  0  0  0  0  0  0  0  0  0  0  0
   51.7780   32.3030   40.0410 H   0  0  0  0  0  0  0  0  0  0  0  0
   52.2230   29.2590   43.0140 H   0  0  0  0  0  0  0  0  0  0  0  0
   46.4120   30.6990   43.3920 H   0  0  0  0  0  0  0  0  0  0  0  0
   48.5240   31.5110   44.3340 H   0  0  0  0  0  0  0  0  0  0  0  0
   47.6600   34.3550   42.6060 O   0  0  0  0  0  0  0  0  0  0  0  0
   46.5310   34.8260   42.0660 C   0  0  2  0  0  0  0  0  0  0  0  0
   45.6650   35.6690   42.9130 C   0  0  0  0  0  0  0  0  0  0  0  0
   44.2760   35.7130   42.3600 C   0  0  0  0  0  0  0  0  0  0  0  0
   43.6260   34.4920   42.4410 O   0  0  0  0  0  0  0  0  0  0  0  0
   44.5210   33.4380   42.4360 C   0  0  0  0  0  0  0  0  0  0  0  0
   45.6550   33.7090   41.4920 C   0  0  1  0  0  0  0  0  0  0  0  0
   46.7930   35.4040   41.1300 H   0  0  0  0  0  0  0  0  0  0  0  0
   46.0350   36.7280   43.0200 H   0  0  0  0  0  0  0  0  0  0  0  0
   45.5730   35.3130   43.9620 H   0  0  0  0  0  0  0  0  0  0  0  0
   44.1510   36.2580   41.4180 H   0  0  0  0  0  0  0  0  0  0  0  0
   43.7070   36.3550   43.1050 H   0  0  0  0  0  0  0  0  0  0  0  0
   44.9440   33.3120   43.4440 H   0  0  0  0  0  0  0  0  0  0  0  0
   43.9770   32.5210   42.1460 H   0  0  0  0  0  0  0  0  0  0  0  0
   46.2970   32.7930   41.5840 H   0  0  0  0  0  0  0  0  0  0  0  0
   45.3180   33.8260   40.0610 C   0  0  0  0  0  2  0  0  0  0  0  0
   46.3680   33.0330   39.2650 C   0  0  0  0  0  2  0  0  0  0  0  0
   46.2950   33.2650   38.1860 H   0  0  0  0  0  0  0  0  0  0  0  0
  2 19  1  0  0  0  0
  2  1  2  1  0  0  0
  3  4  1  0  0  0  0
  3  2  1  0  0  0  0
  5  7  1  0  0  0  0
  5  2  1  0  0  0  0
  6 11  1  0  0  0  0
  6 14  1  0  0  0  0
  7  6  2  0  0  0  0
  8  7  1  0  0  0  0
  8  9  2  0  0  0  0
  9 10  1  0  0  0  0
 10 16  1  0  0  0  0
 10 11  2  0  0  0  0
 12 14  1  0  0  0  0
 12 17  1  0  0  0  0
 13 12  2  0  0  0  0
 14 18  1  0  0  0  0
 15  8  1  0  0  0  0
 20 26  1  6  0  0  0
 20 19  1  0  0  0  0
 20 21  1  0  0  0  0
 21 27  1  0  0  0  0
 21 28  1  0  0  0  0
 22 23  1  0  0  0  0
 22 21  1  0  0  0  0
 22 30  1  0  0  0  0
 24 23  1  0  0  0  0
 24 31  1  0  0  0  0
 25 33  1  1  0  0  0
 25 20  1  0  0  0  0
 25 24  1  0  0  0  0
 29 22  1  0  0  0  0
 32 24  1  0  0  0  0
 34 25  1  0  0  0  0
 35 34  1  0  0  0  0
 36 35  1  0  0  0  0
M  END
>  <minimizedAffinity>
-4.16470718

>  <minimizedRMSD>
0.607108057

$$$$
