
 OpenBabel03242518373D

 29 31  0  0  1  0  0  0  0  0999 V2000
   37.2130   29.0910   39.3290 C   0  0  0  0  0  0  0  0  0  0  0  0
   35.9150   29.4030   39.7270 C   0  0  0  0  0  0  0  0  0  0  0  0
   35.6260   28.6980   40.8870 C   0  0  0  0  0  0  0  0  0  0  0  0
   36.7750   27.9920   41.1280 C   0  0  0  0  0  0  0  0  0  0  0  0
   37.6880   28.2270   40.2170 O   0  0  0  0  0  0  0  0  0  0  0  0
   35.3060   30.0930   39.1630 H   0  0  0  0  0  0  0  0  0  0  0  0
   34.6940   28.7390   41.4260 H   0  0  0  0  0  0  0  0  0  0  0  0
   36.9640   27.0820   42.2700 C   0  0  2  0  0  0  0  0  0  0  0  0
   36.4310   27.4520   43.5970 C   0  0  0  0  0  0  0  0  0  0  0  0
   37.8790   27.6290   43.3700 C   0  0  2  0  0  0  0  0  0  0  0  0
   37.1290   26.0250   41.9790 H   0  0  0  0  0  0  0  0  0  0  0  0
   36.0890   26.6460   44.2780 H   0  0  0  0  0  0  0  0  0  0  0  0
   35.7200   28.2990   43.5910 H   0  0  0  0  0  0  0  0  0  0  0  0
   38.5150   26.8280   43.8190 H   0  0  0  0  0  0  0  0  0  0  0  0
   38.5620   28.9160   43.2140 C   0  0  0  0  0  2  0  0  0  0  0  0
   39.9830   28.9500   42.8180 C   0  0  0  0  0  2  0  0  0  0  0  0
   40.1460   29.7780   42.0570 H   0  0  0  0  0  0  0  0  0  0  0  0
   37.9780   29.5320   38.2340 O   0  0  0  0  0  0  0  0  0  0  0  0
   37.7740   30.8350   37.7200 C   0  0  0  0  0  0  0  0  0  0  0  0
   37.2090   30.9080   36.6040 O   0  0  0  0  0  0  0  0  0  0  0  0
   38.2400   31.9040   38.5400 C   0  0  0  0  0  0  0  0  0  0  0  0
   37.2620   32.7400   39.0070 C   0  0  0  0  0  0  0  0  0  0  0  0
   37.6410   33.8120   39.8180 C   0  0  0  0  0  0  0  0  0  0  0  0
   38.9500   33.9570   40.0920 N   0  0  0  0  0  0  0  0  0  0  0  0
   39.8870   33.1320   39.6270 C   0  0  0  0  0  0  0  0  0  0  0  0
   39.5050   32.1050   38.8480 N   0  0  0  0  0  0  0  0  0  0  0  0
   36.2040   32.6500   38.8050 H   0  0  0  0  0  0  0  0  0  0  0  0
   36.8830   34.4940   40.2050 H   0  0  0  0  0  0  0  0  0  0  0  0
   40.9100   33.3430   39.9120 H   0  0  0  0  0  0  0  0  0  0  0  0
  1  2  2  0  0  0  0
  1  5  1  0  0  0  0
  2  3  1  0  0  0  0
  3  4  2  0  0  0  0
  3  7  1  0  0  0  0
  4  8  1  0  0  0  0
  5  4  1  0  0  0  0
  6  2  1  0  0  0  0
  8 11  1  6  0  0  0
  8 10  1  0  0  0  0
  8  9  1  0  0  0  0
  9 12  1  0  0  0  0
 10  9  1  0  0  0  0
 10 14  1  1  0  0  0
 13  9  1  0  0  0  0
 15 10  1  0  0  0  0
 16 15  1  0  0  0  0
 17 16  1  0  0  0  0
 18  1  1  0  0  0  0
 19 18  1  0  0  0  0
 19 21  1  0  0  0  0
 20 19  2  0  0  0  0
 21 26  2  0  0  0  0
 21 22  1  0  0  0  0
 22 23  2  0  0  0  0
 23 24  1  0  0  0  0
 23 28  1  0  0  0  0
 25 29  1  0  0  0  0
 25 24  2  0  0  0  0
 26 25  1  0  0  0  0
 27 22  1  0  0  0  0
M  END
>  <minimizedAffinity>
-4.98002052

$$$$

 OpenBabel03242518373D

 29 31  0  0  1  0  0  0  0  0999 V2000
   37.8320   28.9850   42.3240 C   0  0  0  0  0  0  0  0  0  0  0  0
   37.2240   28.4350   43.4500 C   0  0  0  0  0  0  0  0  0  0  0  0
   36.8300   27.1380   43.1530 C   0  0  0  0  0  0  0  0  0  0  0  0
   37.2250   26.9740   41.8510 C   0  0  0  0  0  0  0  0  0  0  0  0
   37.8030   28.0520   41.3800 O   0  0  0  0  0  0  0  0  0  0  0  0
   37.1200   29.0000   44.3640 H   0  0  0  0  0  0  0  0  0  0  0  0
   36.3330   26.4660   43.8320 H   0  0  0  0  0  0  0  0  0  0  0  0
   37.0270   25.7380   41.0740 C   0  0  2  0  0  0  0  0  0  0  0  0
   36.8920   24.4460   41.7770 C   0  0  0  0  0  0  0  0  0  0  0  0
   38.1940   24.7490   41.1510 C   0  0  2  0  0  0  0  0  0  0  0  0
   36.5940   25.9060   40.0680 H   0  0  0  0  0  0  0  0  0  0  0  0
   36.2510   23.6600   41.3280 H   0  0  0  0  0  0  0  0  0  0  0  0
   36.7230   24.5260   42.8670 H   0  0  0  0  0  0  0  0  0  0  0  0
   38.3650   24.2320   40.1770 H   0  0  0  0  0  0  0  0  0  0  0  0
   39.4230   25.0860   41.8720 C   0  0  0  0  0  2  0  0  0  0  0  0
   39.7450   24.3980   43.1380 C   0  0  0  0  0  2  0  0  0  0  0  0
   40.8520   24.1460   43.1640 H   0  0  0  0  0  0  0  0  0  0  0  0
   38.3980   30.2530   42.1030 O   0  0  0  0  0  0  0  0  0  0  0  0
   37.8210   31.1160   41.1400 C   0  0  0  0  0  0  0  0  0  0  0  0
   36.5720   31.0790   41.0420 O   0  0  0  0  0  0  0  0  0  0  0  0
   38.7370   31.9210   40.4020 C   0  0  0  0  0  0  0  0  0  0  0  0
   38.8840   33.2000   40.8660 C   0  0  0  0  0  0  0  0  0  0  0  0
   39.7650   34.0500   40.1940 C   0  0  0  0  0  0  0  0  0  0  0  0
   40.4170   33.5560   39.1270 N   0  0  0  0  0  0  0  0  0  0  0  0
   40.2600   32.3080   38.6890 C   0  0  0  0  0  0  0  0  0  0  0  0
   39.4090   31.5030   39.3480 N   0  0  0  0  0  0  0  0  0  0  0  0
   38.3740   33.6250   41.7200 H   0  0  0  0  0  0  0  0  0  0  0  0
   39.9020   35.0740   40.5420 H   0  0  0  0  0  0  0  0  0  0  0  0
   40.8370   32.0170   37.8210 H   0  0  0  0  0  0  0  0  0  0  0  0
  1  2  2  0  0  0  0
  2  6  1  0  0  0  0
  3  2  1  0  0  0  0
  3  7  1  0  0  0  0
  4  3  2  0  0  0  0
  5  4  1  0  0  0  0
  5  1  1  0  0  0  0
  8 11  1  6  0  0  0
  8 10  1  0  0  0  0
  8  9  1  0  0  0  0
  8  4  1  0  0  0  0
  9 13  1  0  0  0  0
 10 14  1  6  0  0  0
 10  9  1  0  0  0  0
 10 15  1  0  0  0  0
 12  9  1  0  0  0  0
 15 16  1  0  0  0  0
 16 17  1  0  0  0  0
 18  1  1  0  0  0  0
 19 18  1  0  0  0  0
 20 19  2  0  0  0  0
 21 22  1  0  0  0  0
 21 19  1  0  0  0  0
 22 27  1  0  0  0  0
 23 28  1  0  0  0  0
 23 22  2  0  0  0  0
 24 23  1  0  0  0  0
 25 24  2  0  0  0  0
 25 26  1  0  0  0  0
 26 21  2  0  0  0  0
 29 25  1  0  0  0  0
M  END
>  <minimizedAffinity>
-4.96696043

$$$$

 OpenBabel03242518373D

 29 31  0  0  1  0  0  0  0  0999 V2000
   37.2700   29.4800   39.4890 C   0  0  0  0  0  0  0  0  0  0  0  0
   35.8800   29.3960   39.5100 C   0  0  0  0  0  0  0  0  0  0  0  0
   35.4850   28.8810   40.7370 C   0  0  0  0  0  0  0  0  0  0  0  0
   36.6690   28.6800   41.3960 C   0  0  0  0  0  0  0  0  0  0  0  0
   37.6980   29.0310   40.6630 O   0  0  0  0  0  0  0  0  0  0  0  0
   35.2870   29.7040   38.6620 H   0  0  0  0  0  0  0  0  0  0  0  0
   34.4660   28.7040   41.0400 H   0  0  0  0  0  0  0  0  0  0  0  0
   36.7750   28.1410   42.7620 C   0  0  2  0  0  0  0  0  0  0  0  0
   38.0750   27.6390   43.2520 C   0  0  0  0  0  0  0  0  0  0  0  0
   37.0740   26.6400   42.8290 C   0  0  2  0  0  0  0  0  0  0  0  0
   35.9930   28.5140   43.4530 H   0  0  0  0  0  0  0  0  0  0  0  0
   38.3130   27.7370   44.3300 H   0  0  0  0  0  0  0  0  0  0  0  0
   38.9440   27.9130   42.6240 H   0  0  0  0  0  0  0  0  0  0  0  0
   36.5350   26.1460   43.6710 H   0  0  0  0  0  0  0  0  0  0  0  0
   37.1480   25.8300   41.6100 C   0  0  0  0  0  2  0  0  0  0  0  0
   36.8650   24.3830   41.6710 C   0  0  0  0  0  2  0  0  0  0  0  0
   36.2400   24.0780   40.7730 H   0  0  0  0  0  0  0  0  0  0  0  0
   38.1570   29.9300   38.4940 O   0  0  0  0  0  0  0  0  0  0  0  0
   38.0710   31.2660   38.0350 C   0  0  0  0  0  0  0  0  0  0  0  0
   37.4960   31.4370   36.9350 O   0  0  0  0  0  0  0  0  0  0  0  0
   38.6500   32.2520   38.8860 C   0  0  0  0  0  0  0  0  0  0  0  0
   37.7600   33.1320   39.4390 C   0  0  0  0  0  0  0  0  0  0  0  0
   38.2530   34.1270   40.2850 C   0  0  0  0  0  0  0  0  0  0  0  0
   39.5790   34.1600   40.5050 N   0  0  0  0  0  0  0  0  0  0  0  0
   40.4310   33.2950   39.9570 C   0  0  0  0  0  0  0  0  0  0  0  0
   39.9390   32.3420   39.1450 N   0  0  0  0  0  0  0  0  0  0  0  0
   36.6900   33.1310   39.2810 H   0  0  0  0  0  0  0  0  0  0  0  0
   37.5660   34.8420   40.7400 H   0  0  0  0  0  0  0  0  0  0  0  0
   41.4780   33.4140   40.2040 H   0  0  0  0  0  0  0  0  0  0  0  0
  1  2  2  0  0  0  0
  1  5  1  0  0  0  0
  2  3  1  0  0  0  0
  3  7  1  0  0  0  0
  3  4  2  0  0  0  0
  4  8  1  0  0  0  0
  5  4  1  0  0  0  0
  6  2  1  0  0  0  0
  8 10  1  0  0  0  0
  8  9  1  0  0  0  0
  8 11  1  1  0  0  0
  9 12  1  0  0  0  0
 10  9  1  0  0  0  0
 10 14  1  1  0  0  0
 13  9  1  0  0  0  0
 15 16  1  0  0  0  0
 15 10  1  0  0  0  0
 17 16  1  0  0  0  0
 18  1  1  0  0  0  0
 19 18  1  0  0  0  0
 19 21  1  0  0  0  0
 20 19  2  0  0  0  0
 21 26  2  0  0  0  0
 21 22  1  0  0  0  0
 22 23  2  0  0  0  0
 23 24  1  0  0  0  0
 23 28  1  0  0  0  0
 25 29  1  0  0  0  0
 25 24  2  0  0  0  0
 26 25  1  0  0  0  0
 27 22  1  0  0  0  0
M  END
>  <minimizedAffinity>
-4.89185667

$$$$

 OpenBabel03242518373D

 29 31  0  0  1  0  0  0  0  0999 V2000
   37.1800   28.8800   42.1720 C   0  0  0  0  0  0  0  0  0  0  0  0
   38.4040   28.5430   42.7440 C   0  0  0  0  0  0  0  0  0  0  0  0
   38.4470   27.1670   42.9210 C   0  0  0  0  0  0  0  0  0  0  0  0
   37.2350   26.7450   42.4430 C   0  0  0  0  0  0  0  0  0  0  0  0
   36.5080   27.7470   42.0120 O   0  0  0  0  0  0  0  0  0  0  0  0
   39.1410   29.2960   42.9780 H   0  0  0  0  0  0  0  0  0  0  0  0
   39.2720   26.6180   43.3430 H   0  0  0  0  0  0  0  0  0  0  0  0
   36.8000   25.3380   42.4120 C   0  0  2  0  0  0  0  0  0  0  0  0
   37.7890   24.2720   42.1520 C   0  0  0  0  0  0  0  0  0  0  0  0
   36.9080   24.6710   41.0370 C   0  0  2  0  0  0  0  0  0  0  0  0
   35.8650   25.1460   42.9750 H   0  0  0  0  0  0  0  0  0  0  0  0
   37.6390   23.2800   42.6250 H   0  0  0  0  0  0  0  0  0  0  0  0
   38.8450   24.5930   42.2210 H   0  0  0  0  0  0  0  0  0  0  0  0
   36.0620   23.9700   40.8470 H   0  0  0  0  0  0  0  0  0  0  0  0
   37.3270   25.4350   39.8590 C   0  0  0  0  0  2  0  0  0  0  0  0
   36.3460   25.7530   38.8030 C   0  0  0  0  0  2  0  0  0  0  0  0
   36.4980   26.8220   38.4500 H   0  0  0  0  0  0  0  0  0  0  0  0
   36.6450   30.1250   41.7950 O   0  0  0  0  0  0  0  0  0  0  0  0
   36.9450   30.6540   40.5170 C   0  0  0  0  0  0  0  0  0  0  0  0
   36.3480   30.1310   39.5470 O   0  0  0  0  0  0  0  0  0  0  0  0
   37.8920   31.7200   40.4940 C   0  0  0  0  0  0  0  0  0  0  0  0
   37.4040   32.9150   40.0410 C   0  0  0  0  0  0  0  0  0  0  0  0
   38.2730   34.0080   39.9910 C   0  0  0  0  0  0  0  0  0  0  0  0
   39.5420   33.8160   40.3910 N   0  0  0  0  0  0  0  0  0  0  0  0
   39.9990   32.6430   40.8280 C   0  0  0  0  0  0  0  0  0  0  0  0
   39.1490   31.6020   40.8710 N   0  0  0  0  0  0  0  0  0  0  0  0
   36.3900   33.1010   39.7140 H   0  0  0  0  0  0  0  0  0  0  0  0
   37.9100   34.9730   39.6350 H   0  0  0  0  0  0  0  0  0  0  0  0
   41.0390   32.6030   41.1250 H   0  0  0  0  0  0  0  0  0  0  0  0
  1  2  2  0  0  0  0
  2  3  1  0  0  0  0
  2  6  1  0  0  0  0
  3  7  1  0  0  0  0
  4  3  2  0  0  0  0
  5  1  1  0  0  0  0
  5  4  1  0  0  0  0
  8  4  1  0  0  0  0
  8 11  1  1  0  0  0
  9 13  1  0  0  0  0
  9  8  1  0  0  0  0
  9 12  1  0  0  0  0
 10 14  1  6  0  0  0
 10  9  1  0  0  0  0
 10  8  1  0  0  0  0
 15 10  1  0  0  0  0
 16 15  1  0  0  0  0
 17 16  1  0  0  0  0
 18  1  1  0  0  0  0
 19 18  1  0  0  0  0
 20 19  2  0  0  0  0
 21 19  1  0  0  0  0
 21 26  1  0  0  0  0
 22 21  2  0  0  0  0
 23 22  1  0  0  0  0
 23 24  2  0  0  0  0
 24 25  1  0  0  0  0
 25 26  2  0  0  0  0
 25 29  1  0  0  0  0
 27 22  1  0  0  0  0
 28 23  1  0  0  0  0
M  END
>  <minimizedAffinity>
-4.85169792

$$$$

 OpenBabel03242518373D

 29 31  0  0  1  0  0  0  0  0999 V2000
   36.2320   28.6630   41.0080 C   0  0  0  0  0  0  0  0  0  0  0  0
   35.0660   28.9170   40.2900 C   0  0  0  0  0  0  0  0  0  0  0  0
   35.4080   29.5050   39.0810 C   0  0  0  0  0  0  0  0  0  0  0  0
   36.7760   29.5740   39.1350 C   0  0  0  0  0  0  0  0  0  0  0  0
   37.2420   29.0840   40.2570 O   0  0  0  0  0  0  0  0  0  0  0  0
   34.0950   28.6640   40.6890 H   0  0  0  0  0  0  0  0  0  0  0  0
   34.7130   29.8120   38.3180 H   0  0  0  0  0  0  0  0  0  0  0  0
   37.6200   30.1280   38.0630 C   0  0  2  0  0  0  0  0  0  0  0  0
   38.9650   30.6470   38.3840 C   0  0  0  0  0  0  0  0  0  0  0  0
   37.8860   31.6330   38.1790 C   0  0  2  0  0  0  0  0  0  0  0  0
   37.3620   29.7550   37.0510 H   0  0  0  0  0  0  0  0  0  0  0  0
   39.7660   30.5620   37.6220 H   0  0  0  0  0  0  0  0  0  0  0  0
   39.3390   30.3750   39.3890 H   0  0  0  0  0  0  0  0  0  0  0  0
   37.9030   32.1300   37.1800 H   0  0  0  0  0  0  0  0  0  0  0  0
   37.2550   32.4310   39.2330 C   0  0  0  0  0  2  0  0  0  0  0  0
   38.0860   33.0430   40.2880 C   0  0  0  0  0  2  0  0  0  0  0  0
   37.7190   34.0970   40.4990 H   0  0  0  0  0  0  0  0  0  0  0  0
   36.4340   28.0860   42.2750 O   0  0  0  0  0  0  0  0  0  0  0  0
   37.7110   28.1610   42.8800 C   0  0  0  0  0  0  0  0  0  0  0  0
   38.0560   29.2880   43.3040 O   0  0  0  0  0  0  0  0  0  0  0  0
   38.4460   26.9410   42.9300 C   0  0  0  0  0  0  0  0  0  0  0  0
   39.6440   27.0160   43.5880 C   0  0  0  0  0  0  0  0  0  0  0  0
   40.4220   25.8600   43.6800 C   0  0  0  0  0  0  0  0  0  0  0  0
   39.9430   24.7380   43.1130 N   0  0  0  0  0  0  0  0  0  0  0  0
   38.7740   24.6850   42.4760 C   0  0  0  0  0  0  0  0  0  0  0  0
   38.0380   25.8070   42.3980 N   0  0  0  0  0  0  0  0  0  0  0  0
   40.0550   27.9020   44.0530 H   0  0  0  0  0  0  0  0  0  0  0  0
   41.3800   25.8910   44.1980 H   0  0  0  0  0  0  0  0  0  0  0  0
   38.4870   23.7280   42.0580 H   0  0  0  0  0  0  0  0  0  0  0  0
  1 18  1  0  0  0  0
  2  6  1  0  0  0  0
  2  1  2  0  0  0  0
  3  4  2  0  0  0  0
  3  2  1  0  0  0  0
  4  5  1  0  0  0  0
  5  1  1  0  0  0  0
  7  3  1  0  0  0  0
  8 11  1  6  0  0  0
  8 10  1  0  0  0  0
  8  9  1  0  0  0  0
  8  4  1  0  0  0  0
  9 13  1  0  0  0  0
 10 14  1  6  0  0  0
 10  9  1  0  0  0  0
 10 15  1  0  0  0  0
 12  9  1  0  0  0  0
 15 16  1  0  0  0  0
 16 17  1  0  0  0  0
 18 19  1  0  0  0  0
 19 21  1  0  0  0  0
 19 20  2  0  0  0  0
 21 22  1  0  0  0  0
 22 23  2  0  0  0  0
 22 27  1  0  0  0  0
 23 28  1  0  0  0  0
 24 23  1  0  0  0  0
 25 24  2  0  0  0  0
 26 25  1  0  0  0  0
 26 21  2  0  0  0  0
 29 25  1  0  0  0  0
M  END
>  <minimizedAffinity>
-4.85075808

$$$$

 OpenBabel03242518373D

 29 31  0  0  1  0  0  0  0  0999 V2000
   37.0300   28.6540   42.1180 C   0  0  0  0  0  0  0  0  0  0  0  0
   38.2140   28.4260   42.8140 C   0  0  0  0  0  0  0  0  0  0  0  0
   38.3580   27.0590   43.0100 C   0  0  0  0  0  0  0  0  0  0  0  0
   37.2410   26.5320   42.4160 C   0  0  0  0  0  0  0  0  0  0  0  0
   36.4780   27.4660   41.9030 O   0  0  0  0  0  0  0  0  0  0  0  0
   38.8560   29.2410   43.1130 H   0  0  0  0  0  0  0  0  0  0  0  0
   39.1790   26.5850   43.5190 H   0  0  0  0  0  0  0  0  0  0  0  0
   36.9350   25.0930   42.3570 C   0  0  2  0  0  0  0  0  0  0  0  0
   38.0070   24.1290   42.0380 C   0  0  0  0  0  0  0  0  0  0  0  0
   37.0590   24.4750   40.9610 C   0  0  2  0  0  0  0  0  0  0  0  0
   36.0400   24.8010   42.9420 H   0  0  0  0  0  0  0  0  0  0  0  0
   37.9640   23.1150   42.4850 H   0  0  0  0  0  0  0  0  0  0  0  0
   39.0320   24.5430   42.0850 H   0  0  0  0  0  0  0  0  0  0  0  0
   36.2740   23.7050   40.7760 H   0  0  0  0  0  0  0  0  0  0  0  0
   37.3690   25.3050   39.7940 C   0  0  0  0  0  2  0  0  0  0  0  0
   36.3000   25.6610   38.8410 C   0  0  0  0  0  2  0  0  0  0  0  0
   36.4100   26.7490   38.5340 H   0  0  0  0  0  0  0  0  0  0  0  0
   36.4310   29.8470   41.6740 O   0  0  0  0  0  0  0  0  0  0  0  0
   35.7710   29.8720   40.4230 C   0  0  0  0  0  0  0  0  0  0  0  0
   34.6610   29.2920   40.3710 O   0  0  0  0  0  0  0  0  0  0  0  0
   36.4540   30.5560   39.3750 C   0  0  0  0  0  0  0  0  0  0  0  0
   36.6310   29.8260   38.2310 C   0  0  0  0  0  0  0  0  0  0  0  0
   37.2920   30.4300   37.1580 C   0  0  0  0  0  0  0  0  0  0  0  0
   37.7150   31.6960   37.3170 N   0  0  0  0  0  0  0  0  0  0  0  0
   37.5330   32.3900   38.4400 C   0  0  0  0  0  0  0  0  0  0  0  0
   36.8950   31.7940   39.4620 N   0  0  0  0  0  0  0  0  0  0  0  0
   36.3030   28.8080   38.0720 H   0  0  0  0  0  0  0  0  0  0  0  0
   37.4470   29.8720   36.2340 H   0  0  0  0  0  0  0  0  0  0  0  0
   37.9150   33.4020   38.4570 H   0  0  0  0  0  0  0  0  0  0  0  0
  1  2  2  0  0  0  0
  2  3  1  0  0  0  0
  2  6  1  0  0  0  0
  3  7  1  0  0  0  0
  4  3  2  0  0  0  0
  5  1  1  0  0  0  0
  5  4  1  0  0  0  0
  8  4  1  0  0  0  0
  8 11  1  1  0  0  0
  9 13  1  0  0  0  0
  9  8  1  0  0  0  0
  9 12  1  0  0  0  0
 10 14  1  6  0  0  0
 10  9  1  0  0  0  0
 10  8  1  0  0  0  0
 15 10  1  0  0  0  0
 16 15  1  0  0  0  0
 17 16  1  0  0  0  0
 18  1  1  0  0  0  0
 19 18  1  0  0  0  0
 20 19  2  0  0  0  0
 21 26  1  0  0  0  0
 21 19  1  0  0  0  0
 22 21  2  0  0  0  0
 23 24  2  0  0  0  0
 23 22  1  0  0  0  0
 24 25  1  0  0  0  0
 25 29  1  0  0  0  0
 25 26  2  0  0  0  0
 27 22  1  0  0  0  0
 28 23  1  0  0  0  0
M  END
>  <minimizedAffinity>
-4.82856703

$$$$

 OpenBabel03242518373D

 29 31  0  0  1  0  0  0  0  0999 V2000
   38.6740   28.9180   42.6990 C   0  0  0  0  0  0  0  0  0  0  0  0
   39.9800   29.2530   42.3460 C   0  0  0  0  0  0  0  0  0  0  0  0
   40.8110   28.1870   42.6600 C   0  0  0  0  0  0  0  0  0  0  0  0
   39.9550   27.2590   43.1910 C   0  0  0  0  0  0  0  0  0  0  0  0
   38.7180   27.6940   43.2090 O   0  0  0  0  0  0  0  0  0  0  0  0
   40.2130   30.2100   41.9040 H   0  0  0  0  0  0  0  0  0  0  0  0
   41.8760   28.1590   42.4990 H   0  0  0  0  0  0  0  0  0  0  0  0
   40.3700   25.9330   43.6790 C   0  0  2  0  0  0  0  0  0  0  0  0
   41.2760   25.1020   42.8600 C   0  0  0  0  0  0  0  0  0  0  0  0
   39.8400   24.7580   42.8490 C   0  0  2  0  0  0  0  0  0  0  0  0
   40.3070   25.8210   44.7800 H   0  0  0  0  0  0  0  0  0  0  0  0
   41.9860   24.4220   43.3730 H   0  0  0  0  0  0  0  0  0  0  0  0
   41.7660   25.6360   42.0240 H   0  0  0  0  0  0  0  0  0  0  0  0
   39.5730   23.8850   43.4900 H   0  0  0  0  0  0  0  0  0  0  0  0
   38.9230   24.9790   41.7280 C   0  0  0  0  0  2  0  0  0  0  0  0
   37.6830   24.1860   41.6250 C   0  0  0  0  0  2  0  0  0  0  0  0
   36.8270   24.8590   41.3030 H   0  0  0  0  0  0  0  0  0  0  0  0
   37.4710   29.6380   42.5890 O   0  0  0  0  0  0  0  0  0  0  0  0
   36.6990   29.5300   41.4080 C   0  0  0  0  0  0  0  0  0  0  0  0
   35.8970   28.5690   41.3580 O   0  0  0  0  0  0  0  0  0  0  0  0
   36.9310   30.5330   40.4220 C   0  0  0  0  0  0  0  0  0  0  0  0
   36.8240   30.1030   39.1270 C   0  0  0  0  0  0  0  0  0  0  0  0
   37.0360   31.0300   38.1040 C   0  0  0  0  0  0  0  0  0  0  0  0
   37.3350   32.2920   38.4560 N   0  0  0  0  0  0  0  0  0  0  0  0
   37.4360   32.6910   39.7230 C   0  0  0  0  0  0  0  0  0  0  0  0
   37.2270   31.7870   40.6960 N   0  0  0  0  0  0  0  0  0  0  0  0
   36.5850   29.0970   38.8130 H   0  0  0  0  0  0  0  0  0  0  0  0
   36.9570   30.7150   37.0630 H   0  0  0  0  0  0  0  0  0  0  0  0
   37.6810   33.7320   39.8910 H   0  0  0  0  0  0  0  0  0  0  0  0
  1  5  1  0  0  0  0
  2  3  1  0  0  0  0
  2  1  2  0  0  0  0
  3  4  2  0  0  0  0
  4  5  1  0  0  0  0
  4  8  1  0  0  0  0
  6  2  1  0  0  0  0
  7  3  1  0  0  0  0
  8 11  1  1  0  0  0
  9 12  1  0  0  0  0
  9  8  1  0  0  0  0
 10  9  1  0  0  0  0
 10 14  1  1  0  0  0
 10  8  1  0  0  0  0
 13  9  1  0  0  0  0
 15 10  1  0  0  0  0
 16 15  1  0  0  0  0
 17 16  1  0  0  0  0
 18  1  1  0  0  0  0
 19 18  1  0  0  0  0
 20 19  2  0  0  0  0
 21 26  1  0  0  0  0
 21 19  1  0  0  0  0
 22 21  2  0  0  0  0
 23 24  2  0  0  0  0
 23 22  1  0  0  0  0
 24 25  1  0  0  0  0
 25 29  1  0  0  0  0
 25 26  2  0  0  0  0
 27 22  1  0  0  0  0
 28 23  1  0  0  0  0
M  END
>  <minimizedAffinity>
-4.8135128

$$$$

 OpenBabel03242518373D

 29 31  0  0  1  0  0  0  0  0999 V2000
   37.4010   29.3090   41.9230 C   0  0  0  0  0  0  0  0  0  0  0  0
   36.1900   29.4180   41.2440 C   0  0  0  0  0  0  0  0  0  0  0  0
   36.1590   30.6380   40.5830 C   0  0  0  0  0  0  0  0  0  0  0  0
   37.3650   31.2050   40.9020 C   0  0  0  0  0  0  0  0  0  0  0  0
   38.0760   30.4260   41.6810 O   0  0  0  0  0  0  0  0  0  0  0  0
   35.4530   28.6300   41.2820 H   0  0  0  0  0  0  0  0  0  0  0  0
   35.3470   30.9980   39.9750 H   0  0  0  0  0  0  0  0  0  0  0  0
   37.8110   32.5260   40.4280 C   0  0  2  0  0  0  0  0  0  0  0  0
   37.1290   33.1610   39.2830 C   0  0  0  0  0  0  0  0  0  0  0  0
   38.4340   32.5190   39.0280 C   0  0  2  0  0  0  0  0  0  0  0  0
   38.3440   33.1210   41.1970 H   0  0  0  0  0  0  0  0  0  0  0  0
   37.0600   34.2670   39.2500 H   0  0  0  0  0  0  0  0  0  0  0  0
   36.1690   32.6920   38.9960 H   0  0  0  0  0  0  0  0  0  0  0  0
   39.2880   33.2330   38.9500 H   0  0  0  0  0  0  0  0  0  0  0  0
   38.6340   31.2660   38.2970 C   0  0  0  0  0  2  0  0  0  0  0  0
   37.7250   30.9070   37.1920 C   0  0  0  0  0  2  0  0  0  0  0  0
   38.3240   30.4710   36.3310 H   0  0  0  0  0  0  0  0  0  0  0  0
   37.9210   28.2830   42.7310 O   0  0  0  0  0  0  0  0  0  0  0  0
   37.1590   27.1090   42.9450 C   0  0  0  0  0  0  0  0  0  0  0  0
   36.1520   27.2300   43.6790 O   0  0  0  0  0  0  0  0  0  0  0  0
   37.6370   25.9330   42.2950 C   0  0  0  0  0  0  0  0  0  0  0  0
   38.9770   25.9300   42.0210 C   0  0  0  0  0  0  0  0  0  0  0  0
   39.5190   24.8110   41.3860 C   0  0  0  0  0  0  0  0  0  0  0  0
   38.6860   23.8010   41.0800 N   0  0  0  0  0  0  0  0  0  0  0  0
   37.3820   23.8230   41.3550 C   0  0  0  0  0  0  0  0  0  0  0  0
   36.8770   24.9080   41.9670 N   0  0  0  0  0  0  0  0  0  0  0  0
   39.6720   26.7250   42.2540 H   0  0  0  0  0  0  0  0  0  0  0  0
   40.5850   24.7810   41.1560 H   0  0  0  0  0  0  0  0  0  0  0  0
   36.8060   22.9540   41.0640 H   0  0  0  0  0  0  0  0  0  0  0  0
  1 18  1  0  0  0  0
  2  6  1  0  0  0  0
  2  1  2  0  0  0  0
  3  4  2  0  0  0  0
  3  2  1  0  0  0  0
  4  5  1  0  0  0  0
  5  1  1  0  0  0  0
  7  3  1  0  0  0  0
  8  4  1  0  0  0  0
  8 11  1  1  0  0  0
  9  8  1  0  0  0  0
 10 14  1  6  0  0  0
 10  9  1  0  0  0  0
 10  8  1  0  0  0  0
 12  9  1  0  0  0  0
 13  9  1  0  0  0  0
 15 10  1  0  0  0  0
 16 15  1  0  0  0  0
 17 16  1  0  0  0  0
 18 19  1  0  0  0  0
 19 20  2  0  0  0  0
 21 19  1  0  0  0  0
 22 27  1  0  0  0  0
 22 21  1  0  0  0  0
 23 22  2  0  0  0  0
 24 25  2  0  0  0  0
 24 23  1  0  0  0  0
 25 26  1  0  0  0  0
 26 21  2  0  0  0  0
 28 23  1  0  0  0  0
 29 25  1  0  0  0  0
M  END
>  <minimizedAffinity>
-4.72284222

$$$$

 OpenBabel03242518373D

 29 31  0  0  1  0  0  0  0  0999 V2000
   39.9630   30.2380   42.5710 C   0  0  0  0  0  0  0  0  0  0  0  0
   40.6360   29.0220   42.4860 C   0  0  0  0  0  0  0  0  0  0  0  0
   39.7580   28.0030   42.8280 C   0  0  0  0  0  0  0  0  0  0  0  0
   38.5910   28.6660   43.1040 C   0  0  0  0  0  0  0  0  0  0  0  0
   38.7220   29.9620   42.9530 O   0  0  0  0  0  0  0  0  0  0  0  0
   41.6740   28.9750   42.1920 H   0  0  0  0  0  0  0  0  0  0  0  0
   39.9990   26.9540   42.8510 H   0  0  0  0  0  0  0  0  0  0  0  0
   37.3410   28.0060   43.5180 C   0  0  2  0  0  0  0  0  0  0  0  0
   36.9870   26.6890   42.9510 C   0  0  0  0  0  0  0  0  0  0  0  0
   36.2970   27.8740   42.4050 C   0  0  2  0  0  0  0  0  0  0  0  0
   36.9640   28.3390   44.5050 H   0  0  0  0  0  0  0  0  0  0  0  0
   36.4140   25.9750   43.5770 H   0  0  0  0  0  0  0  0  0  0  0  0
   37.8090   26.1790   42.4130 H   0  0  0  0  0  0  0  0  0  0  0  0
   35.2590   28.0180   42.7890 H   0  0  0  0  0  0  0  0  0  0  0  0
   36.5280   28.4540   41.0800 C   0  0  0  0  0  2  0  0  0  0  0  0
   35.8440   29.7030   40.6950 C   0  0  0  0  0  2  0  0  0  0  0  0
   36.5680   30.3800   40.1400 H   0  0  0  0  0  0  0  0  0  0  0  0
   40.3930   31.5550   42.3310 O   0  0  0  0  0  0  0  0  0  0  0  0
   40.5980   31.9890   40.9990 C   0  0  0  0  0  0  0  0  0  0  0  0
   41.7890   32.1620   40.6510 O   0  0  0  0  0  0  0  0  0  0  0  0
   39.4190   32.1760   40.2200 C   0  0  0  0  0  0  0  0  0  0  0  0
   39.3280   31.3780   39.1120 C   0  0  0  0  0  0  0  0  0  0  0  0
   38.2000   31.5020   38.2980 C   0  0  0  0  0  0  0  0  0  0  0  0
   37.2680   32.4040   38.6550 N   0  0  0  0  0  0  0  0  0  0  0  0
   37.3750   33.1720   39.7380 C   0  0  0  0  0  0  0  0  0  0  0  0
   38.4670   33.0390   40.5100 N   0  0  0  0  0  0  0  0  0  0  0  0
   40.0590   30.6450   38.7990 H   0  0  0  0  0  0  0  0  0  0  0  0
   38.1010   30.8790   37.4090 H   0  0  0  0  0  0  0  0  0  0  0  0
   36.5640   33.8640   39.9300 H   0  0  0  0  0  0  0  0  0  0  0  0
  1  5  1  0  0  0  0
  2  1  2  0  0  0  0
  2  3  1  0  0  0  0
  3  7  1  0  0  0  0
  3  4  2  0  0  0  0
  4  8  1  0  0  0  0
  5  4  1  0  0  0  0
  6  2  1  0  0  0  0
  8 11  1  1  0  0  0
  9  8  1  0  0  0  0
  9 12  1  0  0  0  0
 10 14  1  1  0  0  0
 10  9  1  0  0  0  0
 10  8  1  0  0  0  0
 13  9  1  0  0  0  0
 15 10  1  0  0  0  0
 16 15  1  0  0  0  0
 17 16  1  0  0  0  0
 18  1  1  0  0  0  0
 19 18  1  0  0  0  0
 20 19  2  0  0  0  0
 21 26  1  0  0  0  0
 21 19  1  0  0  0  0
 22 21  2  0  0  0  0
 23 24  2  0  0  0  0
 23 22  1  0  0  0  0
 24 25  1  0  0  0  0
 25 29  1  0  0  0  0
 25 26  2  0  0  0  0
 27 22  1  0  0  0  0
 28 23  1  0  0  0  0
M  END
>  <minimizedAffinity>
-4.70676327

$$$$
