
 OpenBabel03242515413D

 30 32  0  0  0  0  0  0  0  0999 V2000
   37.8620   27.9660   43.1140 S   0  0  0  0  0  0  0  0  0  0  0  0
   39.2760   25.7510   42.5490 C   0  0  0  0  0  0  0  0  0  0  0  0
   38.0330   26.3350   42.3900 C   0  0  0  0  0  0  0  0  0  0  0  0
   37.0370   25.6820   41.7240 C   0  0  0  0  0  0  0  0  0  0  0  0
   37.2130   24.4260   41.1820 C   0  0  0  0  0  0  0  0  0  0  0  0
   38.4700   23.8280   41.3400 C   0  0  0  0  0  0  0  0  0  0  0  0
   39.5050   24.4710   42.0140 C   0  0  0  0  0  0  0  0  0  0  0  0
   38.4140   22.5650   40.7120 O   0  0  0  0  0  0  0  0  0  0  0  0
   37.2650   22.5850   39.9100 C   0  0  0  0  0  0  0  0  0  0  0  0
   36.4050   23.5480   40.4740 O   0  0  0  0  0  0  0  0  0  0  0  0
   40.0980   26.1980   43.0540 H   0  0  0  0  0  0  0  0  0  0  0  0
   36.0810   26.1880   41.6290 H   0  0  0  0  0  0  0  0  0  0  0  0
   40.4770   24.0050   42.1340 H   0  0  0  0  0  0  0  0  0  0  0  0
   37.4940   22.8110   38.8610 H   0  0  0  0  0  0  0  0  0  0  0  0
   36.7880   21.5850   39.9370 H   0  0  0  0  0  0  0  0  0  0  0  0
   37.1600   29.1170   41.9040 C   0  0  0  0  0  0  0  0  0  0  0  0
   37.8720   30.2930   41.7080 C   0  0  0  0  0  0  0  0  0  0  0  0
   37.3330   31.1820   40.7770 C   0  0  0  0  0  0  0  0  0  0  0  0
   36.1830   30.8680   40.1320 N   0  0  0  0  0  0  0  0  0  0  0  0
   35.5310   29.7260   40.3530 C   0  0  0  0  0  0  0  0  0  0  0  0
   36.0270   28.8570   41.2400 N   0  0  0  0  0  0  0  0  0  0  0  0
   38.7860   30.5040   42.2440 H   0  0  0  0  0  0  0  0  0  0  0  0
   34.3670   29.3560   39.7320 O   0  0  0  0  0  0  0  0  0  0  0  0
   34.4260   28.7710   38.4610 C   0  0  0  0  0  0  0  0  0  0  0  0
   35.0780   27.5600   38.4750 F   0  0  0  0  0  0  0  0  0  0  0  0
   33.1060   28.6800   38.0290 F   0  0  0  0  0  0  0  0  0  0  0  0
   35.1550   29.6350   37.6470 F   0  0  0  0  0  0  0  0  0  0  0  0
   38.0820   32.4420   40.5560 C   0  0  0  0  0  2  0  0  0  0  0  0
   37.3560   33.3520   39.6030 C   0  0  0  0  0  2  0  0  0  0  0  0
   37.5010   32.9820   38.5700 H   0  0  0  0  0  0  0  0  0  0  0  0
  2 11  1  0  0  0  0
  3  2  1  0  0  0  0
  3  1  1  0  0  0  0
  4  3  2  0  0  0  0
  5  6  2  0  0  0  0
  5  4  1  0  0  0  0
  6  7  1  0  0  0  0
  7 13  1  0  0  0  0
  7  2  2  0  0  0  0
  8  6  1  0  0  0  0
  9 15  1  0  0  0  0
  9 10  1  0  0  0  0
  9  8  1  0  0  0  0
 10  5  1  0  0  0  0
 12  4  1  0  0  0  0
 14  9  1  0  0  0  0
 16  1  1  0  0  0  0
 17 16  1  0  0  0  0
 17 22  1  0  0  0  0
 18 17  2  0  0  0  0
 19 20  2  0  0  0  0
 19 18  1  0  0  0  0
 20 21  1  0  0  0  0
 21 16  2  0  0  0  0
 23 20  1  0  0  0  0
 24 25  1  0  0  0  0
 24 23  1  0  0  0  0
 26 24  1  0  0  0  0
 27 24  1  0  0  0  0
 28 18  1  0  0  0  0
 29 28  1  0  0  0  0
 30 29  1  0  0  0  0
M  END
>  <minimizedAffinity>
-5.42214727

$$$$

 OpenBabel03242515413D

 30 32  0  0  0  0  0  0  0  0999 V2000
   38.6120   27.8190   42.4240 S   0  0  0  0  0  0  0  0  0  0  0  0
   37.1740   25.5520   42.3140 C   0  0  0  0  0  0  0  0  0  0  0  0
   38.2570   26.1980   41.7480 C   0  0  0  0  0  0  0  0  0  0  0  0
   38.9760   25.6080   40.7500 C   0  0  0  0  0  0  0  0  0  0  0  0
   38.6670   24.3560   40.2600 C   0  0  0  0  0  0  0  0  0  0  0  0
   37.5700   23.6960   40.8280 C   0  0  0  0  0  0  0  0  0  0  0  0
   36.8190   24.2730   41.8480 C   0  0  0  0  0  0  0  0  0  0  0  0
   37.4480   22.4500   40.1760 O   0  0  0  0  0  0  0  0  0  0  0  0
   38.6570   22.2520   39.4950 C   0  0  0  0  0  0  0  0  0  0  0  0
   39.2040   23.5320   39.2800 O   0  0  0  0  0  0  0  0  0  0  0  0
   36.5680   25.9470   43.0930 H   0  0  0  0  0  0  0  0  0  0  0  0
   39.8170   26.1600   40.3420 H   0  0  0  0  0  0  0  0  0  0  0  0
   35.9700   23.7590   42.2860 H   0  0  0  0  0  0  0  0  0  0  0  0
   39.3460   21.6040   40.0500 H   0  0  0  0  0  0  0  0  0  0  0  0
   38.4480   21.7600   38.5240 H   0  0  0  0  0  0  0  0  0  0  0  0
   37.6280   29.0810   41.5750 C   0  0  0  0  0  0  0  0  0  0  0  0
   36.4260   28.6430   41.0350 C   0  0  0  0  0  0  0  0  0  0  0  0
   35.6650   29.6120   40.3790 C   0  0  0  0  0  0  0  0  0  0  0  0
   36.1190   30.8870   40.3020 N   0  0  0  0  0  0  0  0  0  0  0  0
   37.2820   31.2630   40.8360 C   0  0  0  0  0  0  0  0  0  0  0  0
   38.0290   30.3530   41.4700 N   0  0  0  0  0  0  0  0  0  0  0  0
   36.1010   27.6160   41.1190 H   0  0  0  0  0  0  0  0  0  0  0  0
   37.7900   32.5340   40.7890 O   0  0  0  0  0  0  0  0  0  0  0  0
   37.9950   33.1440   39.5450 C   0  0  0  0  0  0  0  0  0  0  0  0
   36.8510   33.7360   39.0610 F   0  0  0  0  0  0  0  0  0  0  0  0
   39.0400   34.0420   39.7350 F   0  0  0  0  0  0  0  0  0  0  0  0
   38.3620   32.1390   38.6530 F   0  0  0  0  0  0  0  0  0  0  0  0
   34.3780   29.1620   39.7980 C   0  0  0  0  0  2  0  0  0  0  0  0
   34.5360   28.7680   38.3550 C   0  0  0  0  0  2  0  0  0  0  0  0
   34.5960   29.6830   37.7350 H   0  0  0  0  0  0  0  0  0  0  0  0
  2 11  1  0  0  0  0
  3  2  2  0  0  0  0
  3  1  1  0  0  0  0
  4  3  1  0  0  0  0
  5  4  2  0  0  0  0
  5  6  1  0  0  0  0
  6  7  2  0  0  0  0
  7 13  1  0  0  0  0
  7  2  1  0  0  0  0
  8  6  1  0  0  0  0
  9 14  1  0  0  0  0
  9  8  1  0  0  0  0
 10  9  1  0  0  0  0
 10  5  1  0  0  0  0
 12  4  1  0  0  0  0
 15  9  1  0  0  0  0
 16  1  1  0  0  0  0
 17 22  1  0  0  0  0
 17 16  2  0  0  0  0
 18 17  1  0  0  0  0
 19 18  2  0  0  0  0
 19 20  1  0  0  0  0
 20 21  2  0  0  0  0
 21 16  1  0  0  0  0
 23 20  1  0  0  0  0
 24 26  1  0  0  0  0
 24 23  1  0  0  0  0
 25 24  1  0  0  0  0
 27 24  1  0  0  0  0
 28 18  1  0  0  0  0
 29 28  1  0  0  0  0
 30 29  1  0  0  0  0
M  END
>  <minimizedAffinity>
-5.37440777

$$$$

 OpenBabel03242515413D

 30 32  0  0  0  0  0  0  0  0999 V2000
   37.1790   28.1470   43.5200 S   0  0  0  0  0  0  0  0  0  0  0  0
   38.9700   29.9680   42.6880 C   0  0  0  0  0  0  0  0  0  0  0  0
   37.6820   29.5140   42.4770 C   0  0  0  0  0  0  0  0  0  0  0  0
   36.8870   30.0920   41.5310 C   0  0  0  0  0  0  0  0  0  0  0  0
   37.3160   31.1450   40.7490 C   0  0  0  0  0  0  0  0  0  0  0  0
   38.6210   31.6100   40.9580 C   0  0  0  0  0  0  0  0  0  0  0  0
   39.4550   31.0400   41.9160 C   0  0  0  0  0  0  0  0  0  0  0  0
   38.8340   32.6750   40.0570 O   0  0  0  0  0  0  0  0  0  0  0  0
   37.5660   33.0410   39.5870 C   0  0  0  0  0  0  0  0  0  0  0  0
   36.7440   31.9070   39.7410 O   0  0  0  0  0  0  0  0  0  0  0  0
   39.6470   29.5690   43.4050 H   0  0  0  0  0  0  0  0  0  0  0  0
   35.8840   29.6950   41.4070 H   0  0  0  0  0  0  0  0  0  0  0  0
   40.4650   31.4030   42.0750 H   0  0  0  0  0  0  0  0  0  0  0  0
   37.1600   33.9110   40.1180 H   0  0  0  0  0  0  0  0  0  0  0  0
   37.6420   33.3130   38.5150 H   0  0  0  0  0  0  0  0  0  0  0  0
   38.0680   26.6400   43.0500 C   0  0  0  0  0  0  0  0  0  0  0  0
   37.3670   25.7570   42.2390 C   0  0  0  0  0  0  0  0  0  0  0  0
   38.0490   24.5940   41.8760 C   0  0  0  0  0  0  0  0  0  0  0  0
   39.3150   24.3890   42.3150 N   0  0  0  0  0  0  0  0  0  0  0  0
   39.9500   25.2660   43.0940 C   0  0  0  0  0  0  0  0  0  0  0  0
   39.3180   26.3880   43.4560 N   0  0  0  0  0  0  0  0  0  0  0  0
   36.3580   25.9590   41.9110 H   0  0  0  0  0  0  0  0  0  0  0  0
   41.2250   25.1130   43.5670 O   0  0  0  0  0  0  0  0  0  0  0  0
   42.3050   25.5110   42.7670 C   0  0  0  0  0  0  0  0  0  0  0  0
   42.2620   24.9420   41.5160 F   0  0  0  0  0  0  0  0  0  0  0  0
   42.2600   26.9010   42.7410 F   0  0  0  0  0  0  0  0  0  0  0  0
   43.4650   25.0650   43.3970 F   0  0  0  0  0  0  0  0  0  0  0  0
   37.3150   23.6410   41.0100 C   0  0  0  0  0  2  0  0  0  0  0  0
   38.2460   22.6400   40.3830 C   0  0  0  0  0  2  0  0  0  0  0  0
   38.7840   23.1230   39.5450 H   0  0  0  0  0  0  0  0  0  0  0  0
  2 11  1  0  0  0  0
  3  2  1  0  0  0  0
  3  1  1  0  0  0  0
  4  3  2  0  0  0  0
  5  6  2  0  0  0  0
  5  4  1  0  0  0  0
  6  7  1  0  0  0  0
  7 13  1  0  0  0  0
  7  2  2  0  0  0  0
  8  6  1  0  0  0  0
  9 10  1  0  0  0  0
  9  8  1  0  0  0  0
  9 14  1  0  0  0  0
 10  5  1  0  0  0  0
 12  4  1  0  0  0  0
 15  9  1  0  0  0  0
 16 21  1  0  0  0  0
 16  1  1  0  0  0  0
 17 16  2  0  0  0  0
 18 17  1  0  0  0  0
 18 19  2  0  0  0  0
 19 20  1  0  0  0  0
 20 21  2  0  0  0  0
 20 23  1  0  0  0  0
 22 17  1  0  0  0  0
 24 27  1  0  0  0  0
 24 23  1  0  0  0  0
 25 24  1  0  0  0  0
 26 24  1  0  0  0  0
 28 18  1  0  0  0  0
 29 28  1  0  0  0  0
 30 29  1  0  0  0  0
M  END
>  <minimizedAffinity>
-5.34493017

$$$$

 OpenBabel03242515413D

 30 32  0  0  0  0  0  0  0  0999 V2000
   37.7780   28.4230   43.5730 S   0  0  0  0  0  0  0  0  0  0  0  0
   39.3030   26.3150   42.9010 C   0  0  0  0  0  0  0  0  0  0  0  0
   38.0150   26.8120   42.8260 C   0  0  0  0  0  0  0  0  0  0  0  0
   37.0270   26.0940   42.2170 C   0  0  0  0  0  0  0  0  0  0  0  0
   37.2550   24.8560   41.6540 C   0  0  0  0  0  0  0  0  0  0  0  0
   38.5570   24.3460   41.7270 C   0  0  0  0  0  0  0  0  0  0  0  0
   39.5860   25.0560   42.3410 C   0  0  0  0  0  0  0  0  0  0  0  0
   38.5490   23.0850   41.0930 O   0  0  0  0  0  0  0  0  0  0  0  0
   37.3530   23.0290   40.3650 C   0  0  0  0  0  0  0  0  0  0  0  0
   36.4660   23.9260   40.9900 O   0  0  0  0  0  0  0  0  0  0  0  0
   40.1230   26.8150   43.3570 H   0  0  0  0  0  0  0  0  0  0  0  0
   36.0340   26.5320   42.1870 H   0  0  0  0  0  0  0  0  0  0  0  0
   40.5930   24.6580   42.3960 H   0  0  0  0  0  0  0  0  0  0  0  0
   37.4990   23.2740   39.3050 H   0  0  0  0  0  0  0  0  0  0  0  0
   36.9490   21.9980   40.4130 H   0  0  0  0  0  0  0  0  0  0  0  0
   38.3240   29.7250   42.4380 C   0  0  0  0  0  0  0  0  0  0  0  0
   39.6150   30.1960   42.6380 C   0  0  0  0  0  0  0  0  0  0  0  0
   40.0390   31.2000   41.7660 C   0  0  0  0  0  0  0  0  0  0  0  0
   39.2010   31.6520   40.8010 N   0  0  0  0  0  0  0  0  0  0  0  0
   37.9670   31.1710   40.6450 C   0  0  0  0  0  0  0  0  0  0  0  0
   37.5380   30.2080   41.4680 N   0  0  0  0  0  0  0  0  0  0  0  0
   40.2510   29.8070   43.4210 H   0  0  0  0  0  0  0  0  0  0  0  0
   37.0790   31.5880   39.6900 O   0  0  0  0  0  0  0  0  0  0  0  0
   37.1290   31.0170   38.4120 C   0  0  0  0  0  0  0  0  0  0  0  0
   38.2140   30.1860   38.2560 F   0  0  0  0  0  0  0  0  0  0  0  0
   35.9100   30.3680   38.2430 F   0  0  0  0  0  0  0  0  0  0  0  0
   37.2630   32.0640   37.5020 F   0  0  0  0  0  0  0  0  0  0  0  0
   41.4150   31.7130   41.9660 C   0  0  0  0  0  2  0  0  0  0  0  0
   42.0720   31.0720   43.1570 C   0  0  0  0  0  2  0  0  0  0  0  0
   41.6730   31.5320   44.0810 H   0  0  0  0  0  0  0  0  0  0  0  0
  2 11  1  0  0  0  0
  3  2  1  0  0  0  0
  3  1  1  0  0  0  0
  4  3  2  0  0  0  0
  5  6  2  0  0  0  0
  5  4  1  0  0  0  0
  6  7  1  0  0  0  0
  7 13  1  0  0  0  0
  7  2  2  0  0  0  0
  8  6  1  0  0  0  0
  9 15  1  0  0  0  0
  9 10  1  0  0  0  0
  9  8  1  0  0  0  0
 10  5  1  0  0  0  0
 12  4  1  0  0  0  0
 14  9  1  0  0  0  0
 16 17  1  0  0  0  0
 16  1  1  0  0  0  0
 17 22  1  0  0  0  0
 18 28  1  0  0  0  0
 18 17  2  0  0  0  0
 19 18  1  0  0  0  0
 20 19  2  0  0  0  0
 20 21  1  0  0  0  0
 21 16  2  0  0  0  0
 23 20  1  0  0  0  0
 24 23  1  0  0  0  0
 25 24  1  0  0  0  0
 26 24  1  0  0  0  0
 27 24  1  0  0  0  0
 28 29  1  0  0  0  0
 29 30  1  0  0  0  0
M  END
>  <minimizedAffinity>
-5.2432456

$$$$

 OpenBabel03242515413D

 30 32  0  0  0  0  0  0  0  0999 V2000
   33.4470   28.4130   35.6810 S   0  0  0  0  0  0  0  0  0  0  0  0
   35.7230   29.5140   36.5890 C   0  0  0  0  0  0  0  0  0  0  0  0
   34.5440   28.9230   37.0020 C   0  0  0  0  0  0  0  0  0  0  0  0
   34.2740   28.7610   38.3300 C   0  0  0  0  0  0  0  0  0  0  0  0
   35.1500   29.1690   39.3150 C   0  0  0  0  0  0  0  0  0  0  0  0
   36.3470   29.7690   38.9040 C   0  0  0  0  0  0  0  0  0  0  0  0
   36.6490   29.9470   37.5560 C   0  0  0  0  0  0  0  0  0  0  0  0
   37.0720   30.0990   40.0690 O   0  0  0  0  0  0  0  0  0  0  0  0
   36.4650   29.3880   41.1130 C   0  0  0  0  0  0  0  0  0  0  0  0
   35.1410   29.1340   40.7030 O   0  0  0  0  0  0  0  0  0  0  0  0
   36.0020   29.6730   35.5750 H   0  0  0  0  0  0  0  0  0  0  0  0
   33.3330   28.2910   38.5980 H   0  0  0  0  0  0  0  0  0  0  0  0
   37.5770   30.4110   37.2410 H   0  0  0  0  0  0  0  0  0  0  0  0
   37.0000   28.4600   41.3520 H   0  0  0  0  0  0  0  0  0  0  0  0
   36.4660   30.0160   42.0260 H   0  0  0  0  0  0  0  0  0  0  0  0
   32.0050   29.5070   35.6060 C   0  0  0  0  0  0  0  0  0  0  0  0
   31.4800   29.8940   36.8320 C   0  0  0  0  0  0  0  0  0  0  0  0
   30.3680   30.7360   36.7790 C   0  0  0  0  0  0  0  0  0  0  0  0
   29.8710   31.1220   35.5780 N   0  0  0  0  0  0  0  0  0  0  0  0
   30.4080   30.7240   34.4240 C   0  0  0  0  0  0  0  0  0  0  0  0
   31.4740   29.9170   34.4490 N   0  0  0  0  0  0  0  0  0  0  0  0
   31.9070   29.5630   37.7680 H   0  0  0  0  0  0  0  0  0  0  0  0
   29.9500   31.0810   33.1840 O   0  0  0  0  0  0  0  0  0  0  0  0
   29.9080   32.4370   32.8330 C   0  0  0  0  0  0  0  0  0  0  0  0
   31.0290   33.1160   33.2480 F   0  0  0  0  0  0  0  0  0  0  0  0
   29.7280   32.4620   31.4540 F   0  0  0  0  0  0  0  0  0  0  0  0
   28.8090   32.9920   33.4860 F   0  0  0  0  0  0  0  0  0  0  0  0
   29.7960   31.1600   38.0790 C   0  0  0  0  0  2  0  0  0  0  0  0
   29.6360   29.9930   39.0150 C   0  0  0  0  0  2  0  0  0  0  0  0
   28.7460   29.4080   38.7140 H   0  0  0  0  0  0  0  0  0  0  0  0
  1  3  1  0  0  0  0
  2  3  2  0  0  0  0
  2  7  1  0  0  0  0
  3  4  1  0  0  0  0
  4 12  1  0  0  0  0
  4  5  2  0  0  0  0
  5 10  1  0  0  0  0
  6  5  1  0  0  0  0
  6  8  1  0  0  0  0
  7  6  2  0  0  0  0
  8  9  1  0  0  0  0
  9 14  1  0  0  0  0
  9 15  1  0  0  0  0
 10  9  1  0  0  0  0
 11  2  1  0  0  0  0
 13  7  1  0  0  0  0
 16  1  1  0  0  0  0
 16 17  1  0  0  0  0
 17 22  1  0  0  0  0
 18 17  2  0  0  0  0
 18 28  1  0  0  0  0
 19 18  1  0  0  0  0
 20 21  1  0  0  0  0
 20 19  2  0  0  0  0
 21 16  2  0  0  0  0
 23 20  1  0  0  0  0
 24 23  1  0  0  0  0
 24 25  1  0  0  0  0
 24 27  1  0  0  0  0
 26 24  1  0  0  0  0
 28 29  1  0  0  0  0
 30 29  1  0  0  0  0
M  END
>  <minimizedAffinity>
-5.15477467

$$$$

 OpenBabel03242515413D

 30 32  0  0  0  0  0  0  0  0999 V2000
   36.3210   29.2580   38.4990 S   0  0  0  0  0  0  0  0  0  0  0  0
   36.7840   31.6830   39.5610 C   0  0  0  0  0  0  0  0  0  0  0  0
   37.3860   30.6520   38.8640 C   0  0  0  0  0  0  0  0  0  0  0  0
   38.6990   30.7330   38.4990 C   0  0  0  0  0  0  0  0  0  0  0  0
   39.4820   31.8270   38.8000 C   0  0  0  0  0  0  0  0  0  0  0  0
   38.8790   32.8750   39.5080 C   0  0  0  0  0  0  0  0  0  0  0  0
   37.5420   32.8210   39.8920 C   0  0  0  0  0  0  0  0  0  0  0  0
   39.8610   33.8710   39.6990 O   0  0  0  0  0  0  0  0  0  0  0  0
   40.9040   33.5560   38.8180 C   0  0  0  0  0  0  0  0  0  0  0  0
   40.8050   32.1740   38.5650 O   0  0  0  0  0  0  0  0  0  0  0  0
   35.7690   31.6920   39.8780 H   0  0  0  0  0  0  0  0  0  0  0  0
   39.1200   29.8950   37.9520 H   0  0  0  0  0  0  0  0  0  0  0  0
   37.0780   33.6340   40.4400 H   0  0  0  0  0  0  0  0  0  0  0  0
   40.8570   34.1420   37.8910 H   0  0  0  0  0  0  0  0  0  0  0  0
   41.8710   33.7860   39.3070 H   0  0  0  0  0  0  0  0  0  0  0  0
   36.6510   27.9010   39.6520 C   0  0  0  0  0  0  0  0  0  0  0  0
   36.5800   28.2250   41.0000 C   0  0  0  0  0  0  0  0  0  0  0  0
   36.8340   27.1820   41.8920 C   0  0  0  0  0  0  0  0  0  0  0  0
   37.1290   25.9470   41.4170 N   0  0  0  0  0  0  0  0  0  0  0  0
   37.1870   25.6800   40.1120 C   0  0  0  0  0  0  0  0  0  0  0  0
   36.9470   26.6630   39.2380 N   0  0  0  0  0  0  0  0  0  0  0  0
   36.3420   29.2250   41.3360 H   0  0  0  0  0  0  0  0  0  0  0  0
   37.4790   24.4540   39.5760 O   0  0  0  0  0  0  0  0  0  0  0  0
   36.8070   23.3210   40.0530 C   0  0  0  0  0  0  0  0  0  0  0  0
   35.5250   23.6080   40.4600 F   0  0  0  0  0  0  0  0  0  0  0  0
   36.8610   22.3900   39.0200 F   0  0  0  0  0  0  0  0  0  0  0  0
   37.5130   22.8670   41.1650 F   0  0  0  0  0  0  0  0  0  0  0  0
   36.7620   27.5120   43.3350 C   0  0  0  0  0  2  0  0  0  0  0  0
   37.6500   28.6760   43.6780 C   0  0  0  0  0  2  0  0  0  0  0  0
   38.7000   28.3290   43.7200 H   0  0  0  0  0  0  0  0  0  0  0  0
  1  3  1  0  0  0  0
  1 16  1  0  0  0  0
  2 11  1  0  0  0  0
  2  7  1  0  0  0  0
  3  2  2  0  0  0  0
  4  5  2  0  0  0  0
  4  3  1  0  0  0  0
  5  6  1  0  0  0  0
  6  8  1  0  0  0  0
  6  7  2  0  0  0  0
  7 13  1  0  0  0  0
  9 15  1  0  0  0  0
  9  8  1  0  0  0  0
 10  5  1  0  0  0  0
 10  9  1  0  0  0  0
 12  4  1  0  0  0  0
 14  9  1  0  0  0  0
 16 17  1  0  0  0  0
 17 22  1  0  0  0  0
 17 18  2  0  0  0  0
 18 28  1  0  0  0  0
 19 18  1  0  0  0  0
 20 19  2  0  0  0  0
 21 16  2  0  0  0  0
 21 20  1  0  0  0  0
 23 24  1  0  0  0  0
 23 20  1  0  0  0  0
 24 25  1  0  0  0  0
 24 27  1  0  0  0  0
 26 24  1  0  0  0  0
 28 29  1  0  0  0  0
 29 30  1  0  0  0  0
M  END
>  <minimizedAffinity>
-5.12188673

$$$$

 OpenBabel03242515413D

 30 32  0  0  0  0  0  0  0  0999 V2000
   37.3470   28.0110   43.4730 S   0  0  0  0  0  0  0  0  0  0  0  0
   39.0100   29.9580   42.6580 C   0  0  0  0  0  0  0  0  0  0  0  0
   37.7560   29.4180   42.4420 C   0  0  0  0  0  0  0  0  0  0  0  0
   36.9220   29.9500   41.5010 C   0  0  0  0  0  0  0  0  0  0  0  0
   37.2780   31.0360   40.7290 C   0  0  0  0  0  0  0  0  0  0  0  0
   38.5480   31.5880   40.9430 C   0  0  0  0  0  0  0  0  0  0  0  0
   39.4200   31.0670   41.8960 C   0  0  0  0  0  0  0  0  0  0  0  0
   38.6880   32.6730   40.0510 O   0  0  0  0  0  0  0  0  0  0  0  0
   37.3970   32.9560   39.5840 C   0  0  0  0  0  0  0  0  0  0  0  0
   36.6550   31.7670   39.7270 O   0  0  0  0  0  0  0  0  0  0  0  0
   39.7120   29.5990   43.3720 H   0  0  0  0  0  0  0  0  0  0  0  0
   35.9490   29.4860   41.3730 H   0  0  0  0  0  0  0  0  0  0  0  0
   40.4020   31.4970   42.0590 H   0  0  0  0  0  0  0  0  0  0  0  0
   36.9340   33.7910   40.1240 H   0  0  0  0  0  0  0  0  0  0  0  0
   37.4550   33.2420   38.5150 H   0  0  0  0  0  0  0  0  0  0  0  0
   38.1090   26.5070   42.8100 C   0  0  0  0  0  0  0  0  0  0  0  0
   39.4890   26.4270   42.9340 C   0  0  0  0  0  0  0  0  0  0  0  0
   40.0800   25.2700   42.4240 C   0  0  0  0  0  0  0  0  0  0  0  0
   39.3070   24.3140   41.8510 N   0  0  0  0  0  0  0  0  0  0  0  0
   37.9820   24.4340   41.7530 C   0  0  0  0  0  0  0  0  0  0  0  0
   37.3930   25.5330   42.2340 N   0  0  0  0  0  0  0  0  0  0  0  0
   40.0680   27.2130   43.3980 H   0  0  0  0  0  0  0  0  0  0  0  0
   37.1530   23.5040   41.1860 O   0  0  0  0  0  0  0  0  0  0  0  0
   36.7710   23.6520   39.8460 C   0  0  0  0  0  0  0  0  0  0  0  0
   36.9430   22.4940   39.1250 F   0  0  0  0  0  0  0  0  0  0  0  0
   35.4510   24.0890   39.8780 F   0  0  0  0  0  0  0  0  0  0  0  0
   37.6010   24.6240   39.2910 F   0  0  0  0  0  0  0  0  0  0  0  0
   41.5530   25.1690   42.5490 C   0  0  0  0  0  2  0  0  0  0  0  0
   42.0720   26.0400   43.6590 C   0  0  0  0  0  2  0  0  0  0  0  0
   42.0850   27.0920   43.3170 H   0  0  0  0  0  0  0  0  0  0  0  0
  2 11  1  0  0  0  0
  3  2  1  0  0  0  0
  3  1  1  0  0  0  0
  4  3  2  0  0  0  0
  5  6  2  0  0  0  0
  5  4  1  0  0  0  0
  6  7  1  0  0  0  0
  7 13  1  0  0  0  0
  7  2  2  0  0  0  0
  8  6  1  0  0  0  0
  9 10  1  0  0  0  0
  9  8  1  0  0  0  0
  9 14  1  0  0  0  0
 10  5  1  0  0  0  0
 12  4  1  0  0  0  0
 15  9  1  0  0  0  0
 16 17  1  0  0  0  0
 16  1  1  0  0  0  0
 17 22  1  0  0  0  0
 18 28  1  0  0  0  0
 18 17  2  0  0  0  0
 19 18  1  0  0  0  0
 20 19  2  0  0  0  0
 20 21  1  0  0  0  0
 21 16  2  0  0  0  0
 23 20  1  0  0  0  0
 24 26  1  0  0  0  0
 24 23  1  0  0  0  0
 25 24  1  0  0  0  0
 27 24  1  0  0  0  0
 28 29  1  0  0  0  0
 30 29  1  0  0  0  0
M  END
>  <minimizedAffinity>
-5.11035252

$$$$

 OpenBabel03242515413D

 30 32  0  0  0  0  0  0  0  0999 V2000
   36.0270   27.2790   38.4650 S   0  0  0  0  0  0  0  0  0  0  0  0
   35.2120   28.1910   36.0720 C   0  0  0  0  0  0  0  0  0  0  0  0
   34.8350   28.0860   37.3980 C   0  0  0  0  0  0  0  0  0  0  0  0
   33.6330   28.5760   37.8210 C   0  0  0  0  0  0  0  0  0  0  0  0
   32.7450   29.1920   36.9640 C   0  0  0  0  0  0  0  0  0  0  0  0
   33.1200   29.3000   35.6180 C   0  0  0  0  0  0  0  0  0  0  0  0
   34.3400   28.8110   35.1580 C   0  0  0  0  0  0  0  0  0  0  0  0
   32.0690   29.9560   34.9420 O   0  0  0  0  0  0  0  0  0  0  0  0
   31.2650   30.5230   35.9410 C   0  0  0  0  0  0  0  0  0  0  0  0
   31.4910   29.7670   37.1080 O   0  0  0  0  0  0  0  0  0  0  0  0
   36.1290   27.8340   35.6700 H   0  0  0  0  0  0  0  0  0  0  0  0
   33.3890   28.4670   38.8730 H   0  0  0  0  0  0  0  0  0  0  0  0
   34.6270   28.8960   34.1160 H   0  0  0  0  0  0  0  0  0  0  0  0
   31.4840   31.5870   36.0970 H   0  0  0  0  0  0  0  0  0  0  0  0
   30.2020   30.4450   35.6360 H   0  0  0  0  0  0  0  0  0  0  0  0
   36.3970   28.3270   39.8950 C   0  0  0  0  0  0  0  0  0  0  0  0
   36.6740   27.6550   41.0780 C   0  0  0  0  0  0  0  0  0  0  0  0
   36.9590   28.4590   42.1830 C   0  0  0  0  0  0  0  0  0  0  0  0
   36.9520   29.8090   42.0540 N   0  0  0  0  0  0  0  0  0  0  0  0
   36.6800   30.4130   40.8960 C   0  0  0  0  0  0  0  0  0  0  0  0
   36.4040   29.6630   39.8240 N   0  0  0  0  0  0  0  0  0  0  0  0
   36.6690   26.5760   41.1380 H   0  0  0  0  0  0  0  0  0  0  0  0
   36.6580   31.7690   40.7070 O   0  0  0  0  0  0  0  0  0  0  0  0
   37.6530   32.3670   39.9230 C   0  0  0  0  0  0  0  0  0  0  0  0
   38.7920   31.5980   39.8530 F   0  0  0  0  0  0  0  0  0  0  0  0
   37.0670   32.5960   38.6830 F   0  0  0  0  0  0  0  0  0  0  0  0
   37.9910   33.5690   40.5410 F   0  0  0  0  0  0  0  0  0  0  0  0
   37.2570   27.7570   43.4540 C   0  0  0  0  0  2  0  0  0  0  0  0
   38.6960   27.3250   43.5180 C   0  0  0  0  0  2  0  0  0  0  0  0
   38.8320   26.4260   42.8870 H   0  0  0  0  0  0  0  0  0  0  0  0
  1 16  1  0  0  0  0
  2  3  1  0  0  0  0
  3  4  2  0  0  0  0
  3  1  1  0  0  0  0
  4 12  1  0  0  0  0
  5 10  1  0  0  0  0
  5  4  1  0  0  0  0
  6  5  2  0  0  0  0
  7  6  1  0  0  0  0
  7  2  2  0  0  0  0
  8  6  1  0  0  0  0
  8  9  1  0  0  0  0
  9 14  1  0  0  0  0
  9 10  1  0  0  0  0
 11  2  1  0  0  0  0
 13  7  1  0  0  0  0
 15  9  1  0  0  0  0
 16 17  1  0  0  0  0
 17 22  1  0  0  0  0
 17 18  2  0  0  0  0
 18 28  1  0  0  0  0
 19 18  1  0  0  0  0
 20 19  2  0  0  0  0
 21 16  2  0  0  0  0
 21 20  1  0  0  0  0
 23 20  1  0  0  0  0
 24 27  1  0  0  0  0
 24 23  1  0  0  0  0
 25 24  1  0  0  0  0
 26 24  1  0  0  0  0
 28 29  1  0  0  0  0
 30 29  1  0  0  0  0
M  END
>  <minimizedAffinity>
-5.08028507

$$$$

 OpenBabel03242515413D

 30 32  0  0  0  0  0  0  0  0999 V2000
   36.5170   30.6390   41.0090 S   0  0  0  0  0  0  0  0  0  0  0  0
   34.7160   29.2860   39.5440 C   0  0  0  0  0  0  0  0  0  0  0  0
   35.8950   30.0010   39.4540 C   0  0  0  0  0  0  0  0  0  0  0  0
   36.5080   30.1850   38.2490 C   0  0  0  0  0  0  0  0  0  0  0  0
   35.9930   29.6740   37.0750 C   0  0  0  0  0  0  0  0  0  0  0  0
   34.7980   28.9490   37.1590 C   0  0  0  0  0  0  0  0  0  0  0  0
   34.1510   28.7450   38.3750 C   0  0  0  0  0  0  0  0  0  0  0  0
   34.4690   28.5320   35.8510 O   0  0  0  0  0  0  0  0  0  0  0  0
   35.6300   28.7130   35.0870 C   0  0  0  0  0  0  0  0  0  0  0  0
   36.3870   29.7020   35.7440 O   0  0  0  0  0  0  0  0  0  0  0  0
   34.1830   29.1020   40.4460 H   0  0  0  0  0  0  0  0  0  0  0  0
   37.4320   30.7540   38.2360 H   0  0  0  0  0  0  0  0  0  0  0  0
   33.2260   28.1830   38.4360 H   0  0  0  0  0  0  0  0  0  0  0  0
   36.1980   27.7820   34.9650 H   0  0  0  0  0  0  0  0  0  0  0  0
   35.3450   29.0620   34.0740 H   0  0  0  0  0  0  0  0  0  0  0  0
   37.6210   29.4290   41.7850 C   0  0  0  0  0  0  0  0  0  0  0  0
   38.9280   29.8510   41.9880 C   0  0  0  0  0  0  0  0  0  0  0  0
   39.7810   28.9220   42.5840 C   0  0  0  0  0  0  0  0  0  0  0  0
   39.3110   27.6970   42.9250 N   0  0  0  0  0  0  0  0  0  0  0  0
   38.0460   27.3340   42.7110 C   0  0  0  0  0  0  0  0  0  0  0  0
   37.2090   28.2070   42.1400 N   0  0  0  0  0  0  0  0  0  0  0  0
   39.2620   30.8380   41.7000 H   0  0  0  0  0  0  0  0  0  0  0  0
   37.5170   26.1130   43.0330 O   0  0  0  0  0  0  0  0  0  0  0  0
   37.6730   25.0420   42.1440 C   0  0  0  0  0  0  0  0  0  0  0  0
   38.0380   25.4600   40.8860 F   0  0  0  0  0  0  0  0  0  0  0  0
   38.6070   24.1970   42.7350 F   0  0  0  0  0  0  0  0  0  0  0  0
   36.4340   24.4140   42.0390 F   0  0  0  0  0  0  0  0  0  0  0  0
   41.1810   29.3560   42.8080 C   0  0  0  0  0  2  0  0  0  0  0  0
   41.3130   30.8520   42.7160 C   0  0  0  0  0  2  0  0  0  0  0  0
   41.2980   31.1500   41.6500 H   0  0  0  0  0  0  0  0  0  0  0  0
  1 16  1  0  0  0  0
  2 11  1  0  0  0  0
  3  2  1  0  0  0  0
  3  1  1  0  0  0  0
  4  3  2  0  0  0  0
  5  6  2  0  0  0  0
  5  4  1  0  0  0  0
  6  7  1  0  0  0  0
  7 13  1  0  0  0  0
  7  2  2  0  0  0  0
  8  6  1  0  0  0  0
  9 10  1  0  0  0  0
  9  8  1  0  0  0  0
 10  5  1  0  0  0  0
 12  4  1  0  0  0  0
 14  9  1  0  0  0  0
 15  9  1  0  0  0  0
 16 17  2  0  0  0  0
 16 21  1  0  0  0  0
 17 18  1  0  0  0  0
 18 28  1  0  0  0  0
 18 19  2  0  0  0  0
 20 19  1  0  0  0  0
 20 23  1  0  0  0  0
 21 20  2  0  0  0  0
 22 17  1  0  0  0  0
 24 26  1  0  0  0  0
 24 23  1  0  0  0  0
 25 24  1  0  0  0  0
 27 24  1  0  0  0  0
 29 28  1  0  0  0  0
 30 29  1  0  0  0  0
M  END
>  <minimizedAffinity>
-5.07443142

$$$$
