
 OpenBabel03252509333D

 34 35  0  0  1  0  0  0  0  0999 V2000
   44.5400   35.4040   44.9480 O   0  0  0  0  0  0  0  0  0  0  0  0
   45.4150   34.3200   44.3990 P   0  0  2  0  0  0  0  0  0  0  0  0
   44.5310   33.0410   43.7730 O   0  0  0  0  0  0  0  0  0  0  0  0
   44.5880   32.9830   42.7880 H   0  0  0  0  0  0  0  0  0  0  0  0
   46.3540   33.6640   45.6550 O   0  0  0  0  0  0  0  0  0  0  0  0
   46.2880   32.3020   45.5770 C   0  0  0  0  0  0  0  0  0  0  0  0
   45.6840   31.8510   44.8040 H   0  0  0  0  0  0  0  0  0  0  0  0
   47.3480   31.9620   45.3790 H   0  0  0  0  0  0  0  0  0  0  0  0
   45.6300   31.8570   49.2110 C   0  0  0  0  0  0  0  0  0  0  0  0
   45.9880   32.4610   47.9980 C   0  0  0  0  0  0  0  0  0  0  0  0
   45.9180   31.6870   46.8540 C   0  0  0  0  0  0  0  0  0  0  0  0
   45.5100   30.3860   46.9670 N   0  0  0  0  0  0  0  0  0  0  0  0
   45.1730   29.8370   48.1550 C   0  0  0  0  0  0  0  0  0  0  0  0
   45.2380   30.5820   49.2600 N   0  0  0  0  0  0  0  0  0  0  0  0
   45.6620   32.4080   50.1450 H   0  0  0  0  0  0  0  0  0  0  0  0
   46.2980   33.5060   48.0320 H   0  0  0  0  0  0  0  0  0  0  0  0
   44.8830   28.8030   48.0050 H   0  0  0  0  0  0  0  0  0  0  0  0
   46.4720   34.9680   43.2610 O   0  0  0  0  0  0  0  0  0  0  0  0
   46.8020   33.9970   42.3300 C   0  0  1  0  0  0  0  0  0  0  0  0
   46.9060   34.5100   40.9190 C   0  0  0  0  0  0  0  0  0  0  0  0
   47.6060   33.3580   40.2270 C   0  0  0  0  0  0  0  0  0  0  0  0
   48.4330   32.6730   41.2940 C   0  0  0  0  0  0  0  0  0  0  0  0
   48.2230   33.4850   42.5570 C   0  0  1  0  0  0  0  0  0  0  0  0
   46.1490   33.1040   42.3850 H   0  0  0  0  0  0  0  0  0  0  0  0
   47.4750   35.4390   40.8850 H   0  0  0  0  0  0  0  0  0  0  0  0
   45.8790   34.6200   40.4670 H   0  0  0  0  0  0  0  0  0  0  0  0
   48.2550   33.7220   39.4150 H   0  0  0  0  0  0  0  0  0  0  0  0
   46.8910   32.6490   39.7460 H   0  0  0  0  0  0  0  0  0  0  0  0
   48.0930   31.6250   41.4170 H   0  0  0  0  0  0  0  0  0  0  0  0
   49.5140   32.6470   40.9880 H   0  0  0  0  0  0  0  0  0  0  0  0
   48.2590   32.8350   43.4370 H   0  0  0  0  0  0  0  0  0  0  0  0
   49.2350   34.5820   42.7050 C   0  0  0  0  0  2  0  0  0  0  0  0
   50.6120   33.9650   42.4710 C   0  0  0  0  0  2  0  0  0  0  0  0
   51.2930   34.1290   43.3380 H   0  0  0  0  0  0  0  0  0  0  0  0
  2  1  2  1  0  0  0
  2  5  1  0  0  0  0
  3  2  1  0  0  0  0
  4  3  1  0  0  0  0
  6  5  1  0  0  0  0
  6 11  1  0  0  0  0
  7  6  1  0  0  0  0
  8  6  1  0  0  0  0
  9 14  1  0  0  0  0
  9 15  1  0  0  0  0
 10 16  1  0  0  0  0
 10  9  2  0  0  0  0
 11 12  2  0  0  0  0
 11 10  1  0  0  0  0
 12 13  1  0  0  0  0
 13 14  2  0  0  0  0
 17 13  1  0  0  0  0
 18  2  1  0  0  0  0
 19 24  1  1  0  0  0
 19 23  1  0  0  0  0
 19 18  1  0  0  0  0
 20 19  1  0  0  0  0
 21 20  1  0  0  0  0
 21 22  1  0  0  0  0
 22 29  1  0  0  0  0
 22 23  1  0  0  0  0
 23 32  1  0  0  0  0
 23 31  1  1  0  0  0
 25 20  1  0  0  0  0
 26 20  1  0  0  0  0
 27 21  1  0  0  0  0
 28 21  1  0  0  0  0
 30 22  1  0  0  0  0
 33 32  1  0  0  0  0
 33 34  1  0  0  0  0
M  END
>  <minimizedAffinity>
-4.99988413

>  <minimizedRMSD>
0.751181006

$$$$
