
 OpenBabel03242520413D

 33 35  0  0  1  0  0  0  0  0999 V2000
   45.9060   33.5200   45.8180 C   0  0  0  0  0  0  0  0  0  0  0  0
   46.6660   33.6350   44.6300 C   0  0  0  0  0  0  0  0  0  0  0  0
   47.2840   32.4570   44.1150 C   0  0  0  0  0  0  0  0  0  0  0  0
   47.1140   31.2770   44.7890 N   0  0  0  0  0  0  0  0  0  0  0  0
   46.3780   31.2310   45.9180 C   0  0  0  0  0  0  0  0  0  0  0  0
   45.7870   32.3440   46.4150 N   0  0  0  0  0  0  0  0  0  0  0  0
   46.2670   29.9760   46.5360 N   0  0  0  0  0  0  0  0  0  0  0  0
   47.4250   29.2790   46.9900 C   0  0  2  0  0  0  0  0  0  0  0  0
   47.1870   27.8630   47.3800 C   0  0  0  0  0  0  0  0  0  0  0  0
   45.9090   27.5430   47.8990 N   0  0  0  0  0  0  0  0  0  0  0  0
   45.0260   28.6500   48.0330 C   0  0  0  0  0  0  0  0  0  0  0  0
   44.9570   29.3780   46.7160 C   0  0  0  0  0  0  0  0  0  0  0  0
   45.4410   34.4070   46.2060 H   0  0  0  0  0  0  0  0  0  0  0  0
   46.7840   34.5810   44.1160 H   0  0  0  0  0  0  0  0  0  0  0  0
   47.8650   32.5270   43.2120 H   0  0  0  0  0  0  0  0  0  0  0  0
   48.1020   29.2070   46.0840 H   0  0  0  0  0  0  0  0  0  0  0  0
   47.9770   27.6030   48.1410 H   0  0  0  0  0  0  0  0  0  0  0  0
   47.3850   27.1560   46.5490 H   0  0  0  0  0  0  0  0  0  0  0  0
   45.9210   26.9280   48.7200 H   0  0  0  0  0  0  0  0  0  0  0  0
   43.9980   28.2050   48.1570 H   0  0  0  0  0  0  0  0  0  0  0  0
   45.1610   29.2750   48.9120 H   0  0  0  0  0  0  0  0  0  0  0  0
   44.2220   30.1940   46.8250 H   0  0  0  0  0  0  0  0  0  0  0  0
   44.7010   28.6420   45.9460 H   0  0  0  0  0  0  0  0  0  0  0  0
   48.1670   30.0470   48.0200 C   0  0  0  0  0  0  0  0  0  0  0  0
   47.7520   30.8010   49.1040 C   0  0  0  0  0  0  0  0  0  0  0  0
   48.7960   31.3160   49.7690 N   0  0  0  0  0  0  0  0  0  0  0  0
   49.8760   30.8930   49.1100 C   0  0  0  0  0  0  0  0  0  0  0  0
   49.5120   30.1360   48.0660 N   0  0  0  0  0  0  0  0  0  0  0  0
   46.7220   30.9410   49.3580 H   0  0  0  0  0  0  0  0  0  0  0  0
   48.7460   31.9080   50.6030 H   0  0  0  0  0  0  0  0  0  0  0  0
   51.3050   31.1710   49.4180 C   0  0  0  0  0  0  0  0  0  0  0  0
   51.4940   32.5530   49.9910 C   0  0  0  0  0  0  0  0  0  0  0  0
   52.4780   32.9730   49.6420 H   0  0  0  0  0  0  0  0  0  0  0  0
  1 13  1  0  0  0  0
  1  6  1  0  0  0  0
  2  1  2  0  0  0  0
  3  2  1  0  0  0  0
  3  4  2  0  0  0  0
  4  5  1  0  0  0  0
  5  6  2  0  0  0  0
  5  7  1  0  0  0  0
  7 12  1  0  0  0  0
  7  8  1  0  0  0  0
  8 16  1  6  0  0  0
  8  9  1  0  0  0  0
  8 24  1  0  0  0  0
  9 10  1  0  0  0  0
  9 17  1  0  0  0  0
 10 11  1  0  0  0  0
 10 19  1  0  0  0  0
 11 20  1  0  0  0  0
 11 21  1  0  0  0  0
 12 22  1  0  0  0  0
 12 11  1  0  0  0  0
 14  2  1  0  0  0  0
 15  3  1  0  0  0  0
 18  9  1  0  0  0  0
 23 12  1  0  0  0  0
 24 28  1  0  0  0  0
 24 25  2  0  0  0  0
 25 29  1  0  0  0  0
 25 26  1  0  0  0  0
 26 30  1  0  0  0  0
 27 31  1  0  0  0  0
 27 26  1  0  0  0  0
 28 27  2  0  0  0  0
 31 32  1  0  0  0  0
 33 32  1  0  0  0  0
M  END
>  <minimizedAffinity>
-4.55607986

>  <minimizedRMSD>
0.102151468

$$$$
