
 OpenBabel03252506493D

 23 24  0  0  0  0  0  0  0  0999 V2000
   43.4950   33.7720   39.9860 S   0  0  0  0  0  0  0  0  0  0  0  0
   41.3800   31.3740   39.8710 Cl  0  0  0  0  0  0  0  0  0  0  0  0
   40.7790   33.0230   39.8750 C   0  0  0  0  0  0  0  0  0  0  0  0
   41.7550   33.9810   39.9260 C   0  0  0  0  0  0  0  0  0  0  0  0
   41.3170   35.3190   39.9310 C   0  0  0  0  0  0  0  0  0  0  0  0
   39.9600   35.6070   39.8860 C   0  0  0  0  0  0  0  0  0  0  0  0
   38.9880   34.6300   39.8350 C   0  0  0  0  0  0  0  0  0  0  0  0
   39.4350   33.3030   39.8300 C   0  0  0  0  0  0  0  0  0  0  0  0
   38.2950   31.9700   39.7680 Cl  0  0  0  0  0  0  0  0  0  0  0  0
   41.9980   36.1560   39.9690 H   0  0  0  0  0  0  0  0  0  0  0  0
   39.6180   36.6450   39.8890 H   0  0  0  0  0  0  0  0  0  0  0  0
   37.9380   34.8440   39.8000 H   0  0  0  0  0  0  0  0  0  0  0  0
   44.1590   33.8290   41.6430 C   0  0  0  0  0  0  0  0  0  0  0  0
   44.6440   32.6190   42.1460 C   0  0  0  0  0  0  0  0  0  0  0  0
   45.1800   32.5910   43.4420 C   0  0  0  0  0  0  0  0  0  0  0  0
   45.1970   33.7460   44.1370 N   0  0  0  0  0  0  0  0  0  0  0  0
   44.7250   34.9070   43.6390 C   0  0  0  0  0  0  0  0  0  0  0  0
   44.1970   34.9680   42.3810 N   0  0  0  0  0  0  0  0  0  0  0  0
   44.6110   31.7100   41.5510 H   0  0  0  0  0  0  0  0  0  0  0  0
   45.5510   31.6500   43.8170 H   0  0  0  0  0  0  0  0  0  0  0  0
   44.7590   36.1570   44.4290 C   0  0  0  0  0  2  0  0  0  0  0  0
   45.1090   37.3800   43.6480 C   0  0  0  0  0  2  0  0  0  0  0  0
   45.8470   38.0260   44.2080 H   0  0  0  0  0  0  0  0  0  0  0  0
  1 13  1  0  0  0  0
  2  3  1  0  0  0  0
  3  4  1  0  0  0  0
  4  5  2  0  0  0  0
  4  1  1  0  0  0  0
  5 10  1  0  0  0  0
  6 11  1  0  0  0  0
  6  5  1  0  0  0  0
  7  6  2  0  0  0  0
  8  7  1  0  0  0  0
  8  3  2  0  0  0  0
  9  8  1  0  0  0  0
 12  7  1  0  0  0  0
 13 14  2  0  0  0  0
 13 18  1  0  0  0  0
 14 15  1  0  0  0  0
 15 20  1  0  0  0  0
 15 16  2  0  0  0  0
 17 16  1  0  0  0  0
 17 21  1  0  0  0  0
 18 17  2  0  0  0  0
 19 14  1  0  0  0  0
 22 23  1  0  0  0  0
 22 21  1  0  0  0  0
M  END
>  <minimizedAffinity>
-4.33186579

>  <minimizedRMSD>
1.43078935

$$$$
