
 OpenBabel03252509333D

 34 35  0  0  1  0  0  0  0  0999 V2000
   44.6210   35.0770   45.4650 O   0  0  0  0  0  0  0  0  0  0  0  0
   45.4980   34.1050   44.7380 P   0  0  2  0  0  0  0  0  0  0  0  0
   44.6420   32.7930   44.1440 O   0  0  0  0  0  0  0  0  0  0  0  0
   44.5730   32.7960   43.1580 H   0  0  0  0  0  0  0  0  0  0  0  0
   46.6420   33.4630   45.8180 O   0  0  0  0  0  0  0  0  0  0  0  0
   46.5830   32.1000   45.7490 C   0  0  0  0  0  0  0  0  0  0  0  0
   46.0780   31.6400   44.9120 H   0  0  0  0  0  0  0  0  0  0  0  0
   47.6590   31.7560   45.6880 H   0  0  0  0  0  0  0  0  0  0  0  0
   45.5380   31.6810   49.2940 C   0  0  0  0  0  0  0  0  0  0  0  0
   46.0450   32.2690   48.1280 C   0  0  0  0  0  0  0  0  0  0  0  0
   46.0560   31.5010   46.9770 C   0  0  0  0  0  0  0  0  0  0  0  0
   45.5760   30.2210   47.0400 N   0  0  0  0  0  0  0  0  0  0  0  0
   45.0950   29.6870   48.1840 C   0  0  0  0  0  0  0  0  0  0  0  0
   45.0820   30.4250   49.2940 N   0  0  0  0  0  0  0  0  0  0  0  0
   45.5010   32.2280   50.2300 H   0  0  0  0  0  0  0  0  0  0  0  0
   46.4000   33.2980   48.2000 H   0  0  0  0  0  0  0  0  0  0  0  0
   44.7720   28.6680   47.9980 H   0  0  0  0  0  0  0  0  0  0  0  0
   46.3420   34.9060   43.5220 O   0  0  0  0  0  0  0  0  0  0  0  0
   46.4870   34.0670   42.4300 C   0  0  1  0  0  0  0  0  0  0  0  0
   45.6760   34.4770   41.2290 C   0  0  0  0  0  0  0  0  0  0  0  0
   46.2970   33.6280   40.1390 C   0  0  0  0  0  0  0  0  0  0  0  0
   47.7290   33.3860   40.5640 C   0  0  0  0  0  0  0  0  0  0  0  0
   47.9030   34.1480   41.8640 C   0  0  1  0  0  0  0  0  0  0  0  0
   46.3230   32.9990   42.6780 H   0  0  0  0  0  0  0  0  0  0  0  0
   45.7710   35.5470   41.0450 H   0  0  0  0  0  0  0  0  0  0  0  0
   44.6030   34.1570   41.3560 H   0  0  0  0  0  0  0  0  0  0  0  0
   46.2700   34.1510   39.1690 H   0  0  0  0  0  0  0  0  0  0  0  0
   45.7500   32.6690   39.9790 H   0  0  0  0  0  0  0  0  0  0  0  0
   47.9030   32.2990   40.6980 H   0  0  0  0  0  0  0  0  0  0  0  0
   48.4360   33.7490   39.7690 H   0  0  0  0  0  0  0  0  0  0  0  0
   48.6070   33.6260   42.5190 H   0  0  0  0  0  0  0  0  0  0  0  0
   48.3750   35.5550   41.6420 C   0  0  0  0  0  2  0  0  0  0  0  0
   48.9970   35.6100   40.2480 C   0  0  0  0  0  2  0  0  0  0  0  0
   50.0520   35.9690   40.2790 H   0  0  0  0  0  0  0  0  0  0  0  0
  2  1  2  1  0  0  0
  2  5  1  0  0  0  0
  3  2  1  0  0  0  0
  4  3  1  0  0  0  0
  6  5  1  0  0  0  0
  6 11  1  0  0  0  0
  7  6  1  0  0  0  0
  8  6  1  0  0  0  0
  9 15  1  0  0  0  0
 10 16  1  0  0  0  0
 10  9  2  0  0  0  0
 11 12  2  0  0  0  0
 11 10  1  0  0  0  0
 12 13  1  0  0  0  0
 13 14  2  0  0  0  0
 14  9  1  0  0  0  0
 17 13  1  0  0  0  0
 18  2  1  0  0  0  0
 19 24  1  1  0  0  0
 19 18  1  0  0  0  0
 20 26  1  0  0  0  0
 20 19  1  0  0  0  0
 21 22  1  0  0  0  0
 21 20  1  0  0  0  0
 22 29  1  0  0  0  0
 22 23  1  0  0  0  0
 23 19  1  0  0  0  0
 23 31  1  1  0  0  0
 25 20  1  0  0  0  0
 27 21  1  0  0  0  0
 28 21  1  0  0  0  0
 30 22  1  0  0  0  0
 32 23  1  0  0  0  0
 33 34  1  0  0  0  0
 33 32  1  0  0  0  0
M  END
>  <minimizedAffinity>
-4.8180542

>  <minimizedRMSD>
0.870328724

$$$$
