
 OpenBabel03252509333D

 34 35  0  0  1  0  0  0  0  0999 V2000
   44.6420   35.0560   45.4760 O   0  0  0  0  0  0  0  0  0  0  0  0
   45.5060   34.0880   44.7280 P   0  0  2  0  0  0  0  0  0  0  0  0
   44.6370   32.7860   44.1310 O   0  0  0  0  0  0  0  0  0  0  0  0
   44.5560   32.7990   43.1460 H   0  0  0  0  0  0  0  0  0  0  0  0
   46.6600   33.4310   45.7880 O   0  0  0  0  0  0  0  0  0  0  0  0
   46.5750   32.0690   45.7270 C   0  0  0  0  0  0  0  0  0  0  0  0
   46.0500   31.6140   44.9000 H   0  0  0  0  0  0  0  0  0  0  0  0
   47.6430   31.7050   45.6530 H   0  0  0  0  0  0  0  0  0  0  0  0
   45.5530   31.6940   49.2840 C   0  0  0  0  0  0  0  0  0  0  0  0
   46.0550   32.2670   48.1080 C   0  0  0  0  0  0  0  0  0  0  0  0
   46.0540   31.4870   46.9660 C   0  0  0  0  0  0  0  0  0  0  0  0
   45.5690   30.2090   47.0460 N   0  0  0  0  0  0  0  0  0  0  0  0
   45.0940   29.6900   48.1990 C   0  0  0  0  0  0  0  0  0  0  0  0
   45.0920   30.4410   49.3020 N   0  0  0  0  0  0  0  0  0  0  0  0
   45.5250   32.2520   50.2140 H   0  0  0  0  0  0  0  0  0  0  0  0
   46.4150   33.2950   48.1660 H   0  0  0  0  0  0  0  0  0  0  0  0
   44.7650   28.6700   48.0270 H   0  0  0  0  0  0  0  0  0  0  0  0
   46.3380   34.8980   43.5100 O   0  0  0  0  0  0  0  0  0  0  0  0
   46.4860   34.0620   42.4160 C   0  0  1  0  0  0  0  0  0  0  0  0
   45.6780   34.4730   41.2150 C   0  0  0  0  0  0  0  0  0  0  0  0
   46.3020   33.6270   40.1240 C   0  0  0  0  0  0  0  0  0  0  0  0
   47.7330   33.3870   40.5520 C   0  0  0  0  0  0  0  0  0  0  0  0
   47.9030   34.1460   41.8530 C   0  0  1  0  0  0  0  0  0  0  0  0
   46.3240   32.9930   42.6620 H   0  0  0  0  0  0  0  0  0  0  0  0
   45.7710   35.5430   41.0330 H   0  0  0  0  0  0  0  0  0  0  0  0
   44.6040   34.1510   41.3390 H   0  0  0  0  0  0  0  0  0  0  0  0
   46.2750   34.1520   39.1550 H   0  0  0  0  0  0  0  0  0  0  0  0
   45.7570   32.6680   39.9610 H   0  0  0  0  0  0  0  0  0  0  0  0
   47.9090   32.3000   40.6830 H   0  0  0  0  0  0  0  0  0  0  0  0
   48.4420   33.7520   39.7590 H   0  0  0  0  0  0  0  0  0  0  0  0
   48.6070   33.6240   42.5090 H   0  0  0  0  0  0  0  0  0  0  0  0
   48.3740   35.5530   41.6360 C   0  0  0  0  0  2  0  0  0  0  0  0
   48.9990   35.6120   40.2440 C   0  0  0  0  0  2  0  0  0  0  0  0
   50.0540   35.9740   40.2770 H   0  0  0  0  0  0  0  0  0  0  0  0
  2  1  2  1  0  0  0
  2  5  1  0  0  0  0
  3  2  1  0  0  0  0
  4  3  1  0  0  0  0
  6  5  1  0  0  0  0
  6 11  1  0  0  0  0
  7  6  1  0  0  0  0
  8  6  1  0  0  0  0
  9 14  1  0  0  0  0
  9 15  1  0  0  0  0
 10 16  1  0  0  0  0
 10  9  2  0  0  0  0
 11 12  2  0  0  0  0
 11 10  1  0  0  0  0
 12 13  1  0  0  0  0
 13 14  2  0  0  0  0
 17 13  1  0  0  0  0
 18  2  1  0  0  0  0
 19 24  1  1  0  0  0
 19 18  1  0  0  0  0
 20 26  1  0  0  0  0
 20 19  1  0  0  0  0
 21 22  1  0  0  0  0
 21 20  1  0  0  0  0
 22 29  1  0  0  0  0
 22 23  1  0  0  0  0
 23 19  1  0  0  0  0
 23 31  1  1  0  0  0
 25 20  1  0  0  0  0
 27 21  1  0  0  0  0
 28 21  1  0  0  0  0
 30 22  1  0  0  0  0
 32 23  1  0  0  0  0
 33 34  1  0  0  0  0
 33 32  1  0  0  0  0
M  END
>  <minimizedAffinity>
-4.80795383

>  <minimizedRMSD>
0.883344531

$$$$
