
 OpenBabel03252507133D

 36 37  0  0  1  0  0  0  0  0999 V2000
   50.2220   34.8580   42.6310 O   0  0  0  0  0  0  0  0  0  0  0  0
   49.0530   34.4840   41.8030 P   0  0  1  0  0  0  0  0  0  0  0  0
   48.8820   35.6860   40.6070 O   0  0  0  0  0  0  0  0  0  0  0  0
   48.7540   36.5310   41.1140 H   0  0  0  0  0  0  0  0  0  0  0  0
   49.3570   33.0030   40.9780 O   0  0  0  0  0  0  0  0  0  0  0  0
   49.5980   31.3230   42.6160 C   0  0  0  0  0  0  0  0  0  0  0  0
   50.1240   32.0040   41.5440 C   0  0  0  0  0  0  0  0  0  0  0  0
   51.4160   31.6510   41.0760 C   0  0  0  0  0  0  0  0  0  0  0  0
   52.0540   30.6510   41.7260 N   0  0  0  0  0  0  0  0  0  0  0  0
   51.5190   30.0180   42.7540 C   0  0  0  0  0  0  0  0  0  0  0  0
   50.2800   30.3650   43.1920 N   0  0  0  0  0  0  0  0  0  0  0  0
   47.1670   30.8250   42.8260 C   0  0  0  0  0  0  0  0  0  0  0  0
   47.0480   30.4600   41.5960 O   0  0  0  0  0  0  0  0  0  0  0  0
   48.4290   31.2870   43.4200 N   0  0  0  0  0  0  0  0  0  0  0  0
   51.7630   32.2220   40.2400 H   0  0  0  0  0  0  0  0  0  0  0  0
   52.0300   29.2170   43.2740 H   0  0  0  0  0  0  0  0  0  0  0  0
   46.2330   30.7570   43.3810 H   0  0  0  0  0  0  0  0  0  0  0  0
   48.3160   31.5490   44.4010 H   0  0  0  0  0  0  0  0  0  0  0  0
   47.6410   34.3990   42.6500 O   0  0  0  0  0  0  0  0  0  0  0  0
   46.5180   34.8780   42.1070 C   0  0  2  0  0  0  0  0  0  0  0  0
   45.6400   35.7040   42.9600 C   0  0  0  0  0  0  0  0  0  0  0  0
   44.2580   35.7560   42.3910 C   0  0  0  0  0  0  0  0  0  0  0  0
   43.6090   34.5320   42.4400 O   0  0  0  0  0  0  0  0  0  0  0  0
   44.5060   33.4810   42.4250 C   0  0  0  0  0  0  0  0  0  0  0  0
   45.6510   33.7720   41.5000 C   0  0  1  0  0  0  0  0  0  0  0  0
   46.7900   35.4760   41.1850 H   0  0  0  0  0  0  0  0  0  0  0  0
   46.0070   36.7600   43.0920 H   0  0  0  0  0  0  0  0  0  0  0  0
   45.5360   35.3260   44.0000 H   0  0  0  0  0  0  0  0  0  0  0  0
   44.1430   36.3200   41.4590 H   0  0  0  0  0  0  0  0  0  0  0  0
   43.6780   36.3820   43.1410 H   0  0  0  0  0  0  0  0  0  0  0  0
   44.9170   33.3340   43.4350 H   0  0  0  0  0  0  0  0  0  0  0  0
   43.9670   32.5680   42.1100 H   0  0  0  0  0  0  0  0  0  0  0  0
   46.2930   32.8550   41.5810 H   0  0  0  0  0  0  0  0  0  0  0  0
   45.3310   33.9170   40.0680 C   0  0  0  0  0  2  0  0  0  0  0  0
   46.3520   33.0850   39.2730 C   0  0  0  0  0  2  0  0  0  0  0  0
   46.2980   33.3310   38.1950 H   0  0  0  0  0  0  0  0  0  0  0  0
  2  1  2  1  0  0  0
  2 19  1  0  0  0  0
  3  4  1  0  0  0  0
  3  2  1  0  0  0  0
  5  7  1  0  0  0  0
  5  2  1  0  0  0  0
  6 11  1  0  0  0  0
  6 14  1  0  0  0  0
  7  6  2  0  0  0  0
  8  7  1  0  0  0  0
  8  9  2  0  0  0  0
  9 10  1  0  0  0  0
 10 11  2  0  0  0  0
 10 16  1  0  0  0  0
 12 17  1  0  0  0  0
 12 14  1  0  0  0  0
 13 12  2  0  0  0  0
 14 18  1  0  0  0  0
 15  8  1  0  0  0  0
 20 26  1  6  0  0  0
 20 19  1  0  0  0  0
 20 21  1  0  0  0  0
 21 27  1  0  0  0  0
 21 28  1  0  0  0  0
 22 23  1  0  0  0  0
 22 21  1  0  0  0  0
 22 30  1  0  0  0  0
 24 23  1  0  0  0  0
 24 31  1  0  0  0  0
 25 33  1  1  0  0  0
 25 20  1  0  0  0  0
 25 24  1  0  0  0  0
 29 22  1  0  0  0  0
 32 24  1  0  0  0  0
 34 25  1  0  0  0  0
 35 34  1  0  0  0  0
 36 35  1  0  0  0  0
M  END
>  <minimizedAffinity>
-4.15092134

>  <minimizedRMSD>
0.401735395

$$$$
