
 OpenBabel03252505413D

 30 32  0  0  1  0  0  0  0  0999 V2000
   43.9550   34.6590   42.3920 C   0  0  1  0  0  0  0  0  0  0  0  0
   44.1680   36.1200   41.8960 C   0  0  0  0  0  0  0  0  0  0  0  0
   43.9960   34.9400   40.9700 C   0  0  2  0  0  0  0  0  0  0  0  0
   42.9760   34.5650   42.9470 H   0  0  0  0  0  0  0  0  0  0  0  0
   43.3310   36.8180   42.0030 H   0  0  0  0  0  0  0  0  0  0  0  0
   45.2120   36.5080   41.9440 H   0  0  0  0  0  0  0  0  0  0  0  0
   44.8360   34.6630   40.3210 H   0  0  0  0  0  0  0  0  0  0  0  0
   45.1140   34.1180   43.1400 C   0  0  0  0  0  0  0  0  0  0  0  0
   46.3650   34.0420   42.4820 C   0  0  0  0  0  0  0  0  0  0  0  0
   47.4540   33.5430   43.1870 C   0  0  0  0  0  0  0  0  0  0  0  0
   47.2600   33.1540   44.4720 N   0  0  0  0  0  0  0  0  0  0  0  0
   46.0570   33.2400   45.0670 C   0  0  0  0  0  0  0  0  0  0  0  0
   45.0040   33.7230   44.3820 N   0  0  0  0  0  0  0  0  0  0  0  0
   46.5330   34.3410   41.4790 H   0  0  0  0  0  0  0  0  0  0  0  0
   48.4460   33.4480   42.7650 H   0  0  0  0  0  0  0  0  0  0  0  0
   46.0510   32.7640   46.4880 C   0  0  0  0  0  0  0  0  0  0  0  0
   45.0820   33.3930   47.2370 F   0  0  0  0  0  0  0  0  0  0  0  0
   47.2910   33.0760   47.0810 F   0  0  0  0  0  0  0  0  0  0  0  0
   45.9550   31.3890   46.5110 F   0  0  0  0  0  0  0  0  0  0  0  0
   42.6720   34.7880   40.2740 C   0  0  0  0  0  0  0  0  0  0  0  0
   42.5000   35.2120   38.9680 C   0  0  0  0  0  0  0  0  0  0  0  0
   41.3030   35.0830   38.2950 C   0  0  0  0  0  0  0  0  0  0  0  0
   40.2680   34.5160   38.9570 N   0  0  0  0  0  0  0  0  0  0  0  0
   40.4290   34.0980   40.2370 C   0  0  0  0  0  0  0  0  0  0  0  0
   41.6020   34.2270   40.8910 N   0  0  0  0  0  0  0  0  0  0  0  0
   43.3080   35.6690   38.4140 H   0  0  0  0  0  0  0  0  0  0  0  0
   41.1520   35.4100   37.2710 H   0  0  0  0  0  0  0  0  0  0  0  0
   39.3220   33.4690   41.0050 C   0  0  0  0  0  0  0  0  0  0  0  0
   38.4030   32.7070   40.0930 C   0  0  0  0  0  0  0  0  0  0  0  0
   37.8080   33.4820   39.5450 H   0  0  0  0  0  0  0  0  0  0  0  0
  1  4  1  1  0  0  0
  1  8  1  0  0  0  0
  2  6  1  0  0  0  0
  2  5  1  0  0  0  0
  2  1  1  0  0  0  0
  3  7  1  6  0  0  0
  3  2  1  0  0  0  0
  3  1  1  0  0  0  0
  8 13  1  0  0  0  0
  9  8  2  0  0  0  0
  9 10  1  0  0  0  0
 10 11  2  0  0  0  0
 11 12  1  0  0  0  0
 12 16  1  0  0  0  0
 13 12  2  0  0  0  0
 14  9  1  0  0  0  0
 15 10  1  0  0  0  0
 16 19  1  0  0  0  0
 16 18  1  0  0  0  0
 16 17  1  0  0  0  0
 20 25  1  0  0  0  0
 20  3  1  0  0  0  0
 21 20  2  0  0  0  0
 22 23  2  0  0  0  0
 22 21  1  0  0  0  0
 23 24  1  0  0  0  0
 24 25  2  0  0  0  0
 24 28  1  0  0  0  0
 26 21  1  0  0  0  0
 27 22  1  0  0  0  0
 29 28  1  0  0  0  0
 30 29  1  0  0  0  0
M  END
>  <minimizedAffinity>
-5.22649717

>  <minimizedRMSD>
1.40752137

$$$$
