
 OpenBabel03252509333D

 34 35  0  0  1  0  0  0  0  0999 V2000
   34.5410   29.3090   39.5750 O   0  0  0  0  0  0  0  0  0  0  0  0
   35.7110   29.5030   40.4910 P   0  0  2  0  0  0  0  0  0  0  0  0
   35.5460   30.8620   41.4570 O   0  0  0  0  0  0  0  0  0  0  0  0
   35.3970   30.6400   42.4080 H   0  0  0  0  0  0  0  0  0  0  0  0
   37.1130   29.7570   39.5660 O   0  0  0  0  0  0  0  0  0  0  0  0
   36.9520   30.9070   38.8460 C   0  0  0  0  0  0  0  0  0  0  0  0
   36.9540   30.8530   37.7680 H   0  0  0  0  0  0  0  0  0  0  0  0
   35.9320   31.3000   39.1340 H   0  0  0  0  0  0  0  0  0  0  0  0
   38.3050   34.1610   40.0370 C   0  0  0  0  0  0  0  0  0  0  0  0
   37.3880   33.1720   39.6560 C   0  0  0  0  0  0  0  0  0  0  0  0
   37.8960   31.9520   39.2470 C   0  0  0  0  0  0  0  0  0  0  0  0
   39.2540   31.7790   39.2350 N   0  0  0  0  0  0  0  0  0  0  0  0
   40.1080   32.7570   39.6090 C   0  0  0  0  0  0  0  0  0  0  0  0
   39.6210   33.9340   40.0050 N   0  0  0  0  0  0  0  0  0  0  0  0
   37.9730   35.1390   40.3690 H   0  0  0  0  0  0  0  0  0  0  0  0
   36.3290   33.4260   39.7070 H   0  0  0  0  0  0  0  0  0  0  0  0
   41.1280   32.3980   39.5190 H   0  0  0  0  0  0  0  0  0  0  0  0
   35.9510   28.1100   41.4040 O   0  0  0  0  0  0  0  0  0  0  0  0
   37.2620   28.0670   41.8480 C   0  0  1  0  0  0  0  0  0  0  0  0
   37.4060   28.1380   43.3440 C   0  0  0  0  0  0  0  0  0  0  0  0
   38.8500   27.7170   43.5310 C   0  0  0  0  0  0  0  0  0  0  0  0
   39.1740   26.8160   42.3590 C   0  0  0  0  0  0  0  0  0  0  0  0
   37.8900   26.7050   41.5610 C   0  0  1  0  0  0  0  0  0  0  0  0
   37.9140   28.8110   41.3470 H   0  0  0  0  0  0  0  0  0  0  0  0
   36.6990   27.4690   43.8340 H   0  0  0  0  0  0  0  0  0  0  0  0
   37.3030   29.2040   43.6960 H   0  0  0  0  0  0  0  0  0  0  0  0
   38.9820   27.1720   44.4800 H   0  0  0  0  0  0  0  0  0  0  0  0
   39.5460   28.5860   43.5840 H   0  0  0  0  0  0  0  0  0  0  0  0
   39.9950   27.2600   41.7590 H   0  0  0  0  0  0  0  0  0  0  0  0
   39.5260   25.8130   42.7260 H   0  0  0  0  0  0  0  0  0  0  0  0
   38.1130   26.6050   40.4940 H   0  0  0  0  0  0  0  0  0  0  0  0
   37.0390   25.5520   42.0040 C   0  0  0  0  0  2  0  0  0  0  0  0
   37.9480   24.3290   42.0970 C   0  0  0  0  0  2  0  0  0  0  0  0
   37.5800   23.4900   41.4610 H   0  0  0  0  0  0  0  0  0  0  0  0
  2  1  2  6  0  0  0
  2 18  1  0  0  0  0
  2  3  1  0  0  0  0
  3  4  1  0  0  0  0
  5  2  1  0  0  0  0
  6  8  1  0  0  0  0
  6 11  1  0  0  0  0
  6  5  1  0  0  0  0
  7  6  1  0  0  0  0
  9 15  1  0  0  0  0
 10 16  1  0  0  0  0
 10  9  2  0  0  0  0
 11 10  1  0  0  0  0
 12 11  2  0  0  0  0
 12 13  1  0  0  0  0
 13 14  2  0  0  0  0
 14  9  1  0  0  0  0
 17 13  1  0  0  0  0
 18 19  1  0  0  0  0
 19 24  1  6  0  0  0
 19 20  1  0  0  0  0
 20 21  1  0  0  0  0
 20 26  1  0  0  0  0
 20 25  1  0  0  0  0
 21 28  1  0  0  0  0
 21 27  1  0  0  0  0
 22 30  1  0  0  0  0
 22 21  1  0  0  0  0
 23 31  1  6  0  0  0
 23 19  1  0  0  0  0
 23 32  1  0  0  0  0
 23 22  1  0  0  0  0
 29 22  1  0  0  0  0
 32 33  1  0  0  0  0
 34 33  1  0  0  0  0
M  END
>  <minimizedAffinity>
-5.28081846

$$$$

 OpenBabel03252509333D

 34 35  0  0  1  0  0  0  0  0999 V2000
   36.4180   30.6930   38.9520 O   0  0  0  0  0  0  0  0  0  0  0  0
   36.8890   31.0320   40.3320 P   0  0  2  0  0  0  0  0  0  0  0  0
   35.6250   31.1570   41.4260 O   0  0  0  0  0  0  0  0  0  0  0  0
   35.6140   30.4190   42.0830 H   0  0  0  0  0  0  0  0  0  0  0  0
   37.6380   32.5570   40.3130 O   0  0  0  0  0  0  0  0  0  0  0  0
   38.8880   32.4300   40.8510 C   0  0  0  0  0  0  0  0  0  0  0  0
   39.0930   32.8870   41.8080 H   0  0  0  0  0  0  0  0  0  0  0  0
   39.0380   31.3190   41.0000 H   0  0  0  0  0  0  0  0  0  0  0  0
   41.8630   34.1610   39.4420 C   0  0  0  0  0  0  0  0  0  0  0  0
   40.8630   33.7810   40.3450 C   0  0  0  0  0  0  0  0  0  0  0  0
   39.9410   32.8410   39.9200 C   0  0  0  0  0  0  0  0  0  0  0  0
   40.0530   32.3400   38.6510 N   0  0  0  0  0  0  0  0  0  0  0  0
   41.0330   32.7330   37.8070 C   0  0  0  0  0  0  0  0  0  0  0  0
   41.9240   33.6380   38.2150 N   0  0  0  0  0  0  0  0  0  0  0  0
   42.6170   34.8930   39.7120 H   0  0  0  0  0  0  0  0  0  0  0  0
   40.8730   34.2490   41.3300 H   0  0  0  0  0  0  0  0  0  0  0  0
   40.9270   32.2070   36.8630 H   0  0  0  0  0  0  0  0  0  0  0  0
   38.0390   29.9080   40.8290 O   0  0  0  0  0  0  0  0  0  0  0  0
   37.5060   29.1130   41.8300 C   0  0  1  0  0  0  0  0  0  0  0  0
   37.1030   27.7370   41.3720 C   0  0  0  0  0  0  0  0  0  0  0  0
   36.9150   27.0200   42.6940 C   0  0  0  0  0  0  0  0  0  0  0  0
   37.8360   27.7100   43.6760 C   0  0  0  0  0  0  0  0  0  0  0  0
   38.5650   28.7710   42.8760 C   0  0  1  0  0  0  0  0  0  0  0  0
   36.6840   29.6070   42.3860 H   0  0  0  0  0  0  0  0  0  0  0  0
   37.8810   27.2920   40.7510 H   0  0  0  0  0  0  0  0  0  0  0  0
   36.1060   27.7770   40.8480 H   0  0  0  0  0  0  0  0  0  0  0  0
   37.1800   25.9540   42.6040 H   0  0  0  0  0  0  0  0  0  0  0  0
   35.8560   27.0380   43.0430 H   0  0  0  0  0  0  0  0  0  0  0  0
   37.2420   28.1520   44.5020 H   0  0  0  0  0  0  0  0  0  0  0  0
   38.5470   26.9650   44.1300 H   0  0  0  0  0  0  0  0  0  0  0  0
   38.7770   29.6420   43.5040 H   0  0  0  0  0  0  0  0  0  0  0  0
   39.8450   28.2600   42.2820 C   0  0  0  0  0  2  0  0  0  0  0  0
   40.5570   27.4540   43.3660 C   0  0  0  0  0  2  0  0  0  0  0  0
   41.5840   27.8420   43.5630 H   0  0  0  0  0  0  0  0  0  0  0  0
  2  1  2  6  0  0  0
  2 18  1  0  0  0  0
  2  3  1  0  0  0  0
  3  4  1  0  0  0  0
  5  2  1  0  0  0  0
  5  6  1  0  0  0  0
  6  8  1  0  0  0  0
  6  7  1  0  0  0  0
  9 15  1  0  0  0  0
  9 10  1  0  0  0  0
 10 16  1  0  0  0  0
 11 10  2  0  0  0  0
 11  6  1  0  0  0  0
 12 11  1  0  0  0  0
 13 14  1  0  0  0  0
 13 12  2  0  0  0  0
 14  9  2  0  0  0  0
 17 13  1  0  0  0  0
 18 19  1  0  0  0  0
 19 24  1  1  0  0  0
 19 23  1  0  0  0  0
 20 19  1  0  0  0  0
 20 21  1  0  0  0  0
 21 28  1  0  0  0  0
 21 22  1  0  0  0  0
 22 30  1  0  0  0  0
 22 29  1  0  0  0  0
 23 31  1  1  0  0  0
 23 22  1  0  0  0  0
 25 20  1  0  0  0  0
 26 20  1  0  0  0  0
 27 21  1  0  0  0  0
 32 23  1  0  0  0  0
 32 33  1  0  0  0  0
 33 34  1  0  0  0  0
M  END
>  <minimizedAffinity>
-5.06774473

$$$$

 OpenBabel03252509333D

 34 35  0  0  1  0  0  0  0  0999 V2000
   35.7940   28.7760   39.6470 O   0  0  0  0  0  0  0  0  0  0  0  0
   36.3740   29.4120   40.8720 P   0  0  2  0  0  0  0  0  0  0  0  0
   35.5330   30.7860   41.3360 O   0  0  0  0  0  0  0  0  0  0  0  0
   35.0260   30.6600   42.1750 H   0  0  0  0  0  0  0  0  0  0  0  0
   37.9590   29.9260   40.5440 O   0  0  0  0  0  0  0  0  0  0  0  0
   38.1080   31.1980   41.0200 C   0  0  0  0  0  0  0  0  0  0  0  0
   37.6630   32.0160   40.4750 H   0  0  0  0  0  0  0  0  0  0  0  0
   37.6110   31.1970   42.0360 H   0  0  0  0  0  0  0  0  0  0  0  0
   41.5160   31.1920   42.5110 C   0  0  0  0  0  0  0  0  0  0  0  0
   40.1760   30.8550   42.2800 C   0  0  0  0  0  0  0  0  0  0  0  0
   39.5100   31.5370   41.2770 C   0  0  0  0  0  0  0  0  0  0  0  0
   40.1880   32.4950   40.5740 N   0  0  0  0  0  0  0  0  0  0  0  0
   41.4820   32.7930   40.8270 C   0  0  0  0  0  0  0  0  0  0  0  0
   42.1270   32.1360   41.7930 N   0  0  0  0  0  0  0  0  0  0  0  0
   42.0960   30.6950   43.2820 H   0  0  0  0  0  0  0  0  0  0  0  0
   39.7410   30.0740   42.9040 H   0  0  0  0  0  0  0  0  0  0  0  0
   41.8100   33.5770   40.1520 H   0  0  0  0  0  0  0  0  0  0  0  0
   36.4540   28.2790   42.1130 O   0  0  0  0  0  0  0  0  0  0  0  0
   37.7590   27.8350   42.2520 C   0  0  1  0  0  0  0  0  0  0  0  0
   38.1930   27.6400   43.6790 C   0  0  0  0  0  0  0  0  0  0  0  0
   39.4670   26.8400   43.5030 C   0  0  0  0  0  0  0  0  0  0  0  0
   39.3020   26.0730   42.2090 C   0  0  0  0  0  0  0  0  0  0  0  0
   37.9130   26.4170   41.7060 C   0  0  1  0  0  0  0  0  0  0  0  0
   38.4890   28.4540   41.6920 H   0  0  0  0  0  0  0  0  0  0  0  0
   37.4290   27.1090   44.2470 H   0  0  0  0  0  0  0  0  0  0  0  0
   38.4610   28.6310   44.1450 H   0  0  0  0  0  0  0  0  0  0  0  0
   39.6150   26.1430   44.3440 H   0  0  0  0  0  0  0  0  0  0  0  0
   40.3780   27.4840   43.4840 H   0  0  0  0  0  0  0  0  0  0  0  0
   40.0880   26.3780   41.4880 H   0  0  0  0  0  0  0  0  0  0  0  0
   39.4180   24.9700   42.3940 H   0  0  0  0  0  0  0  0  0  0  0  0
   37.8960   26.4250   40.6120 H   0  0  0  0  0  0  0  0  0  0  0  0
   36.8700   25.4670   42.2150 C   0  0  0  0  0  2  0  0  0  0  0  0
   36.8950   24.2390   41.3080 C   0  0  0  0  0  2  0  0  0  0  0  0
   35.8960   24.0400   40.8520 H   0  0  0  0  0  0  0  0  0  0  0  0
  2  1  2  6  0  0  0
  2  3  1  0  0  0  0
  2 18  1  0  0  0  0
  3  4  1  0  0  0  0
  5  2  1  0  0  0  0
  5  6  1  0  0  0  0
  6 11  1  0  0  0  0
  6  8  1  0  0  0  0
  7  6  1  0  0  0  0
  9 15  1  0  0  0  0
 10  9  1  0  0  0  0
 10 16  1  0  0  0  0
 11 10  2  0  0  0  0
 12 13  2  0  0  0  0
 12 11  1  0  0  0  0
 13 14  1  0  0  0  0
 14  9  2  0  0  0  0
 17 13  1  0  0  0  0
 18 19  1  0  0  0  0
 19 24  1  6  0  0  0
 19 20  1  0  0  0  0
 20 26  1  0  0  0  0
 20 25  1  0  0  0  0
 21 20  1  0  0  0  0
 21 27  1  0  0  0  0
 22 30  1  0  0  0  0
 22 21  1  0  0  0  0
 23 31  1  6  0  0  0
 23 22  1  0  0  0  0
 23 32  1  0  0  0  0
 23 19  1  0  0  0  0
 28 21  1  0  0  0  0
 29 22  1  0  0  0  0
 33 32  1  0  0  0  0
 34 33  1  0  0  0  0
M  END
>  <minimizedAffinity>
-4.8243227

$$$$

 OpenBabel03252509333D

 34 35  0  0  1  0  0  0  0  0999 V2000
   35.5550   29.6860   39.1490 O   0  0  0  0  0  0  0  0  0  0  0  0
   36.4540   30.3730   40.1310 P   0  0  2  0  0  0  0  0  0  0  0  0
   35.6100   31.0110   41.4310 O   0  0  0  0  0  0  0  0  0  0  0  0
   35.7840   30.5280   42.2750 H   0  0  0  0  0  0  0  0  0  0  0  0
   37.2090   31.6930   39.3730 O   0  0  0  0  0  0  0  0  0  0  0  0
   37.6010   32.5770   40.3380 C   0  0  0  0  0  0  0  0  0  0  0  0
   37.1430   33.5540   40.3690 H   0  0  0  0  0  0  0  0  0  0  0  0
   37.3410   32.0820   41.3210 H   0  0  0  0  0  0  0  0  0  0  0  0
   41.1780   32.1870   41.2810 C   0  0  0  0  0  0  0  0  0  0  0  0
   39.7900   32.0010   41.2640 C   0  0  0  0  0  0  0  0  0  0  0  0
   39.0540   32.7590   40.3710 C   0  0  0  0  0  0  0  0  0  0  0  0
   39.7160   33.6430   39.5620 N   0  0  0  0  0  0  0  0  0  0  0  0
   41.0570   33.7950   39.6080 C   0  0  0  0  0  0  0  0  0  0  0  0
   41.7690   33.0650   40.4670 N   0  0  0  0  0  0  0  0  0  0  0  0
   41.8130   31.6240   41.9570 H   0  0  0  0  0  0  0  0  0  0  0  0
   39.3740   31.2680   41.9560 H   0  0  0  0  0  0  0  0  0  0  0  0
   41.3600   34.5440   38.8820 H   0  0  0  0  0  0  0  0  0  0  0  0
   37.6630   29.3130   40.6280 O   0  0  0  0  0  0  0  0  0  0  0  0
   37.0910   28.1270   41.0580 C   0  0  1  0  0  0  0  0  0  0  0  0
   37.4930   26.9240   40.2480 C   0  0  0  0  0  0  0  0  0  0  0  0
   37.0290   25.7890   41.1380 C   0  0  0  0  0  0  0  0  0  0  0  0
   37.0770   26.3240   42.5530 C   0  0  0  0  0  0  0  0  0  0  0  0
   37.6180   27.7360   42.4370 C   0  0  1  0  0  0  0  0  0  0  0  0
   35.9900   28.1900   41.1630 H   0  0  0  0  0  0  0  0  0  0  0  0
   38.5680   26.9170   40.0710 H   0  0  0  0  0  0  0  0  0  0  0  0
   36.9010   26.8840   39.2890 H   0  0  0  0  0  0  0  0  0  0  0  0
   37.6910   24.9140   41.0380 H   0  0  0  0  0  0  0  0  0  0  0  0
   36.0080   25.4270   40.8730 H   0  0  0  0  0  0  0  0  0  0  0  0
   36.0610   26.3080   42.9960 H   0  0  0  0  0  0  0  0  0  0  0  0
   37.7380   25.6750   43.1910 H   0  0  0  0  0  0  0  0  0  0  0  0
   37.1790   28.3760   43.2090 H   0  0  0  0  0  0  0  0  0  0  0  0
   39.1140   27.7850   42.5390 C   0  0  0  0  0  2  0  0  0  0  0  0
   39.5210   26.8550   43.6780 C   0  0  0  0  0  2  0  0  0  0  0  0
   40.1180   27.3870   44.4550 H   0  0  0  0  0  0  0  0  0  0  0  0
  2  1  2  6  0  0  0
  2 18  1  0  0  0  0
  2  3  1  0  0  0  0
  3  4  1  0  0  0  0
  5  2  1  0  0  0  0
  5  6  1  0  0  0  0
  6  7  1  0  0  0  0
  6 11  1  0  0  0  0
  6  8  1  0  0  0  0
  9 15  1  0  0  0  0
 10  9  1  0  0  0  0
 10 16  1  0  0  0  0
 11 10  2  0  0  0  0
 12 13  2  0  0  0  0
 12 11  1  0  0  0  0
 13 14  1  0  0  0  0
 14  9  2  0  0  0  0
 17 13  1  0  0  0  0
 18 19  1  0  0  0  0
 19 24  1  1  0  0  0
 19 23  1  0  0  0  0
 20 19  1  0  0  0  0
 20 21  1  0  0  0  0
 21 22  1  0  0  0  0
 22 29  1  0  0  0  0
 22 30  1  0  0  0  0
 23 32  1  0  0  0  0
 23 22  1  0  0  0  0
 23 31  1  1  0  0  0
 25 20  1  0  0  0  0
 26 20  1  0  0  0  0
 27 21  1  0  0  0  0
 28 21  1  0  0  0  0
 32 33  1  0  0  0  0
 33 34  1  0  0  0  0
M  END
>  <minimizedAffinity>
-4.74930716

$$$$

 OpenBabel03252509333D

 34 35  0  0  1  0  0  0  0  0999 V2000
   39.9730   29.5940   40.9590 O   0  0  0  0  0  0  0  0  0  0  0  0
   39.1040   30.4730   41.8040 P   0  0  2  0  0  0  0  0  0  0  0  0
   39.8620   31.9090   42.2220 O   0  0  0  0  0  0  0  0  0  0  0  0
   39.4670   32.6950   41.7710 H   0  0  0  0  0  0  0  0  0  0  0  0
   38.7630   29.6840   43.2700 O   0  0  0  0  0  0  0  0  0  0  0  0
   37.6840   28.8690   43.0800 C   0  0  0  0  0  0  0  0  0  0  0  0
   36.8630   28.9160   43.7790 H   0  0  0  0  0  0  0  0  0  0  0  0
   37.2540   29.1700   42.0770 H   0  0  0  0  0  0  0  0  0  0  0  0
   37.5870   25.2770   42.1180 C   0  0  0  0  0  0  0  0  0  0  0  0
   37.2050   26.6180   42.2540 C   0  0  0  0  0  0  0  0  0  0  0  0
   38.0670   27.4630   42.9280 C   0  0  0  0  0  0  0  0  0  0  0  0
   39.2340   26.9490   43.4240 N   0  0  0  0  0  0  0  0  0  0  0  0
   39.5690   25.6480   43.2740 C   0  0  0  0  0  0  0  0  0  0  0  0
   38.7400   24.8310   42.6230 N   0  0  0  0  0  0  0  0  0  0  0  0
   36.9570   24.5620   41.6000 H   0  0  0  0  0  0  0  0  0  0  0  0
   36.2500   26.9120   41.8170 H   0  0  0  0  0  0  0  0  0  0  0  0
   40.5310   25.4680   43.7430 H   0  0  0  0  0  0  0  0  0  0  0  0
   37.6400   30.7430   41.0200 O   0  0  0  0  0  0  0  0  0  0  0  0
   37.8050   30.5650   39.6570 C   0  0  1  0  0  0  0  0  0  0  0  0
   36.5420   30.1900   38.9300 C   0  0  0  0  0  0  0  0  0  0  0  0
   36.9430   30.4180   37.4870 C   0  0  0  0  0  0  0  0  0  0  0  0
   38.0080   31.4920   37.5160 C   0  0  0  0  0  0  0  0  0  0  0  0
   38.1510   31.8860   38.9730 C   0  0  1  0  0  0  0  0  0  0  0  0
   38.6330   29.8720   39.4070 H   0  0  0  0  0  0  0  0  0  0  0  0
   35.7100   30.8180   39.2470 H   0  0  0  0  0  0  0  0  0  0  0  0
   36.3250   29.0920   39.0660 H   0  0  0  0  0  0  0  0  0  0  0  0
   36.0800   30.7510   36.8860 H   0  0  0  0  0  0  0  0  0  0  0  0
   37.3120   29.4880   36.9930 H   0  0  0  0  0  0  0  0  0  0  0  0
   38.9560   31.0920   37.1020 H   0  0  0  0  0  0  0  0  0  0  0  0
   37.6980   32.3630   36.8750 H   0  0  0  0  0  0  0  0  0  0  0  0
   39.1850   32.1700   39.1900 H   0  0  0  0  0  0  0  0  0  0  0  0
   37.2340   33.0110   39.3530 C   0  0  0  0  0  2  0  0  0  0  0  0
   38.0930   34.1010   39.9880 C   0  0  0  0  0  2  0  0  0  0  0  0
   37.7450   34.3580   41.0150 H   0  0  0  0  0  0  0  0  0  0  0  0
  2  1  2  6  0  0  0
  2  3  1  0  0  0  0
  2  5  1  0  0  0  0
  4  3  1  0  0  0  0
  6  5  1  0  0  0  0
  6  7  1  0  0  0  0
  8  6  1  0  0  0  0
  9 10  2  0  0  0  0
  9 14  1  0  0  0  0
 10 11  1  0  0  0  0
 11  6  1  0  0  0  0
 11 12  2  0  0  0  0
 13 12  1  0  0  0  0
 13 17  1  0  0  0  0
 14 13  2  0  0  0  0
 15  9  1  0  0  0  0
 16 10  1  0  0  0  0
 18  2  1  0  0  0  0
 19 24  1  6  0  0  0
 19 18  1  0  0  0  0
 20 26  1  0  0  0  0
 20 25  1  0  0  0  0
 20 19  1  0  0  0  0
 21 22  1  0  0  0  0
 21 20  1  0  0  0  0
 22 23  1  0  0  0  0
 23 31  1  1  0  0  0
 23 32  1  0  0  0  0
 23 19  1  0  0  0  0
 27 21  1  0  0  0  0
 28 21  1  0  0  0  0
 29 22  1  0  0  0  0
 30 22  1  0  0  0  0
 32 33  1  0  0  0  0
 33 34  1  0  0  0  0
M  END
>  <minimizedAffinity>
-4.69521809

$$$$

 OpenBabel03252509333D

 34 35  0  0  1  0  0  0  0  0999 V2000
   35.0840   29.2850   39.6750 O   0  0  0  0  0  0  0  0  0  0  0  0
   36.1540   30.2050   40.1770 P   0  0  2  0  0  0  0  0  0  0  0  0
   35.6220   31.1770   41.4340 O   0  0  0  0  0  0  0  0  0  0  0  0
   36.0300   30.9390   42.3010 H   0  0  0  0  0  0  0  0  0  0  0  0
   36.6140   31.2650   38.9310 O   0  0  0  0  0  0  0  0  0  0  0  0
   37.7890   30.8180   38.3960 C   0  0  0  0  0  0  0  0  0  0  0  0
   38.5390   31.5380   38.1060 H   0  0  0  0  0  0  0  0  0  0  0  0
   38.2640   30.1850   39.2040 H   0  0  0  0  0  0  0  0  0  0  0  0
   38.1510   27.9170   36.0970 C   0  0  0  0  0  0  0  0  0  0  0  0
   38.3680   28.7770   37.1810 C   0  0  0  0  0  0  0  0  0  0  0  0
   37.5770   29.9080   37.2680 C   0  0  0  0  0  0  0  0  0  0  0  0
   36.6360   30.1260   36.2980 N   0  0  0  0  0  0  0  0  0  0  0  0
   36.4570   29.2740   35.2650 C   0  0  0  0  0  0  0  0  0  0  0  0
   37.2170   28.1810   35.1790 N   0  0  0  0  0  0  0  0  0  0  0  0
   38.7370   27.0130   35.9700 H   0  0  0  0  0  0  0  0  0  0  0  0
   39.1470   28.4990   37.8920 H   0  0  0  0  0  0  0  0  0  0  0  0
   35.6630   29.6450   34.6250 H   0  0  0  0  0  0  0  0  0  0  0  0
   37.5120   29.3100   40.6090 O   0  0  0  0  0  0  0  0  0  0  0  0
   37.2410   28.5800   41.7540 C   0  0  1  0  0  0  0  0  0  0  0  0
   37.0200   27.1120   41.5080 C   0  0  0  0  0  0  0  0  0  0  0  0
   37.1100   26.5510   42.9130 C   0  0  0  0  0  0  0  0  0  0  0  0
   38.0140   27.4930   43.6790 C   0  0  0  0  0  0  0  0  0  0  0  0
   38.4580   28.5390   42.6760 C   0  0  1  0  0  0  0  0  0  0  0  0
   36.4200   29.0130   42.3600 H   0  0  0  0  0  0  0  0  0  0  0  0
   37.7820   26.7120   40.8380 H   0  0  0  0  0  0  0  0  0  0  0  0
   35.9750   26.9330   41.1240 H   0  0  0  0  0  0  0  0  0  0  0  0
   37.5360   25.5350   42.9050 H   0  0  0  0  0  0  0  0  0  0  0  0
   36.1120   26.4550   43.4010 H   0  0  0  0  0  0  0  0  0  0  0  0
   37.4570   27.9440   44.5250 H   0  0  0  0  0  0  0  0  0  0  0  0
   38.8870   26.9290   44.1090 H   0  0  0  0  0  0  0  0  0  0  0  0
   38.5960   29.5060   43.1700 H   0  0  0  0  0  0  0  0  0  0  0  0
   39.7250   28.1540   41.9710 C   0  0  0  0  0  2  0  0  0  0  0  0
   40.8640   28.2930   42.9790 C   0  0  0  0  0  2  0  0  0  0  0  0
   41.6590   28.9840   42.6130 H   0  0  0  0  0  0  0  0  0  0  0  0
  2  1  2  6  0  0  0
  2 18  1  0  0  0  0
  2  3  1  0  0  0  0
  3  4  1  0  0  0  0
  5  2  1  0  0  0  0
  6  5  1  0  0  0  0
  6  8  1  0  0  0  0
  7  6  1  0  0  0  0
  9 10  1  0  0  0  0
 10 11  2  0  0  0  0
 10 16  1  0  0  0  0
 11  6  1  0  0  0  0
 12 11  1  0  0  0  0
 13 12  2  0  0  0  0
 14 13  1  0  0  0  0
 14  9  2  0  0  0  0
 15  9  1  0  0  0  0
 17 13  1  0  0  0  0
 18 19  1  0  0  0  0
 19 24  1  1  0  0  0
 19 23  1  0  0  0  0
 20 19  1  0  0  0  0
 20 21  1  0  0  0  0
 21 28  1  0  0  0  0
 21 22  1  0  0  0  0
 22 30  1  0  0  0  0
 22 29  1  0  0  0  0
 23 31  1  1  0  0  0
 23 22  1  0  0  0  0
 25 20  1  0  0  0  0
 26 20  1  0  0  0  0
 27 21  1  0  0  0  0
 32 23  1  0  0  0  0
 32 33  1  0  0  0  0
 34 33  1  0  0  0  0
M  END
>  <minimizedAffinity>
-4.54960203

$$$$

 OpenBabel03252509333D

 34 35  0  0  1  0  0  0  0  0999 V2000
   35.5260   29.0980   38.0420 O   0  0  0  0  0  0  0  0  0  0  0  0
   35.6570   29.3810   39.5060 P   0  0  2  0  0  0  0  0  0  0  0  0
   34.1870   29.2870   40.3080 O   0  0  0  0  0  0  0  0  0  0  0  0
   34.1290   28.5060   40.9090 H   0  0  0  0  0  0  0  0  0  0  0  0
   36.2050   30.9730   39.7260 O   0  0  0  0  0  0  0  0  0  0  0  0
   37.2190   31.2060   38.8400 C   0  0  0  0  0  0  0  0  0  0  0  0
   37.7380   30.3650   38.4060 H   0  0  0  0  0  0  0  0  0  0  0  0
   36.7400   31.7540   37.9740 H   0  0  0  0  0  0  0  0  0  0  0  0
   40.5040   32.6720   39.7860 C   0  0  0  0  0  0  0  0  0  0  0  0
   39.5570   31.7760   39.2730 C   0  0  0  0  0  0  0  0  0  0  0  0
   38.2230   32.1300   39.3710 C   0  0  0  0  0  0  0  0  0  0  0  0
   37.9040   33.3230   39.9620 N   0  0  0  0  0  0  0  0  0  0  0  0
   38.8470   34.1610   40.4470 C   0  0  0  0  0  0  0  0  0  0  0  0
   40.1330   33.8230   40.3520 N   0  0  0  0  0  0  0  0  0  0  0  0
   41.5660   32.4550   39.7400 H   0  0  0  0  0  0  0  0  0  0  0  0
   39.9310   30.8550   38.8250 H   0  0  0  0  0  0  0  0  0  0  0  0
   38.3660   35.0390   40.8660 H   0  0  0  0  0  0  0  0  0  0  0  0
   36.8040   28.3510   40.1810 O   0  0  0  0  0  0  0  0  0  0  0  0
   36.7140   28.3970   41.5620 C   0  0  1  0  0  0  0  0  0  0  0  0
   36.9450   27.0720   42.2370 C   0  0  0  0  0  0  0  0  0  0  0  0
   37.1390   27.4950   43.6790 C   0  0  0  0  0  0  0  0  0  0  0  0
   37.6930   28.9030   43.6280 C   0  0  0  0  0  0  0  0  0  0  0  0
   37.8500   29.2270   42.1550 C   0  0  1  0  0  0  0  0  0  0  0  0
   35.7770   28.8710   41.9190 H   0  0  0  0  0  0  0  0  0  0  0  0
   37.8170   26.5700   41.8170 H   0  0  0  0  0  0  0  0  0  0  0  0
   36.0150   26.4370   42.1790 H   0  0  0  0  0  0  0  0  0  0  0  0
   37.8450   26.8240   44.1950 H   0  0  0  0  0  0  0  0  0  0  0  0
   36.1940   27.4490   44.2700 H   0  0  0  0  0  0  0  0  0  0  0  0
   36.9940   29.6000   44.1310 H   0  0  0  0  0  0  0  0  0  0  0  0
   38.6750   28.9520   44.1740 H   0  0  0  0  0  0  0  0  0  0  0  0
   37.6770   30.2930   41.9800 H   0  0  0  0  0  0  0  0  0  0  0  0
   39.2020   28.8470   41.6280 C   0  0  0  0  0  2  0  0  0  0  0  0
   40.2420   29.4840   42.5460 C   0  0  0  0  0  2  0  0  0  0  0  0
   40.9450   30.1420   41.9830 H   0  0  0  0  0  0  0  0  0  0  0  0
  2  1  2  6  0  0  0
  2  5  1  0  0  0  0
  2 18  1  0  0  0  0
  2  3  1  0  0  0  0
  3  4  1  0  0  0  0
  6 11  1  0  0  0  0
  6  5  1  0  0  0  0
  7  6  1  0  0  0  0
  8  6  1  0  0  0  0
  9 14  1  0  0  0  0
 10 11  1  0  0  0  0
 10  9  2  0  0  0  0
 11 12  2  0  0  0  0
 12 13  1  0  0  0  0
 13 17  1  0  0  0  0
 14 13  2  0  0  0  0
 15  9  1  0  0  0  0
 16 10  1  0  0  0  0
 18 19  1  0  0  0  0
 19 24  1  1  0  0  0
 19 23  1  0  0  0  0
 19 20  1  0  0  0  0
 20 21  1  0  0  0  0
 21 27  1  0  0  0  0
 21 28  1  0  0  0  0
 22 21  1  0  0  0  0
 22 29  1  0  0  0  0
 22 30  1  0  0  0  0
 23 31  1  6  0  0  0
 23 22  1  0  0  0  0
 25 20  1  0  0  0  0
 26 20  1  0  0  0  0
 32 23  1  0  0  0  0
 32 33  1  0  0  0  0
 34 33  1  0  0  0  0
M  END
>  <minimizedAffinity>
-4.54908562

$$$$

 OpenBabel03252509333D

 34 35  0  0  1  0  0  0  0  0999 V2000
   36.2220   30.5420   38.3230 O   0  0  0  0  0  0  0  0  0  0  0  0
   37.0280   30.6460   39.5810 P   0  0  2  0  0  0  0  0  0  0  0  0
   36.2310   31.5010   40.7810 O   0  0  0  0  0  0  0  0  0  0  0  0
   35.9430   30.9280   41.5330 H   0  0  0  0  0  0  0  0  0  0  0  0
   38.4560   31.5100   39.2640 O   0  0  0  0  0  0  0  0  0  0  0  0
   39.2580   30.7420   38.4690 C   0  0  0  0  0  0  0  0  0  0  0  0
   39.5750   29.7730   38.8260 H   0  0  0  0  0  0  0  0  0  0  0  0
   38.6520   30.5430   37.5340 H   0  0  0  0  0  0  0  0  0  0  0  0
   42.5570   31.4630   36.9080 C   0  0  0  0  0  0  0  0  0  0  0  0
   41.4270   30.7560   37.3390 C   0  0  0  0  0  0  0  0  0  0  0  0
   40.4470   31.4640   38.0110 C   0  0  0  0  0  0  0  0  0  0  0  0
   40.6340   32.8040   38.2190 N   0  0  0  0  0  0  0  0  0  0  0  0
   41.7390   33.4530   37.7890 C   0  0  0  0  0  0  0  0  0  0  0  0
   42.6840   32.7720   37.1400 N   0  0  0  0  0  0  0  0  0  0  0  0
   43.3610   30.9680   36.3750 H   0  0  0  0  0  0  0  0  0  0  0  0
   41.3890   29.6890   37.1160 H   0  0  0  0  0  0  0  0  0  0  0  0
   41.6710   34.5010   38.0630 H   0  0  0  0  0  0  0  0  0  0  0  0
   37.4710   29.1070   40.0970 O   0  0  0  0  0  0  0  0  0  0  0  0
   37.0950   28.9350   41.4180 C   0  0  1  0  0  0  0  0  0  0  0  0
   36.5990   27.5510   41.7410 C   0  0  0  0  0  0  0  0  0  0  0  0
   36.6150   27.5680   43.2560 C   0  0  0  0  0  0  0  0  0  0  0  0
   37.6950   28.5520   43.6500 C   0  0  0  0  0  0  0  0  0  0  0  0
   38.3030   29.0330   42.3470 C   0  0  1  0  0  0  0  0  0  0  0  0
   36.3820   29.7080   41.7700 H   0  0  0  0  0  0  0  0  0  0  0  0
   37.2570   26.7950   41.3140 H   0  0  0  0  0  0  0  0  0  0  0  0
   35.5300   27.4310   41.4020 H   0  0  0  0  0  0  0  0  0  0  0  0
   36.8430   26.5670   43.6590 H   0  0  0  0  0  0  0  0  0  0  0  0
   35.6270   27.8490   43.6920 H   0  0  0  0  0  0  0  0  0  0  0  0
   37.2510   29.3860   44.2300 H   0  0  0  0  0  0  0  0  0  0  0  0
   38.4570   28.0490   44.3060 H   0  0  0  0  0  0  0  0  0  0  0  0
   38.6300   30.0730   42.4410 H   0  0  0  0  0  0  0  0  0  0  0  0
   39.4600   28.1840   41.9090 C   0  0  0  0  0  2  0  0  0  0  0  0
   40.2840   27.8640   43.1530 C   0  0  0  0  0  2  0  0  0  0  0  0
   41.3450   28.1900   43.0430 H   0  0  0  0  0  0  0  0  0  0  0  0
  2  1  2  6  0  0  0
  2 18  1  0  0  0  0
  2  3  1  0  0  0  0
  3  4  1  0  0  0  0
  5  2  1  0  0  0  0
  6  7  1  0  0  0  0
  6  5  1  0  0  0  0
  8  6  1  0  0  0  0
  9 14  2  0  0  0  0
  9 10  1  0  0  0  0
 10 11  2  0  0  0  0
 11 12  1  0  0  0  0
 11  6  1  0  0  0  0
 13 17  1  0  0  0  0
 13 12  2  0  0  0  0
 14 13  1  0  0  0  0
 15  9  1  0  0  0  0
 16 10  1  0  0  0  0
 18 19  1  0  0  0  0
 19 20  1  0  0  0  0
 19 24  1  1  0  0  0
 19 23  1  0  0  0  0
 20 21  1  0  0  0  0
 21 22  1  0  0  0  0
 21 27  1  0  0  0  0
 21 28  1  0  0  0  0
 22 29  1  0  0  0  0
 22 30  1  0  0  0  0
 23 31  1  1  0  0  0
 23 22  1  0  0  0  0
 25 20  1  0  0  0  0
 26 20  1  0  0  0  0
 32 23  1  0  0  0  0
 32 33  1  0  0  0  0
 34 33  1  0  0  0  0
M  END
>  <minimizedAffinity>
-4.50558329

$$$$

 OpenBabel03252509333D

 34 35  0  0  1  0  0  0  0  0999 V2000
   37.6010   29.8180   40.1160 O   0  0  0  0  0  0  0  0  0  0  0  0
   36.3470   29.5650   40.8930 P   0  0  2  0  0  0  0  0  0  0  0  0
   35.6450   30.9820   41.4510 O   0  0  0  0  0  0  0  0  0  0  0  0
   34.7970   31.1950   40.9910 H   0  0  0  0  0  0  0  0  0  0  0  0
   36.7170   28.6530   42.2780 O   0  0  0  0  0  0  0  0  0  0  0  0
   37.7720   29.2450   42.9150 C   0  0  0  0  0  0  0  0  0  0  0  0
   38.1360   30.1940   42.5520 H   0  0  0  0  0  0  0  0  0  0  0  0
   37.4150   29.4340   43.9720 H   0  0  0  0  0  0  0  0  0  0  0  0
   41.2450   27.9220   42.7780 C   0  0  0  0  0  0  0  0  0  0  0  0
   40.1600   28.7970   42.6410 C   0  0  0  0  0  0  0  0  0  0  0  0
   38.9180   28.3440   43.0500 C   0  0  0  0  0  0  0  0  0  0  0  0
   38.8180   27.0770   43.5590 N   0  0  0  0  0  0  0  0  0  0  0  0
   39.8890   26.2610   43.6740 C   0  0  0  0  0  0  0  0  0  0  0  0
   41.0870   26.6960   43.2820 N   0  0  0  0  0  0  0  0  0  0  0  0
   42.2460   28.2150   42.4770 H   0  0  0  0  0  0  0  0  0  0  0  0
   40.3610   29.7830   42.2220 H   0  0  0  0  0  0  0  0  0  0  0  0
   39.5750   25.3130   44.1000 H   0  0  0  0  0  0  0  0  0  0  0  0
   35.2770   28.6610   39.9620 O   0  0  0  0  0  0  0  0  0  0  0  0
   35.7920   28.5020   38.6860 C   0  0  1  0  0  0  0  0  0  0  0  0
   35.7740   27.0820   38.1890 C   0  0  0  0  0  0  0  0  0  0  0  0
   36.0410   27.2750   36.7100 C   0  0  0  0  0  0  0  0  0  0  0  0
   35.5060   28.6480   36.3660 C   0  0  0  0  0  0  0  0  0  0  0  0
   34.9010   29.1830   37.6490 C   0  0  1  0  0  0  0  0  0  0  0  0
   36.7960   28.9570   38.5650 H   0  0  0  0  0  0  0  0  0  0  0  0
   34.8130   26.6120   38.3930 H   0  0  0  0  0  0  0  0  0  0  0  0
   36.6360   26.5040   38.6290 H   0  0  0  0  0  0  0  0  0  0  0  0
   35.5260   26.5040   36.1130 H   0  0  0  0  0  0  0  0  0  0  0  0
   37.1220   27.1810   36.4530 H   0  0  0  0  0  0  0  0  0  0  0  0
   36.3310   29.2920   36.0000 H   0  0  0  0  0  0  0  0  0  0  0  0
   34.7420   28.5730   35.5440 H   0  0  0  0  0  0  0  0  0  0  0  0
   35.0170   30.2700   37.7000 H   0  0  0  0  0  0  0  0  0  0  0  0
   33.4500   28.8300   37.7880 C   0  0  0  0  0  2  0  0  0  0  0  0
   32.7480   29.2900   36.5130 C   0  0  0  0  0  2  0  0  0  0  0  0
   31.9090   29.9920   36.7320 H   0  0  0  0  0  0  0  0  0  0  0  0
  2  1  2  6  0  0  0
  2  3  1  0  0  0  0
  2  5  1  0  0  0  0
  4  3  1  0  0  0  0
  5  6  1  0  0  0  0
  6 11  1  0  0  0  0
  6  8  1  0  0  0  0
  7  6  1  0  0  0  0
  9 14  1  0  0  0  0
 10  9  2  0  0  0  0
 10 11  1  0  0  0  0
 11 12  2  0  0  0  0
 12 13  1  0  0  0  0
 13 17  1  0  0  0  0
 14 13  2  0  0  0  0
 15  9  1  0  0  0  0
 16 10  1  0  0  0  0
 18  2  1  0  0  0  0
 19 24  1  6  0  0  0
 19 18  1  0  0  0  0
 20 25  1  0  0  0  0
 20 26  1  0  0  0  0
 20 19  1  0  0  0  0
 21 20  1  0  0  0  0
 22 21  1  0  0  0  0
 22 23  1  0  0  0  0
 23 31  1  1  0  0  0
 23 32  1  0  0  0  0
 23 19  1  0  0  0  0
 27 21  1  0  0  0  0
 28 21  1  0  0  0  0
 29 22  1  0  0  0  0
 30 22  1  0  0  0  0
 33 34  1  0  0  0  0
 33 32  1  0  0  0  0
M  END
>  <minimizedAffinity>
-4.49903631

$$$$
