
 OpenBabel03252502463D

 39 41  0  0  1  0  0  0  0  0999 V2000
   48.8730   34.7240   41.5150 C   0  0  1  0  0  0  0  0  0  0  0  0
   49.9980   34.8990   42.4760 C   0  0  0  0  0  0  0  0  0  0  0  0
   49.3410   33.5870   42.2880 C   0  0  2  0  0  0  0  0  0  0  0  0
   49.1020   34.8370   40.4600 H   0  0  0  0  0  0  0  0  0  0  0  0
   49.7920   35.5010   43.3940 H   0  0  0  0  0  0  0  0  0  0  0  0
   51.0130   35.1150   42.0730 H   0  0  0  0  0  0  0  0  0  0  0  0
   48.8560   33.1840   43.1830 H   0  0  0  0  0  0  0  0  0  0  0  0
   50.1610   32.6560   41.5270 N   0  0  0  0  0  0  0  0  0  0  0  0
   49.5760   32.2170   40.3130 C   0  0  0  0  0  0  0  0  0  0  0  0
   50.5780   31.2600   39.6950 C   0  0  0  0  0  0  0  0  0  0  0  0
   50.8210   30.1190   40.5150 N   0  0  0  0  0  0  0  0  0  0  0  0
   50.5860   30.3440   41.9110 C   0  0  0  0  0  0  0  0  0  0  0  0
   50.9640   31.7800   42.2690 C   0  0  0  0  0  0  0  0  0  0  0  0
   48.5680   31.7510   40.4300 H   0  0  0  0  0  0  0  0  0  0  0  0
   49.4460   33.0560   39.6210 H   0  0  0  0  0  0  0  0  0  0  0  0
   50.1720   30.9330   38.7250 H   0  0  0  0  0  0  0  0  0  0  0  0
   51.4820   31.8660   39.4840 H   0  0  0  0  0  0  0  0  0  0  0  0
   50.4190   29.2280   40.1920 H   0  0  0  0  0  0  0  0  0  0  0  0
   51.1900   29.6780   42.5560 H   0  0  0  0  0  0  0  0  0  0  0  0
   49.5040   30.1480   42.1150 H   0  0  0  0  0  0  0  0  0  0  0  0
   52.0480   31.8670   42.1470 H   0  0  0  0  0  0  0  0  0  0  0  0
   50.7020   31.8610   43.3630 H   0  0  0  0  0  0  0  0  0  0  0  0
   47.5430   35.3060   41.8960 C   0  0  0  0  0  0  0  0  0  0  0  0
   47.1140   35.9640   41.0980 H   0  0  0  0  0  0  0  0  0  0  0  0
   47.6740   35.9690   42.7710 H   0  0  0  0  0  0  0  0  0  0  0  0
   46.6490   34.1550   42.2440 C   0  0  0  0  0  0  0  0  0  0  0  0
   47.0670   33.1630   42.1940 H   0  0  0  0  0  0  0  0  0  0  0  0
   45.8140   34.1610   41.4810 H   0  0  0  0  0  0  0  0  0  0  0  0
   44.5130   35.9250   44.7520 C   0  0  0  0  0  0  0  0  0  0  0  0
   45.1790   35.6270   43.5430 C   0  0  0  0  0  0  0  0  0  0  0  0
   45.9370   34.4820   43.5230 C   0  0  0  0  0  0  0  0  0  0  0  0
   46.0120   33.7100   44.6280 N   0  0  0  0  0  0  0  0  0  0  0  0
   45.3890   33.9970   45.7490 C   0  0  0  0  0  0  0  0  0  0  0  0
   44.6350   35.1070   45.8160 N   0  0  0  0  0  0  0  0  0  0  0  0
   43.9020   36.8240   44.8090 H   0  0  0  0  0  0  0  0  0  0  0  0
   45.0580   36.3080   42.7070 H   0  0  0  0  0  0  0  0  0  0  0  0
   45.5720   33.0470   46.8740 C   0  0  0  0  0  0  0  0  0  0  0  0
   46.9900   32.5120   46.9070 C   0  0  0  0  0  0  0  0  0  0  0  0
   47.2760   32.3180   47.9550 H   0  0  0  0  0  0  0  0  0  0  0  0
  1  4  1  6  0  0  0
  1 23  1  0  0  0  0
  1  3  1  0  0  0  0
  1  2  1  0  0  0  0
  2  5  1  0  0  0  0
  3  2  1  0  0  0  0
  3  7  1  1  0  0  0
  6  2  1  0  0  0  0
  8 13  1  0  0  0  0
  8  3  1  0  0  0  0
  9 14  1  0  0  0  0
  9  8  1  0  0  0  0
 10  9  1  0  0  0  0
 10 11  1  0  0  0  0
 11 12  1  0  0  0  0
 12 20  1  0  0  0  0
 12 13  1  0  0  0  0
 12 19  1  0  0  0  0
 13 22  1  0  0  0  0
 15  9  1  0  0  0  0
 16 10  1  0  0  0  0
 17 10  1  0  0  0  0
 18 11  1  0  0  0  0
 21 13  1  0  0  0  0
 23 26  1  0  0  0  0
 23 25  1  0  0  0  0
 24 23  1  0  0  0  0
 26 31  1  0  0  0  0
 27 26  1  0  0  0  0
 28 26  1  0  0  0  0
 29 35  1  0  0  0  0
 29 34  1  0  0  0  0
 30 29  2  0  0  0  0
 31 30  1  0  0  0  0
 31 32  2  0  0  0  0
 32 33  1  0  0  0  0
 33 34  2  0  0  0  0
 33 37  1  0  0  0  0
 36 30  1  0  0  0  0
 37 38  1  0  0  0  0
 38 39  1  0  0  0  0
M  END
>  <minimizedAffinity>
-4.96063089

>  <minimizedRMSD>
0.248310164

$$$$
