
 OpenBabel03252501173D

 29 31  0  0  1  0  0  0  0  0999 V2000
   35.1120   29.0410   38.7380 C   0  0  1  0  0  0  0  0  0  0  0  0
   35.6720   29.4810   37.4430 C   0  0  0  0  0  0  0  0  0  0  0  0
   34.4860   28.4410   37.5470 C   0  0  2  0  0  0  0  0  0  0  0  0
   34.4910   29.7310   39.3540 H   0  0  0  0  0  0  0  0  0  0  0  0
   36.5960   29.0500   37.0300 H   0  0  0  0  0  0  0  0  0  0  0  0
   35.4110   30.4720   37.0360 H   0  0  0  0  0  0  0  0  0  0  0  0
   34.7390   27.4470   37.1730 H   0  0  0  0  0  0  0  0  0  0  0  0
   36.9990   27.5800   41.6380 C   0  0  0  0  0  0  0  0  0  0  0  0
   36.1150   28.3950   40.9540 C   0  0  0  0  0  0  0  0  0  0  0  0
   36.0260   28.2120   39.5790 C   0  0  0  0  0  0  0  0  0  0  0  0
   36.7860   27.2710   38.9770 N   0  0  0  0  0  0  0  0  0  0  0  0
   37.6440   26.4920   39.6900 C   0  0  0  0  0  0  0  0  0  0  0  0
   37.7420   26.6570   41.0280 N   0  0  0  0  0  0  0  0  0  0  0  0
   35.4990   29.1560   41.4340 H   0  0  0  0  0  0  0  0  0  0  0  0
   38.2710   25.7290   39.2540 H   0  0  0  0  0  0  0  0  0  0  0  0
   37.1030   27.7510   43.1250 C   0  0  0  0  0  0  0  0  0  0  0  0
   38.1850   27.0140   43.5490 F   0  0  0  0  0  0  0  0  0  0  0  0
   35.9680   27.1970   43.6790 F   0  0  0  0  0  0  0  0  0  0  0  0
   37.2690   29.0620   43.4610 F   0  0  0  0  0  0  0  0  0  0  0  0
   33.1830   29.0540   37.1390 C   0  0  0  0  0  0  0  0  0  0  0  0
   32.7070   29.2690   35.8470 C   0  0  0  0  0  0  0  0  0  0  0  0
   31.4730   29.8480   36.1070 C   0  0  0  0  0  0  0  0  0  0  0  0
   31.2440   29.9640   37.4700 C   0  0  0  0  0  0  0  0  0  0  0  0
   32.3170   29.4650   38.0110 O   0  0  0  0  0  0  0  0  0  0  0  0
   33.2070   29.0310   34.9330 H   0  0  0  0  0  0  0  0  0  0  0  0
   30.7770   30.1690   35.3150 H   0  0  0  0  0  0  0  0  0  0  0  0
   30.0160   30.5410   38.0770 C   0  0  0  0  0  2  0  0  0  0  0  0
   29.8550   31.9810   37.6530 C   0  0  0  0  0  2  0  0  0  0  0  0
   29.4320   32.1100   36.6430 H   0  0  0  0  0  0  0  0  0  0  0  0
  1  4  1  1  0  0  0
  1 10  1  0  0  0  0
  2  3  1  0  0  0  0
  2  1  1  0  0  0  0
  3  7  1  6  0  0  0
  3  1  1  0  0  0  0
  5  2  1  0  0  0  0
  6  2  1  0  0  0  0
  8 16  1  0  0  0  0
  9 14  1  0  0  0  0
  9  8  2  0  0  0  0
 10  9  1  0  0  0  0
 11 10  2  0  0  0  0
 11 12  1  0  0  0  0
 12 13  2  0  0  0  0
 13  8  1  0  0  0  0
 15 12  1  0  0  0  0
 16 19  1  0  0  0  0
 16 17  1  0  0  0  0
 16 18  1  0  0  0  0
 20  3  1  0  0  0  0
 20 24  1  0  0  0  0
 21 22  1  0  0  0  0
 21 20  2  0  0  0  0
 22 23  2  0  0  0  0
 23 24  1  0  0  0  0
 23 27  1  0  0  0  0
 25 21  1  0  0  0  0
 26 22  1  0  0  0  0
 28 27  1  0  0  0  0
 29 28  1  0  0  0  0
M  END
>  <minimizedAffinity>
-5.2273941

$$$$

 OpenBabel03252501173D

 29 31  0  0  1  0  0  0  0  0999 V2000
   37.6760   28.4370   42.1440 C   0  0  1  0  0  0  0  0  0  0  0  0
   38.1270   29.2450   43.2960 C   0  0  0  0  0  0  0  0  0  0  0  0
   38.7170   29.4340   41.8420 C   0  0  2  0  0  0  0  0  0  0  0  0
   36.6670   28.5930   41.6970 H   0  0  0  0  0  0  0  0  0  0  0  0
   38.8630   28.8680   44.0200 H   0  0  0  0  0  0  0  0  0  0  0  0
   37.4980   30.0690   43.6730 H   0  0  0  0  0  0  0  0  0  0  0  0
   39.7780   29.1880   41.7630 H   0  0  0  0  0  0  0  0  0  0  0  0
   37.7940   24.7290   41.5580 C   0  0  0  0  0  0  0  0  0  0  0  0
   37.3810   26.0420   41.4260 C   0  0  0  0  0  0  0  0  0  0  0  0
   38.0430   26.9910   42.1980 C   0  0  0  0  0  0  0  0  0  0  0  0
   39.0390   26.6040   43.0270 N   0  0  0  0  0  0  0  0  0  0  0  0
   39.4100   25.2990   43.1240 C   0  0  0  0  0  0  0  0  0  0  0  0
   38.7770   24.3650   42.3810 N   0  0  0  0  0  0  0  0  0  0  0  0
   36.5790   26.3600   40.7590 H   0  0  0  0  0  0  0  0  0  0  0  0
   40.1980   24.9430   43.7720 H   0  0  0  0  0  0  0  0  0  0  0  0
   37.1020   23.6900   40.7260 C   0  0  0  0  0  0  0  0  0  0  0  0
   37.2410   24.0590   39.4070 F   0  0  0  0  0  0  0  0  0  0  0  0
   35.7610   23.7410   41.0420 F   0  0  0  0  0  0  0  0  0  0  0  0
   37.6450   22.4550   40.9260 F   0  0  0  0  0  0  0  0  0  0  0  0
   38.2210   30.6970   41.2090 C   0  0  0  0  0  0  0  0  0  0  0  0
   37.0110   30.9020   40.5480 C   0  0  0  0  0  0  0  0  0  0  0  0
   37.1190   32.2400   40.1960 C   0  0  0  0  0  0  0  0  0  0  0  0
   38.3210   32.7820   40.6270 C   0  0  0  0  0  0  0  0  0  0  0  0
   38.9170   31.7890   41.2220 O   0  0  0  0  0  0  0  0  0  0  0  0
   36.2400   30.1800   40.3850 H   0  0  0  0  0  0  0  0  0  0  0  0
   36.3370   32.7850   39.6440 H   0  0  0  0  0  0  0  0  0  0  0  0
   38.7420   34.1900   40.4090 C   0  0  0  0  0  2  0  0  0  0  0  0
   40.1920   34.2400   39.9910 C   0  0  0  0  0  2  0  0  0  0  0  0
   40.3620   34.0110   38.9260 H   0  0  0  0  0  0  0  0  0  0  0  0
  1  4  1  6  0  0  0
  1 10  1  0  0  0  0
  1  2  1  0  0  0  0
  2  6  1  0  0  0  0
  2  5  1  0  0  0  0
  3  7  1  6  0  0  0
  3  1  1  0  0  0  0
  3  2  1  0  0  0  0
  8 13  1  0  0  0  0
  9  8  2  0  0  0  0
  9 10  1  0  0  0  0
 10 11  2  0  0  0  0
 11 12  1  0  0  0  0
 12 15  1  0  0  0  0
 13 12  2  0  0  0  0
 14  9  1  0  0  0  0
 16 19  1  0  0  0  0
 16 18  1  0  0  0  0
 16  8  1  0  0  0  0
 17 16  1  0  0  0  0
 20 24  1  0  0  0  0
 20  3  1  0  0  0  0
 21 20  2  0  0  0  0
 22 21  1  0  0  0  0
 22 23  2  0  0  0  0
 23 24  1  0  0  0  0
 25 21  1  0  0  0  0
 26 22  1  0  0  0  0
 27 23  1  0  0  0  0
 28 27  1  0  0  0  0
 29 28  1  0  0  0  0
M  END
>  <minimizedAffinity>
-5.1147294

$$$$

 OpenBabel03252501173D

 29 31  0  0  1  0  0  0  0  0999 V2000
   35.3590   29.4170   39.8750 C   0  0  1  0  0  0  0  0  0  0  0  0
   36.0240   29.7690   38.6030 C   0  0  0  0  0  0  0  0  0  0  0  0
   34.9610   28.6050   38.7130 C   0  0  2  0  0  0  0  0  0  0  0  0
   34.5900   30.0900   40.3220 H   0  0  0  0  0  0  0  0  0  0  0  0
   37.0350   29.4150   38.3560 H   0  0  0  0  0  0  0  0  0  0  0  0
   35.7040   30.6620   38.0410 H   0  0  0  0  0  0  0  0  0  0  0  0
   35.3700   27.6140   38.5060 H   0  0  0  0  0  0  0  0  0  0  0  0
   37.3220   27.0000   41.9750 C   0  0  0  0  0  0  0  0  0  0  0  0
   36.4900   27.4510   40.9660 C   0  0  0  0  0  0  0  0  0  0  0  0
   36.2480   28.8200   40.9150 C   0  0  0  0  0  0  0  0  0  0  0  0
   36.8190   29.6370   41.8280 N   0  0  0  0  0  0  0  0  0  0  0  0
   37.6310   29.1480   42.8040 C   0  0  0  0  0  0  0  0  0  0  0  0
   37.8770   27.8200   42.8680 N   0  0  0  0  0  0  0  0  0  0  0  0
   36.0260   26.7980   40.2270 H   0  0  0  0  0  0  0  0  0  0  0  0
   38.1090   29.7600   43.5540 H   0  0  0  0  0  0  0  0  0  0  0  0
   37.6080   25.5290   42.0430 C   0  0  0  0  0  0  0  0  0  0  0  0
   36.4940   24.9180   42.5710 F   0  0  0  0  0  0  0  0  0  0  0  0
   38.6490   25.3570   42.9310 F   0  0  0  0  0  0  0  0  0  0  0  0
   37.8790   25.0210   40.8070 F   0  0  0  0  0  0  0  0  0  0  0  0
   33.6570   28.9910   38.0860 C   0  0  0  0  0  0  0  0  0  0  0  0
   33.3080   28.9350   36.7390 C   0  0  0  0  0  0  0  0  0  0  0  0
   32.0030   29.4060   36.7780 C   0  0  0  0  0  0  0  0  0  0  0  0
   31.6160   29.7180   38.0730 C   0  0  0  0  0  0  0  0  0  0  0  0
   32.6660   29.4400   38.7890 O   0  0  0  0  0  0  0  0  0  0  0  0
   33.9250   28.6060   35.9310 H   0  0  0  0  0  0  0  0  0  0  0  0
   31.3710   29.5110   35.8810 H   0  0  0  0  0  0  0  0  0  0  0  0
   30.2800   30.2460   38.4530 C   0  0  0  0  0  2  0  0  0  0  0  0
   30.0130   31.5490   37.7390 C   0  0  0  0  0  2  0  0  0  0  0  0
   29.6830   31.4320   36.6940 H   0  0  0  0  0  0  0  0  0  0  0  0
  1  4  1  1  0  0  0
  1 10  1  0  0  0  0
  2  3  1  0  0  0  0
  2  1  1  0  0  0  0
  3  7  1  6  0  0  0
  3  1  1  0  0  0  0
  5  2  1  0  0  0  0
  6  2  1  0  0  0  0
  8 16  1  0  0  0  0
  8 13  1  0  0  0  0
  9  8  2  0  0  0  0
 10  9  1  0  0  0  0
 10 11  2  0  0  0  0
 11 12  1  0  0  0  0
 12 13  2  0  0  0  0
 12 15  1  0  0  0  0
 14  9  1  0  0  0  0
 16 17  1  0  0  0  0
 16 18  1  0  0  0  0
 19 16  1  0  0  0  0
 20  3  1  0  0  0  0
 20 24  1  0  0  0  0
 21 22  1  0  0  0  0
 21 20  2  0  0  0  0
 22 23  2  0  0  0  0
 23 27  1  0  0  0  0
 23 24  1  0  0  0  0
 25 21  1  0  0  0  0
 26 22  1  0  0  0  0
 28 27  1  0  0  0  0
 29 28  1  0  0  0  0
M  END
>  <minimizedAffinity>
-5.10453844

$$$$

 OpenBabel03252501173D

 29 31  0  0  1  0  0  0  0  0999 V2000
   39.6230   30.2610   41.2000 C   0  0  1  0  0  0  0  0  0  0  0  0
   40.2720   30.0470   42.5100 C   0  0  0  0  0  0  0  0  0  0  0  0
   38.7080   30.2150   42.3530 C   0  0  2  0  0  0  0  0  0  0  0  0
   39.5560   29.4350   40.4550 H   0  0  0  0  0  0  0  0  0  0  0  0
   40.7450   30.8680   43.0680 H   0  0  0  0  0  0  0  0  0  0  0  0
   40.6230   29.0420   42.7960 H   0  0  0  0  0  0  0  0  0  0  0  0
   38.3100   31.1080   42.8390 H   0  0  0  0  0  0  0  0  0  0  0  0
   41.0110   32.9430   38.9660 C   0  0  0  0  0  0  0  0  0  0  0  0
   40.8050   31.6780   39.4880 C   0  0  0  0  0  0  0  0  0  0  0  0
   39.9150   31.5740   40.5510 C   0  0  0  0  0  0  0  0  0  0  0  0
   39.2990   32.6820   41.0220 N   0  0  0  0  0  0  0  0  0  0  0  0
   39.5330   33.9060   40.4770 C   0  0  0  0  0  0  0  0  0  0  0  0
   40.3960   34.0250   39.4430 N   0  0  0  0  0  0  0  0  0  0  0  0
   41.2980   30.7810   39.1130 H   0  0  0  0  0  0  0  0  0  0  0  0
   39.0660   34.8180   40.8190 H   0  0  0  0  0  0  0  0  0  0  0  0
   41.9580   33.0780   37.8110 C   0  0  0  0  0  0  0  0  0  0  0  0
   41.5520   32.1920   36.8400 F   0  0  0  0  0  0  0  0  0  0  0  0
   43.2020   32.6810   38.2550 F   0  0  0  0  0  0  0  0  0  0  0  0
   41.9540   34.3490   37.3160 F   0  0  0  0  0  0  0  0  0  0  0  0
   37.9950   28.9120   42.5450 C   0  0  0  0  0  0  0  0  0  0  0  0
   37.3210   28.4670   43.6800 C   0  0  0  0  0  0  0  0  0  0  0  0
   36.8760   27.2210   43.2590 C   0  0  0  0  0  0  0  0  0  0  0  0
   37.2690   26.9580   41.9540 C   0  0  0  0  0  0  0  0  0  0  0  0
   37.9330   28.0210   41.6060 O   0  0  0  0  0  0  0  0  0  0  0  0
   37.2090   28.9900   44.6050 H   0  0  0  0  0  0  0  0  0  0  0  0
   36.2860   26.5430   43.8950 H   0  0  0  0  0  0  0  0  0  0  0  0
   36.9520   25.7110   41.2100 C   0  0  0  0  0  2  0  0  0  0  0  0
   37.1920   24.5070   42.0880 C   0  0  0  0  0  2  0  0  0  0  0  0
   36.3790   24.3010   42.8030 H   0  0  0  0  0  0  0  0  0  0  0  0
  1  4  1  6  0  0  0
  1  3  1  0  0  0  0
  1  2  1  0  0  0  0
  2  6  1  0  0  0  0
  2  5  1  0  0  0  0
  3  2  1  0  0  0  0
  3 20  1  0  0  0  0
  3  7  1  1  0  0  0
  8 13  2  0  0  0  0
  8  9  1  0  0  0  0
  9 10  2  0  0  0  0
 10 11  1  0  0  0  0
 10  1  1  0  0  0  0
 12 15  1  0  0  0  0
 12 11  2  0  0  0  0
 13 12  1  0  0  0  0
 14  9  1  0  0  0  0
 16 18  1  0  0  0  0
 16  8  1  0  0  0  0
 17 16  1  0  0  0  0
 19 16  1  0  0  0  0
 20 21  2  0  0  0  0
 21 25  1  0  0  0  0
 22 21  1  0  0  0  0
 22 26  1  0  0  0  0
 23 22  2  0  0  0  0
 24 23  1  0  0  0  0
 24 20  1  0  0  0  0
 27 23  1  0  0  0  0
 27 28  1  0  0  0  0
 28 29  1  0  0  0  0
M  END
>  <minimizedAffinity>
-5.05695724

$$$$

 OpenBabel03252501173D

 29 31  0  0  1  0  0  0  0  0999 V2000
   37.8010   29.8900   39.1890 C   0  0  1  0  0  0  0  0  0  0  0  0
   36.8620   30.5640   38.2680 C   0  0  0  0  0  0  0  0  0  0  0  0
   37.0570   31.0220   39.7680 C   0  0  2  0  0  0  0  0  0  0  0  0
   38.9020   30.0050   39.0650 H   0  0  0  0  0  0  0  0  0  0  0  0
   35.8590   30.1640   38.0600 H   0  0  0  0  0  0  0  0  0  0  0  0
   37.2440   31.2560   37.4980 H   0  0  0  0  0  0  0  0  0  0  0  0
   36.1650   30.9000   40.3840 H   0  0  0  0  0  0  0  0  0  0  0  0
   37.0550   26.7730   41.1480 C   0  0  0  0  0  0  0  0  0  0  0  0
   37.4080   28.0880   40.9020 C   0  0  0  0  0  0  0  0  0  0  0  0
   37.4260   28.4970   39.5730 C   0  0  0  0  0  0  0  0  0  0  0  0
   37.1060   27.6180   38.5960 N   0  0  0  0  0  0  0  0  0  0  0  0
   36.7650   26.3330   38.8860 C   0  0  0  0  0  0  0  0  0  0  0  0
   36.7430   25.9200   40.1720 N   0  0  0  0  0  0  0  0  0  0  0  0
   37.6670   28.8010   41.6840 H   0  0  0  0  0  0  0  0  0  0  0  0
   36.5040   25.5960   38.1410 H   0  0  0  0  0  0  0  0  0  0  0  0
   37.0170   26.3130   42.5740 C   0  0  0  0  0  0  0  0  0  0  0  0
   38.3080   26.3360   43.0490 F   0  0  0  0  0  0  0  0  0  0  0  0
   36.5900   25.0010   42.5690 F   0  0  0  0  0  0  0  0  0  0  0  0
   36.2240   27.1220   43.3330 F   0  0  0  0  0  0  0  0  0  0  0  0
   37.8240   32.3050   39.8540 C   0  0  0  0  0  0  0  0  0  0  0  0
   37.3310   33.6030   39.7380 C   0  0  0  0  0  0  0  0  0  0  0  0
   38.4900   34.3480   39.9080 C   0  0  0  0  0  0  0  0  0  0  0  0
   39.5920   33.5310   40.1110 C   0  0  0  0  0  0  0  0  0  0  0  0
   39.1020   32.3270   40.0630 O   0  0  0  0  0  0  0  0  0  0  0  0
   36.3170   33.8900   39.5620 H   0  0  0  0  0  0  0  0  0  0  0  0
   38.5100   35.4500   39.8810 H   0  0  0  0  0  0  0  0  0  0  0  0
   40.9790   34.0180   40.3260 C   0  0  0  0  0  2  0  0  0  0  0  0
   41.6300   34.3350   39.0020 C   0  0  0  0  0  2  0  0  0  0  0  0
   41.3400   35.3110   38.5780 H   0  0  0  0  0  0  0  0  0  0  0  0
  1  4  1  6  0  0  0
  1 10  1  0  0  0  0
  1  3  1  0  0  0  0
  2  1  1  0  0  0  0
  2  3  1  0  0  0  0
  3 20  1  0  0  0  0
  3  7  1  1  0  0  0
  5  2  1  0  0  0  0
  6  2  1  0  0  0  0
  8 16  1  0  0  0  0
  9  8  1  0  0  0  0
  9 14  1  0  0  0  0
 10  9  2  0  0  0  0
 11 12  2  0  0  0  0
 11 10  1  0  0  0  0
 12 13  1  0  0  0  0
 13  8  2  0  0  0  0
 15 12  1  0  0  0  0
 16 17  1  0  0  0  0
 16 19  1  0  0  0  0
 18 16  1  0  0  0  0
 20 24  1  0  0  0  0
 21 20  2  0  0  0  0
 21 22  1  0  0  0  0
 22 23  2  0  0  0  0
 23 27  1  0  0  0  0
 24 23  1  0  0  0  0
 25 21  1  0  0  0  0
 26 22  1  0  0  0  0
 28 27  1  0  0  0  0
 29 28  1  0  0  0  0
M  END
>  <minimizedAffinity>
-5.02748775

$$$$

 OpenBabel03252501173D

 29 31  0  0  1  0  0  0  0  0999 V2000
   37.9890   29.8950   40.6040 C   0  0  1  0  0  0  0  0  0  0  0  0
   37.0790   30.2100   39.4830 C   0  0  0  0  0  0  0  0  0  0  0  0
   37.2120   31.1370   40.7560 C   0  0  2  0  0  0  0  0  0  0  0  0
   39.0930   29.9890   40.4860 H   0  0  0  0  0  0  0  0  0  0  0  0
   36.0900   29.7410   39.3860 H   0  0  0  0  0  0  0  0  0  0  0  0
   37.4830   30.6200   38.5420 H   0  0  0  0  0  0  0  0  0  0  0  0
   36.2980   31.2040   41.3490 H   0  0  0  0  0  0  0  0  0  0  0  0
   37.1390   26.3950   41.6680 C   0  0  0  0  0  0  0  0  0  0  0  0
   37.5000   27.4370   40.8330 C   0  0  0  0  0  0  0  0  0  0  0  0
   37.6150   28.6960   41.4110 C   0  0  0  0  0  0  0  0  0  0  0  0
   37.3760   28.8510   42.7330 N   0  0  0  0  0  0  0  0  0  0  0  0
   37.0230   27.7970   43.5160 C   0  0  0  0  0  0  0  0  0  0  0  0
   36.9070   26.5660   42.9700 N   0  0  0  0  0  0  0  0  0  0  0  0
   37.6930   27.3180   39.7670 H   0  0  0  0  0  0  0  0  0  0  0  0
   36.8220   27.8730   44.5750 H   0  0  0  0  0  0  0  0  0  0  0  0
   37.0200   25.0250   41.0690 C   0  0  0  0  0  0  0  0  0  0  0  0
   36.2510   24.2680   41.9230 F   0  0  0  0  0  0  0  0  0  0  0  0
   38.2870   24.4800   41.0430 F   0  0  0  0  0  0  0  0  0  0  0  0
   36.4410   25.0740   39.8360 F   0  0  0  0  0  0  0  0  0  0  0  0
   37.9610   32.3950   40.4420 C   0  0  0  0  0  0  0  0  0  0  0  0
   37.4730   33.5500   39.8340 C   0  0  0  0  0  0  0  0  0  0  0  0
   38.6070   34.3490   39.8200 C   0  0  0  0  0  0  0  0  0  0  0  0
   39.6920   33.6970   40.3880 C   0  0  0  0  0  0  0  0  0  0  0  0
   39.2160   32.5360   40.7310 O   0  0  0  0  0  0  0  0  0  0  0  0
   36.4760   33.7190   39.4880 H   0  0  0  0  0  0  0  0  0  0  0  0
   38.6230   35.3690   39.4060 H   0  0  0  0  0  0  0  0  0  0  0  0
   41.0530   34.2790   40.5270 C   0  0  0  0  0  2  0  0  0  0  0  0
   42.0350   33.2100   40.9400 C   0  0  0  0  0  2  0  0  0  0  0  0
   42.3800   32.5690   40.1120 H   0  0  0  0  0  0  0  0  0  0  0  0
  1  4  1  6  0  0  0
  1  3  1  0  0  0  0
  1 10  1  0  0  0  0
  2  1  1  0  0  0  0
  2  3  1  0  0  0  0
  3  7  1  1  0  0  0
  5  2  1  0  0  0  0
  6  2  1  0  0  0  0
  8 13  1  0  0  0  0
  9 10  1  0  0  0  0
  9  8  2  0  0  0  0
 10 11  2  0  0  0  0
 11 12  1  0  0  0  0
 12 15  1  0  0  0  0
 13 12  2  0  0  0  0
 14  9  1  0  0  0  0
 16  8  1  0  0  0  0
 16 17  1  0  0  0  0
 18 16  1  0  0  0  0
 19 16  1  0  0  0  0
 20 24  1  0  0  0  0
 20  3  1  0  0  0  0
 21 20  2  0  0  0  0
 22 21  1  0  0  0  0
 22 23  2  0  0  0  0
 23 27  1  0  0  0  0
 23 24  1  0  0  0  0
 25 21  1  0  0  0  0
 26 22  1  0  0  0  0
 27 28  1  0  0  0  0
 29 28  1  0  0  0  0
M  END
>  <minimizedAffinity>
-4.94800758

$$$$

 OpenBabel03252501173D

 29 31  0  0  1  0  0  0  0  0999 V2000
   37.2870   28.4950   41.6770 C   0  0  1  0  0  0  0  0  0  0  0  0
   35.9320   28.5390   41.0890 C   0  0  0  0  0  0  0  0  0  0  0  0
   37.1030   27.6820   40.4630 C   0  0  2  0  0  0  0  0  0  0  0  0
   37.4760   27.9580   42.6350 H   0  0  0  0  0  0  0  0  0  0  0  0
   35.6020   29.3650   40.4440 H   0  0  0  0  0  0  0  0  0  0  0  0
   35.1100   27.9670   41.5520 H   0  0  0  0  0  0  0  0  0  0  0  0
   37.4070   28.0130   39.4680 H   0  0  0  0  0  0  0  0  0  0  0  0
   38.5570   31.8720   40.6310 C   0  0  0  0  0  0  0  0  0  0  0  0
   37.7750   30.7310   40.6280 C   0  0  0  0  0  0  0  0  0  0  0  0
   38.0590   29.7700   41.5930 C   0  0  0  0  0  0  0  0  0  0  0  0
   39.0620   29.9820   42.4740 N   0  0  0  0  0  0  0  0  0  0  0  0
   39.8060   31.1200   42.4390 C   0  0  0  0  0  0  0  0  0  0  0  0
   39.5420   32.0640   41.5080 N   0  0  0  0  0  0  0  0  0  0  0  0
   36.9650   30.5540   39.9200 H   0  0  0  0  0  0  0  0  0  0  0  0
   40.6160   31.3330   43.1210 H   0  0  0  0  0  0  0  0  0  0  0  0
   38.2600   32.9270   39.6080 C   0  0  0  0  0  0  0  0  0  0  0  0
   37.0270   33.4590   39.9100 F   0  0  0  0  0  0  0  0  0  0  0  0
   38.1620   32.2940   38.3860 F   0  0  0  0  0  0  0  0  0  0  0  0
   39.2080   33.9070   39.6200 F   0  0  0  0  0  0  0  0  0  0  0  0
   36.9020   26.2180   40.7060 C   0  0  0  0  0  0  0  0  0  0  0  0
   37.1050   25.5130   41.8910 C   0  0  0  0  0  0  0  0  0  0  0  0
   36.7540   24.2280   41.5040 C   0  0  0  0  0  0  0  0  0  0  0  0
   36.3690   24.1870   40.1720 C   0  0  0  0  0  0  0  0  0  0  0  0
   36.4880   25.4200   39.7730 O   0  0  0  0  0  0  0  0  0  0  0  0
   37.4450   25.9120   42.8220 H   0  0  0  0  0  0  0  0  0  0  0  0
   36.7850   23.3620   42.1850 H   0  0  0  0  0  0  0  0  0  0  0  0
   35.9340   22.9610   39.4530 C   0  0  0  0  0  2  0  0  0  0  0  0
   34.5010   23.1040   39.0020 C   0  0  0  0  0  2  0  0  0  0  0  0
   34.3740   23.7030   38.0850 H   0  0  0  0  0  0  0  0  0  0  0  0
  1  4  1  1  0  0  0
  2  6  1  0  0  0  0
  2  1  1  0  0  0  0
  3  7  1  6  0  0  0
  3 20  1  0  0  0  0
  3  2  1  0  0  0  0
  3  1  1  0  0  0  0
  5  2  1  0  0  0  0
  8 13  1  0  0  0  0
  9  8  2  0  0  0  0
  9 10  1  0  0  0  0
 10  1  1  0  0  0  0
 10 11  2  0  0  0  0
 12 11  1  0  0  0  0
 12 15  1  0  0  0  0
 13 12  2  0  0  0  0
 14  9  1  0  0  0  0
 16 19  1  0  0  0  0
 16 17  1  0  0  0  0
 16  8  1  0  0  0  0
 18 16  1  0  0  0  0
 20 21  2  0  0  0  0
 21 25  1  0  0  0  0
 22 21  1  0  0  0  0
 22 26  1  0  0  0  0
 23 22  2  0  0  0  0
 24 23  1  0  0  0  0
 24 20  1  0  0  0  0
 27 23  1  0  0  0  0
 28 27  1  0  0  0  0
 29 28  1  0  0  0  0
M  END
>  <minimizedAffinity>
-4.92169094

$$$$

 OpenBabel03252501173D

 29 31  0  0  1  0  0  0  0  0999 V2000
   37.5930   28.7310   41.0580 C   0  0  1  0  0  0  0  0  0  0  0  0
   36.2050   28.3760   41.4250 C   0  0  0  0  0  0  0  0  0  0  0  0
   37.0560   27.5270   40.3990 C   0  0  2  0  0  0  0  0  0  0  0  0
   38.4270   28.5930   41.7830 H   0  0  0  0  0  0  0  0  0  0  0  0
   35.3370   28.8710   40.9670 H   0  0  0  0  0  0  0  0  0  0  0  0
   35.9960   27.8940   42.3940 H   0  0  0  0  0  0  0  0  0  0  0  0
   36.6520   27.5290   39.3850 H   0  0  0  0  0  0  0  0  0  0  0  0
   38.6300   32.1490   39.8960 C   0  0  0  0  0  0  0  0  0  0  0  0
   38.5710   31.0210   40.6960 C   0  0  0  0  0  0  0  0  0  0  0  0
   37.7410   29.9900   40.2700 C   0  0  0  0  0  0  0  0  0  0  0  0
   37.0410   30.1240   39.1210 N   0  0  0  0  0  0  0  0  0  0  0  0
   37.1290   31.2530   38.3670 C   0  0  0  0  0  0  0  0  0  0  0  0
   37.9310   32.2640   38.7670 N   0  0  0  0  0  0  0  0  0  0  0  0
   39.1330   30.9070   41.6230 H   0  0  0  0  0  0  0  0  0  0  0  0
   36.5890   31.4050   37.4440 H   0  0  0  0  0  0  0  0  0  0  0  0
   39.5280   33.2690   40.3290 C   0  0  0  0  0  0  0  0  0  0  0  0
   40.5060   32.7260   41.1300 F   0  0  0  0  0  0  0  0  0  0  0  0
   38.7710   34.1230   41.1040 F   0  0  0  0  0  0  0  0  0  0  0  0
   40.0930   33.8920   39.2560 F   0  0  0  0  0  0  0  0  0  0  0  0
   37.4980   26.2280   40.9960 C   0  0  0  0  0  0  0  0  0  0  0  0
   36.9160   24.9720   40.8340 C   0  0  0  0  0  0  0  0  0  0  0  0
   37.7560   24.1830   41.6080 C   0  0  0  0  0  0  0  0  0  0  0  0
   38.7680   24.9360   42.1860 C   0  0  0  0  0  0  0  0  0  0  0  0
   38.5360   26.1460   41.7670 O   0  0  0  0  0  0  0  0  0  0  0  0
   36.0490   24.7380   40.2550 H   0  0  0  0  0  0  0  0  0  0  0  0
   37.6190   23.0970   41.7350 H   0  0  0  0  0  0  0  0  0  0  0  0
   39.8300   24.3900   43.0700 C   0  0  0  0  0  2  0  0  0  0  0  0
   40.6280   25.5170   43.6790 C   0  0  0  0  0  2  0  0  0  0  0  0
   40.1410   26.0010   44.5420 H   0  0  0  0  0  0  0  0  0  0  0  0
  1  2  1  0  0  0  0
  1  4  1  1  0  0  0
  2  6  1  0  0  0  0
  3  7  1  6  0  0  0
  3 20  1  0  0  0  0
  3  1  1  0  0  0  0
  3  2  1  0  0  0  0
  5  2  1  0  0  0  0
  8 16  1  0  0  0  0
  8  9  1  0  0  0  0
  9 14  1  0  0  0  0
 10  9  2  0  0  0  0
 10  1  1  0  0  0  0
 11 10  1  0  0  0  0
 12 13  1  0  0  0  0
 12 11  2  0  0  0  0
 13  8  2  0  0  0  0
 15 12  1  0  0  0  0
 16 18  1  0  0  0  0
 16 17  1  0  0  0  0
 19 16  1  0  0  0  0
 20 24  1  0  0  0  0
 21 20  2  0  0  0  0
 21 22  1  0  0  0  0
 22 26  1  0  0  0  0
 22 23  2  0  0  0  0
 23 27  1  0  0  0  0
 24 23  1  0  0  0  0
 25 21  1  0  0  0  0
 27 28  1  0  0  0  0
 28 29  1  0  0  0  0
M  END
>  <minimizedAffinity>
-4.77811241

$$$$

 OpenBabel03252501173D

 29 31  0  0  1  0  0  0  0  0999 V2000
   34.8360   28.2730   38.0710 C   0  0  1  0  0  0  0  0  0  0  0  0
   35.6370   29.5140   38.1320 C   0  0  0  0  0  0  0  0  0  0  0  0
   34.9370   28.8910   39.4040 C   0  0  2  0  0  0  0  0  0  0  0  0
   35.3280   27.2840   37.9220 H   0  0  0  0  0  0  0  0  0  0  0  0
   35.2230   30.4900   37.8400 H   0  0  0  0  0  0  0  0  0  0  0  0
   36.7380   29.4620   38.1130 H   0  0  0  0  0  0  0  0  0  0  0  0
   34.1570   29.5240   39.8310 H   0  0  0  0  0  0  0  0  0  0  0  0
   31.5350   29.4590   36.7270 C   0  0  0  0  0  0  0  0  0  0  0  0
   32.7010   29.4640   37.4720 C   0  0  0  0  0  0  0  0  0  0  0  0
   33.5550   28.3780   37.3110 C   0  0  0  0  0  0  0  0  0  0  0  0
   33.2230   27.3850   36.4560 N   0  0  0  0  0  0  0  0  0  0  0  0
   32.0650   27.4220   35.7450 C   0  0  0  0  0  0  0  0  0  0  0  0
   31.2240   28.4700   35.8890 N   0  0  0  0  0  0  0  0  0  0  0  0
   32.9730   30.2610   38.1630 H   0  0  0  0  0  0  0  0  0  0  0  0
   31.7580   26.6530   35.0510 H   0  0  0  0  0  0  0  0  0  0  0  0
   30.6040   30.6250   36.8740 C   0  0  0  0  0  0  0  0  0  0  0  0
   29.3850   30.2460   36.3610 F   0  0  0  0  0  0  0  0  0  0  0  0
   31.0980   31.6430   36.0860 F   0  0  0  0  0  0  0  0  0  0  0  0
   30.4690   30.9880   38.1820 F   0  0  0  0  0  0  0  0  0  0  0  0
   35.9340   28.2560   40.3230 C   0  0  0  0  0  0  0  0  0  0  0  0
   36.5850   27.0340   40.1630 C   0  0  0  0  0  0  0  0  0  0  0  0
   37.3690   26.9940   41.3070 C   0  0  0  0  0  0  0  0  0  0  0  0
   37.1850   28.1270   42.0870 C   0  0  0  0  0  0  0  0  0  0  0  0
   36.3110   28.8250   41.4240 O   0  0  0  0  0  0  0  0  0  0  0  0
   36.4700   26.3490   39.3510 H   0  0  0  0  0  0  0  0  0  0  0  0
   38.0460   26.1590   41.5470 H   0  0  0  0  0  0  0  0  0  0  0  0
   37.8780   28.3900   43.3750 C   0  0  0  0  0  2  0  0  0  0  0  0
   38.8490   27.2760   43.6800 C   0  0  0  0  0  2  0  0  0  0  0  0
   39.8060   27.3500   43.1360 H   0  0  0  0  0  0  0  0  0  0  0  0
  1  4  1  6  0  0  0
  1  2  1  0  0  0  0
  1  3  1  0  0  0  0
  2  3  1  0  0  0  0
  3  7  1  1  0  0  0
  3 20  1  0  0  0  0
  5  2  1  0  0  0  0
  6  2  1  0  0  0  0
  8 16  1  0  0  0  0
  8  9  1  0  0  0  0
  9 14  1  0  0  0  0
 10  9  2  0  0  0  0
 10  1  1  0  0  0  0
 11 10  1  0  0  0  0
 12 13  1  0  0  0  0
 12 11  2  0  0  0  0
 13  8  2  0  0  0  0
 15 12  1  0  0  0  0
 16 19  1  0  0  0  0
 17 16  1  0  0  0  0
 18 16  1  0  0  0  0
 20 24  1  0  0  0  0
 21 20  2  0  0  0  0
 21 22  1  0  0  0  0
 22 26  1  0  0  0  0
 22 23  2  0  0  0  0
 23 27  1  0  0  0  0
 24 23  1  0  0  0  0
 25 21  1  0  0  0  0
 27 28  1  0  0  0  0
 29 28  1  0  0  0  0
M  END
>  <minimizedAffinity>
-4.77260685

$$$$
