
 OpenBabel03252503213D

 34 37  0  0  1  0  0  0  0  0999 V2000
   46.5770   33.2360   43.5210 C   0  0  1  0  0  0  0  0  0  0  0  0
   46.7590   34.6060   43.0840 C   0  0  0  0  0  0  0  0  0  0  0  0
   47.9650   33.7030   43.1050 C   0  0  2  0  0  0  0  0  0  0  0  0
   46.1610   32.4040   42.8930 H   0  0  0  0  0  0  0  0  0  0  0  0
   46.7440   35.3920   43.8510 H   0  0  0  0  0  0  0  0  0  0  0  0
   46.3740   34.9190   42.0870 H   0  0  0  0  0  0  0  0  0  0  0  0
   48.7060   33.8360   43.9030 H   0  0  0  0  0  0  0  0  0  0  0  0
   48.4230   33.2070   41.7810 C   0  0  0  0  0  0  0  0  0  0  0  0
   49.1570   32.0450   41.5910 C   0  0  0  0  0  0  0  0  0  0  0  0
   49.5360   31.6310   40.3220 C   0  0  0  0  0  0  0  0  0  0  0  0
   49.1820   32.3760   39.2200 C   0  0  0  0  0  0  0  0  0  0  0  0
   49.5350   32.0000   37.9620 N   0  0  0  0  0  0  0  0  0  0  0  0
   49.1810   32.7420   36.8890 C   0  0  0  0  0  0  0  0  0  0  0  0
   48.4380   33.9310   36.9850 C   0  0  0  0  0  0  0  0  0  0  0  0
   48.0680   34.3330   38.2580 C   0  0  0  0  0  0  0  0  0  0  0  0
   48.4470   33.5450   39.3530 C   0  0  0  0  0  0  0  0  0  0  0  0
   48.0940   33.9220   40.6390 C   0  0  0  0  0  0  0  0  0  0  0  0
   49.4270   31.4700   42.4650 H   0  0  0  0  0  0  0  0  0  0  0  0
   50.1100   30.7200   40.1950 H   0  0  0  0  0  0  0  0  0  0  0  0
   49.4410   32.4790   35.8780 H   0  0  0  0  0  0  0  0  0  0  0  0
   48.1680   34.5010   36.1150 H   0  0  0  0  0  0  0  0  0  0  0  0
   47.5020   35.2300   38.3720 H   0  0  0  0  0  0  0  0  0  0  0  0
   47.5350   34.8600   40.6460 H   0  0  0  0  0  0  0  0  0  0  0  0
   45.5330   33.7240   45.7560 C   0  0  0  0  0  0  0  0  0  0  0  0
   46.3720   32.9100   44.9560 C   0  0  0  0  0  0  0  0  0  0  0  0
   46.9940   31.8300   45.5520 C   0  0  0  0  0  0  0  0  0  0  0  0
   46.7580   31.6190   46.8770 N   0  0  0  0  0  0  0  0  0  0  0  0
   45.9590   32.4010   47.6230 C   0  0  0  0  0  0  0  0  0  0  0  0
   45.3420   33.4630   47.0570 N   0  0  0  0  0  0  0  0  0  0  0  0
   45.0700   34.5560   45.2410 H   0  0  0  0  0  0  0  0  0  0  0  0
   47.6430   31.1780   44.9830 H   0  0  0  0  0  0  0  0  0  0  0  0
   45.7130   32.1590   49.0620 C   0  0  0  0  0  0  0  0  0  0  0  0
   45.1970   30.7580   49.3320 C   0  0  0  0  0  0  0  0  0  0  0  0
   46.0650   30.0380   49.2720 H   0  0  0  0  0  0  0  0  0  0  0  0
  1  4  1  6  0  0  0
  1 25  1  0  0  0  0
  2  3  1  0  0  0  0
  2  1  1  0  0  0  0
  2  5  1  0  0  0  0
  3  1  1  0  0  0  0
  3  7  1  1  0  0  0
  6  2  1  0  0  0  0
  8  3  1  0  0  0  0
  9  8  1  0  0  0  0
  9 18  1  0  0  0  0
 10  9  2  0  0  0  0
 11 16  1  0  0  0  0
 11 10  1  0  0  0  0
 12 11  2  0  0  0  0
 13 14  2  0  0  0  0
 13 12  1  0  0  0  0
 14 15  1  0  0  0  0
 15 22  1  0  0  0  0
 15 16  2  0  0  0  0
 16 17  1  0  0  0  0
 17 23  1  0  0  0  0
 17  8  2  0  0  0  0
 19 10  1  0  0  0  0
 20 13  1  0  0  0  0
 21 14  1  0  0  0  0
 24 29  1  0  0  0  0
 25 26  1  0  0  0  0
 25 24  2  0  0  0  0
 26 27  2  0  0  0  0
 27 28  1  0  0  0  0
 28 32  1  0  0  0  0
 29 28  2  0  0  0  0
 30 24  1  0  0  0  0
 31 26  1  0  0  0  0
 32 33  1  0  0  0  0
 34 33  1  0  0  0  0
M  END
>  <minimizedAffinity>
-5.3566618

>  <minimizedRMSD>
3.06415749

$$$$
