
 OpenBabel03252503223D

 34 37  0  0  1  0  0  0  0  0999 V2000
   34.4170   29.2760   37.7970 C   0  0  1  0  0  0  0  0  0  0  0  0
   34.3110   28.6190   36.5090 C   0  0  0  0  0  0  0  0  0  0  0  0
   33.0970   28.6280   37.4020 C   0  0  2  0  0  0  0  0  0  0  0  0
   34.3560   30.3840   37.9680 H   0  0  0  0  0  0  0  0  0  0  0  0
   34.8050   27.6440   36.3920 H   0  0  0  0  0  0  0  0  0  0  0  0
   34.2670   29.2340   35.5820 H   0  0  0  0  0  0  0  0  0  0  0  0
   32.8210   27.7020   37.9200 H   0  0  0  0  0  0  0  0  0  0  0  0
   32.0220   29.5800   37.0180 C   0  0  0  0  0  0  0  0  0  0  0  0
   31.0440   30.0470   37.8840 C   0  0  0  0  0  0  0  0  0  0  0  0
   30.0800   30.9510   37.4630 C   0  0  0  0  0  0  0  0  0  0  0  0
   30.0810   31.4040   36.1620 C   0  0  0  0  0  0  0  0  0  0  0  0
   29.1520   32.2900   35.7150 N   0  0  0  0  0  0  0  0  0  0  0  0
   29.1660   32.7250   34.4350 C   0  0  0  0  0  0  0  0  0  0  0  0
   30.1170   32.3080   33.4880 C   0  0  0  0  0  0  0  0  0  0  0  0
   31.0730   31.4050   33.9230 C   0  0  0  0  0  0  0  0  0  0  0  0
   31.0370   30.9690   35.2550 C   0  0  0  0  0  0  0  0  0  0  0  0
   31.9780   30.0650   35.7190 C   0  0  0  0  0  0  0  0  0  0  0  0
   31.0560   29.6840   38.9020 H   0  0  0  0  0  0  0  0  0  0  0  0
   29.3240   31.3040   38.1550 H   0  0  0  0  0  0  0  0  0  0  0  0
   28.4480   33.4250   34.0420 H   0  0  0  0  0  0  0  0  0  0  0  0
   30.1050   32.6710   32.4770 H   0  0  0  0  0  0  0  0  0  0  0  0
   31.8120   31.0640   33.2340 H   0  0  0  0  0  0  0  0  0  0  0  0
   32.6760   29.7680   34.9330 H   0  0  0  0  0  0  0  0  0  0  0  0
   35.1290   29.2310   40.2090 C   0  0  0  0  0  0  0  0  0  0  0  0
   35.1700   28.6530   38.9160 C   0  0  0  0  0  0  0  0  0  0  0  0
   35.9340   27.5160   38.7330 C   0  0  0  0  0  0  0  0  0  0  0  0
   36.6020   27.0250   39.8150 N   0  0  0  0  0  0  0  0  0  0  0  0
   36.5540   27.5860   41.0350 C   0  0  0  0  0  0  0  0  0  0  0  0
   35.8100   28.6980   41.2330 N   0  0  0  0  0  0  0  0  0  0  0  0
   34.5160   30.1170   40.2980 H   0  0  0  0  0  0  0  0  0  0  0  0
   35.9970   27.0380   37.7660 H   0  0  0  0  0  0  0  0  0  0  0  0
   37.2850   27.0400   42.2000 C   0  0  0  0  0  2  0  0  0  0  0  0
   36.5820   27.3310   43.5120 C   0  0  0  0  0  2  0  0  0  0  0  0
   35.7120   26.6190   43.6180 H   0  0  0  0  0  0  0  0  0  0  0  0
  1  4  1  6  0  0  0
  1 25  1  0  0  0  0
  2  3  1  0  0  0  0
  2  1  1  0  0  0  0
  3  1  1  0  0  0  0
  3  7  1  1  0  0  0
  5  2  1  0  0  0  0
  6  2  1  0  0  0  0
  8  3  1  0  0  0  0
  8  9  1  0  0  0  0
  9 18  1  0  0  0  0
 10  9  2  0  0  0  0
 10 19  1  0  0  0  0
 11 10  1  0  0  0  0
 12 11  1  0  0  0  0
 13 12  2  0  0  0  0
 14 15  2  0  0  0  0
 14 13  1  0  0  0  0
 15 16  1  0  0  0  0
 16 17  1  0  0  0  0
 16 11  2  0  0  0  0
 17  8  2  0  0  0  0
 20 13  1  0  0  0  0
 21 14  1  0  0  0  0
 22 15  1  0  0  0  0
 23 17  1  0  0  0  0
 24 30  1  0  0  0  0
 24 29  1  0  0  0  0
 25 24  2  0  0  0  0
 26 25  1  0  0  0  0
 26 27  2  0  0  0  0
 27 28  1  0  0  0  0
 28 29  2  0  0  0  0
 28 32  1  0  0  0  0
 31 26  1  0  0  0  0
 32 33  1  0  0  0  0
 33 34  1  0  0  0  0
M  END
>  <minimizedAffinity>
-5.78372812

$$$$

 OpenBabel03252503223D

 34 37  0  0  1  0  0  0  0  0999 V2000
   38.4870   29.0620   41.8240 C   0  0  1  0  0  0  0  0  0  0  0  0
   38.0470   28.7030   43.1590 C   0  0  0  0  0  0  0  0  0  0  0  0
   37.1090   28.4430   42.0090 C   0  0  2  0  0  0  0  0  0  0  0  0
   39.1850   28.4570   41.1860 H   0  0  0  0  0  0  0  0  0  0  0  0
   37.7540   29.5180   43.8340 H   0  0  0  0  0  0  0  0  0  0  0  0
   38.4940   27.8160   43.6630 H   0  0  0  0  0  0  0  0  0  0  0  0
   36.2430   29.1050   41.8790 H   0  0  0  0  0  0  0  0  0  0  0  0
   36.9940   27.0250   41.5770 C   0  0  0  0  0  0  0  0  0  0  0  0
   37.1260   25.9350   42.4260 C   0  0  0  0  0  0  0  0  0  0  0  0
   36.9880   24.6370   41.9570 C   0  0  0  0  0  0  0  0  0  0  0  0
   36.7130   24.4100   40.6270 C   0  0  0  0  0  0  0  0  0  0  0  0
   36.5700   23.1510   40.1340 N   0  0  0  0  0  0  0  0  0  0  0  0
   36.3000   22.9430   38.8260 C   0  0  0  0  0  0  0  0  0  0  0  0
   36.1490   23.9850   37.8940 C   0  0  0  0  0  0  0  0  0  0  0  0
   36.2910   25.2760   38.3760 C   0  0  0  0  0  0  0  0  0  0  0  0
   36.5700   25.4640   39.7360 C   0  0  0  0  0  0  0  0  0  0  0  0
   36.7190   26.7420   40.2480 C   0  0  0  0  0  0  0  0  0  0  0  0
   37.3410   26.1290   43.4670 H   0  0  0  0  0  0  0  0  0  0  0  0
   37.0950   23.7990   42.6360 H   0  0  0  0  0  0  0  0  0  0  0  0
   36.1810   21.9630   38.3960 H   0  0  0  0  0  0  0  0  0  0  0  0
   35.9330   23.7910   36.8590 H   0  0  0  0  0  0  0  0  0  0  0  0
   36.1820   26.0940   37.7000 H   0  0  0  0  0  0  0  0  0  0  0  0
   36.6070   27.5040   39.4720 H   0  0  0  0  0  0  0  0  0  0  0  0
   39.7230   31.2390   41.5850 C   0  0  0  0  0  0  0  0  0  0  0  0
   38.5410   30.4820   41.3910 C   0  0  0  0  0  0  0  0  0  0  0  0
   37.4550   31.1060   40.8070 C   0  0  0  0  0  0  0  0  0  0  0  0
   37.5930   32.4150   40.4570 N   0  0  0  0  0  0  0  0  0  0  0  0
   38.7210   33.1210   40.6490 C   0  0  0  0  0  0  0  0  0  0  0  0
   39.7950   32.5270   41.2180 N   0  0  0  0  0  0  0  0  0  0  0  0
   40.5430   30.7040   42.0450 H   0  0  0  0  0  0  0  0  0  0  0  0
   36.5310   30.5700   40.6380 H   0  0  0  0  0  0  0  0  0  0  0  0
   38.8550   34.5420   40.2630 C   0  0  0  0  0  2  0  0  0  0  0  0
   40.2810   34.9110   39.8990 C   0  0  0  0  0  2  0  0  0  0  0  0
   40.4990   34.5210   38.8620 H   0  0  0  0  0  0  0  0  0  0  0  0
  1  4  1  6  0  0  0
  1  3  1  0  0  0  0
  1  2  1  0  0  0  0
  2  6  1  0  0  0  0
  2  5  1  0  0  0  0
  3  7  1  6  0  0  0
  3  2  1  0  0  0  0
  8  3  1  0  0  0  0
  8  9  1  0  0  0  0
  9 18  1  0  0  0  0
 10  9  2  0  0  0  0
 10 19  1  0  0  0  0
 11 10  1  0  0  0  0
 12 11  1  0  0  0  0
 13 12  2  0  0  0  0
 14 15  2  0  0  0  0
 14 13  1  0  0  0  0
 15 16  1  0  0  0  0
 16 17  1  0  0  0  0
 16 11  2  0  0  0  0
 17  8  2  0  0  0  0
 20 13  1  0  0  0  0
 21 14  1  0  0  0  0
 22 15  1  0  0  0  0
 23 17  1  0  0  0  0
 24 30  1  0  0  0  0
 25 24  1  0  0  0  0
 25  1  1  0  0  0  0
 26 25  2  0  0  0  0
 27 28  2  0  0  0  0
 27 26  1  0  0  0  0
 28 29  1  0  0  0  0
 29 24  2  0  0  0  0
 31 26  1  0  0  0  0
 32 28  1  0  0  0  0
 33 32  1  0  0  0  0
 34 33  1  0  0  0  0
M  END
>  <minimizedAffinity>
-5.6487422

$$$$

 OpenBabel03252503223D

 34 37  0  0  1  0  0  0  0  0999 V2000
   37.1470   27.3580   41.4660 C   0  0  1  0  0  0  0  0  0  0  0  0
   36.6920   27.7760   42.7780 C   0  0  0  0  0  0  0  0  0  0  0  0
   38.1300   28.0350   42.4100 C   0  0  2  0  0  0  0  0  0  0  0  0
   36.9660   27.9140   40.5080 H   0  0  0  0  0  0  0  0  0  0  0  0
   36.5310   26.9950   43.5330 H   0  0  0  0  0  0  0  0  0  0  0  0
   36.0220   28.6610   42.8690 H   0  0  0  0  0  0  0  0  0  0  0  0
   38.9080   27.4030   42.8580 H   0  0  0  0  0  0  0  0  0  0  0  0
   38.4650   29.4410   42.0640 C   0  0  0  0  0  0  0  0  0  0  0  0
   39.5690   30.1260   42.5510 C   0  0  0  0  0  0  0  0  0  0  0  0
   39.8320   31.4340   42.1700 C   0  0  0  0  0  0  0  0  0  0  0  0
   38.9900   32.0770   41.2910 C   0  0  0  0  0  0  0  0  0  0  0  0
   39.2170   33.3590   40.8960 N   0  0  0  0  0  0  0  0  0  0  0  0
   38.3820   33.9780   40.0320 C   0  0  0  0  0  0  0  0  0  0  0  0
   37.2410   33.3630   39.4860 C   0  0  0  0  0  0  0  0  0  0  0  0
   36.9920   32.0580   39.8760 C   0  0  0  0  0  0  0  0  0  0  0  0
   37.8730   31.4390   40.7730 C   0  0  0  0  0  0  0  0  0  0  0  0
   37.6490   30.1350   41.1830 C   0  0  0  0  0  0  0  0  0  0  0  0
   40.2210   29.6080   43.2400 H   0  0  0  0  0  0  0  0  0  0  0  0
   40.6990   31.9520   42.5630 H   0  0  0  0  0  0  0  0  0  0  0  0
   38.5260   34.9900   39.6950 H   0  0  0  0  0  0  0  0  0  0  0  0
   36.5950   33.8790   38.8000 H   0  0  0  0  0  0  0  0  0  0  0  0
   36.1360   31.5570   39.4830 H   0  0  0  0  0  0  0  0  0  0  0  0
   36.7410   29.7210   40.7390 H   0  0  0  0  0  0  0  0  0  0  0  0
   37.9570   25.5480   39.9190 C   0  0  0  0  0  0  0  0  0  0  0  0
   37.3810   25.9230   41.1580 C   0  0  0  0  0  0  0  0  0  0  0  0
   37.0370   24.9230   42.0470 C   0  0  0  0  0  0  0  0  0  0  0  0
   37.2750   23.6360   41.6700 N   0  0  0  0  0  0  0  0  0  0  0  0
   37.8220   23.2950   40.4910 C   0  0  0  0  0  0  0  0  0  0  0  0
   38.1660   24.2610   39.6070 N   0  0  0  0  0  0  0  0  0  0  0  0
   38.2090   26.3680   39.2600 H   0  0  0  0  0  0  0  0  0  0  0  0
   36.5950   25.1590   43.0050 H   0  0  0  0  0  0  0  0  0  0  0  0
   38.0740   21.8920   40.0970 C   0  0  0  0  0  2  0  0  0  0  0  0
   37.9980   21.6900   38.5950 C   0  0  0  0  0  2  0  0  0  0  0  0
   38.9510   22.0810   38.1320 H   0  0  0  0  0  0  0  0  0  0  0  0
  1  4  1  6  0  0  0
  1  3  1  0  0  0  0
  1  2  1  0  0  0  0
  2  6  1  0  0  0  0
  2  5  1  0  0  0  0
  3  2  1  0  0  0  0
  3  7  1  1  0  0  0
  8  3  1  0  0  0  0
  8  9  1  0  0  0  0
  9 18  1  0  0  0  0
 10  9  2  0  0  0  0
 10 19  1  0  0  0  0
 11 10  1  0  0  0  0
 12 11  1  0  0  0  0
 13 12  2  0  0  0  0
 14 15  2  0  0  0  0
 14 13  1  0  0  0  0
 15 16  1  0  0  0  0
 16 17  1  0  0  0  0
 16 11  2  0  0  0  0
 17  8  2  0  0  0  0
 20 13  1  0  0  0  0
 21 14  1  0  0  0  0
 22 15  1  0  0  0  0
 23 17  1  0  0  0  0
 24 25  1  0  0  0  0
 25  1  1  0  0  0  0
 25 26  2  0  0  0  0
 26 31  1  0  0  0  0
 27 26  1  0  0  0  0
 28 27  2  0  0  0  0
 29 24  2  0  0  0  0
 29 28  1  0  0  0  0
 30 24  1  0  0  0  0
 32 28  1  0  0  0  0
 33 32  1  0  0  0  0
 34 33  1  0  0  0  0
M  END
>  <minimizedAffinity>
-5.58760595

$$$$

 OpenBabel03252503223D

 34 37  0  0  1  0  0  0  0  0999 V2000
   33.6920   28.5930   37.8350 C   0  0  1  0  0  0  0  0  0  0  0  0
   34.7350   27.6720   37.4260 C   0  0  0  0  0  0  0  0  0  0  0  0
   35.1410   29.0600   37.8490 C   0  0  2  0  0  0  0  0  0  0  0  0
   33.1930   28.6030   38.8410 H   0  0  0  0  0  0  0  0  0  0  0  0
   34.8320   27.4570   36.3530 H   0  0  0  0  0  0  0  0  0  0  0  0
   35.0180   26.8310   38.0980 H   0  0  0  0  0  0  0  0  0  0  0  0
   35.4410   29.7770   37.0750 H   0  0  0  0  0  0  0  0  0  0  0  0
   35.7520   29.1700   39.1990 C   0  0  0  0  0  0  0  0  0  0  0  0
   35.9480   30.3660   39.8750 C   0  0  0  0  0  0  0  0  0  0  0  0
   36.5080   30.3930   41.1440 C   0  0  0  0  0  0  0  0  0  0  0  0
   36.8800   29.2180   41.7580 C   0  0  0  0  0  0  0  0  0  0  0  0
   37.4310   29.2080   43.0020 N   0  0  0  0  0  0  0  0  0  0  0  0
   37.7920   28.0470   43.5920 C   0  0  0  0  0  0  0  0  0  0  0  0
   37.6310   26.7890   42.9840 C   0  0  0  0  0  0  0  0  0  0  0  0
   37.0710   26.7780   41.7180 C   0  0  0  0  0  0  0  0  0  0  0  0
   36.7060   27.9950   41.1280 C   0  0  0  0  0  0  0  0  0  0  0  0
   36.1450   28.0160   39.8610 C   0  0  0  0  0  0  0  0  0  0  0  0
   35.6500   31.2790   39.3810 H   0  0  0  0  0  0  0  0  0  0  0  0
   36.6530   31.3380   41.6550 H   0  0  0  0  0  0  0  0  0  0  0  0
   38.2310   27.9950   44.5730 H   0  0  0  0  0  0  0  0  0  0  0  0
   37.9260   25.8810   43.4780 H   0  0  0  0  0  0  0  0  0  0  0  0
   36.9320   25.8430   41.2240 H   0  0  0  0  0  0  0  0  0  0  0  0
   36.0640   27.0120   39.4380 H   0  0  0  0  0  0  0  0  0  0  0  0
   33.1110   29.1750   35.4590 C   0  0  0  0  0  0  0  0  0  0  0  0
   32.7870   29.2180   36.8370 C   0  0  0  0  0  0  0  0  0  0  0  0
   31.6250   29.8640   37.2140 C   0  0  0  0  0  0  0  0  0  0  0  0
   30.8660   30.4210   36.2290 N   0  0  0  0  0  0  0  0  0  0  0  0
   31.1880   30.3720   34.9250 C   0  0  0  0  0  0  0  0  0  0  0  0
   32.3210   29.7440   34.5370 N   0  0  0  0  0  0  0  0  0  0  0  0
   34.0300   28.6570   35.2180 H   0  0  0  0  0  0  0  0  0  0  0  0
   31.3340   29.9240   38.2530 H   0  0  0  0  0  0  0  0  0  0  0  0
   30.3520   30.9830   33.8670 C   0  0  0  0  0  2  0  0  0  0  0  0
   30.5430   32.4850   33.7750 C   0  0  0  0  0  2  0  0  0  0  0  0
   31.5170   32.6910   33.2420 H   0  0  0  0  0  0  0  0  0  0  0  0
  1  3  1  0  0  0  0
  1  4  1  1  0  0  0
  2  1  1  0  0  0  0
  2  3  1  0  0  0  0
  2  6  1  0  0  0  0
  3  7  1  6  0  0  0
  3  8  1  0  0  0  0
  5  2  1  0  0  0  0
  8 17  2  0  0  0  0
  8  9  1  0  0  0  0
  9 10  2  0  0  0  0
 10 19  1  0  0  0  0
 10 11  1  0  0  0  0
 11 12  1  0  0  0  0
 12 13  2  0  0  0  0
 13 20  1  0  0  0  0
 14 21  1  0  0  0  0
 14 13  1  0  0  0  0
 15 14  2  0  0  0  0
 16 15  1  0  0  0  0
 16 11  2  0  0  0  0
 17 16  1  0  0  0  0
 18  9  1  0  0  0  0
 22 15  1  0  0  0  0
 23 17  1  0  0  0  0
 24 25  1  0  0  0  0
 25 26  2  0  0  0  0
 25  1  1  0  0  0  0
 26 31  1  0  0  0  0
 27 26  1  0  0  0  0
 28 27  2  0  0  0  0
 29 28  1  0  0  0  0
 29 24  2  0  0  0  0
 30 24  1  0  0  0  0
 32 28  1  0  0  0  0
 33 32  1  0  0  0  0
 34 33  1  0  0  0  0
M  END
>  <minimizedAffinity>
-5.55328035

$$$$

 OpenBabel03252503223D

 34 37  0  0  1  0  0  0  0  0999 V2000
   35.1850   28.8460   37.8410 C   0  0  1  0  0  0  0  0  0  0  0  0
   35.3060   28.0750   36.6180 C   0  0  0  0  0  0  0  0  0  0  0  0
   33.9520   28.1580   37.2720 C   0  0  2  0  0  0  0  0  0  0  0  0
   35.1070   29.9640   37.8980 H   0  0  0  0  0  0  0  0  0  0  0  0
   35.8020   27.0970   36.6790 H   0  0  0  0  0  0  0  0  0  0  0  0
   35.4360   28.6050   35.6470 H   0  0  0  0  0  0  0  0  0  0  0  0
   33.5760   27.2800   37.8130 H   0  0  0  0  0  0  0  0  0  0  0  0
   32.9730   29.0650   36.6180 C   0  0  0  0  0  0  0  0  0  0  0  0
   32.9970   29.4040   35.2720 C   0  0  0  0  0  0  0  0  0  0  0  0
   32.0380   30.2430   34.7230 C   0  0  0  0  0  0  0  0  0  0  0  0
   31.0370   30.7570   35.5160 C   0  0  0  0  0  0  0  0  0  0  0  0
   30.0810   31.5820   35.0110 N   0  0  0  0  0  0  0  0  0  0  0  0
   29.1040   32.0790   35.8020 C   0  0  0  0  0  0  0  0  0  0  0  0
   28.9990   31.7910   37.1730 C   0  0  0  0  0  0  0  0  0  0  0  0
   29.9630   30.9520   37.7080 C   0  0  0  0  0  0  0  0  0  0  0  0
   30.9660   30.4500   36.8670 C   0  0  0  0  0  0  0  0  0  0  0  0
   31.9450   29.6110   37.3720 C   0  0  0  0  0  0  0  0  0  0  0  0
   33.7880   28.9920   34.6630 H   0  0  0  0  0  0  0  0  0  0  0  0
   32.0750   30.4960   33.6700 H   0  0  0  0  0  0  0  0  0  0  0  0
   28.3300   32.7350   35.4410 H   0  0  0  0  0  0  0  0  0  0  0  0
   28.2110   32.1990   37.7790 H   0  0  0  0  0  0  0  0  0  0  0  0
   29.9180   30.7090   38.7460 H   0  0  0  0  0  0  0  0  0  0  0  0
   31.8180   29.4400   38.4440 H   0  0  0  0  0  0  0  0  0  0  0  0
   35.4640   29.0290   40.3330 C   0  0  0  0  0  0  0  0  0  0  0  0
   35.7180   28.3290   39.1270 C   0  0  0  0  0  0  0  0  0  0  0  0
   36.4760   27.1760   39.1900 C   0  0  0  0  0  0  0  0  0  0  0  0
   36.9340   26.7880   40.4130 N   0  0  0  0  0  0  0  0  0  0  0  0
   36.6860   27.4640   41.5480 C   0  0  0  0  0  0  0  0  0  0  0  0
   35.9440   28.5940   41.5070 N   0  0  0  0  0  0  0  0  0  0  0  0
   34.8650   29.9240   40.2290 H   0  0  0  0  0  0  0  0  0  0  0  0
   36.6970   26.6060   38.2980 H   0  0  0  0  0  0  0  0  0  0  0  0
   37.1910   27.0290   42.8690 C   0  0  0  0  0  2  0  0  0  0  0  0
   37.2720   28.1730   43.8620 C   0  0  0  0  0  2  0  0  0  0  0  0
   36.2310   28.3950   44.2380 H   0  0  0  0  0  0  0  0  0  0  0  0
  1  4  1  6  0  0  0
  1 25  1  0  0  0  0
  2  5  1  0  0  0  0
  2  3  1  0  0  0  0
  2  1  1  0  0  0  0
  3  7  1  1  0  0  0
  3  1  1  0  0  0  0
  6  2  1  0  0  0  0
  8  3  1  0  0  0  0
  8 17  1  0  0  0  0
  9  8  2  0  0  0  0
 10  9  1  0  0  0  0
 10 11  2  0  0  0  0
 11 16  1  0  0  0  0
 12 11  1  0  0  0  0
 12 13  2  0  0  0  0
 13 14  1  0  0  0  0
 14 15  2  0  0  0  0
 14 21  1  0  0  0  0
 15 22  1  0  0  0  0
 16 17  2  0  0  0  0
 16 15  1  0  0  0  0
 17 23  1  0  0  0  0
 18  9  1  0  0  0  0
 19 10  1  0  0  0  0
 20 13  1  0  0  0  0
 24 29  1  0  0  0  0
 25 26  1  0  0  0  0
 25 24  2  0  0  0  0
 26 27  2  0  0  0  0
 27 28  1  0  0  0  0
 28 32  1  0  0  0  0
 29 28  2  0  0  0  0
 30 24  1  0  0  0  0
 31 26  1  0  0  0  0
 32 33  1  0  0  0  0
 33 34  1  0  0  0  0
M  END
>  <minimizedAffinity>
-5.53701067

$$$$

 OpenBabel03252503223D

 34 37  0  0  1  0  0  0  0  0999 V2000
   37.0560   29.2790   39.9420 C   0  0  1  0  0  0  0  0  0  0  0  0
   35.8960   30.0640   40.3180 C   0  0  0  0  0  0  0  0  0  0  0  0
   37.1840   30.3010   41.0630 C   0  0  2  0  0  0  0  0  0  0  0  0
   37.7160   29.4790   39.0560 H   0  0  0  0  0  0  0  0  0  0  0  0
   35.1050   29.5610   40.8900 H   0  0  0  0  0  0  0  0  0  0  0  0
   35.5410   30.8750   39.6430 H   0  0  0  0  0  0  0  0  0  0  0  0
   37.2780   29.9120   42.0840 H   0  0  0  0  0  0  0  0  0  0  0  0
   37.9200   31.5410   40.7010 C   0  0  0  0  0  0  0  0  0  0  0  0
   37.3290   32.6730   40.1600 C   0  0  0  0  0  0  0  0  0  0  0  0
   38.0750   33.8040   39.8640 C   0  0  0  0  0  0  0  0  0  0  0  0
   39.4300   33.8190   40.1070 C   0  0  0  0  0  0  0  0  0  0  0  0
   40.1920   34.9110   39.8300 N   0  0  0  0  0  0  0  0  0  0  0  0
   41.5220   34.9100   40.0740 C   0  0  0  0  0  0  0  0  0  0  0  0
   42.2060   33.8110   40.6200 C   0  0  0  0  0  0  0  0  0  0  0  0
   41.4480   32.6880   40.9100 C   0  0  0  0  0  0  0  0  0  0  0  0
   40.0720   32.7140   40.6480 C   0  0  0  0  0  0  0  0  0  0  0  0
   39.2870   31.6070   40.9260 C   0  0  0  0  0  0  0  0  0  0  0  0
   36.2650   32.6470   39.9760 H   0  0  0  0  0  0  0  0  0  0  0  0
   37.5940   34.6780   39.4410 H   0  0  0  0  0  0  0  0  0  0  0  0
   42.1600   35.7530   39.8680 H   0  0  0  0  0  0  0  0  0  0  0  0
   43.2640   33.8380   40.8060 H   0  0  0  0  0  0  0  0  0  0  0  0
   41.9310   31.8330   41.3270 H   0  0  0  0  0  0  0  0  0  0  0  0
   39.8800   30.7830   41.3310 H   0  0  0  0  0  0  0  0  0  0  0  0
   36.9390   27.4410   41.6540 C   0  0  0  0  0  0  0  0  0  0  0  0
   37.1650   27.8450   40.3150 C   0  0  0  0  0  0  0  0  0  0  0  0
   37.4980   26.8760   39.3880 C   0  0  0  0  0  0  0  0  0  0  0  0
   37.5890   25.5900   39.8260 N   0  0  0  0  0  0  0  0  0  0  0  0
   37.3730   25.2210   41.1010 C   0  0  0  0  0  0  0  0  0  0  0  0
   37.0450   26.1560   42.0220 N   0  0  0  0  0  0  0  0  0  0  0  0
   36.6800   28.2370   42.3380 H   0  0  0  0  0  0  0  0  0  0  0  0
   37.6800   27.1350   38.3540 H   0  0  0  0  0  0  0  0  0  0  0  0
   37.4760   23.8190   41.5610 C   0  0  0  0  0  2  0  0  0  0  0  0
   37.9320   22.8810   40.4600 C   0  0  0  0  0  2  0  0  0  0  0  0
   39.0460   23.0070   40.3200 H   0  0  0  0  0  0  0  0  0  0  0  0
  1  4  1  6  0  0  0
  1 25  1  0  0  0  0
  1  2  1  0  0  0  0
  1  3  1  0  0  0  0
  2  5  1  0  0  0  0
  2  3  1  0  0  0  0
  3  7  1  1  0  0  0
  6  2  1  0  0  0  0
  8 17  1  0  0  0  0
  8  3  1  0  0  0  0
  9  8  2  0  0  0  0
 10 11  2  0  0  0  0
 10  9  1  0  0  0  0
 11 16  1  0  0  0  0
 12 13  2  0  0  0  0
 12 11  1  0  0  0  0
 13 14  1  0  0  0  0
 14 21  1  0  0  0  0
 14 15  2  0  0  0  0
 15 22  1  0  0  0  0
 16 15  1  0  0  0  0
 16 17  2  0  0  0  0
 17 23  1  0  0  0  0
 18  9  1  0  0  0  0
 19 10  1  0  0  0  0
 20 13  1  0  0  0  0
 24 29  1  0  0  0  0
 24 30  1  0  0  0  0
 25 24  2  0  0  0  0
 26 27  2  0  0  0  0
 26 25  1  0  0  0  0
 27 28  1  0  0  0  0
 28 32  1  0  0  0  0
 28 29  2  0  0  0  0
 31 26  1  0  0  0  0
 33 32  1  0  0  0  0
 34 33  1  0  0  0  0
M  END
>  <minimizedAffinity>
-5.32509375

$$$$

 OpenBabel03252503223D

 34 37  0  0  1  0  0  0  0  0999 V2000
   36.7780   27.3130   41.3550 C   0  0  1  0  0  0  0  0  0  0  0  0
   36.6070   27.7870   42.7150 C   0  0  0  0  0  0  0  0  0  0  0  0
   37.8320   28.2310   41.9590 C   0  0  2  0  0  0  0  0  0  0  0  0
   36.2600   27.7330   40.4520 H   0  0  0  0  0  0  0  0  0  0  0  0
   36.7880   27.0720   43.5300 H   0  0  0  0  0  0  0  0  0  0  0  0
   35.8350   28.5590   42.9340 H   0  0  0  0  0  0  0  0  0  0  0  0
   38.7990   27.7800   42.2140 H   0  0  0  0  0  0  0  0  0  0  0  0
   37.8080   29.6300   41.4560 C   0  0  0  0  0  0  0  0  0  0  0  0
   36.6580   30.3050   41.0730 C   0  0  0  0  0  0  0  0  0  0  0  0
   36.7060   31.6190   40.6310 C   0  0  0  0  0  0  0  0  0  0  0  0
   37.9130   32.2800   40.5670 C   0  0  0  0  0  0  0  0  0  0  0  0
   37.9970   33.5680   40.1380 N   0  0  0  0  0  0  0  0  0  0  0  0
   39.1890   34.2040   40.0810 C   0  0  0  0  0  0  0  0  0  0  0  0
   40.4040   33.6010   40.4490 C   0  0  0  0  0  0  0  0  0  0  0  0
   40.3400   32.2890   40.8880 C   0  0  0  0  0  0  0  0  0  0  0  0
   39.0920   31.6520   40.9380 C   0  0  0  0  0  0  0  0  0  0  0  0
   38.9960   30.3400   41.3710 C   0  0  0  0  0  0  0  0  0  0  0  0
   35.7180   29.7730   41.1300 H   0  0  0  0  0  0  0  0  0  0  0  0
   35.7970   32.1280   40.3350 H   0  0  0  0  0  0  0  0  0  0  0  0
   39.2980   35.2220   39.7480 H   0  0  0  0  0  0  0  0  0  0  0  0
   41.3370   34.1310   40.3940 H   0  0  0  0  0  0  0  0  0  0  0  0
   41.2410   31.7970   41.1770 H   0  0  0  0  0  0  0  0  0  0  0  0
   39.9740   29.9250   41.6250 H   0  0  0  0  0  0  0  0  0  0  0  0
   37.6140   25.5400   39.7810 C   0  0  0  0  0  0  0  0  0  0  0  0
   37.1790   25.9100   41.0770 C   0  0  0  0  0  0  0  0  0  0  0  0
   37.1290   24.9330   42.0520 C   0  0  0  0  0  0  0  0  0  0  0  0
   37.5020   23.6710   41.7000 N   0  0  0  0  0  0  0  0  0  0  0  0
   37.9120   23.3350   40.4640 C   0  0  0  0  0  0  0  0  0  0  0  0
   37.9680   24.2790   39.4970 N   0  0  0  0  0  0  0  0  0  0  0  0
   37.6370   26.3420   39.0550 H   0  0  0  0  0  0  0  0  0  0  0  0
   36.8030   25.1660   43.0570 H   0  0  0  0  0  0  0  0  0  0  0  0
   38.3130   21.9590   40.0970 C   0  0  0  0  0  2  0  0  0  0  0  0
   39.0630   21.9080   38.7800 C   0  0  0  0  0  2  0  0  0  0  0  0
   40.1210   22.2610   38.9550 H   0  0  0  0  0  0  0  0  0  0  0  0
  1  4  1  6  0  0  0
  1  3  1  0  0  0  0
  1  2  1  0  0  0  0
  2  6  1  0  0  0  0
  2  5  1  0  0  0  0
  3  7  1  1  0  0  0
  3  2  1  0  0  0  0
  8  3  1  0  0  0  0
  9 18  1  0  0  0  0
  9  8  2  0  0  0  0
 10  9  1  0  0  0  0
 11 10  2  0  0  0  0
 11 16  1  0  0  0  0
 12 11  1  0  0  0  0
 13 12  2  0  0  0  0
 13 14  1  0  0  0  0
 14 15  2  0  0  0  0
 15 16  1  0  0  0  0
 15 22  1  0  0  0  0
 16 17  2  0  0  0  0
 17  8  1  0  0  0  0
 17 23  1  0  0  0  0
 19 10  1  0  0  0  0
 20 13  1  0  0  0  0
 21 14  1  0  0  0  0
 24 25  1  0  0  0  0
 25  1  1  0  0  0  0
 25 26  2  0  0  0  0
 26 31  1  0  0  0  0
 27 26  1  0  0  0  0
 28 27  2  0  0  0  0
 29 24  2  0  0  0  0
 29 28  1  0  0  0  0
 30 24  1  0  0  0  0
 32 28  1  0  0  0  0
 33 34  1  0  0  0  0
 33 32  1  0  0  0  0
M  END
>  <minimizedAffinity>
-5.31521463

$$$$

 OpenBabel03252503223D

 34 37  0  0  1  0  0  0  0  0999 V2000
   35.6350   28.4990   40.6620 C   0  0  1  0  0  0  0  0  0  0  0  0
   35.5700   29.8460   40.1290 C   0  0  0  0  0  0  0  0  0  0  0  0
   35.9870   28.7350   39.2000 C   0  0  2  0  0  0  0  0  0  0  0  0
   34.7540   27.8210   40.8230 H   0  0  0  0  0  0  0  0  0  0  0  0
   36.3660   30.5460   40.4160 H   0  0  0  0  0  0  0  0  0  0  0  0
   34.5770   30.3160   39.9470 H   0  0  0  0  0  0  0  0  0  0  0  0
   37.0450   28.6530   38.9220 H   0  0  0  0  0  0  0  0  0  0  0  0
   34.9570   28.2870   38.2260 C   0  0  0  0  0  0  0  0  0  0  0  0
   34.9540   27.0470   37.6030 C   0  0  0  0  0  0  0  0  0  0  0  0
   33.9490   26.6880   36.7180 C   0  0  0  0  0  0  0  0  0  0  0  0
   32.9250   27.5670   36.4430 C   0  0  0  0  0  0  0  0  0  0  0  0
   31.9230   27.2470   35.5810 N   0  0  0  0  0  0  0  0  0  0  0  0
   30.9250   28.1210   35.3210 C   0  0  0  0  0  0  0  0  0  0  0  0
   30.8450   29.3970   35.9050 C   0  0  0  0  0  0  0  0  0  0  0  0
   31.8560   29.7430   36.7860 C   0  0  0  0  0  0  0  0  0  0  0  0
   32.8790   28.8190   37.0390 C   0  0  0  0  0  0  0  0  0  0  0  0
   33.9050   29.1360   37.9140 C   0  0  0  0  0  0  0  0  0  0  0  0
   35.7630   26.3680   37.8290 H   0  0  0  0  0  0  0  0  0  0  0  0
   33.9650   25.7150   36.2410 H   0  0  0  0  0  0  0  0  0  0  0  0
   30.1150   27.9070   34.6460 H   0  0  0  0  0  0  0  0  0  0  0  0
   30.0390   30.0710   35.6820 H   0  0  0  0  0  0  0  0  0  0  0  0
   31.8300   30.7030   37.2510 H   0  0  0  0  0  0  0  0  0  0  0  0
   33.7940   30.1440   38.3190 H   0  0  0  0  0  0  0  0  0  0  0  0
   37.1010   26.7200   41.6660 C   0  0  0  0  0  0  0  0  0  0  0  0
   36.7380   28.0860   41.5670 C   0  0  0  0  0  0  0  0  0  0  0  0
   37.4260   29.0010   42.3400 C   0  0  0  0  0  0  0  0  0  0  0  0
   38.4120   28.5270   43.1510 N   0  0  0  0  0  0  0  0  0  0  0  0
   38.7440   27.2270   43.2350 C   0  0  0  0  0  0  0  0  0  0  0  0
   38.0820   26.3160   42.4850 N   0  0  0  0  0  0  0  0  0  0  0  0
   36.5330   26.0450   41.0400 H   0  0  0  0  0  0  0  0  0  0  0  0
   37.1860   30.0550   42.2990 H   0  0  0  0  0  0  0  0  0  0  0  0
   39.8180   26.7270   44.1220 C   0  0  0  0  0  2  0  0  0  0  0  0
   40.5940   25.5810   43.5020 C   0  0  0  0  0  2  0  0  0  0  0  0
   41.3070   26.0040   42.7350 H   0  0  0  0  0  0  0  0  0  0  0  0
  1  4  1  1  0  0  0
  1 25  1  0  0  0  0
  2  5  1  0  0  0  0
  2  1  1  0  0  0  0
  3  7  1  6  0  0  0
  3  2  1  0  0  0  0
  3  1  1  0  0  0  0
  6  2  1  0  0  0  0
  8  3  1  0  0  0  0
  9 18  1  0  0  0  0
  9  8  2  0  0  0  0
 10  9  1  0  0  0  0
 11 10  2  0  0  0  0
 11 16  1  0  0  0  0
 12 11  1  0  0  0  0
 13 12  2  0  0  0  0
 13 14  1  0  0  0  0
 14 15  2  0  0  0  0
 15 16  1  0  0  0  0
 15 22  1  0  0  0  0
 16 17  2  0  0  0  0
 17  8  1  0  0  0  0
 17 23  1  0  0  0  0
 19 10  1  0  0  0  0
 20 13  1  0  0  0  0
 21 14  1  0  0  0  0
 24 29  1  0  0  0  0
 25 24  2  0  0  0  0
 25 26  1  0  0  0  0
 26 27  2  0  0  0  0
 27 28  1  0  0  0  0
 28 32  1  0  0  0  0
 29 28  2  0  0  0  0
 30 24  1  0  0  0  0
 31 26  1  0  0  0  0
 33 32  1  0  0  0  0
 34 33  1  0  0  0  0
M  END
>  <minimizedAffinity>
-5.19497776

$$$$

 OpenBabel03252503223D

 34 37  0  0  1  0  0  0  0  0999 V2000
   35.8630   28.8220   39.2740 C   0  0  1  0  0  0  0  0  0  0  0  0
   35.5890   29.9590   40.1320 C   0  0  0  0  0  0  0  0  0  0  0  0
   35.5490   28.5830   40.7440 C   0  0  2  0  0  0  0  0  0  0  0  0
   36.8830   28.4790   38.9560 H   0  0  0  0  0  0  0  0  0  0  0  0
   34.6160   30.4570   40.0230 H   0  0  0  0  0  0  0  0  0  0  0  0
   36.4250   30.6280   40.4370 H   0  0  0  0  0  0  0  0  0  0  0  0
   34.5720   28.1430   40.9800 H   0  0  0  0  0  0  0  0  0  0  0  0
   36.7190   28.2150   41.5840 C   0  0  0  0  0  0  0  0  0  0  0  0
   37.4200   29.1070   42.3840 C   0  0  0  0  0  0  0  0  0  0  0  0
   38.4930   28.6900   43.1580 C   0  0  0  0  0  0  0  0  0  0  0  0
   38.8810   27.3690   43.1440 C   0  0  0  0  0  0  0  0  0  0  0  0
   39.9280   26.9260   43.8900 N   0  0  0  0  0  0  0  0  0  0  0  0
   40.2970   25.6260   43.8660 C   0  0  0  0  0  0  0  0  0  0  0  0
   39.6470   24.6530   43.0880 C   0  0  0  0  0  0  0  0  0  0  0  0
   38.5780   25.0830   42.3200 C   0  0  0  0  0  0  0  0  0  0  0  0
   38.2140   26.4360   42.3630 C   0  0  0  0  0  0  0  0  0  0  0  0
   37.1510   26.8970   41.6040 C   0  0  0  0  0  0  0  0  0  0  0  0
   37.1030   30.1400   42.3850 H   0  0  0  0  0  0  0  0  0  0  0  0
   39.0280   29.4020   43.7750 H   0  0  0  0  0  0  0  0  0  0  0  0
   41.1190   25.2350   44.4420 H   0  0  0  0  0  0  0  0  0  0  0  0
   39.9610   23.6250   43.0890 H   0  0  0  0  0  0  0  0  0  0  0  0
   38.0580   24.3740   41.7160 H   0  0  0  0  0  0  0  0  0  0  0  0
   36.7000   26.0980   41.0110 H   0  0  0  0  0  0  0  0  0  0  0  0
   34.9920   27.0710   37.6930 C   0  0  0  0  0  0  0  0  0  0  0  0
   34.8620   28.3530   38.2810 C   0  0  0  0  0  0  0  0  0  0  0  0
   33.7960   29.1420   37.8950 C   0  0  0  0  0  0  0  0  0  0  0  0
   32.9380   28.6330   36.9670 N   0  0  0  0  0  0  0  0  0  0  0  0
   33.0760   27.4150   36.4170 C   0  0  0  0  0  0  0  0  0  0  0  0
   34.1130   26.6270   36.7830 N   0  0  0  0  0  0  0  0  0  0  0  0
   35.8420   26.4930   38.0300 H   0  0  0  0  0  0  0  0  0  0  0  0
   33.6530   30.1280   38.3160 H   0  0  0  0  0  0  0  0  0  0  0  0
   32.1350   26.8760   35.4100 C   0  0  0  0  0  2  0  0  0  0  0  0
   30.6930   27.2310   35.7180 C   0  0  0  0  0  2  0  0  0  0  0  0
   30.5190   28.3090   35.4290 H   0  0  0  0  0  0  0  0  0  0  0  0
  1  4  1  6  0  0  0
  1  2  1  0  0  0  0
  1  3  1  0  0  0  0
  2  6  1  0  0  0  0
  2  3  1  0  0  0  0
  3  7  1  1  0  0  0
  3  8  1  0  0  0  0
  5  2  1  0  0  0  0
  8 17  2  0  0  0  0
  8  9  1  0  0  0  0
  9 18  1  0  0  0  0
  9 10  2  0  0  0  0
 10 19  1  0  0  0  0
 11 10  1  0  0  0  0
 11 12  1  0  0  0  0
 13 12  2  0  0  0  0
 13 20  1  0  0  0  0
 14 21  1  0  0  0  0
 14 13  1  0  0  0  0
 15 16  1  0  0  0  0
 15 14  2  0  0  0  0
 16 11  2  0  0  0  0
 17 16  1  0  0  0  0
 22 15  1  0  0  0  0
 23 17  1  0  0  0  0
 24 30  1  0  0  0  0
 24 25  1  0  0  0  0
 25  1  1  0  0  0  0
 26 25  2  0  0  0  0
 26 31  1  0  0  0  0
 27 26  1  0  0  0  0
 28 29  1  0  0  0  0
 28 27  2  0  0  0  0
 29 24  2  0  0  0  0
 32 33  1  0  0  0  0
 32 28  1  0  0  0  0
 34 33  1  0  0  0  0
M  END
>  <minimizedAffinity>
-5.17698526

$$$$
