
 OpenBabel03242510203D

 30 32  0  0  1  0  0  0  0  0999 V2000
   37.3000   31.2100   37.8890 C   0  0  1  0  0  0  0  0  0  0  0  0
   37.9990   30.0600   37.4450 C   0  0  0  0  0  0  0  0  0  0  0  0
   37.0060   29.9370   38.6130 C   0  0  1  0  0  0  0  0  0  0  0  0
   36.4730   31.6660   37.2920 H   0  0  0  0  0  0  0  0  0  0  0  0
   37.6530   29.5420   36.5130 H   0  0  0  0  0  0  0  0  0  0  0  0
   39.0310   29.7570   37.6970 H   0  0  0  0  0  0  0  0  0  0  0  0
   36.2080   29.2230   38.3990 H   0  0  0  0  0  0  0  0  0  0  0  0
   39.5110   32.2740   38.7280 C   0  0  0  0  0  0  0  0  0  0  0  0
   38.0930   32.2670   38.6680 C   0  0  0  0  0  0  0  0  0  0  0  0
   37.4070   33.2410   39.3610 C   0  0  0  0  0  0  0  0  0  0  0  0
   38.1070   34.1600   40.0660 N   0  0  0  0  0  0  0  0  0  0  0  0
   39.4650   34.1610   40.1210 C   0  0  0  0  0  0  0  0  0  0  0  0
   40.1820   33.1850   39.4270 N   0  0  0  0  0  0  0  0  0  0  0  0
   40.0300   31.5140   38.1850 H   0  0  0  0  0  0  0  0  0  0  0  0
   36.3310   33.2920   39.3550 H   0  0  0  0  0  0  0  0  0  0  0  0
   40.0330   34.8900   40.6820 H   0  0  0  0  0  0  0  0  0  0  0  0
   37.6250   29.7860   39.8950 N   0  0  0  0  0  0  0  0  0  0  0  0
   36.9350   29.9250   41.0880 C   0  0  0  0  0  0  0  0  0  0  0  0
   36.0940   30.7850   41.4610 O   0  0  0  0  0  0  0  0  0  0  0  0
   38.6630   29.5560   39.9710 H   0  0  0  0  0  0  0  0  0  0  0  0
   37.1500   28.9120   42.2040 C   0  0  2  0  0  0  0  0  0  0  0  0
   38.3290   29.2220   43.1900 C   0  0  0  0  0  0  0  0  0  0  0  0
   38.3190   28.0410   42.2330 C   0  0  1  0  0  0  0  0  0  0  0  0
   36.2330   28.6280   42.7780 H   0  0  0  0  0  0  0  0  0  0  0  0
   38.0880   29.0760   44.2350 H   0  0  0  0  0  0  0  0  0  0  0  0
   38.8370   30.1530   42.9480 H   0  0  0  0  0  0  0  0  0  0  0  0
   39.2010   28.0970   41.6170 H   0  0  0  0  0  0  0  0  0  0  0  0
   38.2130   26.6470   42.8680 C   0  0  0  0  0  2  0  0  0  0  0  0
   37.1370   25.8270   42.2030 C   0  0  0  0  0  2  0  0  0  0  0  0
   37.3680   25.6120   41.1460 H   0  0  0  0  0  0  0  0  0  0  0  0
  1  4  1  6  0  0  0
  1  3  1  0  0  0  0
  1  9  1  0  0  0  0
  2  6  1  0  0  0  0
  2  1  1  0  0  0  0
  2  3  1  0  0  0  0
  3  7  1  6  0  0  0
  3 17  1  0  0  0  0
  5  2  1  0  0  0  0
  8 13  1  0  0  0  0
  9  8  2  0  0  0  0
  9 10  1  0  0  0  0
 10 11  2  0  0  0  0
 11 12  1  0  0  0  0
 12 16  1  0  0  0  0
 13 12  2  0  0  0  0
 14  8  1  0  0  0  0
 15 10  1  0  0  0  0
 17 20  1  0  0  0  0
 17 18  1  0  0  0  0
 18 19  2  0  0  0  0
 18 21  1  0  0  0  0
 21 23  1  0  0  0  0
 21 24  1  1  0  0  0
 21 22  1  0  0  0  0
 22 25  1  0  0  0  0
 23 27  1  6  0  0  0
 23 28  1  0  0  0  0
 23 22  1  0  0  0  0
 26 22  1  0  0  0  0
 29 28  1  0  0  0  0
 30 29  1  0  0  0  0
M  END
>  <minimizedAffinity>
-4.57734632

$$$$

 OpenBabel03242510203D

 30 32  0  0  1  0  0  0  0  0999 V2000
   37.3390   31.2680   37.9060 C   0  0  1  0  0  0  0  0  0  0  0  0
   38.0260   30.1220   37.4290 C   0  0  0  0  0  0  0  0  0  0  0  0
   37.0240   29.9770   38.5870 C   0  0  1  0  0  0  0  0  0  0  0  0
   36.5220   31.7540   37.3190 H   0  0  0  0  0  0  0  0  0  0  0  0
   37.6790   29.6390   36.4790 H   0  0  0  0  0  0  0  0  0  0  0  0
   39.0520   29.7980   37.6790 H   0  0  0  0  0  0  0  0  0  0  0  0
   36.2170   29.2810   38.3470 H   0  0  0  0  0  0  0  0  0  0  0  0
   37.5270   33.2650   39.5500 C   0  0  0  0  0  0  0  0  0  0  0  0
   38.1410   32.2890   38.7220 C   0  0  0  0  0  0  0  0  0  0  0  0
   39.5170   32.2800   38.6360 C   0  0  0  0  0  0  0  0  0  0  0  0
   40.2230   33.1960   39.3400 N   0  0  0  0  0  0  0  0  0  0  0  0
   39.6290   34.1290   40.1290 C   0  0  0  0  0  0  0  0  0  0  0  0
   38.2380   34.1570   40.2330 N   0  0  0  0  0  0  0  0  0  0  0  0
   36.4590   33.2580   39.6080 H   0  0  0  0  0  0  0  0  0  0  0  0
   40.0440   31.5660   38.0270 H   0  0  0  0  0  0  0  0  0  0  0  0
   40.1850   34.8650   40.6940 H   0  0  0  0  0  0  0  0  0  0  0  0
   37.6320   29.7770   39.8680 N   0  0  0  0  0  0  0  0  0  0  0  0
   36.9360   29.8880   41.0600 C   0  0  0  0  0  0  0  0  0  0  0  0
   36.1040   30.7470   41.4560 O   0  0  0  0  0  0  0  0  0  0  0  0
   38.6660   29.5320   39.9420 H   0  0  0  0  0  0  0  0  0  0  0  0
   37.1310   28.8380   42.1450 C   0  0  2  0  0  0  0  0  0  0  0  0
   38.1100   29.2280   43.3060 C   0  0  0  0  0  0  0  0  0  0  0  0
   38.3920   28.1220   42.3010 C   0  0  1  0  0  0  0  0  0  0  0  0
   36.1910   28.4020   42.5660 H   0  0  0  0  0  0  0  0  0  0  0  0
   37.7500   28.9820   44.2970 H   0  0  0  0  0  0  0  0  0  0  0  0
   38.5160   30.2290   43.1860 H   0  0  0  0  0  0  0  0  0  0  0  0
   39.3350   28.3310   41.8230 H   0  0  0  0  0  0  0  0  0  0  0  0
   38.3890   26.6860   42.8450 C   0  0  0  0  0  2  0  0  0  0  0  0
   39.6160   26.4190   43.6800 C   0  0  0  0  0  2  0  0  0  0  0  0
   39.6450   27.0390   44.5910 H   0  0  0  0  0  0  0  0  0  0  0  0
  1  4  1  6  0  0  0
  1  3  1  0  0  0  0
  1  9  1  0  0  0  0
  2  6  1  0  0  0  0
  2  1  1  0  0  0  0
  2  3  1  0  0  0  0
  3  7  1  6  0  0  0
  3 17  1  0  0  0  0
  5  2  1  0  0  0  0
  8 14  1  0  0  0  0
  8 13  1  0  0  0  0
  9  8  2  0  0  0  0
 10  9  1  0  0  0  0
 10 11  2  0  0  0  0
 11 12  1  0  0  0  0
 12 13  2  0  0  0  0
 12 16  1  0  0  0  0
 15 10  1  0  0  0  0
 17 20  1  0  0  0  0
 17 18  1  0  0  0  0
 18 19  2  0  0  0  0
 18 21  1  0  0  0  0
 21 23  1  0  0  0  0
 21 24  1  1  0  0  0
 21 22  1  0  0  0  0
 22 25  1  0  0  0  0
 23 27  1  6  0  0  0
 23 28  1  0  0  0  0
 23 22  1  0  0  0  0
 26 22  1  0  0  0  0
 28 29  1  0  0  0  0
 29 30  1  0  0  0  0
M  END
>  <minimizedAffinity>
-4.57033587

$$$$

 OpenBabel03242510203D

 30 32  0  0  1  0  0  0  0  0999 V2000
   37.4350   32.1520   39.0670 C   0  0  1  0  0  0  0  0  0  0  0  0
   37.5900   32.8980   40.2630 C   0  0  0  0  0  0  0  0  0  0  0  0
   38.7950   32.1390   39.6810 C   0  0  1  0  0  0  0  0  0  0  0  0
   37.3230   32.6480   38.0720 H   0  0  0  0  0  0  0  0  0  0  0  0
   37.6940   34.0120   40.1960 H   0  0  0  0  0  0  0  0  0  0  0  0
   37.3180   32.5920   41.2890 H   0  0  0  0  0  0  0  0  0  0  0  0
   39.6300   32.8060   39.4560 H   0  0  0  0  0  0  0  0  0  0  0  0
   35.9400   30.4350   40.3100 C   0  0  0  0  0  0  0  0  0  0  0  0
   36.6410   30.8420   39.1450 C   0  0  0  0  0  0  0  0  0  0  0  0
   36.6220   30.0060   38.0490 C   0  0  0  0  0  0  0  0  0  0  0  0
   35.9400   28.8390   38.1270 N   0  0  0  0  0  0  0  0  0  0  0  0
   35.2720   28.4550   39.2460 C   0  0  0  0  0  0  0  0  0  0  0  0
   35.2760   29.2850   40.3680 N   0  0  0  0  0  0  0  0  0  0  0  0
   35.9620   31.0950   41.1520 H   0  0  0  0  0  0  0  0  0  0  0  0
   37.1330   30.2550   37.1340 H   0  0  0  0  0  0  0  0  0  0  0  0
   34.7250   27.5250   39.3180 H   0  0  0  0  0  0  0  0  0  0  0  0
   39.1470   30.9550   40.4050 N   0  0  0  0  0  0  0  0  0  0  0  0
   39.8410   30.9800   41.6040 C   0  0  0  0  0  0  0  0  0  0  0  0
   40.8510   31.6430   41.9610 O   0  0  0  0  0  0  0  0  0  0  0  0
   38.8780   29.9940   40.0320 H   0  0  0  0  0  0  0  0  0  0  0  0
   39.3820   30.0990   42.7570 C   0  0  2  0  0  0  0  0  0  0  0  0
   39.9230   28.6270   42.7490 C   0  0  0  0  0  0  0  0  0  0  0  0
   38.4590   28.9880   42.5530 C   0  0  1  0  0  0  0  0  0  0  0  0
   39.4950   30.5440   43.7760 H   0  0  0  0  0  0  0  0  0  0  0  0
   40.2700   28.2720   43.7110 H   0  0  0  0  0  0  0  0  0  0  0  0
   40.5840   28.4330   41.9080 H   0  0  0  0  0  0  0  0  0  0  0  0
   38.1290   28.5660   41.6180 H   0  0  0  0  0  0  0  0  0  0  0  0
   37.4970   28.5820   43.6780 C   0  0  0  0  0  2  0  0  0  0  0  0
   36.6280   27.4230   43.2590 C   0  0  0  0  0  2  0  0  0  0  0  0
   37.2130   26.5060   43.0770 H   0  0  0  0  0  0  0  0  0  0  0  0
  1  4  1  6  0  0  0
  1  9  1  0  0  0  0
  1  3  1  0  0  0  0
  1  2  1  0  0  0  0
  2  6  1  0  0  0  0
  3  7  1  6  0  0  0
  3  2  1  0  0  0  0
  3 17  1  0  0  0  0
  5  2  1  0  0  0  0
  8 13  1  0  0  0  0
  8 14  1  0  0  0  0
  9  8  2  0  0  0  0
 10 11  2  0  0  0  0
 10  9  1  0  0  0  0
 11 12  1  0  0  0  0
 12 16  1  0  0  0  0
 12 13  2  0  0  0  0
 15 10  1  0  0  0  0
 17 18  1  0  0  0  0
 18 19  2  0  0  0  0
 18 21  1  0  0  0  0
 20 17  1  0  0  0  0
 21 24  1  1  0  0  0
 22 21  1  0  0  0  0
 22 25  1  0  0  0  0
 23 27  1  6  0  0  0
 23 22  1  0  0  0  0
 23 21  1  0  0  0  0
 23 28  1  0  0  0  0
 26 22  1  0  0  0  0
 29 28  1  0  0  0  0
 30 29  1  0  0  0  0
M  END
>  <minimizedAffinity>
-4.56646109

$$$$

 OpenBabel03242510203D

 30 32  0  0  1  0  0  0  0  0999 V2000
   36.8790   31.2960   40.4240 C   0  0  1  0  0  0  0  0  0  0  0  0
   36.1950   30.4370   39.5270 C   0  0  0  0  0  0  0  0  0  0  0  0
   36.2550   30.0790   41.0220 C   0  0  1  0  0  0  0  0  0  0  0  0
   36.4650   32.2890   40.7240 H   0  0  0  0  0  0  0  0  0  0  0  0
   35.1680   30.7240   39.1810 H   0  0  0  0  0  0  0  0  0  0  0  0
   36.6300   29.6700   38.8630 H   0  0  0  0  0  0  0  0  0  0  0  0
   35.2590   29.9950   41.4630 H   0  0  0  0  0  0  0  0  0  0  0  0
   39.1420   30.8000   39.2570 C   0  0  0  0  0  0  0  0  0  0  0  0
   38.4120   31.3130   40.3620 C   0  0  0  0  0  0  0  0  0  0  0  0
   39.1190   31.8230   41.4290 C   0  0  0  0  0  0  0  0  0  0  0  0
   40.4710   31.8170   41.3820 N   0  0  0  0  0  0  0  0  0  0  0  0
   41.1650   31.3240   40.3230 C   0  0  0  0  0  0  0  0  0  0  0  0
   40.4720   30.8020   39.2300 N   0  0  0  0  0  0  0  0  0  0  0  0
   38.5810   30.4090   38.4360 H   0  0  0  0  0  0  0  0  0  0  0  0
   38.6250   32.2280   42.2960 H   0  0  0  0  0  0  0  0  0  0  0  0
   42.2460   31.3130   40.2770 H   0  0  0  0  0  0  0  0  0  0  0  0
   37.1470   29.0020   41.3310 N   0  0  0  0  0  0  0  0  0  0  0  0
   37.4340   28.6090   42.6280 C   0  0  0  0  0  0  0  0  0  0  0  0
   37.7000   29.2840   43.6580 O   0  0  0  0  0  0  0  0  0  0  0  0
   37.6280   28.4580   40.5520 H   0  0  0  0  0  0  0  0  0  0  0  0
   37.4490   27.1280   42.9790 C   0  0  2  0  0  0  0  0  0  0  0  0
   38.8110   26.3850   42.7470 C   0  0  0  0  0  0  0  0  0  0  0  0
   37.5480   26.0980   41.9510 C   0  0  1  0  0  0  0  0  0  0  0  0
   37.0370   26.8680   43.9850 H   0  0  0  0  0  0  0  0  0  0  0  0
   39.1050   25.7270   43.5550 H   0  0  0  0  0  0  0  0  0  0  0  0
   39.5870   27.0490   42.3730 H   0  0  0  0  0  0  0  0  0  0  0  0
   37.7710   26.2270   40.9050 H   0  0  0  0  0  0  0  0  0  0  0  0
   36.8910   24.7290   42.1800 C   0  0  0  0  0  2  0  0  0  0  0  0
   36.5790   24.0500   40.8700 C   0  0  0  0  0  2  0  0  0  0  0  0
   37.4900   23.8060   40.2990 H   0  0  0  0  0  0  0  0  0  0  0  0
  1  4  1  1  0  0  0
  1  3  1  0  0  0  0
  2  1  1  0  0  0  0
  2  3  1  0  0  0  0
  3 17  1  0  0  0  0
  3  7  1  1  0  0  0
  5  2  1  0  0  0  0
  6  2  1  0  0  0  0
  8  9  1  0  0  0  0
  9  1  1  0  0  0  0
  9 10  2  0  0  0  0
 10 15  1  0  0  0  0
 11 10  1  0  0  0  0
 12 11  2  0  0  0  0
 13  8  2  0  0  0  0
 13 12  1  0  0  0  0
 14  8  1  0  0  0  0
 16 12  1  0  0  0  0
 17 18  1  0  0  0  0
 18 21  1  0  0  0  0
 18 19  2  0  0  0  0
 20 17  1  0  0  0  0
 21 24  1  1  0  0  0
 22 21  1  0  0  0  0
 22 25  1  0  0  0  0
 23 27  1  6  0  0  0
 23 28  1  0  0  0  0
 23 22  1  0  0  0  0
 23 21  1  0  0  0  0
 26 22  1  0  0  0  0
 29 28  1  0  0  0  0
 30 29  1  0  0  0  0
M  END
>  <minimizedAffinity>
-4.41647959

$$$$

 OpenBabel03242510203D

 30 32  0  0  1  0  0  0  0  0999 V2000
   36.4290   30.7460   39.4270 C   0  0  1  0  0  0  0  0  0  0  0  0
   36.6310   29.3430   39.4470 C   0  0  0  0  0  0  0  0  0  0  0  0
   35.9560   30.0270   40.6480 C   0  0  1  0  0  0  0  0  0  0  0  0
   35.6560   31.2230   38.7780 H   0  0  0  0  0  0  0  0  0  0  0  0
   35.9340   28.6880   38.8610 H   0  0  0  0  0  0  0  0  0  0  0  0
   37.5560   28.7980   39.7010 H   0  0  0  0  0  0  0  0  0  0  0  0
   34.9550   29.6320   40.8360 H   0  0  0  0  0  0  0  0  0  0  0  0
   38.9690   31.2340   39.2330 C   0  0  0  0  0  0  0  0  0  0  0  0
   37.6600   31.6430   39.6020 C   0  0  0  0  0  0  0  0  0  0  0  0
   37.5030   32.8930   40.1630 C   0  0  0  0  0  0  0  0  0  0  0  0
   38.5940   33.6740   40.3380 N   0  0  0  0  0  0  0  0  0  0  0  0
   39.8440   33.2760   39.9830 C   0  0  0  0  0  0  0  0  0  0  0  0
   40.0290   32.0170   39.4120 N   0  0  0  0  0  0  0  0  0  0  0  0
   39.0760   30.2640   38.7970 H   0  0  0  0  0  0  0  0  0  0  0  0
   36.5380   33.2630   40.4640 H   0  0  0  0  0  0  0  0  0  0  0  0
   40.7220   33.8940   40.1190 H   0  0  0  0  0  0  0  0  0  0  0  0
   36.7910   30.1370   41.8050 N   0  0  0  0  0  0  0  0  0  0  0  0
   37.2290   29.0380   42.5270 C   0  0  0  0  0  0  0  0  0  0  0  0
   36.6180   28.0080   42.9170 O   0  0  0  0  0  0  0  0  0  0  0  0
   37.1080   31.0920   42.1550 H   0  0  0  0  0  0  0  0  0  0  0  0
   38.6840   28.9600   42.9680 C   0  0  2  0  0  0  0  0  0  0  0  0
   39.5570   30.2290   42.6740 C   0  0  0  0  0  0  0  0  0  0  0  0
   39.7740   28.8830   42.0020 C   0  0  1  0  0  0  0  0  0  0  0  0
   38.8500   28.6150   44.0180 H   0  0  0  0  0  0  0  0  0  0  0  0
   40.1920   30.5350   43.4940 H   0  0  0  0  0  0  0  0  0  0  0  0
   38.9860   31.0230   42.1970 H   0  0  0  0  0  0  0  0  0  0  0  0
   39.7240   29.0240   40.9350 H   0  0  0  0  0  0  0  0  0  0  0  0
   41.0640   28.1350   42.3690 C   0  0  0  0  0  2  0  0  0  0  0  0
   42.0330   29.0420   43.0860 C   0  0  0  0  0  2  0  0  0  0  0  0
   41.6440   29.3800   44.0610 H   0  0  0  0  0  0  0  0  0  0  0  0
  1  4  1  6  0  0  0
  1  2  1  0  0  0  0
  1  9  1  0  0  0  0
  1  3  1  0  0  0  0
  2  6  1  0  0  0  0
  2  3  1  0  0  0  0
  3  7  1  1  0  0  0
  3 17  1  0  0  0  0
  5  2  1  0  0  0  0
  8 13  2  0  0  0  0
  8  9  1  0  0  0  0
  9 10  2  0  0  0  0
 10 11  1  0  0  0  0
 10 15  1  0  0  0  0
 12 16  1  0  0  0  0
 12 11  2  0  0  0  0
 13 12  1  0  0  0  0
 14  8  1  0  0  0  0
 17 20  1  0  0  0  0
 17 18  1  0  0  0  0
 18 19  2  0  0  0  0
 18 21  1  0  0  0  0
 21 24  1  1  0  0  0
 22 21  1  0  0  0  0
 22 25  1  0  0  0  0
 23 27  1  6  0  0  0
 23 28  1  0  0  0  0
 23 22  1  0  0  0  0
 23 21  1  0  0  0  0
 26 22  1  0  0  0  0
 28 29  1  0  0  0  0
 29 30  1  0  0  0  0
M  END
>  <minimizedAffinity>
-4.31318665

$$$$

 OpenBabel03242510203D

 30 32  0  0  1  0  0  0  0  0999 V2000
   38.2670   27.3590   43.3070 C   0  0  1  0  0  0  0  0  0  0  0  0
   38.8140   28.5990   42.8890 C   0  0  0  0  0  0  0  0  0  0  0  0
   37.3420   28.5310   43.3330 C   0  0  1  0  0  0  0  0  0  0  0  0
   38.5370   26.8940   44.2860 H   0  0  0  0  0  0  0  0  0  0  0  0
   39.4650   29.1700   43.6010 H   0  0  0  0  0  0  0  0  0  0  0  0
   38.9560   28.9590   41.8550 H   0  0  0  0  0  0  0  0  0  0  0  0
   37.1370   29.1940   44.1760 H   0  0  0  0  0  0  0  0  0  0  0  0
   37.0060   25.2940   42.3710 C   0  0  0  0  0  0  0  0  0  0  0  0
   37.9950   26.3030   42.2280 C   0  0  0  0  0  0  0  0  0  0  0  0
   38.7550   26.3120   41.0780 C   0  0  0  0  0  0  0  0  0  0  0  0
   38.5290   25.3660   40.1370 N   0  0  0  0  0  0  0  0  0  0  0  0
   37.5820   24.4020   40.2800 C   0  0  0  0  0  0  0  0  0  0  0  0
   36.8000   24.3730   41.4350 N   0  0  0  0  0  0  0  0  0  0  0  0
   36.4230   25.3010   43.2670 H   0  0  0  0  0  0  0  0  0  0  0  0
   39.5200   27.0500   40.9080 H   0  0  0  0  0  0  0  0  0  0  0  0
   37.3950   23.6420   39.5330 H   0  0  0  0  0  0  0  0  0  0  0  0
   36.4020   28.6130   42.2570 N   0  0  0  0  0  0  0  0  0  0  0  0
   36.4290   29.6200   41.3050 C   0  0  0  0  0  0  0  0  0  0  0  0
   36.5870   30.8640   41.4210 O   0  0  0  0  0  0  0  0  0  0  0  0
   35.6320   27.8830   42.1540 H   0  0  0  0  0  0  0  0  0  0  0  0
   36.2560   29.2680   39.8340 C   0  0  2  0  0  0  0  0  0  0  0  0
   34.7820   29.0220   39.3590 C   0  0  0  0  0  0  0  0  0  0  0  0
   35.8450   27.9360   39.4080 C   0  0  1  0  0  0  0  0  0  0  0  0
   36.7830   29.9420   39.1140 H   0  0  0  0  0  0  0  0  0  0  0  0
   34.5300   29.4930   38.4180 H   0  0  0  0  0  0  0  0  0  0  0  0
   34.0600   29.1550   40.1620 H   0  0  0  0  0  0  0  0  0  0  0  0
   35.4770   27.1290   40.0200 H   0  0  0  0  0  0  0  0  0  0  0  0
   36.3250   27.3880   38.0560 C   0  0  0  0  0  2  0  0  0  0  0  0
   35.5210   26.1820   37.6410 C   0  0  0  0  0  2  0  0  0  0  0  0
   34.4610   26.4290   37.4570 H   0  0  0  0  0  0  0  0  0  0  0  0
  1  3  1  0  0  0  0
  1  4  1  1  0  0  0
  2  1  1  0  0  0  0
  2  3  1  0  0  0  0
  2  5  1  0  0  0  0
  3  7  1  1  0  0  0
  6  2  1  0  0  0  0
  8 14  1  0  0  0  0
  9  8  1  0  0  0  0
  9  1  1  0  0  0  0
 10  9  2  0  0  0  0
 11 12  2  0  0  0  0
 11 10  1  0  0  0  0
 12 13  1  0  0  0  0
 13  8  2  0  0  0  0
 15 10  1  0  0  0  0
 16 12  1  0  0  0  0
 17  3  1  0  0  0  0
 18 19  2  0  0  0  0
 18 17  1  0  0  0  0
 20 17  1  0  0  0  0
 21 24  1  6  0  0  0
 21 18  1  0  0  0  0
 22 23  1  0  0  0  0
 22 21  1  0  0  0  0
 22 26  1  0  0  0  0
 23 21  1  0  0  0  0
 23 27  1  1  0  0  0
 25 22  1  0  0  0  0
 28 23  1  0  0  0  0
 29 28  1  0  0  0  0
 30 29  1  0  0  0  0
M  END
>  <minimizedAffinity>
-4.29311323

$$$$

 OpenBabel03242510203D

 30 32  0  0  1  0  0  0  0  0999 V2000
   35.9870   30.1280   39.5070 C   0  0  1  0  0  0  0  0  0  0  0  0
   34.9280   29.3200   39.9910 C   0  0  0  0  0  0  0  0  0  0  0  0
   36.0680   29.7220   40.9420 C   0  0  1  0  0  0  0  0  0  0  0  0
   35.8490   31.2140   39.2860 H   0  0  0  0  0  0  0  0  0  0  0  0
   33.9490   29.8040   40.2430 H   0  0  0  0  0  0  0  0  0  0  0  0
   34.8030   28.2290   39.8740 H   0  0  0  0  0  0  0  0  0  0  0  0
   35.7030   30.2780   41.8080 H   0  0  0  0  0  0  0  0  0  0  0  0
   36.7370   28.2690   37.8610 C   0  0  0  0  0  0  0  0  0  0  0  0
   37.0020   29.4770   38.5590 C   0  0  0  0  0  0  0  0  0  0  0  0
   38.2350   30.0690   38.3900 C   0  0  0  0  0  0  0  0  0  0  0  0
   39.1370   29.4810   37.5700 N   0  0  0  0  0  0  0  0  0  0  0  0
   38.8780   28.3240   36.9050 C   0  0  0  0  0  0  0  0  0  0  0  0
   37.6370   27.7060   37.0600 N   0  0  0  0  0  0  0  0  0  0  0  0
   35.7760   27.8210   38.0000 H   0  0  0  0  0  0  0  0  0  0  0  0
   38.4980   30.9860   38.8890 H   0  0  0  0  0  0  0  0  0  0  0  0
   39.5930   27.8470   36.2490 H   0  0  0  0  0  0  0  0  0  0  0  0
   36.9810   28.6610   41.2450 N   0  0  0  0  0  0  0  0  0  0  0  0
   37.1940   28.1930   42.5310 C   0  0  0  0  0  0  0  0  0  0  0  0
   37.3610   28.8080   43.6180 O   0  0  0  0  0  0  0  0  0  0  0  0
   37.5370   28.1880   40.4690 H   0  0  0  0  0  0  0  0  0  0  0  0
   37.2480   26.6940   42.7870 C   0  0  2  0  0  0  0  0  0  0  0  0
   38.6530   26.0200   42.6100 C   0  0  0  0  0  0  0  0  0  0  0  0
   37.4630   25.7390   41.7060 C   0  0  1  0  0  0  0  0  0  0  0  0
   36.7760   26.3520   43.7410 H   0  0  0  0  0  0  0  0  0  0  0  0
   38.9160   25.3210   43.3930 H   0  0  0  0  0  0  0  0  0  0  0  0
   39.4240   26.7360   42.3370 H   0  0  0  0  0  0  0  0  0  0  0  0
   37.7540   25.9460   40.6890 H   0  0  0  0  0  0  0  0  0  0  0  0
   36.8500   24.3350   41.7980 C   0  0  0  0  0  2  0  0  0  0  0  0
   36.2820   23.9010   40.4700 C   0  0  0  0  0  2  0  0  0  0  0  0
   37.0620   23.7910   39.6980 H   0  0  0  0  0  0  0  0  0  0  0  0
  1  4  1  6  0  0  0
  1  2  1  0  0  0  0
  1  3  1  0  0  0  0
  2  5  1  0  0  0  0
  2  3  1  0  0  0  0
  3 17  1  0  0  0  0
  3  7  1  1  0  0  0
  6  2  1  0  0  0  0
  8 14  1  0  0  0  0
  8  9  1  0  0  0  0
  9  1  1  0  0  0  0
 10  9  2  0  0  0  0
 10 15  1  0  0  0  0
 11 10  1  0  0  0  0
 12 13  1  0  0  0  0
 12 11  2  0  0  0  0
 13  8  2  0  0  0  0
 16 12  1  0  0  0  0
 17 18  1  0  0  0  0
 18 21  1  0  0  0  0
 18 19  2  0  0  0  0
 20 17  1  0  0  0  0
 21 24  1  1  0  0  0
 22 21  1  0  0  0  0
 22 25  1  0  0  0  0
 23 27  1  6  0  0  0
 23 28  1  0  0  0  0
 23 22  1  0  0  0  0
 23 21  1  0  0  0  0
 26 22  1  0  0  0  0
 29 28  1  0  0  0  0
 30 29  1  0  0  0  0
M  END
>  <minimizedAffinity>
-4.24154806

$$$$

 OpenBabel03242510203D

 30 32  0  0  1  0  0  0  0  0999 V2000
   36.8090   27.0490   43.1160 C   0  0  1  0  0  0  0  0  0  0  0  0
   37.4690   28.1980   43.6210 C   0  0  0  0  0  0  0  0  0  0  0  0
   36.5650   28.3270   42.3840 C   0  0  1  0  0  0  0  0  0  0  0  0
   35.9430   26.5840   43.6460 H   0  0  0  0  0  0  0  0  0  0  0  0
   37.0520   28.7050   44.5300 H   0  0  0  0  0  0  0  0  0  0  0  0
   38.5150   28.5060   43.4490 H   0  0  0  0  0  0  0  0  0  0  0  0
   35.7490   29.0360   42.5440 H   0  0  0  0  0  0  0  0  0  0  0  0
   39.0820   26.0110   42.4190 C   0  0  0  0  0  0  0  0  0  0  0  0
   37.6630   26.0020   42.3890 C   0  0  0  0  0  0  0  0  0  0  0  0
   37.0340   25.0200   41.6540 C   0  0  0  0  0  0  0  0  0  0  0  0
   37.7880   24.1110   40.9950 N   0  0  0  0  0  0  0  0  0  0  0  0
   39.1470   24.1260   41.0260 C   0  0  0  0  0  0  0  0  0  0  0  0
   39.8070   25.1090   41.7640 N   0  0  0  0  0  0  0  0  0  0  0  0
   39.5570   26.7770   42.9950 H   0  0  0  0  0  0  0  0  0  0  0  0
   35.9610   24.9570   41.5910 H   0  0  0  0  0  0  0  0  0  0  0  0
   39.7580   23.4030   40.5020 H   0  0  0  0  0  0  0  0  0  0  0  0
   37.2760   28.4920   41.1530 N   0  0  0  0  0  0  0  0  0  0  0  0
   36.6690   28.4000   39.9110 C   0  0  0  0  0  0  0  0  0  0  0  0
   35.8360   27.5710   39.4580 O   0  0  0  0  0  0  0  0  0  0  0  0
   38.3220   28.6960   41.1560 H   0  0  0  0  0  0  0  0  0  0  0  0
   36.9870   29.4320   38.8390 C   0  0  2  0  0  0  0  0  0  0  0  0
   38.4660   29.4420   38.3170 C   0  0  0  0  0  0  0  0  0  0  0  0
   37.8450   30.5800   39.1120 C   0  0  1  0  0  0  0  0  0  0  0  0
   36.2760   29.4650   37.9770 H   0  0  0  0  0  0  0  0  0  0  0  0
   38.5610   29.5190   37.2420 H   0  0  0  0  0  0  0  0  0  0  0  0
   39.0780   28.6780   38.7920 H   0  0  0  0  0  0  0  0  0  0  0  0
   38.4550   30.7580   39.9820 H   0  0  0  0  0  0  0  0  0  0  0  0
   37.6170   31.8970   38.3560 C   0  0  0  0  0  2  0  0  0  0  0  0
   37.2500   33.0110   39.3030 C   0  0  0  0  0  2  0  0  0  0  0  0
   38.0690   33.2530   40.0010 H   0  0  0  0  0  0  0  0  0  0  0  0
  1  2  1  0  0  0  0
  1  4  1  1  0  0  0
  2  5  1  0  0  0  0
  3  7  1  1  0  0  0
  3  1  1  0  0  0  0
  3  2  1  0  0  0  0
  6  2  1  0  0  0  0
  8 14  1  0  0  0  0
  9  8  1  0  0  0  0
  9  1  1  0  0  0  0
 10  9  2  0  0  0  0
 11 12  2  0  0  0  0
 11 10  1  0  0  0  0
 12 13  1  0  0  0  0
 13  8  2  0  0  0  0
 15 10  1  0  0  0  0
 16 12  1  0  0  0  0
 17 20  1  0  0  0  0
 17  3  1  0  0  0  0
 18 17  1  0  0  0  0
 19 18  2  0  0  0  0
 21 24  1  6  0  0  0
 21 23  1  0  0  0  0
 21 18  1  0  0  0  0
 22 26  1  0  0  0  0
 22 21  1  0  0  0  0
 22 23  1  0  0  0  0
 23 27  1  1  0  0  0
 25 22  1  0  0  0  0
 28 23  1  0  0  0  0
 28 29  1  0  0  0  0
 29 30  1  0  0  0  0
M  END
>  <minimizedAffinity>
-4.22019291

$$$$

 OpenBabel03242510203D

 30 32  0  0  1  0  0  0  0  0999 V2000
   37.2270   30.7780   37.4010 C   0  0  1  0  0  0  0  0  0  0  0  0
   37.7140   29.4610   37.2040 C   0  0  0  0  0  0  0  0  0  0  0  0
   36.2980   29.6680   37.7670 C   0  0  1  0  0  0  0  0  0  0  0  0
   36.9350   31.4350   36.5470 H   0  0  0  0  0  0  0  0  0  0  0  0
   37.7220   29.0370   36.1660 H   0  0  0  0  0  0  0  0  0  0  0  0
   38.3820   28.8820   37.8660 H   0  0  0  0  0  0  0  0  0  0  0  0
   35.5340   29.2090   37.1340 H   0  0  0  0  0  0  0  0  0  0  0  0
   37.2100   32.7720   39.0610 C   0  0  0  0  0  0  0  0  0  0  0  0
   37.8130   31.5840   38.5670 C   0  0  0  0  0  0  0  0  0  0  0  0
   38.9860   31.1590   39.1520 C   0  0  0  0  0  0  0  0  0  0  0  0
   39.5140   31.8840   40.1660 N   0  0  0  0  0  0  0  0  0  0  0  0
   38.9330   33.0200   40.6330 C   0  0  0  0  0  0  0  0  0  0  0  0
   37.7440   33.4710   40.0580 N   0  0  0  0  0  0  0  0  0  0  0  0
   36.2990   33.0890   38.6000 H   0  0  0  0  0  0  0  0  0  0  0  0
   39.4930   30.2660   38.8250 H   0  0  0  0  0  0  0  0  0  0  0  0
   39.3480   33.6060   41.4420 H   0  0  0  0  0  0  0  0  0  0  0  0
   36.1750   29.3840   39.1650 N   0  0  0  0  0  0  0  0  0  0  0  0
   36.4900   28.1530   39.7160 C   0  0  0  0  0  0  0  0  0  0  0  0
   36.2230   26.9830   39.3320 O   0  0  0  0  0  0  0  0  0  0  0  0
   35.8300   30.1320   39.8400 H   0  0  0  0  0  0  0  0  0  0  0  0
   37.3010   28.0890   41.0020 C   0  0  2  0  0  0  0  0  0  0  0  0
   36.4720   27.9790   42.3290 C   0  0  0  0  0  0  0  0  0  0  0  0
   37.3110   29.1920   41.9570 C   0  0  1  0  0  0  0  0  0  0  0  0
   38.1350   27.3450   41.0080 H   0  0  0  0  0  0  0  0  0  0  0  0
   36.8520   27.2520   43.0350 H   0  0  0  0  0  0  0  0  0  0  0  0
   35.4000   27.9450   42.1450 H   0  0  0  0  0  0  0  0  0  0  0  0
   36.6750   30.0610   41.9700 H   0  0  0  0  0  0  0  0  0  0  0  0
   38.5610   29.4470   42.8110 C   0  0  0  0  0  2  0  0  0  0  0  0
   39.2440   28.1530   43.1760 C   0  0  0  0  0  2  0  0  0  0  0  0
   39.6400   27.6260   42.2910 H   0  0  0  0  0  0  0  0  0  0  0  0
  1  4  1  6  0  0  0
  1  3  1  0  0  0  0
  1  9  1  0  0  0  0
  2  1  1  0  0  0  0
  2  3  1  0  0  0  0
  2  6  1  0  0  0  0
  3  7  1  6  0  0  0
  3 17  1  0  0  0  0
  5  2  1  0  0  0  0
  8 13  1  0  0  0  0
  9  8  2  0  0  0  0
  9 10  1  0  0  0  0
 10 11  2  0  0  0  0
 11 12  1  0  0  0  0
 12 16  1  0  0  0  0
 13 12  2  0  0  0  0
 14  8  1  0  0  0  0
 15 10  1  0  0  0  0
 17 18  1  0  0  0  0
 17 20  1  0  0  0  0
 18 21  1  0  0  0  0
 19 18  2  0  0  0  0
 21 24  1  6  0  0  0
 21 23  1  0  0  0  0
 21 22  1  0  0  0  0
 22 25  1  0  0  0  0
 23 27  1  6  0  0  0
 23 22  1  0  0  0  0
 23 28  1  0  0  0  0
 26 22  1  0  0  0  0
 28 29  1  0  0  0  0
 30 29  1  0  0  0  0
M  END
>  <minimizedAffinity>
-4.21925306

$$$$
