
 OpenBabel03242510193D

 30 32  0  0  1  0  0  0  0  0999 V2000
   46.3140   32.1540   44.4770 C   0  0  1  0  0  0  0  0  0  0  0  0
   46.6000   31.4810   43.2630 C   0  0  0  0  0  0  0  0  0  0  0  0
   47.7390   32.1720   44.0320 C   0  0  1  0  0  0  0  0  0  0  0  0
   46.0730   31.6010   45.4170 H   0  0  0  0  0  0  0  0  0  0  0  0
   46.6750   30.3630   43.2680 H   0  0  0  0  0  0  0  0  0  0  0  0
   46.4600   31.8570   42.2340 H   0  0  0  0  0  0  0  0  0  0  0  0
   48.5280   31.4700   44.3130 H   0  0  0  0  0  0  0  0  0  0  0  0
   45.1000   34.0320   43.1620 C   0  0  0  0  0  0  0  0  0  0  0  0
   45.5590   33.4860   44.3900 C   0  0  0  0  0  0  0  0  0  0  0  0
   45.3330   34.2030   45.5460 C   0  0  0  0  0  0  0  0  0  0  0  0
   44.6860   35.3890   45.4650 N   0  0  0  0  0  0  0  0  0  0  0  0
   44.2500   35.9070   44.2860 C   0  0  0  0  0  0  0  0  0  0  0  0
   44.4660   35.2000   43.1030 N   0  0  0  0  0  0  0  0  0  0  0  0
   45.2800   33.4640   42.2750 H   0  0  0  0  0  0  0  0  0  0  0  0
   45.6540   33.8450   46.5090 H   0  0  0  0  0  0  0  0  0  0  0  0
   43.7340   36.8540   44.2120 H   0  0  0  0  0  0  0  0  0  0  0  0
   48.1960   33.3900   43.4350 N   0  0  0  0  0  0  0  0  0  0  0  0
   49.3780   33.4810   42.7170 C   0  0  0  0  0  0  0  0  0  0  0  0
   50.5270   33.0260   42.9550 O   0  0  0  0  0  0  0  0  0  0  0  0
   47.6260   34.2850   43.5280 H   0  0  0  0  0  0  0  0  0  0  0  0
   49.3970   34.2350   41.3950 C   0  0  2  0  0  0  0  0  0  0  0  0
   48.8590   35.7070   41.4390 C   0  0  0  0  0  0  0  0  0  0  0  0
   48.1670   34.5790   40.6900 C   0  0  1  0  0  0  0  0  0  0  0  0
   50.3640   34.1970   40.8340 H   0  0  0  0  0  0  0  0  0  0  0  0
   49.4670   36.4230   40.9010 H   0  0  0  0  0  0  0  0  0  0  0  0
   48.5510   36.0060   42.4380 H   0  0  0  0  0  0  0  0  0  0  0  0
   47.1550   34.5030   41.0510 H   0  0  0  0  0  0  0  0  0  0  0  0
   48.1690   34.6720   39.1580 C   0  0  0  0  0  0  0  0  0  0  0  0
   47.3870   33.5400   38.5420 C   0  0  0  0  0  0  0  0  0  0  0  0
   46.3160   33.5830   38.8020 H   0  0  0  0  0  0  0  0  0  0  0  0
  1  4  1  1  0  0  0
  2  5  1  0  0  0  0
  2  3  1  0  0  0  0
  2  1  1  0  0  0  0
  3  7  1  1  0  0  0
  3  1  1  0  0  0  0
  6  2  1  0  0  0  0
  8  9  1  0  0  0  0
  9  1  1  0  0  0  0
  9 10  2  0  0  0  0
 10 15  1  0  0  0  0
 11 10  1  0  0  0  0
 12 11  2  0  0  0  0
 13  8  2  0  0  0  0
 13 12  1  0  0  0  0
 14  8  1  0  0  0  0
 16 12  1  0  0  0  0
 17 20  1  0  0  0  0
 17  3  1  0  0  0  0
 18 19  2  0  0  0  0
 18 17  1  0  0  0  0
 21 24  1  6  0  0  0
 21 22  1  0  0  0  0
 21 18  1  0  0  0  0
 22 26  1  0  0  0  0
 23 27  1  1  0  0  0
 23 21  1  0  0  0  0
 23 22  1  0  0  0  0
 25 22  1  0  0  0  0
 28 23  1  0  0  0  0
 29 30  1  0  0  0  0
 29 28  1  0  0  0  0
M  END
>  <minimizedAffinity>
-4.38929462

>  <minimizedRMSD>
0.565189302

$$$$
