
 OpenBabel03252508033D

 43 46  0  0  1  0  0  0  0  0999 V2000
   42.5010   33.4030   40.6550 C   0  0  0  0  0  0  0  0  0  0  0  0
   43.1240   34.4870   41.2050 C   0  0  0  0  0  0  0  0  0  0  0  0
   42.3550   35.6490   41.4240 C   0  0  0  0  0  0  0  0  0  0  0  0
   41.0190   35.7400   41.1130 C   0  0  0  0  0  0  0  0  0  0  0  0
   40.4010   34.6470   40.5620 C   0  0  0  0  0  0  0  0  0  0  0  0
   41.1390   33.5210   40.3480 C   0  0  0  0  0  0  0  0  0  0  0  0
   42.7600   36.5580   41.8440 H   0  0  0  0  0  0  0  0  0  0  0  0
   40.4410   36.6100   41.2770 H   0  0  0  0  0  0  0  0  0  0  0  0
   39.3740   34.6440   40.2980 H   0  0  0  0  0  0  0  0  0  0  0  0
   40.6340   32.6470   39.9040 H   0  0  0  0  0  0  0  0  0  0  0  0
   43.2750   31.9250   40.4330 S   0  0  0  0  0  0  0  0  0  0  0  0
   44.4160   32.3520   39.4570 O   0  0  0  0  0  0  0  0  0  0  0  0
   42.4450   30.9310   39.7130 O   0  0  0  0  0  0  0  0  0  0  0  0
   43.9730   30.4120   42.4550 C   0  0  0  0  0  0  0  0  0  0  0  0
   44.4650   31.1630   41.3500 C   0  0  0  0  0  0  0  0  0  0  0  0
   45.8480   31.0290   41.2560 C   0  0  0  0  0  0  0  0  0  0  0  0
   46.2010   31.5790   40.3610 H   0  0  0  0  0  0  0  0  0  0  0  0
   46.7630   30.3350   42.0120 C   0  0  0  0  0  0  0  0  0  0  0  0
   47.8000   30.3860   41.7400 H   0  0  0  0  0  0  0  0  0  0  0  0
   46.1200   29.6890   43.0080 C   0  0  0  0  0  3  0  0  0  0  0  0
   44.7820   29.6780   43.2850 C   0  0  0  0  0  3  0  0  0  0  0  0
   41.4350   30.3380   43.0900 N   0  0  0  0  0  0  0  0  0  0  0  0
   42.5550   30.3700   42.7980 C   0  0  0  0  0  0  0  0  0  0  0  0
   44.5290   34.4910   41.5690 C   0  0  0  0  0  0  0  0  0  0  0  0
   45.4840   34.4810   40.7350 O   0  0  0  0  0  0  0  0  0  0  0  0
   44.7470   34.5120   42.9940 C   0  0  0  0  0  0  0  0  0  0  0  0
   44.3580   35.7240   43.6610 C   0  0  0  0  0  0  0  0  0  0  0  0
   44.5520   35.7670   45.0340 C   0  0  0  0  0  0  0  0  0  0  0  0
   45.0870   34.6790   45.6480 N   0  0  0  0  0  0  0  0  0  0  0  0
   45.4400   33.5470   44.9610 C   0  0  0  0  0  0  0  0  0  0  0  0
   45.2630   33.5000   43.6850 N   0  0  0  0  0  0  0  0  0  0  0  0
   43.9360   36.6140   43.2520 H   0  0  0  0  0  0  0  0  0  0  0  0
   44.3040   36.6090   45.6370 H   0  0  0  0  0  0  0  0  0  0  0  0
   46.0040   32.4090   45.7170 C   0  0  1  0  0  0  0  0  0  0  0  0
   46.9660   32.6850   46.8490 C   0  0  0  0  0  0  0  0  0  0  0  0
   45.5420   32.3050   47.1180 C   0  0  1  0  0  0  0  0  0  0  0  0
   46.0950   31.4600   45.1640 H   0  0  0  0  0  0  0  0  0  0  0  0
   47.3260   33.7200   46.9340 H   0  0  0  0  0  0  0  0  0  0  0  0
   47.7450   31.8940   47.0370 H   0  0  0  0  0  0  0  0  0  0  0  0
   45.3790   31.3210   47.5990 H   0  0  0  0  0  0  0  0  0  0  0  0
   44.7810   33.3860   47.7200 N   0  0  0  0  0  0  0  0  0  0  0  0
   45.3090   33.8040   48.5110 H   0  0  0  0  0  0  0  0  0  0  0  0
   43.8710   32.9800   48.0710 H   0  0  0  0  0  0  0  0  0  0  0  0
  1  2  1  0  0  0  0
  2  3  2  0  0  0  0
  2 24  1  0  0  0  0
  3  7  1  0  0  0  0
  4  8  1  0  0  0  0
  4  3  1  0  0  0  0
  5  4  2  0  0  0  0
  6  5  1  0  0  0  0
  6  1  2  0  0  0  0
  9  5  1  0  0  0  0
 10  6  1  0  0  0  0
 11  1  1  0  0  0  0
 11 15  1  0  0  0  0
 12 11  2  0  0  0  0
 13 11  2  0  0  0  0
 14 23  1  0  0  0  0
 14 21  1  0  0  0  0
 15 14  2  0  0  0  0
 16 15  1  0  0  0  0
 16 18  2  0  0  0  0
 17 16  1  0  0  0  0
 18 20  1  0  0  0  0
 19 18  1  0  0  0  0
 20 21  2  0  0  0  0
 23 22  3  0  0  0  0
 24 26  1  0  0  0  0
 25 24  2  0  0  0  0
 26 27  2  0  0  0  0
 26 31  1  0  0  0  0
 27 28  1  0  0  0  0
 28 33  1  0  0  0  0
 28 29  2  0  0  0  0
 30 29  1  0  0  0  0
 30 34  1  0  0  0  0
 31 30  2  0  0  0  0
 32 27  1  0  0  0  0
 34 37  1  6  0  0  0
 34 35  1  0  0  0  0
 34 36  1  0  0  0  0
 35 38  1  0  0  0  0
 35 39  1  0  0  0  0
 35 36  1  0  0  0  0
 36 40  1  1  0  0  0
 36 41  1  0  0  0  0
 41 43  1  0  0  0  0
 41 42  1  0  0  0  0
M  END
>  <minimizedAffinity>
-5.63272572

>  <minimizedRMSD>
1.29750025

$$$$
