
 OpenBabel03242519243D

 41 44  0  0  0  0  0  0  0  0999 V2000
   47.8870   33.7780   42.8760 C   0  0  0  0  0  0  0  0  0  0  0  0
   48.5770   34.9890   42.6810 C   0  0  0  0  0  0  0  0  0  0  0  0
   49.9440   34.9770   42.3590 C   0  0  0  0  0  0  0  0  0  0  0  0
   50.5240   33.7400   42.2550 N   0  0  0  0  0  0  0  0  0  0  0  0
   49.8230   32.5800   42.4510 C   0  0  0  0  0  0  0  0  0  0  0  0
   48.5330   32.6160   42.7550 N   0  0  0  0  0  0  0  0  0  0  0  0
   48.2010   35.9960   42.7430 H   0  0  0  0  0  0  0  0  0  0  0  0
   50.5330   35.8550   42.1970 H   0  0  0  0  0  0  0  0  0  0  0  0
   46.4600   33.9160   43.2160 C   0  0  0  0  0  0  0  0  0  0  0  0
   45.7580   34.9330   42.4320 C   0  0  0  0  0  0  0  0  0  0  0  0
   45.3260   36.1200   43.2150 C   0  0  0  0  0  0  0  0  0  0  0  0
   44.5230   35.7640   44.4530 C   0  0  0  0  0  0  0  0  0  0  0  0
   44.9780   34.4980   45.1390 C   0  0  0  0  0  0  0  0  0  0  0  0
   46.4000   34.1550   44.7350 C   0  0  0  0  0  0  0  0  0  0  0  0
   45.9930   32.8930   43.1010 H   0  0  0  0  0  0  0  0  0  0  0  0
   46.3210   35.2850   41.5620 H   0  0  0  0  0  0  0  0  0  0  0  0
   44.8220   34.4750   41.9950 H   0  0  0  0  0  0  0  0  0  0  0  0
   44.6020   36.6930   42.5620 H   0  0  0  0  0  0  0  0  0  0  0  0
   46.0880   36.8400   43.4980 H   0  0  0  0  0  0  0  0  0  0  0  0
   43.4250   35.7350   44.2280 H   0  0  0  0  0  0  0  0  0  0  0  0
   44.6370   36.5740   45.2040 H   0  0  0  0  0  0  0  0  0  0  0  0
   44.3080   33.6580   44.8140 H   0  0  0  0  0  0  0  0  0  0  0  0
   44.9310   34.5330   46.2340 H   0  0  0  0  0  0  0  0  0  0  0  0
   47.0630   35.0100   44.9270 H   0  0  0  0  0  0  0  0  0  0  0  0
   46.7200   33.2440   45.2540 H   0  0  0  0  0  0  0  0  0  0  0  0
   50.6060   31.3530   42.3070 C   0  0  0  0  0  0  0  0  0  0  0  0
   50.3560   30.5840   41.2240 N   0  0  0  0  0  0  0  0  0  0  0  0
   51.1590   29.5090   41.2480 C   0  0  0  0  0  0  0  0  0  0  0  0
   51.9200   29.6230   42.3710 N   0  0  0  0  0  0  0  0  0  0  0  0
   51.5840   30.7530   43.0240 N   0  0  0  0  0  0  0  0  0  0  0  0
   51.2530   28.6750   40.5580 H   0  0  0  0  0  0  0  0  0  0  0  0
   52.7570   27.7390   43.7960 C   0  0  0  0  0  0  0  0  0  0  0  0
   52.9380   28.7790   42.9020 C   0  0  0  0  0  0  0  0  0  0  0  0
   54.2200   29.0820   42.4340 C   0  0  0  0  0  0  0  0  0  0  0  0
   54.4220   29.8950   41.7240 H   0  0  0  0  0  0  0  0  0  0  0  0
   55.3290   28.3650   42.8430 C   0  0  0  0  0  0  0  0  0  0  0  0
   56.3140   28.6140   42.4690 H   0  0  0  0  0  0  0  0  0  0  0  0
   55.1050   27.3290   43.7410 C   0  0  0  0  0  3  0  0  0  0  0  0
   53.8510   27.0060   44.2220 C   0  0  0  0  0  3  0  0  0  0  0  0
   50.3360   27.2760   44.5740 N   0  0  0  0  0  0  0  0  0  0  0  0
   51.4310   27.4960   44.2210 C   0  0  0  0  0  0  0  0  0  0  0  0
  1  9  1  0  0  0  0
  2  7  1  0  0  0  0
  2  1  2  0  0  0  0
  3  2  1  0  0  0  0
  4  3  2  0  0  0  0
  4  5  1  0  0  0  0
  5  6  2  0  0  0  0
  6  1  1  0  0  0  0
  8  3  1  0  0  0  0
  9 14  1  0  0  0  0
 10 11  1  0  0  0  0
 10  9  1  0  0  0  0
 11 19  1  0  0  0  0
 11 12  1  0  0  0  0
 12 13  1  0  0  0  0
 12 21  1  0  0  0  0
 13 23  1  0  0  0  0
 14 24  1  0  0  0  0
 14 13  1  0  0  0  0
 14 25  1  0  0  0  0
 15  9  1  0  0  0  0
 16 10  1  0  0  0  0
 17 10  1  0  0  0  0
 18 11  1  0  0  0  0
 20 12  1  0  0  0  0
 22 13  1  0  0  0  0
 26  5  1  0  0  0  0
 26 30  2  0  0  0  0
 27 28  2  0  0  0  0
 27 26  1  0  0  0  0
 28 29  1  0  0  0  0
 29 33  1  0  0  0  0
 29 30  1  0  0  0  0
 31 28  1  0  0  0  0
 32 41  1  0  0  0  0
 32 39  1  0  0  0  0
 33 32  2  0  0  0  0
 34 36  2  0  0  0  0
 34 33  1  0  0  0  0
 35 34  1  0  0  0  0
 36 38  1  0  0  0  0
 37 36  1  0  0  0  0
 38 39  2  0  0  0  0
 41 40  3  0  0  0  0
M  END
>  <minimizedAffinity>
-4.14720726

>  <minimizedRMSD>
1.54818618

$$$$
