
 OpenBabel03252500033D

 40 43  0  0  0  0  0  0  0  0999 V2000
   45.0370   33.6660   46.0170 C   0  0  0  0  0  0  0  0  0  0  0  0
   45.7460   33.7070   44.8220 C   0  0  0  0  0  0  0  0  0  0  0  0
   46.9880   33.1060   44.7300 C   0  0  0  0  0  0  0  0  0  0  0  0
   47.4110   32.5040   45.8890 N   0  0  0  0  0  0  0  0  0  0  0  0
   46.7320   32.4680   47.0220 C   0  0  0  0  0  0  0  0  0  0  0  0
   45.5450   33.0570   47.0670 N   0  0  0  0  0  0  0  0  0  0  0  0
   44.0700   34.1500   46.0400 H   0  0  0  0  0  0  0  0  0  0  0  0
   47.8200   33.0600   43.5940 C   0  0  0  0  0  0  0  0  0  0  0  0
   48.3070   34.2720   43.1130 C   0  0  0  0  0  0  0  0  0  0  0  0
   49.1310   34.4130   42.0210 C   0  0  0  0  0  0  0  0  0  0  0  0
   49.5330   33.3030   41.3190 C   0  0  0  0  0  0  0  0  0  0  0  0
   49.0850   32.0630   41.7420 C   0  0  0  0  0  0  0  0  0  0  0  0
   49.4480   30.9270   41.0880 C   0  0  0  0  0  0  0  0  0  0  0  0
   49.0330   29.6680   41.4670 C   0  0  0  0  0  0  0  0  0  0  0  0
   48.1940   29.6050   42.5900 C   0  0  0  0  0  0  0  0  0  0  0  0
   47.8540   30.7900   43.2180 C   0  0  0  0  0  0  0  0  0  0  0  0
   48.2720   32.0040   42.8280 C   0  0  0  0  0  0  0  0  0  0  0  0
   48.0520   35.2130   43.5920 H   0  0  0  0  0  0  0  0  0  0  0  0
   49.4890   35.3700   41.6780 H   0  0  0  0  0  0  0  0  0  0  0  0
   50.1720   33.4030   40.4700 H   0  0  0  0  0  0  0  0  0  0  0  0
   50.1010   30.9850   40.2150 H   0  0  0  0  0  0  0  0  0  0  0  0
   49.3330   28.7770   40.9320 H   0  0  0  0  0  0  0  0  0  0  0  0
   47.8900   28.6190   42.8580 H   0  0  0  0  0  0  0  0  0  0  0  0
   47.0010   30.5320   44.3320 N   0  0  0  0  0  0  0  0  0  0  0  0
   47.1530   30.3130   45.3380 H   0  0  0  0  0  0  0  0  0  0  0  0
   45.9730   30.4760   44.4640 H   0  0  0  0  0  0  0  0  0  0  0  0
   44.5140   33.5120   42.8200 C   0  0  0  0  0  0  0  0  0  0  0  0
   45.1790   34.3910   43.6850 C   0  0  0  0  0  0  0  0  0  0  0  0
   45.1910   35.7180   43.3230 C   0  0  0  0  0  0  0  0  0  0  0  0
   45.7190   36.3410   44.0250 H   0  0  0  0  0  0  0  0  0  0  0  0
   44.5920   36.2010   42.1800 C   0  0  0  0  0  0  0  0  0  0  0  0
   44.6630   37.2460   42.0010 H   0  0  0  0  0  0  0  0  0  0  0  0
   43.9410   35.3260   41.3400 C   0  0  0  0  0  3  0  0  0  0  0  0
   43.9050   33.9880   41.6610 C   0  0  0  0  0  3  0  0  0  0  0  0
   44.3280   30.9580   43.2050 N   0  0  0  0  0  0  0  0  0  0  0  0
   44.4070   32.0970   43.0440 C   0  0  0  0  0  0  0  0  0  0  0  0
   47.4290   31.7440   48.1350 C   0  0  0  0  0  0  0  0  0  0  0  0
   46.5800   31.4850   49.1760 F   0  0  0  0  0  0  0  0  0  0  0  0
   48.5250   32.4750   48.5610 F   0  0  0  0  0  0  0  0  0  0  0  0
   47.9940   30.5690   47.6160 F   0  0  0  0  0  0  0  0  0  0  0  0
  1  7  1  0  0  0  0
  1  6  1  0  0  0  0
  2  1  2  0  0  0  0
  3  2  1  0  0  0  0
  3  4  2  0  0  0  0
  4  5  1  0  0  0  0
  5  6  2  0  0  0  0
  5 37  1  0  0  0  0
  8  3  1  0  0  0  0
  9 18  1  0  0  0  0
  9  8  1  0  0  0  0
 10  9  2  0  0  0  0
 11 12  2  0  0  0  0
 11 10  1  0  0  0  0
 12 17  1  0  0  0  0
 13 14  2  0  0  0  0
 13 12  1  0  0  0  0
 14 15  1  0  0  0  0
 15 23  1  0  0  0  0
 15 16  2  0  0  0  0
 16 24  1  0  0  0  0
 17 16  1  0  0  0  0
 17  8  2  0  0  0  0
 19 10  1  0  0  0  0
 20 11  1  0  0  0  0
 21 13  1  0  0  0  0
 22 14  1  0  0  0  0
 24 26  1  0  0  0  0
 24 25  1  0  0  0  0
 27 36  1  0  0  0  0
 27 28  1  0  0  0  0
 28  2  1  0  0  0  0
 29 28  2  0  0  0  0
 29 30  1  0  0  0  0
 31 29  1  0  0  0  0
 32 31  1  0  0  0  0
 33 34  1  0  0  0  0
 33 31  2  0  0  0  0
 34 27  2  0  0  0  0
 36 35  3  0  0  0  0
 37 39  1  0  0  0  0
 37 38  1  0  0  0  0
 40 37  1  0  0  0  0
M  END
>  <minimizedAffinity>
-5.50788021

>  <minimizedRMSD>
3.46666884

$$$$
