
 OpenBabel03252507223D

 48 51  0  0  1  0  0  0  0  0999 V2000
   47.4530   33.4730   42.9410 C   0  0  0  0  0  0  0  0  0  0  0  0
   48.5960   33.4820   43.5310 O   0  0  0  0  0  0  0  0  0  0  0  0
   47.1520   32.6800   41.7730 N   0  0  0  0  0  0  0  0  0  0  0  0
   45.9790   31.9030   41.4490 C   0  0  0  0  0  0  0  0  0  0  0  0
   45.4910   32.3250   40.0570 C   0  0  0  0  0  0  0  0  0  0  0  0
   46.5230   31.9880   39.0190 C   0  0  0  0  0  0  0  0  0  0  0  0
   47.8420   31.6820   39.6920 C   0  0  0  0  0  0  0  0  0  0  0  0
   48.1930   32.6990   40.7500 C   0  0  2  0  0  0  0  0  0  0  0  0
   45.1370   32.1320   42.1600 H   0  0  0  0  0  0  0  0  0  0  0  0
   46.1700   30.8150   41.3960 H   0  0  0  0  0  0  0  0  0  0  0  0
   45.2850   33.4230   40.0970 H   0  0  0  0  0  0  0  0  0  0  0  0
   44.5540   31.7660   39.8660 H   0  0  0  0  0  0  0  0  0  0  0  0
   46.6870   32.9080   38.4170 H   0  0  0  0  0  0  0  0  0  0  0  0
   46.2250   31.1150   38.4260 H   0  0  0  0  0  0  0  0  0  0  0  0
   48.6750   31.6080   38.9810 H   0  0  0  0  0  0  0  0  0  0  0  0
   47.7640   30.6420   40.1360 H   0  0  0  0  0  0  0  0  0  0  0  0
   48.1430   33.6890   40.2830 H   0  0  0  0  0  0  0  0  0  0  0  0
   46.0490   35.4570   42.7660 C   0  0  0  0  0  0  0  0  0  0  0  0
   46.4260   34.3090   43.4890 C   0  0  0  0  0  0  0  0  0  0  0  0
   45.8070   34.0240   44.6960 C   0  0  0  0  0  0  0  0  0  0  0  0
   44.8530   34.8790   45.1250 N   0  0  0  0  0  0  0  0  0  0  0  0
   44.4740   35.9810   44.4540 C   0  0  0  0  0  0  0  0  0  0  0  0
   45.0880   36.2560   43.2690 N   0  0  0  0  0  0  0  0  0  0  0  0
   46.5230   35.7000   41.8230 H   0  0  0  0  0  0  0  0  0  0  0  0
   43.7030   36.6520   44.8340 H   0  0  0  0  0  0  0  0  0  0  0  0
   46.2140   32.8340   45.4230 C   0  0  0  0  0  0  0  0  0  0  0  0
   45.8750   31.6000   44.9520 C   0  0  0  0  0  0  0  0  0  0  0  0
   46.2760   30.5020   45.6660 C   0  0  0  0  0  0  0  0  0  0  0  0
   47.0060   30.5800   46.8420 C   0  0  0  0  0  0  0  0  0  0  0  0
   47.3150   31.8610   47.2680 C   0  0  0  0  0  0  0  0  0  0  0  0
   46.9140   32.9140   46.5530 N   0  0  0  0  0  0  0  0  0  0  0  0
   45.3160   31.3980   44.0550 H   0  0  0  0  0  0  0  0  0  0  0  0
   46.0180   29.4920   45.3060 H   0  0  0  0  0  0  0  0  0  0  0  0
   47.3090   29.7000   47.3870 H   0  0  0  0  0  0  0  0  0  0  0  0
   47.8870   31.9480   48.1780 H   0  0  0  0  0  0  0  0  0  0  0  0
   49.5670   32.4910   41.2400 C   0  0  0  0  0  0  0  0  0  0  0  0
   50.1650   32.7100   40.2850 H   0  0  0  0  0  0  0  0  0  0  0  0
   49.9830   33.3490   41.8600 H   0  0  0  0  0  0  0  0  0  0  0  0
   51.0040   30.4900   40.9160 C   0  0  0  0  0  0  0  0  0  0  0  0
   50.0380   31.1970   41.6730 C   0  0  0  0  0  0  0  0  0  0  0  0
   49.6640   30.3950   42.7570 C   0  0  0  0  0  0  0  0  0  0  0  0
   48.8930   30.7780   43.4080 H   0  0  0  0  0  0  0  0  0  0  0  0
   50.0840   29.1690   43.1040 C   0  0  0  0  0  0  0  0  0  0  0  0
   49.6910   28.6640   43.9920 H   0  0  0  0  0  0  0  0  0  0  0  0
   51.0230   28.5340   42.3340 C   0  0  0  0  0  3  0  0  0  0  0  0
   51.4820   29.2130   41.2260 C   0  0  0  0  0  3  0  0  0  0  0  0
   52.0300   31.6790   38.8060 N   0  0  0  0  0  0  0  0  0  0  0  0
   51.5700   31.1370   39.7480 C   0  0  0  0  0  0  0  0  0  0  0  0
  1 19  1  0  0  0  0
  1  2  2  0  0  0  0
  3  1  1  0  0  0  0
  4  3  1  0  0  0  0
  4  9  1  0  0  0  0
  5 11  1  0  0  0  0
  5  4  1  0  0  0  0
  6  7  1  0  0  0  0
  6  5  1  0  0  0  0
  7 16  1  0  0  0  0
  7  8  1  0  0  0  0
  8 17  1  6  0  0  0
  8 36  1  0  0  0  0
  8  3  1  0  0  0  0
 10  4  1  0  0  0  0
 12  5  1  0  0  0  0
 13  6  1  0  0  0  0
 14  6  1  0  0  0  0
 15  7  1  0  0  0  0
 18 23  2  0  0  0  0
 18 19  1  0  0  0  0
 19 20  2  0  0  0  0
 20 21  1  0  0  0  0
 20 26  1  0  0  0  0
 22 25  1  0  0  0  0
 22 21  2  0  0  0  0
 23 22  1  0  0  0  0
 24 18  1  0  0  0  0
 26 31  1  0  0  0  0
 27 26  2  0  0  0  0
 27 28  1  0  0  0  0
 28 29  2  0  0  0  0
 29 30  1  0  0  0  0
 29 34  1  0  0  0  0
 30 35  1  0  0  0  0
 31 30  2  0  0  0  0
 32 27  1  0  0  0  0
 33 28  1  0  0  0  0
 36 40  1  0  0  0  0
 36 38  1  0  0  0  0
 37 36  1  0  0  0  0
 39 46  2  0  0  0  0
 39 40  1  0  0  0  0
 40 41  2  0  0  0  0
 41 43  1  0  0  0  0
 41 42  1  0  0  0  0
 43 44  1  0  0  0  0
 45 43  2  0  0  0  0
 46 45  1  0  0  0  0
 47 48  3  0  0  0  0
 48 39  1  0  0  0  0
M  END
>  <minimizedAffinity>
-4.94723129

>  <minimizedRMSD>
0.96595192

$$$$
