
 OpenBabel03242522483D

 42 45  0  0  0  0  0  0  0  0999 V2000
   36.6330   29.7840   40.8660 C   0  0  0  0  0  0  0  0  0  0  0  0
   37.8130   30.2030   40.2370 C   0  0  0  0  0  0  0  0  0  0  0  0
   38.6580   29.2280   39.6320 C   0  0  0  0  0  0  0  0  0  0  0  0
   38.2580   27.9350   39.7070 N   0  0  0  0  0  0  0  0  0  0  0  0
   37.1200   27.5570   40.3170 C   0  0  0  0  0  0  0  0  0  0  0  0
   36.3350   28.4760   40.8800 N   0  0  0  0  0  0  0  0  0  0  0  0
   35.8020   30.7490   41.4620 N   0  0  0  0  0  0  0  0  0  0  0  0
   39.5680   29.5250   39.1450 H   0  0  0  0  0  0  0  0  0  0  0  0
   36.2650   31.5040   42.0200 H   0  0  0  0  0  0  0  0  0  0  0  0
   34.7720   30.6640   41.3190 H   0  0  0  0  0  0  0  0  0  0  0  0
   38.2230   31.5870   40.1670 C   0  0  0  0  0  0  0  0  0  0  0  0
   37.4640   32.6870   39.8460 C   0  0  0  0  0  0  0  0  0  0  0  0
   38.0170   33.9520   39.8230 C   0  0  0  0  0  0  0  0  0  0  0  0
   39.3670   34.1670   40.1270 C   0  0  0  0  0  0  0  0  0  0  0  0
   39.8040   35.4290   40.0780 N   0  0  0  0  0  0  0  0  0  0  0  0
   41.1260   35.6610   40.3730 C   0  0  0  0  0  0  0  0  0  0  0  0
   41.9100   34.5640   40.7010 C   0  0  0  0  0  0  0  0  0  0  0  0
   41.4460   33.2710   40.7490 C   0  0  0  0  0  0  0  0  0  0  0  0
   40.1200   33.0550   40.4500 C   0  0  0  0  0  0  0  0  0  0  0  0
   39.5740   31.7770   40.4750 C   0  0  0  0  0  0  0  0  0  0  0  0
   36.4280   32.4730   39.6190 H   0  0  0  0  0  0  0  0  0  0  0  0
   37.3930   34.7950   39.5650 H   0  0  0  0  0  0  0  0  0  0  0  0
   41.5530   36.6550   40.3540 H   0  0  0  0  0  0  0  0  0  0  0  0
   42.9600   34.6990   40.9410 H   0  0  0  0  0  0  0  0  0  0  0  0
   42.0840   32.4320   41.0080 H   0  0  0  0  0  0  0  0  0  0  0  0
   40.2620   30.9890   40.7410 H   0  0  0  0  0  0  0  0  0  0  0  0
   36.7730   26.0990   40.3420 C   0  0  0  0  0  0  0  0  0  0  0  0
   35.7300   26.0390   39.9360 H   0  0  0  0  0  0  0  0  0  0  0  0
   37.4800   25.4670   39.8090 H   0  0  0  0  0  0  0  0  0  0  0  0
   36.6410   25.6570   41.8140 C   0  0  0  0  0  0  0  0  0  0  0  0
   36.2390   24.6150   41.8480 H   0  0  0  0  0  0  0  0  0  0  0  0
   36.0230   26.3720   42.3530 H   0  0  0  0  0  0  0  0  0  0  0  0
   38.9140   24.6010   42.1360 C   0  0  0  0  0  0  0  0  0  0  0  0
   38.0160   25.6170   42.3840 C   0  0  0  0  0  0  0  0  0  0  0  0
   38.4390   26.6420   43.2110 C   0  0  0  0  0  0  0  0  0  0  0  0
   37.7220   27.4480   43.4070 H   0  0  0  0  0  0  0  0  0  0  0  0
   39.6720   26.7510   43.8140 C   0  0  0  0  0  0  0  0  0  0  0  0
   39.8910   27.6030   44.4440 H   0  0  0  0  0  0  0  0  0  0  0  0
   40.5410   25.7150   43.5420 C   0  0  0  0  0  3  0  0  0  0  0  0
   40.1850   24.6530   42.7200 C   0  0  0  0  0  3  0  0  0  0  0  0
   38.1660   22.6500   40.5950 N   0  0  0  0  0  0  0  0  0  0  0  0
   38.5110   23.5210   41.2840 C   0  0  0  0  0  0  0  0  0  0  0  0
  1  6  1  0  0  0  0
  1  7  1  0  0  0  0
  2  1  2  0  0  0  0
  3  4  2  0  0  0  0
  3  2  1  0  0  0  0
  4  5  1  0  0  0  0
  5 27  1  0  0  0  0
  5  6  2  0  0  0  0
  7  9  1  0  0  0  0
  8  3  1  0  0  0  0
 10  7  1  0  0  0  0
 11  2  1  0  0  0  0
 11 20  1  0  0  0  0
 12 11  2  0  0  0  0
 13 12  1  0  0  0  0
 13 14  2  0  0  0  0
 14 19  1  0  0  0  0
 15 14  1  0  0  0  0
 15 16  2  0  0  0  0
 16 17  1  0  0  0  0
 17 18  2  0  0  0  0
 17 24  1  0  0  0  0
 18 25  1  0  0  0  0
 19 20  2  0  0  0  0
 19 18  1  0  0  0  0
 20 26  1  0  0  0  0
 21 12  1  0  0  0  0
 22 13  1  0  0  0  0
 23 16  1  0  0  0  0
 27 30  1  0  0  0  0
 28 27  1  0  0  0  0
 29 27  1  0  0  0  0
 30 31  1  0  0  0  0
 30 32  1  0  0  0  0
 30 34  1  0  0  0  0
 33 34  2  0  0  0  0
 33 40  1  0  0  0  0
 34 35  1  0  0  0  0
 35 36  1  0  0  0  0
 35 37  2  0  0  0  0
 37 38  1  0  0  0  0
 39 37  1  0  0  0  0
 40 39  2  0  0  0  0
 41 42  3  0  0  0  0
 42 33  1  0  0  0  0
M  END
>  <minimizedAffinity>
-6.87877941

$$$$

 OpenBabel03242522483D

 42 45  0  0  0  0  0  0  0  0999 V2000
   36.1810   30.4870   40.0740 C   0  0  0  0  0  0  0  0  0  0  0  0
   37.1510   31.0620   39.2430 C   0  0  0  0  0  0  0  0  0  0  0  0
   37.4890   30.4120   38.0220 C   0  0  0  0  0  0  0  0  0  0  0  0
   36.8380   29.2580   37.7380 N   0  0  0  0  0  0  0  0  0  0  0  0
   35.9090   28.7240   38.5540 C   0  0  0  0  0  0  0  0  0  0  0  0
   35.5990   29.3410   39.6940 N   0  0  0  0  0  0  0  0  0  0  0  0
   35.8510   31.1330   41.2800 N   0  0  0  0  0  0  0  0  0  0  0  0
   38.2310   30.8330   37.3680 H   0  0  0  0  0  0  0  0  0  0  0  0
   36.6390   31.5180   41.8510 H   0  0  0  0  0  0  0  0  0  0  0  0
   34.8430   31.1940   41.5420 H   0  0  0  0  0  0  0  0  0  0  0  0
   37.8360   32.2940   39.5620 C   0  0  0  0  0  0  0  0  0  0  0  0
   37.3240   33.5700   39.6040 C   0  0  0  0  0  0  0  0  0  0  0  0
   38.1230   34.6480   39.9270 C   0  0  0  0  0  0  0  0  0  0  0  0
   39.4820   34.4900   40.2270 C   0  0  0  0  0  0  0  0  0  0  0  0
   40.1670   35.5970   40.5290 N   0  0  0  0  0  0  0  0  0  0  0  0
   41.5020   35.4620   40.8270 C   0  0  0  0  0  0  0  0  0  0  0  0
   42.0390   34.1830   40.7910 C   0  0  0  0  0  0  0  0  0  0  0  0
   41.3210   33.0530   40.4800 C   0  0  0  0  0  0  0  0  0  0  0  0
   39.9850   33.2050   40.1840 C   0  0  0  0  0  0  0  0  0  0  0  0
   39.1910   32.1110   39.8580 C   0  0  0  0  0  0  0  0  0  0  0  0
   36.2710   33.6440   39.3660 H   0  0  0  0  0  0  0  0  0  0  0  0
   37.6880   35.6380   39.9500 H   0  0  0  0  0  0  0  0  0  0  0  0
   42.1220   36.3110   41.0800 H   0  0  0  0  0  0  0  0  0  0  0  0
   43.0890   34.0290   41.0180 H   0  0  0  0  0  0  0  0  0  0  0  0
   41.7690   32.0640   40.4590 H   0  0  0  0  0  0  0  0  0  0  0  0
   39.6980   31.1590   39.8570 H   0  0  0  0  0  0  0  0  0  0  0  0
   35.2500   27.4430   38.1430 C   0  0  0  0  0  0  0  0  0  0  0  0
   34.6890   27.0970   39.0490 H   0  0  0  0  0  0  0  0  0  0  0  0
   34.6240   27.5310   37.2570 H   0  0  0  0  0  0  0  0  0  0  0  0
   36.3470   26.3780   37.9370 C   0  0  0  0  0  0  0  0  0  0  0  0
   37.3240   26.8890   37.7560 H   0  0  0  0  0  0  0  0  0  0  0  0
   36.0560   25.7110   37.1270 H   0  0  0  0  0  0  0  0  0  0  0  0
   35.9960   24.3450   39.3970 C   0  0  0  0  0  0  0  0  0  0  0  0
   36.4730   25.6260   39.2160 C   0  0  0  0  0  0  0  0  0  0  0  0
   37.0990   26.2220   40.2950 C   0  0  0  0  0  0  0  0  0  0  0  0
   37.4770   27.2410   40.1490 H   0  0  0  0  0  0  0  0  0  0  0  0
   37.2940   25.6640   41.5390 C   0  0  0  0  0  0  0  0  0  0  0  0
   37.8010   26.2290   42.3100 H   0  0  0  0  0  0  0  0  0  0  0  0
   36.8020   24.3830   41.6800 C   0  0  0  0  0  3  0  0  0  0  0  0
   36.1640   23.7220   40.6390 C   0  0  0  0  0  3  0  0  0  0  0  0
   34.8100   23.1840   37.4010 N   0  0  0  0  0  0  0  0  0  0  0  0
   35.3420   23.6950   38.3000 C   0  0  0  0  0  0  0  0  0  0  0  0
  1  7  1  0  0  0  0
  2 11  1  0  0  0  0
  2  1  2  0  0  0  0
  3  2  1  0  0  0  0
  4  3  2  0  0  0  0
  4  5  1  0  0  0  0
  5  6  2  0  0  0  0
  6  1  1  0  0  0  0
  7 10  1  0  0  0  0
  7  9  1  0  0  0  0
  8  3  1  0  0  0  0
 11 12  2  0  0  0  0
 11 20  1  0  0  0  0
 12 13  1  0  0  0  0
 13 22  1  0  0  0  0
 13 14  2  0  0  0  0
 14 15  1  0  0  0  0
 15 16  2  0  0  0  0
 16 23  1  0  0  0  0
 17 16  1  0  0  0  0
 17 24  1  0  0  0  0
 18 17  2  0  0  0  0
 19 14  1  0  0  0  0
 19 18  1  0  0  0  0
 20 19  2  0  0  0  0
 21 12  1  0  0  0  0
 25 18  1  0  0  0  0
 26 20  1  0  0  0  0
 27  5  1  0  0  0  0
 27 28  1  0  0  0  0
 29 27  1  0  0  0  0
 30 27  1  0  0  0  0
 30 34  1  0  0  0  0
 31 30  1  0  0  0  0
 32 30  1  0  0  0  0
 33 40  1  0  0  0  0
 34 33  2  0  0  0  0
 34 35  1  0  0  0  0
 35 37  2  0  0  0  0
 36 35  1  0  0  0  0
 37 39  1  0  0  0  0
 37 38  1  0  0  0  0
 40 39  2  0  0  0  0
 41 42  3  0  0  0  0
 42 33  1  0  0  0  0
M  END
>  <minimizedAffinity>
-6.60323334

$$$$

 OpenBabel03242522483D

 42 45  0  0  0  0  0  0  0  0999 V2000
   35.4200   29.2730   39.9000 C   0  0  0  0  0  0  0  0  0  0  0  0
   36.1570   28.0860   39.9980 C   0  0  0  0  0  0  0  0  0  0  0  0
   36.1270   27.1620   38.9150 C   0  0  0  0  0  0  0  0  0  0  0  0
   35.3740   27.4980   37.8400 N   0  0  0  0  0  0  0  0  0  0  0  0
   34.6730   28.6450   37.7690 C   0  0  0  0  0  0  0  0  0  0  0  0
   34.7070   29.5040   38.7880 N   0  0  0  0  0  0  0  0  0  0  0  0
   35.4510   30.1820   40.9740 N   0  0  0  0  0  0  0  0  0  0  0  0
   36.6840   26.2450   38.9660 H   0  0  0  0  0  0  0  0  0  0  0  0
   35.3820   29.7870   41.9400 H   0  0  0  0  0  0  0  0  0  0  0  0
   35.5420   31.1980   40.7520 H   0  0  0  0  0  0  0  0  0  0  0  0
   36.9560   27.7440   41.1540 C   0  0  0  0  0  0  0  0  0  0  0  0
   36.5310   27.4500   42.4280 C   0  0  0  0  0  0  0  0  0  0  0  0
   37.4340   27.1440   43.4270 C   0  0  0  0  0  0  0  0  0  0  0  0
   38.8140   27.1180   43.1850 C   0  0  0  0  0  0  0  0  0  0  0  0
   39.6020   26.8090   44.2180 N   0  0  0  0  0  0  0  0  0  0  0  0
   40.9590   26.7780   44.0010 C   0  0  0  0  0  0  0  0  0  0  0  0
   41.4090   27.0730   42.7220 C   0  0  0  0  0  0  0  0  0  0  0  0
   40.5850   27.3880   41.6680 C   0  0  0  0  0  0  0  0  0  0  0  0
   39.2280   27.4150   41.9010 C   0  0  0  0  0  0  0  0  0  0  0  0
   38.3290   27.7250   40.8880 C   0  0  0  0  0  0  0  0  0  0  0  0
   35.4590   27.4810   42.5670 H   0  0  0  0  0  0  0  0  0  0  0  0
   37.0670   26.9180   44.4180 H   0  0  0  0  0  0  0  0  0  0  0  0
   41.6610   26.5370   44.7880 H   0  0  0  0  0  0  0  0  0  0  0  0
   42.4720   27.0610   42.5050 H   0  0  0  0  0  0  0  0  0  0  0  0
   40.9660   27.6140   40.6770 H   0  0  0  0  0  0  0  0  0  0  0  0
   38.7740   27.9390   39.9290 H   0  0  0  0  0  0  0  0  0  0  0  0
   33.8720   28.9180   36.5320 C   0  0  0  0  0  0  0  0  0  0  0  0
   34.0510   29.9990   36.2980 H   0  0  0  0  0  0  0  0  0  0  0  0
   34.1000   28.2540   35.7020 H   0  0  0  0  0  0  0  0  0  0  0  0
   32.3750   28.8450   36.8990 C   0  0  0  0  0  0  0  0  0  0  0  0
   32.2630   28.9600   38.0040 H   0  0  0  0  0  0  0  0  0  0  0  0
   31.9550   27.9140   36.5210 H   0  0  0  0  0  0  0  0  0  0  0  0
   30.6960   30.7330   36.8630 C   0  0  0  0  0  0  0  0  0  0  0  0
   31.7100   30.0160   36.2640 C   0  0  0  0  0  0  0  0  0  0  0  0
   32.1130   30.4270   35.0060 C   0  0  0  0  0  0  0  0  0  0  0  0
   32.9190   29.8540   34.5320 H   0  0  0  0  0  0  0  0  0  0  0  0
   31.6020   31.4840   34.2880 C   0  0  0  0  0  0  0  0  0  0  0  0
   31.9990   31.7130   33.3080 H   0  0  0  0  0  0  0  0  0  0  0  0
   30.5900   32.1760   34.9200 C   0  0  0  0  0  3  0  0  0  0  0  0
   30.1350   31.8210   36.1840 C   0  0  0  0  0  3  0  0  0  0  0  0
   29.8810   30.0040   39.2170 N   0  0  0  0  0  0  0  0  0  0  0  0
   30.2530   30.3370   38.1670 C   0  0  0  0  0  0  0  0  0  0  0  0
  1  2  1  0  0  0  0
  1  7  1  0  0  0  0
  2 11  1  0  0  0  0
  3  8  1  0  0  0  0
  3  2  2  0  0  0  0
  4  3  1  0  0  0  0
  5  4  2  0  0  0  0
  5  6  1  0  0  0  0
  6  1  2  0  0  0  0
  7  9  1  0  0  0  0
 10  7  1  0  0  0  0
 11 12  1  0  0  0  0
 12 21  1  0  0  0  0
 12 13  2  0  0  0  0
 13 22  1  0  0  0  0
 14 13  1  0  0  0  0
 14 15  1  0  0  0  0
 16 15  2  0  0  0  0
 16 23  1  0  0  0  0
 17 16  1  0  0  0  0
 18 19  1  0  0  0  0
 18 17  2  0  0  0  0
 19 14  2  0  0  0  0
 20 11  2  0  0  0  0
 20 19  1  0  0  0  0
 24 17  1  0  0  0  0
 25 18  1  0  0  0  0
 26 20  1  0  0  0  0
 27 30  1  0  0  0  0
 27  5  1  0  0  0  0
 28 27  1  0  0  0  0
 29 27  1  0  0  0  0
 30 31  1  0  0  0  0
 32 30  1  0  0  0  0
 33 42  1  0  0  0  0
 34 33  1  0  0  0  0
 34 30  1  0  0  0  0
 35 34  2  0  0  0  0
 36 35  1  0  0  0  0
 37 39  2  0  0  0  0
 37 35  1  0  0  0  0
 38 37  1  0  0  0  0
 39 40  1  0  0  0  0
 40 33  2  0  0  0  0
 42 41  3  0  0  0  0
M  END
>  <minimizedAffinity>
-6.59696913

$$$$

 OpenBabel03242522483D

 42 45  0  0  0  0  0  0  0  0999 V2000
   37.2390   31.0640   40.9120 C   0  0  0  0  0  0  0  0  0  0  0  0
   38.5710   31.3570   41.2290 C   0  0  0  0  0  0  0  0  0  0  0  0
   39.2480   30.5490   42.1870 C   0  0  0  0  0  0  0  0  0  0  0  0
   38.5440   29.5300   42.7400 N   0  0  0  0  0  0  0  0  0  0  0  0
   37.2630   29.2690   42.4180 C   0  0  0  0  0  0  0  0  0  0  0  0
   36.6390   30.0310   41.5200 N   0  0  0  0  0  0  0  0  0  0  0  0
   36.5740   31.8660   39.9660 N   0  0  0  0  0  0  0  0  0  0  0  0
   40.2700   30.7530   42.4480 H   0  0  0  0  0  0  0  0  0  0  0  0
   36.7170   32.9010   40.0280 H   0  0  0  0  0  0  0  0  0  0  0  0
   35.9780   31.3910   39.2540 H   0  0  0  0  0  0  0  0  0  0  0  0
   39.3060   32.4480   40.6300 C   0  0  0  0  0  0  0  0  0  0  0  0
   39.1770   33.7960   40.8670 C   0  0  0  0  0  0  0  0  0  0  0  0
   39.9630   34.7150   40.2010 C   0  0  0  0  0  0  0  0  0  0  0  0
   40.9210   34.3150   39.2610 C   0  0  0  0  0  0  0  0  0  0  0  0
   41.6300   35.2830   38.6720 N   0  0  0  0  0  0  0  0  0  0  0  0
   42.5760   34.9110   37.7470 C   0  0  0  0  0  0  0  0  0  0  0  0
   42.7220   33.5550   37.4920 C   0  0  0  0  0  0  0  0  0  0  0  0
   41.9860   32.5710   38.1060 C   0  0  0  0  0  0  0  0  0  0  0  0
   41.0420   32.9590   39.0310 C   0  0  0  0  0  0  0  0  0  0  0  0
   40.2560   32.0250   39.6950 C   0  0  0  0  0  0  0  0  0  0  0  0
   38.4260   34.0580   41.6010 H   0  0  0  0  0  0  0  0  0  0  0  0
   39.8350   35.7680   40.4110 H   0  0  0  0  0  0  0  0  0  0  0  0
   43.1890   35.6370   37.2290 H   0  0  0  0  0  0  0  0  0  0  0  0
   43.4560   33.2150   36.7680 H   0  0  0  0  0  0  0  0  0  0  0  0
   42.1220   31.5160   37.8860 H   0  0  0  0  0  0  0  0  0  0  0  0
   40.4430   30.9960   39.4290 H   0  0  0  0  0  0  0  0  0  0  0  0
   36.5800   28.1170   43.0900 C   0  0  0  0  0  0  0  0  0  0  0  0
   35.9400   28.5790   43.8860 H   0  0  0  0  0  0  0  0  0  0  0  0
   36.0250   27.4740   42.4110 H   0  0  0  0  0  0  0  0  0  0  0  0
   37.6410   27.3100   43.8670 C   0  0  0  0  0  0  0  0  0  0  0  0
   37.1960   26.9510   44.8280 H   0  0  0  0  0  0  0  0  0  0  0  0
   38.5280   27.9230   44.0100 H   0  0  0  0  0  0  0  0  0  0  0  0
   39.2240   25.5670   42.9500 C   0  0  0  0  0  0  0  0  0  0  0  0
   37.9590   26.1050   43.0520 C   0  0  0  0  0  0  0  0  0  0  0  0
   36.9490   25.4740   42.3490 C   0  0  0  0  0  0  0  0  0  0  0  0
   35.9440   25.9050   42.4310 H   0  0  0  0  0  0  0  0  0  0  0  0
   37.0800   24.3580   41.5540 C   0  0  0  0  0  0  0  0  0  0  0  0
   36.2130   23.9500   41.0500 H   0  0  0  0  0  0  0  0  0  0  0  0
   38.3600   23.8500   41.4770 C   0  0  0  0  0  3  0  0  0  0  0  0
   39.4230   24.4320   42.1570 C   0  0  0  0  0  3  0  0  0  0  0  0
   41.1760   26.6900   44.2420 N   0  0  0  0  0  0  0  0  0  0  0  0
   40.2960   26.1950   43.6660 C   0  0  0  0  0  0  0  0  0  0  0  0
  1  2  2  0  0  0  0
  1  6  1  0  0  0  0
  2  3  1  0  0  0  0
  3  8  1  0  0  0  0
  3  4  2  0  0  0  0
  5  4  1  0  0  0  0
  5 27  1  0  0  0  0
  6  5  2  0  0  0  0
  7  9  1  0  0  0  0
  7  1  1  0  0  0  0
 10  7  1  0  0  0  0
 11 12  1  0  0  0  0
 11  2  1  0  0  0  0
 12 21  1  0  0  0  0
 13 22  1  0  0  0  0
 13 12  2  0  0  0  0
 14 13  1  0  0  0  0
 15 14  2  0  0  0  0
 16 15  1  0  0  0  0
 17 16  2  0  0  0  0
 17 18  1  0  0  0  0
 18 19  2  0  0  0  0
 19 14  1  0  0  0  0
 19 20  1  0  0  0  0
 20 11  2  0  0  0  0
 23 16  1  0  0  0  0
 24 17  1  0  0  0  0
 25 18  1  0  0  0  0
 26 20  1  0  0  0  0
 27 30  1  0  0  0  0
 27 28  1  0  0  0  0
 29 27  1  0  0  0  0
 30 32  1  0  0  0  0
 30 31  1  0  0  0  0
 33 34  1  0  0  0  0
 33 42  1  0  0  0  0
 34 30  1  0  0  0  0
 35 36  1  0  0  0  0
 35 34  2  0  0  0  0
 37 35  1  0  0  0  0
 38 37  1  0  0  0  0
 39 37  2  0  0  0  0
 39 40  1  0  0  0  0
 40 33  2  0  0  0  0
 42 41  3  0  0  0  0
M  END
>  <minimizedAffinity>
-6.55749273

$$$$

 OpenBabel03242522483D

 42 45  0  0  0  0  0  0  0  0999 V2000
   37.2460   31.4290   40.9160 C   0  0  0  0  0  0  0  0  0  0  0  0
   38.1500   30.4710   41.3900 C   0  0  0  0  0  0  0  0  0  0  0  0
   39.5220   30.8260   41.5360 C   0  0  0  0  0  0  0  0  0  0  0  0
   39.8690   32.0920   41.2000 N   0  0  0  0  0  0  0  0  0  0  0  0
   38.9810   32.9960   40.7450 C   0  0  0  0  0  0  0  0  0  0  0  0
   37.6990   32.6540   40.6130 N   0  0  0  0  0  0  0  0  0  0  0  0
   35.8920   31.0740   40.7730 N   0  0  0  0  0  0  0  0  0  0  0  0
   40.2350   30.1070   41.8970 H   0  0  0  0  0  0  0  0  0  0  0  0
   35.6830   30.1360   40.3580 H   0  0  0  0  0  0  0  0  0  0  0  0
   35.1700   31.7590   41.0880 H   0  0  0  0  0  0  0  0  0  0  0  0
   37.7620   29.1240   41.7440 C   0  0  0  0  0  0  0  0  0  0  0  0
   37.3790   28.6410   42.9730 C   0  0  0  0  0  0  0  0  0  0  0  0
   37.0390   27.3130   43.1430 C   0  0  0  0  0  0  0  0  0  0  0  0
   37.0670   26.4080   42.0750 C   0  0  0  0  0  0  0  0  0  0  0  0
   36.7190   25.1460   42.3440 N   0  0  0  0  0  0  0  0  0  0  0  0
   36.7400   24.2420   41.3090 C   0  0  0  0  0  0  0  0  0  0  0  0
   37.1240   24.7090   40.0590 C   0  0  0  0  0  0  0  0  0  0  0  0
   37.4790   26.0100   39.7980 C   0  0  0  0  0  0  0  0  0  0  0  0
   37.4520   26.9040   40.8450 C   0  0  0  0  0  0  0  0  0  0  0  0
   37.7980   28.2380   40.6630 C   0  0  0  0  0  0  0  0  0  0  0  0
   37.3710   29.3760   43.7670 H   0  0  0  0  0  0  0  0  0  0  0  0
   36.7430   26.9660   44.1220 H   0  0  0  0  0  0  0  0  0  0  0  0
   36.4720   23.2030   41.4480 H   0  0  0  0  0  0  0  0  0  0  0  0
   37.1560   24.0300   39.2130 H   0  0  0  0  0  0  0  0  0  0  0  0
   37.7750   26.3470   38.8090 H   0  0  0  0  0  0  0  0  0  0  0  0
   38.0820   28.5050   39.6560 H   0  0  0  0  0  0  0  0  0  0  0  0
   39.4730   34.3690   40.4020 C   0  0  0  0  0  0  0  0  0  0  0  0
   38.6540   34.8310   39.7920 H   0  0  0  0  0  0  0  0  0  0  0  0
   39.7560   34.9670   41.2660 H   0  0  0  0  0  0  0  0  0  0  0  0
   40.6540   34.2300   39.4200 C   0  0  0  0  0  0  0  0  0  0  0  0
   40.5880   35.0380   38.6510 H   0  0  0  0  0  0  0  0  0  0  0  0
   40.6510   33.2300   38.9910 H   0  0  0  0  0  0  0  0  0  0  0  0
   43.1060   33.8600   39.9070 C   0  0  0  0  0  0  0  0  0  0  0  0
   41.9020   34.4640   40.1980 C   0  0  0  0  0  0  0  0  0  0  0  0
   41.8780   35.3300   41.2760 C   0  0  0  0  0  0  0  0  0  0  0  0
   40.9180   35.8080   41.5060 H   0  0  0  0  0  0  0  0  0  0  0  0
   42.9390   35.6510   42.0920 C   0  0  0  0  0  0  0  0  0  0  0  0
   42.8000   36.3450   42.9100 H   0  0  0  0  0  0  0  0  0  0  0  0
   44.1250   35.0250   41.7690 C   0  0  0  0  0  3  0  0  0  0  0  0
   44.2240   34.1450   40.6990 C   0  0  0  0  0  3  0  0  0  0  0  0
   43.2310   32.2130   37.9040 N   0  0  0  0  0  0  0  0  0  0  0  0
   43.1690   32.9560   38.7960 C   0  0  0  0  0  0  0  0  0  0  0  0
  1  2  1  0  0  0  0
  2  3  2  0  0  0  0
  2 11  1  0  0  0  0
  3  8  1  0  0  0  0
  4  3  1  0  0  0  0
  5  4  2  0  0  0  0
  6  5  1  0  0  0  0
  6  1  2  0  0  0  0
  7  1  1  0  0  0  0
  7 10  1  0  0  0  0
  9  7  1  0  0  0  0
 11 12  1  0  0  0  0
 12 13  2  0  0  0  0
 12 21  1  0  0  0  0
 13 22  1  0  0  0  0
 14 15  1  0  0  0  0
 14 13  1  0  0  0  0
 16 23  1  0  0  0  0
 16 15  2  0  0  0  0
 17 16  1  0  0  0  0
 18 17  2  0  0  0  0
 18 19  1  0  0  0  0
 19 14  2  0  0  0  0
 20 19  1  0  0  0  0
 20 11  2  0  0  0  0
 24 17  1  0  0  0  0
 25 18  1  0  0  0  0
 26 20  1  0  0  0  0
 27  5  1  0  0  0  0
 27 29  1  0  0  0  0
 28 27  1  0  0  0  0
 30 34  1  0  0  0  0
 30 27  1  0  0  0  0
 31 30  1  0  0  0  0
 32 30  1  0  0  0  0
 33 34  2  0  0  0  0
 33 40  1  0  0  0  0
 34 35  1  0  0  0  0
 35 36  1  0  0  0  0
 35 37  2  0  0  0  0
 37 38  1  0  0  0  0
 39 37  1  0  0  0  0
 40 39  2  0  0  0  0
 41 42  3  0  0  0  0
 42 33  1  0  0  0  0
M  END
>  <minimizedAffinity>
-6.51754761

$$$$

 OpenBabel03242522483D

 42 45  0  0  0  0  0  0  0  0999 V2000
   36.3360   30.2460   40.1890 C   0  0  0  0  0  0  0  0  0  0  0  0
   37.3660   30.7830   39.4060 C   0  0  0  0  0  0  0  0  0  0  0  0
   37.8890   30.0120   38.3290 C   0  0  0  0  0  0  0  0  0  0  0  0
   37.3470   28.7860   38.1290 N   0  0  0  0  0  0  0  0  0  0  0  0
   36.3570   28.2920   38.8960 C   0  0  0  0  0  0  0  0  0  0  0  0
   35.8730   29.0210   39.9010 N   0  0  0  0  0  0  0  0  0  0  0  0
   35.8230   31.0110   41.2530 N   0  0  0  0  0  0  0  0  0  0  0  0
   38.6800   30.4010   37.7140 H   0  0  0  0  0  0  0  0  0  0  0  0
   36.5110   31.5220   41.8530 H   0  0  0  0  0  0  0  0  0  0  0  0
   34.7880   31.0300   41.3870 H   0  0  0  0  0  0  0  0  0  0  0  0
   37.9330   32.0930   39.6340 C   0  0  0  0  0  0  0  0  0  0  0  0
   37.3200   33.3190   39.5270 C   0  0  0  0  0  0  0  0  0  0  0  0
   38.0130   34.4860   39.7800 C   0  0  0  0  0  0  0  0  0  0  0  0
   39.3610   34.4710   40.1580 C   0  0  0  0  0  0  0  0  0  0  0  0
   39.9390   35.6550   40.3810 N   0  0  0  0  0  0  0  0  0  0  0  0
   41.2620   35.6610   40.7530 C   0  0  0  0  0  0  0  0  0  0  0  0
   41.9000   34.4340   40.8680 C   0  0  0  0  0  0  0  0  0  0  0  0
   41.2920   33.2240   40.6350 C   0  0  0  0  0  0  0  0  0  0  0  0
   39.9660   33.2340   40.2640 C   0  0  0  0  0  0  0  0  0  0  0  0
   39.2790   32.0520   40.0100 C   0  0  0  0  0  0  0  0  0  0  0  0
   36.2790   33.2810   39.2340 H   0  0  0  0  0  0  0  0  0  0  0  0
   37.5010   35.4330   39.6850 H   0  0  0  0  0  0  0  0  0  0  0  0
   41.7990   36.5790   40.9510 H   0  0  0  0  0  0  0  0  0  0  0  0
   42.9450   34.3900   41.1580 H   0  0  0  0  0  0  0  0  0  0  0  0
   41.8170   32.2780   40.7330 H   0  0  0  0  0  0  0  0  0  0  0  0
   39.8600   31.1500   40.1260 H   0  0  0  0  0  0  0  0  0  0  0  0
   35.8300   26.9230   38.5860 C   0  0  0  0  0  0  0  0  0  0  0  0
   35.3620   26.5660   39.5400 H   0  0  0  0  0  0  0  0  0  0  0  0
   35.1530   26.8920   37.7360 H   0  0  0  0  0  0  0  0  0  0  0  0
   37.0300   25.9790   38.3690 C   0  0  0  0  0  0  0  0  0  0  0  0
   37.8720   26.5560   37.9140 H   0  0  0  0  0  0  0  0  0  0  0  0
   36.7180   25.1300   37.7630 H   0  0  0  0  0  0  0  0  0  0  0  0
   38.7600   25.7230   40.1940 C   0  0  0  0  0  0  0  0  0  0  0  0
   37.4820   25.5270   39.7130 C   0  0  0  0  0  0  0  0  0  0  0  0
   36.5920   24.8710   40.5450 C   0  0  0  0  0  0  0  0  0  0  0  0
   35.5770   24.7160   40.1600 H   0  0  0  0  0  0  0  0  0  0  0  0
   36.8530   24.3930   41.8090 C   0  0  0  0  0  0  0  0  0  0  0  0
   36.0730   23.8940   42.3690 H   0  0  0  0  0  0  0  0  0  0  0  0
   38.1410   24.6080   42.2520 C   0  0  0  0  0  3  0  0  0  0  0  0
   39.0880   25.2600   41.4730 C   0  0  0  0  0  3  0  0  0  0  0  0
   40.4930   26.9380   38.6900 N   0  0  0  0  0  0  0  0  0  0  0  0
   39.7090   26.3990   39.3600 C   0  0  0  0  0  0  0  0  0  0  0  0
  1  7  1  0  0  0  0
  2 11  1  0  0  0  0
  2  1  2  0  0  0  0
  3  2  1  0  0  0  0
  4  3  2  0  0  0  0
  4  5  1  0  0  0  0
  5  6  2  0  0  0  0
  6  1  1  0  0  0  0
  7 10  1  0  0  0  0
  7  9  1  0  0  0  0
  8  3  1  0  0  0  0
 11 20  1  0  0  0  0
 12 11  2  0  0  0  0
 12 13  1  0  0  0  0
 13 14  2  0  0  0  0
 14 19  1  0  0  0  0
 14 15  1  0  0  0  0
 15 16  2  0  0  0  0
 16 17  1  0  0  0  0
 16 23  1  0  0  0  0
 17 24  1  0  0  0  0
 18 25  1  0  0  0  0
 18 17  2  0  0  0  0
 19 18  1  0  0  0  0
 20 26  1  0  0  0  0
 20 19  2  0  0  0  0
 21 12  1  0  0  0  0
 22 13  1  0  0  0  0
 27  5  1  0  0  0  0
 27 28  1  0  0  0  0
 29 27  1  0  0  0  0
 30 27  1  0  0  0  0
 30 34  1  0  0  0  0
 31 30  1  0  0  0  0
 32 30  1  0  0  0  0
 33 40  1  0  0  0  0
 34 33  2  0  0  0  0
 34 35  1  0  0  0  0
 35 37  2  0  0  0  0
 36 35  1  0  0  0  0
 37 39  1  0  0  0  0
 37 38  1  0  0  0  0
 40 39  2  0  0  0  0
 41 42  3  0  0  0  0
 42 33  1  0  0  0  0
M  END
>  <minimizedAffinity>
-6.24530506

$$$$

 OpenBabel03242522483D

 42 45  0  0  0  0  0  0  0  0999 V2000
   36.4730   29.8640   41.3300 C   0  0  0  0  0  0  0  0  0  0  0  0
   36.1750   28.8320   40.4310 C   0  0  0  0  0  0  0  0  0  0  0  0
   36.8670   27.5920   40.5480 C   0  0  0  0  0  0  0  0  0  0  0  0
   37.7860   27.4910   41.5390 N   0  0  0  0  0  0  0  0  0  0  0  0
   38.0550   28.4980   42.3910 C   0  0  0  0  0  0  0  0  0  0  0  0
   37.4020   29.6550   42.2740 N   0  0  0  0  0  0  0  0  0  0  0  0
   35.7880   31.0870   41.2100 N   0  0  0  0  0  0  0  0  0  0  0  0
   36.6560   26.7860   39.8700 H   0  0  0  0  0  0  0  0  0  0  0  0
   35.6530   31.4700   40.2450 H   0  0  0  0  0  0  0  0  0  0  0  0
   35.4520   31.5480   42.0840 H   0  0  0  0  0  0  0  0  0  0  0  0
   35.1920   28.9580   39.3800 C   0  0  0  0  0  0  0  0  0  0  0  0
   33.8270   29.0780   39.4970 C   0  0  0  0  0  0  0  0  0  0  0  0
   33.0230   29.1870   38.3800 C   0  0  0  0  0  0  0  0  0  0  0  0
   33.5610   29.1830   37.0860 C   0  0  0  0  0  0  0  0  0  0  0  0
   32.6970   29.2950   36.0730 N   0  0  0  0  0  0  0  0  0  0  0  0
   33.2050   29.2930   34.7960 C   0  0  0  0  0  0  0  0  0  0  0  0
   34.5800   29.1720   34.6550 C   0  0  0  0  0  0  0  0  0  0  0  0
   35.4560   29.0580   35.7070 C   0  0  0  0  0  0  0  0  0  0  0  0
   34.9320   29.0620   36.9810 C   0  0  0  0  0  0  0  0  0  0  0  0
   35.7520   28.9510   38.0980 C   0  0  0  0  0  0  0  0  0  0  0  0
   33.4580   29.0780   40.5140 H   0  0  0  0  0  0  0  0  0  0  0  0
   31.9540   29.2800   38.5070 H   0  0  0  0  0  0  0  0  0  0  0  0
   32.5690   29.3790   33.9250 H   0  0  0  0  0  0  0  0  0  0  0  0
   35.0260   29.1650   33.6650 H   0  0  0  0  0  0  0  0  0  0  0  0
   36.5290   28.9650   35.5670 H   0  0  0  0  0  0  0  0  0  0  0  0
   36.8060   28.8620   37.8870 H   0  0  0  0  0  0  0  0  0  0  0  0
   39.0910   28.2790   43.4510 C   0  0  0  0  0  0  0  0  0  0  0  0
   40.0710   28.5060   42.9570 H   0  0  0  0  0  0  0  0  0  0  0  0
   38.9230   28.8530   44.3590 H   0  0  0  0  0  0  0  0  0  0  0  0
   39.1560   26.7680   43.7600 C   0  0  0  0  0  0  0  0  0  0  0  0
   38.5890   26.2100   42.9760 H   0  0  0  0  0  0  0  0  0  0  0  0
   38.7830   26.5890   44.7670 H   0  0  0  0  0  0  0  0  0  0  0  0
   41.0420   25.4410   42.7280 C   0  0  0  0  0  0  0  0  0  0  0  0
   40.5830   26.3590   43.6490 C   0  0  0  0  0  0  0  0  0  0  0  0
   41.5180   26.9140   44.5030 C   0  0  0  0  0  0  0  0  0  0  0  0
   41.1500   27.6430   45.2350 H   0  0  0  0  0  0  0  0  0  0  0  0
   42.8680   26.6420   44.5280 C   0  0  0  0  0  0  0  0  0  0  0  0
   43.5060   27.1410   45.2450 H   0  0  0  0  0  0  0  0  0  0  0  0
   43.2870   25.7190   43.5930 C   0  0  0  0  0  3  0  0  0  0  0  0
   42.4040   25.1210   42.7020 C   0  0  0  0  0  3  0  0  0  0  0  0
   39.3500   24.3490   41.0890 N   0  0  0  0  0  0  0  0  0  0  0  0
   40.1010   24.8450   41.8260 C   0  0  0  0  0  0  0  0  0  0  0  0
  1  6  1  0  0  0  0
  2  3  1  0  0  0  0
  2  1  2  0  0  0  0
  3  4  2  0  0  0  0
  4  5  1  0  0  0  0
  5 27  1  0  0  0  0
  6  5  2  0  0  0  0
  7  1  1  0  0  0  0
  7 10  1  0  0  0  0
  8  3  1  0  0  0  0
  9  7  1  0  0  0  0
 11 12  1  0  0  0  0
 11  2  1  0  0  0  0
 12 21  1  0  0  0  0
 13 22  1  0  0  0  0
 13 12  2  0  0  0  0
 14 13  1  0  0  0  0
 15 14  2  0  0  0  0
 16 15  1  0  0  0  0
 17 16  2  0  0  0  0
 17 18  1  0  0  0  0
 18 19  2  0  0  0  0
 19 14  1  0  0  0  0
 19 20  1  0  0  0  0
 20 11  2  0  0  0  0
 23 16  1  0  0  0  0
 24 17  1  0  0  0  0
 25 18  1  0  0  0  0
 26 20  1  0  0  0  0
 27 30  1  0  0  0  0
 27 29  1  0  0  0  0
 28 27  1  0  0  0  0
 30 32  1  0  0  0  0
 31 30  1  0  0  0  0
 33 34  1  0  0  0  0
 34 30  1  0  0  0  0
 34 35  2  0  0  0  0
 35 37  1  0  0  0  0
 35 36  1  0  0  0  0
 37 38  1  0  0  0  0
 39 37  2  0  0  0  0
 40 33  2  0  0  0  0
 40 39  1  0  0  0  0
 41 42  3  0  0  0  0
 42 33  1  0  0  0  0
M  END
>  <minimizedAffinity>
-6.18887091

$$$$

 OpenBabel03242522483D

 42 45  0  0  0  0  0  0  0  0999 V2000
   37.2790   28.3670   42.4430 C   0  0  0  0  0  0  0  0  0  0  0  0
   37.4420   28.8610   41.1420 C   0  0  0  0  0  0  0  0  0  0  0  0
   37.4220   27.9480   40.0480 C   0  0  0  0  0  0  0  0  0  0  0  0
   37.2440   26.6380   40.3430 N   0  0  0  0  0  0  0  0  0  0  0  0
   37.0900   26.1870   41.6020 C   0  0  0  0  0  0  0  0  0  0  0  0
   37.1100   27.0480   42.6190 N   0  0  0  0  0  0  0  0  0  0  0  0
   37.3010   29.2710   43.5200 N   0  0  0  0  0  0  0  0  0  0  0  0
   37.5450   28.3030   39.0420 H   0  0  0  0  0  0  0  0  0  0  0  0
   38.0290   30.0220   43.5030 H   0  0  0  0  0  0  0  0  0  0  0  0
   36.5930   29.1480   44.2770 H   0  0  0  0  0  0  0  0  0  0  0  0
   37.6310   30.2630   40.8470 C   0  0  0  0  0  0  0  0  0  0  0  0
   36.6850   31.1960   40.4950 C   0  0  0  0  0  0  0  0  0  0  0  0
   37.0370   32.5070   40.2410 C   0  0  0  0  0  0  0  0  0  0  0  0
   38.3660   32.9390   40.3320 C   0  0  0  0  0  0  0  0  0  0  0  0
   38.6010   34.2280   40.0680 N   0  0  0  0  0  0  0  0  0  0  0  0
   39.8990   34.6720   40.1530 C   0  0  0  0  0  0  0  0  0  0  0  0
   40.8700   33.7460   40.5060 C   0  0  0  0  0  0  0  0  0  0  0  0
   40.6130   32.4240   40.7760 C   0  0  0  0  0  0  0  0  0  0  0  0
   39.3080   31.9940   40.6870 C   0  0  0  0  0  0  0  0  0  0  0  0
   38.9650   30.6710   40.9440 C   0  0  0  0  0  0  0  0  0  0  0  0
   35.6730   30.8170   40.4380 H   0  0  0  0  0  0  0  0  0  0  0  0
   36.2680   33.2150   39.9660 H   0  0  0  0  0  0  0  0  0  0  0  0
   40.1680   35.7010   39.9530 H   0  0  0  0  0  0  0  0  0  0  0  0
   41.9090   34.0520   40.5850 H   0  0  0  0  0  0  0  0  0  0  0  0
   41.3940   31.7210   41.0510 H   0  0  0  0  0  0  0  0  0  0  0  0
   39.7890   30.0270   41.2110 H   0  0  0  0  0  0  0  0  0  0  0  0
   36.9000   24.7160   41.8150 C   0  0  0  0  0  0  0  0  0  0  0  0
   36.4610   24.6220   42.8420 H   0  0  0  0  0  0  0  0  0  0  0  0
   36.3040   24.2300   41.0460 H   0  0  0  0  0  0  0  0  0  0  0  0
   38.2910   24.0580   41.9290 C   0  0  0  0  0  0  0  0  0  0  0  0
   38.2660   23.2840   42.7340 H   0  0  0  0  0  0  0  0  0  0  0  0
   39.0420   24.8280   42.0990 H   0  0  0  0  0  0  0  0  0  0  0  0
   39.4810   23.7640   39.7190 C   0  0  0  0  0  0  0  0  0  0  0  0
   38.5480   23.3500   40.6450 C   0  0  0  0  0  0  0  0  0  0  0  0
   37.8230   22.2120   40.3400 C   0  0  0  0  0  0  0  0  0  0  0  0
   37.0800   21.8850   41.0770 H   0  0  0  0  0  0  0  0  0  0  0  0
   37.9390   21.4480   39.2000 C   0  0  0  0  0  0  0  0  0  0  0  0
   37.3150   20.5730   39.0710 H   0  0  0  0  0  0  0  0  0  0  0  0
   38.8830   21.8960   38.3000 C   0  0  0  0  0  3  0  0  0  0  0  0
   39.6490   23.0300   38.5400 C   0  0  0  0  0  3  0  0  0  0  0  0
   40.8840   25.8840   40.2440 N   0  0  0  0  0  0  0  0  0  0  0  0
   40.2520   24.9390   40.0010 C   0  0  0  0  0  0  0  0  0  0  0  0
  1  6  1  0  0  0  0
  1  7  1  0  0  0  0
  2  1  2  0  0  0  0
  3  4  2  0  0  0  0
  3  2  1  0  0  0  0
  4  5  1  0  0  0  0
  5 27  1  0  0  0  0
  5  6  2  0  0  0  0
  7 10  1  0  0  0  0
  8  3  1  0  0  0  0
  9  7  1  0  0  0  0
 11 20  1  0  0  0  0
 11  2  1  0  0  0  0
 12 11  2  0  0  0  0
 13 14  2  0  0  0  0
 13 12  1  0  0  0  0
 14 19  1  0  0  0  0
 15 16  2  0  0  0  0
 15 14  1  0  0  0  0
 16 17  1  0  0  0  0
 17 24  1  0  0  0  0
 17 18  2  0  0  0  0
 18 25  1  0  0  0  0
 19 18  1  0  0  0  0
 19 20  2  0  0  0  0
 20 26  1  0  0  0  0
 21 12  1  0  0  0  0
 22 13  1  0  0  0  0
 23 16  1  0  0  0  0
 27 30  1  0  0  0  0
 27 28  1  0  0  0  0
 29 27  1  0  0  0  0
 30 32  1  0  0  0  0
 30 31  1  0  0  0  0
 33 42  1  0  0  0  0
 33 34  1  0  0  0  0
 34 30  1  0  0  0  0
 35 34  2  0  0  0  0
 35 36  1  0  0  0  0
 37 35  1  0  0  0  0
 38 37  1  0  0  0  0
 39 40  1  0  0  0  0
 39 37  2  0  0  0  0
 40 33  2  0  0  0  0
 42 41  3  0  0  0  0
M  END
>  <minimizedAffinity>
-6.15884018

$$$$

 OpenBabel03242522483D

 42 45  0  0  0  0  0  0  0  0999 V2000
   38.6160   31.9650   40.6900 C   0  0  0  0  0  0  0  0  0  0  0  0
   37.4660   32.0930   39.9010 C   0  0  0  0  0  0  0  0  0  0  0  0
   37.0850   33.3850   39.4380 C   0  0  0  0  0  0  0  0  0  0  0  0
   37.8740   34.4250   39.7980 N   0  0  0  0  0  0  0  0  0  0  0  0
   38.9760   34.2770   40.5590 C   0  0  0  0  0  0  0  0  0  0  0  0
   39.3240   33.0640   40.9870 N   0  0  0  0  0  0  0  0  0  0  0  0
   38.9880   30.6870   41.1460 N   0  0  0  0  0  0  0  0  0  0  0  0
   36.2060   33.5090   38.8320 H   0  0  0  0  0  0  0  0  0  0  0  0
   38.2270   30.0640   41.5040 H   0  0  0  0  0  0  0  0  0  0  0  0
   39.9970   30.4260   41.1020 H   0  0  0  0  0  0  0  0  0  0  0  0
   36.6350   30.9710   39.5260 C   0  0  0  0  0  0  0  0  0  0  0  0
   35.7820   30.2380   40.3180 C   0  0  0  0  0  0  0  0  0  0  0  0
   35.0560   29.1850   39.7980 C   0  0  0  0  0  0  0  0  0  0  0  0
   35.1550   28.8210   38.4490 C   0  0  0  0  0  0  0  0  0  0  0  0
   34.4090   27.7880   38.0460 N   0  0  0  0  0  0  0  0  0  0  0  0
   34.4930   27.4160   36.7260 C   0  0  0  0  0  0  0  0  0  0  0  0
   35.3480   28.1420   35.9090 C   0  0  0  0  0  0  0  0  0  0  0  0
   36.1080   29.2030   36.3380 C   0  0  0  0  0  0  0  0  0  0  0  0
   36.0140   29.5640   37.6640 C   0  0  0  0  0  0  0  0  0  0  0  0
   36.7510   30.6260   38.1760 C   0  0  0  0  0  0  0  0  0  0  0  0
   35.7370   30.5560   41.3510 H   0  0  0  0  0  0  0  0  0  0  0  0
   34.3950   28.6300   40.4480 H   0  0  0  0  0  0  0  0  0  0  0  0
   33.9200   26.5900   36.3250 H   0  0  0  0  0  0  0  0  0  0  0  0
   35.4460   27.8830   34.8600 H   0  0  0  0  0  0  0  0  0  0  0  0
   36.7690   29.7530   35.6760 H   0  0  0  0  0  0  0  0  0  0  0  0
   37.3870   31.1290   37.4640 H   0  0  0  0  0  0  0  0  0  0  0  0
   39.7780   35.4960   40.8990 C   0  0  0  0  0  0  0  0  0  0  0  0
   39.0880   36.3610   40.7220 H   0  0  0  0  0  0  0  0  0  0  0  0
   40.2020   35.4820   41.9000 H   0  0  0  0  0  0  0  0  0  0  0  0
   40.8840   35.6610   39.8350 C   0  0  0  0  0  0  0  0  0  0  0  0
   41.1070   36.7480   39.7050 H   0  0  0  0  0  0  0  0  0  0  0  0
   40.5730   35.1750   38.9130 H   0  0  0  0  0  0  0  0  0  0  0  0
   42.8620   34.0960   39.6820 C   0  0  0  0  0  0  0  0  0  0  0  0
   42.1130   35.0200   40.3790 C   0  0  0  0  0  0  0  0  0  0  0  0
   42.5480   35.3520   41.6490 C   0  0  0  0  0  0  0  0  0  0  0  0
   41.9500   36.0870   42.2010 H   0  0  0  0  0  0  0  0  0  0  0  0
   43.6580   34.8510   42.2910 C   0  0  0  0  0  0  0  0  0  0  0  0
   43.9010   35.1880   43.2900 H   0  0  0  0  0  0  0  0  0  0  0  0
   44.3800   33.9300   41.5610 C   0  0  0  0  0  3  0  0  0  0  0  0
   44.0040   33.5500   40.2790 C   0  0  0  0  0  3  0  0  0  0  0  0
   42.1130   33.4400   37.2840 N   0  0  0  0  0  0  0  0  0  0  0  0
   42.4420   33.7280   38.3620 C   0  0  0  0  0  0  0  0  0  0  0  0
  1  6  1  0  0  0  0
  1  7  1  0  0  0  0
  2  1  2  0  0  0  0
  3  4  2  0  0  0  0
  3  2  1  0  0  0  0
  4  5  1  0  0  0  0
  5 27  1  0  0  0  0
  5  6  2  0  0  0  0
  7  9  1  0  0  0  0
  8  3  1  0  0  0  0
 10  7  1  0  0  0  0
 11  2  1  0  0  0  0
 11 12  1  0  0  0  0
 12 21  1  0  0  0  0
 13 12  2  0  0  0  0
 13 22  1  0  0  0  0
 14 13  1  0  0  0  0
 15 14  1  0  0  0  0
 16 15  2  0  0  0  0
 17 18  2  0  0  0  0
 17 16  1  0  0  0  0
 18 19  1  0  0  0  0
 19 20  1  0  0  0  0
 19 14  2  0  0  0  0
 20 11  2  0  0  0  0
 23 16  1  0  0  0  0
 24 17  1  0  0  0  0
 25 18  1  0  0  0  0
 26 20  1  0  0  0  0
 27 29  1  0  0  0  0
 28 27  1  0  0  0  0
 30 34  1  0  0  0  0
 30 27  1  0  0  0  0
 31 30  1  0  0  0  0
 32 30  1  0  0  0  0
 33 40  2  0  0  0  0
 33 34  1  0  0  0  0
 34 35  2  0  0  0  0
 35 36  1  0  0  0  0
 35 37  1  0  0  0  0
 37 38  1  0  0  0  0
 39 37  2  0  0  0  0
 40 39  1  0  0  0  0
 41 42  3  0  0  0  0
 42 33  1  0  0  0  0
M  END
>  <minimizedAffinity>
-6.1513834

$$$$
