
 OpenBabel03242520543D

 32 33  0  0  0  0  0  0  0  0999 V2000
   47.3160   31.1190   47.3460 C   0  0  0  0  0  0  0  0  0  0  0  0
   47.3720   31.3000   48.4250 H   0  0  0  0  0  0  0  0  0  0  0  0
   48.4020   30.9740   47.0470 H   0  0  0  0  0  0  0  0  0  0  0  0
   45.5200   29.6130   47.7300 C   0  0  0  0  0  0  0  0  0  0  0  0
   44.9690   30.2270   48.6740 O   0  0  0  0  0  0  0  0  0  0  0  0
   46.6760   29.8870   46.9640 N   0  0  0  0  0  0  0  0  0  0  0  0
   47.0100   29.2520   46.2120 H   0  0  0  0  0  0  0  0  0  0  0  0
   44.3060   28.0240   46.1170 C   0  0  0  0  0  0  0  0  0  0  0  0
   44.8160   28.3560   47.3520 C   0  0  0  0  0  0  0  0  0  0  0  0
   44.7270   27.4940   48.4430 C   0  0  0  0  0  0  0  0  0  0  0  0
   45.1090   27.6980   49.4410 H   0  0  0  0  0  0  0  0  0  0  0  0
   44.1100   26.2700   48.2940 C   0  0  0  0  0  0  0  0  0  0  0  0
   44.0220   25.5710   49.1370 H   0  0  0  0  0  0  0  0  0  0  0  0
   43.6040   25.9550   47.0470 C   0  0  0  0  0  3  0  0  0  0  0  0
   43.6890   26.8060   45.9510 C   0  0  0  0  0  3  0  0  0  0  0  0
   44.6080   29.7910   44.2620 N   0  0  0  0  0  0  0  0  0  0  0  0
   44.4690   29.0020   45.0940 C   0  0  0  0  0  0  0  0  0  0  0  0
   47.0280   32.2820   45.2470 C   0  0  0  0  0  3  0  0  0  0  0  0
   46.8290   32.2450   46.5430 C   0  0  0  0  0  3  0  0  0  0  0  0
   44.8740   34.8610   43.7840 C   0  0  0  0  0  0  0  0  0  0  0  0
   45.7390   35.4800   42.8750 C   0  0  0  0  0  0  0  0  0  0  0  0
   47.0440   35.0200   42.7610 C   0  0  0  0  0  0  0  0  0  0  0  0
   47.3850   33.9930   43.5500 N   0  0  0  0  0  0  0  0  0  0  0  0
   46.5540   33.4030   44.4220 C   0  0  0  0  0  0  0  0  0  0  0  0
   45.2870   33.8390   44.5400 N   0  0  0  0  0  0  0  0  0  0  0  0
   43.8640   35.2550   43.8310 H   0  0  0  0  0  0  0  0  0  0  0  0
   45.4900   36.3120   42.2270 H   0  0  0  0  0  0  0  0  0  0  0  0
   47.9960   35.5340   41.9160 O   0  0  0  0  0  0  0  0  0  0  0  0
   48.2190   34.8350   40.6930 C   0  0  0  0  0  0  0  0  0  0  0  0
   46.9920   34.4120   40.1730 F   0  0  0  0  0  0  0  0  0  0  0  0
   48.8080   35.7230   39.7910 F   0  0  0  0  0  0  0  0  0  0  0  0
   49.0870   33.7700   40.8730 F   0  0  0  0  0  0  0  0  0  0  0  0
  1  2  1  0  0  0  0
  3  1  1  0  0  0  0
  4  5  2  0  0  0  0
  6  1  1  0  0  0  0
  6  4  1  0  0  0  0
  7  6  1  0  0  0  0
  8  9  1  0  0  0  0
  9  4  1  0  0  0  0
  9 10  2  0  0  0  0
 10 11  1  0  0  0  0
 12 10  1  0  0  0  0
 12 13  1  0  0  0  0
 14 12  2  0  0  0  0
 15  8  2  0  0  0  0
 15 14  1  0  0  0  0
 16 17  3  0  0  0  0
 17  8  1  0  0  0  0
 18 19  2  0  0  0  0
 19  1  1  0  0  0  0
 20 26  1  0  0  0  0
 20 25  1  0  0  0  0
 21 20  2  0  0  0  0
 22 21  1  0  0  0  0
 22 23  2  0  0  0  0
 23 24  1  0  0  0  0
 24 25  2  0  0  0  0
 24 18  1  0  0  0  0
 27 21  1  0  0  0  0
 28 22  1  0  0  0  0
 29 32  1  0  0  0  0
 29 28  1  0  0  0  0
 30 29  1  0  0  0  0
 31 29  1  0  0  0  0
M  END
>  <minimizedAffinity>
-5.39283562

>  <minimizedRMSD>
1.51729369

$$$$
