
 OpenBabel03242520343D

 29 31  0  0  1  0  0  0  0  0999 V2000
   44.7890   33.2280   38.0560 C   0  0  0  0  0  0  0  0  0  0  0  0
   45.8230   32.5120   38.7430 C   0  0  0  0  0  0  0  0  0  0  0  0
   45.4960   31.8360   39.9040 C   0  0  0  0  0  0  0  0  0  0  0  0
   44.2030   31.8870   40.3380 N   0  0  0  0  0  0  0  0  0  0  0  0
   43.2610   32.5590   39.6830 C   0  0  0  0  0  0  0  0  0  0  0  0
   43.5470   33.2260   38.5480 N   0  0  0  0  0  0  0  0  0  0  0  0
   45.0990   33.7380   37.1540 H   0  0  0  0  0  0  0  0  0  0  0  0
   46.2340   31.2790   40.4630 H   0  0  0  0  0  0  0  0  0  0  0  0
   41.4770   33.6200   41.0120 C   0  0  0  0  0  0  0  0  0  0  0  0
   41.8790   32.5850   40.1890 C   0  0  0  0  0  0  0  0  0  0  0  0
   40.9820   31.5910   39.8510 C   0  0  0  0  0  0  0  0  0  0  0  0
   41.2600   30.7650   39.2090 H   0  0  0  0  0  0  0  0  0  0  0  0
   39.6750   31.6030   40.3220 C   0  0  0  0  0  0  0  0  0  0  0  0
   38.9820   30.8280   40.0550 H   0  0  0  0  0  0  0  0  0  0  0  0
   39.2930   32.6440   41.1430 C   0  0  0  0  0  3  0  0  0  0  0  0
   40.1800   33.6600   41.4980 C   0  0  0  0  0  3  0  0  0  0  0  0
   43.1110   35.5430   41.6760 N   0  0  0  0  0  0  0  0  0  0  0  0
   42.3890   34.6840   41.3910 C   0  0  0  0  0  0  0  0  0  0  0  0
   47.2280   32.5150   38.2220 C   0  0  1  0  0  0  0  0  0  0  0  0
   47.7780   33.6890   37.5800 C   0  0  0  0  0  0  0  0  0  0  0  0
   48.2490   33.3830   38.9520 C   0  0  1  0  0  0  0  0  0  0  0  0
   47.6190   31.5040   38.0370 H   0  0  0  0  0  0  0  0  0  0  0  0
   47.1930   34.6240   37.4040 H   0  0  0  0  0  0  0  0  0  0  0  0
   48.4990   33.5430   36.7210 H   0  0  0  0  0  0  0  0  0  0  0  0
   49.3110   33.0300   39.0120 H   0  0  0  0  0  0  0  0  0  0  0  0
   47.8430   34.2040   40.1210 C   0  0  0  0  0  0  0  0  0  0  0  0
   48.5990   35.3580   40.2390 F   0  0  0  0  0  0  0  0  0  0  0  0
   47.9240   33.5060   41.3140 F   0  0  0  0  0  0  0  0  0  0  0  0
   46.5370   34.6000   39.9310 F   0  0  0  0  0  0  0  0  0  0  0  0
  1  6  2  0  0  0  0
  1  2  1  0  0  0  0
  2  3  2  0  0  0  0
  3  4  1  0  0  0  0
  3  8  1  0  0  0  0
  5 10  1  0  0  0  0
  5  4  2  0  0  0  0
  6  5  1  0  0  0  0
  7  1  1  0  0  0  0
  9 18  1  0  0  0  0
  9 16  1  0  0  0  0
 10  9  2  0  0  0  0
 11 10  1  0  0  0  0
 11 13  2  0  0  0  0
 12 11  1  0  0  0  0
 13 15  1  0  0  0  0
 14 13  1  0  0  0  0
 15 16  2  0  0  0  0
 18 17  3  0  0  0  0
 19 22  1  6  0  0  0
 19  2  1  0  0  0  0
 19 21  1  0  0  0  0
 20 19  1  0  0  0  0
 20 21  1  0  0  0  0
 21 25  1  1  0  0  0
 21 26  1  0  0  0  0
 23 20  1  0  0  0  0
 24 20  1  0  0  0  0
 26 27  1  0  0  0  0
 26 28  1  0  0  0  0
 29 26  1  0  0  0  0
M  END
>  <minimizedAffinity>
-4.04600048

>  <minimizedRMSD>
5.6914115

$$$$
