
 OpenBabel03242515393D

 37 40  0  0  0  0  0  0  0  0999 V2000
   44.1740   34.7260   41.2650 C   0  0  0  0  0  0  0  0  0  0  0  0
   44.1610   33.5730   40.5190 C   0  0  0  0  0  0  0  0  0  0  0  0
   45.3710   32.9220   40.2910 C   0  0  0  0  0  0  0  0  0  0  0  0
   46.4900   33.4800   40.8330 N   0  0  0  0  0  0  0  0  0  0  0  0
   46.4700   34.6060   41.5570 C   0  0  0  0  0  0  0  0  0  0  0  0
   45.3100   35.1980   41.7530 N   0  0  0  0  0  0  0  0  0  0  0  0
   43.2680   33.1570   40.1390 H   0  0  0  0  0  0  0  0  0  0  0  0
   45.6780   31.4560   38.2480 C   0  0  0  0  0  0  0  0  0  0  0  0
   45.5960   31.6960   39.5830 C   0  0  0  0  0  0  0  0  0  0  0  0
   45.8000   30.5270   40.3210 C   0  0  0  0  0  0  0  0  0  0  0  0
   45.7690   30.5340   41.4090 H   0  0  0  0  0  0  0  0  0  0  0  0
   46.0480   29.2930   39.7910 C   0  0  0  0  0  0  0  0  0  0  0  0
   46.1980   28.4180   40.4060 H   0  0  0  0  0  0  0  0  0  0  0  0
   46.1150   29.1290   38.4290 C   0  0  0  0  0  3  0  0  0  0  0  0
   45.9260   30.2330   37.6650 C   0  0  0  0  0  3  0  0  0  0  0  0
   45.4810   33.4330   36.5970 N   0  0  0  0  0  0  0  0  0  0  0  0
   45.5600   32.5500   37.3420 C   0  0  0  0  0  0  0  0  0  0  0  0
   42.5660   35.5210   41.5130 S   0  0  0  0  0  0  0  0  0  0  0  0
   40.5850   34.8520   39.8170 C   0  0  0  0  0  0  0  0  0  0  0  0
   41.2460   34.4640   40.9720 C   0  0  0  0  0  0  0  0  0  0  0  0
   40.8730   33.3210   41.6330 C   0  0  0  0  0  0  0  0  0  0  0  0
   39.8390   32.5190   41.1850 C   0  0  0  0  0  0  0  0  0  0  0  0
   39.1670   32.9150   40.0110 C   0  0  0  0  0  0  0  0  0  0  0  0
   39.5370   34.0630   39.3410 C   0  0  0  0  0  0  0  0  0  0  0  0
   38.1720   31.9580   39.7590 O   0  0  0  0  0  0  0  0  0  0  0  0
   38.0160   31.2340   40.9660 C   0  0  0  0  0  0  0  0  0  0  0  0
   39.2570   31.3340   41.6410 O   0  0  0  0  0  0  0  0  0  0  0  0
   40.8160   35.7350   39.2380 H   0  0  0  0  0  0  0  0  0  0  0  0
   41.4130   33.0390   42.5410 H   0  0  0  0  0  0  0  0  0  0  0  0
   39.0110   34.3590   38.4340 H   0  0  0  0  0  0  0  0  0  0  0  0
   37.2430   31.6320   41.6260 H   0  0  0  0  0  0  0  0  0  0  0  0
   37.7720   30.1760   40.7600 H   0  0  0  0  0  0  0  0  0  0  0  0
   47.5820   35.1910   42.1150 O   0  0  0  0  0  0  0  0  0  0  0  0
   48.7500   35.3240   41.3630 C   0  0  0  0  0  0  0  0  0  0  0  0
   49.6650   34.3470   41.6080 F   0  0  0  0  0  0  0  0  0  0  0  0
   48.3220   35.3660   40.0220 F   0  0  0  0  0  0  0  0  0  0  0  0
   49.3230   36.5460   41.7140 F   0  0  0  0  0  0  0  0  0  0  0  0
  1 18  1  0  0  0  0
  1  6  1  0  0  0  0
  2  1  2  0  0  0  0
  3  2  1  0  0  0  0
  3  4  2  0  0  0  0
  4  5  1  0  0  0  0
  5  6  2  0  0  0  0
  5 33  1  0  0  0  0
  7  2  1  0  0  0  0
  8  9  1  0  0  0  0
  9  3  1  0  0  0  0
  9 10  2  0  0  0  0
 10 11  1  0  0  0  0
 12 10  1  0  0  0  0
 12 13  1  0  0  0  0
 14 12  2  0  0  0  0
 15  8  2  0  0  0  0
 15 14  1  0  0  0  0
 16 17  3  0  0  0  0
 17  8  1  0  0  0  0
 19 20  1  0  0  0  0
 20 18  1  0  0  0  0
 20 21  2  0  0  0  0
 21 29  1  0  0  0  0
 22 21  1  0  0  0  0
 22 27  1  0  0  0  0
 23 22  2  0  0  0  0
 24 19  2  0  0  0  0
 24 23  1  0  0  0  0
 25 23  1  0  0  0  0
 25 26  1  0  0  0  0
 26 31  1  0  0  0  0
 26 27  1  0  0  0  0
 28 19  1  0  0  0  0
 30 24  1  0  0  0  0
 32 26  1  0  0  0  0
 34 35  1  0  0  0  0
 34 37  1  0  0  0  0
 34 33  1  0  0  0  0
 36 34  1  0  0  0  0
M  END
>  <minimizedAffinity>
-5.58729362

>  <minimizedRMSD>
0.972160101

$$$$
