
 OpenBabel03242517193D

 40 42  0  0  0  0  0  0  0  0999 V2000
   44.8860   35.3610   43.1100 C   0  0  0  0  0  0  0  0  0  0  0  0
   43.9640   34.6820   42.2690 C   0  0  0  0  0  0  0  0  0  0  0  0
   44.0570   33.3010   42.1820 C   0  0  0  0  0  0  0  0  0  0  0  0
   45.0190   32.6980   42.9040 N   0  0  0  0  0  0  0  0  0  0  0  0
   45.8800   33.3380   43.6900 C   0  0  0  0  0  0  0  0  0  0  0  0
   45.8080   34.6720   43.7880 N   0  0  0  0  0  0  0  0  0  0  0  0
   44.8340   36.4540   43.1970 H   0  0  0  0  0  0  0  0  0  0  0  0
   43.3570   32.7750   41.5430 H   0  0  0  0  0  0  0  0  0  0  0  0
   46.9350   32.7240   44.4920 C   0  0  0  0  0  0  0  0  0  0  0  0
   46.9290   31.6280   44.3060 H   0  0  0  0  0  0  0  0  0  0  0  0
   47.9390   33.0730   44.1360 H   0  0  0  0  0  0  0  0  0  0  0  0
   46.8450   33.0870   45.9290 C   0  0  0  0  0  0  0  0  0  0  0  0
   47.8720   33.4180   46.2370 H   0  0  0  0  0  0  0  0  0  0  0  0
   46.1400   33.9740   45.9810 H   0  0  0  0  0  0  0  0  0  0  0  0
   46.6950   30.8020   47.1250 C   0  0  0  0  0  0  0  0  0  0  0  0
   46.3340   32.1000   46.8610 C   0  0  0  0  0  0  0  0  0  0  0  0
   45.2980   32.5470   47.6970 C   0  0  0  0  0  0  0  0  0  0  0  0
   44.8430   33.5410   47.6730 H   0  0  0  0  0  0  0  0  0  0  0  0
   44.7250   31.7600   48.6620 C   0  0  0  0  0  0  0  0  0  0  0  0
   43.9170   32.0810   49.3270 H   0  0  0  0  0  0  0  0  0  0  0  0
   45.1370   30.4680   48.8730 C   0  0  0  0  0  0  0  0  0  0  0  0
   46.1470   30.0000   48.0730 C   0  0  0  0  0  0  0  0  0  0  0  0
   48.5260   29.8180   45.5850 N   0  0  0  0  0  0  0  0  0  0  0  0
   47.7170   30.2650   46.2740 C   0  0  0  0  0  0  0  0  0  0  0  0
   42.9460   35.4360   41.5240 C   0  0  0  0  0  0  0  0  0  0  0  0
   41.6470   35.3190   41.7090 C   0  0  0  0  0  0  0  0  0  0  0  0
   40.6360   36.0980   40.9380 C   0  0  0  0  0  0  0  0  0  0  0  0
   41.0710   36.9940   40.4470 H   0  0  0  0  0  0  0  0  0  0  0  0
   39.8540   36.4870   41.6440 H   0  0  0  0  0  0  0  0  0  0  0  0
   41.3150   36.1420   38.2200 F   0  0  0  0  0  0  0  0  0  0  0  0
   40.3250   35.3170   38.6070 C   0  0  0  0  0  0  0  0  0  0  0  0
   39.9540   35.2610   39.9540 C   0  0  0  0  0  0  0  0  0  0  0  0
   38.9360   34.3820   40.2220 C   0  0  0  0  0  0  0  0  0  0  0  0
   38.2670   33.5770   39.3120 C   0  0  0  0  0  0  0  0  0  0  0  0
   38.7050   33.7000   37.9810 C   0  0  0  0  0  0  0  0  0  0  0  0
   39.7150   34.5490   37.6110 C   0  0  0  0  0  0  0  0  0  0  0  0
   38.6010   34.2930   41.2550 H   0  0  0  0  0  0  0  0  0  0  0  0
   37.4730   32.9110   39.6020 H   0  0  0  0  0  0  0  0  0  0  0  0
   38.1870   33.0750   37.2670 H   0  0  0  0  0  0  0  0  0  0  0  0
   40.0460   34.6400   36.6000 H   0  0  0  0  0  0  0  0  0  0  0  0
  1  7  1  0  0  0  0
  1  6  1  0  0  0  0
  2  1  2  0  0  0  0
  3  2  1  0  0  0  0
  3  4  2  0  0  0  0
  4  5  1  0  0  0  0
  5  6  2  0  0  0  0
  5  9  1  0  0  0  0
  8  3  1  0  0  0  0
  9 12  1  0  0  0  0
 10  9  1  0  0  0  0
 11  9  1  0  0  0  0
 12 14  1  0  0  0  0
 12 13  1  0  0  0  0
 12 16  1  0  0  0  0
 15 22  1  0  0  0  0
 16 15  2  0  0  0  0
 16 17  1  0  0  0  0
 17 19  2  0  0  0  0
 18 17  1  0  0  0  0
 19 21  1  0  0  0  0
 19 20  1  0  0  0  0
 22 21  2  0  0  0  0
 23 24  3  0  0  0  0
 24 15  1  0  0  0  0
 25 26  2  0  0  0  0
 25  2  1  0  0  0  0
 27 29  1  0  0  0  0
 27 26  1  0  0  0  0
 28 27  1  0  0  0  0
 30 31  1  0  0  0  0
 31 32  1  0  0  0  0
 32 33  2  0  0  0  0
 32 27  1  0  0  0  0
 33 37  1  0  0  0  0
 34 38  1  0  0  0  0
 34 33  1  0  0  0  0
 35 34  2  0  0  0  0
 36 35  1  0  0  0  0
 36 31  2  0  0  0  0
 39 35  1  0  0  0  0
 40 36  1  0  0  0  0
M  END
>  <minimizedAffinity>
-6.73219347

>  <minimizedRMSD>
1.13222837

$$$$
