
 OpenBabel03242515393D

 37 40  0  0  0  0  0  0  0  0999 V2000
   44.3880   34.7820   41.1180 C   0  0  0  0  0  0  0  0  0  0  0  0
   44.3700   33.9680   40.0120 C   0  0  0  0  0  0  0  0  0  0  0  0
   45.5520   33.3260   39.6470 C   0  0  0  0  0  0  0  0  0  0  0  0
   46.6480   33.5510   40.4230 N   0  0  0  0  0  0  0  0  0  0  0  0
   46.6330   34.3510   41.4990 C   0  0  0  0  0  0  0  0  0  0  0  0
   45.5010   34.9440   41.8150 N   0  0  0  0  0  0  0  0  0  0  0  0
   43.4930   33.7980   39.4510 H   0  0  0  0  0  0  0  0  0  0  0  0
   46.5910   32.4930   37.4930 C   0  0  0  0  0  0  0  0  0  0  0  0
   45.7620   32.4090   38.5650 C   0  0  0  0  0  0  0  0  0  0  0  0
   45.0560   31.2040   38.5660 C   0  0  0  0  0  0  0  0  0  0  0  0
   44.3440   30.9660   39.3550 H   0  0  0  0  0  0  0  0  0  0  0  0
   45.1670   30.2250   37.6210 C   0  0  0  0  0  0  0  0  0  0  0  0
   44.5960   29.3080   37.6660 H   0  0  0  0  0  0  0  0  0  0  0  0
   46.0270   30.3820   36.5620 C   0  0  0  0  0  3  0  0  0  0  0  0
   46.7390   31.5370   36.5130 C   0  0  0  0  0  3  0  0  0  0  0  0
   48.1460   34.5430   37.2570 N   0  0  0  0  0  0  0  0  0  0  0  0
   47.4400   33.6310   37.3640 C   0  0  0  0  0  0  0  0  0  0  0  0
   42.8190   35.5890   41.5250 S   0  0  0  0  0  0  0  0  0  0  0  0
   40.7270   35.1240   39.8960 C   0  0  0  0  0  0  0  0  0  0  0  0
   41.4420   34.6160   40.9700 C   0  0  0  0  0  0  0  0  0  0  0  0
   41.0760   33.4250   41.5440 C   0  0  0  0  0  0  0  0  0  0  0  0
   39.9960   32.6910   41.0870 C   0  0  0  0  0  0  0  0  0  0  0  0
   39.2700   33.2090   39.9960 C   0  0  0  0  0  0  0  0  0  0  0  0
   39.6320   34.4060   39.4120 C   0  0  0  0  0  0  0  0  0  0  0  0
   38.2360   32.3010   39.7170 O   0  0  0  0  0  0  0  0  0  0  0  0
   38.1290   31.4730   40.8600 C   0  0  0  0  0  0  0  0  0  0  0  0
   39.4090   31.4820   41.4660 O   0  0  0  0  0  0  0  0  0  0  0  0
   40.9490   36.0520   39.3870 H   0  0  0  0  0  0  0  0  0  0  0  0
   41.6580   33.0490   42.3900 H   0  0  0  0  0  0  0  0  0  0  0  0
   39.0640   34.7960   38.5690 H   0  0  0  0  0  0  0  0  0  0  0  0
   37.4060   31.8250   41.5980 H   0  0  0  0  0  0  0  0  0  0  0  0
   37.8450   30.4430   40.5730 H   0  0  0  0  0  0  0  0  0  0  0  0
   47.7230   34.5950   42.3000 O   0  0  0  0  0  0  0  0  0  0  0  0
   48.9650   34.8630   41.7230 C   0  0  0  0  0  0  0  0  0  0  0  0
   49.6060   33.7470   41.2780 F   0  0  0  0  0  0  0  0  0  0  0  0
   48.7040   35.8010   40.7050 F   0  0  0  0  0  0  0  0  0  0  0  0
   49.7570   35.4460   42.7110 F   0  0  0  0  0  0  0  0  0  0  0  0
  1 18  1  0  0  0  0
  1  6  1  0  0  0  0
  2  1  2  0  0  0  0
  3  2  1  0  0  0  0
  3  4  2  0  0  0  0
  4  5  1  0  0  0  0
  5  6  2  0  0  0  0
  5 33  1  0  0  0  0
  7  2  1  0  0  0  0
  8  9  1  0  0  0  0
  9 10  2  0  0  0  0
  9  3  1  0  0  0  0
 10 11  1  0  0  0  0
 12 13  1  0  0  0  0
 12 10  1  0  0  0  0
 14 12  2  0  0  0  0
 15 14  1  0  0  0  0
 15  8  2  0  0  0  0
 16 17  3  0  0  0  0
 17  8  1  0  0  0  0
 19 20  1  0  0  0  0
 20 18  1  0  0  0  0
 20 21  2  0  0  0  0
 21 29  1  0  0  0  0
 22 27  1  0  0  0  0
 22 21  1  0  0  0  0
 23 22  2  0  0  0  0
 24 19  2  0  0  0  0
 24 23  1  0  0  0  0
 25 23  1  0  0  0  0
 25 26  1  0  0  0  0
 26 27  1  0  0  0  0
 26 31  1  0  0  0  0
 28 19  1  0  0  0  0
 30 24  1  0  0  0  0
 32 26  1  0  0  0  0
 34 33  1  0  0  0  0
 34 37  1  0  0  0  0
 35 34  1  0  0  0  0
 36 34  1  0  0  0  0
M  END
>  <minimizedAffinity>
-5.89514065

>  <minimizedRMSD>
0.73887229

$$$$
