
 OpenBabel03252509243D

 28 30  0  0  1  0  0  0  0  0999 V2000
   48.9800   32.5210   41.9040 C   0  0  1  0  0  0  0  0  0  0  0  0
   50.4640   32.9180   42.1020 C   0  0  0  0  0  0  0  0  0  0  0  0
   49.9580   31.6390   41.3840 C   0  0  2  0  0  0  0  0  0  0  0  0
   48.4060   33.2510   41.3100 H   0  0  0  0  0  0  0  0  0  0  0  0
   50.9340   32.7920   43.0710 H   0  0  0  0  0  0  0  0  0  0  0  0
   50.7830   33.7470   41.4450 H   0  0  0  0  0  0  0  0  0  0  0  0
   50.2430   30.7030   41.9080 H   0  0  0  0  0  0  0  0  0  0  0  0
   46.9000   32.7520   45.0230 C   0  0  0  0  0  0  0  0  0  0  0  0
   47.5300   33.1490   43.8160 C   0  0  0  0  0  0  0  0  0  0  0  0
   48.3380   32.2050   43.2410 C   0  0  0  0  0  0  0  0  0  0  0  0
   48.5220   30.9590   43.8070 N   0  0  0  0  0  0  0  0  0  0  0  0
   47.9060   30.6240   44.9550 C   0  0  0  0  0  0  0  0  0  0  0  0
   47.0910   31.5220   45.5670 N   0  0  0  0  0  0  0  0  0  0  0  0
   46.2570   33.4960   45.4850 H   0  0  0  0  0  0  0  0  0  0  0  0
   48.0230   29.6610   45.4280 H   0  0  0  0  0  0  0  0  0  0  0  0
   47.3630   34.4460   43.2480 N   0  0  0  0  0  0  0  0  0  0  0  0
   46.6620   34.8030   42.5920 H   0  0  0  0  0  0  0  0  0  0  0  0
   48.1530   34.9940   43.6660 H   0  0  0  0  0  0  0  0  0  0  0  0
   51.2820   30.7780   39.4330 C   0  0  0  0  0  0  0  0  0  0  0  0
   50.2420   31.5450   39.9230 C   0  0  0  0  0  0  0  0  0  0  0  0
   49.4120   32.2640   39.0630 C   0  0  0  0  0  0  0  0  0  0  0  0
   48.5770   32.8840   39.4060 H   0  0  0  0  0  0  0  0  0  0  0  0
   49.6420   32.2050   37.6880 C   0  0  0  0  0  0  0  0  0  0  0  0
   49.0070   32.7590   36.9890 H   0  0  0  0  0  0  0  0  0  0  0  0
   50.6870   31.4320   37.2220 C   0  0  0  0  0  3  0  0  0  0  0  0
   51.5220   30.7100   38.0610 C   0  0  0  0  0  3  0  0  0  0  0  0
   52.8090   29.4490   41.0600 N   0  0  0  0  0  0  0  0  0  0  0  0
   52.1200   30.0480   40.3330 C   0  0  0  0  0  0  0  0  0  0  0  0
  1  4  1  6  0  0  0
  1  2  1  0  0  0  0
  1 10  1  0  0  0  0
  2  5  1  0  0  0  0
  3  1  1  0  0  0  0
  3  7  1  1  0  0  0
  3  2  1  0  0  0  0
  6  2  1  0  0  0  0
  8 14  1  0  0  0  0
  8 13  1  0  0  0  0
  9  8  2  0  0  0  0
 10 11  2  0  0  0  0
 10  9  1  0  0  0  0
 11 12  1  0  0  0  0
 12 15  1  0  0  0  0
 12 13  2  0  0  0  0
 16 18  1  0  0  0  0
 16  9  1  0  0  0  0
 17 16  1  0  0  0  0
 19 20  1  0  0  0  0
 19 28  1  0  0  0  0
 20  3  1  0  0  0  0
 21 22  1  0  0  0  0
 21 20  2  0  0  0  0
 23 21  1  0  0  0  0
 24 23  1  0  0  0  0
 25 23  2  0  0  0  0
 25 26  1  0  0  0  0
 26 19  2  0  0  0  0
 28 27  3  0  0  0  0
M  END
>  <minimizedAffinity>
-3.00994325

>  <minimizedRMSD>
4.37029409

$$$$
