
 OpenBabel03252507463D

 38 40  0  0  0  0  0  0  0  0999 V2000
   47.6210   34.7920   41.1200 C   0  0  0  0  0  0  0  0  0  0  0  0
   48.0060   35.7950   40.8220 H   0  0  0  0  0  0  0  0  0  0  0  0
   46.9620   34.3370   40.3520 H   0  0  0  0  0  0  0  0  0  0  0  0
   48.7930   33.9650   41.4240 C   0  0  0  0  0  0  0  0  0  0  0  0
   48.7730   32.6750   40.9160 C   0  0  0  0  0  0  0  0  0  0  0  0
   49.8390   31.8040   41.1630 C   0  0  0  0  0  0  0  0  0  0  0  0
   50.8790   32.2790   41.9150 N   0  0  0  0  0  0  0  0  0  0  0  0
   50.8550   33.5490   42.3900 C   0  0  0  0  0  0  0  0  0  0  0  0
   49.8270   34.3550   42.1390 N   0  0  0  0  0  0  0  0  0  0  0  0
   49.7900   30.8120   40.7540 H   0  0  0  0  0  0  0  0  0  0  0  0
   51.6630   33.9450   42.9860 H   0  0  0  0  0  0  0  0  0  0  0  0
   47.3880   32.0630   39.9430 S   0  0  0  0  0  0  0  0  0  0  0  0
   47.5510   31.2100   37.1960 C   0  0  0  0  0  0  0  0  0  0  0  0
   47.7310   32.1340   38.1980 C   0  0  0  0  0  0  0  0  0  0  0  0
   48.2870   33.3710   37.8510 C   0  0  0  0  0  0  0  0  0  0  0  0
   48.4990   34.2170   38.5100 H   0  0  0  0  0  0  0  0  0  0  0  0
   48.6510   33.6740   36.5410 C   0  0  0  0  0  0  0  0  0  0  0  0
   49.0780   34.5950   36.2140 H   0  0  0  0  0  0  0  0  0  0  0  0
   48.4570   32.7180   35.5430 C   0  0  0  0  0  3  0  0  0  0  0  0
   47.9120   31.5160   35.9080 C   0  0  0  0  0  3  0  0  0  0  0  0
   46.5690   28.9580   37.9770 N   0  0  0  0  0  0  0  0  0  0  0  0
   47.0040   29.9780   37.6320 C   0  0  0  0  0  0  0  0  0  0  0  0
   46.7360   35.0330   42.3170 C   0  0  0  0  0  0  0  0  0  0  0  0
   46.9830   36.0160   42.7760 H   0  0  0  0  0  0  0  0  0  0  0  0
   46.9270   34.2680   43.1070 H   0  0  0  0  0  0  0  0  0  0  0  0
   45.2780   34.9800   42.0150 C   0  0  0  0  0  0  0  0  0  0  0  0
   44.3580   35.6490   42.8800 C   0  0  0  0  0  0  0  0  0  0  0  0
   42.7330   35.2950   42.1030 S   0  0  0  0  0  0  0  0  0  0  0  0
   43.5850   34.2900   40.7250 C   0  0  0  0  0  0  0  0  0  0  0  0
   44.6810   34.3790   41.0230 N   0  0  0  0  0  0  0  0  0  0  0  0
   44.5990   36.2200   43.7730 H   0  0  0  0  0  0  0  0  0  0  0  0
   42.8830   33.6720   39.6890 O   0  0  0  0  0  0  0  0  0  0  0  0
   40.9570   33.8280   37.8810 O   0  0  0  0  0  0  0  0  0  0  0  0
   41.9550   34.6580   38.6730 P   0  0  0  0  0  0  0  0  0  0  0  0
   41.1090   35.7530   39.6380 O   0  0  0  0  0  0  0  0  0  0  0  0
   40.3290   35.2580   40.0090 H   0  0  0  0  0  0  0  0  0  0  0  0
   42.9820   35.5330   37.6390 O   0  0  0  0  0  0  0  0  0  0  0  0
   43.3810   34.9380   36.9560 H   0  0  0  0  0  0  0  0  0  0  0  0
  1  4  1  0  0  0  0
  1 23  1  0  0  0  0
  2  1  1  0  0  0  0
  3  1  1  0  0  0  0
  4  9  1  0  0  0  0
  5  6  1  0  0  0  0
  5  4  2  0  0  0  0
  6  7  2  0  0  0  0
  7  8  1  0  0  0  0
  8 11  1  0  0  0  0
  9  8  2  0  0  0  0
 10  6  1  0  0  0  0
 12  5  1  0  0  0  0
 13 22  1  0  0  0  0
 13 14  1  0  0  0  0
 14 12  1  0  0  0  0
 15 14  2  0  0  0  0
 15 16  1  0  0  0  0
 17 15  1  0  0  0  0
 18 17  1  0  0  0  0
 19 20  1  0  0  0  0
 19 17  2  0  0  0  0
 20 13  2  0  0  0  0
 22 21  3  0  0  0  0
 23 24  1  0  0  0  0
 23 25  1  0  0  0  0
 26 23  1  0  0  0  0
 26 27  2  0  0  0  0
 27 31  1  0  0  0  0
 28 27  1  0  0  0  0
 29 30  2  0  0  0  0
 29 28  1  0  0  0  0
 30 26  1  0  0  0  0
 32 29  1  0  0  0  0
 33 34  2  0  0  0  0
 34 35  1  0  0  0  0
 34 32  1  0  0  0  0
 35 36  1  0  0  0  0
 37 34  1  0  0  0  0
 38 37  1  0  0  0  0
M  END
>  <minimizedAffinity>
-4.77070713

>  <minimizedRMSD>
0.701861441

$$$$
