
 OpenBabel03242519033D

 33 35  0  0  1  0  0  0  0  0999 V2000
   47.3480   33.3980   43.6400 N   0  0  0  0  0  0  0  0  0  0  0  0
   48.1430   34.0230   42.6010 C   0  0  0  0  0  0  0  0  0  0  0  0
   48.0300   32.9620   41.5490 C   0  0  2  0  0  0  0  0  0  0  0  0
   48.3750   31.7170   42.3440 C   0  0  0  0  0  0  0  0  0  0  0  0
   47.7550   32.0090   43.6870 C   0  0  0  0  0  0  0  0  0  0  0  0
   47.6190   34.9270   42.2950 H   0  0  0  0  0  0  0  0  0  0  0  0
   49.1890   34.1830   42.9040 H   0  0  0  0  0  0  0  0  0  0  0  0
   46.9880   32.9220   41.1620 H   0  0  0  0  0  0  0  0  0  0  0  0
   48.0410   30.7860   41.8740 H   0  0  0  0  0  0  0  0  0  0  0  0
   49.4920   31.7600   42.4770 H   0  0  0  0  0  0  0  0  0  0  0  0
   48.3940   31.7540   44.5490 H   0  0  0  0  0  0  0  0  0  0  0  0
   46.7870   31.4280   43.7080 H   0  0  0  0  0  0  0  0  0  0  0  0
   44.5760   35.4430   45.0660 C   0  0  0  0  0  0  0  0  0  0  0  0
   45.5200   34.9910   44.1480 C   0  0  0  0  0  0  0  0  0  0  0  0
   46.3600   33.9380   44.4820 C   0  0  0  0  0  0  0  0  0  0  0  0
   46.2060   33.3930   45.7260 N   0  0  0  0  0  0  0  0  0  0  0  0
   45.2980   33.8240   46.6170 C   0  0  0  0  0  0  0  0  0  0  0  0
   44.4780   34.8530   46.2850 N   0  0  0  0  0  0  0  0  0  0  0  0
   43.9090   36.2650   44.8230 H   0  0  0  0  0  0  0  0  0  0  0  0
   45.6250   35.4280   43.1810 H   0  0  0  0  0  0  0  0  0  0  0  0
   45.2800   33.3080   47.5620 H   0  0  0  0  0  0  0  0  0  0  0  0
   49.0050   33.0940   40.5050 N   0  0  0  0  0  0  0  0  0  0  0  0
   50.0300   33.1820   40.7850 H   0  0  0  0  0  0  0  0  0  0  0  0
   49.4310   32.1820   38.2240 C   0  0  0  0  0  0  0  0  0  0  0  0
   48.8910   33.1350   39.0960 C   0  0  0  0  0  0  0  0  0  0  0  0
   48.2060   34.1410   38.4520 C   0  0  0  0  0  0  0  0  0  0  0  0
   47.7190   34.9530   38.9700 H   0  0  0  0  0  0  0  0  0  0  0  0
   48.0340   34.2540   37.0940 C   0  0  0  0  0  0  0  0  0  0  0  0
   47.4990   35.0380   36.5900 H   0  0  0  0  0  0  0  0  0  0  0  0
   48.5790   33.2990   36.2760 C   0  0  0  0  0  3  0  0  0  0  0  0
   49.2760   32.2690   36.8650 C   0  0  0  0  0  3  0  0  0  0  0  0
   50.7590   30.2100   39.3140 N   0  0  0  0  0  0  0  0  0  0  0  0
   50.1710   31.0820   38.8200 C   0  0  0  0  0  0  0  0  0  0  0  0
  1  5  1  0  0  0  0
  1 15  1  0  0  0  0
  2  7  1  0  0  0  0
  2  1  1  0  0  0  0
  3  8  1  6  0  0  0
  3  4  1  0  0  0  0
  3  2  1  0  0  0  0
  4 10  1  0  0  0  0
  4  5  1  0  0  0  0
  5 12  1  0  0  0  0
  5 11  1  0  0  0  0
  6  2  1  0  0  0  0
  9  4  1  0  0  0  0
 13 18  1  0  0  0  0
 14 15  1  0  0  0  0
 14 13  2  0  0  0  0
 15 16  2  0  0  0  0
 16 17  1  0  0  0  0
 17 21  1  0  0  0  0
 18 17  2  0  0  0  0
 19 13  1  0  0  0  0
 20 14  1  0  0  0  0
 22 23  1  0  0  0  0
 22  3  1  0  0  0  0
 24 33  1  0  0  0  0
 24 25  1  0  0  0  0
 25 22  1  0  0  0  0
 26 27  1  0  0  0  0
 26 25  2  0  0  0  0
 28 26  1  0  0  0  0
 29 28  1  0  0  0  0
 30 31  1  0  0  0  0
 30 28  2  0  0  0  0
 31 24  2  0  0  0  0
 33 32  3  0  0  0  0
M  END
>  <minimizedAffinity>
-4.22259903

>  <minimizedRMSD>
3.24544859

$$$$
