
 OpenBabel03252507223D

 48 51  0  0  1  0  0  0  0  0999 V2000
   47.4540   33.4740   42.9380 C   0  0  0  0  0  0  0  0  0  0  0  0
   48.5970   33.4840   43.5280 O   0  0  0  0  0  0  0  0  0  0  0  0
   47.1530   32.6800   41.7710 N   0  0  0  0  0  0  0  0  0  0  0  0
   45.9800   31.9030   41.4480 C   0  0  0  0  0  0  0  0  0  0  0  0
   45.4910   32.3240   40.0550 C   0  0  0  0  0  0  0  0  0  0  0  0
   46.5230   31.9860   39.0170 C   0  0  0  0  0  0  0  0  0  0  0  0
   47.8420   31.6810   39.6900 C   0  0  0  0  0  0  0  0  0  0  0  0
   48.1940   32.6990   40.7470 C   0  0  2  0  0  0  0  0  0  0  0  0
   45.1380   32.1320   42.1580 H   0  0  0  0  0  0  0  0  0  0  0  0
   46.1710   30.8150   41.3950 H   0  0  0  0  0  0  0  0  0  0  0  0
   45.2850   33.4220   40.0950 H   0  0  0  0  0  0  0  0  0  0  0  0
   44.5550   31.7650   39.8650 H   0  0  0  0  0  0  0  0  0  0  0  0
   46.6870   32.9060   38.4150 H   0  0  0  0  0  0  0  0  0  0  0  0
   46.2260   31.1130   38.4250 H   0  0  0  0  0  0  0  0  0  0  0  0
   48.6750   31.6070   38.9790 H   0  0  0  0  0  0  0  0  0  0  0  0
   47.7650   30.6420   40.1350 H   0  0  0  0  0  0  0  0  0  0  0  0
   48.1430   33.6890   40.2800 H   0  0  0  0  0  0  0  0  0  0  0  0
   46.0510   35.4590   42.7630 C   0  0  0  0  0  0  0  0  0  0  0  0
   46.4270   34.3100   43.4860 C   0  0  0  0  0  0  0  0  0  0  0  0
   45.8070   34.0250   44.6930 C   0  0  0  0  0  0  0  0  0  0  0  0
   44.8530   34.8800   45.1210 N   0  0  0  0  0  0  0  0  0  0  0  0
   44.4750   35.9830   44.4500 C   0  0  0  0  0  0  0  0  0  0  0  0
   45.0890   36.2580   43.2660 N   0  0  0  0  0  0  0  0  0  0  0  0
   46.5250   35.7020   41.8200 H   0  0  0  0  0  0  0  0  0  0  0  0
   43.7040   36.6540   44.8300 H   0  0  0  0  0  0  0  0  0  0  0  0
   46.2130   32.8350   45.4190 C   0  0  0  0  0  0  0  0  0  0  0  0
   45.8730   31.6020   44.9490 C   0  0  0  0  0  0  0  0  0  0  0  0
   46.2730   30.5020   45.6630 C   0  0  0  0  0  0  0  0  0  0  0  0
   47.0040   30.5800   46.8380 C   0  0  0  0  0  0  0  0  0  0  0  0
   47.3160   31.8600   47.2630 C   0  0  0  0  0  0  0  0  0  0  0  0
   46.9140   32.9140   46.5490 N   0  0  0  0  0  0  0  0  0  0  0  0
   45.3120   31.4000   44.0520 H   0  0  0  0  0  0  0  0  0  0  0  0
   46.0130   29.4930   45.3030 H   0  0  0  0  0  0  0  0  0  0  0  0
   47.3060   29.7000   47.3820 H   0  0  0  0  0  0  0  0  0  0  0  0
   47.8890   31.9480   48.1730 H   0  0  0  0  0  0  0  0  0  0  0  0
   49.5680   32.4920   41.2370 C   0  0  0  0  0  0  0  0  0  0  0  0
   50.1650   32.7110   40.2820 H   0  0  0  0  0  0  0  0  0  0  0  0
   49.9830   33.3510   41.8560 H   0  0  0  0  0  0  0  0  0  0  0  0
   51.0050   30.4920   40.9130 C   0  0  0  0  0  0  0  0  0  0  0  0
   50.0390   31.1980   41.6700 C   0  0  0  0  0  0  0  0  0  0  0  0
   49.6670   30.3980   42.7540 C   0  0  0  0  0  0  0  0  0  0  0  0
   48.8950   30.7800   43.4060 H   0  0  0  0  0  0  0  0  0  0  0  0
   50.0870   29.1710   43.1030 C   0  0  0  0  0  0  0  0  0  0  0  0
   49.6940   28.6660   43.9920 H   0  0  0  0  0  0  0  0  0  0  0  0
   51.0260   28.5370   42.3330 C   0  0  0  0  0  3  0  0  0  0  0  0
   51.4840   29.2140   41.2240 C   0  0  0  0  0  3  0  0  0  0  0  0
   52.0290   31.6800   38.8010 N   0  0  0  0  0  0  0  0  0  0  0  0
   51.5710   31.1380   39.7450 C   0  0  0  0  0  0  0  0  0  0  0  0
  1 19  1  0  0  0  0
  1  2  2  0  0  0  0
  3  1  1  0  0  0  0
  4  3  1  0  0  0  0
  4  9  1  0  0  0  0
  5 11  1  0  0  0  0
  5  4  1  0  0  0  0
  6  7  1  0  0  0  0
  6  5  1  0  0  0  0
  7 16  1  0  0  0  0
  7  8  1  0  0  0  0
  8 17  1  6  0  0  0
  8 36  1  0  0  0  0
  8  3  1  0  0  0  0
 10  4  1  0  0  0  0
 12  5  1  0  0  0  0
 13  6  1  0  0  0  0
 14  6  1  0  0  0  0
 15  7  1  0  0  0  0
 18 23  2  0  0  0  0
 18 19  1  0  0  0  0
 19 20  2  0  0  0  0
 20 21  1  0  0  0  0
 20 26  1  0  0  0  0
 22 25  1  0  0  0  0
 22 21  2  0  0  0  0
 23 22  1  0  0  0  0
 24 18  1  0  0  0  0
 26 31  1  0  0  0  0
 27 26  2  0  0  0  0
 27 28  1  0  0  0  0
 28 29  2  0  0  0  0
 29 30  1  0  0  0  0
 29 34  1  0  0  0  0
 30 35  1  0  0  0  0
 31 30  2  0  0  0  0
 32 27  1  0  0  0  0
 33 28  1  0  0  0  0
 36 40  1  0  0  0  0
 36 38  1  0  0  0  0
 37 36  1  0  0  0  0
 39 46  2  0  0  0  0
 39 40  1  0  0  0  0
 40 41  2  0  0  0  0
 41 43  1  0  0  0  0
 41 42  1  0  0  0  0
 43 44  1  0  0  0  0
 45 43  2  0  0  0  0
 46 45  1  0  0  0  0
 47 48  3  0  0  0  0
 48 39  1  0  0  0  0
M  END
>  <minimizedAffinity>
-4.94627523

>  <minimizedRMSD>
0.63738519

$$$$
