
 OpenBabel03252508033D

 43 46  0  0  1  0  0  0  0  0999 V2000
   42.0940   33.2290   41.1520 C   0  0  0  0  0  0  0  0  0  0  0  0
   42.8180   34.3710   41.3430 C   0  0  0  0  0  0  0  0  0  0  0  0
   42.1300   35.6010   41.3110 C   0  0  0  0  0  0  0  0  0  0  0  0
   40.7750   35.7040   41.0990 C   0  0  0  0  0  0  0  0  0  0  0  0
   40.0550   34.5520   40.9090 C   0  0  0  0  0  0  0  0  0  0  0  0
   40.7160   33.3590   40.9380 C   0  0  0  0  0  0  0  0  0  0  0  0
   42.6160   36.5580   41.4420 H   0  0  0  0  0  0  0  0  0  0  0  0
   40.2580   36.6260   41.0750 H   0  0  0  0  0  0  0  0  0  0  0  0
   39.0080   34.5540   40.7410 H   0  0  0  0  0  0  0  0  0  0  0  0
   40.1290   32.4390   40.7840 H   0  0  0  0  0  0  0  0  0  0  0  0
   42.7720   31.6930   41.2640 S   0  0  0  0  0  0  0  0  0  0  0  0
   41.9180   30.9320   40.2010 O   0  0  0  0  0  0  0  0  0  0  0  0
   42.5200   31.0350   42.5670 O   0  0  0  0  0  0  0  0  0  0  0  0
   44.9430   30.2300   41.3580 C   0  0  0  0  0  0  0  0  0  0  0  0
   44.1300   31.0360   40.5130 C   0  0  0  0  0  0  0  0  0  0  0  0
   44.6360   31.0350   39.2160 C   0  0  0  0  0  0  0  0  0  0  0  0
   43.9610   31.6270   38.5680 H   0  0  0  0  0  0  0  0  0  0  0  0
   45.7300   30.4230   38.6510 C   0  0  0  0  0  0  0  0  0  0  0  0
   45.9240   30.5760   37.6060 H   0  0  0  0  0  0  0  0  0  0  0  0
   46.3780   29.7070   39.5950 C   0  0  0  0  0  3  0  0  0  0  0  0
   46.0600   29.5660   40.9160 C   0  0  0  0  0  3  0  0  0  0  0  0
   44.4390   29.8920   43.9040 N   0  0  0  0  0  0  0  0  0  0  0  0
   44.6530   30.0490   42.7780 C   0  0  0  0  0  0  0  0  0  0  0  0
   44.2510   34.3690   41.5750 C   0  0  0  0  0  0  0  0  0  0  0  0
   45.1240   34.3040   40.6580 O   0  0  0  0  0  0  0  0  0  0  0  0
   44.6000   34.4530   42.9710 C   0  0  0  0  0  0  0  0  0  0  0  0
   44.3100   35.7090   43.6070 C   0  0  0  0  0  0  0  0  0  0  0  0
   44.6320   35.8140   44.9520 C   0  0  0  0  0  0  0  0  0  0  0  0
   45.1900   34.7410   45.5710 N   0  0  0  0  0  0  0  0  0  0  0  0
   45.4450   33.5650   44.9150 C   0  0  0  0  0  0  0  0  0  0  0  0
   45.1490   33.4600   43.6650 N   0  0  0  0  0  0  0  0  0  0  0  0
   43.8780   36.5920   43.1920 H   0  0  0  0  0  0  0  0  0  0  0  0
   44.4640   36.6930   45.5300 H   0  0  0  0  0  0  0  0  0  0  0  0
   46.0440   32.4470   45.6750 C   0  0  1  0  0  0  0  0  0  0  0  0
   46.9810   32.7580   46.8180 C   0  0  0  0  0  0  0  0  0  0  0  0
   45.5700   32.3230   47.0710 C   0  0  1  0  0  0  0  0  0  0  0  0
   46.1780   31.5050   45.1210 H   0  0  0  0  0  0  0  0  0  0  0  0
   47.3010   33.8060   46.9100 H   0  0  0  0  0  0  0  0  0  0  0  0
   47.7890   31.9970   47.0140 H   0  0  0  0  0  0  0  0  0  0  0  0
   45.4390   31.3320   47.5480 H   0  0  0  0  0  0  0  0  0  0  0  0
   44.7620   33.3720   47.6660 N   0  0  0  0  0  0  0  0  0  0  0  0
   45.2640   33.8080   48.4640 H   0  0  0  0  0  0  0  0  0  0  0  0
   43.8630   32.9300   48.0050 H   0  0  0  0  0  0  0  0  0  0  0  0
  1 11  1  0  0  0  0
  1  2  1  0  0  0  0
  2 24  1  0  0  0  0
  3  2  2  0  0  0  0
  3  7  1  0  0  0  0
  4  3  1  0  0  0  0
  5  6  1  0  0  0  0
  5  4  2  0  0  0  0
  6  1  2  0  0  0  0
  8  4  1  0  0  0  0
  9  5  1  0  0  0  0
 10  6  1  0  0  0  0
 11 13  2  0  0  0  0
 12 11  2  0  0  0  0
 14 23  1  0  0  0  0
 15 11  1  0  0  0  0
 15 14  2  0  0  0  0
 16 15  1  0  0  0  0
 17 16  1  0  0  0  0
 18 16  2  0  0  0  0
 18 20  1  0  0  0  0
 19 18  1  0  0  0  0
 20 21  2  0  0  0  0
 21 14  1  0  0  0  0
 23 22  3  0  0  0  0
 24 26  1  0  0  0  0
 25 24  2  0  0  0  0
 26 27  2  0  0  0  0
 26 31  1  0  0  0  0
 27 28  1  0  0  0  0
 28 33  1  0  0  0  0
 28 29  2  0  0  0  0
 30 29  1  0  0  0  0
 30 34  1  0  0  0  0
 31 30  2  0  0  0  0
 32 27  1  0  0  0  0
 34 37  1  6  0  0  0
 34 35  1  0  0  0  0
 34 36  1  0  0  0  0
 35 38  1  0  0  0  0
 35 39  1  0  0  0  0
 35 36  1  0  0  0  0
 36 40  1  1  0  0  0
 36 41  1  0  0  0  0
 41 43  1  0  0  0  0
 41 42  1  0  0  0  0
M  END
>  <minimizedAffinity>
-5.5591321

>  <minimizedRMSD>
1.06027341

$$$$
