
 OpenBabel03252504463D

 28 29  0  0  0  0  0  0  0  0999 V2000
   45.8300   31.0960   49.3360 O   0  0  0  0  0  0  0  0  0  0  0  0
   46.0350   31.1120   47.8150 P   0  0  1  0  0  0  0  0  0  0  0  0
   44.7040   30.2340   47.1980 O   0  0  0  0  0  0  0  0  0  0  0  0
   44.9420   29.6570   46.4520 H   0  0  0  0  0  0  0  0  0  0  0  0
   45.9750   32.7370   47.3400 O   0  0  0  0  0  0  0  0  0  0  0  0
   45.0600   34.7570   44.4980 C   0  0  0  0  0  0  0  0  0  0  0  0
   45.1910   33.8470   43.4580 C   0  0  0  0  0  0  0  0  0  0  0  0
   45.5950   32.5540   43.7860 C   0  0  0  0  0  0  0  0  0  0  0  0
   45.8380   32.2520   45.0780 N   0  0  0  0  0  0  0  0  0  0  0  0
   45.6930   33.1880   46.0610 C   0  0  0  0  0  0  0  0  0  0  0  0
   45.3020   34.4540   45.7770 N   0  0  0  0  0  0  0  0  0  0  0  0
   44.9860   34.1320   42.4430 H   0  0  0  0  0  0  0  0  0  0  0  0
   45.6990   31.8400   42.9920 H   0  0  0  0  0  0  0  0  0  0  0  0
   44.6270   36.1530   44.1320 C   0  0  0  0  0  0  0  0  0  0  0  0
   43.8900   36.1110   43.3070 H   0  0  0  0  0  0  0  0  0  0  0  0
   45.5570   36.6570   43.7790 H   0  0  0  0  0  0  0  0  0  0  0  0
   44.2600   36.6720   45.0250 H   0  0  0  0  0  0  0  0  0  0  0  0
   47.4190   30.3620   47.3240 O   0  0  0  0  0  0  0  0  0  0  0  0
   49.3090   29.5620   48.8060 C   0  0  0  0  0  0  0  0  0  0  0  0
   48.2630   29.4910   47.9240 C   0  0  0  0  0  0  0  0  0  0  0  0
   47.9290   28.2000   47.4890 C   0  0  0  0  0  0  0  0  0  0  0  0
   47.1400   27.8750   46.7900 H   0  0  0  0  0  0  0  0  0  0  0  0
   48.6190   27.0650   47.9280 C   0  0  0  0  0  0  0  0  0  0  0  0
   48.4220   26.0440   47.6410 H   0  0  0  0  0  0  0  0  0  0  0  0
   49.6660   27.1990   48.8190 C   0  0  0  0  0  3  0  0  0  0  0  0
   50.0050   28.4620   49.2540 C   0  0  0  0  0  3  0  0  0  0  0  0
   49.8840   31.9600   49.5780 N   0  0  0  0  0  0  0  0  0  0  0  0
   49.6190   30.8910   49.2260 C   0  0  0  0  0  0  0  0  0  0  0  0
  2  1  2  1  0  0  0
  3  2  1  0  0  0  0
  4  3  1  0  0  0  0
  5  2  1  0  0  0  0
  6 11  1  0  0  0  0
  7  8  1  0  0  0  0
  7  6  2  0  0  0  0
  8  9  2  0  0  0  0
  9 10  1  0  0  0  0
 10  5  1  0  0  0  0
 11 10  2  0  0  0  0
 12  7  1  0  0  0  0
 13  8  1  0  0  0  0
 14  6  1  0  0  0  0
 14 17  1  0  0  0  0
 15 14  1  0  0  0  0
 16 14  1  0  0  0  0
 18  2  1  0  0  0  0
 18 20  1  0  0  0  0
 19 28  1  0  0  0  0
 19 26  1  0  0  0  0
 20 19  2  0  0  0  0
 21 20  1  0  0  0  0
 21 23  2  0  0  0  0
 22 21  1  0  0  0  0
 23 25  1  0  0  0  0
 24 23  1  0  0  0  0
 25 26  2  0  0  0  0
 28 27  3  0  0  0  0
M  END
>  <minimizedAffinity>
-4.39637518

>  <minimizedRMSD>
2.64215207

$$$$
