
 OpenBabel03242518023D

 38 40  0  0  0  0  0  0  0  0999 V2000
   46.2630   31.4510   45.8970 C   0  0  0  0  0  0  0  0  0  0  0  0
   45.2770   31.7870   46.2560 H   0  0  0  0  0  0  0  0  0  0  0  0
   46.0310   30.5190   45.3000 H   0  0  0  0  0  0  0  0  0  0  0  0
   46.9930   31.3930   48.2690 C   0  0  0  0  0  0  0  0  0  0  0  0
   47.2100   31.0500   46.9230 C   0  0  0  0  0  0  0  0  0  0  0  0
   48.3720   30.3160   46.6620 C   0  0  0  0  0  0  0  0  0  0  0  0
   49.1950   29.9880   47.6830 N   0  0  0  0  0  0  0  0  0  0  0  0
   48.9500   30.3370   48.9520 C   0  0  0  0  0  0  0  0  0  0  0  0
   47.8570   31.0320   49.2360 N   0  0  0  0  0  0  0  0  0  0  0  0
   46.1300   31.9580   48.5940 H   0  0  0  0  0  0  0  0  0  0  0  0
   48.5330   30.0570   45.6280 H   0  0  0  0  0  0  0  0  0  0  0  0
   50.2320   28.6070   50.1480 C   0  0  0  0  0  0  0  0  0  0  0  0
   49.8870   29.9450   50.0020 C   0  0  0  0  0  0  0  0  0  0  0  0
   50.4210   30.9200   50.8400 C   0  0  0  0  0  0  0  0  0  0  0  0
   50.1520   31.9620   50.7250 H   0  0  0  0  0  0  0  0  0  0  0  0
   51.3120   30.5990   51.8480 C   0  0  0  0  0  0  0  0  0  0  0  0
   51.7290   31.3470   52.5000 H   0  0  0  0  0  0  0  0  0  0  0  0
   51.6220   29.2600   51.9510 C   0  0  0  0  0  3  0  0  0  0  0  0
   51.1270   28.2540   51.1540 C   0  0  0  0  0  3  0  0  0  0  0  0
   49.2410   26.8180   48.5830 N   0  0  0  0  0  0  0  0  0  0  0  0
   49.6830   27.6150   49.2870 C   0  0  0  0  0  0  0  0  0  0  0  0
   46.9630   32.4450   44.9920 C   0  0  0  0  0  0  0  0  0  0  0  0
   47.2900   31.9210   44.0670 H   0  0  0  0  0  0  0  0  0  0  0  0
   47.9390   32.8000   45.4410 H   0  0  0  0  0  0  0  0  0  0  0  0
   46.3680   34.3100   43.5080 C   0  0  0  0  0  0  0  0  0  0  0  0
   46.2000   33.6690   44.7230 C   0  0  0  0  0  0  0  0  0  0  0  0
   45.3520   34.1130   45.7000 C   0  0  0  0  0  0  0  0  0  0  0  0
   44.6270   35.2640   45.4580 C   0  0  0  0  0  0  0  0  0  0  0  0
   44.7230   35.9660   44.2940 C   0  0  0  0  0  0  0  0  0  0  0  0
   45.6090   35.4480   43.3470 C   0  0  0  0  0  0  0  0  0  0  0  0
   45.1750   33.6750   46.6500 H   0  0  0  0  0  0  0  0  0  0  0  0
   43.9330   35.6770   46.1890 H   0  0  0  0  0  0  0  0  0  0  0  0
   44.1800   36.8670   44.0590 H   0  0  0  0  0  0  0  0  0  0  0  0
   45.6990   35.9970   42.4110 H   0  0  0  0  0  0  0  0  0  0  0  0
   47.4350   33.7790   42.2390 S   0  0  0  0  0  0  0  0  0  0  0  0
   48.8720   34.1540   42.4930 O   0  0  0  0  0  0  0  0  0  0  0  0
   47.0700   34.5060   40.9610 O   0  0  0  0  0  0  0  0  0  0  0  0
   47.2990   32.4500   41.9290 H   0  0  0  0  0  0  0  0  0  0  0  0
  1  2  1  0  0  0  0
  1  5  1  0  0  0  0
  3  1  1  0  0  0  0
  4 10  1  0  0  0  0
  4  9  1  0  0  0  0
  5  4  2  0  0  0  0
  6  5  1  0  0  0  0
  6  7  2  0  0  0  0
  7  8  1  0  0  0  0
  8  9  2  0  0  0  0
  8 13  1  0  0  0  0
 11  6  1  0  0  0  0
 12 19  1  0  0  0  0
 13 12  2  0  0  0  0
 13 14  1  0  0  0  0
 14 16  2  0  0  0  0
 15 14  1  0  0  0  0
 16 18  1  0  0  0  0
 16 17  1  0  0  0  0
 19 18  2  0  0  0  0
 20 21  3  0  0  0  0
 21 12  1  0  0  0  0
 22 24  1  0  0  0  0
 22  1  1  0  0  0  0
 23 22  1  0  0  0  0
 25 26  1  0  0  0  0
 26 22  1  0  0  0  0
 26 27  2  0  0  0  0
 27 31  1  0  0  0  0
 28 27  1  0  0  0  0
 28 32  1  0  0  0  0
 29 28  2  0  0  0  0
 30 25  2  0  0  0  0
 30 29  1  0  0  0  0
 33 29  1  0  0  0  0
 34 30  1  0  0  0  0
 35 36  2  0  0  0  0
 35 25  1  0  0  0  0
 37 35  2  0  0  0  0
 38 35  1  0  0  0  0
M  END
>  <minimizedAffinity>
-5.35320616

>  <minimizedRMSD>
0.570373058

$$$$
