
 OpenBabel03242517203D

 40 42  0  0  0  0  0  0  0  0999 V2000
   35.1990   29.2630   40.2530 C   0  0  0  0  0  0  0  0  0  0  0  0
   35.6970   29.0940   38.9320 C   0  0  0  0  0  0  0  0  0  0  0  0
   37.0710   28.9980   38.7630 C   0  0  0  0  0  0  0  0  0  0  0  0
   37.8380   29.0730   39.8650 N   0  0  0  0  0  0  0  0  0  0  0  0
   37.3660   29.2310   41.1000 C   0  0  0  0  0  0  0  0  0  0  0  0
   36.0430   29.3260   41.2850 N   0  0  0  0  0  0  0  0  0  0  0  0
   34.1160   29.3410   40.4140 H   0  0  0  0  0  0  0  0  0  0  0  0
   37.4600   28.8690   37.7600 H   0  0  0  0  0  0  0  0  0  0  0  0
   38.1620   29.3130   42.3220 C   0  0  0  0  0  0  0  0  0  0  0  0
   39.2370   29.3400   42.0430 H   0  0  0  0  0  0  0  0  0  0  0  0
   37.9710   30.2900   42.8380 H   0  0  0  0  0  0  0  0  0  0  0  0
   37.8230   28.2450   43.2950 C   0  0  0  0  0  0  0  0  0  0  0  0
   38.3620   28.5000   44.2460 H   0  0  0  0  0  0  0  0  0  0  0  0
   36.7060   28.3270   43.4710 H   0  0  0  0  0  0  0  0  0  0  0  0
   39.2160   26.0950   42.9610 C   0  0  0  0  0  0  0  0  0  0  0  0
   38.0810   26.8660   42.9270 C   0  0  0  0  0  0  0  0  0  0  0  0
   36.9590   26.1450   42.4860 C   0  0  0  0  0  0  0  0  0  0  0  0
   35.9470   26.5450   42.3740 H   0  0  0  0  0  0  0  0  0  0  0  0
   37.0130   24.8220   42.1350 C   0  0  0  0  0  0  0  0  0  0  0  0
   36.1560   24.2340   41.7880 H   0  0  0  0  0  0  0  0  0  0  0  0
   38.1850   24.1090   42.1940 C   0  0  0  0  0  3  0  0  0  0  0  0
   39.3000   24.7840   42.6200 C   0  0  0  0  0  3  0  0  0  0  0  0
   41.3610   27.3500   43.6790 N   0  0  0  0  0  0  0  0  0  0  0  0
   40.4120   26.7820   43.3560 C   0  0  0  0  0  0  0  0  0  0  0  0
   34.7710   29.0210   37.7940 C   0  0  0  0  0  3  0  0  0  0  0  0
   33.4610   28.9470   37.9020 C   0  0  0  0  0  3  0  0  0  0  0  0
   32.5450   28.8730   36.7280 C   0  0  0  0  0  0  0  0  0  0  0  0
   32.0070   27.9050   36.6650 H   0  0  0  0  0  0  0  0  0  0  0  0
   33.1500   28.9490   35.7840 H   0  0  0  0  0  0  0  0  0  0  0  0
   32.1980   30.5250   34.4910 F   0  0  0  0  0  0  0  0  0  0  0  0
   31.4560   30.7830   35.5840 C   0  0  0  0  0  0  0  0  0  0  0  0
   31.5940   29.9830   36.7220 C   0  0  0  0  0  0  0  0  0  0  0  0
   30.7840   30.3460   37.7670 C   0  0  0  0  0  0  0  0  0  0  0  0
   29.8760   31.3930   37.7940 C   0  0  0  0  0  0  0  0  0  0  0  0
   29.8030   32.1440   36.6070 C   0  0  0  0  0  0  0  0  0  0  0  0
   30.5710   31.8620   35.5070 C   0  0  0  0  0  0  0  0  0  0  0  0
   30.8450   29.7610   38.6850 H   0  0  0  0  0  0  0  0  0  0  0  0
   29.2730   31.6160   38.6590 H   0  0  0  0  0  0  0  0  0  0  0  0
   29.0980   32.9630   36.6230 H   0  0  0  0  0  0  0  0  0  0  0  0
   30.5150   32.4330   34.6070 H   0  0  0  0  0  0  0  0  0  0  0  0
  1  7  1  0  0  0  0
  1  6  1  0  0  0  0
  2  1  2  0  0  0  0
  3  2  1  0  0  0  0
  3  4  2  0  0  0  0
  4  5  1  0  0  0  0
  5  6  2  0  0  0  0
  5  9  1  0  0  0  0
  8  3  1  0  0  0  0
  9 11  1  0  0  0  0
  9 12  1  0  0  0  0
 10  9  1  0  0  0  0
 12 14  1  0  0  0  0
 12 13  1  0  0  0  0
 15 24  1  0  0  0  0
 16 15  1  0  0  0  0
 16 12  1  0  0  0  0
 17 16  2  0  0  0  0
 18 17  1  0  0  0  0
 19 21  2  0  0  0  0
 19 17  1  0  0  0  0
 20 19  1  0  0  0  0
 21 22  1  0  0  0  0
 22 15  2  0  0  0  0
 24 23  3  0  0  0  0
 25 26  2  0  0  0  0
 25  2  1  0  0  0  0
 27 26  1  0  0  0  0
 28 27  1  0  0  0  0
 29 27  1  0  0  0  0
 30 31  1  0  0  0  0
 31 32  1  0  0  0  0
 32 27  1  0  0  0  0
 32 33  2  0  0  0  0
 33 34  1  0  0  0  0
 33 37  1  0  0  0  0
 34 38  1  0  0  0  0
 35 39  1  0  0  0  0
 35 34  2  0  0  0  0
 36 31  2  0  0  0  0
 36 35  1  0  0  0  0
 40 36  1  0  0  0  0
M  END
>  <minimizedAffinity>
-6.37655306

$$$$

 OpenBabel03242517203D

 40 42  0  0  0  0  0  0  0  0999 V2000
   35.4580   29.6930   40.5850 C   0  0  0  0  0  0  0  0  0  0  0  0
   35.3630   29.2440   39.2400 C   0  0  0  0  0  0  0  0  0  0  0  0
   36.5380   29.1180   38.5120 C   0  0  0  0  0  0  0  0  0  0  0  0
   37.6890   29.4320   39.1340 N   0  0  0  0  0  0  0  0  0  0  0  0
   37.7710   29.8520   40.3940 C   0  0  0  0  0  0  0  0  0  0  0  0
   36.6490   29.9810   41.1140 N   0  0  0  0  0  0  0  0  0  0  0  0
   34.5430   29.8010   41.1830 H   0  0  0  0  0  0  0  0  0  0  0  0
   36.4750   28.7760   37.4860 H   0  0  0  0  0  0  0  0  0  0  0  0
   38.9980   30.1990   41.1070 C   0  0  0  0  0  0  0  0  0  0  0  0
   39.8600   29.7550   40.5660 H   0  0  0  0  0  0  0  0  0  0  0  0
   39.1660   31.3070   41.0630 H   0  0  0  0  0  0  0  0  0  0  0  0
   38.9430   29.8350   42.5460 C   0  0  0  0  0  0  0  0  0  0  0  0
   39.4250   30.6800   43.1050 H   0  0  0  0  0  0  0  0  0  0  0  0
   37.8430   29.7950   42.8150 H   0  0  0  0  0  0  0  0  0  0  0  0
   38.9490   27.3770   43.3420 C   0  0  0  0  0  0  0  0  0  0  0  0
   39.5150   28.5690   42.9610 C   0  0  0  0  0  0  0  0  0  0  0  0
   40.9190   28.5090   42.9360 C   0  0  0  0  0  0  0  0  0  0  0  0
   41.5870   29.3320   42.6670 H   0  0  0  0  0  0  0  0  0  0  0  0
   41.6240   27.3800   43.2600 C   0  0  0  0  0  0  0  0  0  0  0  0
   42.7160   27.3040   43.2500 H   0  0  0  0  0  0  0  0  0  0  0  0
   40.9910   26.2200   43.6330 C   0  0  0  0  0  3  0  0  0  0  0  0
   39.6210   26.2440   43.6670 C   0  0  0  0  0  3  0  0  0  0  0  0
   36.3670   27.3750   43.4940 N   0  0  0  0  0  0  0  0  0  0  0  0
   37.5180   27.3820   43.4360 C   0  0  0  0  0  0  0  0  0  0  0  0
   34.0540   28.9230   38.6560 C   0  0  0  0  0  3  0  0  0  0  0  0
   33.7160   29.1610   37.4050 C   0  0  0  0  0  3  0  0  0  0  0  0
   32.3790   28.8240   36.8390 C   0  0  0  0  0  0  0  0  0  0  0  0
   31.8300   28.0810   37.4550 H   0  0  0  0  0  0  0  0  0  0  0  0
   32.5150   28.3460   35.8320 H   0  0  0  0  0  0  0  0  0  0  0  0
   30.7500   29.8640   38.8690 F   0  0  0  0  0  0  0  0  0  0  0  0
   30.7650   30.5040   37.6840 C   0  0  0  0  0  0  0  0  0  0  0  0
   31.5650   30.0220   36.6440 C   0  0  0  0  0  0  0  0  0  0  0  0
   31.4950   30.7610   35.4910 C   0  0  0  0  0  0  0  0  0  0  0  0
   30.7320   31.8980   35.2730 C   0  0  0  0  0  0  0  0  0  0  0  0
   29.9580   32.3100   36.3730 C   0  0  0  0  0  0  0  0  0  0  0  0
   29.9590   31.6400   37.5690 C   0  0  0  0  0  0  0  0  0  0  0  0
   32.0960   30.4360   34.6420 H   0  0  0  0  0  0  0  0  0  0  0  0
   30.7300   32.4240   34.3340 H   0  0  0  0  0  0  0  0  0  0  0  0
   29.3600   33.1960   36.2090 H   0  0  0  0  0  0  0  0  0  0  0  0
   29.3710   31.9550   38.4030 H   0  0  0  0  0  0  0  0  0  0  0  0
  1  6  1  0  0  0  0
  1  7  1  0  0  0  0
  2  1  2  0  0  0  0
  3  4  2  0  0  0  0
  3  2  1  0  0  0  0
  4  5  1  0  0  0  0
  5  9  1  0  0  0  0
  5  6  2  0  0  0  0
  8  3  1  0  0  0  0
  9 12  1  0  0  0  0
 10  9  1  0  0  0  0
 11  9  1  0  0  0  0
 12 14  1  0  0  0  0
 12 16  1  0  0  0  0
 12 13  1  0  0  0  0
 15 24  1  0  0  0  0
 15 22  1  0  0  0  0
 16 15  2  0  0  0  0
 17 16  1  0  0  0  0
 17 19  2  0  0  0  0
 18 17  1  0  0  0  0
 19 21  1  0  0  0  0
 20 19  1  0  0  0  0
 21 22  2  0  0  0  0
 24 23  3  0  0  0  0
 25  2  1  0  0  0  0
 26 25  2  0  0  0  0
 27 26  1  0  0  0  0
 27 28  1  0  0  0  0
 29 27  1  0  0  0  0
 31 30  1  0  0  0  0
 32 27  1  0  0  0  0
 32 31  2  0  0  0  0
 33 32  1  0  0  0  0
 34 33  2  0  0  0  0
 34 35  1  0  0  0  0
 35 36  2  0  0  0  0
 36 31  1  0  0  0  0
 36 40  1  0  0  0  0
 37 33  1  0  0  0  0
 38 34  1  0  0  0  0
 39 35  1  0  0  0  0
M  END
>  <minimizedAffinity>
-6.25699472

$$$$

 OpenBabel03242517203D

 40 42  0  0  0  0  0  0  0  0999 V2000
   35.0280   28.9250   40.1820 C   0  0  0  0  0  0  0  0  0  0  0  0
   35.5680   29.2220   38.9010 C   0  0  0  0  0  0  0  0  0  0  0  0
   36.9310   29.4710   38.8120 C   0  0  0  0  0  0  0  0  0  0  0  0
   37.6470   29.4130   39.9500 N   0  0  0  0  0  0  0  0  0  0  0  0
   37.1350   29.1340   41.1460 C   0  0  0  0  0  0  0  0  0  0  0  0
   35.8220   28.8910   41.2540 N   0  0  0  0  0  0  0  0  0  0  0  0
   33.9530   28.7240   40.2790 H   0  0  0  0  0  0  0  0  0  0  0  0
   37.3510   29.6980   37.8400 H   0  0  0  0  0  0  0  0  0  0  0  0
   37.8750   29.0570   42.4030 C   0  0  0  0  0  0  0  0  0  0  0  0
   38.9420   29.2930   42.2000 H   0  0  0  0  0  0  0  0  0  0  0  0
   37.5280   29.8630   43.1010 H   0  0  0  0  0  0  0  0  0  0  0  0
   37.6700   27.7670   43.1080 C   0  0  0  0  0  0  0  0  0  0  0  0
   37.3810   28.0230   44.1610 H   0  0  0  0  0  0  0  0  0  0  0  0
   36.7920   27.2680   42.5940 H   0  0  0  0  0  0  0  0  0  0  0  0
   38.8380   25.5080   42.6470 C   0  0  0  0  0  0  0  0  0  0  0  0
   38.7510   26.7990   43.1060 C   0  0  0  0  0  0  0  0  0  0  0  0
   39.9680   27.2610   43.6340 C   0  0  0  0  0  0  0  0  0  0  0  0
   40.1430   28.2530   44.0600 H   0  0  0  0  0  0  0  0  0  0  0  0
   41.1030   26.4940   43.6760 C   0  0  0  0  0  0  0  0  0  0  0  0
   42.0640   26.8270   44.0800 H   0  0  0  0  0  0  0  0  0  0  0  0
   41.1190   25.2080   43.1960 C   0  0  0  0  0  3  0  0  0  0  0  0
   39.9460   24.7250   42.6740 C   0  0  0  0  0  3  0  0  0  0  0  0
   36.6370   24.4950   41.7400 N   0  0  0  0  0  0  0  0  0  0  0  0
   37.6160   24.9560   42.1380 C   0  0  0  0  0  0  0  0  0  0  0  0
   34.6980   29.2560   37.7180 C   0  0  0  0  0  3  0  0  0  0  0  0
   33.4390   28.8700   37.7070 C   0  0  0  0  0  3  0  0  0  0  0  0
   32.5790   28.9170   36.4900 C   0  0  0  0  0  0  0  0  0  0  0  0
   32.0400   27.9630   36.3100 H   0  0  0  0  0  0  0  0  0  0  0  0
   33.2280   29.0770   35.5860 H   0  0  0  0  0  0  0  0  0  0  0  0
   32.1970   30.6580   34.3280 F   0  0  0  0  0  0  0  0  0  0  0  0
   31.4770   30.8750   35.4440 C   0  0  0  0  0  0  0  0  0  0  0  0
   31.6330   30.0300   36.5470 C   0  0  0  0  0  0  0  0  0  0  0  0
   30.8450   30.3530   37.6210 C   0  0  0  0  0  0  0  0  0  0  0  0
   29.9420   31.4030   37.7070 C   0  0  0  0  0  0  0  0  0  0  0  0
   29.8510   32.2010   36.5520 C   0  0  0  0  0  0  0  0  0  0  0  0
   30.5960   31.9600   35.4280 C   0  0  0  0  0  0  0  0  0  0  0  0
   30.9200   29.7320   38.5130 H   0  0  0  0  0  0  0  0  0  0  0  0
   29.3570   31.5930   38.5910 H   0  0  0  0  0  0  0  0  0  0  0  0
   29.1490   33.0210   36.6140 H   0  0  0  0  0  0  0  0  0  0  0  0
   30.5260   32.5660   34.5520 H   0  0  0  0  0  0  0  0  0  0  0  0
  1  7  1  0  0  0  0
  1  6  1  0  0  0  0
  2  1  2  0  0  0  0
  3  2  1  0  0  0  0
  3  4  2  0  0  0  0
  4  5  1  0  0  0  0
  5  6  2  0  0  0  0
  5  9  1  0  0  0  0
  8  3  1  0  0  0  0
  9 11  1  0  0  0  0
  9 12  1  0  0  0  0
 10  9  1  0  0  0  0
 12 13  1  0  0  0  0
 14 12  1  0  0  0  0
 15 22  2  0  0  0  0
 15 16  1  0  0  0  0
 16 12  1  0  0  0  0
 16 17  2  0  0  0  0
 17 19  1  0  0  0  0
 17 18  1  0  0  0  0
 19 20  1  0  0  0  0
 21 19  2  0  0  0  0
 22 21  1  0  0  0  0
 23 24  3  0  0  0  0
 24 15  1  0  0  0  0
 25  2  1  0  0  0  0
 26 25  2  0  0  0  0
 27 32  1  0  0  0  0
 27 26  1  0  0  0  0
 28 27  1  0  0  0  0
 29 27  1  0  0  0  0
 30 31  1  0  0  0  0
 31 32  1  0  0  0  0
 32 33  2  0  0  0  0
 33 34  1  0  0  0  0
 33 37  1  0  0  0  0
 34 38  1  0  0  0  0
 35 39  1  0  0  0  0
 35 34  2  0  0  0  0
 36 31  2  0  0  0  0
 36 35  1  0  0  0  0
 40 36  1  0  0  0  0
M  END
>  <minimizedAffinity>
-6.23125744

$$$$

 OpenBabel03242517203D

 40 42  0  0  0  0  0  0  0  0999 V2000
   34.6390   29.0350   39.7990 C   0  0  0  0  0  0  0  0  0  0  0  0
   36.0090   29.4140   39.8120 C   0  0  0  0  0  0  0  0  0  0  0  0
   36.6350   29.6270   38.5930 C   0  0  0  0  0  0  0  0  0  0  0  0
   35.8990   29.4600   37.4790 N   0  0  0  0  0  0  0  0  0  0  0  0
   34.6160   29.1060   37.4740 C   0  0  0  0  0  0  0  0  0  0  0  0
   33.9920   28.8940   38.6400 N   0  0  0  0  0  0  0  0  0  0  0  0
   34.1190   28.8600   40.7510 H   0  0  0  0  0  0  0  0  0  0  0  0
   37.6790   29.9160   38.5920 H   0  0  0  0  0  0  0  0  0  0  0  0
   33.7800   28.9170   36.2910 C   0  0  0  0  0  0  0  0  0  0  0  0
   34.0920   29.6500   35.5160 H   0  0  0  0  0  0  0  0  0  0  0  0
   33.9790   27.9110   35.8380 H   0  0  0  0  0  0  0  0  0  0  0  0
   32.3300   28.9610   36.6050 C   0  0  0  0  0  0  0  0  0  0  0  0
   31.8820   28.0290   36.1680 H   0  0  0  0  0  0  0  0  0  0  0  0
   32.2540   28.9110   37.7350 H   0  0  0  0  0  0  0  0  0  0  0  0
   30.6170   30.8830   36.8310 C   0  0  0  0  0  0  0  0  0  0  0  0
   31.5670   30.1240   36.1930 C   0  0  0  0  0  0  0  0  0  0  0  0
   31.8720   30.6160   34.9130 C   0  0  0  0  0  0  0  0  0  0  0  0
   32.5940   30.1800   34.2180 H   0  0  0  0  0  0  0  0  0  0  0  0
   31.2760   31.7290   34.3800 C   0  0  0  0  0  0  0  0  0  0  0  0
   31.4940   32.1360   33.3870 H   0  0  0  0  0  0  0  0  0  0  0  0
   30.3320   32.4420   35.0760 C   0  0  0  0  0  3  0  0  0  0  0  0
   30.0110   31.9880   36.3300 C   0  0  0  0  0  3  0  0  0  0  0  0
   29.8870   30.0220   39.1590 N   0  0  0  0  0  0  0  0  0  0  0  0
   30.2230   30.4070   38.1260 C   0  0  0  0  0  0  0  0  0  0  0  0
   36.7220   29.5730   41.0860 C   0  0  0  0  0  3  0  0  0  0  0  0
   36.7590   28.6660   42.0400 C   0  0  0  0  0  3  0  0  0  0  0  0
   37.4920   28.8560   43.3240 C   0  0  0  0  0  0  0  0  0  0  0  0
   36.8930   28.5530   44.2080 H   0  0  0  0  0  0  0  0  0  0  0  0
   37.7130   29.9490   43.4630 H   0  0  0  0  0  0  0  0  0  0  0  0
   39.8700   30.1060   42.5260 F   0  0  0  0  0  0  0  0  0  0  0  0
   39.9350   28.8160   42.9070 C   0  0  0  0  0  0  0  0  0  0  0  0
   38.7740   28.1530   43.3150 C   0  0  0  0  0  0  0  0  0  0  0  0
   38.9700   26.8460   43.6800 C   0  0  0  0  0  0  0  0  0  0  0  0
   40.1700   26.1510   43.6800 C   0  0  0  0  0  0  0  0  0  0  0  0
   41.2850   26.8960   43.2540 C   0  0  0  0  0  0  0  0  0  0  0  0
   41.1930   28.2080   42.8690 C   0  0  0  0  0  0  0  0  0  0  0  0
   38.1020   26.2740   44.0080 H   0  0  0  0  0  0  0  0  0  0  0  0
   40.2430   25.1200   43.9800 H   0  0  0  0  0  0  0  0  0  0  0  0
   42.2230   26.3590   43.2510 H   0  0  0  0  0  0  0  0  0  0  0  0
   42.0400   28.7720   42.5470 H   0  0  0  0  0  0  0  0  0  0  0  0
  1  2  1  0  0  0  0
  1  7  1  0  0  0  0
  2 25  1  0  0  0  0
  3  2  2  0  0  0  0
  4  3  1  0  0  0  0
  5  4  2  0  0  0  0
  5  6  1  0  0  0  0
  6  1  2  0  0  0  0
  8  3  1  0  0  0  0
  9 12  1  0  0  0  0
  9  5  1  0  0  0  0
 10  9  1  0  0  0  0
 11  9  1  0  0  0  0
 12 14  1  0  0  0  0
 13 12  1  0  0  0  0
 15 24  1  0  0  0  0
 16 12  1  0  0  0  0
 16 15  2  0  0  0  0
 17 16  1  0  0  0  0
 18 17  1  0  0  0  0
 19 17  2  0  0  0  0
 19 21  1  0  0  0  0
 20 19  1  0  0  0  0
 21 22  2  0  0  0  0
 22 15  1  0  0  0  0
 24 23  3  0  0  0  0
 25 26  2  0  0  0  0
 26 27  1  0  0  0  0
 27 29  1  0  0  0  0
 27 28  1  0  0  0  0
 30 31  1  0  0  0  0
 31 32  1  0  0  0  0
 32 27  1  0  0  0  0
 32 33  2  0  0  0  0
 33 34  1  0  0  0  0
 33 37  1  0  0  0  0
 34 38  1  0  0  0  0
 35 34  2  0  0  0  0
 36 31  2  0  0  0  0
 36 35  1  0  0  0  0
 39 35  1  0  0  0  0
 40 36  1  0  0  0  0
M  END
>  <minimizedAffinity>
-6.168365

$$$$

 OpenBabel03242517203D

 40 42  0  0  0  0  0  0  0  0999 V2000
   35.3940   29.5770   40.3880 C   0  0  0  0  0  0  0  0  0  0  0  0
   35.2840   29.2830   39.0020 C   0  0  0  0  0  0  0  0  0  0  0  0
   36.4450   29.2860   38.2420 C   0  0  0  0  0  0  0  0  0  0  0  0
   37.5990   29.5670   38.8750 N   0  0  0  0  0  0  0  0  0  0  0  0
   37.6950   29.8420   40.1730 C   0  0  0  0  0  0  0  0  0  0  0  0
   36.5860   29.8450   40.9240 N   0  0  0  0  0  0  0  0  0  0  0  0
   34.4900   29.5810   41.0110 H   0  0  0  0  0  0  0  0  0  0  0  0
   36.3710   29.0630   37.1850 H   0  0  0  0  0  0  0  0  0  0  0  0
   38.9250   30.1490   40.8990 C   0  0  0  0  0  0  0  0  0  0  0  0
   39.7720   29.6380   40.3930 H   0  0  0  0  0  0  0  0  0  0  0  0
   39.1550   31.2430   40.8180 H   0  0  0  0  0  0  0  0  0  0  0  0
   38.8230   29.8440   42.3480 C   0  0  0  0  0  0  0  0  0  0  0  0
   39.2530   30.7280   42.8900 H   0  0  0  0  0  0  0  0  0  0  0  0
   37.7150   29.7750   42.5750 H   0  0  0  0  0  0  0  0  0  0  0  0
   38.8780   27.4360   43.2840 C   0  0  0  0  0  0  0  0  0  0  0  0
   39.4200   28.6160   42.8400 C   0  0  0  0  0  0  0  0  0  0  0  0
   40.8250   28.5890   42.8310 C   0  0  0  0  0  0  0  0  0  0  0  0
   41.4770   29.4100   42.5210 H   0  0  0  0  0  0  0  0  0  0  0  0
   41.5520   27.4970   43.2250 C   0  0  0  0  0  0  0  0  0  0  0  0
   42.6460   27.4460   43.2280 H   0  0  0  0  0  0  0  0  0  0  0  0
   40.9430   26.3450   43.6580 C   0  0  0  0  0  3  0  0  0  0  0  0
   39.5720   26.3390   43.6800 C   0  0  0  0  0  3  0  0  0  0  0  0
   36.2960   27.3730   43.4360 N   0  0  0  0  0  0  0  0  0  0  0  0
   37.4460   27.4120   43.3660 C   0  0  0  0  0  0  0  0  0  0  0  0
   33.9740   28.9840   38.4080 C   0  0  0  0  0  3  0  0  0  0  0  0
   33.6740   29.1510   37.1370 C   0  0  0  0  0  3  0  0  0  0  0  0
   32.3350   28.8380   36.5620 C   0  0  0  0  0  0  0  0  0  0  0  0
   31.8430   27.9810   37.0670 H   0  0  0  0  0  0  0  0  0  0  0  0
   32.4570   28.5320   35.4880 H   0  0  0  0  0  0  0  0  0  0  0  0
   32.1200   30.5730   34.3730 F   0  0  0  0  0  0  0  0  0  0  0  0
   31.3860   30.8480   35.4670 C   0  0  0  0  0  0  0  0  0  0  0  0
   31.4590   30.0080   36.5820 C   0  0  0  0  0  0  0  0  0  0  0  0
   30.6640   30.3930   37.6310 C   0  0  0  0  0  0  0  0  0  0  0  0
   29.8270   31.4980   37.6820 C   0  0  0  0  0  0  0  0  0  0  0  0
   29.8160   32.2860   36.5170 C   0  0  0  0  0  0  0  0  0  0  0  0
   30.5750   31.9860   35.4160 C   0  0  0  0  0  0  0  0  0  0  0  0
   30.6780   29.7790   38.5310 H   0  0  0  0  0  0  0  0  0  0  0  0
   29.2320   31.7340   38.5480 H   0  0  0  0  0  0  0  0  0  0  0  0
   29.1660   33.1490   36.5510 H   0  0  0  0  0  0  0  0  0  0  0  0
   30.5650   32.5850   34.5320 H   0  0  0  0  0  0  0  0  0  0  0  0
  1  6  1  0  0  0  0
  1  7  1  0  0  0  0
  2  1  2  0  0  0  0
  3  4  2  0  0  0  0
  3  2  1  0  0  0  0
  4  5  1  0  0  0  0
  5  9  1  0  0  0  0
  5  6  2  0  0  0  0
  8  3  1  0  0  0  0
  9 12  1  0  0  0  0
 10  9  1  0  0  0  0
 11  9  1  0  0  0  0
 12 14  1  0  0  0  0
 12 16  1  0  0  0  0
 12 13  1  0  0  0  0
 15 24  1  0  0  0  0
 15 22  1  0  0  0  0
 16 15  2  0  0  0  0
 17 16  1  0  0  0  0
 17 19  2  0  0  0  0
 18 17  1  0  0  0  0
 19 20  1  0  0  0  0
 19 21  1  0  0  0  0
 21 22  2  0  0  0  0
 24 23  3  0  0  0  0
 25  2  1  0  0  0  0
 26 25  2  0  0  0  0
 27 32  1  0  0  0  0
 27 28  1  0  0  0  0
 27 26  1  0  0  0  0
 29 27  1  0  0  0  0
 30 31  1  0  0  0  0
 31 32  1  0  0  0  0
 32 33  2  0  0  0  0
 33 34  1  0  0  0  0
 33 37  1  0  0  0  0
 34 38  1  0  0  0  0
 35 39  1  0  0  0  0
 35 34  2  0  0  0  0
 36 31  2  0  0  0  0
 36 35  1  0  0  0  0
 40 36  1  0  0  0  0
M  END
>  <minimizedAffinity>
-6.13485193

$$$$

 OpenBabel03242517203D

 40 42  0  0  0  0  0  0  0  0999 V2000
   34.5840   29.2570   39.6880 C   0  0  0  0  0  0  0  0  0  0  0  0
   34.7490   28.2840   38.6640 C   0  0  0  0  0  0  0  0  0  0  0  0
   35.8310   27.4210   38.7550 C   0  0  0  0  0  0  0  0  0  0  0  0
   36.6530   27.5670   39.8100 N   0  0  0  0  0  0  0  0  0  0  0  0
   36.4950   28.4800   40.7650 C   0  0  0  0  0  0  0  0  0  0  0  0
   35.4560   29.3220   40.6960 N   0  0  0  0  0  0  0  0  0  0  0  0
   33.7350   29.9510   39.6400 H   0  0  0  0  0  0  0  0  0  0  0  0
   35.9640   26.6770   37.9790 H   0  0  0  0  0  0  0  0  0  0  0  0
   37.3600   28.6690   41.9270 C   0  0  0  0  0  0  0  0  0  0  0  0
   38.3890   28.8870   41.5700 H   0  0  0  0  0  0  0  0  0  0  0  0
   37.0470   29.5870   42.4910 H   0  0  0  0  0  0  0  0  0  0  0  0
   37.2840   27.5370   42.8840 C   0  0  0  0  0  0  0  0  0  0  0  0
   37.0840   27.9870   43.8930 H   0  0  0  0  0  0  0  0  0  0  0  0
   36.3850   26.9220   42.5690 H   0  0  0  0  0  0  0  0  0  0  0  0
   38.5780   25.3310   42.5160 C   0  0  0  0  0  0  0  0  0  0  0  0
   38.4050   26.6190   42.9590 C   0  0  0  0  0  0  0  0  0  0  0  0
   39.5640   27.1380   43.5580 C   0  0  0  0  0  0  0  0  0  0  0  0
   39.6680   28.1390   43.9870 H   0  0  0  0  0  0  0  0  0  0  0  0
   40.7270   26.4220   43.6770 C   0  0  0  0  0  0  0  0  0  0  0  0
   41.6460   26.8000   44.1390 H   0  0  0  0  0  0  0  0  0  0  0  0
   40.8310   25.1360   43.2100 C   0  0  0  0  0  3  0  0  0  0  0  0
   39.7160   24.5990   42.6190 C   0  0  0  0  0  3  0  0  0  0  0  0
   36.4940   24.2220   41.4570 N   0  0  0  0  0  0  0  0  0  0  0  0
   37.4160   24.7220   41.9360 C   0  0  0  0  0  0  0  0  0  0  0  0
   33.7890   28.2060   37.5550 C   0  0  0  0  0  3  0  0  0  0  0  0
   33.5880   29.1640   36.6730 C   0  0  0  0  0  3  0  0  0  0  0  0
   32.6060   29.0570   35.5560 C   0  0  0  0  0  0  0  0  0  0  0  0
   31.9610   28.1580   35.6400 H   0  0  0  0  0  0  0  0  0  0  0  0
   33.1630   28.9450   34.5860 H   0  0  0  0  0  0  0  0  0  0  0  0
   30.9200   29.9000   37.6290 F   0  0  0  0  0  0  0  0  0  0  0  0
   30.9580   30.6440   36.5070 C   0  0  0  0  0  0  0  0  0  0  0  0
   31.7870   30.2620   35.4480 C   0  0  0  0  0  0  0  0  0  0  0  0
   31.7380   31.1000   34.3640 C   0  0  0  0  0  0  0  0  0  0  0  0
   30.9700   32.2470   34.2300 C   0  0  0  0  0  0  0  0  0  0  0  0
   30.1660   32.5540   35.3430 C   0  0  0  0  0  0  0  0  0  0  0  0
   30.1450   31.7800   36.4740 C   0  0  0  0  0  0  0  0  0  0  0  0
   32.3620   30.8560   33.5050 H   0  0  0  0  0  0  0  0  0  0  0  0
   30.9860   32.8540   33.3410 H   0  0  0  0  0  0  0  0  0  0  0  0
   29.5650   33.4470   35.2440 H   0  0  0  0  0  0  0  0  0  0  0  0
   29.5350   32.0150   37.3180 H   0  0  0  0  0  0  0  0  0  0  0  0
  1  6  1  0  0  0  0
  2  3  1  0  0  0  0
  2  1  2  0  0  0  0
  3  4  2  0  0  0  0
  4  5  1  0  0  0  0
  5  9  1  0  0  0  0
  6  5  2  0  0  0  0
  7  1  1  0  0  0  0
  8  3  1  0  0  0  0
  9 11  1  0  0  0  0
  9 12  1  0  0  0  0
 10  9  1  0  0  0  0
 12 16  1  0  0  0  0
 12 13  1  0  0  0  0
 14 12  1  0  0  0  0
 15 22  2  0  0  0  0
 15 16  1  0  0  0  0
 16 17  2  0  0  0  0
 17 19  1  0  0  0  0
 17 18  1  0  0  0  0
 19 20  1  0  0  0  0
 21 19  2  0  0  0  0
 22 21  1  0  0  0  0
 23 24  3  0  0  0  0
 24 15  1  0  0  0  0
 25  2  1  0  0  0  0
 26 25  2  0  0  0  0
 27 28  1  0  0  0  0
 27 26  1  0  0  0  0
 29 27  1  0  0  0  0
 31 30  1  0  0  0  0
 32 27  1  0  0  0  0
 32 31  2  0  0  0  0
 33 32  1  0  0  0  0
 34 33  2  0  0  0  0
 34 35  1  0  0  0  0
 35 36  2  0  0  0  0
 36 31  1  0  0  0  0
 36 40  1  0  0  0  0
 37 33  1  0  0  0  0
 38 34  1  0  0  0  0
 39 35  1  0  0  0  0
M  END
>  <minimizedAffinity>
-6.12913322

$$$$

 OpenBabel03242517203D

 40 42  0  0  0  0  0  0  0  0999 V2000
   36.3780   28.6040   37.9000 C   0  0  0  0  0  0  0  0  0  0  0  0
   35.7990   28.6720   39.1960 C   0  0  0  0  0  0  0  0  0  0  0  0
   34.4320   28.8940   39.2880 C   0  0  0  0  0  0  0  0  0  0  0  0
   33.7480   29.0300   38.1370 N   0  0  0  0  0  0  0  0  0  0  0  0
   34.2960   28.9650   36.9260 C   0  0  0  0  0  0  0  0  0  0  0  0
   35.6130   28.7520   36.8160 N   0  0  0  0  0  0  0  0  0  0  0  0
   37.4570   28.4290   37.8000 H   0  0  0  0  0  0  0  0  0  0  0  0
   33.9830   28.9480   40.2720 H   0  0  0  0  0  0  0  0  0  0  0  0
   33.5910   29.1020   35.6540 C   0  0  0  0  0  0  0  0  0  0  0  0
   33.9730   30.0070   35.1330 H   0  0  0  0  0  0  0  0  0  0  0  0
   33.8500   28.2460   34.9780 H   0  0  0  0  0  0  0  0  0  0  0  0
   32.1150   29.0830   35.8150 C   0  0  0  0  0  0  0  0  0  0  0  0
   31.7270   28.3140   35.0960 H   0  0  0  0  0  0  0  0  0  0  0  0
   31.9220   28.7300   36.8750 H   0  0  0  0  0  0  0  0  0  0  0  0
   30.6160   31.0660   36.5220 C   0  0  0  0  0  0  0  0  0  0  0  0
   31.3860   30.3280   35.6580 C   0  0  0  0  0  0  0  0  0  0  0  0
   31.5110   30.9390   34.3990 C   0  0  0  0  0  0  0  0  0  0  0  0
   32.0720   30.5410   33.5500 H   0  0  0  0  0  0  0  0  0  0  0  0
   30.9220   32.1370   34.0900 C   0  0  0  0  0  0  0  0  0  0  0  0
   31.0020   32.6370   33.1190 H   0  0  0  0  0  0  0  0  0  0  0  0
   30.1640   32.8230   35.0050 C   0  0  0  0  0  3  0  0  0  0  0  0
   30.0210   32.2530   36.2450 C   0  0  0  0  0  3  0  0  0  0  0  0
   30.2280   30.0160   38.8550 N   0  0  0  0  0  0  0  0  0  0  0  0
   30.4060   30.4750   37.8120 C   0  0  0  0  0  0  0  0  0  0  0  0
   36.6360   28.5060   40.3920 C   0  0  0  0  0  3  0  0  0  0  0  0
   36.1820   28.1610   41.5790 C   0  0  0  0  0  3  0  0  0  0  0  0
   37.0570   28.0000   42.7760 C   0  0  0  0  0  0  0  0  0  0  0  0
   36.5020   28.1220   43.7300 H   0  0  0  0  0  0  0  0  0  0  0  0
   37.8390   28.8070   42.7710 H   0  0  0  0  0  0  0  0  0  0  0  0
   39.6960   27.7320   43.6790 F   0  0  0  0  0  0  0  0  0  0  0  0
   39.0750   26.6310   43.2140 C   0  0  0  0  0  0  0  0  0  0  0  0
   37.7570   26.7180   42.7560 C   0  0  0  0  0  0  0  0  0  0  0  0
   37.2360   25.5300   42.3100 C   0  0  0  0  0  0  0  0  0  0  0  0
   37.8750   24.3000   42.2760 C   0  0  0  0  0  0  0  0  0  0  0  0
   39.1980   24.3060   42.7550 C   0  0  0  0  0  0  0  0  0  0  0  0
   39.8080   25.4410   43.2210 C   0  0  0  0  0  0  0  0  0  0  0  0
   36.2120   25.5320   41.9390 H   0  0  0  0  0  0  0  0  0  0  0  0
   37.3970   23.4080   41.9080 H   0  0  0  0  0  0  0  0  0  0  0  0
   39.7010   23.3500   42.7290 H   0  0  0  0  0  0  0  0  0  0  0  0
   40.8120   25.4440   43.5850 H   0  0  0  0  0  0  0  0  0  0  0  0
  1  2  1  0  0  0  0
  2  3  2  0  0  0  0
  2 25  1  0  0  0  0
  3  8  1  0  0  0  0
  4  3  1  0  0  0  0
  5  4  2  0  0  0  0
  6  5  1  0  0  0  0
  6  1  2  0  0  0  0
  7  1  1  0  0  0  0
  9 12  1  0  0  0  0
  9  5  1  0  0  0  0
 10  9  1  0  0  0  0
 11  9  1  0  0  0  0
 12 14  1  0  0  0  0
 13 12  1  0  0  0  0
 15 24  1  0  0  0  0
 16 12  1  0  0  0  0
 16 15  2  0  0  0  0
 17 16  1  0  0  0  0
 18 17  1  0  0  0  0
 19 17  2  0  0  0  0
 19 21  1  0  0  0  0
 20 19  1  0  0  0  0
 21 22  2  0  0  0  0
 22 15  1  0  0  0  0
 24 23  3  0  0  0  0
 25 26  2  0  0  0  0
 26 27  1  0  0  0  0
 27 28  1  0  0  0  0
 29 27  1  0  0  0  0
 31 36  1  0  0  0  0
 31 30  1  0  0  0  0
 32 27  1  0  0  0  0
 32 31  2  0  0  0  0
 33 32  1  0  0  0  0
 34 33  2  0  0  0  0
 34 35  1  0  0  0  0
 35 36  2  0  0  0  0
 36 40  1  0  0  0  0
 37 33  1  0  0  0  0
 38 34  1  0  0  0  0
 39 35  1  0  0  0  0
M  END
>  <minimizedAffinity>
-6.12128353

$$$$

 OpenBabel03242517203D

 40 42  0  0  0  0  0  0  0  0999 V2000
   35.7610   27.3350   38.6470 C   0  0  0  0  0  0  0  0  0  0  0  0
   35.1050   28.5820   38.8360 C   0  0  0  0  0  0  0  0  0  0  0  0
   35.2150   29.1940   40.0760 C   0  0  0  0  0  0  0  0  0  0  0  0
   35.9380   28.5600   41.0180 N   0  0  0  0  0  0  0  0  0  0  0  0
   36.5500   27.3920   40.8350 C   0  0  0  0  0  0  0  0  0  0  0  0
   36.4560   26.7850   39.6450 N   0  0  0  0  0  0  0  0  0  0  0  0
   35.6890   26.8310   37.6740 H   0  0  0  0  0  0  0  0  0  0  0  0
   34.7190   30.1440   40.2290 H   0  0  0  0  0  0  0  0  0  0  0  0
   37.3460   26.6730   41.8270 C   0  0  0  0  0  0  0  0  0  0  0  0
   36.7640   25.7930   42.1770 H   0  0  0  0  0  0  0  0  0  0  0  0
   38.2610   26.2420   41.3430 H   0  0  0  0  0  0  0  0  0  0  0  0
   37.8200   27.5530   42.9240 C   0  0  0  0  0  0  0  0  0  0  0  0
   37.1770   28.4720   42.8940 H   0  0  0  0  0  0  0  0  0  0  0  0
   37.6140   26.9890   43.8860 H   0  0  0  0  0  0  0  0  0  0  0  0
   39.8900   29.0580   42.5690 C   0  0  0  0  0  0  0  0  0  0  0  0
   39.2220   27.9230   42.9570 C   0  0  0  0  0  0  0  0  0  0  0  0
   40.0790   26.9690   43.5310 C   0  0  0  0  0  0  0  0  0  0  0  0
   39.7780   25.9890   43.9120 H   0  0  0  0  0  0  0  0  0  0  0  0
   41.4270   27.1680   43.6780 C   0  0  0  0  0  0  0  0  0  0  0  0
   42.1180   26.4450   44.1220 H   0  0  0  0  0  0  0  0  0  0  0  0
   42.0300   28.3310   43.2680 C   0  0  0  0  0  3  0  0  0  0  0  0
   41.2220   29.2840   42.7020 C   0  0  0  0  0  3  0  0  0  0  0  0
   38.4480   30.8700   41.4160 N   0  0  0  0  0  0  0  0  0  0  0  0
   39.0820   30.0550   41.9290 C   0  0  0  0  0  0  0  0  0  0  0  0
   34.3430   29.1930   37.7380 C   0  0  0  0  0  3  0  0  0  0  0  0
   33.4690   28.5510   36.9890 C   0  0  0  0  0  3  0  0  0  0  0  0
   32.7090   29.1980   35.8820 C   0  0  0  0  0  0  0  0  0  0  0  0
   32.2620   28.4610   35.1820 H   0  0  0  0  0  0  0  0  0  0  0  0
   33.4150   29.8170   35.2630 H   0  0  0  0  0  0  0  0  0  0  0  0
   31.8590   31.4550   34.4550 F   0  0  0  0  0  0  0  0  0  0  0  0
   31.2880   31.2150   35.6510 C   0  0  0  0  0  0  0  0  0  0  0  0
   31.6800   30.0990   36.3960 C   0  0  0  0  0  0  0  0  0  0  0  0
   31.0250   29.9620   37.5930 C   0  0  0  0  0  0  0  0  0  0  0  0
   30.0470   30.8000   38.1090 C   0  0  0  0  0  0  0  0  0  0  0  0
   29.7170   31.8970   37.2930 C   0  0  0  0  0  0  0  0  0  0  0  0
   30.3140   32.1210   36.0800 C   0  0  0  0  0  0  0  0  0  0  0  0
   31.2860   29.1110   38.2210 H   0  0  0  0  0  0  0  0  0  0  0  0
   29.5790   30.6250   39.0630 H   0  0  0  0  0  0  0  0  0  0  0  0
   28.9560   32.5530   37.6910 H   0  0  0  0  0  0  0  0  0  0  0  0
   30.0620   32.9530   35.4620 H   0  0  0  0  0  0  0  0  0  0  0  0
  1  2  2  0  0  0  0
  1  6  1  0  0  0  0
  2  3  1  0  0  0  0
  3  8  1  0  0  0  0
  3  4  2  0  0  0  0
  5  4  1  0  0  0  0
  5  9  1  0  0  0  0
  6  5  2  0  0  0  0
  7  1  1  0  0  0  0
  9 10  1  0  0  0  0
  9 12  1  0  0  0  0
 11  9  1  0  0  0  0
 12 16  1  0  0  0  0
 12 14  1  0  0  0  0
 13 12  1  0  0  0  0
 15 22  2  0  0  0  0
 15 16  1  0  0  0  0
 16 17  2  0  0  0  0
 17 19  1  0  0  0  0
 17 18  1  0  0  0  0
 19 20  1  0  0  0  0
 21 19  2  0  0  0  0
 22 21  1  0  0  0  0
 23 24  3  0  0  0  0
 24 15  1  0  0  0  0
 25  2  1  0  0  0  0
 26 25  2  0  0  0  0
 27 32  1  0  0  0  0
 27 26  1  0  0  0  0
 28 27  1  0  0  0  0
 29 27  1  0  0  0  0
 30 31  1  0  0  0  0
 31 36  2  0  0  0  0
 31 32  1  0  0  0  0
 32 33  2  0  0  0  0
 33 34  1  0  0  0  0
 33 37  1  0  0  0  0
 34 38  1  0  0  0  0
 35 39  1  0  0  0  0
 35 34  2  0  0  0  0
 36 35  1  0  0  0  0
 40 36  1  0  0  0  0
M  END
>  <minimizedAffinity>
-5.96660185

$$$$

 OpenBabel03242517203D

 40 42  0  0  0  0  0  0  0  0999 V2000
   36.8540   28.3940   37.1130 C   0  0  0  0  0  0  0  0  0  0  0  0
   35.7040   29.1080   37.5450 C   0  0  0  0  0  0  0  0  0  0  0  0
   35.8210   29.9100   38.6710 C   0  0  0  0  0  0  0  0  0  0  0  0
   37.0210   29.9550   39.2780 N   0  0  0  0  0  0  0  0  0  0  0  0
   38.0950   29.2840   38.8680 C   0  0  0  0  0  0  0  0  0  0  0  0
   38.0030   28.5040   37.7830 N   0  0  0  0  0  0  0  0  0  0  0  0
   36.7880   27.7520   36.2240 H   0  0  0  0  0  0  0  0  0  0  0  0
   34.9490   30.4570   39.0080 H   0  0  0  0  0  0  0  0  0  0  0  0
   39.4150   29.3080   39.4930 C   0  0  0  0  0  0  0  0  0  0  0  0
   40.1850   29.3640   38.6940 H   0  0  0  0  0  0  0  0  0  0  0  0
   39.5410   30.2520   40.0850 H   0  0  0  0  0  0  0  0  0  0  0  0
   39.6170   28.1840   40.4410 C   0  0  0  0  0  0  0  0  0  0  0  0
   39.6010   27.2440   39.8270 H   0  0  0  0  0  0  0  0  0  0  0  0
   40.6560   28.3240   40.8740 H   0  0  0  0  0  0  0  0  0  0  0  0
   38.4340   28.8900   42.6270 C   0  0  0  0  0  0  0  0  0  0  0  0
   38.7150   28.0600   41.5700 C   0  0  0  0  0  0  0  0  0  0  0  0
   37.9340   26.8920   41.5870 C   0  0  0  0  0  0  0  0  0  0  0  0
   37.9810   26.0830   40.8520 H   0  0  0  0  0  0  0  0  0  0  0  0
   37.0030   26.6300   42.5570 C   0  0  0  0  0  0  0  0  0  0  0  0
   36.3810   25.7300   42.5960 H   0  0  0  0  0  0  0  0  0  0  0  0
   36.7730   27.5080   43.5880 C   0  0  0  0  0  3  0  0  0  0  0  0
   37.5190   28.6590   43.6010 C   0  0  0  0  0  3  0  0  0  0  0  0
   39.8770   31.0330   42.7750 N   0  0  0  0  0  0  0  0  0  0  0  0
   39.2310   30.0810   42.6990 C   0  0  0  0  0  0  0  0  0  0  0  0
   34.4380   28.9910   36.8080 C   0  0  0  0  0  3  0  0  0  0  0  0
   33.2520   28.8940   37.3720 C   0  0  0  0  0  3  0  0  0  0  0  0
   31.9840   28.7770   36.5970 C   0  0  0  0  0  0  0  0  0  0  0  0
   31.2640   28.0690   37.0580 H   0  0  0  0  0  0  0  0  0  0  0  0
   32.2120   28.3610   35.5780 H   0  0  0  0  0  0  0  0  0  0  0  0
   30.4730   30.0180   38.6040 F   0  0  0  0  0  0  0  0  0  0  0  0
   30.6090   30.6630   37.4300 C   0  0  0  0  0  0  0  0  0  0  0  0
   31.3560   30.0820   36.4010 C   0  0  0  0  0  0  0  0  0  0  0  0
   31.4220   30.8360   35.2580 C   0  0  0  0  0  0  0  0  0  0  0  0
   30.8360   32.0750   35.0410 C   0  0  0  0  0  0  0  0  0  0  0  0
   30.1030   32.5820   36.1290 C   0  0  0  0  0  0  0  0  0  0  0  0
   29.9780   31.9040   37.3140 C   0  0  0  0  0  0  0  0  0  0  0  0
   31.9900   30.4380   34.4180 H   0  0  0  0  0  0  0  0  0  0  0  0
   30.9330   32.6060   34.1090 H   0  0  0  0  0  0  0  0  0  0  0  0
   29.6430   33.5460   35.9650 H   0  0  0  0  0  0  0  0  0  0  0  0
   29.4220   32.2910   38.1390 H   0  0  0  0  0  0  0  0  0  0  0  0
  1  2  2  0  0  0  0
  1  6  1  0  0  0  0
  2  3  1  0  0  0  0
  3  8  1  0  0  0  0
  3  4  2  0  0  0  0
  5  4  1  0  0  0  0
  5  9  1  0  0  0  0
  6  5  2  0  0  0  0
  7  1  1  0  0  0  0
  9 11  1  0  0  0  0
  9 12  1  0  0  0  0
 10  9  1  0  0  0  0
 12 14  1  0  0  0  0
 12 16  1  0  0  0  0
 13 12  1  0  0  0  0
 15 24  1  0  0  0  0
 15 22  1  0  0  0  0
 16 17  1  0  0  0  0
 16 15  2  0  0  0  0
 17 19  2  0  0  0  0
 18 17  1  0  0  0  0
 19 20  1  0  0  0  0
 19 21  1  0  0  0  0
 21 22  2  0  0  0  0
 24 23  3  0  0  0  0
 25 26  2  0  0  0  0
 25  2  1  0  0  0  0
 27 28  1  0  0  0  0
 27 26  1  0  0  0  0
 29 27  1  0  0  0  0
 31 30  1  0  0  0  0
 32 27  1  0  0  0  0
 32 31  2  0  0  0  0
 33 32  1  0  0  0  0
 34 33  2  0  0  0  0
 34 35  1  0  0  0  0
 35 36  2  0  0  0  0
 36 31  1  0  0  0  0
 36 40  1  0  0  0  0
 37 33  1  0  0  0  0
 38 34  1  0  0  0  0
 39 35  1  0  0  0  0
M  END
>  <minimizedAffinity>
-5.9244709

$$$$
