
 OpenBabel03252509083D

 42 45  0  0  0  0  0  0  0  0999 V2000
   47.5670   31.7980   38.8750 C   0  0  0  0  0  0  0  0  0  0  0  0
   47.1630   33.0980   38.9350 C   0  0  0  0  0  0  0  0  0  0  0  0
   47.8340   34.0570   38.1950 C   0  0  0  0  0  0  0  0  0  0  0  0
   48.8980   33.7220   37.4060 C   0  0  0  0  0  0  0  0  0  0  0  0
   49.3450   32.4110   37.3150 C   0  0  0  0  0  0  0  0  0  0  0  0
   48.6570   31.4560   38.0650 C   0  0  0  0  0  0  0  0  0  0  0  0
   47.5280   35.0950   38.2280 H   0  0  0  0  0  0  0  0  0  0  0  0
   49.4520   34.4140   36.8160 H   0  0  0  0  0  0  0  0  0  0  0  0
   50.1590   32.0630   36.7300 H   0  0  0  0  0  0  0  0  0  0  0  0
   48.9770   30.4250   38.0190 H   0  0  0  0  0  0  0  0  0  0  0  0
   45.3900   35.3120   43.2510 Cl  0  0  0  0  0  0  0  0  0  0  0  0
   45.2000   34.5530   41.6880 C   0  0  0  0  0  0  0  0  0  0  0  0
   46.2770   34.1500   40.9690 C   0  0  0  0  0  0  0  0  0  0  0  0
   46.0350   33.5690   39.7350 C   0  0  0  0  0  0  0  0  0  0  0  0
   44.7730   33.4120   39.2610 C   0  0  0  0  0  0  0  0  0  0  0  0
   43.6930   33.8130   39.9750 C   0  0  0  0  0  0  0  0  0  0  0  0
   43.9210   34.3900   41.2060 C   0  0  0  0  0  0  0  0  0  0  0  0
   44.6330   32.9520   38.2810 H   0  0  0  0  0  0  0  0  0  0  0  0
   42.6960   33.6750   39.5730 H   0  0  0  0  0  0  0  0  0  0  0  0
   43.0450   34.7060   41.7700 H   0  0  0  0  0  0  0  0  0  0  0  0
   49.5740   35.7510   41.9250 C   0  0  0  0  0  0  0  0  0  0  0  0
   48.2920   35.5650   41.4000 C   0  0  0  0  0  0  0  0  0  0  0  0
   47.6180   34.3570   41.5120 C   0  0  0  0  0  0  0  0  0  0  0  0
   48.2960   33.4040   42.1570 N   0  0  0  0  0  0  0  0  0  0  0  0
   49.5240   33.5680   42.6640 C   0  0  0  0  0  0  0  0  0  0  0  0
   50.1590   34.7330   42.5500 N   0  0  0  0  0  0  0  0  0  0  0  0
   50.0640   36.7080   41.8140 H   0  0  0  0  0  0  0  0  0  0  0  0
   47.8210   36.3920   40.8940 H   0  0  0  0  0  0  0  0  0  0  0  0
   49.8640   32.6460   43.1430 H   0  0  0  0  0  0  0  0  0  0  0  0
   46.8400   30.5880   39.8070 S   0  0  0  0  0  0  0  0  0  0  0  0
   46.2910   31.2650   41.1090 O   0  0  0  0  0  0  0  0  0  0  0  0
   45.5970   30.1430   39.0940 O   0  0  0  0  0  0  0  0  0  0  0  0
   47.0590   28.2910   41.3680 C   0  0  0  0  0  0  0  0  0  0  0  0
   47.6680   29.3010   40.5840 C   0  0  0  0  0  0  0  0  0  0  0  0
   49.0410   29.0850   40.5390 C   0  0  0  0  0  0  0  0  0  0  0  0
   49.6480   29.7640   39.9620 H   0  0  0  0  0  0  0  0  0  0  0  0
   49.7600   28.0750   41.1370 C   0  0  0  0  0  0  0  0  0  0  0  0
   50.8320   27.9920   41.0440 H   0  0  0  0  0  0  0  0  0  0  0  0
   49.0230   27.1700   41.8700 C   0  0  0  0  0  3  0  0  0  0  0  0
   47.6550   27.2350   42.0160 C   0  0  0  0  0  3  0  0  0  0  0  0
   44.4280   28.3860   41.5500 N   0  0  0  0  0  0  0  0  0  0  0  0
   45.6020   28.3390   41.4710 C   0  0  0  0  0  0  0  0  0  0  0  0
  1  2  1  0  0  0  0
  1 30  1  0  0  0  0
  2 14  1  0  0  0  0
  3  7  1  0  0  0  0
  3  2  2  0  0  0  0
  4  3  1  0  0  0  0
  5  4  2  0  0  0  0
  5  6  1  0  0  0  0
  6  1  2  0  0  0  0
  8  4  1  0  0  0  0
  9  5  1  0  0  0  0
 10  6  1  0  0  0  0
 12 11  1  0  0  0  0
 13 23  1  0  0  0  0
 13 12  2  0  0  0  0
 14 13  1  0  0  0  0
 15 14  2  0  0  0  0
 15 16  1  0  0  0  0
 16 17  2  0  0  0  0
 17 12  1  0  0  0  0
 17 20  1  0  0  0  0
 18 15  1  0  0  0  0
 19 16  1  0  0  0  0
 21 26  1  0  0  0  0
 22 23  1  0  0  0  0
 22 21  2  0  0  0  0
 23 24  2  0  0  0  0
 24 25  1  0  0  0  0
 25 29  1  0  0  0  0
 26 25  2  0  0  0  0
 27 21  1  0  0  0  0
 28 22  1  0  0  0  0
 30 34  1  0  0  0  0
 30 31  2  0  0  0  0
 32 30  2  0  0  0  0
 33 42  1  0  0  0  0
 33 40  1  0  0  0  0
 34 33  2  0  0  0  0
 35 34  1  0  0  0  0
 35 37  2  0  0  0  0
 36 35  1  0  0  0  0
 37 39  1  0  0  0  0
 38 37  1  0  0  0  0
 39 40  2  0  0  0  0
 42 41  3  0  0  0  0
M  END
>  <minimizedAffinity>
-4.25634289

>  <minimizedRMSD>
2.46552849

$$$$
