
 OpenBabel03252503283D

 26 27  0  0  0  0  0  0  0  0999 V2000
   45.1270   34.7570   43.2360 C   0  0  0  0  0  0  0  0  0  0  0  0
   46.2650   34.1850   42.6530 C   0  0  0  0  0  0  0  0  0  0  0  0
   47.1470   33.5230   43.5290 C   0  0  0  0  0  0  0  0  0  0  0  0
   46.8240   33.4910   44.8470 N   0  0  0  0  0  0  0  0  0  0  0  0
   45.7230   34.0490   45.3620 C   0  0  0  0  0  0  0  0  0  0  0  0
   44.8680   34.6890   44.5490 N   0  0  0  0  0  0  0  0  0  0  0  0
   43.3690   34.5570   41.6890 C   0  0  0  0  0  0  0  0  0  0  0  0
   43.5890   33.3090   41.8050 O   0  0  0  0  0  0  0  0  0  0  0  0
   44.1800   35.4530   42.4260 N   0  0  0  0  0  0  0  0  0  0  0  0
   46.4560   34.2400   41.6110 H   0  0  0  0  0  0  0  0  0  0  0  0
   45.4710   34.0030   46.4220 H   0  0  0  0  0  0  0  0  0  0  0  0
   43.9540   36.4630   42.2620 H   0  0  0  0  0  0  0  0  0  0  0  0
   42.1850   34.5570   39.4260 C   0  0  0  0  0  0  0  0  0  0  0  0
   42.2570   34.8580   40.7740 C   0  0  0  0  0  0  0  0  0  0  0  0
   41.2260   35.5180   41.4090 C   0  0  0  0  0  0  0  0  0  0  0  0
   41.1760   35.8050   42.4540 H   0  0  0  0  0  0  0  0  0  0  0  0
   40.0950   35.8830   40.6640 C   0  0  0  0  0  0  0  0  0  0  0  0
   39.2580   36.3940   41.0970 H   0  0  0  0  0  0  0  0  0  0  0  0
   40.0110   35.5890   39.3180 C   0  0  0  0  0  3  0  0  0  0  0  0
   41.0570   34.9300   38.7130 C   0  0  0  0  0  3  0  0  0  0  0  0
   44.2290   33.3010   38.4150 N   0  0  0  0  0  0  0  0  0  0  0  0
   43.3180   33.8720   38.8620 C   0  0  0  0  0  0  0  0  0  0  0  0
   48.3260   32.9350   42.9060 C   0  0  0  0  0  0  0  0  0  0  0  0
   48.6430   31.7430   43.5460 F   0  0  0  0  0  0  0  0  0  0  0  0
   49.3910   33.7840   43.1530 F   0  0  0  0  0  0  0  0  0  0  0  0
   48.1550   32.6510   41.5840 F   0  0  0  0  0  0  0  0  0  0  0  0
  1  6  1  0  0  0  0
  2  1  2  0  0  0  0
  2  3  1  0  0  0  0
  3  4  2  0  0  0  0
  4  5  1  0  0  0  0
  5 11  1  0  0  0  0
  6  5  2  0  0  0  0
  7  8  2  0  0  0  0
  7  9  1  0  0  0  0
  9  1  1  0  0  0  0
 10  2  1  0  0  0  0
 12  9  1  0  0  0  0
 13 14  1  0  0  0  0
 14 15  2  0  0  0  0
 14  7  1  0  0  0  0
 15 16  1  0  0  0  0
 17 18  1  0  0  0  0
 17 15  1  0  0  0  0
 19 17  2  0  0  0  0
 20 19  1  0  0  0  0
 20 13  2  0  0  0  0
 21 22  3  0  0  0  0
 22 13  1  0  0  0  0
 23 25  1  0  0  0  0
 23  3  1  0  0  0  0
 23 24  1  0  0  0  0
 26 23  1  0  0  0  0
M  END
>  <minimizedAffinity>
-5.42059565

>  <minimizedRMSD>
2.70678544

$$$$
