
 OpenBabel03252507223D

 48 51  0  0  1  0  0  0  0  0999 V2000
   46.8410   33.6620   42.3150 C   0  0  0  0  0  0  0  0  0  0  0  0
   48.0810   33.4870   42.6120 O   0  0  0  0  0  0  0  0  0  0  0  0
   46.2150   33.1430   41.1230 N   0  0  0  0  0  0  0  0  0  0  0  0
   44.9270   32.5150   40.9430 C   0  0  0  0  0  0  0  0  0  0  0  0
   44.1920   33.2390   39.8070 C   0  0  0  0  0  0  0  0  0  0  0  0
   44.9330   33.0650   38.5130 C   0  0  0  0  0  0  0  0  0  0  0  0
   46.3300   32.5560   38.7890 C   0  0  0  0  0  0  0  0  0  0  0  0
   47.0040   33.3130   39.9060 C   0  0  2  0  0  0  0  0  0  0  0  0
   44.2880   32.6390   41.8610 H   0  0  0  0  0  0  0  0  0  0  0  0
   44.9920   31.4520   40.6450 H   0  0  0  0  0  0  0  0  0  0  0  0
   44.1110   34.3150   40.0990 H   0  0  0  0  0  0  0  0  0  0  0  0
   43.1850   32.7840   39.7400 H   0  0  0  0  0  0  0  0  0  0  0  0
   45.0540   34.0780   38.0720 H   0  0  0  0  0  0  0  0  0  0  0  0
   44.4270   32.3500   37.8540 H   0  0  0  0  0  0  0  0  0  0  0  0
   46.9760   32.5830   37.9020 H   0  0  0  0  0  0  0  0  0  0  0  0
   46.2470   31.4530   39.0370 H   0  0  0  0  0  0  0  0  0  0  0  0
   46.9530   34.3790   39.6580 H   0  0  0  0  0  0  0  0  0  0  0  0
   45.6780   35.7310   42.8650 C   0  0  0  0  0  0  0  0  0  0  0  0
   46.0490   34.4240   43.2340 C   0  0  0  0  0  0  0  0  0  0  0  0
   45.6470   33.9170   44.4600 C   0  0  0  0  0  0  0  0  0  0  0  0
   44.9040   34.7180   45.2530 N   0  0  0  0  0  0  0  0  0  0  0  0
   44.5360   35.9700   44.9250 C   0  0  0  0  0  0  0  0  0  0  0  0
   44.9350   36.4620   43.7200 N   0  0  0  0  0  0  0  0  0  0  0  0
   45.9840   36.1480   41.9130 H   0  0  0  0  0  0  0  0  0  0  0  0
   43.9390   36.5900   45.5940 H   0  0  0  0  0  0  0  0  0  0  0  0
   46.0420   32.5650   44.8170 C   0  0  0  0  0  0  0  0  0  0  0  0
   45.4040   31.4990   44.2570 C   0  0  0  0  0  0  0  0  0  0  0  0
   45.8040   30.2400   44.6200 C   0  0  0  0  0  0  0  0  0  0  0  0
   46.8230   29.9940   45.5270 C   0  0  0  0  0  0  0  0  0  0  0  0
   47.4290   31.1190   46.0610 C   0  0  0  0  0  0  0  0  0  0  0  0
   47.0210   32.3340   45.6900 N   0  0  0  0  0  0  0  0  0  0  0  0
   44.6010   31.5480   43.5410 H   0  0  0  0  0  0  0  0  0  0  0  0
   45.3060   29.3600   44.1800 H   0  0  0  0  0  0  0  0  0  0  0  0
   47.1190   28.9930   45.7970 H   0  0  0  0  0  0  0  0  0  0  0  0
   48.2290   30.9540   46.7660 H   0  0  0  0  0  0  0  0  0  0  0  0
   48.4240   32.9340   40.0130 C   0  0  0  0  0  0  0  0  0  0  0  0
   48.9070   33.9680   40.1350 H   0  0  0  0  0  0  0  0  0  0  0  0
   48.7280   32.5220   41.0290 H   0  0  0  0  0  0  0  0  0  0  0  0
   50.3630   31.6520   39.1390 C   0  0  0  0  0  0  0  0  0  0  0  0
   49.1390   32.3270   38.9160 C   0  0  0  0  0  0  0  0  0  0  0  0
   48.8780   32.3100   37.5430 C   0  0  0  0  0  0  0  0  0  0  0  0
   47.9940   32.8290   37.2030 H   0  0  0  0  0  0  0  0  0  0  0  0
   49.5920   31.7800   36.5370 C   0  0  0  0  0  0  0  0  0  0  0  0
   49.2520   31.8520   35.4990 H   0  0  0  0  0  0  0  0  0  0  0  0
   50.7690   31.1370   36.8140 C   0  0  0  0  0  3  0  0  0  0  0  0
   51.1530   31.0780   38.1360 C   0  0  0  0  0  3  0  0  0  0  0  0
   51.1990   31.3970   41.6210 N   0  0  0  0  0  0  0  0  0  0  0  0
   50.8330   31.5120   40.5040 C   0  0  0  0  0  0  0  0  0  0  0  0
  1  2  2  0  0  0  0
  1 19  1  0  0  0  0
  3  1  1  0  0  0  0
  4  3  1  0  0  0  0
  4  9  1  0  0  0  0
  5 11  1  0  0  0  0
  5  4  1  0  0  0  0
  6  7  1  0  0  0  0
  6  5  1  0  0  0  0
  7 16  1  0  0  0  0
  7  8  1  0  0  0  0
  8 17  1  6  0  0  0
  8 36  1  0  0  0  0
  8  3  1  0  0  0  0
 10  4  1  0  0  0  0
 12  5  1  0  0  0  0
 13  6  1  0  0  0  0
 14  6  1  0  0  0  0
 15  7  1  0  0  0  0
 18 19  2  0  0  0  0
 18 23  1  0  0  0  0
 19 20  1  0  0  0  0
 20 26  1  0  0  0  0
 20 21  2  0  0  0  0
 22 21  1  0  0  0  0
 22 25  1  0  0  0  0
 23 22  2  0  0  0  0
 24 18  1  0  0  0  0
 26 31  1  0  0  0  0
 27 28  1  0  0  0  0
 27 26  2  0  0  0  0
 28 29  2  0  0  0  0
 29 34  1  0  0  0  0
 29 30  1  0  0  0  0
 30 35  1  0  0  0  0
 31 30  2  0  0  0  0
 32 27  1  0  0  0  0
 33 28  1  0  0  0  0
 36 37  1  0  0  0  0
 36 38  1  0  0  0  0
 39 48  1  0  0  0  0
 40 39  1  0  0  0  0
 40 36  1  0  0  0  0
 41 40  2  0  0  0  0
 42 41  1  0  0  0  0
 43 45  2  0  0  0  0
 43 41  1  0  0  0  0
 44 43  1  0  0  0  0
 45 46  1  0  0  0  0
 46 39  2  0  0  0  0
 48 47  3  0  0  0  0
M  END
>  <minimizedAffinity>
-4.95950508

>  <minimizedRMSD>
2.41822338

$$$$
