
 OpenBabel03252508023D

 43 46  0  0  1  0  0  0  0  0999 V2000
   42.1970   33.2670   41.1490 C   0  0  0  0  0  0  0  0  0  0  0  0
   42.8740   34.4310   41.3820 C   0  0  0  0  0  0  0  0  0  0  0  0
   42.1390   35.6340   41.3700 C   0  0  0  0  0  0  0  0  0  0  0  0
   40.7850   35.6910   41.1370 C   0  0  0  0  0  0  0  0  0  0  0  0
   40.1140   34.5180   40.9040 C   0  0  0  0  0  0  0  0  0  0  0  0
   40.8190   33.3510   40.9140 C   0  0  0  0  0  0  0  0  0  0  0  0
   42.5850   36.6050   41.5340 H   0  0  0  0  0  0  0  0  0  0  0  0
   40.2330   36.5920   41.1270 H   0  0  0  0  0  0  0  0  0  0  0  0
   39.0700   34.4840   40.7170 H   0  0  0  0  0  0  0  0  0  0  0  0
   40.2710   32.4130   40.7260 H   0  0  0  0  0  0  0  0  0  0  0  0
   42.9330   31.7560   41.2340 S   0  0  0  0  0  0  0  0  0  0  0  0
   42.1940   31.0200   40.0710 O   0  0  0  0  0  0  0  0  0  0  0  0
   42.6140   31.0180   42.4780 O   0  0  0  0  0  0  0  0  0  0  0  0
   45.1600   30.3910   41.4230 C   0  0  0  0  0  0  0  0  0  0  0  0
   44.3700   31.1960   40.5560 C   0  0  0  0  0  0  0  0  0  0  0  0
   44.9650   31.2760   39.3000 C   0  0  0  0  0  0  0  0  0  0  0  0
   44.3090   31.8640   38.6300 H   0  0  0  0  0  0  0  0  0  0  0  0
   46.1240   30.7410   38.7900 C   0  0  0  0  0  0  0  0  0  0  0  0
   46.3830   30.9490   37.7690 H   0  0  0  0  0  0  0  0  0  0  0  0
   46.7390   30.0140   39.7480 C   0  0  0  0  0  3  0  0  0  0  0  0
   46.3360   29.7980   41.0360 C   0  0  0  0  0  3  0  0  0  0  0  0
   44.4960   29.9170   43.9110 N   0  0  0  0  0  0  0  0  0  0  0  0
   44.7810   30.1330   42.8090 C   0  0  0  0  0  0  0  0  0  0  0  0
   44.3020   34.4780   41.6400 C   0  0  0  0  0  0  0  0  0  0  0  0
   45.1920   34.4830   40.7370 O   0  0  0  0  0  0  0  0  0  0  0  0
   44.6240   34.5220   43.0440 C   0  0  0  0  0  0  0  0  0  0  0  0
   44.3010   35.7520   43.7150 C   0  0  0  0  0  0  0  0  0  0  0  0
   44.5970   35.8180   45.0680 C   0  0  0  0  0  0  0  0  0  0  0  0
   45.1620   34.7350   45.6630 N   0  0  0  0  0  0  0  0  0  0  0  0
   45.4490   33.5840   44.9740 C   0  0  0  0  0  0  0  0  0  0  0  0
   45.1780   33.5160   43.7160 N   0  0  0  0  0  0  0  0  0  0  0  0
   43.8610   36.6400   43.3200 H   0  0  0  0  0  0  0  0  0  0  0  0
   44.4040   36.6740   45.6710 H   0  0  0  0  0  0  0  0  0  0  0  0
   46.0540   32.4530   45.7080 C   0  0  1  0  0  0  0  0  0  0  0  0
   46.9900   32.7420   46.8580 C   0  0  0  0  0  0  0  0  0  0  0  0
   45.5810   32.2950   47.1010 C   0  0  1  0  0  0  0  0  0  0  0  0
   46.1910   31.5240   45.1330 H   0  0  0  0  0  0  0  0  0  0  0  0
   47.3040   33.7900   46.9730 H   0  0  0  0  0  0  0  0  0  0  0  0
   47.8000   31.9810   47.0360 H   0  0  0  0  0  0  0  0  0  0  0  0
   45.4550   31.2930   47.5550 H   0  0  0  0  0  0  0  0  0  0  0  0
   44.7670   33.3270   47.7200 N   0  0  0  0  0  0  0  0  0  0  0  0
   45.2680   33.7470   48.5270 H   0  0  0  0  0  0  0  0  0  0  0  0
   43.8710   32.8730   48.0490 H   0  0  0  0  0  0  0  0  0  0  0  0
  1 11  1  0  0  0  0
  1  2  1  0  0  0  0
  2 24  1  0  0  0  0
  3  2  2  0  0  0  0
  3  7  1  0  0  0  0
  4  3  1  0  0  0  0
  5  6  1  0  0  0  0
  5  4  2  0  0  0  0
  6  1  2  0  0  0  0
  8  4  1  0  0  0  0
  9  5  1  0  0  0  0
 10  6  1  0  0  0  0
 11 13  2  0  0  0  0
 12 11  2  0  0  0  0
 14 23  1  0  0  0  0
 15 11  1  0  0  0  0
 15 14  2  0  0  0  0
 16 15  1  0  0  0  0
 17 16  1  0  0  0  0
 18 16  2  0  0  0  0
 18 20  1  0  0  0  0
 19 18  1  0  0  0  0
 20 21  2  0  0  0  0
 21 14  1  0  0  0  0
 23 22  3  0  0  0  0
 24 26  1  0  0  0  0
 25 24  2  0  0  0  0
 26 27  2  0  0  0  0
 26 31  1  0  0  0  0
 27 28  1  0  0  0  0
 28 29  2  0  0  0  0
 28 33  1  0  0  0  0
 30 29  1  0  0  0  0
 30 34  1  0  0  0  0
 31 30  2  0  0  0  0
 32 27  1  0  0  0  0
 34 37  1  6  0  0  0
 34 35  1  0  0  0  0
 34 36  1  0  0  0  0
 35 38  1  0  0  0  0
 35 39  1  0  0  0  0
 35 36  1  0  0  0  0
 36 40  1  1  0  0  0
 36 41  1  0  0  0  0
 41 43  1  0  0  0  0
 41 42  1  0  0  0  0
M  END
>  <minimizedAffinity>
-5.55622673

>  <minimizedRMSD>
1.0346812

$$$$
