
 OpenBabel03242519033D

 33 35  0  0  1  0  0  0  0  0999 V2000
   46.2960   33.7510   42.1640 N   0  0  0  0  0  0  0  0  0  0  0  0
   46.7820   34.4310   40.9790 C   0  0  0  0  0  0  0  0  0  0  0  0
   46.1710   33.5470   39.9350 C   0  0  2  0  0  0  0  0  0  0  0  0
   46.5740   32.1740   40.4350 C   0  0  0  0  0  0  0  0  0  0  0  0
   46.4880   32.3350   41.9300 C   0  0  0  0  0  0  0  0  0  0  0  0
   46.3240   35.4190   40.9650 H   0  0  0  0  0  0  0  0  0  0  0  0
   47.8810   34.4380   40.9120 H   0  0  0  0  0  0  0  0  0  0  0  0
   45.0660   33.6710   39.9330 H   0  0  0  0  0  0  0  0  0  0  0  0
   45.9710   31.3580   40.0220 H   0  0  0  0  0  0  0  0  0  0  0  0
   47.6650   32.0800   40.1730 H   0  0  0  0  0  0  0  0  0  0  0  0
   47.3330   31.8960   42.4870 H   0  0  0  0  0  0  0  0  0  0  0  0
   45.5080   31.8610   42.2320 H   0  0  0  0  0  0  0  0  0  0  0  0
   44.4990   35.8580   44.6610 C   0  0  0  0  0  0  0  0  0  0  0  0
   45.0070   35.4450   43.4320 C   0  0  0  0  0  0  0  0  0  0  0  0
   45.7350   34.2670   43.3450 C   0  0  0  0  0  0  0  0  0  0  0  0
   45.9150   33.5630   44.5030 N   0  0  0  0  0  0  0  0  0  0  0  0
   45.4270   33.9550   45.6920 C   0  0  0  0  0  0  0  0  0  0  0  0
   44.7150   35.1080   45.7710 N   0  0  0  0  0  0  0  0  0  0  0  0
   43.9260   36.7760   44.7480 H   0  0  0  0  0  0  0  0  0  0  0  0
   44.8570   36.0070   42.5390 H   0  0  0  0  0  0  0  0  0  0  0  0
   45.6390   33.3090   46.5270 H   0  0  0  0  0  0  0  0  0  0  0  0
   46.7500   33.7240   38.6340 N   0  0  0  0  0  0  0  0  0  0  0  0
   46.5480   34.6330   38.1160 H   0  0  0  0  0  0  0  0  0  0  0  0
   47.1300   31.9920   36.8810 C   0  0  0  0  0  0  0  0  0  0  0  0
   47.5860   32.9000   37.8440 C   0  0  0  0  0  0  0  0  0  0  0  0
   48.9580   32.9380   37.9550 C   0  0  0  0  0  0  0  0  0  0  0  0
   49.4790   33.5870   38.6410 H   0  0  0  0  0  0  0  0  0  0  0  0
   49.8430   32.1870   37.2240 C   0  0  0  0  0  0  0  0  0  0  0  0
   50.9150   32.2150   37.3080 H   0  0  0  0  0  0  0  0  0  0  0  0
   49.3550   31.3090   36.2890 C   0  0  0  0  0  3  0  0  0  0  0  0
   47.9890   31.2290   36.1350 C   0  0  0  0  0  3  0  0  0  0  0  0
   44.5430   31.8110   36.5320 N   0  0  0  0  0  0  0  0  0  0  0  0
   45.6920   31.8860   36.6970 C   0  0  0  0  0  0  0  0  0  0  0  0
  1 15  1  0  0  0  0
  2  1  1  0  0  0  0
  3  8  1  6  0  0  0
  3  4  1  0  0  0  0
  3  2  1  0  0  0  0
  4  5  1  0  0  0  0
  5  1  1  0  0  0  0
  5 12  1  0  0  0  0
  5 11  1  0  0  0  0
  6  2  1  0  0  0  0
  7  2  1  0  0  0  0
  9  4  1  0  0  0  0
 10  4  1  0  0  0  0
 13 19  1  0  0  0  0
 13 18  1  0  0  0  0
 14 13  2  0  0  0  0
 15 14  1  0  0  0  0
 15 16  2  0  0  0  0
 16 17  1  0  0  0  0
 17 18  2  0  0  0  0
 17 21  1  0  0  0  0
 20 14  1  0  0  0  0
 22  3  1  0  0  0  0
 23 22  1  0  0  0  0
 24 25  1  0  0  0  0
 25 26  2  0  0  0  0
 25 22  1  0  0  0  0
 26 27  1  0  0  0  0
 28 29  1  0  0  0  0
 28 26  1  0  0  0  0
 30 28  2  0  0  0  0
 31 30  1  0  0  0  0
 31 24  2  0  0  0  0
 32 33  3  0  0  0  0
 33 24  1  0  0  0  0
M  END
>  <minimizedAffinity>
-4.1805234

>  <minimizedRMSD>
4.19937181

$$$$
