
 OpenBabel03252509233D

 28 30  0  0  1  0  0  0  0  0999 V2000
   46.5340   35.0770   41.9470 C   0  0  1  0  0  0  0  0  0  0  0  0
   48.0770   35.2090   41.9080 C   0  0  0  0  0  0  0  0  0  0  0  0
   47.2530   34.0480   41.2900 C   0  0  2  0  0  0  0  0  0  0  0  0
   46.0100   35.9050   41.4420 H   0  0  0  0  0  0  0  0  0  0  0  0
   48.6620   34.9860   42.7930 H   0  0  0  0  0  0  0  0  0  0  0  0
   48.4300   35.9820   41.2020 H   0  0  0  0  0  0  0  0  0  0  0  0
   47.4490   33.0690   41.7720 H   0  0  0  0  0  0  0  0  0  0  0  0
   44.6640   35.3790   45.1910 C   0  0  0  0  0  0  0  0  0  0  0  0
   45.1170   35.7000   43.8850 C   0  0  0  0  0  0  0  0  0  0  0  0
   46.0620   34.8530   43.3710 C   0  0  0  0  0  0  0  0  0  0  0  0
   46.5380   33.7690   44.0830 N   0  0  0  0  0  0  0  0  0  0  0  0
   46.0810   33.5030   45.3200 C   0  0  0  0  0  0  0  0  0  0  0  0
   45.1410   34.3090   45.8780 N   0  0  0  0  0  0  0  0  0  0  0  0
   43.9140   36.0460   45.6050 H   0  0  0  0  0  0  0  0  0  0  0  0
   46.4270   32.6660   45.9080 H   0  0  0  0  0  0  0  0  0  0  0  0
   44.6480   36.8350   43.1620 N   0  0  0  0  0  0  0  0  0  0  0  0
   43.8460   36.9430   42.5340 H   0  0  0  0  0  0  0  0  0  0  0  0
   45.3340   37.5850   43.4220 H   0  0  0  0  0  0  0  0  0  0  0  0
   46.3180   33.2360   39.1090 C   0  0  0  0  0  0  0  0  0  0  0  0
   47.2870   33.9320   39.8040 C   0  0  0  0  0  0  0  0  0  0  0  0
   48.3410   34.5570   39.1380 C   0  0  0  0  0  0  0  0  0  0  0  0
   49.1300   35.1190   39.6460 H   0  0  0  0  0  0  0  0  0  0  0  0
   48.4120   34.4740   37.7470 C   0  0  0  0  0  0  0  0  0  0  0  0
   49.2290   34.9540   37.1970 H   0  0  0  0  0  0  0  0  0  0  0  0
   47.4320   33.7720   37.0730 C   0  0  0  0  0  3  0  0  0  0  0  0
   46.3760   33.1440   37.7180 C   0  0  0  0  0  3  0  0  0  0  0  0
   44.3690   32.0790   40.3770 N   0  0  0  0  0  0  0  0  0  0  0  0
   45.2450   32.6010   39.8110 C   0  0  0  0  0  0  0  0  0  0  0  0
  1  4  1  6  0  0  0
  1 10  1  0  0  0  0
  2  1  1  0  0  0  0
  2  5  1  0  0  0  0
  3  7  1  1  0  0  0
  3  2  1  0  0  0  0
  3  1  1  0  0  0  0
  6  2  1  0  0  0  0
  8 14  1  0  0  0  0
  8 13  1  0  0  0  0
  9  8  2  0  0  0  0
 10  9  1  0  0  0  0
 10 11  2  0  0  0  0
 11 12  1  0  0  0  0
 12 13  2  0  0  0  0
 12 15  1  0  0  0  0
 16 18  1  0  0  0  0
 16  9  1  0  0  0  0
 17 16  1  0  0  0  0
 19 20  1  0  0  0  0
 19 28  1  0  0  0  0
 20  3  1  0  0  0  0
 21 22  1  0  0  0  0
 21 20  2  0  0  0  0
 23 21  1  0  0  0  0
 24 23  1  0  0  0  0
 25 26  1  0  0  0  0
 25 23  2  0  0  0  0
 26 19  2  0  0  0  0
 28 27  3  0  0  0  0
M  END
>  <minimizedAffinity>
-5.42107964

>  <minimizedRMSD>
0.937124133

$$$$
