
 OpenBabel03242515393D

 37 40  0  0  0  0  0  0  0  0999 V2000
   44.2330   34.7950   41.0880 C   0  0  0  0  0  0  0  0  0  0  0  0
   44.2280   33.8690   40.0740 C   0  0  0  0  0  0  0  0  0  0  0  0
   45.4360   33.2710   39.7210 C   0  0  0  0  0  0  0  0  0  0  0  0
   46.5450   33.6490   40.4170 N   0  0  0  0  0  0  0  0  0  0  0  0
   46.5170   34.5550   41.4030 C   0  0  0  0  0  0  0  0  0  0  0  0
   45.3600   35.1030   41.7100 N   0  0  0  0  0  0  0  0  0  0  0  0
   43.3430   33.5830   39.5760 H   0  0  0  0  0  0  0  0  0  0  0  0
   46.4690   32.2710   37.6350 C   0  0  0  0  0  0  0  0  0  0  0  0
   45.6670   32.2590   38.7310 C   0  0  0  0  0  0  0  0  0  0  0  0
   45.0160   31.0300   38.8690 C   0  0  0  0  0  0  0  0  0  0  0  0
   44.3330   30.8430   39.6960 H   0  0  0  0  0  0  0  0  0  0  0  0
   45.1530   29.9680   38.0240 C   0  0  0  0  0  0  0  0  0  0  0  0
   44.6270   29.0360   38.1750 H   0  0  0  0  0  0  0  0  0  0  0  0
   45.9830   30.0550   36.9340 C   0  0  0  0  0  0  0  0  0  0  0  0
   46.6400   31.2290   36.7540 C   0  0  0  0  0  0  0  0  0  0  0  0
   47.9210   34.3540   37.1570 N   0  0  0  0  0  0  0  0  0  0  0  0
   47.2610   33.4270   37.3730 C   0  0  0  0  0  0  0  0  0  0  0  0
   42.6300   35.5360   41.4840 S   0  0  0  0  0  0  0  0  0  0  0  0
   40.6040   34.9030   39.8280 C   0  0  0  0  0  0  0  0  0  0  0  0
   41.2990   34.4880   40.9540 C   0  0  0  0  0  0  0  0  0  0  0  0
   40.9480   33.3270   41.5960 C   0  0  0  0  0  0  0  0  0  0  0  0
   39.9030   32.5330   41.1570 C   0  0  0  0  0  0  0  0  0  0  0  0
   39.1980   32.9570   40.0130 C   0  0  0  0  0  0  0  0  0  0  0  0
   39.5450   34.1230   39.3610 C   0  0  0  0  0  0  0  0  0  0  0  0
   38.1990   32.0020   39.7650 O   0  0  0  0  0  0  0  0  0  0  0  0
   38.0790   31.2480   40.9570 C   0  0  0  0  0  0  0  0  0  0  0  0
   39.3380   31.3350   41.5990 O   0  0  0  0  0  0  0  0  0  0  0  0
   40.8160   35.8010   39.2650 H   0  0  0  0  0  0  0  0  0  0  0  0
   41.5130   33.0250   42.4810 H   0  0  0  0  0  0  0  0  0  0  0  0
   38.9930   34.4400   38.4770 H   0  0  0  0  0  0  0  0  0  0  0  0
   37.3230   31.6260   41.6480 H   0  0  0  0  0  0  0  0  0  0  0  0
   37.8330   30.1940   40.7310 H   0  0  0  0  0  0  0  0  0  0  0  0
   47.6190   34.9550   42.1210 O   0  0  0  0  0  0  0  0  0  0  0  0
   48.8020   35.2830   41.4570 C   0  0  0  0  0  0  0  0  0  0  0  0
   49.8040   34.3850   41.6610 F   0  0  0  0  0  0  0  0  0  0  0  0
   48.4380   35.4180   40.1030 F   0  0  0  0  0  0  0  0  0  0  0  0
   49.2220   36.5150   41.9580 F   0  0  0  0  0  0  0  0  0  0  0  0
  1 18  1  0  0  0  0
  1  6  1  0  0  0  0
  2  1  2  0  0  0  0
  3  2  1  0  0  0  0
  3  4  2  0  0  0  0
  4  5  1  0  0  0  0
  5  6  2  0  0  0  0
  5 33  1  0  0  0  0
  7  2  1  0  0  0  0
  8  9  1  0  0  0  0
  9 10  2  0  0  0  0
  9  3  1  0  0  0  0
 10 11  1  0  0  0  0
 12 13  1  0  0  0  0
 12 10  1  0  0  0  0
 14 12  2  0  0  0  0
 15 14  1  0  0  0  0
 15  8  2  0  0  0  0
 16 17  3  0  0  0  0
 17  8  1  0  0  0  0
 19 20  1  0  0  0  0
 20 18  1  0  0  0  0
 20 21  2  0  0  0  0
 21 29  1  0  0  0  0
 22 21  1  0  0  0  0
 22 27  1  0  0  0  0
 23 22  2  0  0  0  0
 24 19  2  0  0  0  0
 24 23  1  0  0  0  0
 25 23  1  0  0  0  0
 25 26  1  0  0  0  0
 26 27  1  0  0  0  0
 26 31  1  0  0  0  0
 28 19  1  0  0  0  0
 30 24  1  0  0  0  0
 32 26  1  0  0  0  0
 34 35  1  0  0  0  0
 34 37  1  0  0  0  0
 34 33  1  0  0  0  0
 36 34  1  0  0  0  0
M  END
>  <minimizedAffinity>
-5.98037672

>  <minimizedRMSD>
0.658880234

$$$$
