
 OpenBabel03252509083D

 42 45  0  0  0  0  0  0  0  0999 V2000
   47.5170   31.7910   39.0010 C   0  0  0  0  0  0  0  0  0  0  0  0
   47.1180   33.0940   38.9820 C   0  0  0  0  0  0  0  0  0  0  0  0
   47.7960   34.0040   38.1890 C   0  0  0  0  0  0  0  0  0  0  0  0
   48.8620   33.6180   37.4250 C   0  0  0  0  0  0  0  0  0  0  0  0
   49.3030   32.3020   37.4140 C   0  0  0  0  0  0  0  0  0  0  0  0
   48.6090   31.3960   38.2170 C   0  0  0  0  0  0  0  0  0  0  0  0
   47.4950   35.0430   38.1580 H   0  0  0  0  0  0  0  0  0  0  0  0
   49.4210   34.2710   36.7970 H   0  0  0  0  0  0  0  0  0  0  0  0
   50.1180   31.9160   36.8530 H   0  0  0  0  0  0  0  0  0  0  0  0
   48.9240   30.3630   38.2340 H   0  0  0  0  0  0  0  0  0  0  0  0
   45.3290   35.4570   43.2110 Cl  0  0  0  0  0  0  0  0  0  0  0  0
   45.1470   34.6690   41.6620 C   0  0  0  0  0  0  0  0  0  0  0  0
   46.2250   34.2170   40.9740 C   0  0  0  0  0  0  0  0  0  0  0  0
   45.9910   33.6160   39.7490 C   0  0  0  0  0  0  0  0  0  0  0  0
   44.7330   33.4860   39.2520 C   0  0  0  0  0  0  0  0  0  0  0  0
   43.6530   33.9350   39.9360 C   0  0  0  0  0  0  0  0  0  0  0  0
   43.8730   34.5330   41.1580 C   0  0  0  0  0  0  0  0  0  0  0  0
   44.5990   33.0080   38.2800 H   0  0  0  0  0  0  0  0  0  0  0  0
   42.6600   33.8180   39.5170 H   0  0  0  0  0  0  0  0  0  0  0  0
   42.9970   34.8880   41.6970 H   0  0  0  0  0  0  0  0  0  0  0  0
   49.5670   35.7260   41.9270 C   0  0  0  0  0  0  0  0  0  0  0  0
   48.2900   35.5670   41.3800 C   0  0  0  0  0  0  0  0  0  0  0  0
   47.5620   34.3960   41.5400 C   0  0  0  0  0  0  0  0  0  0  0  0
   48.1820   33.4520   42.2510 N   0  0  0  0  0  0  0  0  0  0  0  0
   49.4030   33.5910   42.7800 C   0  0  0  0  0  0  0  0  0  0  0  0
   50.0920   34.7200   42.6200 N   0  0  0  0  0  0  0  0  0  0  0  0
   50.1000   36.6540   41.7780 H   0  0  0  0  0  0  0  0  0  0  0  0
   47.8680   36.3850   40.8190 H   0  0  0  0  0  0  0  0  0  0  0  0
   49.6920   32.6830   43.3160 H   0  0  0  0  0  0  0  0  0  0  0  0
   46.7820   30.6410   40.0010 S   0  0  0  0  0  0  0  0  0  0  0  0
   47.1810   29.2260   39.4610 O   0  0  0  0  0  0  0  0  0  0  0  0
   47.4500   30.7040   41.3420 O   0  0  0  0  0  0  0  0  0  0  0  0
   44.2970   30.5450   41.2570 C   0  0  0  0  0  0  0  0  0  0  0  0
   45.0930   30.3490   40.1020 C   0  0  0  0  0  0  0  0  0  0  0  0
   44.2930   29.8870   39.0640 C   0  0  0  0  0  0  0  0  0  0  0  0
   44.7520   29.7050   38.1050 H   0  0  0  0  0  0  0  0  0  0  0  0
   42.9410   29.6340   39.0840 C   0  0  0  0  0  0  0  0  0  0  0  0
   42.4040   29.2740   38.2170 H   0  0  0  0  0  0  0  0  0  0  0  0
   42.3060   29.8740   40.2830 C   0  0  0  0  0  3  0  0  0  0  0  0
   42.9460   30.3340   41.4110 C   0  0  0  0  0  3  0  0  0  0  0  0
   45.5340   31.5220   43.3740 N   0  0  0  0  0  0  0  0  0  0  0  0
   44.9780   31.0870   42.4310 C   0  0  0  0  0  0  0  0  0  0  0  0
  1 30  1  0  0  0  0
  2  1  1  0  0  0  0
  2 14  1  0  0  0  0
  3  2  2  0  0  0  0
  4  3  1  0  0  0  0
  5  4  2  0  0  0  0
  5  6  1  0  0  0  0
  6 10  1  0  0  0  0
  6  1  2  0  0  0  0
  7  3  1  0  0  0  0
  8  4  1  0  0  0  0
  9  5  1  0  0  0  0
 12 11  1  0  0  0  0
 13 23  1  0  0  0  0
 13 12  2  0  0  0  0
 14 13  1  0  0  0  0
 15 14  2  0  0  0  0
 15 16  1  0  0  0  0
 16 17  2  0  0  0  0
 17 12  1  0  0  0  0
 17 20  1  0  0  0  0
 18 15  1  0  0  0  0
 19 16  1  0  0  0  0
 21 26  1  0  0  0  0
 22 23  1  0  0  0  0
 22 21  2  0  0  0  0
 23 24  2  0  0  0  0
 24 25  1  0  0  0  0
 25 29  1  0  0  0  0
 26 25  2  0  0  0  0
 27 21  1  0  0  0  0
 28 22  1  0  0  0  0
 30 34  1  0  0  0  0
 30 32  2  0  0  0  0
 31 30  2  0  0  0  0
 33 40  1  0  0  0  0
 33 42  1  0  0  0  0
 34 33  2  0  0  0  0
 35 37  2  0  0  0  0
 35 34  1  0  0  0  0
 36 35  1  0  0  0  0
 37 39  1  0  0  0  0
 38 37  1  0  0  0  0
 39 40  2  0  0  0  0
 42 41  3  0  0  0  0
M  END
>  <minimizedAffinity>
-4.54064226

>  <minimizedRMSD>
1.31558621

$$$$
