
 OpenBabel03252507453D

 38 40  0  0  0  0  0  0  0  0999 V2000
   47.1090   34.2950   40.8130 C   0  0  0  0  0  0  0  0  0  0  0  0
   47.2600   35.0450   40.0030 H   0  0  0  0  0  0  0  0  0  0  0  0
   46.4820   33.4360   40.4960 H   0  0  0  0  0  0  0  0  0  0  0  0
   48.4440   33.8870   41.2600 C   0  0  0  0  0  0  0  0  0  0  0  0
   48.8750   32.6420   40.8280 C   0  0  0  0  0  0  0  0  0  0  0  0
   50.1300   32.1580   41.2130 C   0  0  0  0  0  0  0  0  0  0  0  0
   50.8930   32.9560   42.0190 N   0  0  0  0  0  0  0  0  0  0  0  0
   50.4300   34.1670   42.4170 C   0  0  0  0  0  0  0  0  0  0  0  0
   49.2320   34.6020   42.0360 N   0  0  0  0  0  0  0  0  0  0  0  0
   50.4310   31.1880   40.8580 H   0  0  0  0  0  0  0  0  0  0  0  0
   51.0130   34.8140   43.0540 H   0  0  0  0  0  0  0  0  0  0  0  0
   47.8500   31.5980   39.7790 S   0  0  0  0  0  0  0  0  0  0  0  0
   47.5730   32.3290   37.0070 C   0  0  0  0  0  0  0  0  0  0  0  0
   48.2680   31.7840   38.0600 C   0  0  0  0  0  0  0  0  0  0  0  0
   49.5390   31.2560   37.7980 C   0  0  0  0  0  0  0  0  0  0  0  0
   50.2260   30.7870   38.5070 H   0  0  0  0  0  0  0  0  0  0  0  0
   50.0950   31.2730   36.5210 C   0  0  0  0  0  0  0  0  0  0  0  0
   51.0530   30.8890   36.2580 H   0  0  0  0  0  0  0  0  0  0  0  0
   49.3670   31.8340   35.4690 C   0  0  0  0  0  3  0  0  0  0  0  0
   48.1270   32.3440   35.7520 C   0  0  0  0  0  3  0  0  0  0  0  0
   45.2300   33.2190   37.6140 N   0  0  0  0  0  0  0  0  0  0  0  0
   46.2890   32.8230   37.3490 C   0  0  0  0  0  0  0  0  0  0  0  0
   46.3140   35.0010   41.8810 C   0  0  0  0  0  0  0  0  0  0  0  0
   46.6350   36.0640   41.9510 H   0  0  0  0  0  0  0  0  0  0  0  0
   46.5160   34.5530   42.8830 H   0  0  0  0  0  0  0  0  0  0  0  0
   44.8390   34.9430   41.6780 C   0  0  0  0  0  0  0  0  0  0  0  0
   43.9700   35.4350   42.7010 C   0  0  0  0  0  0  0  0  0  0  0  0
   42.3010   35.1490   41.9950 S   0  0  0  0  0  0  0  0  0  0  0  0
   43.0700   34.4040   40.4170 C   0  0  0  0  0  0  0  0  0  0  0  0
   44.1840   34.4840   40.6480 N   0  0  0  0  0  0  0  0  0  0  0  0
   44.2640   35.8670   43.6550 H   0  0  0  0  0  0  0  0  0  0  0  0
   42.3080   33.9300   39.3490 O   0  0  0  0  0  0  0  0  0  0  0  0
   40.3900   34.3970   37.5860 O   0  0  0  0  0  0  0  0  0  0  0  0
   41.4710   35.0700   38.4180 P   0  0  0  0  0  0  0  0  0  0  0  0
   40.7420   36.1700   39.4700 O   0  0  0  0  0  0  0  0  0  0  0  0
   39.9220   35.7270   39.8180 H   0  0  0  0  0  0  0  0  0  0  0  0
   42.5680   35.9130   37.4320 O   0  0  0  0  0  0  0  0  0  0  0  0
   42.9010   35.3330   36.7030 H   0  0  0  0  0  0  0  0  0  0  0  0
  1  4  1  0  0  0  0
  1 23  1  0  0  0  0
  2  1  1  0  0  0  0
  3  1  1  0  0  0  0
  4  9  1  0  0  0  0
  5  6  1  0  0  0  0
  5  4  2  0  0  0  0
  6  7  2  0  0  0  0
  7  8  1  0  0  0  0
  8 11  1  0  0  0  0
  9  8  2  0  0  0  0
 10  6  1  0  0  0  0
 12  5  1  0  0  0  0
 13 22  1  0  0  0  0
 13 14  1  0  0  0  0
 14 12  1  0  0  0  0
 15 14  2  0  0  0  0
 15 16  1  0  0  0  0
 17 15  1  0  0  0  0
 18 17  1  0  0  0  0
 19 20  1  0  0  0  0
 19 17  2  0  0  0  0
 20 13  2  0  0  0  0
 22 21  3  0  0  0  0
 23 24  1  0  0  0  0
 23 25  1  0  0  0  0
 26 23  1  0  0  0  0
 26 27  2  0  0  0  0
 27 31  1  0  0  0  0
 28 27  1  0  0  0  0
 29 30  2  0  0  0  0
 29 28  1  0  0  0  0
 30 26  1  0  0  0  0
 32 29  1  0  0  0  0
 33 34  2  0  0  0  0
 34 32  1  0  0  0  0
 34 35  1  0  0  0  0
 35 36  1  0  0  0  0
 37 34  1  0  0  0  0
 38 37  1  0  0  0  0
M  END
>  <minimizedAffinity>
-4.82893372

>  <minimizedRMSD>
0.369116008

$$$$
