
 OpenBabel03252509243D

 28 30  0  0  1  0  0  0  0  0999 V2000
   46.5330   35.0770   41.9460 C   0  0  1  0  0  0  0  0  0  0  0  0
   48.0760   35.2120   41.9080 C   0  0  0  0  0  0  0  0  0  0  0  0
   47.2540   34.0500   41.2900 C   0  0  2  0  0  0  0  0  0  0  0  0
   46.0080   35.9040   41.4420 H   0  0  0  0  0  0  0  0  0  0  0  0
   48.6610   34.9910   42.7930 H   0  0  0  0  0  0  0  0  0  0  0  0
   48.4270   35.9850   41.2010 H   0  0  0  0  0  0  0  0  0  0  0  0
   47.4520   33.0710   41.7730 H   0  0  0  0  0  0  0  0  0  0  0  0
   44.6650   35.3790   45.1920 C   0  0  0  0  0  0  0  0  0  0  0  0
   45.1170   35.6990   43.8860 C   0  0  0  0  0  0  0  0  0  0  0  0
   46.0620   34.8530   43.3710 C   0  0  0  0  0  0  0  0  0  0  0  0
   46.5380   33.7690   44.0820 N   0  0  0  0  0  0  0  0  0  0  0  0
   46.0820   33.5020   45.3200 C   0  0  0  0  0  0  0  0  0  0  0  0
   45.1420   34.3080   45.8790 N   0  0  0  0  0  0  0  0  0  0  0  0
   43.9150   36.0450   45.6060 H   0  0  0  0  0  0  0  0  0  0  0  0
   46.4280   32.6650   45.9070 H   0  0  0  0  0  0  0  0  0  0  0  0
   44.6480   36.8350   43.1630 N   0  0  0  0  0  0  0  0  0  0  0  0
   43.8460   36.9430   42.5360 H   0  0  0  0  0  0  0  0  0  0  0  0
   45.3340   37.5850   43.4240 H   0  0  0  0  0  0  0  0  0  0  0  0
   46.3190   33.2360   39.1080 C   0  0  0  0  0  0  0  0  0  0  0  0
   47.2880   33.9330   39.8040 C   0  0  0  0  0  0  0  0  0  0  0  0
   48.3420   34.5580   39.1370 C   0  0  0  0  0  0  0  0  0  0  0  0
   49.1300   35.1200   39.6460 H   0  0  0  0  0  0  0  0  0  0  0  0
   48.4120   34.4740   37.7470 C   0  0  0  0  0  0  0  0  0  0  0  0
   49.2280   34.9550   37.1960 H   0  0  0  0  0  0  0  0  0  0  0  0
   47.4320   33.7720   37.0720 C   0  0  0  0  0  3  0  0  0  0  0  0
   46.3780   33.1440   37.7170 C   0  0  0  0  0  3  0  0  0  0  0  0
   44.3700   32.0790   40.3780 N   0  0  0  0  0  0  0  0  0  0  0  0
   45.2460   32.6020   39.8120 C   0  0  0  0  0  0  0  0  0  0  0  0
  1  4  1  6  0  0  0
  1 10  1  0  0  0  0
  2  1  1  0  0  0  0
  2  5  1  0  0  0  0
  3  7  1  1  0  0  0
  3  2  1  0  0  0  0
  3  1  1  0  0  0  0
  6  2  1  0  0  0  0
  8 14  1  0  0  0  0
  8 13  1  0  0  0  0
  9  8  2  0  0  0  0
 10  9  1  0  0  0  0
 10 11  2  0  0  0  0
 11 12  1  0  0  0  0
 12 13  2  0  0  0  0
 12 15  1  0  0  0  0
 16 18  1  0  0  0  0
 16  9  1  0  0  0  0
 17 16  1  0  0  0  0
 19 20  1  0  0  0  0
 19 28  1  0  0  0  0
 20  3  1  0  0  0  0
 21 22  1  0  0  0  0
 21 20  2  0  0  0  0
 23 21  1  0  0  0  0
 24 23  1  0  0  0  0
 25 26  1  0  0  0  0
 25 23  2  0  0  0  0
 26 19  2  0  0  0  0
 28 27  3  0  0  0  0
M  END
>  <minimizedAffinity>
-5.42016268

>  <minimizedRMSD>
0.293552816

$$$$
