
 OpenBabel03242518013D

 38 40  0  0  0  0  0  0  0  0999 V2000
   46.3330   31.3600   46.0480 C   0  0  0  0  0  0  0  0  0  0  0  0
   45.3370   31.6660   46.4050 H   0  0  0  0  0  0  0  0  0  0  0  0
   46.1300   30.4200   45.4530 H   0  0  0  0  0  0  0  0  0  0  0  0
   47.0520   31.3090   48.4240 C   0  0  0  0  0  0  0  0  0  0  0  0
   47.2910   30.9900   47.0760 C   0  0  0  0  0  0  0  0  0  0  0  0
   48.4860   30.3120   46.8130 C   0  0  0  0  0  0  0  0  0  0  0  0
   49.3170   30.0110   47.8360 N   0  0  0  0  0  0  0  0  0  0  0  0
   49.0500   30.3340   49.1080 C   0  0  0  0  0  0  0  0  0  0  0  0
   47.9250   30.9770   49.3920 N   0  0  0  0  0  0  0  0  0  0  0  0
   46.1620   31.8310   48.7500 H   0  0  0  0  0  0  0  0  0  0  0  0
   48.6640   30.0710   45.7790 H   0  0  0  0  0  0  0  0  0  0  0  0
   50.3640   28.6430   50.3240 C   0  0  0  0  0  0  0  0  0  0  0  0
   49.9970   29.9730   50.1590 C   0  0  0  0  0  0  0  0  0  0  0  0
   50.5210   30.9700   50.9790 C   0  0  0  0  0  0  0  0  0  0  0  0
   50.2340   32.0060   50.8490 H   0  0  0  0  0  0  0  0  0  0  0  0
   51.4200   30.6780   51.9870 C   0  0  0  0  0  0  0  0  0  0  0  0
   51.8290   31.4430   52.6260 H   0  0  0  0  0  0  0  0  0  0  0  0
   51.7520   29.3450   52.1100 C   0  0  0  0  0  3  0  0  0  0  0  0
   51.2690   28.3200   51.3310 C   0  0  0  0  0  3  0  0  0  0  0  0
   49.3930   26.8140   48.7930 N   0  0  0  0  0  0  0  0  0  0  0  0
   49.8260   27.6290   49.4830 C   0  0  0  0  0  0  0  0  0  0  0  0
   47.0030   32.3730   45.1410 C   0  0  0  0  0  0  0  0  0  0  0  0
   47.3330   31.8600   44.2110 H   0  0  0  0  0  0  0  0  0  0  0  0
   47.9740   32.7470   45.5830 H   0  0  0  0  0  0  0  0  0  0  0  0
   46.3470   34.2250   43.6670 C   0  0  0  0  0  0  0  0  0  0  0  0
   46.2100   33.5800   44.8840 C   0  0  0  0  0  0  0  0  0  0  0  0
   45.3670   34.0070   45.8730 C   0  0  0  0  0  0  0  0  0  0  0  0
   44.6150   35.1420   45.6420 C   0  0  0  0  0  0  0  0  0  0  0  0
   44.6790   35.8460   44.4770 C   0  0  0  0  0  0  0  0  0  0  0  0
   45.5620   35.3480   43.5180 C   0  0  0  0  0  0  0  0  0  0  0  0
   45.2130   33.5640   46.8260 H   0  0  0  0  0  0  0  0  0  0  0  0
   43.9240   35.5400   46.3840 H   0  0  0  0  0  0  0  0  0  0  0  0
   44.1150   36.7360   44.2510 H   0  0  0  0  0  0  0  0  0  0  0  0
   45.6270   35.8980   42.5810 H   0  0  0  0  0  0  0  0  0  0  0  0
   47.4070   33.7170   42.3820 S   0  0  0  0  0  0  0  0  0  0  0  0
   48.8480   34.0650   42.6450 O   0  0  0  0  0  0  0  0  0  0  0  0
   47.0510   34.4860   41.1260 O   0  0  0  0  0  0  0  0  0  0  0  0
   47.2520   32.4000   42.0330 H   0  0  0  0  0  0  0  0  0  0  0  0
  1  2  1  0  0  0  0
  1  5  1  0  0  0  0
  3  1  1  0  0  0  0
  4 10  1  0  0  0  0
  4  9  1  0  0  0  0
  5  4  2  0  0  0  0
  6  5  1  0  0  0  0
  6  7  2  0  0  0  0
  7  8  1  0  0  0  0
  8  9  2  0  0  0  0
  8 13  1  0  0  0  0
 11  6  1  0  0  0  0
 12 19  1  0  0  0  0
 13 12  2  0  0  0  0
 13 14  1  0  0  0  0
 14 16  2  0  0  0  0
 15 14  1  0  0  0  0
 16 18  1  0  0  0  0
 16 17  1  0  0  0  0
 19 18  2  0  0  0  0
 20 21  3  0  0  0  0
 21 12  1  0  0  0  0
 22 24  1  0  0  0  0
 22  1  1  0  0  0  0
 23 22  1  0  0  0  0
 25 26  1  0  0  0  0
 26 22  1  0  0  0  0
 26 27  2  0  0  0  0
 27 31  1  0  0  0  0
 28 27  1  0  0  0  0
 28 32  1  0  0  0  0
 29 28  2  0  0  0  0
 30 25  2  0  0  0  0
 30 29  1  0  0  0  0
 33 29  1  0  0  0  0
 34 30  1  0  0  0  0
 35 36  2  0  0  0  0
 35 25  1  0  0  0  0
 37 35  2  0  0  0  0
 38 35  1  0  0  0  0
M  END
>  <minimizedAffinity>
-5.32566929

>  <minimizedRMSD>
0.622666061

$$$$
