
 OpenBabel03252508023D

 43 46  0  0  1  0  0  0  0  0999 V2000
   42.0620   33.2150   41.1950 C   0  0  0  0  0  0  0  0  0  0  0  0
   42.7780   34.3660   41.3650 C   0  0  0  0  0  0  0  0  0  0  0  0
   42.0780   35.5890   41.3290 C   0  0  0  0  0  0  0  0  0  0  0  0
   40.7200   35.6770   41.1320 C   0  0  0  0  0  0  0  0  0  0  0  0
   40.0090   34.5160   40.9630 C   0  0  0  0  0  0  0  0  0  0  0  0
   40.6810   33.3300   40.9970 C   0  0  0  0  0  0  0  0  0  0  0  0
   42.5560   36.5510   41.4430 H   0  0  0  0  0  0  0  0  0  0  0  0
   40.1930   36.5930   41.1050 H   0  0  0  0  0  0  0  0  0  0  0  0
   38.9600   34.5070   40.8080 H   0  0  0  0  0  0  0  0  0  0  0  0
   40.1010   32.4020   40.8600 H   0  0  0  0  0  0  0  0  0  0  0  0
   42.7570   31.6870   41.3150 S   0  0  0  0  0  0  0  0  0  0  0  0
   41.7340   30.8490   40.4840 O   0  0  0  0  0  0  0  0  0  0  0  0
   42.7370   31.1410   42.6930 O   0  0  0  0  0  0  0  0  0  0  0  0
   44.0230   31.3860   39.0430 C   0  0  0  0  0  0  0  0  0  0  0  0
   43.9660   30.9560   40.3980 C   0  0  0  0  0  0  0  0  0  0  0  0
   44.9940   30.0530   40.6600 C   0  0  0  0  0  0  0  0  0  0  0  0
   44.9590   29.7710   41.7310 H   0  0  0  0  0  0  0  0  0  0  0  0
   45.9950   29.5360   39.8700 C   0  0  0  0  0  0  0  0  0  0  0  0
   46.6840   28.8380   40.3040 H   0  0  0  0  0  0  0  0  0  0  0  0
   45.8920   30.0530   38.6260 C   0  0  0  0  0  3  0  0  0  0  0  0
   44.9740   30.9460   38.1540 C   0  0  0  0  0  3  0  0  0  0  0  0
   42.2990   33.0730   38.0270 N   0  0  0  0  0  0  0  0  0  0  0  0
   43.0640   32.3330   38.4850 C   0  0  0  0  0  0  0  0  0  0  0  0
   44.2140   34.3800   41.5800 C   0  0  0  0  0  0  0  0  0  0  0  0
   45.0760   34.3320   40.6520 O   0  0  0  0  0  0  0  0  0  0  0  0
   44.5790   34.4580   42.9720 C   0  0  0  0  0  0  0  0  0  0  0  0
   44.3120   35.7170   43.6120 C   0  0  0  0  0  0  0  0  0  0  0  0
   44.6490   35.8170   44.9530 C   0  0  0  0  0  0  0  0  0  0  0  0
   45.2000   34.7360   45.5660 N   0  0  0  0  0  0  0  0  0  0  0  0
   45.4340   33.5570   44.9060 C   0  0  0  0  0  0  0  0  0  0  0  0
   45.1230   33.4580   43.6590 N   0  0  0  0  0  0  0  0  0  0  0  0
   43.8850   36.6060   43.2020 H   0  0  0  0  0  0  0  0  0  0  0  0
   44.4990   36.6970   45.5340 H   0  0  0  0  0  0  0  0  0  0  0  0
   46.0270   32.4320   45.6580 C   0  0  1  0  0  0  0  0  0  0  0  0
   46.9790   32.7300   46.7930 C   0  0  0  0  0  0  0  0  0  0  0  0
   45.5660   32.3120   47.0590 C   0  0  1  0  0  0  0  0  0  0  0  0
   46.1430   31.4880   45.1020 H   0  0  0  0  0  0  0  0  0  0  0  0
   47.3120   33.7740   46.8820 H   0  0  0  0  0  0  0  0  0  0  0  0
   47.7790   31.9590   46.9790 H   0  0  0  0  0  0  0  0  0  0  0  0
   45.4280   31.3220   47.5360 H   0  0  0  0  0  0  0  0  0  0  0  0
   44.7760   33.3690   47.6640 N   0  0  0  0  0  0  0  0  0  0  0  0
   45.2920   33.7980   48.4570 H   0  0  0  0  0  0  0  0  0  0  0  0
   43.8760   32.9380   48.0120 H   0  0  0  0  0  0  0  0  0  0  0  0
  1 11  1  0  0  0  0
  1  2  1  0  0  0  0
  2 24  1  0  0  0  0
  3  2  2  0  0  0  0
  3  7  1  0  0  0  0
  4  3  1  0  0  0  0
  5  6  1  0  0  0  0
  5  4  2  0  0  0  0
  6  1  2  0  0  0  0
  8  4  1  0  0  0  0
  9  5  1  0  0  0  0
 10  6  1  0  0  0  0
 11 13  2  0  0  0  0
 12 11  2  0  0  0  0
 14 15  1  0  0  0  0
 15 16  2  0  0  0  0
 15 11  1  0  0  0  0
 16 17  1  0  0  0  0
 18 19  1  0  0  0  0
 18 16  1  0  0  0  0
 20 18  2  0  0  0  0
 21 20  1  0  0  0  0
 21 14  2  0  0  0  0
 22 23  3  0  0  0  0
 23 14  1  0  0  0  0
 24 26  1  0  0  0  0
 25 24  2  0  0  0  0
 26 27  2  0  0  0  0
 26 31  1  0  0  0  0
 27 28  1  0  0  0  0
 28 33  1  0  0  0  0
 28 29  2  0  0  0  0
 30 29  1  0  0  0  0
 30 34  1  0  0  0  0
 31 30  2  0  0  0  0
 32 27  1  0  0  0  0
 34 37  1  6  0  0  0
 34 35  1  0  0  0  0
 34 36  1  0  0  0  0
 35 38  1  0  0  0  0
 35 39  1  0  0  0  0
 35 36  1  0  0  0  0
 36 40  1  1  0  0  0
 36 41  1  0  0  0  0
 41 43  1  0  0  0  0
 41 42  1  0  0  0  0
M  END
>  <minimizedAffinity>
-5.6250391

>  <minimizedRMSD>
1.17216468

$$$$
