
 OpenBabel03252509103D

 42 45  0  0  0  0  0  0  0  0999 V2000
   36.3300   27.4830   39.0530 C   0  0  0  0  0  0  0  0  0  0  0  0
   35.9240   28.2940   40.0700 C   0  0  0  0  0  0  0  0  0  0  0  0
   34.7500   29.0150   39.9420 C   0  0  0  0  0  0  0  0  0  0  0  0
   33.9890   28.9290   38.8090 C   0  0  0  0  0  0  0  0  0  0  0  0
   34.3640   28.1170   37.7480 C   0  0  0  0  0  0  0  0  0  0  0  0
   35.5500   27.3950   37.8930 C   0  0  0  0  0  0  0  0  0  0  0  0
   34.4090   29.6640   40.7380 H   0  0  0  0  0  0  0  0  0  0  0  0
   33.0790   29.4580   38.6540 H   0  0  0  0  0  0  0  0  0  0  0  0
   33.8360   27.9900   36.8360 H   0  0  0  0  0  0  0  0  0  0  0  0
   35.8730   26.7520   37.0870 H   0  0  0  0  0  0  0  0  0  0  0  0
   39.4910   30.7820   42.8550 Cl  0  0  0  0  0  0  0  0  0  0  0  0
   38.2740   29.5530   42.6090 C   0  0  0  0  0  0  0  0  0  0  0  0
   37.6090   29.4510   41.4310 C   0  0  0  0  0  0  0  0  0  0  0  0
   36.6510   28.4560   41.3270 C   0  0  0  0  0  0  0  0  0  0  0  0
   36.3850   27.6170   42.3610 C   0  0  0  0  0  0  0  0  0  0  0  0
   37.0470   27.7140   43.5390 C   0  0  0  0  0  0  0  0  0  0  0  0
   38.0040   28.6990   43.6550 C   0  0  0  0  0  0  0  0  0  0  0  0
   35.6190   26.8510   42.2320 H   0  0  0  0  0  0  0  0  0  0  0  0
   36.8150   27.0310   44.3480 H   0  0  0  0  0  0  0  0  0  0  0  0
   38.5290   28.7650   44.6060 H   0  0  0  0  0  0  0  0  0  0  0  0
   39.2720   31.1200   38.4640 C   0  0  0  0  0  0  0  0  0  0  0  0
   38.9910   30.2160   39.4930 C   0  0  0  0  0  0  0  0  0  0  0  0
   37.9150   30.3900   40.3530 C   0  0  0  0  0  0  0  0  0  0  0  0
   37.1850   31.4820   40.1110 N   0  0  0  0  0  0  0  0  0  0  0  0
   37.4430   32.3550   39.1300 C   0  0  0  0  0  0  0  0  0  0  0  0
   38.4790   32.1760   38.3120 N   0  0  0  0  0  0  0  0  0  0  0  0
   40.1210   30.9470   37.8180 H   0  0  0  0  0  0  0  0  0  0  0  0
   39.6360   29.3600   39.6130 H   0  0  0  0  0  0  0  0  0  0  0  0
   36.7070   33.1630   39.1370 H   0  0  0  0  0  0  0  0  0  0  0  0
   37.7900   26.6300   39.1120 S   0  0  0  0  0  0  0  0  0  0  0  0
   37.6080   25.3290   38.2580 O   0  0  0  0  0  0  0  0  0  0  0  0
   38.8110   27.4130   38.3410 O   0  0  0  0  0  0  0  0  0  0  0  0
   37.8500   24.7730   41.1870 C   0  0  0  0  0  0  0  0  0  0  0  0
   38.4380   25.8670   40.5060 C   0  0  0  0  0  0  0  0  0  0  0  0
   39.6230   26.2200   41.1390 C   0  0  0  0  0  0  0  0  0  0  0  0
   40.2040   27.0310   40.7250 H   0  0  0  0  0  0  0  0  0  0  0  0
   40.1930   25.6490   42.2540 C   0  0  0  0  0  0  0  0  0  0  0  0
   41.1250   25.9990   42.6740 H   0  0  0  0  0  0  0  0  0  0  0  0
   39.4980   24.5940   42.8050 C   0  0  0  0  0  3  0  0  0  0  0  0
   38.3100   24.1140   42.3040 C   0  0  0  0  0  3  0  0  0  0  0  0
   35.6200   23.8050   40.1600 N   0  0  0  0  0  0  0  0  0  0  0  0
   36.6170   24.2360   40.6140 C   0  0  0  0  0  0  0  0  0  0  0  0
  1 30  1  0  0  0  0
  1  2  1  0  0  0  0
  2 14  1  0  0  0  0
  3  2  2  0  0  0  0
  3  7  1  0  0  0  0
  4  3  1  0  0  0  0
  5  6  1  0  0  0  0
  5  4  2  0  0  0  0
  6  1  2  0  0  0  0
  8  4  1  0  0  0  0
  9  5  1  0  0  0  0
 10  6  1  0  0  0  0
 12 11  1  0  0  0  0
 12 17  1  0  0  0  0
 13 12  2  0  0  0  0
 14 13  1  0  0  0  0
 14 15  2  0  0  0  0
 15 16  1  0  0  0  0
 16 17  2  0  0  0  0
 16 19  1  0  0  0  0
 17 20  1  0  0  0  0
 18 15  1  0  0  0  0
 21 22  1  0  0  0  0
 22 28  1  0  0  0  0
 22 23  2  0  0  0  0
 23 13  1  0  0  0  0
 24 23  1  0  0  0  0
 25 29  1  0  0  0  0
 25 24  2  0  0  0  0
 26 21  2  0  0  0  0
 26 25  1  0  0  0  0
 27 21  1  0  0  0  0
 30 34  1  0  0  0  0
 31 30  2  0  0  0  0
 32 30  2  0  0  0  0
 33 40  1  0  0  0  0
 34 35  1  0  0  0  0
 34 33  2  0  0  0  0
 35 37  2  0  0  0  0
 36 35  1  0  0  0  0
 37 38  1  0  0  0  0
 37 39  1  0  0  0  0
 40 39  2  0  0  0  0
 41 42  3  0  0  0  0
 42 33  1  0  0  0  0
M  END
>  <minimizedAffinity>
-6.65503883

$$$$

 OpenBabel03252509103D

 42 45  0  0  0  0  0  0  0  0999 V2000
   36.0950   27.3620   39.2120 C   0  0  0  0  0  0  0  0  0  0  0  0
   35.8520   28.3190   40.1520 C   0  0  0  0  0  0  0  0  0  0  0  0
   34.8110   29.2120   39.9640 C   0  0  0  0  0  0  0  0  0  0  0  0
   34.0220   29.1510   38.8490 C   0  0  0  0  0  0  0  0  0  0  0  0
   34.2330   28.1950   37.8660 C   0  0  0  0  0  0  0  0  0  0  0  0
   35.2850   27.3010   38.0700 C   0  0  0  0  0  0  0  0  0  0  0  0
   34.6010   29.9780   40.6990 H   0  0  0  0  0  0  0  0  0  0  0  0
   33.2090   29.8090   38.6510 H   0  0  0  0  0  0  0  0  0  0  0  0
   33.6720   28.0750   36.9740 H   0  0  0  0  0  0  0  0  0  0  0  0
   35.4800   26.5420   37.3260 H   0  0  0  0  0  0  0  0  0  0  0  0
   39.4330   30.8590   42.8710 Cl  0  0  0  0  0  0  0  0  0  0  0  0
   38.2540   29.5910   42.6340 C   0  0  0  0  0  0  0  0  0  0  0  0
   37.5460   29.4990   41.4810 C   0  0  0  0  0  0  0  0  0  0  0  0
   36.6230   28.4710   41.3830 C   0  0  0  0  0  0  0  0  0  0  0  0
   36.4320   27.5900   42.3990 C   0  0  0  0  0  0  0  0  0  0  0  0
   37.1370   27.6770   43.5520 C   0  0  0  0  0  0  0  0  0  0  0  0
   38.0610   28.6950   43.6620 C   0  0  0  0  0  0  0  0  0  0  0  0
   35.6900   26.7990   42.2760 H   0  0  0  0  0  0  0  0  0  0  0  0
   36.9650   26.9600   44.3480 H   0  0  0  0  0  0  0  0  0  0  0  0
   38.6210   28.7520   44.5920 H   0  0  0  0  0  0  0  0  0  0  0  0
   37.2710   32.5910   39.3090 C   0  0  0  0  0  0  0  0  0  0  0  0
   37.0440   31.6590   40.3260 C   0  0  0  0  0  0  0  0  0  0  0  0
   37.7710   30.4810   40.4220 C   0  0  0  0  0  0  0  0  0  0  0  0
   38.6940   30.3220   39.4690 N   0  0  0  0  0  0  0  0  0  0  0  0
   38.9210   31.2060   38.4900 C   0  0  0  0  0  0  0  0  0  0  0  0
   38.2160   32.3330   38.4100 N   0  0  0  0  0  0  0  0  0  0  0  0
   36.6800   33.4950   39.2710 H   0  0  0  0  0  0  0  0  0  0  0  0
   36.2770   31.8720   41.0540 H   0  0  0  0  0  0  0  0  0  0  0  0
   39.7220   30.8510   37.8360 H   0  0  0  0  0  0  0  0  0  0  0  0
   37.3940   26.2860   39.3410 S   0  0  0  0  0  0  0  0  0  0  0  0
   37.1390   25.3930   40.6030 O   0  0  0  0  0  0  0  0  0  0  0  0
   37.3010   25.3150   38.2010 O   0  0  0  0  0  0  0  0  0  0  0  0
   39.9290   27.3200   38.8310 C   0  0  0  0  0  0  0  0  0  0  0  0
   39.0090   26.7210   39.7250 C   0  0  0  0  0  0  0  0  0  0  0  0
   39.6170   26.5450   40.9620 C   0  0  0  0  0  0  0  0  0  0  0  0
   39.0350   26.1130   41.7630 H   0  0  0  0  0  0  0  0  0  0  0  0
   40.9020   26.8720   41.3300 C   0  0  0  0  0  0  0  0  0  0  0  0
   41.2840   26.6930   42.3250 H   0  0  0  0  0  0  0  0  0  0  0  0
   41.6770   27.4470   40.3470 C   0  0  0  0  0  3  0  0  0  0  0  0
   41.2320   27.6940   39.0690 C   0  0  0  0  0  3  0  0  0  0  0  0
   39.0320   27.8850   36.4150 N   0  0  0  0  0  0  0  0  0  0  0  0
   39.4290   27.6290   37.4930 C   0  0  0  0  0  0  0  0  0  0  0  0
  1 30  1  0  0  0  0
  1  2  1  0  0  0  0
  2 14  1  0  0  0  0
  3  2  2  0  0  0  0
  3  7  1  0  0  0  0
  4  3  1  0  0  0  0
  5  6  1  0  0  0  0
  5  4  2  0  0  0  0
  6  1  2  0  0  0  0
  8  4  1  0  0  0  0
  9  5  1  0  0  0  0
 10  6  1  0  0  0  0
 12 11  1  0  0  0  0
 12 17  1  0  0  0  0
 13 12  2  0  0  0  0
 14 13  1  0  0  0  0
 14 15  2  0  0  0  0
 15 16  1  0  0  0  0
 16 17  2  0  0  0  0
 16 19  1  0  0  0  0
 17 20  1  0  0  0  0
 18 15  1  0  0  0  0
 21 22  1  0  0  0  0
 22 23  2  0  0  0  0
 22 28  1  0  0  0  0
 23 13  1  0  0  0  0
 24 23  1  0  0  0  0
 25 24  2  0  0  0  0
 26 25  1  0  0  0  0
 26 21  2  0  0  0  0
 27 21  1  0  0  0  0
 29 25  1  0  0  0  0
 30 34  1  0  0  0  0
 30 31  2  0  0  0  0
 32 30  2  0  0  0  0
 33 40  2  0  0  0  0
 33 34  1  0  0  0  0
 34 35  2  0  0  0  0
 35 37  1  0  0  0  0
 35 36  1  0  0  0  0
 37 38  1  0  0  0  0
 39 37  2  0  0  0  0
 40 39  1  0  0  0  0
 41 42  3  0  0  0  0
 42 33  1  0  0  0  0
M  END
>  <minimizedAffinity>
-6.04835701

$$$$

 OpenBabel03252509103D

 42 45  0  0  0  0  0  0  0  0999 V2000
   41.2270   28.8650   41.3550 C   0  0  0  0  0  0  0  0  0  0  0  0
   40.2620   29.4400   42.1260 C   0  0  0  0  0  0  0  0  0  0  0  0
   40.5190   30.6440   42.7580 C   0  0  0  0  0  0  0  0  0  0  0  0
   41.7280   31.2670   42.6230 C   0  0  0  0  0  0  0  0  0  0  0  0
   42.7410   30.7190   41.8480 C   0  0  0  0  0  0  0  0  0  0  0  0
   42.4650   29.5050   41.2160 C   0  0  0  0  0  0  0  0  0  0  0  0
   39.7660   31.1180   43.3740 H   0  0  0  0  0  0  0  0  0  0  0  0
   41.9830   32.1930   43.0830 H   0  0  0  0  0  0  0  0  0  0  0  0
   43.7050   31.1320   41.6870 H   0  0  0  0  0  0  0  0  0  0  0  0
   43.2300   29.0480   40.6050 H   0  0  0  0  0  0  0  0  0  0  0  0
   35.3190   29.0330   40.6850 Cl  0  0  0  0  0  0  0  0  0  0  0  0
   36.6830   28.6780   41.7170 C   0  0  0  0  0  0  0  0  0  0  0  0
   37.9050   29.2140   41.4740 C   0  0  0  0  0  0  0  0  0  0  0  0
   38.9330   28.8690   42.3350 C   0  0  0  0  0  0  0  0  0  0  0  0
   38.7300   28.0260   43.3800 C   0  0  0  0  0  0  0  0  0  0  0  0
   37.5110   27.4880   43.6280 C   0  0  0  0  0  0  0  0  0  0  0  0
   36.4790   27.8260   42.7790 C   0  0  0  0  0  0  0  0  0  0  0  0
   39.5720   27.7810   44.0300 H   0  0  0  0  0  0  0  0  0  0  0  0
   37.3760   26.8180   44.4700 H   0  0  0  0  0  0  0  0  0  0  0  0
   35.5060   27.3880   42.9900 H   0  0  0  0  0  0  0  0  0  0  0  0
   38.1830   32.3210   39.3240 C   0  0  0  0  0  0  0  0  0  0  0  0
   38.0110   31.4830   40.4300 C   0  0  0  0  0  0  0  0  0  0  0  0
   38.0820   30.1010   40.3250 C   0  0  0  0  0  0  0  0  0  0  0  0
   38.3250   29.6520   39.0910 N   0  0  0  0  0  0  0  0  0  0  0  0
   38.4910   30.4420   38.0240 C   0  0  0  0  0  0  0  0  0  0  0  0
   38.4220   31.7680   38.1380 N   0  0  0  0  0  0  0  0  0  0  0  0
   38.1190   33.3930   39.4490 H   0  0  0  0  0  0  0  0  0  0  0  0
   37.8180   31.9360   41.3890 H   0  0  0  0  0  0  0  0  0  0  0  0
   38.6770   29.8410   37.1310 H   0  0  0  0  0  0  0  0  0  0  0  0
   41.0070   27.3600   40.6150 S   0  0  0  0  0  0  0  0  0  0  0  0
   40.2700   27.6100   39.2550 O   0  0  0  0  0  0  0  0  0  0  0  0
   42.3550   26.8530   40.1940 O   0  0  0  0  0  0  0  0  0  0  0  0
   40.2130   25.2950   42.3070 C   0  0  0  0  0  0  0  0  0  0  0  0
   39.9670   26.1170   41.1810 C   0  0  0  0  0  0  0  0  0  0  0  0
   38.7510   25.7640   40.6100 C   0  0  0  0  0  0  0  0  0  0  0  0
   38.4090   26.3150   39.7460 H   0  0  0  0  0  0  0  0  0  0  0  0
   37.8760   24.7820   41.0160 C   0  0  0  0  0  0  0  0  0  0  0  0
   36.9470   24.5820   40.5000 H   0  0  0  0  0  0  0  0  0  0  0  0
   38.2580   24.0650   42.1290 C   0  0  0  0  0  3  0  0  0  0  0  0
   39.4290   24.2860   42.8160 C   0  0  0  0  0  3  0  0  0  0  0  0
   42.4110   25.7950   43.6790 N   0  0  0  0  0  0  0  0  0  0  0  0
   41.4330   25.5750   43.0630 C   0  0  0  0  0  0  0  0  0  0  0  0
  1  2  1  0  0  0  0
  2 14  1  0  0  0  0
  2  3  2  0  0  0  0
  3  7  1  0  0  0  0
  4  3  1  0  0  0  0
  4  8  1  0  0  0  0
  5  4  2  0  0  0  0
  6  1  2  0  0  0  0
  6  5  1  0  0  0  0
  9  5  1  0  0  0  0
 10  6  1  0  0  0  0
 11 12  1  0  0  0  0
 12 17  1  0  0  0  0
 13 12  2  0  0  0  0
 13 14  1  0  0  0  0
 14 15  2  0  0  0  0
 15 16  1  0  0  0  0
 15 18  1  0  0  0  0
 16 19  1  0  0  0  0
 17 20  1  0  0  0  0
 17 16  2  0  0  0  0
 21 27  1  0  0  0  0
 21 22  1  0  0  0  0
 22 28  1  0  0  0  0
 23 22  2  0  0  0  0
 23 13  1  0  0  0  0
 24 23  1  0  0  0  0
 25 26  1  0  0  0  0
 25 24  2  0  0  0  0
 26 21  2  0  0  0  0
 29 25  1  0  0  0  0
 30 34  1  0  0  0  0
 30  1  1  0  0  0  0
 31 30  2  0  0  0  0
 32 30  2  0  0  0  0
 33 40  1  0  0  0  0
 33 42  1  0  0  0  0
 34 33  2  0  0  0  0
 35 37  2  0  0  0  0
 35 34  1  0  0  0  0
 36 35  1  0  0  0  0
 37 39  1  0  0  0  0
 38 37  1  0  0  0  0
 39 40  2  0  0  0  0
 42 41  3  0  0  0  0
M  END
>  <minimizedAffinity>
-6.00007725

$$$$

 OpenBabel03252509103D

 42 45  0  0  0  0  0  0  0  0999 V2000
   35.9890   27.3470   39.0890 C   0  0  0  0  0  0  0  0  0  0  0  0
   36.8230   26.7780   40.0050 C   0  0  0  0  0  0  0  0  0  0  0  0
   37.1930   25.4520   39.8620 C   0  0  0  0  0  0  0  0  0  0  0  0
   36.7340   24.7010   38.8160 C   0  0  0  0  0  0  0  0  0  0  0  0
   35.8840   25.2370   37.8590 C   0  0  0  0  0  0  0  0  0  0  0  0
   35.5210   26.5760   38.0170 C   0  0  0  0  0  0  0  0  0  0  0  0
   37.8540   24.9820   40.5780 H   0  0  0  0  0  0  0  0  0  0  0  0
   36.9840   23.6790   38.6540 H   0  0  0  0  0  0  0  0  0  0  0  0
   35.4830   24.7300   37.0180 H   0  0  0  0  0  0  0  0  0  0  0  0
   34.8610   27.0280   37.2910 H   0  0  0  0  0  0  0  0  0  0  0  0
   40.8160   29.1520   42.2600 Cl  0  0  0  0  0  0  0  0  0  0  0  0
   39.1760   28.5520   42.2120 C   0  0  0  0  0  0  0  0  0  0  0  0
   38.6940   27.9180   41.1140 C   0  0  0  0  0  0  0  0  0  0  0  0
   37.3790   27.4860   41.1550 C   0  0  0  0  0  0  0  0  0  0  0  0
   36.6000   27.6900   42.2490 C   0  0  0  0  0  0  0  0  0  0  0  0
   37.0770   28.3220   43.3490 C   0  0  0  0  0  0  0  0  0  0  0  0
   38.3860   28.7550   43.3200 C   0  0  0  0  0  0  0  0  0  0  0  0
   35.5690   27.3340   42.2340 H   0  0  0  0  0  0  0  0  0  0  0  0
   36.4340   28.4720   44.2090 H   0  0  0  0  0  0  0  0  0  0  0  0
   38.7560   29.2600   44.2100 H   0  0  0  0  0  0  0  0  0  0  0  0
   40.4730   28.4810   37.8160 C   0  0  0  0  0  0  0  0  0  0  0  0
   39.6360   28.6640   38.9210 C   0  0  0  0  0  0  0  0  0  0  0  0
   39.5630   27.7380   39.9520 C   0  0  0  0  0  0  0  0  0  0  0  0
   40.3530   26.6720   39.7940 N   0  0  0  0  0  0  0  0  0  0  0  0
   41.1580   26.4840   38.7410 C   0  0  0  0  0  0  0  0  0  0  0  0
   41.2190   27.3820   37.7590 N   0  0  0  0  0  0  0  0  0  0  0  0
   40.4980   29.2270   37.0350 H   0  0  0  0  0  0  0  0  0  0  0  0
   39.0330   29.5570   38.9640 H   0  0  0  0  0  0  0  0  0  0  0  0
   41.7000   25.5400   38.8410 H   0  0  0  0  0  0  0  0  0  0  0  0
   35.4390   28.9380   39.2420 S   0  0  0  0  0  0  0  0  0  0  0  0
   34.5940   29.2680   37.9640 O   0  0  0  0  0  0  0  0  0  0  0  0
   34.4260   28.9710   40.3480 O   0  0  0  0  0  0  0  0  0  0  0  0
   37.1650   30.7830   38.0670 C   0  0  0  0  0  0  0  0  0  0  0  0
   36.4290   30.3410   39.1930 C   0  0  0  0  0  0  0  0  0  0  0  0
   36.6290   31.2200   40.2490 C   0  0  0  0  0  0  0  0  0  0  0  0
   36.1160   31.0300   41.1810 H   0  0  0  0  0  0  0  0  0  0  0  0
   37.4060   32.3560   40.2720 C   0  0  0  0  0  0  0  0  0  0  0  0
   37.4980   32.9800   41.1500 H   0  0  0  0  0  0  0  0  0  0  0  0
   38.0630   32.6540   39.0980 C   0  0  0  0  0  3  0  0  0  0  0  0
   37.9740   31.8900   37.9570 C   0  0  0  0  0  3  0  0  0  0  0  0
   36.9100   29.3660   35.8560 N   0  0  0  0  0  0  0  0  0  0  0  0
   37.0200   29.9960   36.8440 C   0  0  0  0  0  0  0  0  0  0  0  0
  1 30  1  0  0  0  0
  1  2  1  0  0  0  0
  2 14  1  0  0  0  0
  3  2  2  0  0  0  0
  3  7  1  0  0  0  0
  4  3  1  0  0  0  0
  5  6  1  0  0  0  0
  5  4  2  0  0  0  0
  6  1  2  0  0  0  0
  8  4  1  0  0  0  0
  9  5  1  0  0  0  0
 10  6  1  0  0  0  0
 12 11  1  0  0  0  0
 12 17  1  0  0  0  0
 13 14  1  0  0  0  0
 13 12  2  0  0  0  0
 14 15  2  0  0  0  0
 15 16  1  0  0  0  0
 16 19  1  0  0  0  0
 17 16  2  0  0  0  0
 17 20  1  0  0  0  0
 18 15  1  0  0  0  0
 21 22  1  0  0  0  0
 22 28  1  0  0  0  0
 22 23  2  0  0  0  0
 23 13  1  0  0  0  0
 24 23  1  0  0  0  0
 25 29  1  0  0  0  0
 25 24  2  0  0  0  0
 26 21  2  0  0  0  0
 26 25  1  0  0  0  0
 27 21  1  0  0  0  0
 30 32  2  0  0  0  0
 31 30  2  0  0  0  0
 33 34  1  0  0  0  0
 34 30  1  0  0  0  0
 34 35  2  0  0  0  0
 35 37  1  0  0  0  0
 35 36  1  0  0  0  0
 37 38  1  0  0  0  0
 39 37  2  0  0  0  0
 40 33  2  0  0  0  0
 40 39  1  0  0  0  0
 41 42  3  0  0  0  0
 42 33  1  0  0  0  0
M  END
>  <minimizedAffinity>
-5.97224522

$$$$

 OpenBabel03252509103D

 42 45  0  0  0  0  0  0  0  0999 V2000
   36.7730   30.2120   39.0710 C   0  0  0  0  0  0  0  0  0  0  0  0
   36.9900   29.3000   38.0810 C   0  0  0  0  0  0  0  0  0  0  0  0
   37.4210   29.7300   36.8380 C   0  0  0  0  0  0  0  0  0  0  0  0
   37.6320   31.0570   36.5850 C   0  0  0  0  0  0  0  0  0  0  0  0
   37.4230   32.0210   37.5610 C   0  0  0  0  0  0  0  0  0  0  0  0
   36.9900   31.5710   38.8100 C   0  0  0  0  0  0  0  0  0  0  0  0
   37.6010   29.0220   36.0400 H   0  0  0  0  0  0  0  0  0  0  0  0
   37.9630   31.4460   35.6510 H   0  0  0  0  0  0  0  0  0  0  0  0
   37.5620   33.0670   37.4530 H   0  0  0  0  0  0  0  0  0  0  0  0
   36.8170   32.2930   39.5950 H   0  0  0  0  0  0  0  0  0  0  0  0
   34.1060   25.0770   37.3630 Cl  0  0  0  0  0  0  0  0  0  0  0  0
   35.5140   25.9300   37.9460 C   0  0  0  0  0  0  0  0  0  0  0  0
   35.6530   27.2660   37.7580 C   0  0  0  0  0  0  0  0  0  0  0  0
   36.8070   27.8600   38.2410 C   0  0  0  0  0  0  0  0  0  0  0  0
   37.7640   27.1350   38.8770 C   0  0  0  0  0  0  0  0  0  0  0  0
   37.6300   25.8010   39.0680 C   0  0  0  0  0  0  0  0  0  0  0  0
   36.4840   25.1990   38.5930 C   0  0  0  0  0  0  0  0  0  0  0  0
   38.6580   27.6470   39.2370 H   0  0  0  0  0  0  0  0  0  0  0  0
   38.4090   25.2460   39.5790 H   0  0  0  0  0  0  0  0  0  0  0  0
   36.3900   24.1270   38.7550 H   0  0  0  0  0  0  0  0  0  0  0  0
   33.5970   28.8700   35.0090 C   0  0  0  0  0  0  0  0  0  0  0  0
   34.6060   28.1650   35.6730 C   0  0  0  0  0  0  0  0  0  0  0  0
   34.6050   28.0020   37.0510 C   0  0  0  0  0  0  0  0  0  0  0  0
   33.5700   28.5700   37.6750 N   0  0  0  0  0  0  0  0  0  0  0  0
   32.5980   29.2470   37.0520 C   0  0  0  0  0  0  0  0  0  0  0  0
   32.6100   29.3960   35.7280 N   0  0  0  0  0  0  0  0  0  0  0  0
   33.6360   28.9750   33.9340 H   0  0  0  0  0  0  0  0  0  0  0  0
   35.4040   27.7400   35.0870 H   0  0  0  0  0  0  0  0  0  0  0  0
   31.8660   29.6150   37.7760 H   0  0  0  0  0  0  0  0  0  0  0  0
   36.1770   29.7650   40.5890 S   0  0  0  0  0  0  0  0  0  0  0  0
   36.0810   31.0660   41.4570 O   0  0  0  0  0  0  0  0  0  0  0  0
   34.7450   29.3530   40.4170 O   0  0  0  0  0  0  0  0  0  0  0  0
   38.3410   29.0510   42.1910 C   0  0  0  0  0  0  0  0  0  0  0  0
   37.0170   28.8140   41.7450 C   0  0  0  0  0  0  0  0  0  0  0  0
   36.5060   27.6970   42.3920 C   0  0  0  0  0  0  0  0  0  0  0  0
   35.4920   27.3950   42.1730 H   0  0  0  0  0  0  0  0  0  0  0  0
   37.1270   26.8970   43.3250 C   0  0  0  0  0  0  0  0  0  0  0  0
   36.6400   26.0430   43.7740 H   0  0  0  0  0  0  0  0  0  0  0  0
   38.4150   27.2560   43.6550 C   0  0  0  0  0  3  0  0  0  0  0  0
   39.0730   28.3350   43.1110 C   0  0  0  0  0  3  0  0  0  0  0  0
   39.5430   31.1820   41.2040 N   0  0  0  0  0  0  0  0  0  0  0  0
   39.0100   30.2310   41.6480 C   0  0  0  0  0  0  0  0  0  0  0  0
  1 30  1  0  0  0  0
  2 14  1  0  0  0  0
  2  1  2  0  0  0  0
  3  2  1  0  0  0  0
  4  3  2  0  0  0  0
  4  5  1  0  0  0  0
  5  6  2  0  0  0  0
  6  1  1  0  0  0  0
  6 10  1  0  0  0  0
  7  3  1  0  0  0  0
  8  4  1  0  0  0  0
  9  5  1  0  0  0  0
 11 12  1  0  0  0  0
 12 17  1  0  0  0  0
 13 12  2  0  0  0  0
 13 14  1  0  0  0  0
 14 15  2  0  0  0  0
 15 16  1  0  0  0  0
 15 18  1  0  0  0  0
 16 19  1  0  0  0  0
 17 20  1  0  0  0  0
 17 16  2  0  0  0  0
 21 22  2  0  0  0  0
 21 26  1  0  0  0  0
 22 23  1  0  0  0  0
 23 24  2  0  0  0  0
 23 13  1  0  0  0  0
 25 24  1  0  0  0  0
 25 29  1  0  0  0  0
 26 25  2  0  0  0  0
 27 21  1  0  0  0  0
 28 22  1  0  0  0  0
 30 31  2  0  0  0  0
 30 34  1  0  0  0  0
 32 30  2  0  0  0  0
 33 40  1  0  0  0  0
 34 33  2  0  0  0  0
 34 35  1  0  0  0  0
 35 37  2  0  0  0  0
 36 35  1  0  0  0  0
 37 39  1  0  0  0  0
 37 38  1  0  0  0  0
 40 39  2  0  0  0  0
 41 42  3  0  0  0  0
 42 33  1  0  0  0  0
M  END
>  <minimizedAffinity>
-5.91664267

$$$$

 OpenBabel03252509103D

 42 45  0  0  0  0  0  0  0  0999 V2000
   39.0260   30.8470   41.3670 C   0  0  0  0  0  0  0  0  0  0  0  0
   39.3860   29.7070   42.0220 C   0  0  0  0  0  0  0  0  0  0  0  0
   40.6760   29.5740   42.5050 C   0  0  0  0  0  0  0  0  0  0  0  0
   41.5990   30.5690   42.3350 C   0  0  0  0  0  0  0  0  0  0  0  0
   41.2780   31.7460   41.6740 C   0  0  0  0  0  0  0  0  0  0  0  0
   39.9720   31.8650   41.1940 C   0  0  0  0  0  0  0  0  0  0  0  0
   40.9810   28.6780   43.0290 H   0  0  0  0  0  0  0  0  0  0  0  0
   42.6030   30.5240   42.6840 H   0  0  0  0  0  0  0  0  0  0  0  0
   41.9280   32.5660   41.4980 H   0  0  0  0  0  0  0  0  0  0  0  0
   39.6860   32.7680   40.6740 H   0  0  0  0  0  0  0  0  0  0  0  0
   37.7270   24.9760   40.7820 Cl  0  0  0  0  0  0  0  0  0  0  0  0
   37.6960   26.4500   41.7200 C   0  0  0  0  0  0  0  0  0  0  0  0
   38.5680   27.4590   41.4690 C   0  0  0  0  0  0  0  0  0  0  0  0
   38.4830   28.5860   42.2690 C   0  0  0  0  0  0  0  0  0  0  0  0
   37.5660   28.6790   43.2670 C   0  0  0  0  0  0  0  0  0  0  0  0
   36.6930   27.6750   43.5210 C   0  0  0  0  0  0  0  0  0  0  0  0
   36.7670   26.5480   42.7300 C   0  0  0  0  0  0  0  0  0  0  0  0
   37.5400   29.5860   43.8730 H   0  0  0  0  0  0  0  0  0  0  0  0
   35.9710   27.7750   44.3240 H   0  0  0  0  0  0  0  0  0  0  0  0
   36.0590   25.7500   42.9440 H   0  0  0  0  0  0  0  0  0  0  0  0
   40.2530   27.5620   38.0780 C   0  0  0  0  0  0  0  0  0  0  0  0
   39.3050   27.7130   39.0930 C   0  0  0  0  0  0  0  0  0  0  0  0
   39.5510   27.3060   40.3970 C   0  0  0  0  0  0  0  0  0  0  0  0
   40.7570   26.7650   40.5890 N   0  0  0  0  0  0  0  0  0  0  0  0
   41.6740   26.6150   39.6260 C   0  0  0  0  0  0  0  0  0  0  0  0
   41.4250   27.0110   38.3790 N   0  0  0  0  0  0  0  0  0  0  0  0
   40.0210   27.8920   37.0750 H   0  0  0  0  0  0  0  0  0  0  0  0
   38.3560   28.1610   38.8450 H   0  0  0  0  0  0  0  0  0  0  0  0
   42.5760   26.1490   40.0300 H   0  0  0  0  0  0  0  0  0  0  0  0
   37.4900   31.0460   40.6880 S   0  0  0  0  0  0  0  0  0  0  0  0
   36.4390   30.7010   41.7960 O   0  0  0  0  0  0  0  0  0  0  0  0
   37.2790   32.5120   40.4500 O   0  0  0  0  0  0  0  0  0  0  0  0
   37.1660   30.1080   38.0850 C   0  0  0  0  0  0  0  0  0  0  0  0
   36.8140   30.0600   39.4560 C   0  0  0  0  0  0  0  0  0  0  0  0
   35.8410   29.0880   39.6480 C   0  0  0  0  0  0  0  0  0  0  0  0
   35.4770   28.9150   40.6500 H   0  0  0  0  0  0  0  0  0  0  0  0
   35.2610   28.2690   38.7050 C   0  0  0  0  0  0  0  0  0  0  0  0
   34.5060   27.5380   38.9560 H   0  0  0  0  0  0  0  0  0  0  0  0
   35.7090   28.4370   37.4130 C   0  0  0  0  0  3  0  0  0  0  0  0
   36.6690   29.3520   37.0480 C   0  0  0  0  0  3  0  0  0  0  0  0
   39.0740   31.8060   37.4210 N   0  0  0  0  0  0  0  0  0  0  0  0
   38.2260   31.0450   37.7170 C   0  0  0  0  0  0  0  0  0  0  0  0
  1  2  1  0  0  0  0
  2 14  1  0  0  0  0
  2  3  2  0  0  0  0
  3  7  1  0  0  0  0
  4  3  1  0  0  0  0
  4  8  1  0  0  0  0
  5  4  2  0  0  0  0
  6  1  2  0  0  0  0
  6  5  1  0  0  0  0
  9  5  1  0  0  0  0
 10  6  1  0  0  0  0
 11 12  1  0  0  0  0
 12 17  1  0  0  0  0
 13 12  2  0  0  0  0
 13 14  1  0  0  0  0
 14 15  2  0  0  0  0
 15 16  1  0  0  0  0
 15 18  1  0  0  0  0
 16 19  1  0  0  0  0
 17 20  1  0  0  0  0
 17 16  2  0  0  0  0
 21 26  2  0  0  0  0
 21 22  1  0  0  0  0
 22 23  2  0  0  0  0
 23 24  1  0  0  0  0
 23 13  1  0  0  0  0
 25 29  1  0  0  0  0
 25 24  2  0  0  0  0
 26 25  1  0  0  0  0
 27 21  1  0  0  0  0
 28 22  1  0  0  0  0
 30  1  1  0  0  0  0
 30 31  2  0  0  0  0
 32 30  2  0  0  0  0
 33 34  1  0  0  0  0
 34 35  2  0  0  0  0
 34 30  1  0  0  0  0
 35 36  1  0  0  0  0
 37 38  1  0  0  0  0
 37 35  1  0  0  0  0
 39 37  2  0  0  0  0
 40 39  1  0  0  0  0
 40 33  2  0  0  0  0
 41 42  3  0  0  0  0
 42 33  1  0  0  0  0
M  END
>  <minimizedAffinity>
-5.82541943

$$$$

 OpenBabel03252509103D

 42 45  0  0  0  0  0  0  0  0999 V2000
   36.6630   29.4440   39.4750 C   0  0  0  0  0  0  0  0  0  0  0  0
   36.7110   28.1770   39.9760 C   0  0  0  0  0  0  0  0  0  0  0  0
   36.1940   27.1290   39.2340 C   0  0  0  0  0  0  0  0  0  0  0  0
   35.6320   27.3440   38.0060 C   0  0  0  0  0  0  0  0  0  0  0  0
   35.5610   28.6170   37.4570 C   0  0  0  0  0  0  0  0  0  0  0  0
   36.0880   29.6630   38.2170 C   0  0  0  0  0  0  0  0  0  0  0  0
   36.2230   26.1160   39.6120 H   0  0  0  0  0  0  0  0  0  0  0  0
   35.2200   26.5800   37.3910 H   0  0  0  0  0  0  0  0  0  0  0  0
   35.1460   28.8740   36.5150 H   0  0  0  0  0  0  0  0  0  0  0  0
   36.0510   30.6670   37.8210 H   0  0  0  0  0  0  0  0  0  0  0  0
   40.6430   26.2420   42.7080 Cl  0  0  0  0  0  0  0  0  0  0  0  0
   39.0510   26.9420   42.5350 C   0  0  0  0  0  0  0  0  0  0  0  0
   38.5580   27.2680   41.3140 C   0  0  0  0  0  0  0  0  0  0  0  0
   37.2930   27.8300   41.2690 C   0  0  0  0  0  0  0  0  0  0  0  0
   36.5740   28.0490   42.4010 C   0  0  0  0  0  0  0  0  0  0  0  0
   37.0620   27.7240   43.6220 C   0  0  0  0  0  0  0  0  0  0  0  0
   38.3200   27.1620   43.6800 C   0  0  0  0  0  0  0  0  0  0  0  0
   35.5830   28.4970   42.3150 H   0  0  0  0  0  0  0  0  0  0  0  0
   36.4670   27.9090   44.5100 H   0  0  0  0  0  0  0  0  0  0  0  0
   38.6990   26.9050   44.6670 H   0  0  0  0  0  0  0  0  0  0  0  0
   41.0020   27.7560   38.4610 C   0  0  0  0  0  0  0  0  0  0  0  0
   40.2240   27.9950   39.5980 C   0  0  0  0  0  0  0  0  0  0  0  0
   39.3760   27.0320   40.1250 C   0  0  0  0  0  0  0  0  0  0  0  0
   39.3700   25.8750   39.4580 N   0  0  0  0  0  0  0  0  0  0  0  0
   40.1090   25.6330   38.3680 C   0  0  0  0  0  0  0  0  0  0  0  0
   40.9200   26.5660   37.8730 N   0  0  0  0  0  0  0  0  0  0  0  0
   41.6500   28.5340   38.0820 H   0  0  0  0  0  0  0  0  0  0  0  0
   40.2940   28.9610   40.0720 H   0  0  0  0  0  0  0  0  0  0  0  0
   39.9300   24.6180   38.0050 H   0  0  0  0  0  0  0  0  0  0  0  0
   37.2090   30.7790   40.3580 S   0  0  0  0  0  0  0  0  0  0  0  0
   37.1130   32.0320   39.4210 O   0  0  0  0  0  0  0  0  0  0  0  0
   36.1990   31.0660   41.4300 O   0  0  0  0  0  0  0  0  0  0  0  0
   39.9130   31.3580   40.0200 C   0  0  0  0  0  0  0  0  0  0  0  0
   38.8270   31.0360   40.8710 C   0  0  0  0  0  0  0  0  0  0  0  0
   39.2750   30.9660   42.1830 C   0  0  0  0  0  0  0  0  0  0  0  0
   38.5580   30.7460   42.9600 H   0  0  0  0  0  0  0  0  0  0  0  0
   40.5540   31.1610   42.6550 C   0  0  0  0  0  0  0  0  0  0  0  0
   40.8040   31.0830   43.7040 H   0  0  0  0  0  0  0  0  0  0  0  0
   41.5010   31.4670   41.7030 C   0  0  0  0  0  3  0  0  0  0  0  0
   41.2280   31.5780   40.3590 C   0  0  0  0  0  3  0  0  0  0  0  0
   39.3570   31.6710   37.4590 N   0  0  0  0  0  0  0  0  0  0  0  0
   39.6010   31.5290   38.6020 C   0  0  0  0  0  0  0  0  0  0  0  0
  1  2  1  0  0  0  0
  1 30  1  0  0  0  0
  2 14  1  0  0  0  0
  3  7  1  0  0  0  0
  3  2  2  0  0  0  0
  4  3  1  0  0  0  0
  5  4  2  0  0  0  0
  5  6  1  0  0  0  0
  6  1  2  0  0  0  0
  8  4  1  0  0  0  0
  9  5  1  0  0  0  0
 10  6  1  0  0  0  0
 12 11  1  0  0  0  0
 12 17  1  0  0  0  0
 13 12  2  0  0  0  0
 14 13  1  0  0  0  0
 14 15  2  0  0  0  0
 15 16  1  0  0  0  0
 16 17  2  0  0  0  0
 16 19  1  0  0  0  0
 17 20  1  0  0  0  0
 18 15  1  0  0  0  0
 21 22  1  0  0  0  0
 22 28  1  0  0  0  0
 22 23  2  0  0  0  0
 23 13  1  0  0  0  0
 24 23  1  0  0  0  0
 25 24  2  0  0  0  0
 26 25  1  0  0  0  0
 26 21  2  0  0  0  0
 27 21  1  0  0  0  0
 29 25  1  0  0  0  0
 30 34  1  0  0  0  0
 30 32  2  0  0  0  0
 31 30  2  0  0  0  0
 33 40  2  0  0  0  0
 33 34  1  0  0  0  0
 34 35  2  0  0  0  0
 35 37  1  0  0  0  0
 35 36  1  0  0  0  0
 37 38  1  0  0  0  0
 39 37  2  0  0  0  0
 40 39  1  0  0  0  0
 41 42  3  0  0  0  0
 42 33  1  0  0  0  0
M  END
>  <minimizedAffinity>
-5.76130342

$$$$

 OpenBabel03252509103D

 42 45  0  0  0  0  0  0  0  0999 V2000
   37.6480   29.5660   39.2810 C   0  0  0  0  0  0  0  0  0  0  0  0
   36.8990   28.7150   40.0380 C   0  0  0  0  0  0  0  0  0  0  0  0
   35.6390   28.3430   39.6020 C   0  0  0  0  0  0  0  0  0  0  0  0
   35.1320   28.8170   38.4240 C   0  0  0  0  0  0  0  0  0  0  0  0
   35.8590   29.6850   37.6220 C   0  0  0  0  0  0  0  0  0  0  0  0
   37.1280   30.0490   38.0740 C   0  0  0  0  0  0  0  0  0  0  0  0
   35.0280   27.6680   40.1870 H   0  0  0  0  0  0  0  0  0  0  0  0
   34.1710   28.5660   38.0380 H   0  0  0  0  0  0  0  0  0  0  0  0
   35.5450   30.0990   36.6960 H   0  0  0  0  0  0  0  0  0  0  0  0
   37.7230   30.7240   37.4760 H   0  0  0  0  0  0  0  0  0  0  0  0
   38.8280   24.7190   42.6790 Cl  0  0  0  0  0  0  0  0  0  0  0  0
   38.1980   26.3420   42.5340 C   0  0  0  0  0  0  0  0  0  0  0  0
   37.8170   26.8410   41.3320 C   0  0  0  0  0  0  0  0  0  0  0  0
   37.3410   28.1410   41.3060 C   0  0  0  0  0  0  0  0  0  0  0  0
   37.2600   28.8890   42.4370 C   0  0  0  0  0  0  0  0  0  0  0  0
   37.6370   28.3950   43.6400 C   0  0  0  0  0  0  0  0  0  0  0  0
   38.1120   27.1010   43.6800 C   0  0  0  0  0  0  0  0  0  0  0  0
   36.8810   29.9100   42.3660 H   0  0  0  0  0  0  0  0  0  0  0  0
   37.5620   29.0130   44.5280 H   0  0  0  0  0  0  0  0  0  0  0  0
   38.4100   26.7160   44.6530 H   0  0  0  0  0  0  0  0  0  0  0  0
   37.0730   24.3430   38.5840 C   0  0  0  0  0  0  0  0  0  0  0  0
   36.9420   25.1350   39.7280 C   0  0  0  0  0  0  0  0  0  0  0  0
   37.9410   26.0060   40.1380 C   0  0  0  0  0  0  0  0  0  0  0  0
   39.0210   26.0190   39.3520 N   0  0  0  0  0  0  0  0  0  0  0  0
   39.1590   25.2660   38.2540 C   0  0  0  0  0  0  0  0  0  0  0  0
   38.1920   24.4330   37.8720 N   0  0  0  0  0  0  0  0  0  0  0  0
   36.2700   23.6760   38.3000 H   0  0  0  0  0  0  0  0  0  0  0  0
   36.0330   25.0590   40.3030 H   0  0  0  0  0  0  0  0  0  0  0  0
   40.1280   25.4530   37.7840 H   0  0  0  0  0  0  0  0  0  0  0  0
   39.1640   30.1190   39.7880 S   0  0  0  0  0  0  0  0  0  0  0  0
   38.9300   31.0870   40.9970 O   0  0  0  0  0  0  0  0  0  0  0  0
   39.8940   28.9610   40.4030 O   0  0  0  0  0  0  0  0  0  0  0  0
   40.9640   30.7810   37.7680 C   0  0  0  0  0  0  0  0  0  0  0  0
   40.1910   31.1630   38.8910 C   0  0  0  0  0  0  0  0  0  0  0  0
   40.3890   32.5120   39.1510 C   0  0  0  0  0  0  0  0  0  0  0  0
   39.8510   32.9630   39.9720 H   0  0  0  0  0  0  0  0  0  0  0  0
   41.1950   33.3980   38.4710 C   0  0  0  0  0  0  0  0  0  0  0  0
   41.2830   34.4380   38.7530 H   0  0  0  0  0  0  0  0  0  0  0  0
   41.8860   32.8750   37.4010 C   0  0  0  0  0  3  0  0  0  0  0  0
   41.8040   31.5600   37.0050 C   0  0  0  0  0  3  0  0  0  0  0  0
   40.7110   28.2790   36.9710 N   0  0  0  0  0  0  0  0  0  0  0  0
   40.8270   29.3960   37.3220 C   0  0  0  0  0  0  0  0  0  0  0  0
  1 30  1  0  0  0  0
  1  2  1  0  0  0  0
  2 14  1  0  0  0  0
  3  2  2  0  0  0  0
  3  7  1  0  0  0  0
  4  3  1  0  0  0  0
  5  6  1  0  0  0  0
  5  4  2  0  0  0  0
  6  1  2  0  0  0  0
  8  4  1  0  0  0  0
  9  5  1  0  0  0  0
 10  6  1  0  0  0  0
 12 11  1  0  0  0  0
 12 17  1  0  0  0  0
 13 12  2  0  0  0  0
 14 13  1  0  0  0  0
 14 15  2  0  0  0  0
 15 16  1  0  0  0  0
 16 17  2  0  0  0  0
 16 19  1  0  0  0  0
 17 20  1  0  0  0  0
 18 15  1  0  0  0  0
 21 22  1  0  0  0  0
 22 23  2  0  0  0  0
 22 28  1  0  0  0  0
 23 13  1  0  0  0  0
 24 23  1  0  0  0  0
 25 24  2  0  0  0  0
 26 25  1  0  0  0  0
 26 21  2  0  0  0  0
 27 21  1  0  0  0  0
 29 25  1  0  0  0  0
 30 32  2  0  0  0  0
 30 31  2  0  0  0  0
 33 34  1  0  0  0  0
 34 35  2  0  0  0  0
 34 30  1  0  0  0  0
 35 36  1  0  0  0  0
 37 38  1  0  0  0  0
 37 35  1  0  0  0  0
 39 37  2  0  0  0  0
 40 39  1  0  0  0  0
 40 33  2  0  0  0  0
 41 42  3  0  0  0  0
 42 33  1  0  0  0  0
M  END
>  <minimizedAffinity>
-5.75705767

$$$$

 OpenBabel03252509103D

 42 45  0  0  0  0  0  0  0  0999 V2000
   37.9500   25.8320   40.0120 C   0  0  0  0  0  0  0  0  0  0  0  0
   37.4220   26.4980   41.0770 C   0  0  0  0  0  0  0  0  0  0  0  0
   36.9390   25.7830   42.1590 C   0  0  0  0  0  0  0  0  0  0  0  0
   36.9800   24.4160   42.1770 C   0  0  0  0  0  0  0  0  0  0  0  0
   37.5090   23.6960   41.1150 C   0  0  0  0  0  0  0  0  0  0  0  0
   37.9930   24.4320   40.0320 C   0  0  0  0  0  0  0  0  0  0  0  0
   36.5170   26.2920   43.0150 H   0  0  0  0  0  0  0  0  0  0  0  0
   36.6250   23.8130   42.9790 H   0  0  0  0  0  0  0  0  0  0  0  0
   37.5810   22.6390   41.0450 H   0  0  0  0  0  0  0  0  0  0  0  0
   38.4120   23.9050   39.1870 H   0  0  0  0  0  0  0  0  0  0  0  0
   39.5670   31.0080   42.3930 Cl  0  0  0  0  0  0  0  0  0  0  0  0
   38.2720   30.0120   41.7740 C   0  0  0  0  0  0  0  0  0  0  0  0
   38.4050   28.6640   41.6860 C   0  0  0  0  0  0  0  0  0  0  0  0
   37.3340   27.9530   41.1710 C   0  0  0  0  0  0  0  0  0  0  0  0
   36.1970   28.5760   40.7680 C   0  0  0  0  0  0  0  0  0  0  0  0
   36.0580   29.9210   40.8550 C   0  0  0  0  0  0  0  0  0  0  0  0
   37.1170   30.6410   41.3670 C   0  0  0  0  0  0  0  0  0  0  0  0
   35.3810   27.9730   40.3660 H   0  0  0  0  0  0  0  0  0  0  0  0
   35.1390   30.3940   40.5260 H   0  0  0  0  0  0  0  0  0  0  0  0
   36.9920   31.7200   41.4330 H   0  0  0  0  0  0  0  0  0  0  0  0
   40.9610   26.7040   43.6800 C   0  0  0  0  0  0  0  0  0  0  0  0
   39.7590   27.2980   43.2830 C   0  0  0  0  0  0  0  0  0  0  0  0
   39.6550   28.0390   42.1140 C   0  0  0  0  0  0  0  0  0  0  0  0
   40.7890   28.1300   41.4140 N   0  0  0  0  0  0  0  0  0  0  0  0
   41.9460   27.5670   41.7830 C   0  0  0  0  0  0  0  0  0  0  0  0
   42.0320   26.8580   42.9070 N   0  0  0  0  0  0  0  0  0  0  0  0
   40.9990   26.1360   44.5990 H   0  0  0  0  0  0  0  0  0  0  0  0
   38.8930   27.1710   43.9110 H   0  0  0  0  0  0  0  0  0  0  0  0
   42.7260   27.7840   41.0490 H   0  0  0  0  0  0  0  0  0  0  0  0
   38.4910   26.6380   38.6280 S   0  0  0  0  0  0  0  0  0  0  0  0
   39.9820   27.0500   38.8770 O   0  0  0  0  0  0  0  0  0  0  0  0
   38.5870   25.6330   37.5180 O   0  0  0  0  0  0  0  0  0  0  0  0
   36.6730   28.4430   37.5340 C   0  0  0  0  0  0  0  0  0  0  0  0
   37.9450   28.1770   38.0970 C   0  0  0  0  0  0  0  0  0  0  0  0
   38.6780   29.3550   38.1570 C   0  0  0  0  0  0  0  0  0  0  0  0
   39.6700   29.3220   38.5830 H   0  0  0  0  0  0  0  0  0  0  0  0
   38.2970   30.6140   37.7500 C   0  0  0  0  0  0  0  0  0  0  0  0
   38.9440   31.4740   37.8390 H   0  0  0  0  0  0  0  0  0  0  0  0
   37.0280   30.7110   37.2210 C   0  0  0  0  0  3  0  0  0  0  0  0
   36.1700   29.6440   37.0890 C   0  0  0  0  0  3  0  0  0  0  0  0
   35.0110   26.3990   37.3790 N   0  0  0  0  0  0  0  0  0  0  0  0
   35.7490   27.3140   37.4500 C   0  0  0  0  0  0  0  0  0  0  0  0
  1  6  2  0  0  0  0
  1  2  1  0  0  0  0
  2 14  1  0  0  0  0
  2  3  2  0  0  0  0
  3  4  1  0  0  0  0
  3  7  1  0  0  0  0
  4  8  1  0  0  0  0
  5  4  2  0  0  0  0
  6  5  1  0  0  0  0
  9  5  1  0  0  0  0
 10  6  1  0  0  0  0
 12 11  1  0  0  0  0
 13 12  1  0  0  0  0
 13 23  1  0  0  0  0
 14 13  2  0  0  0  0
 15 16  2  0  0  0  0
 15 14  1  0  0  0  0
 16 17  1  0  0  0  0
 17 20  1  0  0  0  0
 17 12  2  0  0  0  0
 18 15  1  0  0  0  0
 19 16  1  0  0  0  0
 21 27  1  0  0  0  0
 22 21  1  0  0  0  0
 22 28  1  0  0  0  0
 23 22  2  0  0  0  0
 24 25  2  0  0  0  0
 24 23  1  0  0  0  0
 25 26  1  0  0  0  0
 26 21  2  0  0  0  0
 29 25  1  0  0  0  0
 30 31  2  0  0  0  0
 30  1  1  0  0  0  0
 32 30  2  0  0  0  0
 33 34  1  0  0  0  0
 34 35  2  0  0  0  0
 34 30  1  0  0  0  0
 35 36  1  0  0  0  0
 37 38  1  0  0  0  0
 37 35  1  0  0  0  0
 39 37  2  0  0  0  0
 40 39  1  0  0  0  0
 40 33  2  0  0  0  0
 41 42  3  0  0  0  0
 42 33  1  0  0  0  0
M  END
>  <minimizedAffinity>
-5.70307493

$$$$
