
 OpenBabel03242513413D

 41 44  0  0  0  0  0  0  0  0999 V2000
   47.7080   30.9840   45.9850 C   0  0  0  0  0  0  0  0  0  0  0  0
   46.9730   32.0350   45.4750 C   0  0  0  0  0  0  0  0  0  0  0  0
   45.9410   32.5190   46.2260 C   0  0  0  0  0  0  0  0  0  0  0  0
   45.6090   31.9990   47.4670 C   0  0  0  0  0  0  0  0  0  0  0  0
   44.6880   32.2310   48.4310 N   0  0  0  0  0  0  0  0  0  0  0  0
   44.8520   31.3790   49.4590 C   0  0  0  0  0  0  0  0  0  0  0  0
   45.8960   30.6030   49.1260 N   0  0  0  0  0  0  0  0  0  0  0  0
   46.3720   30.9620   47.9170 C   0  0  0  0  0  0  0  0  0  0  0  0
   47.4130   30.4310   47.2250 C   0  0  0  0  0  0  0  0  0  0  0  0
   48.5330   30.5720   45.4250 H   0  0  0  0  0  0  0  0  0  0  0  0
   45.3270   33.3480   45.8700 H   0  0  0  0  0  0  0  0  0  0  0  0
   43.9650   32.9980   48.3240 H   0  0  0  0  0  0  0  0  0  0  0  0
   44.2590   31.3550   50.3390 H   0  0  0  0  0  0  0  0  0  0  0  0
   47.2750   34.3830   42.6820 C   0  0  0  0  0  0  0  0  0  0  0  0
   47.9240   33.6360   41.7100 C   0  0  0  0  0  0  0  0  0  0  0  0
   48.2490   32.3160   42.0460 C   0  0  0  0  0  0  0  0  0  0  0  0
   47.9310   31.8220   43.2670 N   0  0  0  0  0  0  0  0  0  0  0  0
   47.2970   32.6050   44.1710 C   0  0  0  0  0  0  0  0  0  0  0  0
   46.9680   33.8640   43.9000 N   0  0  0  0  0  0  0  0  0  0  0  0
   46.9840   35.4200   42.5080 H   0  0  0  0  0  0  0  0  0  0  0  0
   48.7550   31.7230   41.2940 H   0  0  0  0  0  0  0  0  0  0  0  0
   48.2280   34.2660   40.4030 C   0  0  0  0  0  0  0  0  0  0  0  0
   48.7800   35.4930   40.7260 F   0  0  0  0  0  0  0  0  0  0  0  0
   47.0460   34.4610   39.7380 F   0  0  0  0  0  0  0  0  0  0  0  0
   49.0890   33.4340   39.7050 F   0  0  0  0  0  0  0  0  0  0  0  0
   48.1480   29.3790   47.7370 O   0  0  0  0  0  0  0  0  0  0  0  0
   49.7310   28.1250   49.3660 O   0  0  0  0  0  0  0  0  0  0  0  0
   49.4140   29.5190   48.8490 P   0  0  2  0  0  0  0  0  0  0  0  0
   48.8240   30.4100   50.1820 O   0  0  0  0  0  0  0  0  0  0  0  0
   49.5240   30.3810   50.8990 H   0  0  0  0  0  0  0  0  0  0  0  0
   50.7840   30.2330   48.2330 O   0  0  0  0  0  0  0  0  0  0  0  0
   52.9540   29.2840   48.0040 C   0  0  0  0  0  0  0  0  0  0  0  0
   51.6950   29.5590   47.4550 C   0  0  0  0  0  0  0  0  0  0  0  0
   51.4920   29.1160   46.1650 C   0  0  0  0  0  0  0  0  0  0  0  0
   50.5480   29.3080   45.7200 H   0  0  0  0  0  0  0  0  0  0  0  0
   52.4260   28.4440   45.4180 C   0  0  0  0  0  0  0  0  0  0  0  0
   52.1960   28.1200   44.3960 H   0  0  0  0  0  0  0  0  0  0  0  0
   53.6640   28.1930   46.0040 C   0  0  0  0  0  3  0  0  0  0  0  0
   53.9230   28.6130   47.2910 C   0  0  0  0  0  3  0  0  0  0  0  0
   53.6120   30.0150   50.4100 N   0  0  0  0  0  0  0  0  0  0  0  0
   53.3230   29.6800   49.3380 C   0  0  0  0  0  0  0  0  0  0  0  0
  1  9  1  0  0  0  0
  2  1  2  0  0  0  0
  2  3  1  0  0  0  0
  3  4  2  0  0  0  0
  4  8  1  0  0  0  0
  4  5  1  0  0  0  0
  5  6  1  0  0  0  0
  6 13  1  0  0  0  0
  7  6  2  0  0  0  0
  8  7  1  0  0  0  0
  9 26  1  0  0  0  0
  9  8  2  0  0  0  0
 10  1  1  0  0  0  0
 11  3  1  0  0  0  0
 12  5  1  0  0  0  0
 14 19  1  0  0  0  0
 15 16  1  0  0  0  0
 15 14  2  0  0  0  0
 16 17  2  0  0  0  0
 17 18  1  0  0  0  0
 18  2  1  0  0  0  0
 19 18  2  0  0  0  0
 20 14  1  0  0  0  0
 21 16  1  0  0  0  0
 22 23  1  0  0  0  0
 22 15  1  0  0  0  0
 24 22  1  0  0  0  0
 25 22  1  0  0  0  0
 26 28  1  0  0  0  0
 28 27  2  1  0  0  0
 28 29  1  0  0  0  0
 29 30  1  0  0  0  0
 31 28  1  0  0  0  0
 32 41  1  0  0  0  0
 33 32  1  0  0  0  0
 33 31  1  0  0  0  0
 34 33  2  0  0  0  0
 35 34  1  0  0  0  0
 36 38  2  0  0  0  0
 36 34  1  0  0  0  0
 37 36  1  0  0  0  0
 38 39  1  0  0  0  0
 39 32  2  0  0  0  0
 41 40  3  0  0  0  0
M  END
>  <minimizedAffinity>
-5.5229373

>  <minimizedRMSD>
0.993392646

$$$$
