
 OpenBabel03252509243D

 28 30  0  0  1  0  0  0  0  0999 V2000
   46.9110   34.7850   41.9440 C   0  0  1  0  0  0  0  0  0  0  0  0
   48.3040   35.4570   42.0250 C   0  0  0  0  0  0  0  0  0  0  0  0
   48.0350   33.9770   41.6460 C   0  0  2  0  0  0  0  0  0  0  0  0
   46.2450   35.2450   41.1960 H   0  0  0  0  0  0  0  0  0  0  0  0
   48.7590   35.6480   42.9910 H   0  0  0  0  0  0  0  0  0  0  0  0
   48.5050   36.1430   41.1830 H   0  0  0  0  0  0  0  0  0  0  0  0
   48.4510   33.2560   42.3790 H   0  0  0  0  0  0  0  0  0  0  0  0
   44.6880   35.3790   44.9140 C   0  0  0  0  0  0  0  0  0  0  0  0
   45.2780   35.5710   43.6380 C   0  0  0  0  0  0  0  0  0  0  0  0
   46.2880   34.7020   43.3240 C   0  0  0  0  0  0  0  0  0  0  0  0
   46.6990   33.7140   44.1980 N   0  0  0  0  0  0  0  0  0  0  0  0
   46.1130   33.5680   45.4000 C   0  0  0  0  0  0  0  0  0  0  0  0
   45.1040   34.4020   45.7620 N   0  0  0  0  0  0  0  0  0  0  0  0
   43.8860   36.0640   45.1680 H   0  0  0  0  0  0  0  0  0  0  0  0
   46.4050   32.8090   46.1100 H   0  0  0  0  0  0  0  0  0  0  0  0
   44.8730   36.6090   42.7480 N   0  0  0  0  0  0  0  0  0  0  0  0
   44.1440   36.6260   42.0290 H   0  0  0  0  0  0  0  0  0  0  0  0
   45.5130   37.4010   42.9980 H   0  0  0  0  0  0  0  0  0  0  0  0
   49.0920   32.4310   39.9760 C   0  0  0  0  0  0  0  0  0  0  0  0
   48.3750   33.5800   40.2500 C   0  0  0  0  0  0  0  0  0  0  0  0
   47.9400   34.4160   39.2220 C   0  0  0  0  0  0  0  0  0  0  0  0
   47.3690   35.3350   39.3920 H   0  0  0  0  0  0  0  0  0  0  0  0
   48.2360   34.0830   37.9000 C   0  0  0  0  0  0  0  0  0  0  0  0
   47.9070   34.7210   37.0730 H   0  0  0  0  0  0  0  0  0  0  0  0
   48.9540   32.9290   37.6520 C   0  0  0  0  0  3  0  0  0  0  0  0
   49.3950   32.0850   38.6590 C   0  0  0  0  0  3  0  0  0  0  0  0
   49.8920   30.8940   41.9110 N   0  0  0  0  0  0  0  0  0  0  0  0
   49.5300   31.5850   41.0450 C   0  0  0  0  0  0  0  0  0  0  0  0
  1  4  1  6  0  0  0
  1  2  1  0  0  0  0
  1 10  1  0  0  0  0
  2  5  1  0  0  0  0
  3  1  1  0  0  0  0
  3  2  1  0  0  0  0
  3  7  1  1  0  0  0
  6  2  1  0  0  0  0
  8 14  1  0  0  0  0
  8 13  1  0  0  0  0
  9  8  2  0  0  0  0
 10  9  1  0  0  0  0
 10 11  2  0  0  0  0
 11 12  1  0  0  0  0
 12 13  2  0  0  0  0
 12 15  1  0  0  0  0
 16 18  1  0  0  0  0
 16  9  1  0  0  0  0
 17 16  1  0  0  0  0
 19 20  1  0  0  0  0
 19 28  1  0  0  0  0
 20  3  1  0  0  0  0
 21 22  1  0  0  0  0
 21 20  2  0  0  0  0
 23 21  1  0  0  0  0
 24 23  1  0  0  0  0
 25 23  2  0  0  0  0
 25 26  1  0  0  0  0
 26 19  2  0  0  0  0
 28 27  3  0  0  0  0
M  END
>  <minimizedAffinity>
-5.0342803

>  <minimizedRMSD>
0.955782175

$$$$
