
 OpenBabel03242520333D

 29 31  0  0  1  0  0  0  0  0999 V2000
   47.3870   31.8510   40.7480 C   0  0  0  0  0  0  0  0  0  0  0  0
   48.6730   32.4080   40.4490 C   0  0  0  0  0  0  0  0  0  0  0  0
   49.2670   33.2340   41.3860 C   0  0  0  0  0  0  0  0  0  0  0  0
   48.5950   33.4790   42.5480 N   0  0  0  0  0  0  0  0  0  0  0  0
   47.4020   32.9500   42.8020 C   0  0  0  0  0  0  0  0  0  0  0  0
   46.7980   32.1410   41.9120 N   0  0  0  0  0  0  0  0  0  0  0  0
   46.9680   31.2120   39.9820 H   0  0  0  0  0  0  0  0  0  0  0  0
   50.2360   33.6810   41.2150 H   0  0  0  0  0  0  0  0  0  0  0  0
   45.7430   34.2240   44.1070 C   0  0  0  0  0  0  0  0  0  0  0  0
   46.7150   33.2430   44.0710 C   0  0  0  0  0  0  0  0  0  0  0  0
   47.0310   32.5490   45.2230 C   0  0  0  0  0  0  0  0  0  0  0  0
   47.7860   31.7740   45.2340 H   0  0  0  0  0  0  0  0  0  0  0  0
   46.3920   32.8140   46.4270 C   0  0  0  0  0  0  0  0  0  0  0  0
   46.6410   32.2710   47.3190 H   0  0  0  0  0  0  0  0  0  0  0  0
   45.4240   33.7970   46.4440 C   0  0  0  0  0  3  0  0  0  0  0  0
   45.0870   34.5120   45.2940 C   0  0  0  0  0  3  0  0  0  0  0  0
   45.0790   35.5650   41.9700 N   0  0  0  0  0  0  0  0  0  0  0  0
   45.3830   34.9760   42.9200 C   0  0  0  0  0  0  0  0  0  0  0  0
   49.3460   32.1140   39.1430 C   0  0  1  0  0  0  0  0  0  0  0  0
   48.5860   31.6350   38.0090 C   0  0  0  0  0  0  0  0  0  0  0  0
   49.0470   33.0440   37.9710 C   0  0  1  0  0  0  0  0  0  0  0  0
   50.4250   31.9330   39.2470 H   0  0  0  0  0  0  0  0  0  0  0  0
   47.4890   31.4260   38.0480 H   0  0  0  0  0  0  0  0  0  0  0  0
   49.0740   30.8930   37.3090 H   0  0  0  0  0  0  0  0  0  0  0  0
   49.8580   33.2490   37.2250 H   0  0  0  0  0  0  0  0  0  0  0  0
   48.1050   34.1810   38.1300 C   0  0  0  0  0  0  0  0  0  0  0  0
   48.0420   34.9730   36.9960 F   0  0  0  0  0  0  0  0  0  0  0  0
   48.4260   34.9890   39.2090 F   0  0  0  0  0  0  0  0  0  0  0  0
   46.8430   33.6650   38.3280 F   0  0  0  0  0  0  0  0  0  0  0  0
  1  6  1  0  0  0  0
  2  1  2  0  0  0  0
  2  3  1  0  0  0  0
  3  4  2  0  0  0  0
  4  5  1  0  0  0  0
  5 10  1  0  0  0  0
  6  5  2  0  0  0  0
  7  1  1  0  0  0  0
  8  3  1  0  0  0  0
  9 16  1  0  0  0  0
 10  9  2  0  0  0  0
 10 11  1  0  0  0  0
 11 12  1  0  0  0  0
 11 13  2  0  0  0  0
 13 15  1  0  0  0  0
 13 14  1  0  0  0  0
 16 15  2  0  0  0  0
 17 18  3  0  0  0  0
 18  9  1  0  0  0  0
 19 22  1  1  0  0  0
 19  2  1  0  0  0  0
 20 23  1  0  0  0  0
 20 19  1  0  0  0  0
 21 25  1  6  0  0  0
 21 20  1  0  0  0  0
 21 26  1  0  0  0  0
 21 19  1  0  0  0  0
 24 20  1  0  0  0  0
 26 29  1  0  0  0  0
 26 28  1  0  0  0  0
 27 26  1  0  0  0  0
M  END
>  <minimizedAffinity>
-4.65700388

>  <minimizedRMSD>
3.88248801

$$$$
