
 OpenBabel03242514573D

 26 27  0  0  0  0  0  0  0  0999 V2000
   43.4710   34.4890   41.4040 C   0  0  0  0  0  0  0  0  0  0  0  0
   42.7880   33.8410   41.9930 H   0  0  0  0  0  0  0  0  0  0  0  0
   44.1520   33.8110   40.8210 H   0  0  0  0  0  0  0  0  0  0  0  0
   42.6370   35.2260   40.3930 C   0  0  0  0  0  0  0  0  0  0  0  0
   43.1350   35.1160   39.4050 H   0  0  0  0  0  0  0  0  0  0  0  0
   42.6440   36.3240   40.6140 H   0  0  0  0  0  0  0  0  0  0  0  0
   40.5110   34.9700   39.2410 C   0  0  0  0  0  0  0  0  0  0  0  0
   41.2630   34.6820   40.3610 C   0  0  0  0  0  0  0  0  0  0  0  0
   40.7070   33.9180   41.3640 C   0  0  0  0  0  0  0  0  0  0  0  0
   41.3170   33.7080   42.2300 H   0  0  0  0  0  0  0  0  0  0  0  0
   39.4020   33.4580   41.2230 C   0  0  0  0  0  0  0  0  0  0  0  0
   39.0480   32.8740   42.0430 H   0  0  0  0  0  0  0  0  0  0  0  0
   38.6820   33.7700   40.0810 C   0  0  0  0  0  0  0  0  0  0  0  0
   39.2060   34.5320   39.0560 C   0  0  0  0  0  0  0  0  0  0  0  0
   41.4560   36.4300   37.2900 N   0  0  0  0  0  0  0  0  0  0  0  0
   41.0420   35.7710   38.1620 C   0  0  0  0  0  0  0  0  0  0  0  0
   44.4150   35.4980   42.5140 S   0  0  0  0  0  0  0  0  0  0  0  0
   45.3350   34.5620   43.7360 C   0  0  0  0  0  0  0  0  0  0  0  0
   46.4620   33.8900   43.2410 C   0  0  0  0  0  0  0  0  0  0  0  0
   47.2290   33.1330   44.1480 C   0  0  0  0  0  0  0  0  0  0  0  0
   46.8360   33.0940   45.4580 N   0  0  0  0  0  0  0  0  0  0  0  0
   45.7460   33.7570   45.8840 C   0  0  0  0  0  0  0  0  0  0  0  0
   44.9900   34.4870   45.0530 N   0  0  0  0  0  0  0  0  0  0  0  0
   46.7510   33.9360   42.2020 H   0  0  0  0  0  0  0  0  0  0  0  0
   48.0910   32.6240   43.7580 H   0  0  0  0  0  0  0  0  0  0  0  0
   45.4510   33.7140   46.9250 H   0  0  0  0  0  0  0  0  0  0  0  0
  1  2  1  0  0  0  0
  1 17  1  0  0  0  0
  3  1  1  0  0  0  0
  4  6  1  0  0  0  0
  4  1  1  0  0  0  0
  5  4  1  0  0  0  0
  7  8  1  0  0  0  0
  8  4  1  0  0  0  0
  8  9  2  0  0  0  0
  9 10  1  0  0  0  0
 11  9  1  0  0  0  0
 11 12  1  0  0  0  0
 13 11  2  0  0  0  0
 14  7  2  0  0  0  0
 14 13  1  0  0  0  0
 15 16  3  0  0  0  0
 16  7  1  0  0  0  0
 17 18  1  0  0  0  0
 18 23  1  0  0  0  0
 19 18  2  0  0  0  0
 19 20  1  0  0  0  0
 20 21  2  0  0  0  0
 21 22  1  0  0  0  0
 22 26  1  0  0  0  0
 23 22  2  0  0  0  0
 24 19  1  0  0  0  0
 25 20  1  0  0  0  0
M  END
>  <minimizedAffinity>
-4.8790226

>  <minimizedRMSD>
1.86520541

$$$$
