
 OpenBabel03242520543D

 32 33  0  0  0  0  0  0  0  0999 V2000
   33.7380   27.8100   37.0640 C   0  0  0  0  0  0  0  0  0  0  0  0
   33.0120   27.0510   37.3750 H   0  0  0  0  0  0  0  0  0  0  0  0
   34.0860   27.4400   36.0480 H   0  0  0  0  0  0  0  0  0  0  0  0
   31.9230   29.0480   36.1640 C   0  0  0  0  0  0  0  0  0  0  0  0
   31.2150   28.0840   35.7880 O   0  0  0  0  0  0  0  0  0  0  0  0
   33.1850   29.1120   36.7950 N   0  0  0  0  0  0  0  0  0  0  0  0
   33.6460   30.0140   37.0300 H   0  0  0  0  0  0  0  0  0  0  0  0
   30.5130   31.1220   36.7290 C   0  0  0  0  0  0  0  0  0  0  0  0
   31.3060   30.3760   35.8860 C   0  0  0  0  0  0  0  0  0  0  0  0
   31.6390   30.8160   34.6070 C   0  0  0  0  0  0  0  0  0  0  0  0
   32.2580   30.2740   33.8940 H   0  0  0  0  0  0  0  0  0  0  0  0
   31.1670   32.0310   34.1600 C   0  0  0  0  0  0  0  0  0  0  0  0
   31.4090   32.4020   33.1560 H   0  0  0  0  0  0  0  0  0  0  0  0
   30.3720   32.7650   35.0220 C   0  0  0  0  0  3  0  0  0  0  0  0
   30.0340   32.3370   36.3010 C   0  0  0  0  0  3  0  0  0  0  0  0
   30.0550   30.0800   39.0460 N   0  0  0  0  0  0  0  0  0  0  0  0
   30.2560   30.5460   38.0080 C   0  0  0  0  0  0  0  0  0  0  0  0
   35.1020   28.8820   38.7480 C   0  0  0  0  0  3  0  0  0  0  0  0
   34.9470   27.9020   37.8900 C   0  0  0  0  0  3  0  0  0  0  0  0
   38.5930   29.2960   39.7820 C   0  0  0  0  0  0  0  0  0  0  0  0
   38.4960   29.2070   41.1760 C   0  0  0  0  0  0  0  0  0  0  0  0
   37.2500   29.0060   41.7560 C   0  0  0  0  0  0  0  0  0  0  0  0
   36.2110   28.9100   40.9170 N   0  0  0  0  0  0  0  0  0  0  0  0
   36.3070   28.9970   39.5820 C   0  0  0  0  0  0  0  0  0  0  0  0
   37.5080   29.1910   39.0080 N   0  0  0  0  0  0  0  0  0  0  0  0
   39.5890   29.4490   39.3790 H   0  0  0  0  0  0  0  0  0  0  0  0
   39.3190   29.2830   41.8760 H   0  0  0  0  0  0  0  0  0  0  0  0
   37.0090   28.9030   43.1030 O   0  0  0  0  0  0  0  0  0  0  0  0
   37.0810   27.5990   43.6740 C   0  0  0  0  0  0  0  0  0  0  0  0
   36.0600   27.4500   44.6170 F   0  0  0  0  0  0  0  0  0  0  0  0
   36.8880   26.6690   42.6510 F   0  0  0  0  0  0  0  0  0  0  0  0
   38.3260   27.3640   44.2360 F   0  0  0  0  0  0  0  0  0  0  0  0
  1  2  1  0  0  0  0
  1 19  1  0  0  0  0
  3  1  1  0  0  0  0
  4  6  1  0  0  0  0
  5  4  2  0  0  0  0
  6  7  1  0  0  0  0
  6  1  1  0  0  0  0
  8 17  1  0  0  0  0
  9  4  1  0  0  0  0
  9  8  2  0  0  0  0
 10  9  1  0  0  0  0
 11 10  1  0  0  0  0
 12 10  2  0  0  0  0
 12 14  1  0  0  0  0
 13 12  1  0  0  0  0
 14 15  2  0  0  0  0
 15  8  1  0  0  0  0
 17 16  3  0  0  0  0
 18 24  1  0  0  0  0
 19 18  2  0  0  0  0
 20 21  1  0  0  0  0
 21 22  2  0  0  0  0
 21 27  1  0  0  0  0
 22 28  1  0  0  0  0
 23 22  1  0  0  0  0
 24 23  2  0  0  0  0
 25 24  1  0  0  0  0
 25 20  2  0  0  0  0
 26 20  1  0  0  0  0
 28 29  1  0  0  0  0
 29 32  1  0  0  0  0
 29 30  1  0  0  0  0
 31 29  1  0  0  0  0
M  END
>  <minimizedAffinity>
-5.7209878

$$$$

 OpenBabel03242520543D

 32 33  0  0  0  0  0  0  0  0999 V2000
   38.2870   31.6490   38.8220 C   0  0  0  0  0  0  0  0  0  0  0  0
   37.9770   32.6090   39.2480 H   0  0  0  0  0  0  0  0  0  0  0  0
   39.3370   31.8570   38.4420 H   0  0  0  0  0  0  0  0  0  0  0  0
   37.4650   30.5810   40.7770 C   0  0  0  0  0  0  0  0  0  0  0  0
   36.4840   31.3310   40.9930 O   0  0  0  0  0  0  0  0  0  0  0  0
   38.4610   30.5830   39.7750 N   0  0  0  0  0  0  0  0  0  0  0  0
   39.2280   29.8820   39.7500 H   0  0  0  0  0  0  0  0  0  0  0  0
   38.6160   29.2920   42.6790 C   0  0  0  0  0  0  0  0  0  0  0  0
   37.5970   29.4810   41.7730 C   0  0  0  0  0  0  0  0  0  0  0  0
   36.5130   28.6090   41.6900 C   0  0  0  0  0  0  0  0  0  0  0  0
   35.6800   28.7020   40.9970 H   0  0  0  0  0  0  0  0  0  0  0  0
   36.4470   27.5220   42.5360 C   0  0  0  0  0  0  0  0  0  0  0  0
   35.6090   26.8160   42.4920 H   0  0  0  0  0  0  0  0  0  0  0  0
   37.4810   27.3510   43.4390 C   0  0  0  0  0  3  0  0  0  0  0  0
   38.5670   28.2140   43.5310 C   0  0  0  0  0  3  0  0  0  0  0  0
   40.5000   31.0550   42.6200 N   0  0  0  0  0  0  0  0  0  0  0  0
   39.6590   30.2630   42.6490 C   0  0  0  0  0  0  0  0  0  0  0  0
   37.2480   29.9300   37.4760 C   0  0  0  0  0  3  0  0  0  0  0  0
   37.5230   31.2010   37.6530 C   0  0  0  0  0  3  0  0  0  0  0  0
   34.7570   28.2160   35.4060 C   0  0  0  0  0  0  0  0  0  0  0  0
   35.1220   28.6220   34.1160 C   0  0  0  0  0  0  0  0  0  0  0  0
   36.2090   29.4710   33.9560 C   0  0  0  0  0  0  0  0  0  0  0  0
   36.8420   29.8470   35.0750 N   0  0  0  0  0  0  0  0  0  0  0  0
   36.4890   29.4570   36.3090 C   0  0  0  0  0  0  0  0  0  0  0  0
   35.4380   28.6340   36.4770 N   0  0  0  0  0  0  0  0  0  0  0  0
   33.9040   27.5490   35.4750 H   0  0  0  0  0  0  0  0  0  0  0  0
   34.6270   28.3350   33.1960 H   0  0  0  0  0  0  0  0  0  0  0  0
   36.6730   29.9490   32.7560 O   0  0  0  0  0  0  0  0  0  0  0  0
   36.4450   31.3290   32.4780 C   0  0  0  0  0  0  0  0  0  0  0  0
   37.5900   32.0610   32.8070 F   0  0  0  0  0  0  0  0  0  0  0  0
   36.2070   31.4580   31.1090 F   0  0  0  0  0  0  0  0  0  0  0  0
   35.3310   31.8000   33.1530 F   0  0  0  0  0  0  0  0  0  0  0  0
  1  2  1  0  0  0  0
  1  6  1  0  0  0  0
  3  1  1  0  0  0  0
  4  5  2  0  0  0  0
  4  9  1  0  0  0  0
  6  4  1  0  0  0  0
  7  6  1  0  0  0  0
  8 15  1  0  0  0  0
  9  8  2  0  0  0  0
 10  9  1  0  0  0  0
 10 12  2  0  0  0  0
 11 10  1  0  0  0  0
 12 14  1  0  0  0  0
 13 12  1  0  0  0  0
 14 15  2  0  0  0  0
 16 17  3  0  0  0  0
 17  8  1  0  0  0  0
 18 19  2  0  0  0  0
 19  1  1  0  0  0  0
 20 26  1  0  0  0  0
 20 25  1  0  0  0  0
 21 20  2  0  0  0  0
 22 21  1  0  0  0  0
 22 23  2  0  0  0  0
 23 24  1  0  0  0  0
 24 25  2  0  0  0  0
 24 18  1  0  0  0  0
 27 21  1  0  0  0  0
 28 22  1  0  0  0  0
 29 28  1  0  0  0  0
 29 30  1  0  0  0  0
 29 32  1  0  0  0  0
 31 29  1  0  0  0  0
M  END
>  <minimizedAffinity>
-5.70151758

$$$$

 OpenBabel03242520543D

 32 33  0  0  0  0  0  0  0  0999 V2000
   36.6380   29.8340   41.1950 C   0  0  0  0  0  0  0  0  0  0  0  0
   36.0390   30.0900   42.0760 H   0  0  0  0  0  0  0  0  0  0  0  0
   37.2610   30.7670   41.0210 H   0  0  0  0  0  0  0  0  0  0  0  0
   37.1820   27.8210   42.3310 C   0  0  0  0  0  0  0  0  0  0  0  0
   36.1360   27.7080   43.0110 O   0  0  0  0  0  0  0  0  0  0  0  0
   37.6120   28.7920   41.3990 N   0  0  0  0  0  0  0  0  0  0  0  0
   38.5350   28.7410   40.9250 H   0  0  0  0  0  0  0  0  0  0  0  0
   38.2280   25.5170   41.8760 C   0  0  0  0  0  0  0  0  0  0  0  0
   38.1530   26.7130   42.5550 C   0  0  0  0  0  0  0  0  0  0  0  0
   39.0370   27.0330   43.5840 C   0  0  0  0  0  0  0  0  0  0  0  0
   39.0290   27.9570   44.1580 H   0  0  0  0  0  0  0  0  0  0  0  0
   40.0190   26.1350   43.9430 C   0  0  0  0  0  0  0  0  0  0  0  0
   40.7270   26.3570   44.7510 H   0  0  0  0  0  0  0  0  0  0  0  0
   40.0780   24.9400   43.2480 C   0  0  0  0  0  3  0  0  0  0  0  0
   39.2020   24.6090   42.2200 C   0  0  0  0  0  3  0  0  0  0  0  0
   36.4690   25.1670   40.0210 N   0  0  0  0  0  0  0  0  0  0  0  0
   37.2590   25.3270   40.8490 C   0  0  0  0  0  0  0  0  0  0  0  0
   36.4780   29.6680   38.7890 C   0  0  0  0  0  3  0  0  0  0  0  0
   35.8820   29.6240   39.9570 C   0  0  0  0  0  3  0  0  0  0  0  0
   33.8160   28.8360   36.4120 C   0  0  0  0  0  0  0  0  0  0  0  0
   34.4260   29.1170   35.1830 C   0  0  0  0  0  0  0  0  0  0  0  0
   35.7330   29.5830   35.1670 C   0  0  0  0  0  0  0  0  0  0  0  0
   36.3270   29.7340   36.3580 N   0  0  0  0  0  0  0  0  0  0  0  0
   35.7390   29.4660   37.5340 C   0  0  0  0  0  0  0  0  0  0  0  0
   34.4730   29.0120   37.5620 N   0  0  0  0  0  0  0  0  0  0  0  0
   32.7950   28.4700   36.3690 H   0  0  0  0  0  0  0  0  0  0  0  0
   33.9680   29.0060   34.2070 H   0  0  0  0  0  0  0  0  0  0  0  0
   36.4500   29.9000   34.0400 O   0  0  0  0  0  0  0  0  0  0  0  0
   36.4170   31.2610   33.6150 C   0  0  0  0  0  0  0  0  0  0  0  0
   37.0960   31.3810   32.3990 F   0  0  0  0  0  0  0  0  0  0  0  0
   35.0820   31.6200   33.4230 F   0  0  0  0  0  0  0  0  0  0  0  0
   36.9520   32.1010   34.5780 F   0  0  0  0  0  0  0  0  0  0  0  0
  1  6  1  0  0  0  0
  1  2  1  0  0  0  0
  3  1  1  0  0  0  0
  4  9  1  0  0  0  0
  4  5  2  0  0  0  0
  6  4  1  0  0  0  0
  7  6  1  0  0  0  0
  8 15  2  0  0  0  0
  8  9  1  0  0  0  0
  9 10  2  0  0  0  0
 10 12  1  0  0  0  0
 10 11  1  0  0  0  0
 12 13  1  0  0  0  0
 14 12  2  0  0  0  0
 15 14  1  0  0  0  0
 16 17  3  0  0  0  0
 17  8  1  0  0  0  0
 18 19  2  0  0  0  0
 19  1  1  0  0  0  0
 20 25  1  0  0  0  0
 21 20  2  0  0  0  0
 22 21  1  0  0  0  0
 22 23  2  0  0  0  0
 23 24  1  0  0  0  0
 24 25  2  0  0  0  0
 24 18  1  0  0  0  0
 26 20  1  0  0  0  0
 27 21  1  0  0  0  0
 28 22  1  0  0  0  0
 29 28  1  0  0  0  0
 29 32  1  0  0  0  0
 30 29  1  0  0  0  0
 31 29  1  0  0  0  0
M  END
>  <minimizedAffinity>
-5.67434788

$$$$

 OpenBabel03242520543D

 32 33  0  0  0  0  0  0  0  0999 V2000
   35.9190   28.7360   41.0540 C   0  0  0  0  0  0  0  0  0  0  0  0
   35.1670   28.3150   40.3780 H   0  0  0  0  0  0  0  0  0  0  0  0
   35.3870   28.7610   42.0570 H   0  0  0  0  0  0  0  0  0  0  0  0
   37.0480   27.2860   42.5580 C   0  0  0  0  0  0  0  0  0  0  0  0
   36.2340   27.3420   43.5090 O   0  0  0  0  0  0  0  0  0  0  0  0
   37.0700   27.9020   41.2860 N   0  0  0  0  0  0  0  0  0  0  0  0
   37.8440   27.7550   40.6090 H   0  0  0  0  0  0  0  0  0  0  0  0
   38.3710   25.0850   42.4430 C   0  0  0  0  0  0  0  0  0  0  0  0
   38.2130   26.3970   42.8300 C   0  0  0  0  0  0  0  0  0  0  0  0
   39.1890   27.0720   43.5590 C   0  0  0  0  0  0  0  0  0  0  0  0
   39.1230   28.1050   43.8950 H   0  0  0  0  0  0  0  0  0  0  0  0
   40.3520   26.4200   43.9090 C   0  0  0  0  0  0  0  0  0  0  0  0
   41.1370   26.9250   44.4850 H   0  0  0  0  0  0  0  0  0  0  0  0
   40.4910   25.1030   43.5100 C   0  0  0  0  0  3  0  0  0  0  0  0
   39.5250   24.4180   42.7820 C   0  0  0  0  0  3  0  0  0  0  0  0
   36.4090   24.0680   41.1100 N   0  0  0  0  0  0  0  0  0  0  0  0
   37.2900   24.5230   41.7030 C   0  0  0  0  0  0  0  0  0  0  0  0
   37.5750   30.4680   40.7340 C   0  0  0  0  0  3  0  0  0  0  0  0
   36.3100   30.1220   40.7780 C   0  0  0  0  0  3  0  0  0  0  0  0
   37.5050   33.9880   39.7190 C   0  0  0  0  0  0  0  0  0  0  0  0
   38.8170   34.3950   39.9900 C   0  0  0  0  0  0  0  0  0  0  0  0
   39.7160   33.4750   40.5130 C   0  0  0  0  0  0  0  0  0  0  0  0
   39.2490   32.2380   40.7230 N   0  0  0  0  0  0  0  0  0  0  0  0
   37.9910   31.8520   40.4640 C   0  0  0  0  0  0  0  0  0  0  0  0
   37.1110   32.7330   39.9560 N   0  0  0  0  0  0  0  0  0  0  0  0
   36.8440   34.7440   39.3080 H   0  0  0  0  0  0  0  0  0  0  0  0
   39.2200   35.3880   39.8320 H   0  0  0  0  0  0  0  0  0  0  0  0
   41.0260   33.7360   40.8270 O   0  0  0  0  0  0  0  0  0  0  0  0
   42.0170   33.2610   39.9170 C   0  0  0  0  0  0  0  0  0  0  0  0
   41.4850   33.2440   38.6240 F   0  0  0  0  0  0  0  0  0  0  0  0
   43.0920   34.1510   39.9490 F   0  0  0  0  0  0  0  0  0  0  0  0
   42.4840   32.0110   40.2900 F   0  0  0  0  0  0  0  0  0  0  0  0
  1  6  1  0  0  0  0
  1  3  1  0  0  0  0
  2  1  1  0  0  0  0
  4  9  1  0  0  0  0
  4  5  2  0  0  0  0
  6  4  1  0  0  0  0
  7  6  1  0  0  0  0
  8 15  2  0  0  0  0
  8  9  1  0  0  0  0
  9 10  2  0  0  0  0
 10 11  1  0  0  0  0
 10 12  1  0  0  0  0
 12 13  1  0  0  0  0
 14 12  2  0  0  0  0
 15 14  1  0  0  0  0
 16 17  3  0  0  0  0
 17  8  1  0  0  0  0
 18 19  2  0  0  0  0
 19  1  1  0  0  0  0
 20 25  2  0  0  0  0
 20 21  1  0  0  0  0
 21 22  2  0  0  0  0
 22 23  1  0  0  0  0
 22 28  1  0  0  0  0
 24 23  2  0  0  0  0
 24 18  1  0  0  0  0
 25 24  1  0  0  0  0
 26 20  1  0  0  0  0
 27 21  1  0  0  0  0
 29 31  1  0  0  0  0
 29 32  1  0  0  0  0
 29 28  1  0  0  0  0
 30 29  1  0  0  0  0
M  END
>  <minimizedAffinity>
-5.6210885

$$$$

 OpenBabel03242520543D

 32 33  0  0  0  0  0  0  0  0999 V2000
   36.5200   30.1190   37.9800 C   0  0  0  0  0  0  0  0  0  0  0  0
   36.2440   29.8990   36.9430 H   0  0  0  0  0  0  0  0  0  0  0  0
   35.5280   30.3920   38.4630 H   0  0  0  0  0  0  0  0  0  0  0  0
   36.0530   28.5690   39.7180 C   0  0  0  0  0  0  0  0  0  0  0  0
   34.9220   28.9990   40.0440 O   0  0  0  0  0  0  0  0  0  0  0  0
   36.9860   28.9900   38.7430 N   0  0  0  0  0  0  0  0  0  0  0  0
   37.9040   28.5210   38.6110 H   0  0  0  0  0  0  0  0  0  0  0  0
   36.6060   26.0870   40.0860 C   0  0  0  0  0  0  0  0  0  0  0  0
   36.4890   27.3890   40.5160 C   0  0  0  0  0  0  0  0  0  0  0  0
   36.7880   27.7630   41.8240 C   0  0  0  0  0  0  0  0  0  0  0  0
   36.7150   28.7720   42.2250 H   0  0  0  0  0  0  0  0  0  0  0  0
   37.2160   26.8110   42.7240 C   0  0  0  0  0  0  0  0  0  0  0  0
   37.4560   27.0740   43.7620 H   0  0  0  0  0  0  0  0  0  0  0  0
   37.3280   25.5080   42.2720 C   0  0  0  0  0  3  0  0  0  0  0  0
   37.0330   25.1230   40.9700 C   0  0  0  0  0  3  0  0  0  0  0  0
   35.9940   25.6670   37.6150 N   0  0  0  0  0  0  0  0  0  0  0  0
   36.2650   25.8520   38.7220 C   0  0  0  0  0  0  0  0  0  0  0  0
   37.6390   31.7510   39.3680 C   0  0  0  0  0  3  0  0  0  0  0  0
   37.3870   31.2860   38.1680 C   0  0  0  0  0  3  0  0  0  0  0  0
   38.7650   35.1450   40.1720 C   0  0  0  0  0  0  0  0  0  0  0  0
   40.1460   35.0500   39.9590 C   0  0  0  0  0  0  0  0  0  0  0  0
   40.6860   33.8400   39.5440 C   0  0  0  0  0  0  0  0  0  0  0  0
   39.8230   32.8300   39.3740 N   0  0  0  0  0  0  0  0  0  0  0  0
   38.5010   32.9230   39.5800 C   0  0  0  0  0  0  0  0  0  0  0  0
   37.9660   34.0900   39.9810 N   0  0  0  0  0  0  0  0  0  0  0  0
   38.3940   36.1130   40.4910 H   0  0  0  0  0  0  0  0  0  0  0  0
   40.8650   35.8500   40.0910 H   0  0  0  0  0  0  0  0  0  0  0  0
   42.0160   33.6060   39.3020 O   0  0  0  0  0  0  0  0  0  0  0  0
   42.4900   33.8740   37.9830 C   0  0  0  0  0  0  0  0  0  0  0  0
   41.6060   33.3190   37.0530 F   0  0  0  0  0  0  0  0  0  0  0  0
   42.5160   35.2580   37.8090 F   0  0  0  0  0  0  0  0  0  0  0  0
   43.7780   33.3960   37.8050 F   0  0  0  0  0  0  0  0  0  0  0  0
  1 19  1  0  0  0  0
  1  3  1  0  0  0  0
  1  6  1  0  0  0  0
  2  1  1  0  0  0  0
  4  5  2  0  0  0  0
  4  9  1  0  0  0  0
  6  4  1  0  0  0  0
  7  6  1  0  0  0  0
  8  9  2  0  0  0  0
  8 15  1  0  0  0  0
  9 10  1  0  0  0  0
 10 11  1  0  0  0  0
 10 12  2  0  0  0  0
 12 13  1  0  0  0  0
 14 12  1  0  0  0  0
 15 14  2  0  0  0  0
 16 17  3  0  0  0  0
 17  8  1  0  0  0  0
 18 24  1  0  0  0  0
 19 18  2  0  0  0  0
 20 26  1  0  0  0  0
 21 27  1  0  0  0  0
 21 20  2  0  0  0  0
 22 21  1  0  0  0  0
 23 22  2  0  0  0  0
 23 24  1  0  0  0  0
 24 25  2  0  0  0  0
 25 20  1  0  0  0  0
 28 22  1  0  0  0  0
 29 28  1  0  0  0  0
 30 29  1  0  0  0  0
 31 29  1  0  0  0  0
 32 29  1  0  0  0  0
M  END
>  <minimizedAffinity>
-5.48634911

$$$$

 OpenBabel03242520543D

 32 33  0  0  0  0  0  0  0  0999 V2000
   36.4980   30.3890   38.7230 C   0  0  0  0  0  0  0  0  0  0  0  0
   36.3400   30.4220   37.6400 H   0  0  0  0  0  0  0  0  0  0  0  0
   35.4440   30.4280   39.1450 H   0  0  0  0  0  0  0  0  0  0  0  0
   36.1750   28.5250   40.1580 C   0  0  0  0  0  0  0  0  0  0  0  0
   35.0610   28.8510   40.6300 O   0  0  0  0  0  0  0  0  0  0  0  0
   37.0340   29.1500   39.2260 N   0  0  0  0  0  0  0  0  0  0  0  0
   37.9480   28.7420   38.9500 H   0  0  0  0  0  0  0  0  0  0  0  0
   37.3020   27.0050   41.8980 C   0  0  0  0  0  0  0  0  0  0  0  0
   36.6830   27.2280   40.6880 C   0  0  0  0  0  0  0  0  0  0  0  0
   36.4500   26.1990   39.7790 C   0  0  0  0  0  0  0  0  0  0  0  0
   35.9690   26.3100   38.8090 H   0  0  0  0  0  0  0  0  0  0  0  0
   36.8450   24.9140   40.0870 C   0  0  0  0  0  0  0  0  0  0  0  0
   36.6780   24.0840   39.3900 H   0  0  0  0  0  0  0  0  0  0  0  0
   37.4640   24.7110   41.3070 C   0  0  0  0  0  3  0  0  0  0  0  0
   37.7020   25.7300   42.2230 C   0  0  0  0  0  3  0  0  0  0  0  0
   37.6150   29.0770   43.4040 N   0  0  0  0  0  0  0  0  0  0  0  0
   37.4750   28.1520   42.7260 C   0  0  0  0  0  0  0  0  0  0  0  0
   38.3980   31.8760   38.8800 C   0  0  0  0  0  3  0  0  0  0  0  0
   37.1980   31.5440   39.2940 C   0  0  0  0  0  3  0  0  0  0  0  0
   39.1150   35.0580   40.5510 C   0  0  0  0  0  0  0  0  0  0  0  0
   40.5110   35.1240   40.4610 C   0  0  0  0  0  0  0  0  0  0  0  0
   41.1990   34.0940   39.8350 C   0  0  0  0  0  0  0  0  0  0  0  0
   40.4570   33.0890   39.3520 N   0  0  0  0  0  0  0  0  0  0  0  0
   39.1200   33.0270   39.4410 C   0  0  0  0  0  0  0  0  0  0  0  0
   38.4420   34.0200   40.0440 N   0  0  0  0  0  0  0  0  0  0  0  0
   38.6260   35.8900   41.0460 H   0  0  0  0  0  0  0  0  0  0  0  0
   41.1340   35.9230   40.8440 H   0  0  0  0  0  0  0  0  0  0  0  0
   42.5610   34.0280   39.6790 O   0  0  0  0  0  0  0  0  0  0  0  0
   43.0680   34.1750   38.3540 C   0  0  0  0  0  0  0  0  0  0  0  0
   42.3430   35.1700   37.6910 F   0  0  0  0  0  0  0  0  0  0  0  0
   44.4020   34.5760   38.4460 F   0  0  0  0  0  0  0  0  0  0  0  0
   43.0280   32.9740   37.6640 F   0  0  0  0  0  0  0  0  0  0  0  0
  1  3  1  0  0  0  0
  1  6  1  0  0  0  0
  1 19  1  0  0  0  0
  2  1  1  0  0  0  0
  4  5  2  0  0  0  0
  4  9  1  0  0  0  0
  6  4  1  0  0  0  0
  7  6  1  0  0  0  0
  8 15  1  0  0  0  0
  8 17  1  0  0  0  0
  9  8  2  0  0  0  0
 10 12  2  0  0  0  0
 10  9  1  0  0  0  0
 11 10  1  0  0  0  0
 12 14  1  0  0  0  0
 13 12  1  0  0  0  0
 14 15  2  0  0  0  0
 17 16  3  0  0  0  0
 18 19  2  0  0  0  0
 18 24  1  0  0  0  0
 20 26  1  0  0  0  0
 21 20  1  0  0  0  0
 21 27  1  0  0  0  0
 22 21  2  0  0  0  0
 23 24  2  0  0  0  0
 23 22  1  0  0  0  0
 24 25  1  0  0  0  0
 25 20  2  0  0  0  0
 28 22  1  0  0  0  0
 29 31  1  0  0  0  0
 29 28  1  0  0  0  0
 30 29  1  0  0  0  0
 32 29  1  0  0  0  0
M  END
>  <minimizedAffinity>
-5.47792578

$$$$

 OpenBabel03242520543D

 32 33  0  0  0  0  0  0  0  0999 V2000
   36.0710   28.9850   41.2870 C   0  0  0  0  0  0  0  0  0  0  0  0
   35.4240   29.0730   42.1660 H   0  0  0  0  0  0  0  0  0  0  0  0
   36.5300   30.0200   41.1930 H   0  0  0  0  0  0  0  0  0  0  0  0
   37.1300   27.3320   42.6230 C   0  0  0  0  0  0  0  0  0  0  0  0
   36.2840   27.2760   43.5450 O   0  0  0  0  0  0  0  0  0  0  0  0
   37.2040   28.1090   41.4450 N   0  0  0  0  0  0  0  0  0  0  0  0
   38.0000   28.0400   40.7800 H   0  0  0  0  0  0  0  0  0  0  0  0
   38.3790   25.1010   42.3590 C   0  0  0  0  0  0  0  0  0  0  0  0
   38.2740   26.3960   42.8140 C   0  0  0  0  0  0  0  0  0  0  0  0
   39.2930   27.0060   43.5420 C   0  0  0  0  0  0  0  0  0  0  0  0
   39.2700   28.0230   43.9300 H   0  0  0  0  0  0  0  0  0  0  0  0
   40.4450   26.3030   43.8230 C   0  0  0  0  0  0  0  0  0  0  0  0
   41.2640   26.7560   44.3960 H   0  0  0  0  0  0  0  0  0  0  0  0
   40.5310   25.0040   43.3560 C   0  0  0  0  0  3  0  0  0  0  0  0
   39.5220   24.3840   42.6280 C   0  0  0  0  0  3  0  0  0  0  0  0
   36.3550   24.2050   41.0320 N   0  0  0  0  0  0  0  0  0  0  0  0
   37.2580   24.6080   41.6290 C   0  0  0  0  0  0  0  0  0  0  0  0
   35.6600   29.4520   38.9510 C   0  0  0  0  0  3  0  0  0  0  0  0
   35.3800   28.7410   40.0170 C   0  0  0  0  0  3  0  0  0  0  0  0
   35.0490   28.9560   35.3720 C   0  0  0  0  0  0  0  0  0  0  0  0
   33.6570   28.8100   35.3330 C   0  0  0  0  0  0  0  0  0  0  0  0
   32.9350   28.8810   36.5170 C   0  0  0  0  0  0  0  0  0  0  0  0
   33.6420   29.0910   37.6340 N   0  0  0  0  0  0  0  0  0  0  0  0
   34.9760   29.2290   37.6690 C   0  0  0  0  0  0  0  0  0  0  0  0
   35.6870   29.1630   36.5290 N   0  0  0  0  0  0  0  0  0  0  0  0
   35.5650   28.8960   34.4200 H   0  0  0  0  0  0  0  0  0  0  0  0
   33.0610   28.6380   34.4440 H   0  0  0  0  0  0  0  0  0  0  0  0
   31.5730   28.7530   36.6250 O   0  0  0  0  0  0  0  0  0  0  0  0
   30.8370   29.9290   36.9530 C   0  0  0  0  0  0  0  0  0  0  0  0
   30.8530   30.1130   38.3390 F   0  0  0  0  0  0  0  0  0  0  0  0
   31.4710   31.0160   36.3480 F   0  0  0  0  0  0  0  0  0  0  0  0
   29.5410   29.8640   36.4660 F   0  0  0  0  0  0  0  0  0  0  0  0
  1  6  1  0  0  0  0
  1  2  1  0  0  0  0
  3  1  1  0  0  0  0
  4  9  1  0  0  0  0
  4  5  2  0  0  0  0
  6  4  1  0  0  0  0
  7  6  1  0  0  0  0
  8 15  2  0  0  0  0
  8  9  1  0  0  0  0
  9 10  2  0  0  0  0
 10 12  1  0  0  0  0
 10 11  1  0  0  0  0
 12 13  1  0  0  0  0
 14 12  2  0  0  0  0
 15 14  1  0  0  0  0
 16 17  3  0  0  0  0
 17  8  1  0  0  0  0
 18 19  2  0  0  0  0
 19  1  1  0  0  0  0
 20 25  1  0  0  0  0
 21 20  2  0  0  0  0
 21 22  1  0  0  0  0
 22 28  1  0  0  0  0
 22 23  2  0  0  0  0
 23 24  1  0  0  0  0
 24 18  1  0  0  0  0
 25 24  2  0  0  0  0
 26 20  1  0  0  0  0
 27 21  1  0  0  0  0
 28 29  1  0  0  0  0
 29 30  1  0  0  0  0
 31 29  1  0  0  0  0
 32 29  1  0  0  0  0
M  END
>  <minimizedAffinity>
-5.35554314

$$$$

 OpenBabel03242520543D

 32 33  0  0  0  0  0  0  0  0999 V2000
   39.4850   30.1530   39.1910 C   0  0  0  0  0  0  0  0  0  0  0  0
   39.1990   31.1120   39.6360 H   0  0  0  0  0  0  0  0  0  0  0  0
   40.4460   30.3960   38.6360 H   0  0  0  0  0  0  0  0  0  0  0  0
   39.5470   29.4690   41.4640 C   0  0  0  0  0  0  0  0  0  0  0  0
   39.0110   30.4830   41.9720 O   0  0  0  0  0  0  0  0  0  0  0  0
   39.8700   29.1310   40.1310 N   0  0  0  0  0  0  0  0  0  0  0  0
   40.3350   28.2370   39.8790 H   0  0  0  0  0  0  0  0  0  0  0  0
   39.0720   27.5110   43.0600 C   0  0  0  0  0  0  0  0  0  0  0  0
   39.9100   28.4290   42.4670 C   0  0  0  0  0  0  0  0  0  0  0  0
   41.2710   28.4790   42.7590 C   0  0  0  0  0  0  0  0  0  0  0  0
   41.9840   29.1800   42.3270 H   0  0  0  0  0  0  0  0  0  0  0  0
   41.8070   27.5910   43.6660 C   0  0  0  0  0  0  0  0  0  0  0  0
   42.8750   27.6080   43.9190 H   0  0  0  0  0  0  0  0  0  0  0  0
   40.9490   26.6760   44.2500 C   0  0  0  0  0  3  0  0  0  0  0  0
   39.5890   26.6160   43.9660 C   0  0  0  0  0  3  0  0  0  0  0  0
   36.5960   27.6380   42.3420 N   0  0  0  0  0  0  0  0  0  0  0  0
   37.7030   27.5770   42.6650 C   0  0  0  0  0  0  0  0  0  0  0  0
   37.7180   30.4210   37.5630 C   0  0  0  0  0  3  0  0  0  0  0  0
   38.5640   29.6280   38.1780 C   0  0  0  0  0  3  0  0  0  0  0  0
   34.8270   28.8110   35.9880 C   0  0  0  0  0  0  0  0  0  0  0  0
   35.0880   29.0130   34.6270 C   0  0  0  0  0  0  0  0  0  0  0  0
   36.2400   29.6910   34.2520 C   0  0  0  0  0  0  0  0  0  0  0  0
   37.0350   30.1100   35.2450 N   0  0  0  0  0  0  0  0  0  0  0  0
   36.7810   29.9160   36.5480 C   0  0  0  0  0  0  0  0  0  0  0  0
   35.6690   29.2600   36.9240 N   0  0  0  0  0  0  0  0  0  0  0  0
   33.9160   28.2720   36.2270 H   0  0  0  0  0  0  0  0  0  0  0  0
   34.4620   28.6870   33.8050 H   0  0  0  0  0  0  0  0  0  0  0  0
   36.6180   29.9620   32.9610 O   0  0  0  0  0  0  0  0  0  0  0  0
   36.4700   31.3080   32.5130 C   0  0  0  0  0  0  0  0  0  0  0  0
   36.2140   31.3120   31.1390 F   0  0  0  0  0  0  0  0  0  0  0  0
   35.3750   31.8640   33.1760 F   0  0  0  0  0  0  0  0  0  0  0  0
   37.5880   32.0660   32.8220 F   0  0  0  0  0  0  0  0  0  0  0  0
  1  2  1  0  0  0  0
  1  6  1  0  0  0  0
  3  1  1  0  0  0  0
  4  5  2  0  0  0  0
  4  9  1  0  0  0  0
  6  4  1  0  0  0  0
  7  6  1  0  0  0  0
  8 15  1  0  0  0  0
  9 10  1  0  0  0  0
  9  8  2  0  0  0  0
 10 12  2  0  0  0  0
 11 10  1  0  0  0  0
 12 13  1  0  0  0  0
 12 14  1  0  0  0  0
 15 14  2  0  0  0  0
 16 17  3  0  0  0  0
 17  8  1  0  0  0  0
 18 19  2  0  0  0  0
 19  1  1  0  0  0  0
 20 26  1  0  0  0  0
 20 25  1  0  0  0  0
 21 20  2  0  0  0  0
 22 21  1  0  0  0  0
 22 23  2  0  0  0  0
 23 24  1  0  0  0  0
 24 25  2  0  0  0  0
 24 18  1  0  0  0  0
 27 21  1  0  0  0  0
 28 22  1  0  0  0  0
 29 32  1  0  0  0  0
 29 28  1  0  0  0  0
 29 31  1  0  0  0  0
 30 29  1  0  0  0  0
M  END
>  <minimizedAffinity>
-5.33860588

$$$$

 OpenBabel03242520543D

 32 33  0  0  0  0  0  0  0  0999 V2000
   40.8810   33.5880   38.9940 C   0  0  0  0  0  0  0  0  0  0  0  0
   41.4480   33.9100   39.8730 H   0  0  0  0  0  0  0  0  0  0  0  0
   40.4470   34.5580   38.5910 H   0  0  0  0  0  0  0  0  0  0  0  0
   42.6980   32.2060   38.3400 C   0  0  0  0  0  0  0  0  0  0  0  0
   43.0440   31.8130   39.4790 O   0  0  0  0  0  0  0  0  0  0  0  0
   41.6750   33.0780   37.9050 N   0  0  0  0  0  0  0  0  0  0  0  0
   41.5300   33.3130   36.9030 H   0  0  0  0  0  0  0  0  0  0  0  0
   44.8240   31.9780   36.9150 C   0  0  0  0  0  0  0  0  0  0  0  0
   43.5300   31.6400   37.2420 C   0  0  0  0  0  0  0  0  0  0  0  0
   42.8220   30.6680   36.5370 C   0  0  0  0  0  0  0  0  0  0  0  0
   41.8000   30.3580   36.7450 H   0  0  0  0  0  0  0  0  0  0  0  0
   43.4230   30.0190   35.4800 C   0  0  0  0  0  0  0  0  0  0  0  0
   42.8900   29.2520   34.9050 H   0  0  0  0  0  0  0  0  0  0  0  0
   44.7230   30.3730   35.1680 C   0  0  0  0  0  3  0  0  0  0  0  0
   45.4400   31.3400   35.8630 C   0  0  0  0  0  3  0  0  0  0  0  0
   45.9020   33.8080   38.3810 N   0  0  0  0  0  0  0  0  0  0  0  0
   45.4230   32.9890   37.7220 C   0  0  0  0  0  0  0  0  0  0  0  0
   39.5890   32.1420   40.4360 C   0  0  0  0  0  3  0  0  0  0  0  0
   39.7300   32.7210   39.2680 C   0  0  0  0  0  3  0  0  0  0  0  0
   36.1700   30.8510   40.7090 C   0  0  0  0  0  0  0  0  0  0  0  0
   36.3790   29.5990   41.3000 C   0  0  0  0  0  0  0  0  0  0  0  0
   37.6740   29.2010   41.6030 C   0  0  0  0  0  0  0  0  0  0  0  0
   38.6490   30.0670   41.3000 N   0  0  0  0  0  0  0  0  0  0  0  0
   38.4460   31.2650   40.7330 C   0  0  0  0  0  0  0  0  0  0  0  0
   37.1960   31.6630   40.4350 N   0  0  0  0  0  0  0  0  0  0  0  0
   35.1390   31.1160   40.4970 H   0  0  0  0  0  0  0  0  0  0  0  0
   35.6090   28.8800   41.5530 H   0  0  0  0  0  0  0  0  0  0  0  0
   38.0220   28.0050   42.1780 O   0  0  0  0  0  0  0  0  0  0  0  0
   37.6590   27.8140   43.5440 C   0  0  0  0  0  0  0  0  0  0  0  0
   38.6280   27.0290   44.1740 F   0  0  0  0  0  0  0  0  0  0  0  0
   37.6250   29.0660   44.1590 F   0  0  0  0  0  0  0  0  0  0  0  0
   36.3990   27.2480   43.6540 F   0  0  0  0  0  0  0  0  0  0  0  0
  1 19  1  0  0  0  0
  1  2  1  0  0  0  0
  3  1  1  0  0  0  0
  4  5  2  0  0  0  0
  6  4  1  0  0  0  0
  6  1  1  0  0  0  0
  7  6  1  0  0  0  0
  8  9  1  0  0  0  0
  8 17  1  0  0  0  0
  9  4  1  0  0  0  0
 10 11  1  0  0  0  0
 10  9  2  0  0  0  0
 12 10  1  0  0  0  0
 13 12  1  0  0  0  0
 14 12  2  0  0  0  0
 14 15  1  0  0  0  0
 15  8  2  0  0  0  0
 17 16  3  0  0  0  0
 18 24  1  0  0  0  0
 19 18  2  0  0  0  0
 20 21  1  0  0  0  0
 21 27  1  0  0  0  0
 21 22  2  0  0  0  0
 22 28  1  0  0  0  0
 23 22  1  0  0  0  0
 24 23  2  0  0  0  0
 25 20  2  0  0  0  0
 25 24  1  0  0  0  0
 26 20  1  0  0  0  0
 28 29  1  0  0  0  0
 29 32  1  0  0  0  0
 29 31  1  0  0  0  0
 29 30  1  0  0  0  0
M  END
>  <minimizedAffinity>
-5.33551407

$$$$
