
 OpenBabel03252506463D

 43 46  0  0  1  0  0  0  0  0999 V2000
   49.8390   33.5820   41.5090 N   0  0  1  0  0  0  0  0  0  0  0  0
   50.7380   32.9230   42.4160 C   0  0  0  0  0  0  0  0  0  0  0  0
   51.2480   31.5940   41.9300 C   0  0  0  0  0  0  0  0  0  0  0  0
   50.1000   30.6270   41.8080 C   0  0  0  0  0  0  0  0  0  0  0  0
   48.8390   31.3350   41.4050 C   0  0  0  0  0  0  0  0  0  0  0  0
   49.2000   32.6020   40.6540 C   0  0  2  0  0  0  0  0  0  0  0  0
   50.2710   32.7800   43.4030 H   0  0  0  0  0  0  0  0  0  0  0  0
   51.6150   33.6040   42.6050 H   0  0  0  0  0  0  0  0  0  0  0  0
   51.9220   31.6430   41.0830 H   0  0  0  0  0  0  0  0  0  0  0  0
   51.8570   31.2000   42.8100 H   0  0  0  0  0  0  0  0  0  0  0  0
   49.9020   30.1160   42.7770 H   0  0  0  0  0  0  0  0  0  0  0  0
   50.3880   29.8250   41.0980 H   0  0  0  0  0  0  0  0  0  0  0  0
   48.2830   31.7150   42.3250 H   0  0  0  0  0  0  0  0  0  0  0  0
   48.1660   30.7410   40.8080 H   0  0  0  0  0  0  0  0  0  0  0  0
   48.2260   33.0500   40.3500 H   0  0  0  0  0  0  0  0  0  0  0  0
   47.5300   34.6280   41.9420 C   0  0  1  0  0  0  0  0  0  0  0  0
   48.5360   35.6810   41.6730 C   0  0  0  0  0  0  0  0  0  0  0  0
   48.9630   34.3950   42.2570 C   0  0  2  0  0  0  0  0  0  0  0  0
   47.1220   34.1420   41.0120 H   0  0  0  0  0  0  0  0  0  0  0  0
   48.7970   35.9390   40.6330 H   0  0  0  0  0  0  0  0  0  0  0  0
   48.5280   36.5570   42.3470 H   0  0  0  0  0  0  0  0  0  0  0  0
   49.1640   34.3700   43.3710 H   0  0  0  0  0  0  0  0  0  0  0  0
   45.6600   35.9070   43.0250 C   0  0  0  0  0  0  0  0  0  0  0  0
   46.5550   34.8300   43.0130 C   0  0  0  0  0  0  0  0  0  0  0  0
   46.4670   33.9140   44.0860 C   0  0  0  0  0  0  0  0  0  0  0  0
   45.5360   34.1300   45.0490 N   0  0  0  0  0  0  0  0  0  0  0  0
   44.6950   35.1700   45.0290 C   0  0  0  0  0  0  0  0  0  0  0  0
   44.7470   36.0810   44.0090 N   0  0  0  0  0  0  0  0  0  0  0  0
   45.6860   36.6350   42.2290 H   0  0  0  0  0  0  0  0  0  0  0  0
   47.1330   33.0690   44.1240 H   0  0  0  0  0  0  0  0  0  0  0  0
   44.0080   35.2040   45.8700 H   0  0  0  0  0  0  0  0  0  0  0  0
   49.9350   32.3080   39.4650 N   0  0  0  0  0  0  0  0  0  0  0  0
   50.9160   32.7110   39.5780 H   0  0  0  0  0  0  0  0  0  0  0  0
   49.3130   32.3020   37.0460 C   0  0  0  0  0  0  0  0  0  0  0  0
   49.8750   31.7240   38.1920 C   0  0  0  0  0  0  0  0  0  0  0  0
   50.4010   30.4510   38.0870 C   0  0  0  0  0  0  0  0  0  0  0  0
   50.8640   29.8100   38.8230 H   0  0  0  0  0  0  0  0  0  0  0  0
   50.3980   29.7280   36.9050 C   0  0  0  0  0  0  0  0  0  0  0  0
   50.7710   28.7420   36.6950 H   0  0  0  0  0  0  0  0  0  0  0  0
   49.8420   30.3160   35.7940 C   0  0  0  0  0  3  0  0  0  0  0  0
   49.3140   31.5810   35.8810 C   0  0  0  0  0  3  0  0  0  0  0  0
   48.3220   34.6860   37.2950 N   0  0  0  0  0  0  0  0  0  0  0  0
   48.7720   33.6260   37.1770 C   0  0  0  0  0  0  0  0  0  0  0  0
  1 18  1  0  0  0  0
  1  2  1  1  0  0  0
  2  8  1  0  0  0  0
  2  7  1  0  0  0  0
  3  2  1  0  0  0  0
  3 10  1  0  0  0  0
  4  3  1  0  0  0  0
  4 11  1  0  0  0  0
  5  4  1  0  0  0  0
  5 13  1  0  0  0  0
  6 15  1  6  0  0  0
  6  5  1  0  0  0  0
  6  1  1  0  0  0  0
  9  3  1  0  0  0  0
 12  4  1  0  0  0  0
 14  5  1  0  0  0  0
 16 19  1  6  0  0  0
 16 18  1  0  0  0  0
 16 24  1  0  0  0  0
 17 16  1  0  0  0  0
 17 18  1  0  0  0  0
 17 21  1  0  0  0  0
 18 22  1  1  0  0  0
 20 17  1  0  0  0  0
 23 28  1  0  0  0  0
 24 23  2  0  0  0  0
 24 25  1  0  0  0  0
 25 30  1  0  0  0  0
 25 26  2  0  0  0  0
 27 26  1  0  0  0  0
 27 31  1  0  0  0  0
 28 27  2  0  0  0  0
 29 23  1  0  0  0  0
 32 33  1  0  0  0  0
 32  6  1  0  0  0  0
 34 43  1  0  0  0  0
 34 35  1  0  0  0  0
 35 32  1  0  0  0  0
 36 35  2  0  0  0  0
 36 37  1  0  0  0  0
 38 36  1  0  0  0  0
 39 38  1  0  0  0  0
 40 41  1  0  0  0  0
 40 38  2  0  0  0  0
 41 34  2  0  0  0  0
 43 42  3  0  0  0  0
M  END
>  <minimizedAffinity>
-5.34016705

>  <minimizedRMSD>
2.23986268

$$$$
