
 OpenBabel03252509243D

 28 30  0  0  1  0  0  0  0  0999 V2000
   46.5340   35.0770   41.9460 C   0  0  1  0  0  0  0  0  0  0  0  0
   48.0770   35.2090   41.9080 C   0  0  0  0  0  0  0  0  0  0  0  0
   47.2530   34.0490   41.2900 C   0  0  2  0  0  0  0  0  0  0  0  0
   46.0110   35.9060   41.4420 H   0  0  0  0  0  0  0  0  0  0  0  0
   48.6620   34.9860   42.7930 H   0  0  0  0  0  0  0  0  0  0  0  0
   48.4300   35.9810   41.2020 H   0  0  0  0  0  0  0  0  0  0  0  0
   47.4480   33.0690   41.7720 H   0  0  0  0  0  0  0  0  0  0  0  0
   44.6640   35.3810   45.1900 C   0  0  0  0  0  0  0  0  0  0  0  0
   45.1170   35.7010   43.8850 C   0  0  0  0  0  0  0  0  0  0  0  0
   46.0620   34.8540   43.3710 C   0  0  0  0  0  0  0  0  0  0  0  0
   46.5370   33.7700   44.0830 N   0  0  0  0  0  0  0  0  0  0  0  0
   46.0800   33.5040   45.3200 C   0  0  0  0  0  0  0  0  0  0  0  0
   45.1400   34.3100   45.8780 N   0  0  0  0  0  0  0  0  0  0  0  0
   43.9140   36.0470   45.6040 H   0  0  0  0  0  0  0  0  0  0  0  0
   46.4250   32.6660   45.9070 H   0  0  0  0  0  0  0  0  0  0  0  0
   44.6480   36.8370   43.1610 N   0  0  0  0  0  0  0  0  0  0  0  0
   43.8470   36.9450   42.5330 H   0  0  0  0  0  0  0  0  0  0  0  0
   45.3340   37.5860   43.4220 H   0  0  0  0  0  0  0  0  0  0  0  0
   46.3180   33.2350   39.1080 C   0  0  0  0  0  0  0  0  0  0  0  0
   47.2870   33.9320   39.8040 C   0  0  0  0  0  0  0  0  0  0  0  0
   48.3410   34.5570   39.1370 C   0  0  0  0  0  0  0  0  0  0  0  0
   49.1300   35.1190   39.6470 H   0  0  0  0  0  0  0  0  0  0  0  0
   48.4120   34.4740   37.7470 C   0  0  0  0  0  0  0  0  0  0  0  0
   49.2270   34.9550   37.1960 H   0  0  0  0  0  0  0  0  0  0  0  0
   47.4320   33.7720   37.0720 C   0  0  0  0  0  3  0  0  0  0  0  0
   46.3770   33.1440   37.7170 C   0  0  0  0  0  3  0  0  0  0  0  0
   44.3690   32.0780   40.3770 N   0  0  0  0  0  0  0  0  0  0  0  0
   45.2450   32.6000   39.8110 C   0  0  0  0  0  0  0  0  0  0  0  0
  1  4  1  6  0  0  0
  1 10  1  0  0  0  0
  2  1  1  0  0  0  0
  2  5  1  0  0  0  0
  3  7  1  1  0  0  0
  3  2  1  0  0  0  0
  3  1  1  0  0  0  0
  6  2  1  0  0  0  0
  8 14  1  0  0  0  0
  8 13  1  0  0  0  0
  9  8  2  0  0  0  0
 10  9  1  0  0  0  0
 10 11  2  0  0  0  0
 11 12  1  0  0  0  0
 12 13  2  0  0  0  0
 12 15  1  0  0  0  0
 16 18  1  0  0  0  0
 16  9  1  0  0  0  0
 17 16  1  0  0  0  0
 19 20  1  0  0  0  0
 19 28  1  0  0  0  0
 20  3  1  0  0  0  0
 21 22  1  0  0  0  0
 21 20  2  0  0  0  0
 23 21  1  0  0  0  0
 24 23  1  0  0  0  0
 25 26  1  0  0  0  0
 25 23  2  0  0  0  0
 26 19  2  0  0  0  0
 28 27  3  0  0  0  0
M  END
>  <minimizedAffinity>
-5.42077637

>  <minimizedRMSD>
0.423325509

$$$$
