
 OpenBabel03252503173D

 37 40  0  0  0  0  0  0  0  0999 V2000
   37.2100   30.2890   38.9130 C   0  0  0  0  0  0  0  0  0  0  0  0
   38.4730   30.6520   39.3410 C   0  0  0  0  0  0  0  0  0  0  0  0
   38.9670   31.4400   38.3700 N   0  0  0  0  0  0  0  0  0  0  0  0
   38.0430   31.5510   37.3890 C   0  0  0  0  0  0  0  0  0  0  0  0
   36.9500   30.8380   37.7230 N   0  0  0  0  0  0  0  0  0  0  0  0
   38.0720   32.2680   36.1500 N   0  0  0  0  0  0  0  0  0  0  0  0
   38.9620   30.3760   40.2450 H   0  0  0  0  0  0  0  0  0  0  0  0
   38.9970   32.0990   35.7100 H   0  0  0  0  0  0  0  0  0  0  0  0
   37.2500   32.8340   35.8340 H   0  0  0  0  0  0  0  0  0  0  0  0
   40.4090   33.2240   39.0350 C   0  0  0  0  0  0  0  0  0  0  0  0
   40.2150   32.0890   38.2830 C   0  0  0  0  0  0  0  0  0  0  0  0
   41.2690   31.6720   37.4960 C   0  0  0  0  0  0  0  0  0  0  0  0
   41.1130   30.7860   36.9110 H   0  0  0  0  0  0  0  0  0  0  0  0
   42.4730   32.3540   37.4530 C   0  0  0  0  0  0  0  0  0  0  0  0
   43.3010   32.0150   36.8270 H   0  0  0  0  0  0  0  0  0  0  0  0
   42.6750   33.5010   38.2090 C   0  0  0  0  0  3  0  0  0  0  0  0
   41.6070   33.9030   38.9920 C   0  0  0  0  0  3  0  0  0  0  0  0
   38.5400   34.1610   40.5590 N   0  0  0  0  0  0  0  0  0  0  0  0
   39.3760   33.7390   39.8850 C   0  0  0  0  0  0  0  0  0  0  0  0
   36.2430   29.4020   39.6580 C   0  0  0  0  0  0  0  0  0  0  0  0
   35.4680   29.8090   40.5700 O   0  0  0  0  0  0  0  0  0  0  0  0
   35.5420   27.5980   38.1610 C   0  0  0  0  0  0  0  0  0  0  0  0
   36.1590   28.0110   39.3530 C   0  0  0  0  0  0  0  0  0  0  0  0
   36.6450   26.9920   40.1470 C   0  0  0  0  0  0  0  0  0  0  0  0
   36.5430   25.7010   39.8200 N   0  0  0  0  0  0  0  0  0  0  0  0
   35.9350   25.3510   38.6490 C   0  0  0  0  0  0  0  0  0  0  0  0
   35.4390   26.3110   37.8300 N   0  0  0  0  0  0  0  0  0  0  0  0
   35.1230   28.3080   37.4560 H   0  0  0  0  0  0  0  0  0  0  0  0
   35.8780   24.2910   38.4300 H   0  0  0  0  0  0  0  0  0  0  0  0
   37.2760   27.3370   41.3670 C   0  0  0  0  0  0  0  0  0  0  0  0
   36.8720   27.5370   42.6500 C   0  0  0  0  0  0  0  0  0  0  0  0
   37.6820   27.8610   43.6340 C   0  0  0  0  0  0  0  0  0  0  0  0
   38.9850   27.9900   43.2980 C   0  0  0  0  0  0  0  0  0  0  0  0
   39.0270   27.6300   41.5020 S   0  0  0  0  0  0  0  0  0  0  0  0
   35.7780   27.3980   42.7810 H   0  0  0  0  0  0  0  0  0  0  0  0
   37.3920   28.0260   44.6640 H   0  0  0  0  0  0  0  0  0  0  0  0
   39.8750   28.2760   44.0370 H   0  0  0  0  0  0  0  0  0  0  0  0
  1  2  2  0  0  0  0
  1 20  1  0  0  0  0
  2  7  1  0  0  0  0
  3  2  1  0  0  0  0
  4  5  2  0  0  0  0
  4  3  1  0  0  0  0
  5  1  1  0  0  0  0
  6  4  1  0  0  0  0
  8  6  1  0  0  0  0
  9  6  1  0  0  0  0
 10 19  1  0  0  0  0
 11  3  1  0  0  0  0
 11 10  2  0  0  0  0
 12 11  1  0  0  0  0
 13 12  1  0  0  0  0
 14 12  2  0  0  0  0
 14 16  1  0  0  0  0
 15 14  1  0  0  0  0
 16 17  2  0  0  0  0
 17 10  1  0  0  0  0
 19 18  3  0  0  0  0
 20 21  2  0  0  0  0
 22 23  1  0  0  0  0
 23 20  1  0  0  0  0
 23 24  2  0  0  0  0
 24 30  1  0  0  0  0
 25 24  1  0  0  0  0
 26 25  2  0  0  0  0
 27 22  2  0  0  0  0
 27 26  1  0  0  0  0
 28 22  1  0  0  0  0
 29 26  1  0  0  0  0
 30 34  1  0  0  0  0
 30 31  2  0  0  0  0
 31 35  1  0  0  0  0
 31 32  1  0  0  0  0
 32 36  1  0  0  0  0
 33 32  2  0  0  0  0
 33 37  1  0  0  0  0
 34 33  1  0  0  0  0
M  END
>  <minimizedAffinity>
-5.97992945

$$$$

 OpenBabel03252503173D

 37 40  0  0  0  0  0  0  0  0999 V2000
   39.1960   32.0030   40.6430 C   0  0  0  0  0  0  0  0  0  0  0  0
   39.3890   30.7300   41.1430 C   0  0  0  0  0  0  0  0  0  0  0  0
   38.1570   30.2500   41.3840 N   0  0  0  0  0  0  0  0  0  0  0  0
   37.2490   31.1930   41.0440 C   0  0  0  0  0  0  0  0  0  0  0  0
   37.8920   32.2840   40.5830 N   0  0  0  0  0  0  0  0  0  0  0  0
   35.8190   31.1840   41.1040 N   0  0  0  0  0  0  0  0  0  0  0  0
   40.3110   30.2240   41.3080 H   0  0  0  0  0  0  0  0  0  0  0  0
   35.5450   30.7820   42.0210 H   0  0  0  0  0  0  0  0  0  0  0  0
   35.2430   31.5430   40.3080 H   0  0  0  0  0  0  0  0  0  0  0  0
   37.5530   27.9690   41.0090 C   0  0  0  0  0  0  0  0  0  0  0  0
   37.7610   28.9990   41.8970 C   0  0  0  0  0  0  0  0  0  0  0  0
   37.5630   28.7210   43.2350 C   0  0  0  0  0  0  0  0  0  0  0  0
   37.7270   29.5270   43.9240 H   0  0  0  0  0  0  0  0  0  0  0  0
   37.1730   27.4680   43.6780 C   0  0  0  0  0  0  0  0  0  0  0  0
   37.0190   27.2590   44.7390 H   0  0  0  0  0  0  0  0  0  0  0  0
   36.9610   26.4260   42.7870 C   0  0  0  0  0  3  0  0  0  0  0  0
   37.1640   26.7240   41.4520 C   0  0  0  0  0  3  0  0  0  0  0  0
   37.8690   28.2950   38.4620 N   0  0  0  0  0  0  0  0  0  0  0  0
   37.7320   28.1560   39.6000 C   0  0  0  0  0  0  0  0  0  0  0  0
   40.2820   32.9620   40.2180 C   0  0  0  0  0  0  0  0  0  0  0  0
   40.4200   34.1280   40.6880 O   0  0  0  0  0  0  0  0  0  0  0  0
   40.8630   32.5720   37.8740 C   0  0  0  0  0  0  0  0  0  0  0  0
   41.2350   32.5790   39.2290 C   0  0  0  0  0  0  0  0  0  0  0  0
   42.5370   32.2000   39.4840 C   0  0  0  0  0  0  0  0  0  0  0  0
   43.3950   31.8480   38.5220 N   0  0  0  0  0  0  0  0  0  0  0  0
   42.9860   31.8580   37.2200 C   0  0  0  0  0  0  0  0  0  0  0  0
   41.7170   32.2220   36.9110 N   0  0  0  0  0  0  0  0  0  0  0  0
   39.8670   32.8510   37.5510 H   0  0  0  0  0  0  0  0  0  0  0  0
   43.7200   31.5640   36.4780 H   0  0  0  0  0  0  0  0  0  0  0  0
   42.9780   32.1800   40.8290 C   0  0  0  0  0  0  0  0  0  0  0  0
   42.8930   31.3080   41.8690 C   0  0  0  0  0  0  0  0  0  0  0  0
   43.4040   31.5320   43.0600 C   0  0  0  0  0  0  0  0  0  0  0  0
   44.0400   32.7150   43.2080 C   0  0  0  0  0  0  0  0  0  0  0  0
   43.8910   33.5180   41.5680 S   0  0  0  0  0  0  0  0  0  0  0  0
   42.3440   30.3790   41.6050 H   0  0  0  0  0  0  0  0  0  0  0  0
   43.3540   30.8600   43.9070 H   0  0  0  0  0  0  0  0  0  0  0  0
   44.5690   33.1080   44.2010 H   0  0  0  0  0  0  0  0  0  0  0  0
  1  2  2  0  0  0  0
  2  7  1  0  0  0  0
  2  3  1  0  0  0  0
  3 11  1  0  0  0  0
  4  6  1  0  0  0  0
  4  3  1  0  0  0  0
  5  1  1  0  0  0  0
  5  4  2  0  0  0  0
  6  8  1  0  0  0  0
  9  6  1  0  0  0  0
 10 17  2  0  0  0  0
 10 11  1  0  0  0  0
 11 12  2  0  0  0  0
 12 14  1  0  0  0  0
 12 13  1  0  0  0  0
 14 15  1  0  0  0  0
 16 14  2  0  0  0  0
 17 16  1  0  0  0  0
 18 19  3  0  0  0  0
 19 10  1  0  0  0  0
 20  1  1  0  0  0  0
 20 21  2  0  0  0  0
 22 23  1  0  0  0  0
 23 24  2  0  0  0  0
 23 20  1  0  0  0  0
 24 30  1  0  0  0  0
 25 24  1  0  0  0  0
 26 25  2  0  0  0  0
 27 26  1  0  0  0  0
 27 22  2  0  0  0  0
 28 22  1  0  0  0  0
 29 26  1  0  0  0  0
 30 34  1  0  0  0  0
 30 31  2  0  0  0  0
 31 32  1  0  0  0  0
 32 33  2  0  0  0  0
 32 36  1  0  0  0  0
 33 37  1  0  0  0  0
 34 33  1  0  0  0  0
 35 31  1  0  0  0  0
M  END
>  <minimizedAffinity>
-5.87058163

$$$$

 OpenBabel03252503173D

 37 40  0  0  0  0  0  0  0  0999 V2000
   37.8290   30.1480   41.1130 C   0  0  0  0  0  0  0  0  0  0  0  0
   38.7900   29.1540   41.1190 C   0  0  0  0  0  0  0  0  0  0  0  0
   38.3120   28.2010   41.9380 N   0  0  0  0  0  0  0  0  0  0  0  0
   37.1090   28.5980   42.4120 C   0  0  0  0  0  0  0  0  0  0  0  0
   36.8070   29.8080   41.9010 N   0  0  0  0  0  0  0  0  0  0  0  0
   36.1950   27.9560   43.3070 N   0  0  0  0  0  0  0  0  0  0  0  0
   39.7140   29.1340   40.5930 H   0  0  0  0  0  0  0  0  0  0  0  0
   36.7470   27.5700   44.0970 H   0  0  0  0  0  0  0  0  0  0  0  0
   35.1680   27.9360   43.1070 H   0  0  0  0  0  0  0  0  0  0  0  0
   38.5450   25.8520   41.5740 C   0  0  0  0  0  0  0  0  0  0  0  0
   38.8780   26.9650   42.3090 C   0  0  0  0  0  0  0  0  0  0  0  0
   39.7490   26.7800   43.3640 C   0  0  0  0  0  0  0  0  0  0  0  0
   40.0060   27.6520   43.9360 H   0  0  0  0  0  0  0  0  0  0  0  0
   40.2720   25.5380   43.6800 C   0  0  0  0  0  0  0  0  0  0  0  0
   40.9610   25.4030   44.5160 H   0  0  0  0  0  0  0  0  0  0  0  0
   39.9400   24.4110   42.9410 C   0  0  0  0  0  3  0  0  0  0  0  0
   39.0670   24.6160   41.8880 C   0  0  0  0  0  3  0  0  0  0  0  0
   36.9360   26.0030   39.5530 N   0  0  0  0  0  0  0  0  0  0  0  0
   37.6490   25.9390   40.4590 C   0  0  0  0  0  0  0  0  0  0  0  0
   37.8980   31.4420   40.3390 C   0  0  0  0  0  0  0  0  0  0  0  0
   36.9480   32.2720   40.2610 O   0  0  0  0  0  0  0  0  0  0  0  0
   40.0500   32.6040   40.2620 C   0  0  0  0  0  0  0  0  0  0  0  0
   39.0860   31.7980   39.6340 C   0  0  0  0  0  0  0  0  0  0  0  0
   39.3920   31.4100   38.3450 C   0  0  0  0  0  0  0  0  0  0  0  0
   40.5190   31.7700   37.7250 N   0  0  0  0  0  0  0  0  0  0  0  0
   41.4250   32.5540   38.3780 C   0  0  0  0  0  0  0  0  0  0  0  0
   41.1770   32.9640   39.6460 N   0  0  0  0  0  0  0  0  0  0  0  0
   39.9210   32.9700   41.2750 H   0  0  0  0  0  0  0  0  0  0  0  0
   42.3230   32.8170   37.8300 H   0  0  0  0  0  0  0  0  0  0  0  0
   38.4620   30.6000   37.6510 C   0  0  0  0  0  0  0  0  0  0  0  0
   37.2900   30.8060   36.9930 C   0  0  0  0  0  0  0  0  0  0  0  0
   36.5940   29.8520   36.4130 C   0  0  0  0  0  0  0  0  0  0  0  0
   37.1180   28.6110   36.5050 C   0  0  0  0  0  0  0  0  0  0  0  0
   38.6640   28.8410   37.4610 S   0  0  0  0  0  0  0  0  0  0  0  0
   36.9800   31.8730   36.9960 H   0  0  0  0  0  0  0  0  0  0  0  0
   35.6610   29.9850   35.8810 H   0  0  0  0  0  0  0  0  0  0  0  0
   36.6480   27.6150   36.0500 H   0  0  0  0  0  0  0  0  0  0  0  0
  1  2  2  0  0  0  0
  1  5  1  0  0  0  0
  2  3  1  0  0  0  0
  3 11  1  0  0  0  0
  3  4  1  0  0  0  0
  4  6  1  0  0  0  0
  5  4  2  0  0  0  0
  6  8  1  0  0  0  0
  7  2  1  0  0  0  0
  9  6  1  0  0  0  0
 10 17  2  0  0  0  0
 10 11  1  0  0  0  0
 11 12  2  0  0  0  0
 12 14  1  0  0  0  0
 12 13  1  0  0  0  0
 14 15  1  0  0  0  0
 16 14  2  0  0  0  0
 17 16  1  0  0  0  0
 18 19  3  0  0  0  0
 19 10  1  0  0  0  0
 20  1  1  0  0  0  0
 21 20  2  0  0  0  0
 22 28  1  0  0  0  0
 23 22  2  0  0  0  0
 23 20  1  0  0  0  0
 24 23  1  0  0  0  0
 25 24  2  0  0  0  0
 25 26  1  0  0  0  0
 26 27  2  0  0  0  0
 27 22  1  0  0  0  0
 29 26  1  0  0  0  0
 30 24  1  0  0  0  0
 31 35  1  0  0  0  0
 31 30  2  0  0  0  0
 32 33  2  0  0  0  0
 32 31  1  0  0  0  0
 33 34  1  0  0  0  0
 34 30  1  0  0  0  0
 36 32  1  0  0  0  0
 37 33  1  0  0  0  0
M  END
>  <minimizedAffinity>
-5.79725933

$$$$

 OpenBabel03252503173D

 37 40  0  0  0  0  0  0  0  0999 V2000
   37.9270   31.0330   39.5660 C   0  0  0  0  0  0  0  0  0  0  0  0
   39.2490   31.3850   39.7600 C   0  0  0  0  0  0  0  0  0  0  0  0
   39.6580   31.8970   38.5860 N   0  0  0  0  0  0  0  0  0  0  0  0
   38.6270   31.8580   37.7120 C   0  0  0  0  0  0  0  0  0  0  0  0
   37.5500   31.3210   38.3180 N   0  0  0  0  0  0  0  0  0  0  0  0
   38.5380   32.2770   36.3460 N   0  0  0  0  0  0  0  0  0  0  0  0
   39.8310   31.2800   40.6440 H   0  0  0  0  0  0  0  0  0  0  0  0
   39.3930   31.9450   35.8590 H   0  0  0  0  0  0  0  0  0  0  0  0
   37.7130   32.8190   36.0000 H   0  0  0  0  0  0  0  0  0  0  0  0
   41.8050   31.5730   37.5900 C   0  0  0  0  0  0  0  0  0  0  0  0
   40.9160   32.4140   38.2180 C   0  0  0  0  0  0  0  0  0  0  0  0
   41.3330   33.7110   38.4400 C   0  0  0  0  0  0  0  0  0  0  0  0
   40.6370   34.3640   38.9300 H   0  0  0  0  0  0  0  0  0  0  0  0
   42.5840   34.1600   38.0530 C   0  0  0  0  0  0  0  0  0  0  0  0
   42.9040   35.1890   38.2340 H   0  0  0  0  0  0  0  0  0  0  0  0
   43.4850   33.3160   37.4190 C   0  0  0  0  0  3  0  0  0  0  0  0
   43.0500   32.0200   37.2060 C   0  0  0  0  0  3  0  0  0  0  0  0
   41.2010   29.1040   37.1050 N   0  0  0  0  0  0  0  0  0  0  0  0
   41.4670   30.2070   37.3150 C   0  0  0  0  0  0  0  0  0  0  0  0
   37.0160   30.4090   40.5950 C   0  0  0  0  0  0  0  0  0  0  0  0
   36.0970   31.0340   41.1980 O   0  0  0  0  0  0  0  0  0  0  0  0
   37.9580   28.6790   42.0460 C   0  0  0  0  0  0  0  0  0  0  0  0
   37.1600   29.0340   40.9460 C   0  0  0  0  0  0  0  0  0  0  0  0
   36.5680   27.9780   40.2840 C   0  0  0  0  0  0  0  0  0  0  0  0
   36.7330   26.7040   40.6500 N   0  0  0  0  0  0  0  0  0  0  0  0
   37.5190   26.4100   41.7270 C   0  0  0  0  0  0  0  0  0  0  0  0
   38.1240   27.4090   42.4150 N   0  0  0  0  0  0  0  0  0  0  0  0
   38.4730   29.4220   42.6450 H   0  0  0  0  0  0  0  0  0  0  0  0
   37.6190   25.3610   41.9820 H   0  0  0  0  0  0  0  0  0  0  0  0
   35.7530   28.2630   39.1620 C   0  0  0  0  0  0  0  0  0  0  0  0
   34.5120   28.7820   38.9650 C   0  0  0  0  0  0  0  0  0  0  0  0
   33.9640   28.9500   37.7810 C   0  0  0  0  0  0  0  0  0  0  0  0
   34.7210   28.5680   36.7290 C   0  0  0  0  0  0  0  0  0  0  0  0
   36.2700   27.9490   37.4860 S   0  0  0  0  0  0  0  0  0  0  0  0
   34.0060   29.0520   39.9160 H   0  0  0  0  0  0  0  0  0  0  0  0
   32.9800   29.3610   37.5920 H   0  0  0  0  0  0  0  0  0  0  0  0
   34.4110   28.6360   35.5810 H   0  0  0  0  0  0  0  0  0  0  0  0
  1  2  2  0  0  0  0
  1 20  1  0  0  0  0
  2  7  1  0  0  0  0
  3  2  1  0  0  0  0
  4  5  2  0  0  0  0
  4  3  1  0  0  0  0
  5  1  1  0  0  0  0
  6  4  1  0  0  0  0
  8  6  1  0  0  0  0
  9  6  1  0  0  0  0
 10 11  1  0  0  0  0
 11 12  2  0  0  0  0
 11  3  1  0  0  0  0
 12 13  1  0  0  0  0
 14 15  1  0  0  0  0
 14 12  1  0  0  0  0
 16 14  2  0  0  0  0
 17 16  1  0  0  0  0
 17 10  2  0  0  0  0
 18 19  3  0  0  0  0
 19 10  1  0  0  0  0
 20 23  1  0  0  0  0
 20 21  2  0  0  0  0
 22 27  1  0  0  0  0
 22 28  1  0  0  0  0
 23 22  2  0  0  0  0
 24 25  2  0  0  0  0
 24 23  1  0  0  0  0
 25 26  1  0  0  0  0
 26 29  1  0  0  0  0
 26 27  2  0  0  0  0
 30 24  1  0  0  0  0
 31 30  2  0  0  0  0
 31 35  1  0  0  0  0
 32 31  1  0  0  0  0
 33 34  1  0  0  0  0
 33 32  2  0  0  0  0
 34 30  1  0  0  0  0
 36 32  1  0  0  0  0
 37 33  1  0  0  0  0
M  END
>  <minimizedAffinity>
-5.61065292

$$$$

 OpenBabel03252503173D

 37 40  0  0  0  0  0  0  0  0999 V2000
   38.5600   30.8740   39.5630 C   0  0  0  0  0  0  0  0  0  0  0  0
   39.6150   29.9910   39.4320 C   0  0  0  0  0  0  0  0  0  0  0  0
   40.3100   30.4200   38.3650 N   0  0  0  0  0  0  0  0  0  0  0  0
   39.7030   31.5210   37.8650 C   0  0  0  0  0  0  0  0  0  0  0  0
   38.6150   31.8050   38.6070 N   0  0  0  0  0  0  0  0  0  0  0  0
   40.0380   32.3510   36.7480 N   0  0  0  0  0  0  0  0  0  0  0  0
   39.8410   29.1470   40.0400 H   0  0  0  0  0  0  0  0  0  0  0  0
   40.2890   31.7280   35.9570 H   0  0  0  0  0  0  0  0  0  0  0  0
   40.0030   33.3940   36.8210 H   0  0  0  0  0  0  0  0  0  0  0  0
   42.6950   30.3180   38.2690 C   0  0  0  0  0  0  0  0  0  0  0  0
   41.4800   29.8960   37.7810 C   0  0  0  0  0  0  0  0  0  0  0  0
   41.5060   28.9820   36.7470 C   0  0  0  0  0  0  0  0  0  0  0  0
   40.5560   28.6550   36.3690 H   0  0  0  0  0  0  0  0  0  0  0  0
   42.6910   28.5030   36.2150 C   0  0  0  0  0  0  0  0  0  0  0  0
   42.6990   27.7800   35.3960 H   0  0  0  0  0  0  0  0  0  0  0  0
   43.9190   28.9260   36.7030 C   0  0  0  0  0  3  0  0  0  0  0  0
   43.8730   29.8410   37.7390 C   0  0  0  0  0  3  0  0  0  0  0  0
   42.8290   32.0240   40.2110 N   0  0  0  0  0  0  0  0  0  0  0  0
   42.7760   31.2660   39.3420 C   0  0  0  0  0  0  0  0  0  0  0  0
   37.4840   30.8190   40.6210 C   0  0  0  0  0  0  0  0  0  0  0  0
   36.6300   31.7310   40.8090 O   0  0  0  0  0  0  0  0  0  0  0  0
   38.1320   29.6600   42.6750 C   0  0  0  0  0  0  0  0  0  0  0  0
   37.3830   29.6910   41.4880 C   0  0  0  0  0  0  0  0  0  0  0  0
   36.5900   28.5840   41.2640 C   0  0  0  0  0  0  0  0  0  0  0  0
   36.5290   27.5490   42.1060 N   0  0  0  0  0  0  0  0  0  0  0  0
   37.2760   27.5670   43.2480 C   0  0  0  0  0  0  0  0  0  0  0  0
   38.0730   28.6290   43.5190 N   0  0  0  0  0  0  0  0  0  0  0  0
   38.7920   30.4730   42.9600 H   0  0  0  0  0  0  0  0  0  0  0  0
   37.1900   26.7030   43.8980 H   0  0  0  0  0  0  0  0  0  0  0  0
   35.8110   28.5460   40.0820 C   0  0  0  0  0  0  0  0  0  0  0  0
   34.6230   29.0730   39.6800 C   0  0  0  0  0  0  0  0  0  0  0  0
   34.1000   28.8820   38.4890 C   0  0  0  0  0  0  0  0  0  0  0  0
   34.8240   28.1080   37.6510 C   0  0  0  0  0  0  0  0  0  0  0  0
   36.3060   27.6490   38.6250 S   0  0  0  0  0  0  0  0  0  0  0  0
   34.1380   29.6860   40.4690 H   0  0  0  0  0  0  0  0  0  0  0  0
   33.1580   29.2870   38.1390 H   0  0  0  0  0  0  0  0  0  0  0  0
   34.5290   27.8160   36.5340 H   0  0  0  0  0  0  0  0  0  0  0  0
  1 20  1  0  0  0  0
  2  1  2  0  0  0  0
  2  7  1  0  0  0  0
  3  2  1  0  0  0  0
  4  3  1  0  0  0  0
  4  5  2  0  0  0  0
  5  1  1  0  0  0  0
  6  9  1  0  0  0  0
  6  4  1  0  0  0  0
  8  6  1  0  0  0  0
 10 19  1  0  0  0  0
 11 10  1  0  0  0  0
 11  3  1  0  0  0  0
 12 11  2  0  0  0  0
 13 12  1  0  0  0  0
 14 16  2  0  0  0  0
 14 12  1  0  0  0  0
 15 14  1  0  0  0  0
 16 17  1  0  0  0  0
 17 10  2  0  0  0  0
 19 18  3  0  0  0  0
 20 21  2  0  0  0  0
 20 23  1  0  0  0  0
 22 28  1  0  0  0  0
 22 27  1  0  0  0  0
 23 22  2  0  0  0  0
 24 23  1  0  0  0  0
 24 25  2  0  0  0  0
 25 26  1  0  0  0  0
 26 27  2  0  0  0  0
 26 29  1  0  0  0  0
 30 24  1  0  0  0  0
 31 30  2  0  0  0  0
 31 35  1  0  0  0  0
 32 31  1  0  0  0  0
 33 32  2  0  0  0  0
 33 34  1  0  0  0  0
 34 30  1  0  0  0  0
 36 32  1  0  0  0  0
 37 33  1  0  0  0  0
M  END
>  <minimizedAffinity>
-5.6060729

$$$$

 OpenBabel03252503173D

 37 40  0  0  0  0  0  0  0  0999 V2000
   37.3630   30.2930   39.3730 C   0  0  0  0  0  0  0  0  0  0  0  0
   38.6860   30.6320   39.5840 C   0  0  0  0  0  0  0  0  0  0  0  0
   39.0390   31.3700   38.5170 N   0  0  0  0  0  0  0  0  0  0  0  0
   37.9740   31.4760   37.6900 C   0  0  0  0  0  0  0  0  0  0  0  0
   36.9310   30.8070   38.2200 N   0  0  0  0  0  0  0  0  0  0  0  0
   37.8230   32.1480   36.4350 N   0  0  0  0  0  0  0  0  0  0  0  0
   39.3050   30.3720   40.4090 H   0  0  0  0  0  0  0  0  0  0  0  0
   38.6630   31.9360   35.8620 H   0  0  0  0  0  0  0  0  0  0  0  0
   36.9760   32.7270   36.2310 H   0  0  0  0  0  0  0  0  0  0  0  0
   40.6160   33.1270   38.8830 C   0  0  0  0  0  0  0  0  0  0  0  0
   40.2730   31.9770   38.2100 C   0  0  0  0  0  0  0  0  0  0  0  0
   41.1740   31.5070   37.2760 C   0  0  0  0  0  0  0  0  0  0  0  0
   40.9030   30.6100   36.7530 H   0  0  0  0  0  0  0  0  0  0  0  0
   42.3730   32.1510   37.0180 C   0  0  0  0  0  0  0  0  0  0  0  0
   43.0790   31.7690   36.2780 H   0  0  0  0  0  0  0  0  0  0  0  0
   42.7240   33.3110   37.6950 C   0  0  0  0  0  3  0  0  0  0  0  0
   41.8090   33.7660   38.6260 C   0  0  0  0  0  3  0  0  0  0  0  0
   39.0440   34.1420   40.6710 N   0  0  0  0  0  0  0  0  0  0  0  0
   39.7480   33.6960   39.8720 C   0  0  0  0  0  0  0  0  0  0  0  0
   36.5050   29.4610   40.2960 C   0  0  0  0  0  0  0  0  0  0  0  0
   35.2430   29.4090   40.2340 O   0  0  0  0  0  0  0  0  0  0  0  0
   37.2930   29.2140   42.5980 C   0  0  0  0  0  0  0  0  0  0  0  0
   37.1040   28.6680   41.3180 C   0  0  0  0  0  0  0  0  0  0  0  0
   37.5350   27.3660   41.1650 C   0  0  0  0  0  0  0  0  0  0  0  0
   38.0930   26.6610   42.1540 N   0  0  0  0  0  0  0  0  0  0  0  0
   38.2530   27.2370   43.3810 C   0  0  0  0  0  0  0  0  0  0  0  0
   37.8480   28.5140   43.5880 N   0  0  0  0  0  0  0  0  0  0  0  0
   36.9940   30.2280   42.8400 H   0  0  0  0  0  0  0  0  0  0  0  0
   38.7110   26.6230   44.1490 H   0  0  0  0  0  0  0  0  0  0  0  0
   37.3810   26.7540   39.8980 C   0  0  0  0  0  0  0  0  0  0  0  0
   36.3970   26.0620   39.2630 C   0  0  0  0  0  0  0  0  0  0  0  0
   36.5050   25.5820   38.0430 C   0  0  0  0  0  0  0  0  0  0  0  0
   37.6840   25.8180   37.4260 C   0  0  0  0  0  0  0  0  0  0  0  0
   38.6580   26.7630   38.6570 S   0  0  0  0  0  0  0  0  0  0  0  0
   35.4860   25.9430   39.8870 H   0  0  0  0  0  0  0  0  0  0  0  0
   35.7420   25.0290   37.5110 H   0  0  0  0  0  0  0  0  0  0  0  0
   37.9820   25.4710   36.3260 H   0  0  0  0  0  0  0  0  0  0  0  0
  1  2  2  0  0  0  0
  1 20  1  0  0  0  0
  2  7  1  0  0  0  0
  3  2  1  0  0  0  0
  4  5  2  0  0  0  0
  4  3  1  0  0  0  0
  5  1  1  0  0  0  0
  6  4  1  0  0  0  0
  8  6  1  0  0  0  0
  9  6  1  0  0  0  0
 10 19  1  0  0  0  0
 11  3  1  0  0  0  0
 11 10  2  0  0  0  0
 12 11  1  0  0  0  0
 13 12  1  0  0  0  0
 14 12  2  0  0  0  0
 14 16  1  0  0  0  0
 15 14  1  0  0  0  0
 16 17  2  0  0  0  0
 17 10  1  0  0  0  0
 19 18  3  0  0  0  0
 20 23  1  0  0  0  0
 21 20  2  0  0  0  0
 22 28  1  0  0  0  0
 22 27  1  0  0  0  0
 23 22  2  0  0  0  0
 24 23  1  0  0  0  0
 24 25  2  0  0  0  0
 25 26  1  0  0  0  0
 26 27  2  0  0  0  0
 26 29  1  0  0  0  0
 30 24  1  0  0  0  0
 31 35  1  0  0  0  0
 31 30  2  0  0  0  0
 32 31  1  0  0  0  0
 33 32  2  0  0  0  0
 33 34  1  0  0  0  0
 34 30  1  0  0  0  0
 36 32  1  0  0  0  0
 37 33  1  0  0  0  0
M  END
>  <minimizedAffinity>
-5.59917164

$$$$

 OpenBabel03252503173D

 37 40  0  0  0  0  0  0  0  0999 V2000
   37.8360   30.4510   39.1020 C   0  0  0  0  0  0  0  0  0  0  0  0
   38.2430   29.1580   39.3710 C   0  0  0  0  0  0  0  0  0  0  0  0
   37.2020   28.5780   39.9920 N   0  0  0  0  0  0  0  0  0  0  0  0
   36.2000   29.4820   40.0970 C   0  0  0  0  0  0  0  0  0  0  0  0
   36.5920   30.6460   39.5450 N   0  0  0  0  0  0  0  0  0  0  0  0
   34.8920   29.3700   40.6690 N   0  0  0  0  0  0  0  0  0  0  0  0
   39.1780   28.7050   39.1410 H   0  0  0  0  0  0  0  0  0  0  0  0
   34.9870   28.8790   41.5780 H   0  0  0  0  0  0  0  0  0  0  0  0
   34.0530   29.7510   40.1740 H   0  0  0  0  0  0  0  0  0  0  0  0
   37.3220   27.0470   41.8210 C   0  0  0  0  0  0  0  0  0  0  0  0
   37.0650   27.2660   40.4880 C   0  0  0  0  0  0  0  0  0  0  0  0
   36.6900   26.1720   39.7350 C   0  0  0  0  0  0  0  0  0  0  0  0
   36.4900   26.3480   38.6950 H   0  0  0  0  0  0  0  0  0  0  0  0
   36.5720   24.9050   40.2810 C   0  0  0  0  0  0  0  0  0  0  0  0
   36.2750   24.0460   39.6760 H   0  0  0  0  0  0  0  0  0  0  0  0
   36.8300   24.6780   41.6260 C   0  0  0  0  0  3  0  0  0  0  0  0
   37.2050   25.7860   42.3640 C   0  0  0  0  0  3  0  0  0  0  0  0
   38.0320   28.9880   43.3760 N   0  0  0  0  0  0  0  0  0  0  0  0
   37.7180   28.1170   42.6880 C   0  0  0  0  0  0  0  0  0  0  0  0
   38.6580   31.5130   38.4100 C   0  0  0  0  0  0  0  0  0  0  0  0
   38.5770   31.7780   37.1770 O   0  0  0  0  0  0  0  0  0  0  0  0
   39.1530   33.4020   39.8840 C   0  0  0  0  0  0  0  0  0  0  0  0
   39.5980   32.2910   39.1480 C   0  0  0  0  0  0  0  0  0  0  0  0
   40.9550   32.0490   39.2120 C   0  0  0  0  0  0  0  0  0  0  0  0
   41.7980   32.8080   39.9180 N   0  0  0  0  0  0  0  0  0  0  0  0
   41.3160   33.8760   40.6160 C   0  0  0  0  0  0  0  0  0  0  0  0
   39.9910   34.1610   40.5900 N   0  0  0  0  0  0  0  0  0  0  0  0
   38.1080   33.6910   39.9110 H   0  0  0  0  0  0  0  0  0  0  0  0
   42.0420   34.4590   41.1730 H   0  0  0  0  0  0  0  0  0  0  0  0
   41.4730   30.9470   38.4900 C   0  0  0  0  0  0  0  0  0  0  0  0
   41.6270   29.6160   38.7210 C   0  0  0  0  0  0  0  0  0  0  0  0
   42.1560   28.7760   37.8580 C   0  0  0  0  0  0  0  0  0  0  0  0
   42.5550   29.3180   36.6860 C   0  0  0  0  0  0  0  0  0  0  0  0
   42.1470   31.0970   36.8480 S   0  0  0  0  0  0  0  0  0  0  0  0
   41.2570   29.3100   39.7220 H   0  0  0  0  0  0  0  0  0  0  0  0
   42.2920   27.7130   38.0110 H   0  0  0  0  0  0  0  0  0  0  0  0
   43.0550   28.7330   35.7770 H   0  0  0  0  0  0  0  0  0  0  0  0
  1  2  2  0  0  0  0
  1  5  1  0  0  0  0
  2  3  1  0  0  0  0
  3  4  1  0  0  0  0
  3 11  1  0  0  0  0
  4  6  1  0  0  0  0
  5  4  2  0  0  0  0
  6  8  1  0  0  0  0
  7  2  1  0  0  0  0
  9  6  1  0  0  0  0
 10 17  1  0  0  0  0
 10 19  1  0  0  0  0
 11 10  2  0  0  0  0
 12 14  2  0  0  0  0
 12 11  1  0  0  0  0
 13 12  1  0  0  0  0
 14 16  1  0  0  0  0
 15 14  1  0  0  0  0
 16 17  2  0  0  0  0
 19 18  3  0  0  0  0
 20  1  1  0  0  0  0
 20 23  1  0  0  0  0
 21 20  2  0  0  0  0
 22 28  1  0  0  0  0
 22 27  1  0  0  0  0
 23 24  1  0  0  0  0
 23 22  2  0  0  0  0
 24 25  2  0  0  0  0
 25 26  1  0  0  0  0
 26 29  1  0  0  0  0
 27 26  2  0  0  0  0
 30 31  2  0  0  0  0
 30 24  1  0  0  0  0
 31 35  1  0  0  0  0
 32 36  1  0  0  0  0
 32 31  1  0  0  0  0
 33 34  1  0  0  0  0
 33 32  2  0  0  0  0
 34 30  1  0  0  0  0
 37 33  1  0  0  0  0
M  END
>  <minimizedAffinity>
-5.59755754

$$$$

 OpenBabel03252503173D

 37 40  0  0  0  0  0  0  0  0999 V2000
   39.1350   29.8030   38.7260 C   0  0  0  0  0  0  0  0  0  0  0  0
   40.0770   30.2380   39.6380 C   0  0  0  0  0  0  0  0  0  0  0  0
   40.6430   31.3210   39.0790 N   0  0  0  0  0  0  0  0  0  0  0  0
   40.0690   31.5370   37.8730 C   0  0  0  0  0  0  0  0  0  0  0  0
   39.1320   30.5950   37.6510 N   0  0  0  0  0  0  0  0  0  0  0  0
   40.3080   32.5480   36.8880 N   0  0  0  0  0  0  0  0  0  0  0  0
   40.3140   29.8160   40.5860 H   0  0  0  0  0  0  0  0  0  0  0  0
   41.3360   32.6510   36.7840 H   0  0  0  0  0  0  0  0  0  0  0  0
   39.5140   33.0380   36.4140 H   0  0  0  0  0  0  0  0  0  0  0  0
   41.2940   33.2890   40.2640 C   0  0  0  0  0  0  0  0  0  0  0  0
   41.6620   32.1610   39.5700 C   0  0  0  0  0  0  0  0  0  0  0  0
   43.0150   31.9400   39.4070 C   0  0  0  0  0  0  0  0  0  0  0  0
   43.2980   31.0580   38.8650 H   0  0  0  0  0  0  0  0  0  0  0  0
   43.9700   32.8040   39.9140 C   0  0  0  0  0  0  0  0  0  0  0  0
   45.0380   32.6200   39.7800 H   0  0  0  0  0  0  0  0  0  0  0  0
   43.6050   33.9450   40.6170 C   0  0  0  0  0  3  0  0  0  0  0  0
   42.2450   34.1490   40.7690 C   0  0  0  0  0  3  0  0  0  0  0  0
   38.8050   33.8750   40.6560 N   0  0  0  0  0  0  0  0  0  0  0  0
   39.9150   33.6080   40.4870 C   0  0  0  0  0  0  0  0  0  0  0  0
   38.2270   28.6080   38.8910 C   0  0  0  0  0  0  0  0  0  0  0  0
   38.6300   27.4100   38.9080 O   0  0  0  0  0  0  0  0  0  0  0  0
   36.0180   28.9480   37.8960 C   0  0  0  0  0  0  0  0  0  0  0  0
   36.8200   28.7880   39.0380 C   0  0  0  0  0  0  0  0  0  0  0  0
   36.1440   28.8200   40.2410 C   0  0  0  0  0  0  0  0  0  0  0  0
   34.8220   28.9920   40.3290 N   0  0  0  0  0  0  0  0  0  0  0  0
   34.0860   29.1430   39.1900 C   0  0  0  0  0  0  0  0  0  0  0  0
   34.6980   29.1180   37.9800 N   0  0  0  0  0  0  0  0  0  0  0  0
   36.4360   28.9390   36.8950 H   0  0  0  0  0  0  0  0  0  0  0  0
   33.0180   29.2790   39.3160 H   0  0  0  0  0  0  0  0  0  0  0  0
   36.8910   28.6700   41.4330 C   0  0  0  0  0  0  0  0  0  0  0  0
   37.5810   29.4990   42.2620 C   0  0  0  0  0  0  0  0  0  0  0  0
   38.2120   29.0980   43.3450 C   0  0  0  0  0  0  0  0  0  0  0  0
   38.1400   27.7750   43.6050 C   0  0  0  0  0  0  0  0  0  0  0  0
   37.1270   27.0980   42.2370 S   0  0  0  0  0  0  0  0  0  0  0  0
   37.5560   30.5570   41.9270 H   0  0  0  0  0  0  0  0  0  0  0  0
   38.7680   29.7320   44.0240 H   0  0  0  0  0  0  0  0  0  0  0  0
   38.6380   27.2130   44.5300 H   0  0  0  0  0  0  0  0  0  0  0  0
  1 20  1  0  0  0  0
  1  2  2  0  0  0  0
  2  7  1  0  0  0  0
  3 11  1  0  0  0  0
  3  2  1  0  0  0  0
  4  3  1  0  0  0  0
  5  4  2  0  0  0  0
  5  1  1  0  0  0  0
  6  4  1  0  0  0  0
  8  6  1  0  0  0  0
  9  6  1  0  0  0  0
 10 19  1  0  0  0  0
 10 17  1  0  0  0  0
 11 10  2  0  0  0  0
 12 11  1  0  0  0  0
 12 14  2  0  0  0  0
 13 12  1  0  0  0  0
 14 16  1  0  0  0  0
 15 14  1  0  0  0  0
 16 17  2  0  0  0  0
 19 18  3  0  0  0  0
 20 21  2  0  0  0  0
 20 23  1  0  0  0  0
 22 27  2  0  0  0  0
 22 23  1  0  0  0  0
 23 24  2  0  0  0  0
 24 25  1  0  0  0  0
 24 30  1  0  0  0  0
 26 29  1  0  0  0  0
 26 25  2  0  0  0  0
 27 26  1  0  0  0  0
 28 22  1  0  0  0  0
 30 34  1  0  0  0  0
 30 31  2  0  0  0  0
 31 32  1  0  0  0  0
 32 33  2  0  0  0  0
 32 36  1  0  0  0  0
 33 37  1  0  0  0  0
 34 33  1  0  0  0  0
 35 31  1  0  0  0  0
M  END
>  <minimizedAffinity>
-5.59608746

$$$$

 OpenBabel03252503173D

 37 40  0  0  0  0  0  0  0  0999 V2000
   37.8180   29.1440   41.6990 C   0  0  0  0  0  0  0  0  0  0  0  0
   39.0020   29.5910   41.1430 C   0  0  0  0  0  0  0  0  0  0  0  0
   38.7160   30.7930   40.6150 N   0  0  0  0  0  0  0  0  0  0  0  0
   37.4100   31.0680   40.8400 C   0  0  0  0  0  0  0  0  0  0  0  0
   36.8500   30.0440   41.5130 N   0  0  0  0  0  0  0  0  0  0  0  0
   36.6160   32.2050   40.4860 N   0  0  0  0  0  0  0  0  0  0  0  0
   39.9450   29.0990   41.1290 H   0  0  0  0  0  0  0  0  0  0  0  0
   36.8380   32.4500   39.5020 H   0  0  0  0  0  0  0  0  0  0  0  0
   35.9590   32.6390   41.1750 H   0  0  0  0  0  0  0  0  0  0  0  0
   39.7120   31.5270   38.5720 C   0  0  0  0  0  0  0  0  0  0  0  0
   39.5500   31.6970   39.9270 C   0  0  0  0  0  0  0  0  0  0  0  0
   40.2250   32.7500   40.5100 C   0  0  0  0  0  0  0  0  0  0  0  0
   40.0960   32.8790   41.5680 H   0  0  0  0  0  0  0  0  0  0  0  0
   41.0320   33.6050   39.7790 C   0  0  0  0  0  0  0  0  0  0  0  0
   41.5610   34.4360   40.2510 H   0  0  0  0  0  0  0  0  0  0  0  0
   41.1990   33.4390   38.4110 C   0  0  0  0  0  3  0  0  0  0  0  0
   40.5150   32.3780   37.8450 C   0  0  0  0  0  3  0  0  0  0  0  0
   38.5230   29.5990   37.3200 N   0  0  0  0  0  0  0  0  0  0  0  0
   39.0540   30.4630   37.8720 C   0  0  0  0  0  0  0  0  0  0  0  0
   37.6170   27.8310   42.4180 C   0  0  0  0  0  0  0  0  0  0  0  0
   36.5360   27.4870   42.9740 O   0  0  0  0  0  0  0  0  0  0  0  0
   39.6130   26.9840   43.5510 C   0  0  0  0  0  0  0  0  0  0  0  0
   38.6820   26.8860   42.5040 C   0  0  0  0  0  0  0  0  0  0  0  0
   38.8950   25.8450   41.6230 C   0  0  0  0  0  0  0  0  0  0  0  0
   39.9090   24.9840   41.7430 N   0  0  0  0  0  0  0  0  0  0  0  0
   40.7870   25.1210   42.7800 C   0  0  0  0  0  0  0  0  0  0  0  0
   40.6260   26.1260   43.6750 N   0  0  0  0  0  0  0  0  0  0  0  0
   39.5490   27.7600   44.3050 H   0  0  0  0  0  0  0  0  0  0  0  0
   41.5920   24.3960   42.8320 H   0  0  0  0  0  0  0  0  0  0  0  0
   37.9970   25.6910   40.5390 C   0  0  0  0  0  0  0  0  0  0  0  0
   37.8050   26.2980   39.3380 C   0  0  0  0  0  0  0  0  0  0  0  0
   36.8670   25.9560   38.4820 C   0  0  0  0  0  0  0  0  0  0  0  0
   36.0730   24.9320   38.8660 C   0  0  0  0  0  0  0  0  0  0  0  0
   36.7100   24.4590   40.5170 S   0  0  0  0  0  0  0  0  0  0  0  0
   38.5290   27.1200   39.1540 H   0  0  0  0  0  0  0  0  0  0  0  0
   36.6900   26.4180   37.5190 H   0  0  0  0  0  0  0  0  0  0  0  0
   35.1700   24.4720   38.2400 H   0  0  0  0  0  0  0  0  0  0  0  0
  1 20  1  0  0  0  0
  2  1  2  0  0  0  0
  3  4  1  0  0  0  0
  3  2  1  0  0  0  0
  4  5  2  0  0  0  0
  5  1  1  0  0  0  0
  6  4  1  0  0  0  0
  6  9  1  0  0  0  0
  7  2  1  0  0  0  0
  8  6  1  0  0  0  0
 10 11  1  0  0  0  0
 11 12  2  0  0  0  0
 11  3  1  0  0  0  0
 12 13  1  0  0  0  0
 14 15  1  0  0  0  0
 14 12  1  0  0  0  0
 16 14  2  0  0  0  0
 17 16  1  0  0  0  0
 17 10  2  0  0  0  0
 18 19  3  0  0  0  0
 19 10  1  0  0  0  0
 20 23  1  0  0  0  0
 20 21  2  0  0  0  0
 22 27  1  0  0  0  0
 22 28  1  0  0  0  0
 23 22  2  0  0  0  0
 24 25  2  0  0  0  0
 24 23  1  0  0  0  0
 25 26  1  0  0  0  0
 26 29  1  0  0  0  0
 26 27  2  0  0  0  0
 30 24  1  0  0  0  0
 31 30  2  0  0  0  0
 32 33  2  0  0  0  0
 32 31  1  0  0  0  0
 33 34  1  0  0  0  0
 34 30  1  0  0  0  0
 35 31  1  0  0  0  0
 36 32  1  0  0  0  0
 37 33  1  0  0  0  0
M  END
>  <minimizedAffinity>
-5.59123564

$$$$
