
 OpenBabel03252504463D

 28 29  0  0  0  0  0  0  0  0999 V2000
   45.0250   31.2210   49.5580 O   0  0  0  0  0  0  0  0  0  0  0  0
   45.6980   31.0610   48.1870 P   0  0  1  0  0  0  0  0  0  0  0  0
   44.4550   30.4800   47.1690 O   0  0  0  0  0  0  0  0  0  0  0  0
   44.7630   29.8030   46.5410 H   0  0  0  0  0  0  0  0  0  0  0  0
   46.2080   32.6080   47.7210 O   0  0  0  0  0  0  0  0  0  0  0  0
   45.3620   34.5110   44.7790 C   0  0  0  0  0  0  0  0  0  0  0  0
   46.2110   33.9520   43.8340 C   0  0  0  0  0  0  0  0  0  0  0  0
   47.0530   32.9250   44.2580 C   0  0  0  0  0  0  0  0  0  0  0  0
   47.0050   32.5300   45.5460 N   0  0  0  0  0  0  0  0  0  0  0  0
   46.1490   33.1160   46.4340 C   0  0  0  0  0  0  0  0  0  0  0  0
   45.3170   34.1160   46.0550 N   0  0  0  0  0  0  0  0  0  0  0  0
   46.2150   34.2990   42.8170 H   0  0  0  0  0  0  0  0  0  0  0  0
   47.7140   32.4840   43.5380 H   0  0  0  0  0  0  0  0  0  0  0  0
   44.4590   35.6220   44.3110 C   0  0  0  0  0  0  0  0  0  0  0  0
   44.1160   35.4160   43.2780 H   0  0  0  0  0  0  0  0  0  0  0  0
   45.1010   36.5340   44.3180 H   0  0  0  0  0  0  0  0  0  0  0  0
   43.6400   35.7610   45.0280 H   0  0  0  0  0  0  0  0  0  0  0  0
   46.9280   29.9630   48.1770 O   0  0  0  0  0  0  0  0  0  0  0  0
   49.3960   29.5720   47.7620 C   0  0  0  0  0  0  0  0  0  0  0  0
   48.2660   30.0680   48.3580 C   0  0  0  0  0  0  0  0  0  0  0  0
   48.4850   30.9170   49.4530 C   0  0  0  0  0  0  0  0  0  0  0  0
   47.7570   31.4380   50.0970 H   0  0  0  0  0  0  0  0  0  0  0  0
   49.7730   31.2330   49.9020 C   0  0  0  0  0  0  0  0  0  0  0  0
   50.0210   31.8750   50.7330 H   0  0  0  0  0  0  0  0  0  0  0  0
   50.8740   30.7030   49.2610 C   0  0  0  0  0  3  0  0  0  0  0  0
   50.6720   29.8670   48.1840 C   0  0  0  0  0  3  0  0  0  0  0  0
   48.9370   28.0150   45.7520 N   0  0  0  0  0  0  0  0  0  0  0  0
   49.1310   28.7140   46.6520 C   0  0  0  0  0  0  0  0  0  0  0  0
  2  1  2  1  0  0  0
  3  2  1  0  0  0  0
  4  3  1  0  0  0  0
  5  2  1  0  0  0  0
  6 11  1  0  0  0  0
  7  8  1  0  0  0  0
  7  6  2  0  0  0  0
  8  9  2  0  0  0  0
  9 10  1  0  0  0  0
 10  5  1  0  0  0  0
 11 10  2  0  0  0  0
 12  7  1  0  0  0  0
 13  8  1  0  0  0  0
 14 16  1  0  0  0  0
 14  6  1  0  0  0  0
 14 17  1  0  0  0  0
 15 14  1  0  0  0  0
 18  2  1  0  0  0  0
 18 20  1  0  0  0  0
 19 26  2  0  0  0  0
 19 20  1  0  0  0  0
 20 21  2  0  0  0  0
 21 23  1  0  0  0  0
 21 22  1  0  0  0  0
 23 24  1  0  0  0  0
 25 23  2  0  0  0  0
 26 25  1  0  0  0  0
 27 28  3  0  0  0  0
 28 19  1  0  0  0  0
M  END
>  <minimizedAffinity>
-4.80172968

>  <minimizedRMSD>
1.51396549

$$$$
