
 OpenBabel03242517283D

 41 43  0  0  1  0  0  0  0  0999 V2000
   44.9890   34.7280   44.9560 C   0  0  0  0  0  0  0  0  0  0  0  0
   45.8760   34.6460   43.8440 C   0  0  0  0  0  0  0  0  0  0  0  0
   46.9650   33.7600   43.9440 C   0  0  0  0  0  0  0  0  0  0  0  0
   47.1130   33.0370   45.0810 N   0  0  0  0  0  0  0  0  0  0  0  0
   46.2620   33.1340   46.1160 C   0  0  0  0  0  0  0  0  0  0  0  0
   45.2170   33.9760   46.0340 N   0  0  0  0  0  0  0  0  0  0  0  0
   46.4830   32.3520   47.2570 N   0  0  0  0  0  0  0  0  0  0  0  0
   47.7150   32.4730   47.9830 C   0  0  0  0  0  0  0  0  0  0  0  0
   47.9850   31.3260   48.9070 C   0  0  0  0  0  0  0  0  0  0  0  0
   46.8440   30.7210   49.4990 N   0  0  0  0  0  0  0  0  0  0  0  0
   45.6030   31.3770   49.1870 C   0  0  0  0  0  0  0  0  0  0  0  0
   45.4470   31.4260   47.6880 C   0  0  2  0  0  0  0  0  0  0  0  0
   44.1560   35.4100   44.8740 H   0  0  0  0  0  0  0  0  0  0  0  0
   45.7670   35.2110   42.9470 H   0  0  0  0  0  0  0  0  0  0  0  0
   47.6820   33.6490   43.1270 H   0  0  0  0  0  0  0  0  0  0  0  0
   47.7940   33.4520   48.5290 H   0  0  0  0  0  0  0  0  0  0  0  0
   48.5370   32.4890   47.2320 H   0  0  0  0  0  0  0  0  0  0  0  0
   48.6010   30.5350   48.4270 H   0  0  0  0  0  0  0  0  0  0  0  0
   48.6130   31.7300   49.7460 H   0  0  0  0  0  0  0  0  0  0  0  0
   46.8060   29.6980   49.5200 H   0  0  0  0  0  0  0  0  0  0  0  0
   44.7800   30.7920   49.6420 H   0  0  0  0  0  0  0  0  0  0  0  0
   45.6000   32.4050   49.5660 H   0  0  0  0  0  0  0  0  0  0  0  0
   44.4680   31.8960   47.4680 H   0  0  0  0  0  0  0  0  0  0  0  0
   45.5980   30.0790   47.0610 C   0  0  0  0  0  0  0  0  0  0  0  0
   45.2760   30.1220   46.0080 H   0  0  0  0  0  0  0  0  0  0  0  0
   46.6570   29.7650   47.1960 H   0  0  0  0  0  0  0  0  0  0  0  0
   44.7590   29.1100   47.8630 C   0  0  0  0  0  3  0  0  0  0  0  0
   45.1070   27.8470   47.9950 C   0  0  0  0  0  3  0  0  0  0  0  0
   44.3320   26.8300   48.7670 C   0  0  0  0  0  0  0  0  0  0  0  0
   43.3280   27.1750   49.0430 H   0  0  0  0  0  0  0  0  0  0  0  0
   44.9230   26.4920   49.6440 H   0  0  0  0  0  0  0  0  0  0  0  0
   45.0440   24.5750   47.8320 C   0  0  0  0  0  0  0  0  0  0  0  0
   44.1850   25.6580   47.8590 C   0  0  0  0  0  0  0  0  0  0  0  0
   43.1140   25.6120   46.9570 C   0  0  0  0  0  0  0  0  0  0  0  0
   42.4380   26.4660   46.9790 H   0  0  0  0  0  0  0  0  0  0  0  0
   42.8620   24.5880   46.0650 C   0  0  0  0  0  0  0  0  0  0  0  0
   42.0030   24.6740   45.4250 H   0  0  0  0  0  0  0  0  0  0  0  0
   43.7420   23.5290   46.0720 C   0  0  0  0  0  3  0  0  0  0  0  0
   44.8060   23.5300   46.9390 C   0  0  0  0  0  3  0  0  0  0  0  0
   47.0410   24.5650   49.4640 N   0  0  0  0  0  0  0  0  0  0  0  0
   46.1460   24.5740   48.7280 C   0  0  0  0  0  0  0  0  0  0  0  0
  1  6  1  0  0  0  0
  2  3  1  0  0  0  0
  2  1  2  0  0  0  0
  3  4  2  0  0  0  0
  4  5  1  0  0  0  0
  5  7  1  0  0  0  0
  6  5  2  0  0  0  0
  7 12  1  0  0  0  0
  7  8  1  0  0  0  0
  8 16  1  0  0  0  0
  8  9  1  0  0  0  0
  9 10  1  0  0  0  0
  9 19  1  0  0  0  0
 10 20  1  0  0  0  0
 11 10  1  0  0  0  0
 11 22  1  0  0  0  0
 11 21  1  0  0  0  0
 12 23  1  6  0  0  0
 12 11  1  0  0  0  0
 13  1  1  0  0  0  0
 14  2  1  0  0  0  0
 15  3  1  0  0  0  0
 17  8  1  0  0  0  0
 18  9  1  0  0  0  0
 24 26  1  0  0  0  0
 24 12  1  0  0  0  0
 24 27  1  0  0  0  0
 25 24  1  0  0  0  0
 27 28  2  0  0  0  0
 28 29  1  0  0  0  0
 29 30  1  0  0  0  0
 29 31  1  0  0  0  0
 32 33  1  0  0  0  0
 32 41  1  0  0  0  0
 33 29  1  0  0  0  0
 34 35  1  0  0  0  0
 34 33  2  0  0  0  0
 36 38  2  0  0  0  0
 36 34  1  0  0  0  0
 37 36  1  0  0  0  0
 38 39  1  0  0  0  0
 39 32  2  0  0  0  0
 41 40  3  0  0  0  0
M  END
>  <minimizedAffinity>
-5.67208576

>  <minimizedRMSD>
0.865087748

$$$$
