
 OpenBabel03252507463D

 38 40  0  0  0  0  0  0  0  0999 V2000
   47.1080   34.2940   40.8130 C   0  0  0  0  0  0  0  0  0  0  0  0
   47.2580   35.0440   40.0030 H   0  0  0  0  0  0  0  0  0  0  0  0
   46.4810   33.4350   40.4970 H   0  0  0  0  0  0  0  0  0  0  0  0
   48.4440   33.8870   41.2610 C   0  0  0  0  0  0  0  0  0  0  0  0
   48.8750   32.6430   40.8280 C   0  0  0  0  0  0  0  0  0  0  0  0
   50.1300   32.1600   41.2130 C   0  0  0  0  0  0  0  0  0  0  0  0
   50.8930   32.9590   42.0200 N   0  0  0  0  0  0  0  0  0  0  0  0
   50.4290   34.1690   42.4170 C   0  0  0  0  0  0  0  0  0  0  0  0
   49.2310   34.6030   42.0360 N   0  0  0  0  0  0  0  0  0  0  0  0
   50.4310   31.1900   40.8590 H   0  0  0  0  0  0  0  0  0  0  0  0
   51.0120   34.8170   43.0540 H   0  0  0  0  0  0  0  0  0  0  0  0
   47.8500   31.5970   39.7810 S   0  0  0  0  0  0  0  0  0  0  0  0
   47.5720   32.3290   37.0090 C   0  0  0  0  0  0  0  0  0  0  0  0
   48.2680   31.7840   38.0610 C   0  0  0  0  0  0  0  0  0  0  0  0
   49.5390   31.2560   37.7980 C   0  0  0  0  0  0  0  0  0  0  0  0
   50.2260   30.7880   38.5070 H   0  0  0  0  0  0  0  0  0  0  0  0
   50.0950   31.2740   36.5210 C   0  0  0  0  0  0  0  0  0  0  0  0
   51.0530   30.8900   36.2590 H   0  0  0  0  0  0  0  0  0  0  0  0
   49.3660   31.8340   35.4710 C   0  0  0  0  0  3  0  0  0  0  0  0
   48.1260   32.3440   35.7530 C   0  0  0  0  0  3  0  0  0  0  0  0
   45.2290   33.2180   37.6160 N   0  0  0  0  0  0  0  0  0  0  0  0
   46.2890   32.8220   37.3510 C   0  0  0  0  0  0  0  0  0  0  0  0
   46.3120   35.0010   41.8820 C   0  0  0  0  0  0  0  0  0  0  0  0
   46.6340   36.0640   41.9510 H   0  0  0  0  0  0  0  0  0  0  0  0
   46.5150   34.5530   42.8840 H   0  0  0  0  0  0  0  0  0  0  0  0
   44.8370   34.9430   41.6790 C   0  0  0  0  0  0  0  0  0  0  0  0
   43.9690   35.4340   42.7020 C   0  0  0  0  0  0  0  0  0  0  0  0
   42.3000   35.1480   41.9950 S   0  0  0  0  0  0  0  0  0  0  0  0
   43.0690   34.4040   40.4180 C   0  0  0  0  0  0  0  0  0  0  0  0
   44.1820   34.4840   40.6490 N   0  0  0  0  0  0  0  0  0  0  0  0
   44.2620   35.8660   43.6550 H   0  0  0  0  0  0  0  0  0  0  0  0
   42.3070   33.9310   39.3490 O   0  0  0  0  0  0  0  0  0  0  0  0
   40.3900   34.3980   37.5850 O   0  0  0  0  0  0  0  0  0  0  0  0
   41.4700   35.0700   38.4170 P   0  0  0  0  0  0  0  0  0  0  0  0
   40.7420   36.1710   39.4690 O   0  0  0  0  0  0  0  0  0  0  0  0
   39.9220   35.7280   39.8170 H   0  0  0  0  0  0  0  0  0  0  0  0
   42.5680   35.9130   37.4310 O   0  0  0  0  0  0  0  0  0  0  0  0
   42.9010   35.3330   36.7030 H   0  0  0  0  0  0  0  0  0  0  0  0
  1  4  1  0  0  0  0
  1 23  1  0  0  0  0
  2  1  1  0  0  0  0
  3  1  1  0  0  0  0
  4  9  1  0  0  0  0
  5  6  1  0  0  0  0
  5  4  2  0  0  0  0
  6  7  2  0  0  0  0
  7  8  1  0  0  0  0
  8 11  1  0  0  0  0
  9  8  2  0  0  0  0
 10  6  1  0  0  0  0
 12  5  1  0  0  0  0
 13 22  1  0  0  0  0
 13 14  1  0  0  0  0
 14 12  1  0  0  0  0
 15 14  2  0  0  0  0
 15 16  1  0  0  0  0
 17 15  1  0  0  0  0
 18 17  1  0  0  0  0
 19 20  1  0  0  0  0
 19 17  2  0  0  0  0
 20 13  2  0  0  0  0
 22 21  3  0  0  0  0
 23 24  1  0  0  0  0
 23 25  1  0  0  0  0
 26 23  1  0  0  0  0
 26 27  2  0  0  0  0
 27 31  1  0  0  0  0
 28 27  1  0  0  0  0
 29 30  2  0  0  0  0
 29 28  1  0  0  0  0
 30 26  1  0  0  0  0
 32 29  1  0  0  0  0
 33 34  2  0  0  0  0
 34 32  1  0  0  0  0
 34 35  1  0  0  0  0
 35 36  1  0  0  0  0
 37 34  1  0  0  0  0
 38 37  1  0  0  0  0
M  END
>  <minimizedAffinity>
-4.82607222

>  <minimizedRMSD>
0.22215192

$$$$
