
 OpenBabel03252509233D

 28 30  0  0  1  0  0  0  0  0999 V2000
   46.5310   35.0770   41.9470 C   0  0  1  0  0  0  0  0  0  0  0  0
   48.0730   35.2180   41.9070 C   0  0  0  0  0  0  0  0  0  0  0  0
   47.2560   34.0520   41.2900 C   0  0  2  0  0  0  0  0  0  0  0  0
   46.0010   35.9010   41.4420 H   0  0  0  0  0  0  0  0  0  0  0  0
   48.6600   35.0000   42.7910 H   0  0  0  0  0  0  0  0  0  0  0  0
   48.4200   35.9930   41.1990 H   0  0  0  0  0  0  0  0  0  0  0  0
   47.4580   33.0740   41.7730 H   0  0  0  0  0  0  0  0  0  0  0  0
   44.6670   35.3750   45.1940 C   0  0  0  0  0  0  0  0  0  0  0  0
   45.1170   35.6970   43.8880 C   0  0  0  0  0  0  0  0  0  0  0  0
   46.0620   34.8510   43.3710 C   0  0  0  0  0  0  0  0  0  0  0  0
   46.5380   33.7660   44.0810 N   0  0  0  0  0  0  0  0  0  0  0  0
   46.0840   33.4990   45.3190 C   0  0  0  0  0  0  0  0  0  0  0  0
   45.1450   34.3040   45.8800 N   0  0  0  0  0  0  0  0  0  0  0  0
   43.9170   36.0410   45.6100 H   0  0  0  0  0  0  0  0  0  0  0  0
   46.4310   32.6610   45.9050 H   0  0  0  0  0  0  0  0  0  0  0  0
   44.6470   36.8330   43.1670 N   0  0  0  0  0  0  0  0  0  0  0  0
   43.8440   36.9420   42.5410 H   0  0  0  0  0  0  0  0  0  0  0  0
   45.3330   37.5830   43.4270 H   0  0  0  0  0  0  0  0  0  0  0  0
   46.3200   33.2370   39.1090 C   0  0  0  0  0  0  0  0  0  0  0  0
   47.2890   33.9340   39.8040 C   0  0  0  0  0  0  0  0  0  0  0  0
   48.3430   34.5580   39.1370 C   0  0  0  0  0  0  0  0  0  0  0  0
   49.1320   35.1220   39.6460 H   0  0  0  0  0  0  0  0  0  0  0  0
   48.4130   34.4750   37.7460 C   0  0  0  0  0  0  0  0  0  0  0  0
   49.2290   34.9550   37.1950 H   0  0  0  0  0  0  0  0  0  0  0  0
   47.4330   33.7710   37.0730 C   0  0  0  0  0  3  0  0  0  0  0  0
   46.3780   33.1450   37.7190 C   0  0  0  0  0  3  0  0  0  0  0  0
   44.3720   32.0820   40.3810 N   0  0  0  0  0  0  0  0  0  0  0  0
   45.2460   32.6030   39.8140 C   0  0  0  0  0  0  0  0  0  0  0  0
  1  4  1  6  0  0  0
  1 10  1  0  0  0  0
  2  1  1  0  0  0  0
  2  5  1  0  0  0  0
  3  7  1  1  0  0  0
  3  2  1  0  0  0  0
  3  1  1  0  0  0  0
  6  2  1  0  0  0  0
  8 14  1  0  0  0  0
  8 13  1  0  0  0  0
  9  8  2  0  0  0  0
 10  9  1  0  0  0  0
 10 11  2  0  0  0  0
 11 12  1  0  0  0  0
 12 13  2  0  0  0  0
 12 15  1  0  0  0  0
 16 18  1  0  0  0  0
 16  9  1  0  0  0  0
 17 16  1  0  0  0  0
 19 20  1  0  0  0  0
 19 28  1  0  0  0  0
 20  3  1  0  0  0  0
 21 22  1  0  0  0  0
 21 20  2  0  0  0  0
 23 21  1  0  0  0  0
 24 23  1  0  0  0  0
 25 26  1  0  0  0  0
 25 23  2  0  0  0  0
 26 19  2  0  0  0  0
 28 27  3  0  0  0  0
M  END
>  <minimizedAffinity>
-5.41741657

>  <minimizedRMSD>
0.66699034

$$$$
