
 OpenBabel03252506483D

 43 46  0  0  1  0  0  0  0  0999 V2000
   39.8860   32.1870   39.8340 N   0  0  1  0  0  0  0  0  0  0  0  0
   39.1790   33.4370   39.7810 C   0  0  0  0  0  0  0  0  0  0  0  0
   37.7140   33.3360   40.1040 C   0  0  0  0  0  0  0  0  0  0  0  0
   37.0230   32.4960   39.0620 C   0  0  0  0  0  0  0  0  0  0  0  0
   37.9320   31.4160   38.5520 C   0  0  0  0  0  0  0  0  0  0  0  0
   38.9640   31.0910   39.6150 C   0  0  2  0  0  0  0  0  0  0  0  0
   39.2890   33.9130   38.7930 H   0  0  0  0  0  0  0  0  0  0  0  0
   39.6640   34.1520   40.5030 H   0  0  0  0  0  0  0  0  0  0  0  0
   37.4870   33.0960   41.1360 H   0  0  0  0  0  0  0  0  0  0  0  0
   37.3230   34.3920   39.9210 H   0  0  0  0  0  0  0  0  0  0  0  0
   36.7150   33.1150   38.1890 H   0  0  0  0  0  0  0  0  0  0  0  0
   36.0840   32.0970   39.4960 H   0  0  0  0  0  0  0  0  0  0  0  0
   38.5550   31.7990   37.6770 H   0  0  0  0  0  0  0  0  0  0  0  0
   37.4260   30.5120   38.2530 H   0  0  0  0  0  0  0  0  0  0  0  0
   39.5720   30.2610   39.1900 H   0  0  0  0  0  0  0  0  0  0  0  0
   42.1540   31.3470   38.9610 C   0  0  1  0  0  0  0  0  0  0  0  0
   42.2700   32.7390   39.4510 C   0  0  0  0  0  0  0  0  0  0  0  0
   40.9750   32.2490   38.9400 C   0  0  2  0  0  0  0  0  0  0  0  0
   42.1960   30.5730   39.7770 H   0  0  0  0  0  0  0  0  0  0  0  0
   42.4110   32.9320   40.5280 H   0  0  0  0  0  0  0  0  0  0  0  0
   42.8240   33.4460   38.8080 H   0  0  0  0  0  0  0  0  0  0  0  0
   40.6800   32.5550   37.8900 H   0  0  0  0  0  0  0  0  0  0  0  0
   44.0830   31.4740   37.3570 C   0  0  0  0  0  0  0  0  0  0  0  0
   42.8270   30.9710   37.7180 C   0  0  0  0  0  0  0  0  0  0  0  0
   42.2280   30.0500   36.8270 C   0  0  0  0  0  0  0  0  0  0  0  0
   42.8940   29.7150   35.6950 N   0  0  0  0  0  0  0  0  0  0  0  0
   44.0950   30.2160   35.3810 C   0  0  0  0  0  0  0  0  0  0  0  0
   44.7100   31.1100   36.2140 N   0  0  0  0  0  0  0  0  0  0  0  0
   44.5830   32.1800   38.0020 H   0  0  0  0  0  0  0  0  0  0  0  0
   41.2630   29.6330   37.0580 H   0  0  0  0  0  0  0  0  0  0  0  0
   44.4990   29.8490   34.4410 H   0  0  0  0  0  0  0  0  0  0  0  0
   38.3430   30.6130   40.8090 N   0  0  0  0  0  0  0  0  0  0  0  0
   37.9030   31.4480   41.3070 H   0  0  0  0  0  0  0  0  0  0  0  0
   36.9200   28.7390   41.6480 C   0  0  0  0  0  0  0  0  0  0  0  0
   38.1040   29.4860   41.6080 C   0  0  0  0  0  0  0  0  0  0  0  0
   39.1370   29.1100   42.4440 C   0  0  0  0  0  0  0  0  0  0  0  0
   40.1200   29.5340   42.5960 H   0  0  0  0  0  0  0  0  0  0  0  0
   39.0510   28.0340   43.3130 C   0  0  0  0  0  0  0  0  0  0  0  0
   39.7740   27.6430   44.0060 H   0  0  0  0  0  0  0  0  0  0  0  0
   37.8800   27.3170   43.3340 C   0  0  0  0  0  3  0  0  0  0  0  0
   36.8430   27.6780   42.5090 C   0  0  0  0  0  3  0  0  0  0  0  0
   34.9960   29.4880   40.0760 N   0  0  0  0  0  0  0  0  0  0  0  0
   35.8580   29.1480   40.7690 C   0  0  0  0  0  0  0  0  0  0  0  0
  1  2  1  6  0  0  0
  2  3  1  0  0  0  0
  2  8  1  0  0  0  0
  3  9  1  0  0  0  0
  4 12  1  0  0  0  0
  4  3  1  0  0  0  0
  5  4  1  0  0  0  0
  5  6  1  0  0  0  0
  6 15  1  6  0  0  0
  6  1  1  0  0  0  0
  6 32  1  0  0  0  0
  7  2  1  0  0  0  0
 10  3  1  0  0  0  0
 11  4  1  0  0  0  0
 13  5  1  0  0  0  0
 14  5  1  0  0  0  0
 16 17  1  0  0  0  0
 16 19  1  1  0  0  0
 17 20  1  0  0  0  0
 18 22  1  6  0  0  0
 18 16  1  0  0  0  0
 18 17  1  0  0  0  0
 18  1  1  0  0  0  0
 21 17  1  0  0  0  0
 23 24  1  0  0  0  0
 23 29  1  0  0  0  0
 24 16  1  0  0  0  0
 25 30  1  0  0  0  0
 25 24  2  0  0  0  0
 26 25  1  0  0  0  0
 27 26  2  0  0  0  0
 27 28  1  0  0  0  0
 28 23  2  0  0  0  0
 31 27  1  0  0  0  0
 32 33  1  0  0  0  0
 32 35  1  0  0  0  0
 34 41  1  0  0  0  0
 35 34  2  0  0  0  0
 35 36  1  0  0  0  0
 36 37  1  0  0  0  0
 36 38  2  0  0  0  0
 38 40  1  0  0  0  0
 38 39  1  0  0  0  0
 41 40  2  0  0  0  0
 42 43  3  0  0  0  0
 43 34  1  0  0  0  0
M  END
>  <minimizedAffinity>
-5.40430021

$$$$

 OpenBabel03252506483D

 43 46  0  0  1  0  0  0  0  0999 V2000
   37.6630   30.2300   40.8610 N   0  0  1  0  0  0  0  0  0  0  0  0
   36.2690   30.5350   40.6860 C   0  0  0  0  0  0  0  0  0  0  0  0
   35.3740   29.3290   40.6060 C   0  0  0  0  0  0  0  0  0  0  0  0
   35.7160   28.5270   39.3780 C   0  0  0  0  0  0  0  0  0  0  0  0
   37.1830   28.6100   39.0710 C   0  0  0  0  0  0  0  0  0  0  0  0
   37.9420   28.9030   40.3510 C   0  0  2  0  0  0  0  0  0  0  0  0
   36.1080   31.1520   39.7880 H   0  0  0  0  0  0  0  0  0  0  0  0
   35.9350   31.1810   41.5460 H   0  0  0  0  0  0  0  0  0  0  0  0
   35.2750   28.7690   41.5280 H   0  0  0  0  0  0  0  0  0  0  0  0
   34.3460   29.7700   40.3790 H   0  0  0  0  0  0  0  0  0  0  0  0
   35.1660   28.9060   38.4870 H   0  0  0  0  0  0  0  0  0  0  0  0
   35.3670   27.4850   39.5270 H   0  0  0  0  0  0  0  0  0  0  0  0
   37.4030   29.5140   38.4130 H   0  0  0  0  0  0  0  0  0  0  0  0
   37.5910   27.7280   38.6040 H   0  0  0  0  0  0  0  0  0  0  0  0
   39.0170   28.9080   40.0600 H   0  0  0  0  0  0  0  0  0  0  0  0
   39.1880   32.2920   41.0510 C   0  0  1  0  0  0  0  0  0  0  0  0
   37.9100   32.6490   40.3950 C   0  0  0  0  0  0  0  0  0  0  0  0
   38.4240   31.2700   40.2900 C   0  0  2  0  0  0  0  0  0  0  0  0
   39.1250   32.2500   42.1740 H   0  0  0  0  0  0  0  0  0  0  0  0
   37.0200   32.8710   41.0080 H   0  0  0  0  0  0  0  0  0  0  0  0
   37.9780   33.2770   39.4880 H   0  0  0  0  0  0  0  0  0  0  0  0
   38.9350   30.9780   39.3230 H   0  0  0  0  0  0  0  0  0  0  0  0
   40.4850   33.6450   39.3800 C   0  0  0  0  0  0  0  0  0  0  0  0
   40.4380   32.8350   40.5220 C   0  0  0  0  0  0  0  0  0  0  0  0
   41.6670   32.5730   41.1700 C   0  0  0  0  0  0  0  0  0  0  0  0
   42.8000   33.1130   40.6560 N   0  0  0  0  0  0  0  0  0  0  0  0
   42.8090   33.8830   39.5610 C   0  0  0  0  0  0  0  0  0  0  0  0
   41.6420   34.1610   38.9030 N   0  0  0  0  0  0  0  0  0  0  0  0
   39.5750   33.8750   38.8470 H   0  0  0  0  0  0  0  0  0  0  0  0
   41.6850   31.9570   42.0520 H   0  0  0  0  0  0  0  0  0  0  0  0
   43.7950   34.2390   39.2750 H   0  0  0  0  0  0  0  0  0  0  0  0
   37.7540   27.8650   41.3130 N   0  0  0  0  0  0  0  0  0  0  0  0
   36.8050   28.0160   41.7780 H   0  0  0  0  0  0  0  0  0  0  0  0
   38.0770   25.4020   41.5800 C   0  0  0  0  0  0  0  0  0  0  0  0
   38.3310   26.7380   41.9160 C   0  0  0  0  0  0  0  0  0  0  0  0
   39.2090   26.9910   42.9520 C   0  0  0  0  0  0  0  0  0  0  0  0
   39.5430   27.9210   43.3900 H   0  0  0  0  0  0  0  0  0  0  0  0
   39.8430   25.9870   43.6660 C   0  0  0  0  0  0  0  0  0  0  0  0
   40.5400   26.0520   44.4830 H   0  0  0  0  0  0  0  0  0  0  0  0
   39.5780   24.6850   43.3180 C   0  0  0  0  0  3  0  0  0  0  0  0
   38.7070   24.4160   42.2910 C   0  0  0  0  0  3  0  0  0  0  0  0
   36.4110   24.9820   39.6350 N   0  0  0  0  0  0  0  0  0  0  0  0
   37.1590   25.1610   40.5000 C   0  0  0  0  0  0  0  0  0  0  0  0
  1  2  1  6  0  0  0
  2  8  1  0  0  0  0
  3  2  1  0  0  0  0
  3  9  1  0  0  0  0
  4 12  1  0  0  0  0
  4  3  1  0  0  0  0
  5  4  1  0  0  0  0
  5  6  1  0  0  0  0
  6 15  1  6  0  0  0
  6  1  1  0  0  0  0
  6 32  1  0  0  0  0
  7  2  1  0  0  0  0
 10  3  1  0  0  0  0
 11  4  1  0  0  0  0
 13  5  1  0  0  0  0
 14  5  1  0  0  0  0
 16 19  1  1  0  0  0
 17 20  1  0  0  0  0
 17 16  1  0  0  0  0
 18 22  1  6  0  0  0
 18 17  1  0  0  0  0
 18  1  1  0  0  0  0
 18 16  1  0  0  0  0
 21 17  1  0  0  0  0
 23 24  1  0  0  0  0
 24 16  1  0  0  0  0
 24 25  2  0  0  0  0
 25 30  1  0  0  0  0
 26 25  1  0  0  0  0
 27 26  2  0  0  0  0
 28 23  2  0  0  0  0
 28 27  1  0  0  0  0
 29 23  1  0  0  0  0
 31 27  1  0  0  0  0
 32 33  1  0  0  0  0
 32 35  1  0  0  0  0
 34 35  2  0  0  0  0
 34 41  1  0  0  0  0
 35 36  1  0  0  0  0
 36 37  1  0  0  0  0
 36 38  2  0  0  0  0
 38 39  1  0  0  0  0
 40 38  1  0  0  0  0
 41 40  2  0  0  0  0
 42 43  3  0  0  0  0
 43 34  1  0  0  0  0
M  END
>  <minimizedAffinity>
-5.34399748

$$$$

 OpenBabel03252506483D

 43 46  0  0  1  0  0  0  0  0999 V2000
   34.1920   28.3490   38.1330 N   0  0  1  0  0  0  0  0  0  0  0  0
   34.6710   27.0880   37.6350 C   0  0  0  0  0  0  0  0  0  0  0  0
   35.8730   26.5490   38.3600 C   0  0  0  0  0  0  0  0  0  0  0  0
   37.0430   27.4750   38.1570 C   0  0  0  0  0  0  0  0  0  0  0  0
   36.5890   28.9030   38.0560 C   0  0  0  0  0  0  0  0  0  0  0  0
   35.2720   29.0580   38.7900 C   0  0  2  0  0  0  0  0  0  0  0  0
   34.9080   27.1510   36.5610 H   0  0  0  0  0  0  0  0  0  0  0  0
   33.8350   26.3370   37.7050 H   0  0  0  0  0  0  0  0  0  0  0  0
   35.6890   26.2310   39.3800 H   0  0  0  0  0  0  0  0  0  0  0  0
   36.1470   25.6120   37.7700 H   0  0  0  0  0  0  0  0  0  0  0  0
   37.5890   27.2300   37.2180 H   0  0  0  0  0  0  0  0  0  0  0  0
   37.7690   27.3130   38.9790 H   0  0  0  0  0  0  0  0  0  0  0  0
   36.3310   29.1640   36.9770 H   0  0  0  0  0  0  0  0  0  0  0  0
   37.2980   29.6220   38.4320 H   0  0  0  0  0  0  0  0  0  0  0  0
   35.0180   30.1400   38.7130 H   0  0  0  0  0  0  0  0  0  0  0  0
   32.1080   29.0660   36.8090 C   0  0  1  0  0  0  0  0  0  0  0  0
   33.0090   28.2530   35.9600 C   0  0  0  0  0  0  0  0  0  0  0  0
   33.5690   29.0420   37.0750 C   0  0  2  0  0  0  0  0  0  0  0  0
   31.4510   28.4550   37.4880 H   0  0  0  0  0  0  0  0  0  0  0  0
   32.9710   27.1520   36.0150 H   0  0  0  0  0  0  0  0  0  0  0  0
   33.2000   28.6290   34.9390 H   0  0  0  0  0  0  0  0  0  0  0  0
   34.0750   30.0210   36.8170 H   0  0  0  0  0  0  0  0  0  0  0  0
   30.6920   31.1310   37.0040 C   0  0  0  0  0  0  0  0  0  0  0  0
   31.4750   30.2560   36.2410 C   0  0  0  0  0  0  0  0  0  0  0  0
   31.6510   30.5810   34.8770 C   0  0  0  0  0  0  0  0  0  0  0  0
   31.0610   31.7040   34.3960 N   0  0  0  0  0  0  0  0  0  0  0  0
   30.3190   32.5190   35.1540 C   0  0  0  0  0  0  0  0  0  0  0  0
   30.1220   32.2410   36.4790 N   0  0  0  0  0  0  0  0  0  0  0  0
   30.5260   30.9280   38.0510 H   0  0  0  0  0  0  0  0  0  0  0  0
   32.2440   29.9410   34.2460 H   0  0  0  0  0  0  0  0  0  0  0  0
   29.9150   33.3770   34.6230 H   0  0  0  0  0  0  0  0  0  0  0  0
   35.4110   28.7400   40.1750 N   0  0  0  0  0  0  0  0  0  0  0  0
   34.4600   28.4160   40.5350 H   0  0  0  0  0  0  0  0  0  0  0  0
   37.1230   29.7580   41.6830 C   0  0  0  0  0  0  0  0  0  0  0  0
   36.2930   28.7100   41.2650 C   0  0  0  0  0  0  0  0  0  0  0  0
   36.3520   27.5190   41.9610 C   0  0  0  0  0  0  0  0  0  0  0  0
   35.8270   26.5850   41.8180 H   0  0  0  0  0  0  0  0  0  0  0  0
   37.1900   27.3190   43.0460 C   0  0  0  0  0  0  0  0  0  0  0  0
   37.3270   26.4500   43.6650 H   0  0  0  0  0  0  0  0  0  0  0  0
   37.9930   28.3620   43.4380 C   0  0  0  0  0  3  0  0  0  0  0  0
   37.9480   29.5530   42.7560 C   0  0  0  0  0  3  0  0  0  0  0  0
   36.9990   31.9860   40.3600 N   0  0  0  0  0  0  0  0  0  0  0  0
   37.0460   30.9890   40.9440 C   0  0  0  0  0  0  0  0  0  0  0  0
  1  2  1  6  0  0  0
  1  6  1  0  0  0  0
  2  8  1  0  0  0  0
  2  3  1  0  0  0  0
  3  9  1  0  0  0  0
  4  3  1  0  0  0  0
  4 12  1  0  0  0  0
  5  4  1  0  0  0  0
  5 14  1  0  0  0  0
  5  6  1  0  0  0  0
  6 15  1  6  0  0  0
  6 32  1  0  0  0  0
  7  2  1  0  0  0  0
 10  3  1  0  0  0  0
 11  4  1  0  0  0  0
 13  5  1  0  0  0  0
 16 18  1  0  0  0  0
 16 19  1  1  0  0  0
 17 20  1  0  0  0  0
 17 16  1  0  0  0  0
 17 18  1  0  0  0  0
 18 22  1  6  0  0  0
 18  1  1  0  0  0  0
 21 17  1  0  0  0  0
 23 29  1  0  0  0  0
 24 16  1  0  0  0  0
 24 23  2  0  0  0  0
 25 24  1  0  0  0  0
 26 25  2  0  0  0  0
 26 27  1  0  0  0  0
 27 28  2  0  0  0  0
 28 23  1  0  0  0  0
 30 25  1  0  0  0  0
 31 27  1  0  0  0  0
 32 33  1  0  0  0  0
 32 35  1  0  0  0  0
 34 41  1  0  0  0  0
 35 34  2  0  0  0  0
 35 36  1  0  0  0  0
 36 38  2  0  0  0  0
 37 36  1  0  0  0  0
 38 40  1  0  0  0  0
 38 39  1  0  0  0  0
 41 40  2  0  0  0  0
 42 43  3  0  0  0  0
 43 34  1  0  0  0  0
M  END
>  <minimizedAffinity>
-5.33918285

$$$$

 OpenBabel03252506483D

 43 46  0  0  1  0  0  0  0  0999 V2000
   37.1810   30.1330   38.6460 N   0  0  1  0  0  0  0  0  0  0  0  0
   38.4680   30.5070   38.1240 C   0  0  0  0  0  0  0  0  0  0  0  0
   39.3350   31.2630   39.0920 C   0  0  0  0  0  0  0  0  0  0  0  0
   38.6910   32.5840   39.4210 C   0  0  0  0  0  0  0  0  0  0  0  0
   37.1950   32.4700   39.4180 C   0  0  0  0  0  0  0  0  0  0  0  0
   36.8050   31.0350   39.7160 C   0  0  2  0  0  0  0  0  0  0  0  0
   38.3640   31.1050   37.2040 H   0  0  0  0  0  0  0  0  0  0  0  0
   39.0070   29.5710   37.8040 H   0  0  0  0  0  0  0  0  0  0  0  0
   39.6940   30.6840   39.9360 H   0  0  0  0  0  0  0  0  0  0  0  0
   40.2520   31.5410   38.4730 H   0  0  0  0  0  0  0  0  0  0  0  0
   38.9700   33.3620   38.6750 H   0  0  0  0  0  0  0  0  0  0  0  0
   39.0930   32.9400   40.3920 H   0  0  0  0  0  0  0  0  0  0  0  0
   36.7830   32.6510   38.3700 H   0  0  0  0  0  0  0  0  0  0  0  0
   36.6970   33.1300   40.1100 H   0  0  0  0  0  0  0  0  0  0  0  0
   35.6920   31.0320   39.7400 H   0  0  0  0  0  0  0  0  0  0  0  0
   35.4810   28.8490   37.2070 C   0  0  1  0  0  0  0  0  0  0  0  0
   36.6500   29.2530   36.3930 C   0  0  0  0  0  0  0  0  0  0  0  0
   36.2690   30.0530   37.5740 C   0  0  2  0  0  0  0  0  0  0  0  0
   35.6520   27.9170   37.8150 H   0  0  0  0  0  0  0  0  0  0  0  0
   37.5660   28.6390   36.4040 H   0  0  0  0  0  0  0  0  0  0  0  0
   36.4350   29.6930   35.4020 H   0  0  0  0  0  0  0  0  0  0  0  0
   35.7030   31.0160   37.3890 H   0  0  0  0  0  0  0  0  0  0  0  0
   32.9910   29.0800   37.4380 C   0  0  0  0  0  0  0  0  0  0  0  0
   34.1380   28.9810   36.6420 C   0  0  0  0  0  0  0  0  0  0  0  0
   33.9510   29.0360   35.2410 C   0  0  0  0  0  0  0  0  0  0  0  0
   32.6910   29.1770   34.7600 N   0  0  0  0  0  0  0  0  0  0  0  0
   31.6150   29.2690   35.5510 C   0  0  0  0  0  0  0  0  0  0  0  0
   31.7520   29.2200   36.9110 N   0  0  0  0  0  0  0  0  0  0  0  0
   33.0790   29.0430   38.5130 H   0  0  0  0  0  0  0  0  0  0  0  0
   34.8010   28.9640   34.5850 H   0  0  0  0  0  0  0  0  0  0  0  0
   30.6760   29.3800   35.0150 H   0  0  0  0  0  0  0  0  0  0  0  0
   37.2720   30.6290   41.0020 N   0  0  0  0  0  0  0  0  0  0  0  0
   37.6000   31.5000   41.5230 H   0  0  0  0  0  0  0  0  0  0  0  0
   38.6280   29.3380   42.6560 C   0  0  0  0  0  0  0  0  0  0  0  0
   37.5000   29.5350   41.8490 C   0  0  0  0  0  0  0  0  0  0  0  0
   36.5220   28.5600   41.8540 C   0  0  0  0  0  0  0  0  0  0  0  0
   35.5880   28.4880   41.3130 H   0  0  0  0  0  0  0  0  0  0  0  0
   36.6080   27.4070   42.6160 C   0  0  0  0  0  0  0  0  0  0  0  0
   35.9230   26.5830   42.7070 H   0  0  0  0  0  0  0  0  0  0  0  0
   37.7240   27.2370   43.4000 C   0  0  0  0  0  3  0  0  0  0  0  0
   38.7070   28.1960   43.4070 C   0  0  0  0  0  3  0  0  0  0  0  0
   40.4330   31.2010   42.6120 N   0  0  0  0  0  0  0  0  0  0  0  0
   39.6350   30.3640   42.6370 C   0  0  0  0  0  0  0  0  0  0  0  0
  1  2  1  6  0  0  0
  1  6  1  0  0  0  0
  2  3  1  0  0  0  0
  3  4  1  0  0  0  0
  3  9  1  0  0  0  0
  4 12  1  0  0  0  0
  5  4  1  0  0  0  0
  5  6  1  0  0  0  0
  5 14  1  0  0  0  0
  6 15  1  1  0  0  0
  6 32  1  0  0  0  0
  7  2  1  0  0  0  0
  8  2  1  0  0  0  0
 10  3  1  0  0  0  0
 11  4  1  0  0  0  0
 13  5  1  0  0  0  0
 16 18  1  0  0  0  0
 16 19  1  1  0  0  0
 17 20  1  0  0  0  0
 17 16  1  0  0  0  0
 17 18  1  0  0  0  0
 18 22  1  6  0  0  0
 18  1  1  0  0  0  0
 21 17  1  0  0  0  0
 23 29  1  0  0  0  0
 24 16  1  0  0  0  0
 24 23  2  0  0  0  0
 25 24  1  0  0  0  0
 26 25  2  0  0  0  0
 26 27  1  0  0  0  0
 27 28  2  0  0  0  0
 28 23  1  0  0  0  0
 30 25  1  0  0  0  0
 31 27  1  0  0  0  0
 32 33  1  0  0  0  0
 32 35  1  0  0  0  0
 34 41  1  0  0  0  0
 35 36  1  0  0  0  0
 35 34  2  0  0  0  0
 36 38  2  0  0  0  0
 37 36  1  0  0  0  0
 38 39  1  0  0  0  0
 38 40  1  0  0  0  0
 40 41  2  0  0  0  0
 42 43  3  0  0  0  0
 43 34  1  0  0  0  0
M  END
>  <minimizedAffinity>
-5.27965212

$$$$

 OpenBabel03252506483D

 43 46  0  0  1  0  0  0  0  0999 V2000
   39.3430   32.5310   40.3580 N   0  0  1  0  0  0  0  0  0  0  0  0
   38.2860   33.3900   39.8980 C   0  0  0  0  0  0  0  0  0  0  0  0
   36.9500   32.7130   39.7620 C   0  0  0  0  0  0  0  0  0  0  0  0
   37.0280   31.6500   38.6980 C   0  0  0  0  0  0  0  0  0  0  0  0
   38.3900   31.0190   38.6660 C   0  0  0  0  0  0  0  0  0  0  0  0
   39.0320   31.1530   40.0330 C   0  0  2  0  0  0  0  0  0  0  0  0
   38.5440   33.8540   38.9330 H   0  0  0  0  0  0  0  0  0  0  0  0
   38.1880   34.2500   40.6180 H   0  0  0  0  0  0  0  0  0  0  0  0
   36.4880   32.4180   40.6970 H   0  0  0  0  0  0  0  0  0  0  0  0
   36.2830   33.5190   39.3080 H   0  0  0  0  0  0  0  0  0  0  0  0
   36.8340   32.0780   37.6890 H   0  0  0  0  0  0  0  0  0  0  0  0
   36.2180   30.9130   38.8740 H   0  0  0  0  0  0  0  0  0  0  0  0
   39.0860   31.6070   37.9800 H   0  0  0  0  0  0  0  0  0  0  0  0
   38.3940   29.9830   38.3660 H   0  0  0  0  0  0  0  0  0  0  0  0
   40.0120   30.6310   39.9490 H   0  0  0  0  0  0  0  0  0  0  0  0
   41.8900   32.8520   40.5000 C   0  0  1  0  0  0  0  0  0  0  0  0
   41.1990   34.1610   40.5230 C   0  0  0  0  0  0  0  0  0  0  0  0
   40.5660   33.0120   39.8470 C   0  0  2  0  0  0  0  0  0  0  0  0
   41.9120   32.3330   41.4990 H   0  0  0  0  0  0  0  0  0  0  0  0
   40.7900   34.5500   41.4700 H   0  0  0  0  0  0  0  0  0  0  0  0
   41.6170   34.9520   39.8740 H   0  0  0  0  0  0  0  0  0  0  0  0
   40.6310   32.9720   38.7180 H   0  0  0  0  0  0  0  0  0  0  0  0
   43.7470   33.7840   39.0900 C   0  0  0  0  0  0  0  0  0  0  0  0
   43.1030   32.6990   39.6970 C   0  0  0  0  0  0  0  0  0  0  0  0
   43.6920   31.4260   39.5200 C   0  0  0  0  0  0  0  0  0  0  0  0
   44.8260   31.3330   38.7830 N   0  0  0  0  0  0  0  0  0  0  0  0
   45.4160   32.3910   38.2160 C   0  0  0  0  0  0  0  0  0  0  0  0
   44.8790   33.6410   38.3620 N   0  0  0  0  0  0  0  0  0  0  0  0
   43.3380   34.7780   39.1930 H   0  0  0  0  0  0  0  0  0  0  0  0
   43.2360   30.5590   39.9670 H   0  0  0  0  0  0  0  0  0  0  0  0
   46.3180   32.1540   37.6590 H   0  0  0  0  0  0  0  0  0  0  0  0
   38.2640   30.4840   41.0330 N   0  0  0  0  0  0  0  0  0  0  0  0
   37.5360   31.1720   41.4020 H   0  0  0  0  0  0  0  0  0  0  0  0
   36.9500   28.4920   41.7710 C   0  0  0  0  0  0  0  0  0  0  0  0
   38.1010   29.2900   41.7500 C   0  0  0  0  0  0  0  0  0  0  0  0
   39.1780   28.8970   42.5200 C   0  0  0  0  0  0  0  0  0  0  0  0
   40.1470   29.3500   42.6710 H   0  0  0  0  0  0  0  0  0  0  0  0
   39.1670   27.7550   43.3050 C   0  0  0  0  0  0  0  0  0  0  0  0
   39.9310   27.3440   43.9410 H   0  0  0  0  0  0  0  0  0  0  0  0
   38.0280   26.9880   43.3080 C   0  0  0  0  0  3  0  0  0  0  0  0
   36.9470   27.3660   42.5490 C   0  0  0  0  0  3  0  0  0  0  0  0
   34.9580   29.2780   40.3050 N   0  0  0  0  0  0  0  0  0  0  0  0
   35.8400   28.9200   40.9630 C   0  0  0  0  0  0  0  0  0  0  0  0
  1  2  1  6  0  0  0
  2  8  1  0  0  0  0
  3  2  1  0  0  0  0
  3  9  1  0  0  0  0
  4 12  1  0  0  0  0
  4  3  1  0  0  0  0
  5  4  1  0  0  0  0
  5  6  1  0  0  0  0
  6 15  1  6  0  0  0
  6  1  1  0  0  0  0
  6 32  1  0  0  0  0
  7  2  1  0  0  0  0
 10  3  1  0  0  0  0
 11  4  1  0  0  0  0
 13  5  1  0  0  0  0
 14  5  1  0  0  0  0
 16 17  1  0  0  0  0
 16 19  1  1  0  0  0
 17 20  1  0  0  0  0
 18 22  1  6  0  0  0
 18  1  1  0  0  0  0
 18 16  1  0  0  0  0
 18 17  1  0  0  0  0
 21 17  1  0  0  0  0
 23 29  1  0  0  0  0
 23 24  1  0  0  0  0
 24 16  1  0  0  0  0
 25 24  2  0  0  0  0
 25 30  1  0  0  0  0
 26 25  1  0  0  0  0
 27 28  1  0  0  0  0
 27 26  2  0  0  0  0
 28 23  2  0  0  0  0
 31 27  1  0  0  0  0
 32 33  1  0  0  0  0
 32 35  1  0  0  0  0
 34 41  1  0  0  0  0
 35 34  2  0  0  0  0
 35 36  1  0  0  0  0
 36 37  1  0  0  0  0
 36 38  2  0  0  0  0
 38 40  1  0  0  0  0
 38 39  1  0  0  0  0
 41 40  2  0  0  0  0
 42 43  3  0  0  0  0
 43 34  1  0  0  0  0
M  END
>  <minimizedAffinity>
-5.27185774

$$$$

 OpenBabel03252506483D

 43 46  0  0  1  0  0  0  0  0999 V2000
   37.9150   30.7230   40.8790 N   0  0  1  0  0  0  0  0  0  0  0  0
   36.5420   31.0980   40.6790 C   0  0  0  0  0  0  0  0  0  0  0  0
   35.5780   29.9440   40.6640 C   0  0  0  0  0  0  0  0  0  0  0  0
   35.8760   29.0530   39.4860 C   0  0  0  0  0  0  0  0  0  0  0  0
   37.3460   29.0320   39.1840 C   0  0  0  0  0  0  0  0  0  0  0  0
   38.1170   29.3540   40.4490 C   0  0  2  0  0  0  0  0  0  0  0  0
   36.4200   31.6700   39.7450 H   0  0  0  0  0  0  0  0  0  0  0  0
   36.2450   31.8110   41.4980 H   0  0  0  0  0  0  0  0  0  0  0  0
   35.4450   29.4450   41.6170 H   0  0  0  0  0  0  0  0  0  0  0  0
   34.5790   30.4300   40.4060 H   0  0  0  0  0  0  0  0  0  0  0  0
   35.3510   29.4100   38.5720 H   0  0  0  0  0  0  0  0  0  0  0  0
   35.4650   28.0430   39.6950 H   0  0  0  0  0  0  0  0  0  0  0  0
   37.6200   29.8810   38.4760 H   0  0  0  0  0  0  0  0  0  0  0  0
   37.7020   28.1010   38.7720 H   0  0  0  0  0  0  0  0  0  0  0  0
   39.1920   29.2790   40.1650 H   0  0  0  0  0  0  0  0  0  0  0  0
   39.6020   32.6620   40.9590 C   0  0  1  0  0  0  0  0  0  0  0  0
   38.3360   33.0990   40.3270 C   0  0  0  0  0  0  0  0  0  0  0  0
   38.7380   31.6810   40.2530 C   0  0  2  0  0  0  0  0  0  0  0  0
   39.5700   32.6600   42.0840 H   0  0  0  0  0  0  0  0  0  0  0  0
   37.4860   33.4090   40.9570 H   0  0  0  0  0  0  0  0  0  0  0  0
   38.4250   33.6920   39.3980 H   0  0  0  0  0  0  0  0  0  0  0  0
   39.1940   31.3200   39.2820 H   0  0  0  0  0  0  0  0  0  0  0  0
   40.9550   33.7520   39.1450 C   0  0  0  0  0  0  0  0  0  0  0  0
   40.8740   33.0890   40.3760 C   0  0  0  0  0  0  0  0  0  0  0  0
   42.0890   32.8600   41.0600 C   0  0  0  0  0  0  0  0  0  0  0  0
   43.2440   33.2880   40.4930 N   0  0  0  0  0  0  0  0  0  0  0  0
   43.2860   33.9200   39.3140 C   0  0  0  0  0  0  0  0  0  0  0  0
   42.1330   34.1610   38.6180 N   0  0  0  0  0  0  0  0  0  0  0  0
   40.0560   33.9510   38.5820 H   0  0  0  0  0  0  0  0  0  0  0  0
   42.0820   32.3540   42.0100 H   0  0  0  0  0  0  0  0  0  0  0  0
   44.2860   34.2010   38.9940 H   0  0  0  0  0  0  0  0  0  0  0  0
   37.8660   28.3860   41.4690 N   0  0  0  0  0  0  0  0  0  0  0  0
   37.3310   28.8700   42.2550 H   0  0  0  0  0  0  0  0  0  0  0  0
   39.1980   26.5550   42.5250 C   0  0  0  0  0  0  0  0  0  0  0  0
   38.0680   27.0570   41.8670 C   0  0  0  0  0  0  0  0  0  0  0  0
   37.0570   26.1720   41.5480 C   0  0  0  0  0  0  0  0  0  0  0  0
   36.1150   26.3220   41.0390 H   0  0  0  0  0  0  0  0  0  0  0  0
   37.1130   24.8210   41.8500 C   0  0  0  0  0  0  0  0  0  0  0  0
   36.4020   24.0380   41.6580 H   0  0  0  0  0  0  0  0  0  0  0  0
   38.2320   24.3530   42.4950 C   0  0  0  0  0  3  0  0  0  0  0  0
   39.2470   25.2200   42.8190 C   0  0  0  0  0  3  0  0  0  0  0  0
   41.0860   28.2440   43.0900 N   0  0  0  0  0  0  0  0  0  0  0  0
   40.2390   27.4940   42.8470 C   0  0  0  0  0  0  0  0  0  0  0  0
  1  2  1  6  0  0  0
  2  8  1  0  0  0  0
  3  2  1  0  0  0  0
  3  9  1  0  0  0  0
  4 12  1  0  0  0  0
  4  3  1  0  0  0  0
  5  4  1  0  0  0  0
  5  6  1  0  0  0  0
  6 15  1  6  0  0  0
  6  1  1  0  0  0  0
  6 32  1  0  0  0  0
  7  2  1  0  0  0  0
 10  3  1  0  0  0  0
 11  4  1  0  0  0  0
 13  5  1  0  0  0  0
 14  5  1  0  0  0  0
 16 19  1  1  0  0  0
 17 20  1  0  0  0  0
 17 16  1  0  0  0  0
 18 22  1  6  0  0  0
 18 17  1  0  0  0  0
 18  1  1  0  0  0  0
 18 16  1  0  0  0  0
 21 17  1  0  0  0  0
 23 24  1  0  0  0  0
 24 16  1  0  0  0  0
 24 25  2  0  0  0  0
 25 30  1  0  0  0  0
 26 25  1  0  0  0  0
 27 26  2  0  0  0  0
 28 23  2  0  0  0  0
 28 27  1  0  0  0  0
 29 23  1  0  0  0  0
 31 27  1  0  0  0  0
 32 35  1  0  0  0  0
 32 33  1  0  0  0  0
 34 41  1  0  0  0  0
 34 43  1  0  0  0  0
 35 34  2  0  0  0  0
 36 38  2  0  0  0  0
 36 35  1  0  0  0  0
 37 36  1  0  0  0  0
 38 40  1  0  0  0  0
 39 38  1  0  0  0  0
 40 41  2  0  0  0  0
 43 42  3  0  0  0  0
M  END
>  <minimizedAffinity>
-5.21400404

$$$$

 OpenBabel03252506483D

 43 46  0  0  1  0  0  0  0  0999 V2000
   37.0520   29.6400   39.6590 N   0  0  1  0  0  0  0  0  0  0  0  0
   35.7650   30.0120   40.1820 C   0  0  0  0  0  0  0  0  0  0  0  0
   34.6660   29.0310   39.8840 C   0  0  0  0  0  0  0  0  0  0  0  0
   34.4360   28.9660   38.3970 C   0  0  0  0  0  0  0  0  0  0  0  0
   35.7190   29.1720   37.6440 C   0  0  0  0  0  0  0  0  0  0  0  0
   36.8830   28.7570   38.5230 C   0  0  2  0  0  0  0  0  0  0  0  0
   35.4600   31.0050   39.8140 H   0  0  0  0  0  0  0  0  0  0  0  0
   35.8560   30.1320   41.2980 H   0  0  0  0  0  0  0  0  0  0  0  0
   34.7500   28.0790   40.3960 H   0  0  0  0  0  0  0  0  0  0  0  0
   33.7310   29.5400   40.2930 H   0  0  0  0  0  0  0  0  0  0  0  0
   33.7240   29.7550   38.0680 H   0  0  0  0  0  0  0  0  0  0  0  0
   33.9480   27.9990   38.1570 H   0  0  0  0  0  0  0  0  0  0  0  0
   35.8990   30.2820   37.4610 H   0  0  0  0  0  0  0  0  0  0  0  0
   35.7720   28.6470   36.7040 H   0  0  0  0  0  0  0  0  0  0  0  0
   37.7900   28.8940   37.8920 H   0  0  0  0  0  0  0  0  0  0  0  0
   39.1760   31.0730   39.8770 C   0  0  1  0  0  0  0  0  0  0  0  0
   38.0280   31.7420   40.5310 C   0  0  0  0  0  0  0  0  0  0  0  0
   37.7900   30.8150   39.4080 C   0  0  2  0  0  0  0  0  0  0  0  0
   39.6610   30.2800   40.5110 H   0  0  0  0  0  0  0  0  0  0  0  0
   37.7430   31.4630   41.5590 H   0  0  0  0  0  0  0  0  0  0  0  0
   37.8990   32.8200   40.3230 H   0  0  0  0  0  0  0  0  0  0  0  0
   37.5830   31.2700   38.3920 H   0  0  0  0  0  0  0  0  0  0  0  0
   40.6560   31.3960   37.8740 C   0  0  0  0  0  0  0  0  0  0  0  0
   40.0990   31.8690   39.0690 C   0  0  0  0  0  0  0  0  0  0  0  0
   40.4530   33.1800   39.4640 C   0  0  0  0  0  0  0  0  0  0  0  0
   41.2980   33.8900   38.6750 N   0  0  0  0  0  0  0  0  0  0  0  0
   41.8120   33.4070   37.5380 C   0  0  0  0  0  0  0  0  0  0  0  0
   41.4960   32.1430   37.1190 N   0  0  0  0  0  0  0  0  0  0  0  0
   40.4190   30.4020   37.5270 H   0  0  0  0  0  0  0  0  0  0  0  0
   40.0520   33.5900   40.3740 H   0  0  0  0  0  0  0  0  0  0  0  0
   42.4710   34.0970   37.0190 H   0  0  0  0  0  0  0  0  0  0  0  0
   36.7990   27.3760   38.8750 N   0  0  0  0  0  0  0  0  0  0  0  0
   36.5560   26.8270   37.9930 H   0  0  0  0  0  0  0  0  0  0  0  0
   36.4770   25.1090   39.8760 C   0  0  0  0  0  0  0  0  0  0  0  0
   36.8800   26.4500   39.9250 C   0  0  0  0  0  0  0  0  0  0  0  0
   37.3830   26.9330   41.1170 C   0  0  0  0  0  0  0  0  0  0  0  0
   37.7370   27.9160   41.3930 H   0  0  0  0  0  0  0  0  0  0  0  0
   37.5050   26.1530   42.2560 C   0  0  0  0  0  0  0  0  0  0  0  0
   37.8760   26.4060   43.2330 H   0  0  0  0  0  0  0  0  0  0  0  0
   37.1030   24.8410   42.1830 C   0  0  0  0  0  3  0  0  0  0  0  0
   36.6000   24.3460   41.0050 C   0  0  0  0  0  3  0  0  0  0  0  0
   35.5230   24.2540   37.6190 N   0  0  0  0  0  0  0  0  0  0  0  0
   35.9550   24.6270   38.6260 C   0  0  0  0  0  0  0  0  0  0  0  0
  1  2  1  6  0  0  0
  2  8  1  0  0  0  0
  3  2  1  0  0  0  0
  3 10  1  0  0  0  0
  3  9  1  0  0  0  0
  4  3  1  0  0  0  0
  5  4  1  0  0  0  0
  5  6  1  0  0  0  0
  6 15  1  6  0  0  0
  6 32  1  0  0  0  0
  6  1  1  0  0  0  0
  7  2  1  0  0  0  0
 11  4  1  0  0  0  0
 12  4  1  0  0  0  0
 13  5  1  0  0  0  0
 14  5  1  0  0  0  0
 16 19  1  1  0  0  0
 16 17  1  0  0  0  0
 17 20  1  0  0  0  0
 18 22  1  6  0  0  0
 18  1  1  0  0  0  0
 18 16  1  0  0  0  0
 18 17  1  0  0  0  0
 21 17  1  0  0  0  0
 23 24  1  0  0  0  0
 24 25  2  0  0  0  0
 24 16  1  0  0  0  0
 25 30  1  0  0  0  0
 26 25  1  0  0  0  0
 27 26  2  0  0  0  0
 28 27  1  0  0  0  0
 28 23  2  0  0  0  0
 29 23  1  0  0  0  0
 31 27  1  0  0  0  0
 32 35  1  0  0  0  0
 33 32  1  0  0  0  0
 34 35  2  0  0  0  0
 34 41  1  0  0  0  0
 35 36  1  0  0  0  0
 36 37  1  0  0  0  0
 36 38  2  0  0  0  0
 38 39  1  0  0  0  0
 40 38  1  0  0  0  0
 41 40  2  0  0  0  0
 42 43  3  0  0  0  0
 43 34  1  0  0  0  0
M  END
>  <minimizedAffinity>
-5.2115202

$$$$

 OpenBabel03252506483D

 43 46  0  0  1  0  0  0  0  0999 V2000
   34.8030   29.3750   37.4130 N   0  0  1  0  0  0  0  0  0  0  0  0
   35.3850   29.0830   36.1310 C   0  0  0  0  0  0  0  0  0  0  0  0
   34.4510   28.4090   35.1640 C   0  0  0  0  0  0  0  0  0  0  0  0
   34.0670   27.0530   35.6940 C   0  0  0  0  0  0  0  0  0  0  0  0
   33.9940   27.0610   37.1930 C   0  0  0  0  0  0  0  0  0  0  0  0
   33.7000   28.4710   37.6680 C   0  0  2  0  0  0  0  0  0  0  0  0
   36.2880   28.4610   36.2390 H   0  0  0  0  0  0  0  0  0  0  0  0
   35.7480   30.0470   35.6770 H   0  0  0  0  0  0  0  0  0  0  0  0
   33.6370   29.0290   34.8050 H   0  0  0  0  0  0  0  0  0  0  0  0
   35.1120   28.1840   34.2620 H   0  0  0  0  0  0  0  0  0  0  0  0
   34.8140   26.2820   35.3990 H   0  0  0  0  0  0  0  0  0  0  0  0
   33.1120   26.7460   35.2190 H   0  0  0  0  0  0  0  0  0  0  0  0
   35.0150   26.8310   37.6430 H   0  0  0  0  0  0  0  0  0  0  0  0
   33.2660   26.3820   37.6070 H   0  0  0  0  0  0  0  0  0  0  0  0
   33.6170   28.3960   38.7770 H   0  0  0  0  0  0  0  0  0  0  0  0
   35.7900   30.1050   39.6720 C   0  0  1  0  0  0  0  0  0  0  0  0
   36.6290   30.5960   38.5550 C   0  0  0  0  0  0  0  0  0  0  0  0
   35.8270   29.3700   38.3820 C   0  0  2  0  0  0  0  0  0  0  0  0
   34.8860   30.7430   39.8760 H   0  0  0  0  0  0  0  0  0  0  0  0
   36.3530   31.5260   38.0290 H   0  0  0  0  0  0  0  0  0  0  0  0
   37.7210   30.4670   38.6620 H   0  0  0  0  0  0  0  0  0  0  0  0
   36.3680   28.3780   38.4620 H   0  0  0  0  0  0  0  0  0  0  0  0
   37.5210   30.1820   41.4900 C   0  0  0  0  0  0  0  0  0  0  0  0
   36.4380   29.5540   40.8620 C   0  0  0  0  0  0  0  0  0  0  0  0
   35.9710   28.3530   41.4440 C   0  0  0  0  0  0  0  0  0  0  0  0
   36.5900   27.8880   42.5570 N   0  0  0  0  0  0  0  0  0  0  0  0
   37.6230   28.5140   43.1320 C   0  0  0  0  0  0  0  0  0  0  0  0
   38.1070   29.6780   42.6010 N   0  0  0  0  0  0  0  0  0  0  0  0
   37.9170   31.1010   41.0860 H   0  0  0  0  0  0  0  0  0  0  0  0
   35.1410   27.8310   40.9990 H   0  0  0  0  0  0  0  0  0  0  0  0
   38.0090   28.0160   44.0180 H   0  0  0  0  0  0  0  0  0  0  0  0
   32.4460   28.9350   37.1670 N   0  0  0  0  0  0  0  0  0  0  0  0
   32.2560   28.4340   36.2440 H   0  0  0  0  0  0  0  0  0  0  0  0
   30.8870   30.7630   36.4820 C   0  0  0  0  0  0  0  0  0  0  0  0
   31.3730   29.8110   37.3870 C   0  0  0  0  0  0  0  0  0  0  0  0
   30.7710   29.7270   38.6270 C   0  0  0  0  0  0  0  0  0  0  0  0
   30.9780   29.0930   39.4770 H   0  0  0  0  0  0  0  0  0  0  0  0
   29.7150   30.5390   39.0090 C   0  0  0  0  0  0  0  0  0  0  0  0
   29.1660   30.5720   39.9330 H   0  0  0  0  0  0  0  0  0  0  0  0
   29.2560   31.4650   38.1040 C   0  0  0  0  0  3  0  0  0  0  0  0
   29.8440   31.5610   36.8670 C   0  0  0  0  0  3  0  0  0  0  0  0
   32.0580   30.9030   34.1700 N   0  0  0  0  0  0  0  0  0  0  0  0
   31.5290   30.8340   35.1970 C   0  0  0  0  0  0  0  0  0  0  0  0
  1  2  1  6  0  0  0
  1  6  1  0  0  0  0
  1 18  1  0  0  0  0
  2  7  1  0  0  0  0
  3  4  1  0  0  0  0
  3  2  1  0  0  0  0
  4  5  1  0  0  0  0
  5 14  1  0  0  0  0
  5 13  1  0  0  0  0
  5  6  1  0  0  0  0
  6 15  1  1  0  0  0
  8  2  1  0  0  0  0
  9  3  1  0  0  0  0
 10  3  1  0  0  0  0
 11  4  1  0  0  0  0
 12  4  1  0  0  0  0
 16 19  1  1  0  0  0
 16 24  1  0  0  0  0
 17 21  1  0  0  0  0
 17 16  1  0  0  0  0
 18 22  1  1  0  0  0
 18 17  1  0  0  0  0
 18 16  1  0  0  0  0
 20 17  1  0  0  0  0
 23 28  1  0  0  0  0
 24 25  1  0  0  0  0
 24 23  2  0  0  0  0
 25 26  2  0  0  0  0
 26 27  1  0  0  0  0
 27 31  1  0  0  0  0
 28 27  2  0  0  0  0
 29 23  1  0  0  0  0
 30 25  1  0  0  0  0
 32 35  1  0  0  0  0
 32  6  1  0  0  0  0
 33 32  1  0  0  0  0
 34 41  2  0  0  0  0
 34 35  1  0  0  0  0
 35 36  2  0  0  0  0
 36 38  1  0  0  0  0
 36 37  1  0  0  0  0
 38 39  1  0  0  0  0
 40 38  2  0  0  0  0
 41 40  1  0  0  0  0
 42 43  3  0  0  0  0
 43 34  1  0  0  0  0
M  END
>  <minimizedAffinity>
-5.17050314

$$$$

 OpenBabel03252506483D

 43 46  0  0  1  0  0  0  0  0999 V2000
   34.7530   29.0130   36.6830 N   0  0  1  0  0  0  0  0  0  0  0  0
   35.2670   28.4050   35.4850 C   0  0  0  0  0  0  0  0  0  0  0  0
   34.2330   27.6990   34.6530 C   0  0  0  0  0  0  0  0  0  0  0  0
   33.6710   26.5350   35.4250 C   0  0  0  0  0  0  0  0  0  0  0  0
   33.6250   26.8360   36.8950 C   0  0  0  0  0  0  0  0  0  0  0  0
   33.5380   28.3370   37.0930 C   0  0  2  0  0  0  0  0  0  0  0  0
   36.0760   27.6940   35.7180 H   0  0  0  0  0  0  0  0  0  0  0  0
   35.7550   29.2060   34.8620 H   0  0  0  0  0  0  0  0  0  0  0  0
   33.5080   28.3480   34.1750 H   0  0  0  0  0  0  0  0  0  0  0  0
   34.8420   27.2180   33.8170 H   0  0  0  0  0  0  0  0  0  0  0  0
   34.2980   25.6250   35.2890 H   0  0  0  0  0  0  0  0  0  0  0  0
   32.6760   26.2810   35.0070 H   0  0  0  0  0  0  0  0  0  0  0  0
   34.6110   26.5530   37.3920 H   0  0  0  0  0  0  0  0  0  0  0  0
   32.8160   26.3560   37.4220 H   0  0  0  0  0  0  0  0  0  0  0  0
   33.4640   28.4840   38.1940 H   0  0  0  0  0  0  0  0  0  0  0  0
   35.8850   30.0280   38.7560 C   0  0  1  0  0  0  0  0  0  0  0  0
   36.7700   30.1400   37.5730 C   0  0  0  0  0  0  0  0  0  0  0  0
   35.7820   29.0460   37.6460 C   0  0  2  0  0  0  0  0  0  0  0  0
   35.0960   30.8280   38.8100 H   0  0  0  0  0  0  0  0  0  0  0  0
   36.6330   30.9720   36.8630 H   0  0  0  0  0  0  0  0  0  0  0  0
   37.8300   29.8650   37.7200 H   0  0  0  0  0  0  0  0  0  0  0  0
   36.1620   28.0200   37.9370 H   0  0  0  0  0  0  0  0  0  0  0  0
   37.6370   30.2100   40.5460 C   0  0  0  0  0  0  0  0  0  0  0  0
   36.4620   29.6390   40.0430 C   0  0  0  0  0  0  0  0  0  0  0  0
   35.8270   28.6670   40.8500 C   0  0  0  0  0  0  0  0  0  0  0  0
   36.3860   28.3500   42.0440 N   0  0  0  0  0  0  0  0  0  0  0  0
   37.5110   28.9160   42.4960 C   0  0  0  0  0  0  0  0  0  0  0  0
   38.1580   29.8610   41.7460 N   0  0  0  0  0  0  0  0  0  0  0  0
   38.1610   30.9570   39.9700 H   0  0  0  0  0  0  0  0  0  0  0  0
   34.9210   28.1970   40.5080 H   0  0  0  0  0  0  0  0  0  0  0  0
   37.8310   28.5570   43.4700 H   0  0  0  0  0  0  0  0  0  0  0  0
   32.3540   28.8690   36.4990 N   0  0  0  0  0  0  0  0  0  0  0  0
   31.7190   28.0520   36.2440 H   0  0  0  0  0  0  0  0  0  0  0  0
   30.7520   30.7580   36.8280 C   0  0  0  0  0  0  0  0  0  0  0  0
   31.7010   30.0400   36.0890 C   0  0  0  0  0  0  0  0  0  0  0  0
   32.0190   30.4970   34.8250 C   0  0  0  0  0  0  0  0  0  0  0  0
   32.6980   30.1100   34.0790 H   0  0  0  0  0  0  0  0  0  0  0  0
   31.4440   31.6250   34.2630 C   0  0  0  0  0  0  0  0  0  0  0  0
   31.6040   32.0790   33.3010 H   0  0  0  0  0  0  0  0  0  0  0  0
   30.5160   32.3120   35.0070 C   0  0  0  0  0  3  0  0  0  0  0  0
   30.1880   31.8710   36.2660 C   0  0  0  0  0  3  0  0  0  0  0  0
   30.1630   29.8760   39.1960 N   0  0  0  0  0  0  0  0  0  0  0  0
   30.4350   30.2650   38.1410 C   0  0  0  0  0  0  0  0  0  0  0  0
  1  2  1  6  0  0  0
  1  6  1  0  0  0  0
  1 18  1  0  0  0  0
  2  7  1  0  0  0  0
  3  4  1  0  0  0  0
  3  2  1  0  0  0  0
  4  5  1  0  0  0  0
  5  6  1  0  0  0  0
  5 13  1  0  0  0  0
  5 14  1  0  0  0  0
  6 15  1  1  0  0  0
  8  2  1  0  0  0  0
  9  3  1  0  0  0  0
 10  3  1  0  0  0  0
 11  4  1  0  0  0  0
 12  4  1  0  0  0  0
 16 19  1  1  0  0  0
 16 24  1  0  0  0  0
 17 18  1  0  0  0  0
 17 21  1  0  0  0  0
 17 16  1  0  0  0  0
 18 22  1  1  0  0  0
 18 16  1  0  0  0  0
 20 17  1  0  0  0  0
 23 28  1  0  0  0  0
 24 23  2  0  0  0  0
 24 25  1  0  0  0  0
 25 26  2  0  0  0  0
 26 27  1  0  0  0  0
 27 31  1  0  0  0  0
 28 27  2  0  0  0  0
 29 23  1  0  0  0  0
 30 25  1  0  0  0  0
 32  6  1  0  0  0  0
 33 32  1  0  0  0  0
 34 43  1  0  0  0  0
 35 32  1  0  0  0  0
 35 34  2  0  0  0  0
 36 35  1  0  0  0  0
 37 36  1  0  0  0  0
 38 36  2  0  0  0  0
 38 40  1  0  0  0  0
 39 38  1  0  0  0  0
 40 41  2  0  0  0  0
 41 34  1  0  0  0  0
 43 42  3  0  0  0  0
M  END
>  <minimizedAffinity>
-5.15763569

$$$$
