
 OpenBabel03252509233D

 28 30  0  0  1  0  0  0  0  0999 V2000
   46.5320   35.0770   41.9470 C   0  0  1  0  0  0  0  0  0  0  0  0
   48.0740   35.2150   41.9080 C   0  0  0  0  0  0  0  0  0  0  0  0
   47.2550   34.0510   41.2910 C   0  0  2  0  0  0  0  0  0  0  0  0
   46.0050   35.9030   41.4420 H   0  0  0  0  0  0  0  0  0  0  0  0
   48.6610   34.9960   42.7930 H   0  0  0  0  0  0  0  0  0  0  0  0
   48.4230   35.9890   41.2010 H   0  0  0  0  0  0  0  0  0  0  0  0
   47.4550   33.0730   41.7740 H   0  0  0  0  0  0  0  0  0  0  0  0
   44.6650   35.3780   45.1930 C   0  0  0  0  0  0  0  0  0  0  0  0
   45.1170   35.6990   43.8870 C   0  0  0  0  0  0  0  0  0  0  0  0
   46.0620   34.8530   43.3720 C   0  0  0  0  0  0  0  0  0  0  0  0
   46.5380   33.7680   44.0820 N   0  0  0  0  0  0  0  0  0  0  0  0
   46.0820   33.5010   45.3200 C   0  0  0  0  0  0  0  0  0  0  0  0
   45.1430   34.3070   45.8800 N   0  0  0  0  0  0  0  0  0  0  0  0
   43.9160   36.0440   45.6080 H   0  0  0  0  0  0  0  0  0  0  0  0
   46.4280   32.6640   45.9070 H   0  0  0  0  0  0  0  0  0  0  0  0
   44.6470   36.8350   43.1650 N   0  0  0  0  0  0  0  0  0  0  0  0
   43.8450   36.9430   42.5380 H   0  0  0  0  0  0  0  0  0  0  0  0
   45.3330   37.5840   43.4260 H   0  0  0  0  0  0  0  0  0  0  0  0
   46.3190   33.2370   39.1100 C   0  0  0  0  0  0  0  0  0  0  0  0
   47.2890   33.9340   39.8050 C   0  0  0  0  0  0  0  0  0  0  0  0
   48.3420   34.5580   39.1380 C   0  0  0  0  0  0  0  0  0  0  0  0
   49.1320   35.1200   39.6460 H   0  0  0  0  0  0  0  0  0  0  0  0
   48.4140   34.4740   37.7480 C   0  0  0  0  0  0  0  0  0  0  0  0
   49.2290   34.9540   37.1960 H   0  0  0  0  0  0  0  0  0  0  0  0
   47.4330   33.7720   37.0730 C   0  0  0  0  0  3  0  0  0  0  0  0
   46.3780   33.1440   37.7190 C   0  0  0  0  0  3  0  0  0  0  0  0
   44.3710   32.0820   40.3800 N   0  0  0  0  0  0  0  0  0  0  0  0
   45.2460   32.6030   39.8130 C   0  0  0  0  0  0  0  0  0  0  0  0
  1  4  1  6  0  0  0
  1 10  1  0  0  0  0
  2  1  1  0  0  0  0
  2  5  1  0  0  0  0
  3  7  1  1  0  0  0
  3  2  1  0  0  0  0
  3  1  1  0  0  0  0
  6  2  1  0  0  0  0
  8 14  1  0  0  0  0
  8 13  1  0  0  0  0
  9  8  2  0  0  0  0
 10  9  1  0  0  0  0
 10 11  2  0  0  0  0
 11 12  1  0  0  0  0
 12 13  2  0  0  0  0
 12 15  1  0  0  0  0
 16 18  1  0  0  0  0
 16  9  1  0  0  0  0
 17 16  1  0  0  0  0
 19 20  1  0  0  0  0
 19 28  1  0  0  0  0
 20  3  1  0  0  0  0
 21 22  1  0  0  0  0
 21 20  2  0  0  0  0
 23 21  1  0  0  0  0
 24 23  1  0  0  0  0
 25 26  1  0  0  0  0
 25 23  2  0  0  0  0
 26 19  2  0  0  0  0
 28 27  3  0  0  0  0
M  END
>  <minimizedAffinity>
-5.41721201

>  <minimizedRMSD>
0.933869362

$$$$
