
 OpenBabel03252507463D

 38 40  0  0  0  0  0  0  0  0999 V2000
   47.2020   34.4490   40.8780 C   0  0  0  0  0  0  0  0  0  0  0  0
   47.3800   35.3110   40.1940 H   0  0  0  0  0  0  0  0  0  0  0  0
   46.5920   33.6460   40.4140 H   0  0  0  0  0  0  0  0  0  0  0  0
   48.5220   33.9780   41.3110 C   0  0  0  0  0  0  0  0  0  0  0  0
   48.9080   32.7340   40.8360 C   0  0  0  0  0  0  0  0  0  0  0  0
   50.1440   32.1920   41.2040 C   0  0  0  0  0  0  0  0  0  0  0  0
   50.9350   32.9350   42.0370 N   0  0  0  0  0  0  0  0  0  0  0  0
   50.5150   34.1470   42.4760 C   0  0  0  0  0  0  0  0  0  0  0  0
   49.3340   34.6370   42.1110 N   0  0  0  0  0  0  0  0  0  0  0  0
   50.4110   31.2250   40.8170 H   0  0  0  0  0  0  0  0  0  0  0  0
   51.1210   34.7510   43.1350 H   0  0  0  0  0  0  0  0  0  0  0  0
   47.8470   31.7640   39.7530 S   0  0  0  0  0  0  0  0  0  0  0  0
   49.0540   32.1330   37.1630 C   0  0  0  0  0  0  0  0  0  0  0  0
   48.6680   31.3540   38.2280 C   0  0  0  0  0  0  0  0  0  0  0  0
   48.9330   29.9800   38.1600 C   0  0  0  0  0  0  0  0  0  0  0  0
   48.6990   29.2170   38.9060 H   0  0  0  0  0  0  0  0  0  0  0  0
   49.5660   29.4060   37.0600 C   0  0  0  0  0  0  0  0  0  0  0  0
   49.7950   28.3710   36.9490 H   0  0  0  0  0  0  0  0  0  0  0  0
   49.9480   30.2210   35.9930 C   0  0  0  0  0  3  0  0  0  0  0  0
   49.6770   31.5610   36.0830 C   0  0  0  0  0  3  0  0  0  0  0  0
   48.4610   34.6320   37.3920 N   0  0  0  0  0  0  0  0  0  0  0  0
   48.7320   33.5060   37.3000 C   0  0  0  0  0  0  0  0  0  0  0  0
   46.3640   34.9890   42.0080 C   0  0  0  0  0  0  0  0  0  0  0  0
   46.6670   36.0360   42.2360 H   0  0  0  0  0  0  0  0  0  0  0  0
   46.5420   34.4080   42.9440 H   0  0  0  0  0  0  0  0  0  0  0  0
   44.8970   34.9450   41.7510 C   0  0  0  0  0  0  0  0  0  0  0  0
   43.9970   35.4610   42.7330 C   0  0  0  0  0  0  0  0  0  0  0  0
   42.3520   35.1830   41.9690 S   0  0  0  0  0  0  0  0  0  0  0  0
   43.1710   34.4060   40.4320 C   0  0  0  0  0  0  0  0  0  0  0  0
   44.2760   34.4780   40.7040 N   0  0  0  0  0  0  0  0  0  0  0  0
   44.2600   35.9050   43.6910 H   0  0  0  0  0  0  0  0  0  0  0  0
   42.4430   33.9250   39.3430 O   0  0  0  0  0  0  0  0  0  0  0  0
   40.4670   34.3410   37.6340 O   0  0  0  0  0  0  0  0  0  0  0  0
   41.5420   35.0440   38.4470 P   0  0  0  0  0  0  0  0  0  0  0  0
   40.8010   36.1050   39.5300 O   0  0  0  0  0  0  0  0  0  0  0  0
   40.0060   35.6280   39.8930 H   0  0  0  0  0  0  0  0  0  0  0  0
   42.5830   35.9390   37.4440 O   0  0  0  0  0  0  0  0  0  0  0  0
   42.9180   35.3790   36.7010 H   0  0  0  0  0  0  0  0  0  0  0  0
  1  4  1  0  0  0  0
  1 23  1  0  0  0  0
  2  1  1  0  0  0  0
  3  1  1  0  0  0  0
  4  9  1  0  0  0  0
  5  6  1  0  0  0  0
  5  4  2  0  0  0  0
  6  7  2  0  0  0  0
  7  8  1  0  0  0  0
  8 11  1  0  0  0  0
  9  8  2  0  0  0  0
 10  6  1  0  0  0  0
 12  5  1  0  0  0  0
 13 22  1  0  0  0  0
 13 14  1  0  0  0  0
 14 12  1  0  0  0  0
 15 14  2  0  0  0  0
 15 16  1  0  0  0  0
 17 15  1  0  0  0  0
 18 17  1  0  0  0  0
 19 20  1  0  0  0  0
 19 17  2  0  0  0  0
 20 13  2  0  0  0  0
 22 21  3  0  0  0  0
 23 24  1  0  0  0  0
 23 25  1  0  0  0  0
 26 23  1  0  0  0  0
 26 27  2  0  0  0  0
 27 31  1  0  0  0  0
 28 27  1  0  0  0  0
 29 30  2  0  0  0  0
 29 28  1  0  0  0  0
 30 26  1  0  0  0  0
 32 29  1  0  0  0  0
 33 34  2  0  0  0  0
 34 32  1  0  0  0  0
 34 35  1  0  0  0  0
 35 36  1  0  0  0  0
 37 34  1  0  0  0  0
 38 37  1  0  0  0  0
M  END
>  <minimizedAffinity>
-4.94501019

>  <minimizedRMSD>
0.976498723

$$$$
