
 OpenBabel03252509243D

 28 30  0  0  1  0  0  0  0  0999 V2000
   47.6860   30.9430   45.7470 C   0  0  1  0  0  0  0  0  0  0  0  0
   47.4420   29.7090   44.8430 C   0  0  0  0  0  0  0  0  0  0  0  0
   47.2480   31.1910   44.4230 C   0  0  2  0  0  0  0  0  0  0  0  0
   48.7270   31.0320   46.0970 H   0  0  0  0  0  0  0  0  0  0  0  0
   46.5490   29.1090   44.9740 H   0  0  0  0  0  0  0  0  0  0  0  0
   48.3770   29.2290   44.5020 H   0  0  0  0  0  0  0  0  0  0  0  0
   46.1930   31.4440   44.1910 H   0  0  0  0  0  0  0  0  0  0  0  0
   45.2620   32.1430   48.3550 C   0  0  0  0  0  0  0  0  0  0  0  0
   46.2710   32.1900   47.3580 C   0  0  0  0  0  0  0  0  0  0  0  0
   46.6730   30.9740   46.8760 C   0  0  0  0  0  0  0  0  0  0  0  0
   46.1330   29.7890   47.3380 N   0  0  0  0  0  0  0  0  0  0  0  0
   45.1780   29.7900   48.2860 C   0  0  0  0  0  0  0  0  0  0  0  0
   44.7390   30.9690   48.7980 N   0  0  0  0  0  0  0  0  0  0  0  0
   44.9370   33.1040   48.7410 H   0  0  0  0  0  0  0  0  0  0  0  0
   44.7300   28.8870   48.6710 H   0  0  0  0  0  0  0  0  0  0  0  0
   46.8500   33.4110   46.9040 N   0  0  0  0  0  0  0  0  0  0  0  0
   46.5650   34.0470   46.1530 H   0  0  0  0  0  0  0  0  0  0  0  0
   47.6780   33.5330   47.5360 H   0  0  0  0  0  0  0  0  0  0  0  0
   48.0640   32.9930   42.8790 C   0  0  0  0  0  0  0  0  0  0  0  0
   48.1690   31.7050   43.3690 C   0  0  0  0  0  0  0  0  0  0  0  0
   49.1470   30.8320   42.8920 C   0  0  0  0  0  0  0  0  0  0  0  0
   49.2670   29.8050   43.2510 H   0  0  0  0  0  0  0  0  0  0  0  0
   50.0300   31.2720   41.9060 C   0  0  0  0  0  0  0  0  0  0  0  0
   50.8080   30.6090   41.5130 H   0  0  0  0  0  0  0  0  0  0  0  0
   49.9050   32.5640   41.4320 C   0  0  0  0  0  3  0  0  0  0  0  0
   48.9400   33.4450   41.8930 C   0  0  0  0  0  3  0  0  0  0  0  0
   46.2300   34.5940   43.7840 N   0  0  0  0  0  0  0  0  0  0  0  0
   47.0540   33.8720   43.3810 C   0  0  0  0  0  0  0  0  0  0  0  0
  1  4  1  1  0  0  0
  1 10  1  0  0  0  0
  2  5  1  0  0  0  0
  2  1  1  0  0  0  0
  3  7  1  6  0  0  0
  3  2  1  0  0  0  0
  3  1  1  0  0  0  0
  6  2  1  0  0  0  0
  8 14  1  0  0  0  0
  8 13  1  0  0  0  0
  9  8  2  0  0  0  0
 10 11  2  0  0  0  0
 10  9  1  0  0  0  0
 11 12  1  0  0  0  0
 12 15  1  0  0  0  0
 12 13  2  0  0  0  0
 16  9  1  0  0  0  0
 16 18  1  0  0  0  0
 17 16  1  0  0  0  0
 19 20  1  0  0  0  0
 19 28  1  0  0  0  0
 20  3  1  0  0  0  0
 21 22  1  0  0  0  0
 21 20  2  0  0  0  0
 23 21  1  0  0  0  0
 24 23  1  0  0  0  0
 25 26  1  0  0  0  0
 25 23  2  0  0  0  0
 26 19  2  0  0  0  0
 28 27  3  0  0  0  0
M  END
>  <minimizedAffinity>
-4.21825504

>  <minimizedRMSD>
4.82510805

$$$$
