
 OpenBabel03242513593D

 42 46  0  0  0  0  0  0  0  0999 V2000
   44.4770   35.6170   44.6780 C   0  0  0  0  0  0  0  0  0  0  0  0
   44.5930   35.1940   43.3560 C   0  0  0  0  0  0  0  0  0  0  0  0
   45.2300   33.9540   43.1150 C   0  0  0  0  0  0  0  0  0  0  0  0
   45.6870   33.2560   44.1750 N   0  0  0  0  0  0  0  0  0  0  0  0
   45.5580   33.6940   45.4480 C   0  0  0  0  0  0  0  0  0  0  0  0
   44.9450   34.8870   45.6810 N   0  0  0  0  0  0  0  0  0  0  0  0
   43.9830   36.5730   44.8390 H   0  0  0  0  0  0  0  0  0  0  0  0
   45.3600   33.5570   42.1280 H   0  0  0  0  0  0  0  0  0  0  0  0
   46.0330   32.9800   46.6260 C   0  0  0  0  0  0  0  0  0  0  0  0
   45.2410   32.8430   47.7630 C   0  0  0  0  0  0  0  0  0  0  0  0
   45.9750   32.1210   48.6900 C   0  0  0  0  0  0  0  0  0  0  0  0
   47.1630   31.8410   48.1180 N   0  0  0  0  0  0  0  0  0  0  0  0
   47.1670   32.3630   46.8940 N   0  0  0  0  0  0  0  0  0  0  0  0
   44.2250   33.1840   48.0120 H   0  0  0  0  0  0  0  0  0  0  0  0
   45.7220   31.8050   49.6880 H   0  0  0  0  0  0  0  0  0  0  0  0
   48.5360   29.7900   48.3470 C   0  0  0  0  0  0  0  0  0  0  0  0
   48.3080   31.1350   48.5860 C   0  0  0  0  0  0  0  0  0  0  0  0
   49.2460   31.8600   49.3270 C   0  0  0  0  0  0  0  0  0  0  0  0
   49.1390   32.9140   49.5550 H   0  0  0  0  0  0  0  0  0  0  0  0
   50.3840   31.2150   49.8060 C   0  0  0  0  0  0  0  0  0  0  0  0
   51.1400   31.7390   50.3890 H   0  0  0  0  0  0  0  0  0  0  0  0
   50.6280   29.8560   49.5750 C   0  0  0  0  0  3  0  0  0  0  0  0
   49.6740   29.1560   48.8290 C   0  0  0  0  0  3  0  0  0  0  0  0
   46.7420   28.5310   46.9400 N   0  0  0  0  0  0  0  0  0  0  0  0
   47.5400   29.0970   47.5810 C   0  0  0  0  0  0  0  0  0  0  0  0
   44.1350   35.8870   42.2500 O   0  0  0  0  0  0  0  0  0  0  0  0
   43.4000   35.3270   41.2110 C   0  0  0  0  0  0  0  0  0  0  0  0
   43.8810   34.6300   40.1300 C   0  0  0  0  0  0  0  0  0  0  0  0
   43.0110   34.1380   39.1810 C   0  0  0  0  0  0  0  0  0  0  0  0
   41.6410   34.3170   39.2680 C   0  0  0  0  0  0  0  0  0  0  0  0
   40.8610   33.8160   38.3180 N   0  0  0  0  0  0  0  0  0  0  0  0
   39.5190   33.9710   38.3700 C   0  0  0  0  0  0  0  0  0  0  0  0
   38.9910   34.6690   39.4450 C   0  0  0  0  0  0  0  0  0  0  0  0
   39.8120   35.1990   40.4490 C   0  0  0  0  0  0  0  0  0  0  0  0
   41.1780   35.0210   40.3620 C   0  0  0  0  0  0  0  0  0  0  0  0
   42.0390   35.5320   41.3410 C   0  0  0  0  0  0  0  0  0  0  0  0
   44.9620   34.5100   40.0960 H   0  0  0  0  0  0  0  0  0  0  0  0
   43.4260   33.5890   38.3350 H   0  0  0  0  0  0  0  0  0  0  0  0
   38.8640   33.5680   37.6020 H   0  0  0  0  0  0  0  0  0  0  0  0
   37.9420   34.8420   39.5710 H   0  0  0  0  0  0  0  0  0  0  0  0
   39.4030   35.7460   41.2940 H   0  0  0  0  0  0  0  0  0  0  0  0
   41.5580   36.0640   42.1480 H   0  0  0  0  0  0  0  0  0  0  0  0
  1  7  1  0  0  0  0
  1  6  1  0  0  0  0
  2  1  2  0  0  0  0
  3  2  1  0  0  0  0
  3  4  2  0  0  0  0
  4  5  1  0  0  0  0
  5  6  2  0  0  0  0
  5  9  1  0  0  0  0
  8  3  1  0  0  0  0
  9 13  2  0  0  0  0
  9 10  1  0  0  0  0
 10 14  1  0  0  0  0
 10 11  2  0  0  0  0
 11 15  1  0  0  0  0
 12 17  1  0  0  0  0
 12 11  1  0  0  0  0
 13 12  1  0  0  0  0
 16 17  2  0  0  0  0
 16 23  1  0  0  0  0
 17 18  1  0  0  0  0
 18 19  1  0  0  0  0
 18 20  2  0  0  0  0
 20 21  1  0  0  0  0
 22 20  1  0  0  0  0
 23 22  2  0  0  0  0
 24 25  3  0  0  0  0
 25 16  1  0  0  0  0
 26  2  1  0  0  0  0
 27 36  1  0  0  0  0
 27 26  1  0  0  0  0
 28 27  2  0  0  0  0
 29 30  2  0  0  0  0
 29 28  1  0  0  0  0
 30 35  1  0  0  0  0
 31 32  2  0  0  0  0
 31 30  1  0  0  0  0
 32 33  1  0  0  0  0
 33 40  1  0  0  0  0
 33 34  2  0  0  0  0
 34 41  1  0  0  0  0
 35 34  1  0  0  0  0
 35 36  2  0  0  0  0
 36 42  1  0  0  0  0
 37 28  1  0  0  0  0
 38 29  1  0  0  0  0
 39 32  1  0  0  0  0
M  END
>  <minimizedAffinity>
-7.4795084

>  <minimizedRMSD>
1.85419953

$$$$
