
 OpenBabel03242522473D

 42 45  0  0  0  0  0  0  0  0999 V2000
   46.2420   33.8250   41.1390 C   0  0  0  0  0  0  0  0  0  0  0  0
   47.4740   33.4020   40.6220 C   0  0  0  0  0  0  0  0  0  0  0  0
   48.4770   32.9360   41.5200 C   0  0  0  0  0  0  0  0  0  0  0  0
   48.1680   32.9310   42.8390 N   0  0  0  0  0  0  0  0  0  0  0  0
   46.9770   33.3430   43.3120 C   0  0  0  0  0  0  0  0  0  0  0  0
   46.0440   33.7780   42.4640 N   0  0  0  0  0  0  0  0  0  0  0  0
   45.2550   34.2860   40.2490 N   0  0  0  0  0  0  0  0  0  0  0  0
   49.4290   32.6070   41.1480 H   0  0  0  0  0  0  0  0  0  0  0  0
   45.5630   34.9190   39.4750 H   0  0  0  0  0  0  0  0  0  0  0  0
   44.2710   33.9740   40.4050 H   0  0  0  0  0  0  0  0  0  0  0  0
   47.7850   33.4140   39.2110 C   0  0  0  0  0  0  0  0  0  0  0  0
   48.2930   34.4470   38.4570 C   0  0  0  0  0  0  0  0  0  0  0  0
   48.5320   34.2920   37.1070 C   0  0  0  0  0  0  0  0  0  0  0  0
   48.2720   33.0820   36.4500 C   0  0  0  0  0  0  0  0  0  0  0  0
   48.5410   33.0350   35.1420 N   0  0  0  0  0  0  0  0  0  0  0  0
   48.2930   31.8570   34.4790 C   0  0  0  0  0  0  0  0  0  0  0  0
   47.7800   30.8020   35.2220 C   0  0  0  0  0  0  0  0  0  0  0  0
   47.5110   30.8650   36.5670 C   0  0  0  0  0  0  0  0  0  0  0  0
   47.7640   32.0520   37.2170 C   0  0  0  0  0  0  0  0  0  0  0  0
   47.5180   32.1970   38.5770 C   0  0  0  0  0  0  0  0  0  0  0  0
   48.4780   35.3600   39.0070 H   0  0  0  0  0  0  0  0  0  0  0  0
   48.9310   35.1240   36.5440 H   0  0  0  0  0  0  0  0  0  0  0  0
   48.4840   31.7420   33.4210 H   0  0  0  0  0  0  0  0  0  0  0  0
   47.5690   29.8520   34.7400 H   0  0  0  0  0  0  0  0  0  0  0  0
   47.1090   30.0220   37.1220 H   0  0  0  0  0  0  0  0  0  0  0  0
   47.1200   31.3210   39.0670 H   0  0  0  0  0  0  0  0  0  0  0  0
   46.7410   33.2960   44.7910 C   0  0  0  0  0  0  0  0  0  0  0  0
   47.4640   34.0320   45.2280 H   0  0  0  0  0  0  0  0  0  0  0  0
   45.7090   33.4820   45.0810 H   0  0  0  0  0  0  0  0  0  0  0  0
   47.2200   31.9260   45.3150 C   0  0  0  0  0  0  0  0  0  0  0  0
   48.3360   31.9280   45.3750 H   0  0  0  0  0  0  0  0  0  0  0  0
   46.8270   31.1370   44.6770 H   0  0  0  0  0  0  0  0  0  0  0  0
   47.2200   30.8930   47.6210 C   0  0  0  0  0  0  0  0  0  0  0  0
   46.7040   31.7830   46.7050 C   0  0  0  0  0  0  0  0  0  0  0  0
   45.6500   32.5750   47.1220 C   0  0  0  0  0  0  0  0  0  0  0  0
   45.2410   33.2820   46.3910 H   0  0  0  0  0  0  0  0  0  0  0  0
   45.0610   32.5640   48.3670 C   0  0  0  0  0  0  0  0  0  0  0  0
   44.2380   33.2340   48.5800 H   0  0  0  0  0  0  0  0  0  0  0  0
   45.6050   31.6600   49.2550 C   0  0  0  0  0  3  0  0  0  0  0  0
   46.6650   30.8320   48.9040 C   0  0  0  0  0  3  0  0  0  0  0  0
   49.2100   29.3840   46.9120 N   0  0  0  0  0  0  0  0  0  0  0  0
   48.3130   30.0540   47.2240 C   0  0  0  0  0  0  0  0  0  0  0  0
  1  6  1  0  0  0  0
  2  1  2  0  0  0  0
  2  3  1  0  0  0  0
  3  4  2  0  0  0  0
  4  5  1  0  0  0  0
  5 27  1  0  0  0  0
  6  5  2  0  0  0  0
  7 10  1  0  0  0  0
  7  1  1  0  0  0  0
  8  3  1  0  0  0  0
  9  7  1  0  0  0  0
 11  2  1  0  0  0  0
 12 21  1  0  0  0  0
 12 11  2  0  0  0  0
 13 12  1  0  0  0  0
 14 13  2  0  0  0  0
 14 19  1  0  0  0  0
 15 14  1  0  0  0  0
 16 15  2  0  0  0  0
 16 17  1  0  0  0  0
 17 18  2  0  0  0  0
 18 25  1  0  0  0  0
 18 19  1  0  0  0  0
 19 20  2  0  0  0  0
 20 26  1  0  0  0  0
 20 11  1  0  0  0  0
 22 13  1  0  0  0  0
 23 16  1  0  0  0  0
 24 17  1  0  0  0  0
 27 29  1  0  0  0  0
 27 28  1  0  0  0  0
 27 30  1  0  0  0  0
 30 31  1  0  0  0  0
 30 34  1  0  0  0  0
 32 30  1  0  0  0  0
 33 40  1  0  0  0  0
 34 35  1  0  0  0  0
 34 33  2  0  0  0  0
 35 37  2  0  0  0  0
 36 35  1  0  0  0  0
 37 38  1  0  0  0  0
 37 39  1  0  0  0  0
 40 39  2  0  0  0  0
 41 42  3  0  0  0  0
 42 33  1  0  0  0  0
M  END
>  <minimizedAffinity>
-5.64756203

>  <minimizedRMSD>
3.35055828

$$$$
