
 OpenBabel03242519043D

 33 35  0  0  1  0  0  0  0  0999 V2000
   37.2030   30.7120   41.0570 N   0  0  0  0  0  0  0  0  0  0  0  0
   37.5530   29.6360   41.9640 C   0  0  0  0  0  0  0  0  0  0  0  0
   37.1200   28.4730   41.1250 C   0  0  2  0  0  0  0  0  0  0  0  0
   35.7280   28.9070   40.7110 C   0  0  0  0  0  0  0  0  0  0  0  0
   35.8910   30.3940   40.5320 C   0  0  0  0  0  0  0  0  0  0  0  0
   38.6370   29.6500   42.0760 H   0  0  0  0  0  0  0  0  0  0  0  0
   36.9970   29.6810   42.9130 H   0  0  0  0  0  0  0  0  0  0  0  0
   37.7930   28.3700   40.2460 H   0  0  0  0  0  0  0  0  0  0  0  0
   35.3420   28.3750   39.8340 H   0  0  0  0  0  0  0  0  0  0  0  0
   35.0920   28.7500   41.6270 H   0  0  0  0  0  0  0  0  0  0  0  0
   35.0740   30.9980   40.9610 H   0  0  0  0  0  0  0  0  0  0  0  0
   35.9820   30.5590   39.4200 H   0  0  0  0  0  0  0  0  0  0  0  0
   38.1740   34.0720   39.7660 C   0  0  0  0  0  0  0  0  0  0  0  0
   37.3660   32.9830   40.0800 C   0  0  0  0  0  0  0  0  0  0  0  0
   37.9180   31.8670   40.6940 C   0  0  0  0  0  0  0  0  0  0  0  0
   39.2580   31.9050   40.9600 N   0  0  0  0  0  0  0  0  0  0  0  0
   40.0440   32.9520   40.6590 C   0  0  0  0  0  0  0  0  0  0  0  0
   39.4990   34.0410   40.0600 N   0  0  0  0  0  0  0  0  0  0  0  0
   37.7610   34.9540   39.2860 H   0  0  0  0  0  0  0  0  0  0  0  0
   36.3220   32.9710   39.8650 H   0  0  0  0  0  0  0  0  0  0  0  0
   41.0840   32.8560   40.9220 H   0  0  0  0  0  0  0  0  0  0  0  0
   36.9920   27.2540   41.8710 N   0  0  0  0  0  0  0  0  0  0  0  0
   36.0150   26.9440   42.1610 H   0  0  0  0  0  0  0  0  0  0  0  0
   37.9710   24.9630   41.9750 C   0  0  0  0  0  0  0  0  0  0  0  0
   37.9450   26.3160   42.3330 C   0  0  0  0  0  0  0  0  0  0  0  0
   38.9630   26.6750   43.1890 C   0  0  0  0  0  0  0  0  0  0  0  0
   39.0980   27.6800   43.5590 H   0  0  0  0  0  0  0  0  0  0  0  0
   39.9360   25.8380   43.6760 C   0  0  0  0  0  0  0  0  0  0  0  0
   40.7310   26.1170   44.3440 H   0  0  0  0  0  0  0  0  0  0  0  0
   39.9250   24.5200   43.2990 C   0  0  0  0  0  3  0  0  0  0  0  0
   38.9290   24.1040   42.4450 C   0  0  0  0  0  3  0  0  0  0  0  0
   36.1130   24.1240   40.3350 N   0  0  0  0  0  0  0  0  0  0  0  0
   36.9320   24.4960   41.0710 C   0  0  0  0  0  0  0  0  0  0  0  0
  1  2  1  0  0  0  0
  2  6  1  0  0  0  0
  2  7  1  0  0  0  0
  3  8  1  6  0  0  0
  3 22  1  0  0  0  0
  3  2  1  0  0  0  0
  4  3  1  0  0  0  0
  4 10  1  0  0  0  0
  5  4  1  0  0  0  0
  5 11  1  0  0  0  0
  5  1  1  0  0  0  0
  9  4  1  0  0  0  0
 12  5  1  0  0  0  0
 13 18  2  0  0  0  0
 13 14  1  0  0  0  0
 14 15  2  0  0  0  0
 15 16  1  0  0  0  0
 15  1  1  0  0  0  0
 17 21  1  0  0  0  0
 17 16  2  0  0  0  0
 18 17  1  0  0  0  0
 19 13  1  0  0  0  0
 20 14  1  0  0  0  0
 22 23  1  0  0  0  0
 22 25  1  0  0  0  0
 24 25  2  0  0  0  0
 24 31  1  0  0  0  0
 25 26  1  0  0  0  0
 26 27  1  0  0  0  0
 26 28  2  0  0  0  0
 28 29  1  0  0  0  0
 30 28  1  0  0  0  0
 31 30  2  0  0  0  0
 32 33  3  0  0  0  0
 33 24  1  0  0  0  0
M  END
>  <minimizedAffinity>
-5.32206392

$$$$

 OpenBabel03242519043D

 33 35  0  0  1  0  0  0  0  0999 V2000
   36.4880   30.0930   38.2810 N   0  0  0  0  0  0  0  0  0  0  0  0
   36.7020   29.3460   39.5050 C   0  0  0  0  0  0  0  0  0  0  0  0
   36.1760   30.3490   40.4860 C   0  0  2  0  0  0  0  0  0  0  0  0
   36.8960   31.6070   40.0410 C   0  0  0  0  0  0  0  0  0  0  0  0
   36.9350   31.4460   38.5430 C   0  0  0  0  0  0  0  0  0  0  0  0
   36.0570   28.4700   39.4640 H   0  0  0  0  0  0  0  0  0  0  0  0
   37.7640   29.1210   39.6870 H   0  0  0  0  0  0  0  0  0  0  0  0
   35.0740   30.4490   40.3700 H   0  0  0  0  0  0  0  0  0  0  0  0
   36.4280   32.5330   40.3940 H   0  0  0  0  0  0  0  0  0  0  0  0
   37.9500   31.4840   40.4160 H   0  0  0  0  0  0  0  0  0  0  0  0
   37.9040   31.6990   38.0810 H   0  0  0  0  0  0  0  0  0  0  0  0
   36.1070   32.1010   38.1440 H   0  0  0  0  0  0  0  0  0  0  0  0
   34.3290   28.6740   35.5930 C   0  0  0  0  0  0  0  0  0  0  0  0
   34.7490   29.0320   36.8710 C   0  0  0  0  0  0  0  0  0  0  0  0
   35.9620   29.6830   37.0430 C   0  0  0  0  0  0  0  0  0  0  0  0
   36.6920   29.9420   35.9160 N   0  0  0  0  0  0  0  0  0  0  0  0
   36.2940   29.5990   34.6800 C   0  0  0  0  0  0  0  0  0  0  0  0
   35.1060   28.9620   34.5180 N   0  0  0  0  0  0  0  0  0  0  0  0
   33.3830   28.1630   35.4380 H   0  0  0  0  0  0  0  0  0  0  0  0
   34.1660   28.8220   37.7390 H   0  0  0  0  0  0  0  0  0  0  0  0
   36.9620   29.8600   33.8770 H   0  0  0  0  0  0  0  0  0  0  0  0
   36.5690   30.0780   41.8390 N   0  0  0  0  0  0  0  0  0  0  0  0
   36.2340   30.7440   42.6010 H   0  0  0  0  0  0  0  0  0  0  0  0
   38.7200   29.1610   42.7050 C   0  0  0  0  0  0  0  0  0  0  0  0
   37.3540   29.0520   42.4140 C   0  0  0  0  0  0  0  0  0  0  0  0
   36.8170   27.8310   42.7560 C   0  0  0  0  0  0  0  0  0  0  0  0
   35.7790   27.5790   42.6100 H   0  0  0  0  0  0  0  0  0  0  0  0
   37.5000   26.7860   43.3280 C   0  0  0  0  0  0  0  0  0  0  0  0
   37.0820   25.8320   43.5960 H   0  0  0  0  0  0  0  0  0  0  0  0
   38.8350   26.9340   43.5970 C   0  0  0  0  0  3  0  0  0  0  0  0
   39.4260   28.1350   43.2750 C   0  0  0  0  0  3  0  0  0  0  0  0
   39.8720   31.4320   42.1080 N   0  0  0  0  0  0  0  0  0  0  0  0
   39.3700   30.4200   42.3760 C   0  0  0  0  0  0  0  0  0  0  0  0
  1  5  1  0  0  0  0
  1  2  1  0  0  0  0
  2  7  1  0  0  0  0
  2  3  1  0  0  0  0
  3  8  1  6  0  0  0
  3 22  1  0  0  0  0
  4  9  1  0  0  0  0
  4 10  1  0  0  0  0
  4  3  1  0  0  0  0
  5  4  1  0  0  0  0
  6  2  1  0  0  0  0
 11  5  1  0  0  0  0
 12  5  1  0  0  0  0
 13 14  1  0  0  0  0
 14 15  2  0  0  0  0
 14 20  1  0  0  0  0
 15  1  1  0  0  0  0
 16 15  1  0  0  0  0
 17 16  2  0  0  0  0
 18 17  1  0  0  0  0
 18 13  2  0  0  0  0
 19 13  1  0  0  0  0
 21 17  1  0  0  0  0
 22 25  1  0  0  0  0
 22 23  1  0  0  0  0
 24 31  1  0  0  0  0
 25 24  2  0  0  0  0
 25 26  1  0  0  0  0
 26 28  2  0  0  0  0
 27 26  1  0  0  0  0
 28 29  1  0  0  0  0
 28 30  1  0  0  0  0
 31 30  2  0  0  0  0
 32 33  3  0  0  0  0
 33 24  1  0  0  0  0
M  END
>  <minimizedAffinity>
-5.11649418

$$$$

 OpenBabel03242519043D

 33 35  0  0  1  0  0  0  0  0999 V2000
   39.6170   33.0130   40.3920 N   0  0  0  0  0  0  0  0  0  0  0  0
   39.2080   32.0180   41.3640 C   0  0  0  0  0  0  0  0  0  0  0  0
   38.0860   31.3880   40.5960 C   0  0  2  0  0  0  0  0  0  0  0  0
   37.3070   32.6100   40.1510 C   0  0  0  0  0  0  0  0  0  0  0  0
   38.4010   33.6110   39.8820 C   0  0  0  0  0  0  0  0  0  0  0  0
   40.0370   31.3200   41.4790 H   0  0  0  0  0  0  0  0  0  0  0  0
   38.8540   32.4630   42.3060 H   0  0  0  0  0  0  0  0  0  0  0  0
   38.4920   30.8250   39.7270 H   0  0  0  0  0  0  0  0  0  0  0  0
   36.6350   32.4230   39.3070 H   0  0  0  0  0  0  0  0  0  0  0  0
   36.7600   32.9550   41.0720 H   0  0  0  0  0  0  0  0  0  0  0  0
   38.1990   34.6240   40.2700 H   0  0  0  0  0  0  0  0  0  0  0  0
   38.5360   33.6220   38.7620 H   0  0  0  0  0  0  0  0  0  0  0  0
   43.2450   33.8600   40.2350 C   0  0  0  0  0  0  0  0  0  0  0  0
   42.0220   33.4710   40.7750 C   0  0  0  0  0  0  0  0  0  0  0  0
   40.9000   33.3920   39.9610 C   0  0  0  0  0  0  0  0  0  0  0  0
   41.0680   33.7100   38.6420 N   0  0  0  0  0  0  0  0  0  0  0  0
   42.2450   34.0870   38.1140 C   0  0  0  0  0  0  0  0  0  0  0  0
   43.3390   34.1610   38.9150 N   0  0  0  0  0  0  0  0  0  0  0  0
   44.1330   33.9270   40.8560 H   0  0  0  0  0  0  0  0  0  0  0  0
   41.9090   33.2260   41.8060 H   0  0  0  0  0  0  0  0  0  0  0  0
   42.2420   34.3100   37.0610 H   0  0  0  0  0  0  0  0  0  0  0  0
   37.2170   30.5930   41.4140 N   0  0  0  0  0  0  0  0  0  0  0  0
   36.3120   31.0360   41.7620 H   0  0  0  0  0  0  0  0  0  0  0  0
   36.7770   28.1450   41.2320 C   0  0  0  0  0  0  0  0  0  0  0  0
   37.3080   29.2630   41.8870 C   0  0  0  0  0  0  0  0  0  0  0  0
   37.9590   28.9510   43.0600 C   0  0  0  0  0  0  0  0  0  0  0  0
   38.4350   29.6900   43.6870 H   0  0  0  0  0  0  0  0  0  0  0  0
   38.1070   27.6920   43.5870 C   0  0  0  0  0  0  0  0  0  0  0  0
   38.6160   27.4480   44.5020 H   0  0  0  0  0  0  0  0  0  0  0  0
   37.5720   26.6250   42.9130 C   0  0  0  0  0  3  0  0  0  0  0  0
   36.9090   26.8770   41.7340 C   0  0  0  0  0  3  0  0  0  0  0  0
   35.5000   28.5870   38.9920 N   0  0  0  0  0  0  0  0  0  0  0  0
   36.0720   28.3820   39.9830 C   0  0  0  0  0  0  0  0  0  0  0  0
  1  2  1  0  0  0  0
  2  6  1  0  0  0  0
  2  7  1  0  0  0  0
  3  8  1  6  0  0  0
  3  2  1  0  0  0  0
  3 22  1  0  0  0  0
  4  3  1  0  0  0  0
  4 10  1  0  0  0  0
  5  4  1  0  0  0  0
  5 11  1  0  0  0  0
  5  1  1  0  0  0  0
  9  4  1  0  0  0  0
 12  5  1  0  0  0  0
 13 14  1  0  0  0  0
 13 19  1  0  0  0  0
 14 20  1  0  0  0  0
 15  1  1  0  0  0  0
 15 14  2  0  0  0  0
 16 15  1  0  0  0  0
 17 16  2  0  0  0  0
 17 18  1  0  0  0  0
 18 13  2  0  0  0  0
 21 17  1  0  0  0  0
 22 23  1  0  0  0  0
 22 25  1  0  0  0  0
 24 31  2  0  0  0  0
 24 25  1  0  0  0  0
 25 26  2  0  0  0  0
 26 28  1  0  0  0  0
 26 27  1  0  0  0  0
 28 29  1  0  0  0  0
 30 28  2  0  0  0  0
 31 30  1  0  0  0  0
 32 33  3  0  0  0  0
 33 24  1  0  0  0  0
M  END
>  <minimizedAffinity>
-5.06570244

$$$$

 OpenBabel03242519043D

 33 35  0  0  1  0  0  0  0  0999 V2000
   36.6570   30.1660   38.8740 N   0  0  0  0  0  0  0  0  0  0  0  0
   37.2380   29.4760   40.0100 C   0  0  0  0  0  0  0  0  0  0  0  0
   36.8270   30.4240   41.0950 C   0  0  2  0  0  0  0  0  0  0  0  0
   37.2610   31.7540   40.5090 C   0  0  0  0  0  0  0  0  0  0  0  0
   36.9760   31.5690   39.0410 C   0  0  0  0  0  0  0  0  0  0  0  0
   36.7160   28.5250   40.1090 H   0  0  0  0  0  0  0  0  0  0  0  0
   38.3330   29.3900   39.9400 H   0  0  0  0  0  0  0  0  0  0  0  0
   35.7240   30.3820   41.2360 H   0  0  0  0  0  0  0  0  0  0  0  0
   36.7730   32.6200   40.9690 H   0  0  0  0  0  0  0  0  0  0  0  0
   38.3800   31.7710   40.6310 H   0  0  0  0  0  0  0  0  0  0  0  0
   37.7740   31.9330   38.3710 H   0  0  0  0  0  0  0  0  0  0  0  0
   36.0030   32.1070   38.8480 H   0  0  0  0  0  0  0  0  0  0  0  0
   34.0260   28.6250   36.7280 C   0  0  0  0  0  0  0  0  0  0  0  0
   34.6640   29.0810   37.8780 C   0  0  0  0  0  0  0  0  0  0  0  0
   35.9180   29.6700   37.7860 C   0  0  0  0  0  0  0  0  0  0  0  0
   36.4660   29.7690   36.5370 N   0  0  0  0  0  0  0  0  0  0  0  0
   35.8550   29.3310   35.4240 C   0  0  0  0  0  0  0  0  0  0  0  0
   34.6290   28.7570   35.5200 N   0  0  0  0  0  0  0  0  0  0  0  0
   33.0450   28.1620   36.7800 H   0  0  0  0  0  0  0  0  0  0  0  0
   34.2220   28.9960   38.8450 H   0  0  0  0  0  0  0  0  0  0  0  0
   36.3950   29.4690   34.5020 H   0  0  0  0  0  0  0  0  0  0  0  0
   37.5500   30.2310   42.3180 N   0  0  0  0  0  0  0  0  0  0  0  0
   37.2270   30.7670   43.1810 H   0  0  0  0  0  0  0  0  0  0  0  0
   38.5980   28.1490   43.2050 C   0  0  0  0  0  0  0  0  0  0  0  0
   38.6700   29.4310   42.6460 C   0  0  0  0  0  0  0  0  0  0  0  0
   39.9590   29.8590   42.4230 C   0  0  0  0  0  0  0  0  0  0  0  0
   40.1980   30.8180   41.9900 H   0  0  0  0  0  0  0  0  0  0  0  0
   41.1010   29.1470   42.6970 C   0  0  0  0  0  0  0  0  0  0  0  0
   42.1080   29.4790   42.5230 H   0  0  0  0  0  0  0  0  0  0  0  0
   40.9850   27.8950   43.2430 C   0  0  0  0  0  3  0  0  0  0  0  0
   39.7190   27.4150   43.4890 C   0  0  0  0  0  3  0  0  0  0  0  0
   36.2040   27.2060   43.6790 N   0  0  0  0  0  0  0  0  0  0  0  0
   37.2710   27.6160   43.4740 C   0  0  0  0  0  0  0  0  0  0  0  0
  1  5  1  0  0  0  0
  1  2  1  0  0  0  0
  2  6  1  0  0  0  0
  2  3  1  0  0  0  0
  3  8  1  1  0  0  0
  3 22  1  0  0  0  0
  4 10  1  0  0  0  0
  4  9  1  0  0  0  0
  4  3  1  0  0  0  0
  5  4  1  0  0  0  0
  7  2  1  0  0  0  0
 11  5  1  0  0  0  0
 12  5  1  0  0  0  0
 13 19  1  0  0  0  0
 13 14  1  0  0  0  0
 14 20  1  0  0  0  0
 15 14  2  0  0  0  0
 15  1  1  0  0  0  0
 16 15  1  0  0  0  0
 17 18  1  0  0  0  0
 17 16  2  0  0  0  0
 18 13  2  0  0  0  0
 21 17  1  0  0  0  0
 22 25  1  0  0  0  0
 22 23  1  0  0  0  0
 24 33  1  0  0  0  0
 24 31  1  0  0  0  0
 25 24  2  0  0  0  0
 26 25  1  0  0  0  0
 26 28  2  0  0  0  0
 27 26  1  0  0  0  0
 28 30  1  0  0  0  0
 29 28  1  0  0  0  0
 30 31  2  0  0  0  0
 33 32  3  0  0  0  0
M  END
>  <minimizedAffinity>
-4.84140921

$$$$

 OpenBabel03242519043D

 33 35  0  0  1  0  0  0  0  0999 V2000
   38.5000   31.3540   38.9450 N   0  0  0  0  0  0  0  0  0  0  0  0
   38.0670   30.5720   40.0870 C   0  0  0  0  0  0  0  0  0  0  0  0
   37.5050   29.3890   39.3600 C   0  0  2  0  0  0  0  0  0  0  0  0
   36.6270   30.0650   38.3260 C   0  0  0  0  0  0  0  0  0  0  0  0
   37.4240   31.2950   37.9780 C   0  0  0  0  0  0  0  0  0  0  0  0
   38.9610   30.2940   40.6440 H   0  0  0  0  0  0  0  0  0  0  0  0
   37.2980   31.0820   40.6860 H   0  0  0  0  0  0  0  0  0  0  0  0
   38.3280   28.8130   38.8820 H   0  0  0  0  0  0  0  0  0  0  0  0
   36.3710   29.4230   37.4750 H   0  0  0  0  0  0  0  0  0  0  0  0
   35.7190   30.4070   38.8970 H   0  0  0  0  0  0  0  0  0  0  0  0
   36.8280   32.2210   37.9070 H   0  0  0  0  0  0  0  0  0  0  0  0
   37.9340   31.0600   36.9990 H   0  0  0  0  0  0  0  0  0  0  0  0
   41.5650   32.8320   37.4210 C   0  0  0  0  0  0  0  0  0  0  0  0
   40.3880   32.0940   37.5220 C   0  0  0  0  0  0  0  0  0  0  0  0
   39.6950   32.0610   38.7240 C   0  0  0  0  0  0  0  0  0  0  0  0
   40.2240   32.7730   39.7650 N   0  0  0  0  0  0  0  0  0  0  0  0
   41.3580   33.4860   39.6740 C   0  0  0  0  0  0  0  0  0  0  0  0
   42.0320   33.5160   38.4960 N   0  0  0  0  0  0  0  0  0  0  0  0
   42.1210   32.8700   36.4890 H   0  0  0  0  0  0  0  0  0  0  0  0
   39.9910   31.5450   36.7000 H   0  0  0  0  0  0  0  0  0  0  0  0
   41.6660   34.0020   40.5670 H   0  0  0  0  0  0  0  0  0  0  0  0
   36.6590   28.5700   40.1810 N   0  0  0  0  0  0  0  0  0  0  0  0
   35.7720   29.0070   40.5770 H   0  0  0  0  0  0  0  0  0  0  0  0
   37.0640   26.8150   41.9050 C   0  0  0  0  0  0  0  0  0  0  0  0
   36.7570   27.2230   40.6010 C   0  0  0  0  0  0  0  0  0  0  0  0
   36.5370   26.1740   39.7360 C   0  0  0  0  0  0  0  0  0  0  0  0
   36.2810   26.3080   38.6970 H   0  0  0  0  0  0  0  0  0  0  0  0
   36.5970   24.8410   40.0590 C   0  0  0  0  0  0  0  0  0  0  0  0
   36.4260   24.0210   39.3860 H   0  0  0  0  0  0  0  0  0  0  0  0
   36.9010   24.4840   41.3480 C   0  0  0  0  0  3  0  0  0  0  0  0
   37.1310   25.4920   42.2560 C   0  0  0  0  0  3  0  0  0  0  0  0
   37.4940   28.7050   43.6610 N   0  0  0  0  0  0  0  0  0  0  0  0
   37.3100   27.8590   42.8860 C   0  0  0  0  0  0  0  0  0  0  0  0
  1  2  1  0  0  0  0
  2  6  1  0  0  0  0
  2  7  1  0  0  0  0
  3  8  1  6  0  0  0
  3  2  1  0  0  0  0
  3 22  1  0  0  0  0
  4 10  1  0  0  0  0
  4  3  1  0  0  0  0
  5  4  1  0  0  0  0
  5  1  1  0  0  0  0
  9  4  1  0  0  0  0
 11  5  1  0  0  0  0
 12  5  1  0  0  0  0
 13 14  2  0  0  0  0
 13 18  1  0  0  0  0
 14 15  1  0  0  0  0
 15  1  1  0  0  0  0
 15 16  2  0  0  0  0
 17 16  1  0  0  0  0
 17 21  1  0  0  0  0
 18 17  2  0  0  0  0
 19 13  1  0  0  0  0
 20 14  1  0  0  0  0
 22 23  1  0  0  0  0
 22 25  1  0  0  0  0
 24 31  1  0  0  0  0
 24 33  1  0  0  0  0
 25 24  2  0  0  0  0
 26 28  2  0  0  0  0
 26 25  1  0  0  0  0
 27 26  1  0  0  0  0
 28 30  1  0  0  0  0
 29 28  1  0  0  0  0
 30 31  2  0  0  0  0
 33 32  3  0  0  0  0
M  END
>  <minimizedAffinity>
-4.83400583

$$$$

 OpenBabel03242519043D

 33 35  0  0  1  0  0  0  0  0999 V2000
   38.0800   29.2430   41.9380 N   0  0  0  0  0  0  0  0  0  0  0  0
   37.9510   27.9100   41.3830 C   0  0  0  0  0  0  0  0  0  0  0  0
   36.9610   27.3460   42.3560 C   0  0  2  0  0  0  0  0  0  0  0  0
   37.5930   27.7320   43.6800 C   0  0  0  0  0  0  0  0  0  0  0  0
   38.1910   29.0800   43.3730 C   0  0  0  0  0  0  0  0  0  0  0  0
   37.5050   28.0150   40.3950 H   0  0  0  0  0  0  0  0  0  0  0  0
   38.8980   27.3490   41.3970 H   0  0  0  0  0  0  0  0  0  0  0  0
   35.9730   27.8380   42.2180 H   0  0  0  0  0  0  0  0  0  0  0  0
   36.8940   27.7170   44.5230 H   0  0  0  0  0  0  0  0  0  0  0  0
   38.4470   27.0110   43.8120 H   0  0  0  0  0  0  0  0  0  0  0  0
   39.2110   29.2280   43.7670 H   0  0  0  0  0  0  0  0  0  0  0  0
   37.4720   29.8370   43.8020 H   0  0  0  0  0  0  0  0  0  0  0  0
   39.0320   32.6470   40.7500 C   0  0  0  0  0  0  0  0  0  0  0  0
   39.1180   31.4350   41.4300 C   0  0  0  0  0  0  0  0  0  0  0  0
   38.1030   30.4970   41.3020 C   0  0  0  0  0  0  0  0  0  0  0  0
   37.0510   30.8290   40.4950 N   0  0  0  0  0  0  0  0  0  0  0  0
   36.9610   31.9960   39.8360 C   0  0  0  0  0  0  0  0  0  0  0  0
   37.9570   32.9090   39.9640 N   0  0  0  0  0  0  0  0  0  0  0  0
   39.8160   33.3930   40.8370 H   0  0  0  0  0  0  0  0  0  0  0  0
   39.9460   31.1930   42.0550 H   0  0  0  0  0  0  0  0  0  0  0  0
   36.0800   32.1330   39.2330 H   0  0  0  0  0  0  0  0  0  0  0  0
   36.8790   25.9150   42.3140 N   0  0  0  0  0  0  0  0  0  0  0  0
   36.4860   25.4100   43.1670 H   0  0  0  0  0  0  0  0  0  0  0  0
   38.3910   24.1900   41.3360 C   0  0  0  0  0  0  0  0  0  0  0  0
   37.2280   24.9700   41.3210 C   0  0  0  0  0  0  0  0  0  0  0  0
   36.4200   24.7270   40.2330 C   0  0  0  0  0  0  0  0  0  0  0  0
   35.4820   25.2330   40.0680 H   0  0  0  0  0  0  0  0  0  0  0  0
   36.6730   23.8220   39.2310 C   0  0  0  0  0  0  0  0  0  0  0  0
   36.0430   23.6310   38.3820 H   0  0  0  0  0  0  0  0  0  0  0  0
   37.8230   23.0780   39.2850 C   0  0  0  0  0  3  0  0  0  0  0  0
   38.6700   23.2800   40.3510 C   0  0  0  0  0  3  0  0  0  0  0  0
   40.0210   24.5480   43.3510 N   0  0  0  0  0  0  0  0  0  0  0  0
   39.3040   24.3820   42.4520 C   0  0  0  0  0  0  0  0  0  0  0  0
  1  5  1  0  0  0  0
  2  7  1  0  0  0  0
  2  1  1  0  0  0  0
  2  3  1  0  0  0  0
  3  8  1  6  0  0  0
  3  4  1  0  0  0  0
  4 10  1  0  0  0  0
  4  9  1  0  0  0  0
  5  4  1  0  0  0  0
  5 11  1  0  0  0  0
  5 12  1  0  0  0  0
  6  2  1  0  0  0  0
 13 19  1  0  0  0  0
 13 14  1  0  0  0  0
 14 20  1  0  0  0  0
 15 14  2  0  0  0  0
 15  1  1  0  0  0  0
 16 15  1  0  0  0  0
 17 18  1  0  0  0  0
 17 16  2  0  0  0  0
 18 13  2  0  0  0  0
 21 17  1  0  0  0  0
 22  3  1  0  0  0  0
 22 23  1  0  0  0  0
 24 33  1  0  0  0  0
 25 24  1  0  0  0  0
 25 22  1  0  0  0  0
 26 25  2  0  0  0  0
 27 26  1  0  0  0  0
 28 30  2  0  0  0  0
 28 26  1  0  0  0  0
 29 28  1  0  0  0  0
 30 31  1  0  0  0  0
 31 24  2  0  0  0  0
 33 32  3  0  0  0  0
M  END
>  <minimizedAffinity>
-4.79808807

$$$$

 OpenBabel03242519043D

 33 35  0  0  1  0  0  0  0  0999 V2000
   38.1610   30.9780   41.4170 N   0  0  0  0  0  0  0  0  0  0  0  0
   38.4020   29.8200   42.2550 C   0  0  0  0  0  0  0  0  0  0  0  0
   37.6940   28.7850   41.4350 C   0  0  2  0  0  0  0  0  0  0  0  0
   36.3660   29.4690   41.1750 C   0  0  0  0  0  0  0  0  0  0  0  0
   36.7690   30.9130   41.0200 C   0  0  0  0  0  0  0  0  0  0  0  0
   39.4770   29.6430   42.2570 H   0  0  0  0  0  0  0  0  0  0  0  0
   37.9550   29.9180   43.2570 H   0  0  0  0  0  0  0  0  0  0  0  0
   38.2520   28.6070   40.4890 H   0  0  0  0  0  0  0  0  0  0  0  0
   35.8110   29.0500   40.3280 H   0  0  0  0  0  0  0  0  0  0  0  0
   35.8030   29.3840   42.1460 H   0  0  0  0  0  0  0  0  0  0  0  0
   36.1150   31.6290   41.5450 H   0  0  0  0  0  0  0  0  0  0  0  0
   36.7810   31.1080   39.9080 H   0  0  0  0  0  0  0  0  0  0  0  0
   39.5780   34.1610   40.0900 C   0  0  0  0  0  0  0  0  0  0  0  0
   38.6260   33.2130   40.4530 C   0  0  0  0  0  0  0  0  0  0  0  0
   39.0280   32.0080   41.0130 C   0  0  0  0  0  0  0  0  0  0  0  0
   40.3720   31.8210   41.1800 N   0  0  0  0  0  0  0  0  0  0  0  0
   41.2960   32.7310   40.8330 C   0  0  0  0  0  0  0  0  0  0  0  0
   40.8970   33.9080   40.2860 N   0  0  0  0  0  0  0  0  0  0  0  0
   39.2830   35.1090   39.6510 H   0  0  0  0  0  0  0  0  0  0  0  0
   37.5810   33.3760   40.3150 H   0  0  0  0  0  0  0  0  0  0  0  0
   42.3220   32.4600   41.0180 H   0  0  0  0  0  0  0  0  0  0  0  0
   37.4270   27.5760   42.1570 N   0  0  0  0  0  0  0  0  0  0  0  0
   36.9070   27.6510   43.0850 H   0  0  0  0  0  0  0  0  0  0  0  0
   38.8800   25.5540   42.3110 C   0  0  0  0  0  0  0  0  0  0  0  0
   37.7230   26.2190   41.8850 C   0  0  0  0  0  0  0  0  0  0  0  0
   36.8630   25.4170   41.1690 C   0  0  0  0  0  0  0  0  0  0  0  0
   35.9210   25.7650   40.7730 H   0  0  0  0  0  0  0  0  0  0  0  0
   37.0620   24.0920   40.8700 C   0  0  0  0  0  0  0  0  0  0  0  0
   36.3910   23.4650   40.3110 H   0  0  0  0  0  0  0  0  0  0  0  0
   38.2070   23.4790   41.3060 C   0  0  0  0  0  3  0  0  0  0  0  0
   39.1050   24.2330   42.0270 C   0  0  0  0  0  3  0  0  0  0  0  0
   40.6110   26.9600   43.6780 N   0  0  0  0  0  0  0  0  0  0  0  0
   39.8450   26.3270   43.0770 C   0  0  0  0  0  0  0  0  0  0  0  0
  1  2  1  0  0  0  0
  2  6  1  0  0  0  0
  2  7  1  0  0  0  0
  3  8  1  6  0  0  0
  3 22  1  0  0  0  0
  3  2  1  0  0  0  0
  4  3  1  0  0  0  0
  4 10  1  0  0  0  0
  5  4  1  0  0  0  0
  5  1  1  0  0  0  0
  5 11  1  0  0  0  0
  9  4  1  0  0  0  0
 12  5  1  0  0  0  0
 13 18  2  0  0  0  0
 13 14  1  0  0  0  0
 14 15  2  0  0  0  0
 15 16  1  0  0  0  0
 15  1  1  0  0  0  0
 17 21  1  0  0  0  0
 17 16  2  0  0  0  0
 18 17  1  0  0  0  0
 19 13  1  0  0  0  0
 20 14  1  0  0  0  0
 22 23  1  0  0  0  0
 24 33  1  0  0  0  0
 25 22  1  0  0  0  0
 25 24  2  0  0  0  0
 26 25  1  0  0  0  0
 27 26  1  0  0  0  0
 28 26  2  0  0  0  0
 28 30  1  0  0  0  0
 29 28  1  0  0  0  0
 30 31  2  0  0  0  0
 31 24  1  0  0  0  0
 33 32  3  0  0  0  0
M  END
>  <minimizedAffinity>
-4.72567892

$$$$

 OpenBabel03242519043D

 33 35  0  0  1  0  0  0  0  0999 V2000
   36.5820   29.2070   39.1780 N   0  0  0  0  0  0  0  0  0  0  0  0
   36.9910   28.0690   39.9760 C   0  0  0  0  0  0  0  0  0  0  0  0
   36.1830   28.3430   41.2070 C   0  0  2  0  0  0  0  0  0  0  0  0
   36.5070   29.8030   41.4570 C   0  0  0  0  0  0  0  0  0  0  0  0
   36.6090   30.3560   40.0600 C   0  0  0  0  0  0  0  0  0  0  0  0
   36.6320   27.1740   39.4690 H   0  0  0  0  0  0  0  0  0  0  0  0
   38.0710   28.0660   40.1920 H   0  0  0  0  0  0  0  0  0  0  0  0
   35.1020   28.1980   40.9900 H   0  0  0  0  0  0  0  0  0  0  0  0
   35.7850   30.3110   42.1050 H   0  0  0  0  0  0  0  0  0  0  0  0
   37.5470   29.7970   41.8890 H   0  0  0  0  0  0  0  0  0  0  0  0
   37.4660   31.0310   39.8970 H   0  0  0  0  0  0  0  0  0  0  0  0
   35.6300   30.8850   39.8690 H   0  0  0  0  0  0  0  0  0  0  0  0
   36.5700   29.7400   35.4870 C   0  0  0  0  0  0  0  0  0  0  0  0
   37.0470   29.7030   36.7950 C   0  0  0  0  0  0  0  0  0  0  0  0
   36.2130   29.2860   37.8240 C   0  0  0  0  0  0  0  0  0  0  0  0
   34.9390   28.9280   37.4810 N   0  0  0  0  0  0  0  0  0  0  0  0
   34.4720   28.9620   36.2220 C   0  0  0  0  0  0  0  0  0  0  0  0
   35.2930   29.3690   35.2200 N   0  0  0  0  0  0  0  0  0  0  0  0
   37.2080   30.0630   34.6700 H   0  0  0  0  0  0  0  0  0  0  0  0
   38.0440   29.9860   37.0440 H   0  0  0  0  0  0  0  0  0  0  0  0
   33.4490   28.6530   36.0870 H   0  0  0  0  0  0  0  0  0  0  0  0
   36.6230   27.5970   42.3510 N   0  0  0  0  0  0  0  0  0  0  0  0
   35.9220   27.4210   43.1340 H   0  0  0  0  0  0  0  0  0  0  0  0
   38.2080   25.6730   42.4260 C   0  0  0  0  0  0  0  0  0  0  0  0
   37.8650   27.0070   42.6820 C   0  0  0  0  0  0  0  0  0  0  0  0
   38.8720   27.7240   43.2880 C   0  0  0  0  0  0  0  0  0  0  0  0
   38.7820   28.7670   43.5480 H   0  0  0  0  0  0  0  0  0  0  0  0
   40.1100   27.2380   43.6330 C   0  0  0  0  0  0  0  0  0  0  0  0
   40.8960   27.7970   44.1050 H   0  0  0  0  0  0  0  0  0  0  0  0
   40.4040   25.9260   43.3640 C   0  0  0  0  0  3  0  0  0  0  0  0
   39.4340   25.1600   42.7590 C   0  0  0  0  0  3  0  0  0  0  0  0
   36.3840   24.1880   41.2800 N   0  0  0  0  0  0  0  0  0  0  0  0
   37.2020   24.8410   41.7860 C   0  0  0  0  0  0  0  0  0  0  0  0
  1  2  1  0  0  0  0
  1  5  1  0  0  0  0
  2  7  1  0  0  0  0
  2  3  1  0  0  0  0
  3  8  1  6  0  0  0
  3  4  1  0  0  0  0
  3 22  1  0  0  0  0
  4 10  1  0  0  0  0
  4  9  1  0  0  0  0
  5  4  1  0  0  0  0
  6  2  1  0  0  0  0
 11  5  1  0  0  0  0
 12  5  1  0  0  0  0
 13 14  1  0  0  0  0
 14 20  1  0  0  0  0
 14 15  2  0  0  0  0
 15  1  1  0  0  0  0
 16 15  1  0  0  0  0
 17 16  2  0  0  0  0
 18 13  2  0  0  0  0
 18 17  1  0  0  0  0
 19 13  1  0  0  0  0
 21 17  1  0  0  0  0
 22 25  1  0  0  0  0
 22 23  1  0  0  0  0
 24 25  2  0  0  0  0
 24 31  1  0  0  0  0
 25 26  1  0  0  0  0
 26 27  1  0  0  0  0
 26 28  2  0  0  0  0
 28 29  1  0  0  0  0
 30 28  1  0  0  0  0
 31 30  2  0  0  0  0
 32 33  3  0  0  0  0
 33 24  1  0  0  0  0
M  END
>  <minimizedAffinity>
-4.65762043

$$$$

 OpenBabel03242519043D

 33 35  0  0  1  0  0  0  0  0999 V2000
   33.8550   28.7800   38.1480 N   0  0  0  0  0  0  0  0  0  0  0  0
   33.8120   29.1890   39.5390 C   0  0  0  0  0  0  0  0  0  0  0  0
   35.2710   29.4530   39.7500 C   0  0  2  0  0  0  0  0  0  0  0  0
   35.8870   28.1880   39.1850 C   0  0  0  0  0  0  0  0  0  0  0  0
   34.9800   27.8780   38.0220 C   0  0  0  0  0  0  0  0  0  0  0  0
   33.2410   30.1160   39.5840 H   0  0  0  0  0  0  0  0  0  0  0  0
   33.4430   28.3950   40.2050 H   0  0  0  0  0  0  0  0  0  0  0  0
   35.5810   30.3500   39.1710 H   0  0  0  0  0  0  0  0  0  0  0  0
   36.9480   28.2880   38.9300 H   0  0  0  0  0  0  0  0  0  0  0  0
   35.7020   27.4010   39.9690 H   0  0  0  0  0  0  0  0  0  0  0  0
   34.6990   26.8150   37.9320 H   0  0  0  0  0  0  0  0  0  0  0  0
   35.5300   28.2350   37.1030 H   0  0  0  0  0  0  0  0  0  0  0  0
   32.4860   29.4550   34.7460 C   0  0  0  0  0  0  0  0  0  0  0  0
   33.3960   29.0830   35.7320 C   0  0  0  0  0  0  0  0  0  0  0  0
   33.0250   29.1300   37.0690 C   0  0  0  0  0  0  0  0  0  0  0  0
   31.7530   29.5500   37.3440 N   0  0  0  0  0  0  0  0  0  0  0  0
   30.8700   29.9100   36.3980 C   0  0  0  0  0  0  0  0  0  0  0  0
   31.2390   29.8610   35.0920 N   0  0  0  0  0  0  0  0  0  0  0  0
   32.7580   29.4240   33.6950 H   0  0  0  0  0  0  0  0  0  0  0  0
   34.3840   28.7580   35.4990 H   0  0  0  0  0  0  0  0  0  0  0  0
   29.9010   30.2210   36.7480 H   0  0  0  0  0  0  0  0  0  0  0  0
   35.6370   29.5330   41.1350 N   0  0  0  0  0  0  0  0  0  0  0  0
   35.0200   30.1120   41.7830 H   0  0  0  0  0  0  0  0  0  0  0  0
   37.9810   29.5390   41.9850 C   0  0  0  0  0  0  0  0  0  0  0  0
   36.7060   28.9710   41.8710 C   0  0  0  0  0  0  0  0  0  0  0  0
   36.5680   27.7910   42.5680 C   0  0  0  0  0  0  0  0  0  0  0  0
   35.6510   27.2250   42.5970 H   0  0  0  0  0  0  0  0  0  0  0  0
   37.5450   27.1820   43.3170 C   0  0  0  0  0  0  0  0  0  0  0  0
   37.4390   26.2610   43.8610 H   0  0  0  0  0  0  0  0  0  0  0  0
   38.7790   27.7720   43.4010 C   0  0  0  0  0  3  0  0  0  0  0  0
   38.9750   28.9540   42.7250 C   0  0  0  0  0  3  0  0  0  0  0  0
   38.4030   31.7790   40.7010 N   0  0  0  0  0  0  0  0  0  0  0  0
   38.2150   30.7890   41.2810 C   0  0  0  0  0  0  0  0  0  0  0  0
  1  2  1  0  0  0  0
  2  6  1  0  0  0  0
  2  3  1  0  0  0  0
  2  7  1  0  0  0  0
  3  8  1  6  0  0  0
  3 22  1  0  0  0  0
  4  3  1  0  0  0  0
  4 10  1  0  0  0  0
  5  1  1  0  0  0  0
  5  4  1  0  0  0  0
  9  4  1  0  0  0  0
 11  5  1  0  0  0  0
 12  5  1  0  0  0  0
 13 18  2  0  0  0  0
 13 14  1  0  0  0  0
 14 15  2  0  0  0  0
 15 16  1  0  0  0  0
 15  1  1  0  0  0  0
 17 21  1  0  0  0  0
 17 16  2  0  0  0  0
 18 17  1  0  0  0  0
 19 13  1  0  0  0  0
 20 14  1  0  0  0  0
 22 23  1  0  0  0  0
 22 25  1  0  0  0  0
 24 31  1  0  0  0  0
 25 24  2  0  0  0  0
 25 26  1  0  0  0  0
 26 27  1  0  0  0  0
 26 28  2  0  0  0  0
 28 30  1  0  0  0  0
 28 29  1  0  0  0  0
 31 30  2  0  0  0  0
 32 33  3  0  0  0  0
 33 24  1  0  0  0  0
M  END
>  <minimizedAffinity>
-4.63253832

$$$$
