
 OpenBabel03252507463D

 38 40  0  0  0  0  0  0  0  0999 V2000
   47.5400   34.7810   41.0780 C   0  0  0  0  0  0  0  0  0  0  0  0
   47.9150   35.7840   40.7690 H   0  0  0  0  0  0  0  0  0  0  0  0
   46.8920   34.3060   40.3120 H   0  0  0  0  0  0  0  0  0  0  0  0
   48.7200   33.9730   41.4010 C   0  0  0  0  0  0  0  0  0  0  0  0
   48.7230   32.6790   40.9040 C   0  0  0  0  0  0  0  0  0  0  0  0
   49.7990   31.8250   41.1700 C   0  0  0  0  0  0  0  0  0  0  0  0
   50.8250   32.3200   41.9280 N   0  0  0  0  0  0  0  0  0  0  0  0
   50.7770   33.5940   42.3920 C   0  0  0  0  0  0  0  0  0  0  0  0
   49.7410   34.3830   42.1240 N   0  0  0  0  0  0  0  0  0  0  0  0
   49.7680   30.8280   40.7690 H   0  0  0  0  0  0  0  0  0  0  0  0
   51.5740   34.0070   42.9930 H   0  0  0  0  0  0  0  0  0  0  0  0
   47.3570   32.0380   39.9220 S   0  0  0  0  0  0  0  0  0  0  0  0
   47.5380   31.1930   37.1740 C   0  0  0  0  0  0  0  0  0  0  0  0
   47.7110   32.1150   38.1800 C   0  0  0  0  0  0  0  0  0  0  0  0
   48.2670   33.3540   37.8390 C   0  0  0  0  0  0  0  0  0  0  0  0
   48.4750   34.1970   38.5030 H   0  0  0  0  0  0  0  0  0  0  0  0
   48.6400   33.6610   36.5330 C   0  0  0  0  0  0  0  0  0  0  0  0
   49.0660   34.5820   36.2110 H   0  0  0  0  0  0  0  0  0  0  0  0
   48.4520   32.7060   35.5310 C   0  0  0  0  0  3  0  0  0  0  0  0
   47.9070   31.5020   35.8890 C   0  0  0  0  0  3  0  0  0  0  0  0
   46.5540   28.9380   37.9430 N   0  0  0  0  0  0  0  0  0  0  0  0
   46.9900   29.9590   37.6030 C   0  0  0  0  0  0  0  0  0  0  0  0
   46.6440   35.0270   42.2650 C   0  0  0  0  0  0  0  0  0  0  0  0
   46.8800   36.0160   42.7170 H   0  0  0  0  0  0  0  0  0  0  0  0
   46.8350   34.2720   43.0650 H   0  0  0  0  0  0  0  0  0  0  0  0
   45.1890   34.9600   41.9530 C   0  0  0  0  0  0  0  0  0  0  0  0
   44.2510   35.5570   42.8510 C   0  0  0  0  0  0  0  0  0  0  0  0
   42.6380   35.2140   42.0460 S   0  0  0  0  0  0  0  0  0  0  0  0
   43.5160   34.3110   40.6150 C   0  0  0  0  0  0  0  0  0  0  0  0
   44.6100   34.4060   40.9250 N   0  0  0  0  0  0  0  0  0  0  0  0
   44.4760   36.0790   43.7770 H   0  0  0  0  0  0  0  0  0  0  0  0
   42.8330   33.7400   39.5410 O   0  0  0  0  0  0  0  0  0  0  0  0
   40.8240   33.9520   37.8320 O   0  0  0  0  0  0  0  0  0  0  0  0
   41.8600   34.7570   38.6010 P   0  0  0  0  0  0  0  0  0  0  0  0
   41.0610   35.8210   39.6390 O   0  0  0  0  0  0  0  0  0  0  0  0
   40.2990   35.3150   40.0320 H   0  0  0  0  0  0  0  0  0  0  0  0
   42.8370   35.6640   37.5480 O   0  0  0  0  0  0  0  0  0  0  0  0
   43.2020   35.0910   36.8290 H   0  0  0  0  0  0  0  0  0  0  0  0
  1  4  1  0  0  0  0
  1 23  1  0  0  0  0
  2  1  1  0  0  0  0
  3  1  1  0  0  0  0
  4  9  1  0  0  0  0
  5  6  1  0  0  0  0
  5  4  2  0  0  0  0
  6  7  2  0  0  0  0
  7  8  1  0  0  0  0
  8 11  1  0  0  0  0
  9  8  2  0  0  0  0
 10  6  1  0  0  0  0
 12  5  1  0  0  0  0
 13 22  1  0  0  0  0
 13 14  1  0  0  0  0
 14 12  1  0  0  0  0
 15 14  2  0  0  0  0
 15 16  1  0  0  0  0
 17 15  1  0  0  0  0
 18 17  1  0  0  0  0
 19 20  1  0  0  0  0
 19 17  2  0  0  0  0
 20 13  2  0  0  0  0
 22 21  3  0  0  0  0
 23 24  1  0  0  0  0
 23 25  1  0  0  0  0
 26 23  1  0  0  0  0
 26 27  2  0  0  0  0
 27 31  1  0  0  0  0
 28 27  1  0  0  0  0
 29 30  2  0  0  0  0
 29 28  1  0  0  0  0
 30 26  1  0  0  0  0
 32 29  1  0  0  0  0
 33 34  2  0  0  0  0
 34 32  1  0  0  0  0
 34 35  1  0  0  0  0
 35 36  1  0  0  0  0
 37 34  1  0  0  0  0
 38 37  1  0  0  0  0
M  END
>  <minimizedAffinity>
-4.81625986

>  <minimizedRMSD>
0.765835404

$$$$
