
 OpenBabel03252506463D

 43 46  0  0  1  0  0  0  0  0999 V2000
   49.5090   33.4490   41.3440 N   0  0  1  0  0  0  0  0  0  0  0  0
   50.6880   33.0440   42.0600 C   0  0  0  0  0  0  0  0  0  0  0  0
   51.2400   31.7080   41.6440 C   0  0  0  0  0  0  0  0  0  0  0  0
   50.2420   30.6270   41.9690 C   0  0  0  0  0  0  0  0  0  0  0  0
   48.8360   31.1300   41.8250 C   0  0  0  0  0  0  0  0  0  0  0  0
   48.8190   32.2800   40.8360 C   0  0  2  0  0  0  0  0  0  0  0  0
   50.5060   33.0270   43.1460 H   0  0  0  0  0  0  0  0  0  0  0  0
   51.4810   33.8290   41.9100 H   0  0  0  0  0  0  0  0  0  0  0  0
   51.6680   31.6780   40.6490 H   0  0  0  0  0  0  0  0  0  0  0  0
   52.0980   31.5310   42.3750 H   0  0  0  0  0  0  0  0  0  0  0  0
   50.3650   30.2720   43.0170 H   0  0  0  0  0  0  0  0  0  0  0  0
   50.4520   29.7480   41.3260 H   0  0  0  0  0  0  0  0  0  0  0  0
   48.4800   31.6050   42.7980 H   0  0  0  0  0  0  0  0  0  0  0  0
   48.1240   30.3810   41.5180 H   0  0  0  0  0  0  0  0  0  0  0  0
   47.7480   32.5730   40.7450 H   0  0  0  0  0  0  0  0  0  0  0  0
   47.3390   34.7000   41.9250 C   0  0  1  0  0  0  0  0  0  0  0  0
   48.4500   35.6560   41.7120 C   0  0  0  0  0  0  0  0  0  0  0  0
   48.7430   34.2870   42.1800 C   0  0  2  0  0  0  0  0  0  0  0  0
   46.8610   34.3400   40.9720 H   0  0  0  0  0  0  0  0  0  0  0  0
   48.7160   35.9690   40.6890 H   0  0  0  0  0  0  0  0  0  0  0  0
   48.5520   36.4690   42.4540 H   0  0  0  0  0  0  0  0  0  0  0  0
   48.9630   34.1500   43.2820 H   0  0  0  0  0  0  0  0  0  0  0  0
   45.5740   36.0370   43.1110 C   0  0  0  0  0  0  0  0  0  0  0  0
   46.4140   34.9180   43.0370 C   0  0  0  0  0  0  0  0  0  0  0  0
   46.3190   33.9770   44.0870 C   0  0  0  0  0  0  0  0  0  0  0  0
   45.4350   34.2100   45.0890 N   0  0  0  0  0  0  0  0  0  0  0  0
   44.6460   35.2900   45.1290 C   0  0  0  0  0  0  0  0  0  0  0  0
   44.7060   36.2260   44.1330 N   0  0  0  0  0  0  0  0  0  0  0  0
   45.6070   36.7850   42.3350 H   0  0  0  0  0  0  0  0  0  0  0  0
   46.9430   33.1000   44.0780 H   0  0  0  0  0  0  0  0  0  0  0  0
   43.9910   35.3320   45.9950 H   0  0  0  0  0  0  0  0  0  0  0  0
   49.2680   31.8610   39.5470 N   0  0  0  0  0  0  0  0  0  0  0  0
   50.3290   31.9720   39.5180 H   0  0  0  0  0  0  0  0  0  0  0  0
   48.4800   32.1760   37.1980 C   0  0  0  0  0  0  0  0  0  0  0  0
   48.8700   31.3880   38.2890 C   0  0  0  0  0  0  0  0  0  0  0  0
   48.8410   30.0160   38.1420 C   0  0  0  0  0  0  0  0  0  0  0  0
   49.0810   29.2210   38.8340 H   0  0  0  0  0  0  0  0  0  0  0  0
   48.4480   29.3890   36.9700 C   0  0  0  0  0  0  0  0  0  0  0  0
   48.3830   28.3430   36.7300 H   0  0  0  0  0  0  0  0  0  0  0  0
   48.0700   30.1830   35.9130 C   0  0  0  0  0  3  0  0  0  0  0  0
   48.0910   31.5500   36.0430 C   0  0  0  0  0  3  0  0  0  0  0  0
   48.5310   34.7480   37.5280 N   0  0  0  0  0  0  0  0  0  0  0  0
   48.5160   33.6020   37.3730 C   0  0  0  0  0  0  0  0  0  0  0  0
  1  2  1  1  0  0  0
  1 18  1  0  0  0  0
  2  7  1  0  0  0  0
  3  4  1  0  0  0  0
  3  2  1  0  0  0  0
  3 10  1  0  0  0  0
  4 11  1  0  0  0  0
  5  4  1  0  0  0  0
  5 13  1  0  0  0  0
  6 15  1  6  0  0  0
  6  1  1  0  0  0  0
  6  5  1  0  0  0  0
  8  2  1  0  0  0  0
  9  3  1  0  0  0  0
 12  4  1  0  0  0  0
 14  5  1  0  0  0  0
 16 19  1  6  0  0  0
 16 18  1  0  0  0  0
 16 24  1  0  0  0  0
 17 16  1  0  0  0  0
 17 18  1  0  0  0  0
 17 21  1  0  0  0  0
 18 22  1  1  0  0  0
 20 17  1  0  0  0  0
 23 28  1  0  0  0  0
 24 23  2  0  0  0  0
 24 25  1  0  0  0  0
 25 26  2  0  0  0  0
 26 27  1  0  0  0  0
 27 31  1  0  0  0  0
 28 27  2  0  0  0  0
 29 23  1  0  0  0  0
 30 25  1  0  0  0  0
 32  6  1  0  0  0  0
 33 32  1  0  0  0  0
 34 43  1  0  0  0  0
 34 35  1  0  0  0  0
 35 32  1  0  0  0  0
 36 35  2  0  0  0  0
 36 37  1  0  0  0  0
 38 36  1  0  0  0  0
 39 38  1  0  0  0  0
 40 41  1  0  0  0  0
 40 38  2  0  0  0  0
 41 34  2  0  0  0  0
 43 42  3  0  0  0  0
M  END
>  <minimizedAffinity>
-5.05825329

>  <minimizedRMSD>
2.56700325

$$$$
