
 OpenBabel03242515393D

 37 40  0  0  0  0  0  0  0  0999 V2000
   44.6370   34.8140   41.2690 C   0  0  0  0  0  0  0  0  0  0  0  0
   44.5430   34.0720   40.1170 C   0  0  0  0  0  0  0  0  0  0  0  0
   45.6500   33.3230   39.7220 C   0  0  0  0  0  0  0  0  0  0  0  0
   46.7550   33.3800   40.5180 N   0  0  0  0  0  0  0  0  0  0  0  0
   46.8160   34.1130   41.6370 C   0  0  0  0  0  0  0  0  0  0  0  0
   45.7530   34.8100   41.9800 N   0  0  0  0  0  0  0  0  0  0  0  0
   43.6590   34.0330   39.5420 H   0  0  0  0  0  0  0  0  0  0  0  0
   46.5510   32.5540   37.4830 C   0  0  0  0  0  0  0  0  0  0  0  0
   45.7710   32.4520   38.5910 C   0  0  0  0  0  0  0  0  0  0  0  0
   45.0150   31.2760   38.5710 C   0  0  0  0  0  0  0  0  0  0  0  0
   44.3330   31.0300   39.3820 H   0  0  0  0  0  0  0  0  0  0  0  0
   45.0410   30.3410   37.5760 C   0  0  0  0  0  0  0  0  0  0  0  0
   44.4350   29.4460   37.6080 H   0  0  0  0  0  0  0  0  0  0  0  0
   45.8550   30.5160   36.4850 C   0  0  0  0  0  3  0  0  0  0  0  0
   46.6120   31.6410   36.4560 C   0  0  0  0  0  3  0  0  0  0  0  0
   48.1770   34.5510   37.2670 N   0  0  0  0  0  0  0  0  0  0  0  0
   47.4400   33.6630   37.3660 C   0  0  0  0  0  0  0  0  0  0  0  0
   43.1630   35.7660   41.7130 S   0  0  0  0  0  0  0  0  0  0  0  0
   40.8270   35.6800   40.3780 C   0  0  0  0  0  0  0  0  0  0  0  0
   41.6880   34.9390   41.1740 C   0  0  0  0  0  0  0  0  0  0  0  0
   41.3820   33.6430   41.5060 C   0  0  0  0  0  0  0  0  0  0  0  0
   40.2220   33.0280   41.0700 C   0  0  0  0  0  0  0  0  0  0  0  0
   39.3480   33.7820   40.2620 C   0  0  0  0  0  0  0  0  0  0  0  0
   39.6480   35.0860   39.9240 C   0  0  0  0  0  0  0  0  0  0  0  0
   38.2570   32.9570   39.9490 O   0  0  0  0  0  0  0  0  0  0  0  0
   38.3080   31.8810   40.8690 C   0  0  0  0  0  0  0  0  0  0  0  0
   39.6680   31.7590   41.2460 O   0  0  0  0  0  0  0  0  0  0  0  0
   40.9920   36.7030   40.0720 H   0  0  0  0  0  0  0  0  0  0  0  0
   42.0800   33.0840   42.1350 H   0  0  0  0  0  0  0  0  0  0  0  0
   38.9650   35.6590   39.2980 H   0  0  0  0  0  0  0  0  0  0  0  0
   37.7210   32.0440   41.7750 H   0  0  0  0  0  0  0  0  0  0  0  0
   37.9520   30.9460   40.3990 H   0  0  0  0  0  0  0  0  0  0  0  0
   47.9160   34.1880   42.4580 O   0  0  0  0  0  0  0  0  0  0  0  0
   49.1280   34.6650   41.9560 C   0  0  0  0  0  0  0  0  0  0  0  0
   49.8940   33.6970   41.3820 F   0  0  0  0  0  0  0  0  0  0  0  0
   48.7770   35.7000   41.0670 F   0  0  0  0  0  0  0  0  0  0  0  0
   49.8370   35.1900   43.0350 F   0  0  0  0  0  0  0  0  0  0  0  0
  1 18  1  0  0  0  0
  1  6  1  0  0  0  0
  2  1  2  0  0  0  0
  3  2  1  0  0  0  0
  3  4  2  0  0  0  0
  4  5  1  0  0  0  0
  5  6  2  0  0  0  0
  5 33  1  0  0  0  0
  7  2  1  0  0  0  0
  8  9  1  0  0  0  0
  9  3  1  0  0  0  0
 10  9  2  0  0  0  0
 10 11  1  0  0  0  0
 12 13  1  0  0  0  0
 12 10  1  0  0  0  0
 14 12  2  0  0  0  0
 15 14  1  0  0  0  0
 15  8  2  0  0  0  0
 16 17  3  0  0  0  0
 17  8  1  0  0  0  0
 19 20  1  0  0  0  0
 20 21  2  0  0  0  0
 20 18  1  0  0  0  0
 21 29  1  0  0  0  0
 22 27  1  0  0  0  0
 22 21  1  0  0  0  0
 23 22  2  0  0  0  0
 24 23  1  0  0  0  0
 24 19  2  0  0  0  0
 25 23  1  0  0  0  0
 25 26  1  0  0  0  0
 26 27  1  0  0  0  0
 26 31  1  0  0  0  0
 28 19  1  0  0  0  0
 30 24  1  0  0  0  0
 32 26  1  0  0  0  0
 34 33  1  0  0  0  0
 34 37  1  0  0  0  0
 35 34  1  0  0  0  0
 36 34  1  0  0  0  0
M  END
>  <minimizedAffinity>
-5.91143847

>  <minimizedRMSD>
0.940885425

$$$$
