
 OpenBabel03242518023D

 38 40  0  0  0  0  0  0  0  0999 V2000
   46.5550   31.2740   46.2170 C   0  0  0  0  0  0  0  0  0  0  0  0
   45.5280   31.5250   46.5280 H   0  0  0  0  0  0  0  0  0  0  0  0
   46.4350   30.3110   45.6370 H   0  0  0  0  0  0  0  0  0  0  0  0
   47.3270   31.5700   48.5580 C   0  0  0  0  0  0  0  0  0  0  0  0
   47.4920   30.9880   47.2900 C   0  0  0  0  0  0  0  0  0  0  0  0
   48.5950   30.1390   47.1490 C   0  0  0  0  0  0  0  0  0  0  0  0
   49.4140   29.9330   48.2050 N   0  0  0  0  0  0  0  0  0  0  0  0
   49.2190   30.5090   49.3970 C   0  0  0  0  0  0  0  0  0  0  0  0
   48.1830   31.3190   49.5660 N   0  0  0  0  0  0  0  0  0  0  0  0
   46.5110   32.2430   48.7880 H   0  0  0  0  0  0  0  0  0  0  0  0
   48.7170   29.6960   46.1740 H   0  0  0  0  0  0  0  0  0  0  0  0
   50.9950   31.2420   50.9360 C   0  0  0  0  0  0  0  0  0  0  0  0
   50.1470   30.2360   50.4910 C   0  0  0  0  0  0  0  0  0  0  0  0
   50.1690   28.9700   51.0710 C   0  0  0  0  0  0  0  0  0  0  0  0
   49.5080   28.1870   50.7230 H   0  0  0  0  0  0  0  0  0  0  0  0
   51.0300   28.6640   52.1080 C   0  0  0  0  0  0  0  0  0  0  0  0
   51.0540   27.6880   52.5620 H   0  0  0  0  0  0  0  0  0  0  0  0
   51.8500   29.6960   52.5130 C   0  0  0  0  0  3  0  0  0  0  0  0
   51.8740   30.9630   51.9790 C   0  0  0  0  0  3  0  0  0  0  0  0
   50.9380   33.5800   49.8570 N   0  0  0  0  0  0  0  0  0  0  0  0
   50.9700   32.5350   50.3390 C   0  0  0  0  0  0  0  0  0  0  0  0
   47.1960   32.3080   45.3130 C   0  0  0  0  0  0  0  0  0  0  0  0
   47.5740   31.8010   44.3980 H   0  0  0  0  0  0  0  0  0  0  0  0
   48.1370   32.7350   45.7730 H   0  0  0  0  0  0  0  0  0  0  0  0
   46.4890   34.1080   43.8000 C   0  0  0  0  0  0  0  0  0  0  0  0
   46.3520   33.4710   45.0210 C   0  0  0  0  0  0  0  0  0  0  0  0
   45.4650   33.8670   45.9840 C   0  0  0  0  0  0  0  0  0  0  0  0
   44.6640   34.9620   45.7200 C   0  0  0  0  0  0  0  0  0  0  0  0
   44.7230   35.6540   44.5480 C   0  0  0  0  0  0  0  0  0  0  0  0
   45.6530   35.1890   43.6170 C   0  0  0  0  0  0  0  0  0  0  0  0
   45.3080   33.4290   46.9380 H   0  0  0  0  0  0  0  0  0  0  0  0
   43.9350   35.3330   46.4390 H   0  0  0  0  0  0  0  0  0  0  0  0
   44.1210   36.5120   44.2960 H   0  0  0  0  0  0  0  0  0  0  0  0
   45.7140   35.7310   42.6750 H   0  0  0  0  0  0  0  0  0  0  0  0
   47.6030   33.6380   42.5480 S   0  0  0  0  0  0  0  0  0  0  0  0
   49.0120   34.0930   42.8240 O   0  0  0  0  0  0  0  0  0  0  0  0
   47.2190   34.3440   41.2640 O   0  0  0  0  0  0  0  0  0  0  0  0
   47.5470   32.3040   42.2360 H   0  0  0  0  0  0  0  0  0  0  0  0
  1  2  1  0  0  0  0
  1  5  1  0  0  0  0
  3  1  1  0  0  0  0
  4 10  1  0  0  0  0
  4  9  1  0  0  0  0
  5  4  2  0  0  0  0
  6  5  1  0  0  0  0
  6  7  2  0  0  0  0
  7  8  1  0  0  0  0
  8  9  2  0  0  0  0
  8 13  1  0  0  0  0
 11  6  1  0  0  0  0
 12 19  1  0  0  0  0
 13 12  2  0  0  0  0
 13 14  1  0  0  0  0
 14 16  2  0  0  0  0
 15 14  1  0  0  0  0
 16 18  1  0  0  0  0
 16 17  1  0  0  0  0
 19 18  2  0  0  0  0
 20 21  3  0  0  0  0
 21 12  1  0  0  0  0
 22 24  1  0  0  0  0
 22  1  1  0  0  0  0
 23 22  1  0  0  0  0
 25 26  1  0  0  0  0
 26 22  1  0  0  0  0
 26 27  2  0  0  0  0
 27 31  1  0  0  0  0
 28 27  1  0  0  0  0
 28 32  1  0  0  0  0
 29 28  2  0  0  0  0
 30 25  2  0  0  0  0
 30 29  1  0  0  0  0
 33 29  1  0  0  0  0
 34 30  1  0  0  0  0
 35 36  2  0  0  0  0
 35 25  1  0  0  0  0
 37 35  2  0  0  0  0
 38 35  1  0  0  0  0
M  END
>  <minimizedAffinity>
-5.40077448

>  <minimizedRMSD>
0.874846101

$$$$
