
 OpenBabel03242513413D

 41 44  0  0  0  0  0  0  0  0999 V2000
   47.7000   31.0180   45.9980 C   0  0  0  0  0  0  0  0  0  0  0  0
   46.9610   32.0630   45.4820 C   0  0  0  0  0  0  0  0  0  0  0  0
   45.9240   32.5430   46.2280 C   0  0  0  0  0  0  0  0  0  0  0  0
   45.5910   32.0250   47.4700 C   0  0  0  0  0  0  0  0  0  0  0  0
   44.6660   32.2540   48.4310 N   0  0  0  0  0  0  0  0  0  0  0  0
   44.8310   31.4060   49.4620 C   0  0  0  0  0  0  0  0  0  0  0  0
   45.8810   30.6350   49.1340 N   0  0  0  0  0  0  0  0  0  0  0  0
   46.3580   30.9940   47.9250 C   0  0  0  0  0  0  0  0  0  0  0  0
   47.4050   30.4670   47.2370 C   0  0  0  0  0  0  0  0  0  0  0  0
   48.5290   30.6090   45.4400 H   0  0  0  0  0  0  0  0  0  0  0  0
   45.3060   33.3680   45.8680 H   0  0  0  0  0  0  0  0  0  0  0  0
   43.9380   33.0170   48.3190 H   0  0  0  0  0  0  0  0  0  0  0  0
   44.2360   31.3800   50.3390 H   0  0  0  0  0  0  0  0  0  0  0  0
   47.2210   34.3920   42.6680 C   0  0  0  0  0  0  0  0  0  0  0  0
   47.9160   33.6610   41.7160 C   0  0  0  0  0  0  0  0  0  0  0  0
   48.2860   32.3580   42.0730 C   0  0  0  0  0  0  0  0  0  0  0  0
   47.9670   31.8650   43.2930 N   0  0  0  0  0  0  0  0  0  0  0  0
   47.2850   32.6320   44.1770 C   0  0  0  0  0  0  0  0  0  0  0  0
   46.9120   33.8740   43.8860 N   0  0  0  0  0  0  0  0  0  0  0  0
   46.8920   35.4140   42.4770 H   0  0  0  0  0  0  0  0  0  0  0  0
   48.8290   31.7780   41.3370 H   0  0  0  0  0  0  0  0  0  0  0  0
   48.2180   34.2880   40.4070 C   0  0  0  0  0  0  0  0  0  0  0  0
   48.7700   35.5160   40.7280 F   0  0  0  0  0  0  0  0  0  0  0  0
   47.0350   34.4810   39.7430 F   0  0  0  0  0  0  0  0  0  0  0  0
   49.0780   33.4540   39.7100 F   0  0  0  0  0  0  0  0  0  0  0  0
   48.1440   29.4200   47.7550 O   0  0  0  0  0  0  0  0  0  0  0  0
   49.7990   28.1780   49.3210 O   0  0  0  0  0  0  0  0  0  0  0  0
   49.4250   29.5740   48.8490 P   0  0  2  0  0  0  0  0  0  0  0  0
   48.8280   30.4060   50.2170 O   0  0  0  0  0  0  0  0  0  0  0  0
   49.5420   30.3820   50.9210 H   0  0  0  0  0  0  0  0  0  0  0  0
   50.7590   30.3510   48.2300 O   0  0  0  0  0  0  0  0  0  0  0  0
   52.2600   29.1090   46.8650 C   0  0  0  0  0  0  0  0  0  0  0  0
   51.9810   29.7400   48.0830 C   0  0  0  0  0  0  0  0  0  0  0  0
   52.9800   29.6840   49.0330 C   0  0  0  0  0  0  0  0  0  0  0  0
   52.8000   30.1530   49.9670 H   0  0  0  0  0  0  0  0  0  0  0  0
   54.1900   29.0640   48.8510 C   0  0  0  0  0  0  0  0  0  0  0  0
   54.9410   29.0570   49.6500 H   0  0  0  0  0  0  0  0  0  0  0  0
   54.4240   28.4500   47.6240 C   0  0  0  0  0  3  0  0  0  0  0  0
   53.4610   28.4740   46.6380 C   0  0  0  0  0  3  0  0  0  0  0  0
   50.5520   29.0500   44.9070 N   0  0  0  0  0  0  0  0  0  0  0  0
   51.3220   29.0790   45.7740 C   0  0  0  0  0  0  0  0  0  0  0  0
  1  9  1  0  0  0  0
  2  1  2  0  0  0  0
  2  3  1  0  0  0  0
  3  4  2  0  0  0  0
  4  8  1  0  0  0  0
  4  5  1  0  0  0  0
  5  6  1  0  0  0  0
  6 13  1  0  0  0  0
  7  6  2  0  0  0  0
  8  7  1  0  0  0  0
  9 26  1  0  0  0  0
  9  8  2  0  0  0  0
 10  1  1  0  0  0  0
 11  3  1  0  0  0  0
 12  5  1  0  0  0  0
 14 19  1  0  0  0  0
 15 16  1  0  0  0  0
 15 14  2  0  0  0  0
 16 17  2  0  0  0  0
 17 18  1  0  0  0  0
 18  2  1  0  0  0  0
 19 18  2  0  0  0  0
 20 14  1  0  0  0  0
 21 16  1  0  0  0  0
 22 23  1  0  0  0  0
 22 15  1  0  0  0  0
 24 22  1  0  0  0  0
 25 22  1  0  0  0  0
 26 28  1  0  0  0  0
 28 27  2  1  0  0  0
 28 29  1  0  0  0  0
 29 30  1  0  0  0  0
 31 28  1  0  0  0  0
 32 33  1  0  0  0  0
 33 31  1  0  0  0  0
 33 34  2  0  0  0  0
 34 35  1  0  0  0  0
 36 34  1  0  0  0  0
 36 37  1  0  0  0  0
 38 36  2  0  0  0  0
 39 32  2  0  0  0  0
 39 38  1  0  0  0  0
 40 41  3  0  0  0  0
 41 32  1  0  0  0  0
M  END
>  <minimizedAffinity>
-5.46594667

>  <minimizedRMSD>
1.03305864

$$$$
