
 OpenBabel03252507223D

 48 51  0  0  1  0  0  0  0  0999 V2000
   46.8080   33.8990   42.4380 C   0  0  0  0  0  0  0  0  0  0  0  0
   48.0490   33.7500   42.7440 O   0  0  0  0  0  0  0  0  0  0  0  0
   46.2070   33.3880   41.2290 N   0  0  0  0  0  0  0  0  0  0  0  0
   44.9380   32.7310   41.0240 C   0  0  0  0  0  0  0  0  0  0  0  0
   44.1940   33.4600   39.8960 C   0  0  0  0  0  0  0  0  0  0  0  0
   44.9520   33.3330   38.6060 C   0  0  0  0  0  0  0  0  0  0  0  0
   46.3580   32.8550   38.8850 C   0  0  0  0  0  0  0  0  0  0  0  0
   47.0020   33.6060   40.0240 C   0  0  2  0  0  0  0  0  0  0  0  0
   44.2870   32.8190   41.9370 H   0  0  0  0  0  0  0  0  0  0  0  0
   45.0330   31.6770   40.7030 H   0  0  0  0  0  0  0  0  0  0  0  0
   44.0820   34.5270   40.2100 H   0  0  0  0  0  0  0  0  0  0  0  0
   43.2000   32.9800   39.8100 H   0  0  0  0  0  0  0  0  0  0  0  0
   45.0490   34.3580   38.1880 H   0  0  0  0  0  0  0  0  0  0  0  0
   44.4710   32.6200   37.9270 H   0  0  0  0  0  0  0  0  0  0  0  0
   47.0120   32.9180   38.0050 H   0  0  0  0  0  0  0  0  0  0  0  0
   46.3020   31.7450   39.1090 H   0  0  0  0  0  0  0  0  0  0  0  0
   46.9260   34.6750   39.7970 H   0  0  0  0  0  0  0  0  0  0  0  0
   45.5860   35.9240   43.0200 C   0  0  0  0  0  0  0  0  0  0  0  0
   45.9880   34.6190   43.3650 C   0  0  0  0  0  0  0  0  0  0  0  0
   45.5880   34.0760   44.5760 C   0  0  0  0  0  0  0  0  0  0  0  0
   44.8170   34.8410   45.3790 N   0  0  0  0  0  0  0  0  0  0  0  0
   44.4190   36.0890   45.0730 C   0  0  0  0  0  0  0  0  0  0  0  0
   44.8170   36.6180   43.8830 N   0  0  0  0  0  0  0  0  0  0  0  0
   45.8900   36.3690   42.0810 H   0  0  0  0  0  0  0  0  0  0  0  0
   43.8010   36.6800   45.7500 H   0  0  0  0  0  0  0  0  0  0  0  0
   46.0150   32.7280   44.9080 C   0  0  0  0  0  0  0  0  0  0  0  0
   45.4280   31.6590   44.3010 C   0  0  0  0  0  0  0  0  0  0  0  0
   45.8570   30.4030   44.6410 C   0  0  0  0  0  0  0  0  0  0  0  0
   46.8560   30.1640   45.5720 C   0  0  0  0  0  0  0  0  0  0  0  0
   47.4100   31.2910   46.1550 C   0  0  0  0  0  0  0  0  0  0  0  0
   46.9750   32.5030   45.8050 N   0  0  0  0  0  0  0  0  0  0  0  0
   44.6460   31.7020   43.5610 H   0  0  0  0  0  0  0  0  0  0  0  0
   45.4010   29.5210   44.1620 H   0  0  0  0  0  0  0  0  0  0  0  0
   47.1760   29.1650   45.8250 H   0  0  0  0  0  0  0  0  0  0  0  0
   48.1930   31.1320   46.8800 H   0  0  0  0  0  0  0  0  0  0  0  0
   48.4300   33.2620   40.1370 C   0  0  0  0  0  0  0  0  0  0  0  0
   48.8580   33.8490   39.2490 H   0  0  0  0  0  0  0  0  0  0  0  0
   48.9890   33.8230   40.9530 H   0  0  0  0  0  0  0  0  0  0  0  0
   50.0980   31.4730   40.5780 C   0  0  0  0  0  0  0  0  0  0  0  0
   48.9110   31.9140   39.9440 C   0  0  0  0  0  0  0  0  0  0  0  0
   48.4330   30.8720   39.1440 C   0  0  0  0  0  0  0  0  0  0  0  0
   47.5510   31.0680   38.5530 H   0  0  0  0  0  0  0  0  0  0  0  0
   48.9330   29.6410   38.9440 C   0  0  0  0  0  0  0  0  0  0  0  0
   48.4400   28.9280   38.2760 H   0  0  0  0  0  0  0  0  0  0  0  0
   50.0850   29.2700   39.5870 C   0  0  0  0  0  3  0  0  0  0  0  0
   50.6680   30.2070   40.4120 C   0  0  0  0  0  3  0  0  0  0  0  0
   51.2940   33.1240   42.2400 N   0  0  0  0  0  0  0  0  0  0  0  0
   50.7660   32.3790   41.4930 C   0  0  0  0  0  0  0  0  0  0  0  0
  1  2  2  0  0  0  0
  1 19  1  0  0  0  0
  3  1  1  0  0  0  0
  4  3  1  0  0  0  0
  4  9  1  0  0  0  0
  5 11  1  0  0  0  0
  5  4  1  0  0  0  0
  6  7  1  0  0  0  0
  6  5  1  0  0  0  0
  7 16  1  0  0  0  0
  7  8  1  0  0  0  0
  8 17  1  6  0  0  0
  8 36  1  0  0  0  0
  8  3  1  0  0  0  0
 10  4  1  0  0  0  0
 12  5  1  0  0  0  0
 13  6  1  0  0  0  0
 14  6  1  0  0  0  0
 15  7  1  0  0  0  0
 18 19  2  0  0  0  0
 18 23  1  0  0  0  0
 19 20  1  0  0  0  0
 20 26  1  0  0  0  0
 20 21  2  0  0  0  0
 22 21  1  0  0  0  0
 22 25  1  0  0  0  0
 23 22  2  0  0  0  0
 24 18  1  0  0  0  0
 26 31  1  0  0  0  0
 27 28  1  0  0  0  0
 27 26  2  0  0  0  0
 28 29  2  0  0  0  0
 29 34  1  0  0  0  0
 29 30  1  0  0  0  0
 30 35  1  0  0  0  0
 31 30  2  0  0  0  0
 32 27  1  0  0  0  0
 33 28  1  0  0  0  0
 36 38  1  0  0  0  0
 37 36  1  0  0  0  0
 39 48  1  0  0  0  0
 40 36  1  0  0  0  0
 40 39  2  0  0  0  0
 41 40  1  0  0  0  0
 42 41  1  0  0  0  0
 43 41  2  0  0  0  0
 43 45  1  0  0  0  0
 44 43  1  0  0  0  0
 45 46  2  0  0  0  0
 46 39  1  0  0  0  0
 48 47  3  0  0  0  0
M  END
>  <minimizedAffinity>
-4.79145956

>  <minimizedRMSD>
1.41205251

$$$$
