
 OpenBabel03242517283D

 41 43  0  0  1  0  0  0  0  0999 V2000
   45.0110   34.6170   44.9380 C   0  0  0  0  0  0  0  0  0  0  0  0
   45.9160   34.5570   43.8400 C   0  0  0  0  0  0  0  0  0  0  0  0
   47.0220   33.6950   43.9560 C   0  0  0  0  0  0  0  0  0  0  0  0
   47.1680   32.9720   45.0920 N   0  0  0  0  0  0  0  0  0  0  0  0
   46.2990   33.0470   46.1140 C   0  0  0  0  0  0  0  0  0  0  0  0
   45.2380   33.8670   46.0180 N   0  0  0  0  0  0  0  0  0  0  0  0
   46.5190   32.2670   47.2570 N   0  0  0  0  0  0  0  0  0  0  0  0
   47.7360   32.4120   48.0020 C   0  0  0  0  0  0  0  0  0  0  0  0
   48.0170   31.2680   48.9270 C   0  0  0  0  0  0  0  0  0  0  0  0
   46.8790   30.6380   49.5000 N   0  0  0  0  0  0  0  0  0  0  0  0
   45.6300   31.2680   49.1700 C   0  0  0  0  0  0  0  0  0  0  0  0
   45.4960   31.3180   47.6690 C   0  0  2  0  0  0  0  0  0  0  0  0
   44.1640   35.2810   44.8450 H   0  0  0  0  0  0  0  0  0  0  0  0
   45.8090   35.1220   42.9430 H   0  0  0  0  0  0  0  0  0  0  0  0
   47.7540   33.6020   43.1490 H   0  0  0  0  0  0  0  0  0  0  0  0
   47.7860   33.3920   48.5510 H   0  0  0  0  0  0  0  0  0  0  0  0
   48.5690   32.4480   47.2640 H   0  0  0  0  0  0  0  0  0  0  0  0
   48.6570   30.4930   48.4550 H   0  0  0  0  0  0  0  0  0  0  0  0
   48.6220   31.6830   49.7770 H   0  0  0  0  0  0  0  0  0  0  0  0
   46.8640   29.6140   49.5180 H   0  0  0  0  0  0  0  0  0  0  0  0
   44.8130   30.6640   49.6100 H   0  0  0  0  0  0  0  0  0  0  0  0
   45.5990   32.2950   49.5520 H   0  0  0  0  0  0  0  0  0  0  0  0
   44.5110   31.7670   47.4350 H   0  0  0  0  0  0  0  0  0  0  0  0
   45.6860   29.9760   47.0420 C   0  0  0  0  0  0  0  0  0  0  0  0
   45.4990   30.0440   45.9570 H   0  0  0  0  0  0  0  0  0  0  0  0
   46.7110   29.6280   47.3000 H   0  0  0  0  0  0  0  0  0  0  0  0
   44.7270   29.0210   47.7150 C   0  0  0  0  0  3  0  0  0  0  0  0
   45.0500   27.7640   47.9340 C   0  0  0  0  0  3  0  0  0  0  0  0
   44.1590   26.7600   48.5900 C   0  0  0  0  0  0  0  0  0  0  0  0
   43.0970   27.0270   48.5310 H   0  0  0  0  0  0  0  0  0  0  0  0
   44.4970   26.5830   49.6330 H   0  0  0  0  0  0  0  0  0  0  0  0
   43.4880   24.9970   46.8860 C   0  0  0  0  0  0  0  0  0  0  0  0
   44.3600   25.4890   47.8410 C   0  0  0  0  0  0  0  0  0  0  0  0
   45.4960   24.7090   48.0910 C   0  0  0  0  0  0  0  0  0  0  0  0
   46.1810   25.0980   48.8440 H   0  0  0  0  0  0  0  0  0  0  0  0
   45.8000   23.5150   47.4690 C   0  0  0  0  0  0  0  0  0  0  0  0
   46.7070   23.0120   47.7530 H   0  0  0  0  0  0  0  0  0  0  0  0
   44.9070   23.0620   46.5250 C   0  0  0  0  0  3  0  0  0  0  0  0
   43.7800   23.7920   46.2460 C   0  0  0  0  0  3  0  0  0  0  0  0
   41.3710   26.3670   46.3490 N   0  0  0  0  0  0  0  0  0  0  0  0
   42.3200   25.7510   46.5960 C   0  0  0  0  0  0  0  0  0  0  0  0
  1  6  1  0  0  0  0
  2  3  1  0  0  0  0
  2  1  2  0  0  0  0
  3  4  2  0  0  0  0
  4  5  1  0  0  0  0
  5  7  1  0  0  0  0
  6  5  2  0  0  0  0
  7 12  1  0  0  0  0
  7  8  1  0  0  0  0
  8 16  1  0  0  0  0
  8  9  1  0  0  0  0
  9 10  1  0  0  0  0
  9 19  1  0  0  0  0
 10 20  1  0  0  0  0
 11 10  1  0  0  0  0
 11 22  1  0  0  0  0
 11 21  1  0  0  0  0
 12 23  1  6  0  0  0
 12 11  1  0  0  0  0
 13  1  1  0  0  0  0
 14  2  1  0  0  0  0
 15  3  1  0  0  0  0
 17  8  1  0  0  0  0
 18  9  1  0  0  0  0
 24 26  1  0  0  0  0
 24 12  1  0  0  0  0
 24 27  1  0  0  0  0
 25 24  1  0  0  0  0
 27 28  2  0  0  0  0
 28 29  1  0  0  0  0
 29 31  1  0  0  0  0
 30 29  1  0  0  0  0
 32 33  1  0  0  0  0
 33 34  2  0  0  0  0
 33 29  1  0  0  0  0
 34 35  1  0  0  0  0
 36 37  1  0  0  0  0
 36 34  1  0  0  0  0
 38 36  2  0  0  0  0
 39 38  1  0  0  0  0
 39 32  2  0  0  0  0
 40 41  3  0  0  0  0
 41 32  1  0  0  0  0
M  END
>  <minimizedAffinity>
-5.51019669

>  <minimizedRMSD>
1.05179465

$$$$
