
 OpenBabel03242515393D

 37 40  0  0  0  0  0  0  0  0999 V2000
   44.0530   34.8110   41.0810 C   0  0  0  0  0  0  0  0  0  0  0  0
   44.0020   33.9620   40.0020 C   0  0  0  0  0  0  0  0  0  0  0  0
   45.1910   33.3840   39.5610 C   0  0  0  0  0  0  0  0  0  0  0  0
   46.3270   33.7030   40.2410 N   0  0  0  0  0  0  0  0  0  0  0  0
   46.3450   34.5340   41.2910 C   0  0  0  0  0  0  0  0  0  0  0  0
   45.2050   35.0650   41.6810 N   0  0  0  0  0  0  0  0  0  0  0  0
   43.0960   33.7190   39.5190 H   0  0  0  0  0  0  0  0  0  0  0  0
   44.4600   31.7980   37.7250 C   0  0  0  0  0  0  0  0  0  0  0  0
   45.3750   32.4480   38.4910 C   0  0  0  0  0  0  0  0  0  0  0  0
   46.6780   32.1260   38.1040 C   0  0  0  0  0  0  0  0  0  0  0  0
   47.5400   32.5580   38.6090 H   0  0  0  0  0  0  0  0  0  0  0  0
   47.0110   31.2740   37.0920 C   0  0  0  0  0  0  0  0  0  0  0  0
   48.0370   31.0580   36.8300 H   0  0  0  0  0  0  0  0  0  0  0  0
   46.0280   30.6520   36.3610 C   0  0  0  0  0  3  0  0  0  0  0  0
   44.7440   30.9300   36.6960 C   0  0  0  0  0  3  0  0  0  0  0  0
   41.9460   32.2700   38.0930 N   0  0  0  0  0  0  0  0  0  0  0  0
   43.0730   32.0580   37.9390 C   0  0  0  0  0  0  0  0  0  0  0  0
   42.4720   35.5300   41.5920 S   0  0  0  0  0  0  0  0  0  0  0  0
   40.3090   35.0310   40.0690 C   0  0  0  0  0  0  0  0  0  0  0  0
   41.1150   34.5120   41.0710 C   0  0  0  0  0  0  0  0  0  0  0  0
   40.8460   33.2770   41.6050 C   0  0  0  0  0  0  0  0  0  0  0  0
   39.7790   32.5080   41.1770 C   0  0  0  0  0  0  0  0  0  0  0  0
   38.9600   33.0380   40.1590 C   0  0  0  0  0  0  0  0  0  0  0  0
   39.2240   34.2790   39.6160 C   0  0  0  0  0  0  0  0  0  0  0  0
   37.9580   32.0900   39.8970 O   0  0  0  0  0  0  0  0  0  0  0  0
   37.9650   31.2030   41.0010 C   0  0  0  0  0  0  0  0  0  0  0  0
   39.2790   31.2530   41.5290 O   0  0  0  0  0  0  0  0  0  0  0  0
   40.4510   35.9920   39.5950 H   0  0  0  0  0  0  0  0  0  0  0  0
   41.4980   32.8930   42.3940 H   0  0  0  0  0  0  0  0  0  0  0  0
   38.5850   34.6780   38.8290 H   0  0  0  0  0  0  0  0  0  0  0  0
   37.2730   31.4810   41.7980 H   0  0  0  0  0  0  0  0  0  0  0  0
   37.7170   30.1750   40.6800 H   0  0  0  0  0  0  0  0  0  0  0  0
   47.4760   34.8730   41.9950 O   0  0  0  0  0  0  0  0  0  0  0  0
   48.6560   35.1740   41.3130 C   0  0  0  0  0  0  0  0  0  0  0  0
   49.6490   34.2680   41.5260 F   0  0  0  0  0  0  0  0  0  0  0  0
   48.2820   35.2850   39.9610 F   0  0  0  0  0  0  0  0  0  0  0  0
   49.0950   36.4100   41.7850 F   0  0  0  0  0  0  0  0  0  0  0  0
  1 18  1  0  0  0  0
  1  6  1  0  0  0  0
  2  1  2  0  0  0  0
  3  2  1  0  0  0  0
  3  4  2  0  0  0  0
  4  5  1  0  0  0  0
  5  6  2  0  0  0  0
  5 33  1  0  0  0  0
  7  2  1  0  0  0  0
  8 17  1  0  0  0  0
  8  9  1  0  0  0  0
  9  3  1  0  0  0  0
 10  9  2  0  0  0  0
 10 11  1  0  0  0  0
 12 10  1  0  0  0  0
 13 12  1  0  0  0  0
 14 15  1  0  0  0  0
 14 12  2  0  0  0  0
 15  8  2  0  0  0  0
 17 16  3  0  0  0  0
 19 20  1  0  0  0  0
 20 18  1  0  0  0  0
 20 21  2  0  0  0  0
 21 29  1  0  0  0  0
 22 27  1  0  0  0  0
 22 21  1  0  0  0  0
 23 22  2  0  0  0  0
 24 19  2  0  0  0  0
 24 23  1  0  0  0  0
 25 23  1  0  0  0  0
 25 26  1  0  0  0  0
 26 27  1  0  0  0  0
 26 31  1  0  0  0  0
 28 19  1  0  0  0  0
 30 24  1  0  0  0  0
 32 26  1  0  0  0  0
 34 35  1  0  0  0  0
 34 37  1  0  0  0  0
 34 33  1  0  0  0  0
 36 34  1  0  0  0  0
M  END
>  <minimizedAffinity>
-5.94828415

>  <minimizedRMSD>
0.531295657

$$$$
