
 OpenBabel03252506463D

 43 46  0  0  1  0  0  0  0  0999 V2000
   49.5860   33.5020   41.4350 N   0  0  1  0  0  0  0  0  0  0  0  0
   50.7090   33.0610   42.2180 C   0  0  0  0  0  0  0  0  0  0  0  0
   51.2630   31.7230   41.8130 C   0  0  0  0  0  0  0  0  0  0  0  0
   50.2270   30.6560   42.0510 C   0  0  0  0  0  0  0  0  0  0  0  0
   48.8420   31.1880   41.8250 C   0  0  0  0  0  0  0  0  0  0  0  0
   48.9100   32.3560   40.8600 C   0  0  2  0  0  0  0  0  0  0  0  0
   50.4560   33.0270   43.2900 H   0  0  0  0  0  0  0  0  0  0  0  0
   51.5240   33.8340   42.1360 H   0  0  0  0  0  0  0  0  0  0  0  0
   51.7540   31.7030   40.8480 H   0  0  0  0  0  0  0  0  0  0  0  0
   52.0670   31.5160   42.5950 H   0  0  0  0  0  0  0  0  0  0  0  0
   50.2740   30.2790   43.0980 H   0  0  0  0  0  0  0  0  0  0  0  0
   50.4630   29.7850   41.4060 H   0  0  0  0  0  0  0  0  0  0  0  0
   48.4310   31.6510   42.7830 H   0  0  0  0  0  0  0  0  0  0  0  0
   48.1390   30.4580   41.4580 H   0  0  0  0  0  0  0  0  0  0  0  0
   47.8530   32.6720   40.7060 H   0  0  0  0  0  0  0  0  0  0  0  0
   47.3650   34.6840   41.9610 C   0  0  1  0  0  0  0  0  0  0  0  0
   48.4360   35.6760   41.7150 C   0  0  0  0  0  0  0  0  0  0  0  0
   48.7830   34.3390   42.2350 C   0  0  2  0  0  0  0  0  0  0  0  0
   46.9070   34.2680   41.0200 H   0  0  0  0  0  0  0  0  0  0  0  0
   48.6950   35.9600   40.6810 H   0  0  0  0  0  0  0  0  0  0  0  0
   48.5020   36.5200   42.4250 H   0  0  0  0  0  0  0  0  0  0  0  0
   49.0030   34.2530   43.3430 H   0  0  0  0  0  0  0  0  0  0  0  0
   45.5790   36.0210   43.1150 C   0  0  0  0  0  0  0  0  0  0  0  0
   46.4260   34.9070   43.0600 C   0  0  0  0  0  0  0  0  0  0  0  0
   46.3240   33.9740   44.1170 C   0  0  0  0  0  0  0  0  0  0  0  0
   45.4270   34.2090   45.1070 N   0  0  0  0  0  0  0  0  0  0  0  0
   44.6320   35.2850   45.1280 C   0  0  0  0  0  0  0  0  0  0  0  0
   44.6990   36.2130   44.1250 N   0  0  0  0  0  0  0  0  0  0  0  0
   45.6170   36.7630   42.3330 H   0  0  0  0  0  0  0  0  0  0  0  0
   46.9530   33.1000   44.1220 H   0  0  0  0  0  0  0  0  0  0  0  0
   43.9670   35.3310   45.9870 H   0  0  0  0  0  0  0  0  0  0  0  0
   49.4360   31.9520   39.5960 N   0  0  0  0  0  0  0  0  0  0  0  0
   50.4780   32.1800   39.5850 H   0  0  0  0  0  0  0  0  0  0  0  0
   48.7010   32.1100   37.2130 C   0  0  0  0  0  0  0  0  0  0  0  0
   49.1240   31.4000   38.3450 C   0  0  0  0  0  0  0  0  0  0  0  0
   49.2240   30.0270   38.2500 C   0  0  0  0  0  0  0  0  0  0  0  0
   49.5110   29.2820   38.9800 H   0  0  0  0  0  0  0  0  0  0  0  0
   48.9290   29.3260   37.0910 C   0  0  0  0  0  0  0  0  0  0  0  0
   48.9670   28.2710   36.8910 H   0  0  0  0  0  0  0  0  0  0  0  0
   48.5170   30.0440   35.9950 C   0  0  0  0  0  3  0  0  0  0  0  0
   48.4100   31.4110   36.0720 C   0  0  0  0  0  3  0  0  0  0  0  0
   48.5080   34.6870   37.4430 N   0  0  0  0  0  0  0  0  0  0  0  0
   48.6030   33.5380   37.3350 C   0  0  0  0  0  0  0  0  0  0  0  0
  1  2  1  1  0  0  0
  1 18  1  0  0  0  0
  2  7  1  0  0  0  0
  3  4  1  0  0  0  0
  3  2  1  0  0  0  0
  3 10  1  0  0  0  0
  4 11  1  0  0  0  0
  5  4  1  0  0  0  0
  5 13  1  0  0  0  0
  6 15  1  6  0  0  0
  6  1  1  0  0  0  0
  6  5  1  0  0  0  0
  8  2  1  0  0  0  0
  9  3  1  0  0  0  0
 12  4  1  0  0  0  0
 14  5  1  0  0  0  0
 16 19  1  6  0  0  0
 16 18  1  0  0  0  0
 16 24  1  0  0  0  0
 17 16  1  0  0  0  0
 17 18  1  0  0  0  0
 17 21  1  0  0  0  0
 18 22  1  1  0  0  0
 20 17  1  0  0  0  0
 23 28  1  0  0  0  0
 24 23  2  0  0  0  0
 24 25  1  0  0  0  0
 25 30  1  0  0  0  0
 25 26  2  0  0  0  0
 26 27  1  0  0  0  0
 27 31  1  0  0  0  0
 28 27  2  0  0  0  0
 29 23  1  0  0  0  0
 32  6  1  0  0  0  0
 33 32  1  0  0  0  0
 34 43  1  0  0  0  0
 34 35  1  0  0  0  0
 35 32  1  0  0  0  0
 36 35  2  0  0  0  0
 36 37  1  0  0  0  0
 38 36  1  0  0  0  0
 39 38  1  0  0  0  0
 40 41  1  0  0  0  0
 40 38  2  0  0  0  0
 41 34  2  0  0  0  0
 43 42  3  0  0  0  0
M  END
>  <minimizedAffinity>
-5.07955217

>  <minimizedRMSD>
2.16719222

$$$$
