
 OpenBabel03242515173D

 38 40  0  0  0  0  0  0  0  0999 V2000
   45.4290   30.6280   47.1430 C   0  0  0  0  0  0  0  0  0  0  0  0
   45.5370   29.9700   45.9380 C   0  0  0  0  0  0  0  0  0  0  0  0
   45.2990   28.6330   46.1870 C   0  0  0  0  0  0  0  0  0  0  0  0
   45.0590   28.4990   47.4830 N   0  0  0  0  0  0  0  0  0  0  0  0
   45.1390   29.7090   48.0560 N   0  0  0  0  0  0  0  0  0  0  0  0
   45.7690   30.5020   45.0370 H   0  0  0  0  0  0  0  0  0  0  0  0
   44.1050   27.4740   44.4310 C   0  0  0  0  0  0  0  0  0  0  0  0
   45.3240   27.6970   45.0840 C   0  0  0  0  0  0  0  0  0  0  0  0
   46.3400   26.9800   44.5330 C   0  0  0  0  0  0  0  0  0  0  0  0
   47.3070   27.1030   44.9680 H   0  0  0  0  0  0  0  0  0  0  0  0
   46.2250   26.1300   43.4670 C   0  0  0  0  0  0  0  0  0  0  0  0
   47.0890   25.6080   43.1050 H   0  0  0  0  0  0  0  0  0  0  0  0
   45.0020   25.9440   42.8590 C   0  0  0  0  0  0  0  0  0  0  0  0
   43.9200   26.6350   43.3550 C   0  0  0  0  0  0  0  0  0  0  0  0
   41.9300   28.6920   45.2610 N   0  0  0  0  0  0  0  0  0  0  0  0
   42.9070   28.1560   44.8840 C   0  0  0  0  0  0  0  0  0  0  0  0
   44.7430   27.2570   48.1980 C   0  0  0  0  0  0  0  0  0  0  0  0
   44.3600   27.5680   49.5240 F   0  0  0  0  0  0  0  0  0  0  0  0
   45.7840   26.4030   48.1640 F   0  0  0  0  0  0  0  0  0  0  0  0
   43.6220   26.6900   47.6280 F   0  0  0  0  0  0  0  0  0  0  0  0
   45.5830   32.0620   47.4470 C   0  0  0  0  0  0  0  0  0  0  0  0
   44.5900   32.5550   47.3070 H   0  0  0  0  0  0  0  0  0  0  0  0
   45.8720   32.2290   48.5080 H   0  0  0  0  0  0  0  0  0  0  0  0
   46.5830   32.7140   46.5400 C   0  0  0  0  0  0  0  0  0  0  0  0
   47.0930   31.9230   46.0070 H   0  0  0  0  0  0  0  0  0  0  0  0
   47.3810   33.2220   47.1570 H   0  0  0  0  0  0  0  0  0  0  0  0
   44.5540   35.4480   45.0230 C   0  0  0  0  0  0  0  0  0  0  0  0
   45.1020   35.4880   43.7190 C   0  0  0  0  0  0  0  0  0  0  0  0
   46.1160   34.5950   43.4380 C   0  0  0  0  0  0  0  0  0  0  0  0
   46.4830   33.7740   44.4310 N   0  0  0  0  0  0  0  0  0  0  0  0
   45.9650   33.7400   45.6550 C   0  0  0  0  0  0  0  0  0  0  0  0
   44.9950   34.5910   45.9330 N   0  0  0  0  0  0  0  0  0  0  0  0
   43.7560   36.1200   45.3150 H   0  0  0  0  0  0  0  0  0  0  0  0
   44.6870   36.2140   43.0430 H   0  0  0  0  0  0  0  0  0  0  0  0
   46.6850   34.6360   42.0910 C   0  0  0  0  0  0  0  0  0  0  0  0
   47.4760   33.5050   41.8820 F   0  0  0  0  0  0  0  0  0  0  0  0
   47.5970   35.6890   42.0870 F   0  0  0  0  0  0  0  0  0  0  0  0
   45.7410   34.7390   41.1140 F   0  0  0  0  0  0  0  0  0  0  0  0
  1 21  1  0  0  0  0
  1  5  2  0  0  0  0
  2  3  2  0  0  0  0
  2  1  1  0  0  0  0
  3  4  1  0  0  0  0
  4  5  1  0  0  0  0
  4 17  1  0  0  0  0
  6  2  1  0  0  0  0
  7 16  1  0  0  0  0
  7  8  1  0  0  0  0
  8  3  1  0  0  0  0
  9 10  1  0  0  0  0
  9  8  2  0  0  0  0
 11  9  1  0  0  0  0
 12 11  1  0  0  0  0
 13 14  1  0  0  0  0
 13 11  2  0  0  0  0
 14  7  2  0  0  0  0
 16 15  3  0  0  0  0
 17 18  1  0  0  0  0
 19 17  1  0  0  0  0
 20 17  1  0  0  0  0
 21 23  1  0  0  0  0
 22 21  1  0  0  0  0
 24 26  1  0  0  0  0
 24 21  1  0  0  0  0
 25 24  1  0  0  0  0
 27 33  1  0  0  0  0
 27 32  1  0  0  0  0
 28 27  2  0  0  0  0
 29 28  1  0  0  0  0
 29 30  2  0  0  0  0
 30 31  1  0  0  0  0
 31 32  2  0  0  0  0
 31 24  1  0  0  0  0
 34 28  1  0  0  0  0
 35 29  1  0  0  0  0
 36 35  1  0  0  0  0
 37 35  1  0  0  0  0
 38 35  1  0  0  0  0
M  END
>  <minimizedAffinity>
-5.21819973

>  <minimizedRMSD>
1.27426589

$$$$
