
 OpenBabel03242519263D

 41 44  0  0  0  0  0  0  0  0999 V2000
   37.2780   26.7290   42.0840 C   0  0  0  0  0  0  0  0  0  0  0  0
   37.1350   27.2010   43.4020 C   0  0  0  0  0  0  0  0  0  0  0  0
   37.3930   28.5500   43.6990 C   0  0  0  0  0  0  0  0  0  0  0  0
   37.7780   29.3320   42.6420 N   0  0  0  0  0  0  0  0  0  0  0  0
   37.9070   28.8400   41.3700 C   0  0  0  0  0  0  0  0  0  0  0  0
   37.6590   27.5640   41.1140 N   0  0  0  0  0  0  0  0  0  0  0  0
   36.8400   26.6590   44.2840 H   0  0  0  0  0  0  0  0  0  0  0  0
   37.3060   28.9800   44.6740 H   0  0  0  0  0  0  0  0  0  0  0  0
   36.9860   25.2970   41.8960 C   0  0  0  0  0  0  0  0  0  0  0  0
   38.0570   24.4070   42.3450 C   0  0  0  0  0  0  0  0  0  0  0  0
   38.7490   23.6800   41.2490 C   0  0  0  0  0  0  0  0  0  0  0  0
   37.7990   22.9340   40.3290 C   0  0  0  0  0  0  0  0  0  0  0  0
   36.4890   23.6460   40.0900 C   0  0  0  0  0  0  0  0  0  0  0  0
   36.6190   25.1240   40.4110 C   0  0  0  0  0  0  0  0  0  0  0  0
   36.0090   25.0880   42.4250 H   0  0  0  0  0  0  0  0  0  0  0  0
   38.8170   24.9060   42.9550 H   0  0  0  0  0  0  0  0  0  0  0  0
   37.6180   23.6230   43.0290 H   0  0  0  0  0  0  0  0  0  0  0  0
   39.3650   22.8680   41.7380 H   0  0  0  0  0  0  0  0  0  0  0  0
   39.4490   24.2400   40.6360 H   0  0  0  0  0  0  0  0  0  0  0  0
   37.6350   21.8840   40.6830 H   0  0  0  0  0  0  0  0  0  0  0  0
   38.2730   22.8260   39.3300 H   0  0  0  0  0  0  0  0  0  0  0  0
   35.7150   23.2050   40.7740 H   0  0  0  0  0  0  0  0  0  0  0  0
   36.0990   23.5500   39.0690 H   0  0  0  0  0  0  0  0  0  0  0  0
   37.4540   25.5610   39.8470 H   0  0  0  0  0  0  0  0  0  0  0  0
   35.6650   25.6280   40.2160 H   0  0  0  0  0  0  0  0  0  0  0  0
   38.3350   29.8180   40.3710 C   0  0  0  0  0  0  0  0  0  0  0  0
   37.4350   30.1720   39.4270 N   0  0  0  0  0  0  0  0  0  0  0  0
   37.9890   31.0730   38.6000 C   0  0  0  0  0  0  0  0  0  0  0  0
   39.2590   31.2750   39.0480 N   0  0  0  0  0  0  0  0  0  0  0  0
   39.4750   30.5070   40.1340 N   0  0  0  0  0  0  0  0  0  0  0  0
   37.5840   31.5860   37.7330 H   0  0  0  0  0  0  0  0  0  0  0  0
   40.5630   33.4130   38.9700 C   0  0  0  0  0  0  0  0  0  0  0  0
   40.2990   32.1190   38.5620 C   0  0  0  0  0  0  0  0  0  0  0  0
   41.0950   31.5190   37.5800 C   0  0  0  0  0  0  0  0  0  0  0  0
   40.9300   30.4960   37.2190 H   0  0  0  0  0  0  0  0  0  0  0  0
   42.1520   32.1920   36.9950 C   0  0  0  0  0  0  0  0  0  0  0  0
   42.7580   31.7120   36.2370 H   0  0  0  0  0  0  0  0  0  0  0  0
   42.3840   33.4890   37.4330 C   0  0  0  0  0  3  0  0  0  0  0  0
   41.6170   34.1070   38.4000 C   0  0  0  0  0  3  0  0  0  0  0  0
   38.9950   34.3900   40.7770 N   0  0  0  0  0  0  0  0  0  0  0  0
   39.7130   33.9450   39.9670 C   0  0  0  0  0  0  0  0  0  0  0  0
  1  2  1  0  0  0  0
  2  3  2  0  0  0  0
  2  7  1  0  0  0  0
  3  8  1  0  0  0  0
  4  3  1  0  0  0  0
  5  4  2  0  0  0  0
  6  5  1  0  0  0  0
  6  1  2  0  0  0  0
  9  1  1  0  0  0  0
  9 10  1  0  0  0  0
  9 15  1  0  0  0  0
 10 16  1  0  0  0  0
 10 17  1  0  0  0  0
 11 18  1  0  0  0  0
 11 10  1  0  0  0  0
 12 20  1  0  0  0  0
 12 11  1  0  0  0  0
 13 12  1  0  0  0  0
 13 14  1  0  0  0  0
 13 22  1  0  0  0  0
 14  9  1  0  0  0  0
 19 11  1  0  0  0  0
 21 12  1  0  0  0  0
 23 13  1  0  0  0  0
 24 14  1  0  0  0  0
 25 14  1  0  0  0  0
 26  5  1  0  0  0  0
 27 26  1  0  0  0  0
 28 29  1  0  0  0  0
 28 27  2  0  0  0  0
 29 30  1  0  0  0  0
 30 26  2  0  0  0  0
 31 28  1  0  0  0  0
 32 41  1  0  0  0  0
 33 32  1  0  0  0  0
 33 29  1  0  0  0  0
 34 33  2  0  0  0  0
 35 34  1  0  0  0  0
 36 38  2  0  0  0  0
 36 34  1  0  0  0  0
 37 36  1  0  0  0  0
 38 39  1  0  0  0  0
 39 32  2  0  0  0  0
 41 40  3  0  0  0  0
M  END
>  <minimizedAffinity>
-6.07765007

$$$$

 OpenBabel03242519263D

 41 44  0  0  0  0  0  0  0  0999 V2000
   32.2750   29.5080   36.5970 C   0  0  0  0  0  0  0  0  0  0  0  0
   32.6410   29.4670   35.2390 C   0  0  0  0  0  0  0  0  0  0  0  0
   33.9680   29.1790   34.8760 C   0  0  0  0  0  0  0  0  0  0  0  0
   34.8360   28.9520   35.9110 N   0  0  0  0  0  0  0  0  0  0  0  0
   34.4460   29.0000   37.2230 C   0  0  0  0  0  0  0  0  0  0  0  0
   33.1900   29.2740   37.5420 N   0  0  0  0  0  0  0  0  0  0  0  0
   32.0280   29.6320   34.3700 H   0  0  0  0  0  0  0  0  0  0  0  0
   34.3190   29.1310   33.8670 H   0  0  0  0  0  0  0  0  0  0  0  0
   30.8600   29.8250   36.8560 C   0  0  0  0  0  0  0  0  0  0  0  0
   30.3850   31.0280   36.1720 C   0  0  0  0  0  0  0  0  0  0  0  0
   30.0650   32.1620   37.0770 C   0  0  0  0  0  0  0  0  0  0  0  0
   29.1140   31.7860   38.1990 C   0  0  0  0  0  0  0  0  0  0  0  0
   29.3170   30.3900   38.7360 C   0  0  0  0  0  0  0  0  0  0  0  0
   30.7040   29.8810   38.3860 C   0  0  0  0  0  0  0  0  0  0  0  0
   30.2600   28.9100   36.5730 H   0  0  0  0  0  0  0  0  0  0  0  0
   31.0670   31.3930   35.3970 H   0  0  0  0  0  0  0  0  0  0  0  0
   29.4340   30.7800   35.6140 H   0  0  0  0  0  0  0  0  0  0  0  0
   29.4930   32.9170   36.4610 H   0  0  0  0  0  0  0  0  0  0  0  0
   30.8960   32.7140   37.5050 H   0  0  0  0  0  0  0  0  0  0  0  0
   28.0470   31.9570   37.8980 H   0  0  0  0  0  0  0  0  0  0  0  0
   29.2790   32.4700   39.0580 H   0  0  0  0  0  0  0  0  0  0  0  0
   28.5620   29.7110   38.2560 H   0  0  0  0  0  0  0  0  0  0  0  0
   29.1800   30.2960   39.8200 H   0  0  0  0  0  0  0  0  0  0  0  0
   31.4650   30.5910   38.7360 H   0  0  0  0  0  0  0  0  0  0  0  0
   30.8400   28.8740   38.7980 H   0  0  0  0  0  0  0  0  0  0  0  0
   35.5090   28.7390   38.1930 C   0  0  0  0  0  0  0  0  0  0  0  0
   36.7430   28.4820   37.7040 N   0  0  0  0  0  0  0  0  0  0  0  0
   37.5890   28.2710   38.7240 C   0  0  0  0  0  0  0  0  0  0  0  0
   36.8570   28.4020   39.8650 N   0  0  0  0  0  0  0  0  0  0  0  0
   35.5800   28.6890   39.5430 N   0  0  0  0  0  0  0  0  0  0  0  0
   38.6510   28.0400   38.7320 H   0  0  0  0  0  0  0  0  0  0  0  0
   37.7910   29.2770   42.0190 C   0  0  0  0  0  0  0  0  0  0  0  0
   37.2300   28.2870   41.2350 C   0  0  0  0  0  0  0  0  0  0  0  0
   36.9770   27.0240   41.7810 C   0  0  0  0  0  0  0  0  0  0  0  0
   36.5340   26.2010   41.2050 H   0  0  0  0  0  0  0  0  0  0  0  0
   37.2750   26.7310   43.0990 C   0  0  0  0  0  0  0  0  0  0  0  0
   37.0720   25.7470   43.5040 H   0  0  0  0  0  0  0  0  0  0  0  0
   37.8370   27.7530   43.8520 C   0  0  0  0  0  3  0  0  0  0  0  0
   38.0980   29.0100   43.3420 C   0  0  0  0  0  3  0  0  0  0  0  0
   38.1780   31.5600   40.8700 N   0  0  0  0  0  0  0  0  0  0  0  0
   38.0140   30.5260   41.3930 C   0  0  0  0  0  0  0  0  0  0  0  0
  1  9  1  0  0  0  0
  1  6  1  0  0  0  0
  2  1  2  0  0  0  0
  3  2  1  0  0  0  0
  3  4  2  0  0  0  0
  4  5  1  0  0  0  0
  5  6  2  0  0  0  0
  5 26  1  0  0  0  0
  7  2  1  0  0  0  0
  8  3  1  0  0  0  0
  9 14  1  0  0  0  0
 10  9  1  0  0  0  0
 10 11  1  0  0  0  0
 11 19  1  0  0  0  0
 11 12  1  0  0  0  0
 12 13  1  0  0  0  0
 12 21  1  0  0  0  0
 13 23  1  0  0  0  0
 14 24  1  0  0  0  0
 14 13  1  0  0  0  0
 14 25  1  0  0  0  0
 15  9  1  0  0  0  0
 16 10  1  0  0  0  0
 17 10  1  0  0  0  0
 18 11  1  0  0  0  0
 20 12  1  0  0  0  0
 22 13  1  0  0  0  0
 26 30  2  0  0  0  0
 27 26  1  0  0  0  0
 27 28  2  0  0  0  0
 28 31  1  0  0  0  0
 28 29  1  0  0  0  0
 29 33  1  0  0  0  0
 30 29  1  0  0  0  0
 32 39  1  0  0  0  0
 33 34  1  0  0  0  0
 33 32  2  0  0  0  0
 34 36  2  0  0  0  0
 35 34  1  0  0  0  0
 36 37  1  0  0  0  0
 36 38  1  0  0  0  0
 39 38  2  0  0  0  0
 40 41  3  0  0  0  0
 41 32  1  0  0  0  0
M  END
>  <minimizedAffinity>
-6.03161049

$$$$

 OpenBabel03242519263D

 41 44  0  0  0  0  0  0  0  0999 V2000
   37.6550   29.4380   41.9080 C   0  0  0  0  0  0  0  0  0  0  0  0
   36.3930   29.7230   41.3520 C   0  0  0  0  0  0  0  0  0  0  0  0
   36.1960   30.9090   40.6250 C   0  0  0  0  0  0  0  0  0  0  0  0
   37.2880   31.7280   40.5080 N   0  0  0  0  0  0  0  0  0  0  0  0
   38.5020   31.4200   41.0610 C   0  0  0  0  0  0  0  0  0  0  0  0
   38.6650   30.2960   41.7440 N   0  0  0  0  0  0  0  0  0  0  0  0
   35.4900   29.1400   41.3970 H   0  0  0  0  0  0  0  0  0  0  0  0
   35.2690   31.1920   40.1750 H   0  0  0  0  0  0  0  0  0  0  0  0
   37.7390   28.1710   42.6540 C   0  0  0  0  0  0  0  0  0  0  0  0
   39.0910   27.8300   43.0980 C   0  0  0  0  0  0  0  0  0  0  0  0
   39.6780   26.6450   42.4200 C   0  0  0  0  0  0  0  0  0  0  0  0
   38.7850   25.4190   42.4710 C   0  0  0  0  0  0  0  0  0  0  0  0
   37.3100   25.7270   42.3680 C   0  0  0  0  0  0  0  0  0  0  0  0
   37.0940   27.0990   41.7560 C   0  0  0  0  0  0  0  0  0  0  0  0
   37.0150   28.2470   43.5180 H   0  0  0  0  0  0  0  0  0  0  0  0
   39.8040   28.6570   43.0150 H   0  0  0  0  0  0  0  0  0  0  0  0
   39.0640   27.5910   44.2020 H   0  0  0  0  0  0  0  0  0  0  0  0
   40.5950   26.3530   43.0130 H   0  0  0  0  0  0  0  0  0  0  0  0
   40.0270   26.7700   41.3990 H   0  0  0  0  0  0  0  0  0  0  0  0
   39.0100   24.7920   43.3730 H   0  0  0  0  0  0  0  0  0  0  0  0
   39.0190   24.7640   41.6050 H   0  0  0  0  0  0  0  0  0  0  0  0
   36.8760   25.7330   43.4040 H   0  0  0  0  0  0  0  0  0  0  0  0
   36.7320   24.9980   41.7890 H   0  0  0  0  0  0  0  0  0  0  0  0
   37.6150   27.1680   40.7920 H   0  0  0  0  0  0  0  0  0  0  0  0
   36.0190   27.3000   41.6750 H   0  0  0  0  0  0  0  0  0  0  0  0
   39.5510   32.4150   40.8410 C   0  0  0  0  0  0  0  0  0  0  0  0
   39.1600   33.6940   40.6490 N   0  0  0  0  0  0  0  0  0  0  0  0
   40.2420   34.4670   40.4680 C   0  0  0  0  0  0  0  0  0  0  0  0
   41.3220   33.6420   40.5510 N   0  0  0  0  0  0  0  0  0  0  0  0
   40.9030   32.3820   40.7800 N   0  0  0  0  0  0  0  0  0  0  0  0
   40.3320   35.5350   40.2880 H   0  0  0  0  0  0  0  0  0  0  0  0
   43.4690   33.8710   39.2790 C   0  0  0  0  0  0  0  0  0  0  0  0
   42.7170   33.9110   40.4380 C   0  0  0  0  0  0  0  0  0  0  0  0
   43.3230   34.2430   41.6540 C   0  0  0  0  0  0  0  0  0  0  0  0
   42.7750   34.2900   42.6030 H   0  0  0  0  0  0  0  0  0  0  0  0
   44.6720   34.5360   41.7340 C   0  0  0  0  0  0  0  0  0  0  0  0
   45.1250   34.7910   42.6840 H   0  0  0  0  0  0  0  0  0  0  0  0
   45.3930   34.4850   40.5480 C   0  0  0  0  0  3  0  0  0  0  0  0
   44.8220   34.1610   39.3330 C   0  0  0  0  0  3  0  0  0  0  0  0
   42.2080   33.2240   37.1180 N   0  0  0  0  0  0  0  0  0  0  0  0
   42.7810   33.5270   38.0930 C   0  0  0  0  0  0  0  0  0  0  0  0
  1  9  1  0  0  0  0
  2  7  1  0  0  0  0
  2  1  2  0  0  0  0
  3  2  1  0  0  0  0
  4  3  2  0  0  0  0
  4  5  1  0  0  0  0
  5  6  2  0  0  0  0
  6  1  1  0  0  0  0
  8  3  1  0  0  0  0
  9 10  1  0  0  0  0
  9 15  1  0  0  0  0
 10 17  1  0  0  0  0
 11 12  1  0  0  0  0
 11 18  1  0  0  0  0
 11 10  1  0  0  0  0
 12 20  1  0  0  0  0
 13 12  1  0  0  0  0
 13 22  1  0  0  0  0
 14 13  1  0  0  0  0
 14  9  1  0  0  0  0
 16 10  1  0  0  0  0
 19 11  1  0  0  0  0
 21 12  1  0  0  0  0
 23 13  1  0  0  0  0
 24 14  1  0  0  0  0
 25 14  1  0  0  0  0
 26  5  1  0  0  0  0
 27 26  1  0  0  0  0
 28 29  1  0  0  0  0
 28 27  2  0  0  0  0
 29 30  1  0  0  0  0
 30 26  2  0  0  0  0
 31 28  1  0  0  0  0
 32 39  2  0  0  0  0
 32 33  1  0  0  0  0
 33 29  1  0  0  0  0
 33 34  2  0  0  0  0
 34 36  1  0  0  0  0
 34 35  1  0  0  0  0
 36 37  1  0  0  0  0
 38 36  2  0  0  0  0
 39 38  1  0  0  0  0
 40 41  3  0  0  0  0
 41 32  1  0  0  0  0
M  END
>  <minimizedAffinity>
-5.99575186

$$$$

 OpenBabel03242519263D

 41 44  0  0  0  0  0  0  0  0999 V2000
   37.1710   28.4220   41.7340 C   0  0  0  0  0  0  0  0  0  0  0  0
   35.8810   28.5630   41.1880 C   0  0  0  0  0  0  0  0  0  0  0  0
   35.5640   29.6940   40.4170 C   0  0  0  0  0  0  0  0  0  0  0  0
   36.5720   30.6070   40.2490 N   0  0  0  0  0  0  0  0  0  0  0  0
   37.8160   30.4380   40.7940 C   0  0  0  0  0  0  0  0  0  0  0  0
   38.0930   29.3630   41.5190 N   0  0  0  0  0  0  0  0  0  0  0  0
   35.0370   27.9000   41.2710 H   0  0  0  0  0  0  0  0  0  0  0  0
   34.6080   29.8700   39.9710 H   0  0  0  0  0  0  0  0  0  0  0  0
   37.3850   27.2000   42.5290 C   0  0  0  0  0  0  0  0  0  0  0  0
   38.4410   27.3190   43.5330 C   0  0  0  0  0  0  0  0  0  0  0  0
   39.6460   26.4940   43.2570 C   0  0  0  0  0  0  0  0  0  0  0  0
   39.3280   25.0320   43.0020 C   0  0  0  0  0  0  0  0  0  0  0  0
   38.0360   24.8050   42.2540 C   0  0  0  0  0  0  0  0  0  0  0  0
   37.6190   26.0640   41.5160 C   0  0  0  0  0  0  0  0  0  0  0  0
   36.3890   26.9280   42.9890 H   0  0  0  0  0  0  0  0  0  0  0  0
   38.7670   28.3500   43.7080 H   0  0  0  0  0  0  0  0  0  0  0  0
   38.0370   26.9790   44.5310 H   0  0  0  0  0  0  0  0  0  0  0  0
   40.2610   26.4900   44.2050 H   0  0  0  0  0  0  0  0  0  0  0  0
   40.3230   26.8370   42.4790 H   0  0  0  0  0  0  0  0  0  0  0  0
   39.3590   24.4410   43.9540 H   0  0  0  0  0  0  0  0  0  0  0  0
   40.1270   24.5930   42.3690 H   0  0  0  0  0  0  0  0  0  0  0  0
   37.2340   24.5530   42.9990 H   0  0  0  0  0  0  0  0  0  0  0  0
   38.0680   23.9790   41.5340 H   0  0  0  0  0  0  0  0  0  0  0  0
   38.4350   26.4090   40.8680 H   0  0  0  0  0  0  0  0  0  0  0  0
   36.6890   25.8760   40.9660 H   0  0  0  0  0  0  0  0  0  0  0  0
   38.7630   31.5160   40.5160 C   0  0  0  0  0  0  0  0  0  0  0  0
   38.3950   32.7680   40.8670 N   0  0  0  0  0  0  0  0  0  0  0  0
   39.3760   33.6270   40.5460 C   0  0  0  0  0  0  0  0  0  0  0  0
   40.3690   32.8820   39.9860 N   0  0  0  0  0  0  0  0  0  0  0  0
   39.9980   31.5870   39.9660 N   0  0  0  0  0  0  0  0  0  0  0  0
   39.4490   34.7030   40.6710 H   0  0  0  0  0  0  0  0  0  0  0  0
   42.8520   33.1890   40.1250 C   0  0  0  0  0  0  0  0  0  0  0  0
   41.6400   33.2590   39.4640 C   0  0  0  0  0  0  0  0  0  0  0  0
   41.5880   33.7370   38.1500 C   0  0  0  0  0  0  0  0  0  0  0  0
   40.6540   33.8140   37.5790 H   0  0  0  0  0  0  0  0  0  0  0  0
   42.7270   34.1480   37.4830 C   0  0  0  0  0  0  0  0  0  0  0  0
   42.6670   34.5150   36.4660 H   0  0  0  0  0  0  0  0  0  0  0  0
   43.9240   34.0620   38.1820 C   0  0  0  0  0  3  0  0  0  0  0  0
   44.0070   33.5940   39.4790 C   0  0  0  0  0  3  0  0  0  0  0  0
   42.8110   32.2930   42.5490 N   0  0  0  0  0  0  0  0  0  0  0  0
   42.8200   32.6950   41.4500 C   0  0  0  0  0  0  0  0  0  0  0  0
  1  9  1  0  0  0  0
  2  7  1  0  0  0  0
  2  1  2  0  0  0  0
  3  2  1  0  0  0  0
  4  3  2  0  0  0  0
  4  5  1  0  0  0  0
  5  6  2  0  0  0  0
  6  1  1  0  0  0  0
  8  3  1  0  0  0  0
  9 15  1  0  0  0  0
  9 10  1  0  0  0  0
 10 16  1  0  0  0  0
 10 17  1  0  0  0  0
 11 10  1  0  0  0  0
 11 18  1  0  0  0  0
 12 11  1  0  0  0  0
 12 20  1  0  0  0  0
 13 22  1  0  0  0  0
 13 12  1  0  0  0  0
 14 13  1  0  0  0  0
 14  9  1  0  0  0  0
 19 11  1  0  0  0  0
 21 12  1  0  0  0  0
 23 13  1  0  0  0  0
 24 14  1  0  0  0  0
 25 14  1  0  0  0  0
 26  5  1  0  0  0  0
 26 27  1  0  0  0  0
 28 31  1  0  0  0  0
 28 27  2  0  0  0  0
 29 28  1  0  0  0  0
 30 29  1  0  0  0  0
 30 26  2  0  0  0  0
 32 41  1  0  0  0  0
 33 29  1  0  0  0  0
 33 32  2  0  0  0  0
 34 33  1  0  0  0  0
 35 34  1  0  0  0  0
 36 34  2  0  0  0  0
 36 38  1  0  0  0  0
 37 36  1  0  0  0  0
 38 39  2  0  0  0  0
 39 32  1  0  0  0  0
 41 40  3  0  0  0  0
M  END
>  <minimizedAffinity>
-5.9674263

$$$$

 OpenBabel03242519263D

 41 44  0  0  0  0  0  0  0  0999 V2000
   32.2700   29.5010   36.5800 C   0  0  0  0  0  0  0  0  0  0  0  0
   32.6440   29.5520   35.2240 C   0  0  0  0  0  0  0  0  0  0  0  0
   33.9690   29.2760   34.8490 C   0  0  0  0  0  0  0  0  0  0  0  0
   34.8290   28.9670   35.8700 N   0  0  0  0  0  0  0  0  0  0  0  0
   34.4320   28.9260   37.1800 C   0  0  0  0  0  0  0  0  0  0  0  0
   33.1760   29.1910   37.5100 N   0  0  0  0  0  0  0  0  0  0  0  0
   32.0380   29.7850   34.3650 H   0  0  0  0  0  0  0  0  0  0  0  0
   34.3270   29.2950   33.8410 H   0  0  0  0  0  0  0  0  0  0  0  0
   30.8560   29.8150   36.8520 C   0  0  0  0  0  0  0  0  0  0  0  0
   30.3630   30.9990   36.1490 C   0  0  0  0  0  0  0  0  0  0  0  0
   30.0490   32.1510   37.0330 C   0  0  0  0  0  0  0  0  0  0  0  0
   29.1170   31.7940   38.1770 C   0  0  0  0  0  0  0  0  0  0  0  0
   29.3380   30.4110   38.7430 C   0  0  0  0  0  0  0  0  0  0  0  0
   30.7220   29.9040   38.3830 C   0  0  0  0  0  0  0  0  0  0  0  0
   30.2590   28.8900   36.5980 H   0  0  0  0  0  0  0  0  0  0  0  0
   31.0320   31.3510   35.3560 H   0  0  0  0  0  0  0  0  0  0  0  0
   29.4060   30.7320   35.6110 H   0  0  0  0  0  0  0  0  0  0  0  0
   29.4630   32.8890   36.4090 H   0  0  0  0  0  0  0  0  0  0  0  0
   30.8830   32.7180   37.4370 H   0  0  0  0  0  0  0  0  0  0  0  0
   28.0450   31.9520   37.8890 H   0  0  0  0  0  0  0  0  0  0  0  0
   29.2910   32.4980   39.0190 H   0  0  0  0  0  0  0  0  0  0  0  0
   28.5810   29.7170   38.2890 H   0  0  0  0  0  0  0  0  0  0  0  0
   29.2180   30.3410   39.8300 H   0  0  0  0  0  0  0  0  0  0  0  0
   31.4840   30.6260   38.7060 H   0  0  0  0  0  0  0  0  0  0  0  0
   30.8720   28.9070   38.8150 H   0  0  0  0  0  0  0  0  0  0  0  0
   35.4850   28.5860   38.1340 C   0  0  0  0  0  0  0  0  0  0  0  0
   36.7260   28.3790   37.6390 N   0  0  0  0  0  0  0  0  0  0  0  0
   37.5620   28.0820   38.6450 C   0  0  0  0  0  0  0  0  0  0  0  0
   36.8170   28.1090   39.7850 N   0  0  0  0  0  0  0  0  0  0  0  0
   35.5430   28.4170   39.4760 N   0  0  0  0  0  0  0  0  0  0  0  0
   38.6250   27.8560   38.6440 H   0  0  0  0  0  0  0  0  0  0  0  0
   37.2740   26.6440   41.7670 C   0  0  0  0  0  0  0  0  0  0  0  0
   37.1760   27.8750   41.1440 C   0  0  0  0  0  0  0  0  0  0  0  0
   37.4460   29.0450   41.8620 C   0  0  0  0  0  0  0  0  0  0  0  0
   37.3840   30.0470   41.4180 H   0  0  0  0  0  0  0  0  0  0  0  0
   37.8100   29.0080   43.1950 C   0  0  0  0  0  0  0  0  0  0  0  0
   38.0150   29.9240   43.7350 H   0  0  0  0  0  0  0  0  0  0  0  0
   37.8960   27.7530   43.7840 C   0  0  0  0  0  3  0  0  0  0  0  0
   37.6370   26.5810   43.1010 C   0  0  0  0  0  3  0  0  0  0  0  0
   36.7400   24.5640   40.3290 N   0  0  0  0  0  0  0  0  0  0  0  0
   36.9860   25.5110   40.9710 C   0  0  0  0  0  0  0  0  0  0  0  0
  1  9  1  0  0  0  0
  1  6  1  0  0  0  0
  2  1  2  0  0  0  0
  3  2  1  0  0  0  0
  3  4  2  0  0  0  0
  4  5  1  0  0  0  0
  5  6  2  0  0  0  0
  5 26  1  0  0  0  0
  7  2  1  0  0  0  0
  8  3  1  0  0  0  0
  9 14  1  0  0  0  0
 10  9  1  0  0  0  0
 10 11  1  0  0  0  0
 11 19  1  0  0  0  0
 11 12  1  0  0  0  0
 12 13  1  0  0  0  0
 12 21  1  0  0  0  0
 13 23  1  0  0  0  0
 14 24  1  0  0  0  0
 14 13  1  0  0  0  0
 14 25  1  0  0  0  0
 15  9  1  0  0  0  0
 16 10  1  0  0  0  0
 17 10  1  0  0  0  0
 18 11  1  0  0  0  0
 20 12  1  0  0  0  0
 22 13  1  0  0  0  0
 26 30  2  0  0  0  0
 27 26  1  0  0  0  0
 27 28  2  0  0  0  0
 28 29  1  0  0  0  0
 29 33  1  0  0  0  0
 30 29  1  0  0  0  0
 31 28  1  0  0  0  0
 32 39  1  0  0  0  0
 33 32  2  0  0  0  0
 33 34  1  0  0  0  0
 34 36  2  0  0  0  0
 35 34  1  0  0  0  0
 36 37  1  0  0  0  0
 36 38  1  0  0  0  0
 39 38  2  0  0  0  0
 40 41  3  0  0  0  0
 41 32  1  0  0  0  0
M  END
>  <minimizedAffinity>
-5.88576365

$$$$

 OpenBabel03242519263D

 41 44  0  0  0  0  0  0  0  0999 V2000
   40.5630   33.2940   39.9410 C   0  0  0  0  0  0  0  0  0  0  0  0
   39.8630   34.5150   39.9840 C   0  0  0  0  0  0  0  0  0  0  0  0
   38.4760   34.5230   40.2080 C   0  0  0  0  0  0  0  0  0  0  0  0
   37.8880   33.2960   40.3730 N   0  0  0  0  0  0  0  0  0  0  0  0
   38.6000   32.1270   40.3250 C   0  0  0  0  0  0  0  0  0  0  0  0
   39.9080   32.1440   40.1120 N   0  0  0  0  0  0  0  0  0  0  0  0
   40.2430   35.5150   39.8650 H   0  0  0  0  0  0  0  0  0  0  0  0
   37.8780   35.4080   40.2540 H   0  0  0  0  0  0  0  0  0  0  0  0
   42.0110   33.4110   39.6940 C   0  0  0  0  0  0  0  0  0  0  0  0
   42.3790   34.5340   38.8320 C   0  0  0  0  0  0  0  0  0  0  0  0
   42.9060   34.1370   37.5010 C   0  0  0  0  0  0  0  0  0  0  0  0
   44.0480   33.1390   37.5790 C   0  0  0  0  0  0  0  0  0  0  0  0
   43.9100   32.1340   38.6970 C   0  0  0  0  0  0  0  0  0  0  0  0
   42.4670   32.0420   39.1560 C   0  0  0  0  0  0  0  0  0  0  0  0
   42.5140   33.4670   40.7040 H   0  0  0  0  0  0  0  0  0  0  0  0
   41.5690   35.2540   38.6760 H   0  0  0  0  0  0  0  0  0  0  0  0
   43.1930   35.1310   39.3380 H   0  0  0  0  0  0  0  0  0  0  0  0
   43.3690   35.0630   37.0460 H   0  0  0  0  0  0  0  0  0  0  0  0
   42.1930   33.7830   36.7620 H   0  0  0  0  0  0  0  0  0  0  0  0
   45.0390   33.6620   37.6180 H   0  0  0  0  0  0  0  0  0  0  0  0
   44.0760   32.5480   36.6390 H   0  0  0  0  0  0  0  0  0  0  0  0
   44.5340   32.4800   39.5640 H   0  0  0  0  0  0  0  0  0  0  0  0
   44.2550   31.1240   38.4440 H   0  0  0  0  0  0  0  0  0  0  0  0
   41.8120   31.8260   38.3020 H   0  0  0  0  0  0  0  0  0  0  0  0
   42.3830   31.2970   39.9560 H   0  0  0  0  0  0  0  0  0  0  0  0
   37.8070   30.9130   40.5150 C   0  0  0  0  0  0  0  0  0  0  0  0
   36.4790   31.0670   40.7170 N   0  0  0  0  0  0  0  0  0  0  0  0
   35.9100   29.8610   40.8670 C   0  0  0  0  0  0  0  0  0  0  0  0
   36.9130   28.9460   40.7550 N   0  0  0  0  0  0  0  0  0  0  0  0
   38.0780   29.5880   40.5390 N   0  0  0  0  0  0  0  0  0  0  0  0
   34.8760   29.5790   41.0430 H   0  0  0  0  0  0  0  0  0  0  0  0
   36.6580   26.6500   39.7830 C   0  0  0  0  0  0  0  0  0  0  0  0
   36.8940   27.5230   40.8290 C   0  0  0  0  0  0  0  0  0  0  0  0
   37.1490   27.0250   42.1110 C   0  0  0  0  0  0  0  0  0  0  0  0
   37.3420   27.6710   42.9760 H   0  0  0  0  0  0  0  0  0  0  0  0
   37.1700   25.6660   42.3690 C   0  0  0  0  0  0  0  0  0  0  0  0
   37.3680   25.2990   43.3680 H   0  0  0  0  0  0  0  0  0  0  0  0
   36.9280   24.8240   41.2920 C   0  0  0  0  0  3  0  0  0  0  0  0
   36.6750   25.2860   40.0150 C   0  0  0  0  0  3  0  0  0  0  0  0
   36.2110   27.7360   37.4810 N   0  0  0  0  0  0  0  0  0  0  0  0
   36.4100   27.2340   38.5190 C   0  0  0  0  0  0  0  0  0  0  0  0
  1  2  2  0  0  0  0
  1  6  1  0  0  0  0
  2  3  1  0  0  0  0
  3  8  1  0  0  0  0
  3  4  2  0  0  0  0
  5  4  1  0  0  0  0
  5 26  1  0  0  0  0
  6  5  2  0  0  0  0
  7  2  1  0  0  0  0
  9  1  1  0  0  0  0
  9 15  1  0  0  0  0
 10 17  1  0  0  0  0
 10  9  1  0  0  0  0
 11 12  1  0  0  0  0
 11 10  1  0  0  0  0
 12 20  1  0  0  0  0
 12 13  1  0  0  0  0
 13 14  1  0  0  0  0
 13 22  1  0  0  0  0
 14  9  1  0  0  0  0
 14 25  1  0  0  0  0
 16 10  1  0  0  0  0
 18 11  1  0  0  0  0
 19 11  1  0  0  0  0
 21 12  1  0  0  0  0
 23 13  1  0  0  0  0
 24 14  1  0  0  0  0
 26 30  2  0  0  0  0
 26 27  1  0  0  0  0
 27 28  2  0  0  0  0
 28 31  1  0  0  0  0
 29 33  1  0  0  0  0
 29 28  1  0  0  0  0
 30 29  1  0  0  0  0
 32 39  2  0  0  0  0
 32 33  1  0  0  0  0
 33 34  2  0  0  0  0
 34 36  1  0  0  0  0
 34 35  1  0  0  0  0
 36 37  1  0  0  0  0
 38 36  2  0  0  0  0
 39 38  1  0  0  0  0
 40 41  3  0  0  0  0
 41 32  1  0  0  0  0
M  END
>  <minimizedAffinity>
-5.71816206

$$$$

 OpenBabel03242519263D

 41 44  0  0  0  0  0  0  0  0999 V2000
   40.2860   33.0520   38.9690 C   0  0  0  0  0  0  0  0  0  0  0  0
   39.9530   34.1780   39.7450 C   0  0  0  0  0  0  0  0  0  0  0  0
   38.8960   34.1090   40.6670 C   0  0  0  0  0  0  0  0  0  0  0  0
   38.2450   32.9060   40.7430 N   0  0  0  0  0  0  0  0  0  0  0  0
   38.5950   31.8300   39.9730 C   0  0  0  0  0  0  0  0  0  0  0  0
   39.5960   31.9180   39.1090 N   0  0  0  0  0  0  0  0  0  0  0  0
   40.4090   35.1540   39.7480 H   0  0  0  0  0  0  0  0  0  0  0  0
   38.5860   34.9210   41.2900 H   0  0  0  0  0  0  0  0  0  0  0  0
   41.4080   33.2450   38.0330 C   0  0  0  0  0  0  0  0  0  0  0  0
   41.9250   32.0030   37.4580 C   0  0  0  0  0  0  0  0  0  0  0  0
   43.2940   31.6440   37.9080 C   0  0  0  0  0  0  0  0  0  0  0  0
   44.3010   32.7650   37.7250 C   0  0  0  0  0  0  0  0  0  0  0  0
   43.7360   34.1440   37.9660 C   0  0  0  0  0  0  0  0  0  0  0  0
   42.4670   34.0630   38.7940 C   0  0  0  0  0  0  0  0  0  0  0  0
   41.0530   33.9660   37.2380 H   0  0  0  0  0  0  0  0  0  0  0  0
   41.2740   31.1380   37.6230 H   0  0  0  0  0  0  0  0  0  0  0  0
   41.9700   32.1110   36.3350 H   0  0  0  0  0  0  0  0  0  0  0  0
   43.6560   30.8230   37.2200 H   0  0  0  0  0  0  0  0  0  0  0  0
   43.4060   31.2450   38.9120 H   0  0  0  0  0  0  0  0  0  0  0  0
   44.8040   32.6970   36.7250 H   0  0  0  0  0  0  0  0  0  0  0  0
   45.1210   32.6390   38.4630 H   0  0  0  0  0  0  0  0  0  0  0  0
   43.4790   34.6010   36.9720 H   0  0  0  0  0  0  0  0  0  0  0  0
   44.4260   34.8380   38.4610 H   0  0  0  0  0  0  0  0  0  0  0  0
   42.6570   33.5100   39.7230 H   0  0  0  0  0  0  0  0  0  0  0  0
   42.0800   35.0740   38.9720 H   0  0  0  0  0  0  0  0  0  0  0  0
   37.7850   30.6310   40.1830 C   0  0  0  0  0  0  0  0  0  0  0  0
   36.4560   30.8050   40.3590 N   0  0  0  0  0  0  0  0  0  0  0  0
   35.8710   29.6090   40.5330 C   0  0  0  0  0  0  0  0  0  0  0  0
   36.8640   28.6810   40.4610 N   0  0  0  0  0  0  0  0  0  0  0  0
   38.0400   29.3030   40.2460 N   0  0  0  0  0  0  0  0  0  0  0  0
   34.8310   29.3440   40.7000 H   0  0  0  0  0  0  0  0  0  0  0  0
   37.0410   26.5220   41.7210 C   0  0  0  0  0  0  0  0  0  0  0  0
   36.8280   27.2610   40.5720 C   0  0  0  0  0  0  0  0  0  0  0  0
   36.5430   26.6110   39.3670 C   0  0  0  0  0  0  0  0  0  0  0  0
   36.3660   27.1470   38.4250 H   0  0  0  0  0  0  0  0  0  0  0  0
   36.4680   25.2330   39.2870 C   0  0  0  0  0  0  0  0  0  0  0  0
   36.2460   24.7470   38.3450 H   0  0  0  0  0  0  0  0  0  0  0  0
   36.6880   24.5280   40.4630 C   0  0  0  0  0  3  0  0  0  0  0  0
   36.9700   25.1410   41.6680 C   0  0  0  0  0  3  0  0  0  0  0  0
   37.5760   27.8590   43.8670 N   0  0  0  0  0  0  0  0  0  0  0  0
   37.3230   27.2540   42.8980 C   0  0  0  0  0  0  0  0  0  0  0  0
  1  6  2  0  0  0  0
  1  2  1  0  0  0  0
  2  7  1  0  0  0  0
  2  3  2  0  0  0  0
  3  4  1  0  0  0  0
  3  8  1  0  0  0  0
  5 26  1  0  0  0  0
  5  4  2  0  0  0  0
  6  5  1  0  0  0  0
  9 14  1  0  0  0  0
  9  1  1  0  0  0  0
 10 16  1  0  0  0  0
 10 11  1  0  0  0  0
 10  9  1  0  0  0  0
 11 19  1  0  0  0  0
 12 11  1  0  0  0  0
 12 13  1  0  0  0  0
 12 21  1  0  0  0  0
 13 23  1  0  0  0  0
 13 14  1  0  0  0  0
 14 25  1  0  0  0  0
 14 24  1  0  0  0  0
 15  9  1  0  0  0  0
 17 10  1  0  0  0  0
 18 11  1  0  0  0  0
 20 12  1  0  0  0  0
 22 13  1  0  0  0  0
 26 30  2  0  0  0  0
 26 27  1  0  0  0  0
 27 28  2  0  0  0  0
 28 31  1  0  0  0  0
 29 28  1  0  0  0  0
 29 33  1  0  0  0  0
 30 29  1  0  0  0  0
 32 41  1  0  0  0  0
 33 32  2  0  0  0  0
 34 33  1  0  0  0  0
 35 34  1  0  0  0  0
 36 34  2  0  0  0  0
 36 38  1  0  0  0  0
 37 36  1  0  0  0  0
 38 39  2  0  0  0  0
 39 32  1  0  0  0  0
 41 40  3  0  0  0  0
M  END
>  <minimizedAffinity>
-5.66146278

$$$$

 OpenBabel03242519263D

 41 44  0  0  0  0  0  0  0  0999 V2000
   32.4310   29.4000   36.7310 C   0  0  0  0  0  0  0  0  0  0  0  0
   32.7990   29.2860   35.3770 C   0  0  0  0  0  0  0  0  0  0  0  0
   34.1330   29.0110   35.0310 C   0  0  0  0  0  0  0  0  0  0  0  0
   35.0060   28.8680   36.0780 N   0  0  0  0  0  0  0  0  0  0  0  0
   34.6140   28.9850   37.3840 C   0  0  0  0  0  0  0  0  0  0  0  0
   33.3500   29.2460   37.6870 N   0  0  0  0  0  0  0  0  0  0  0  0
   32.1830   29.3830   34.5000 H   0  0  0  0  0  0  0  0  0  0  0  0
   34.4860   28.9100   34.0270 H   0  0  0  0  0  0  0  0  0  0  0  0
   31.0080   29.6970   36.9700 C   0  0  0  0  0  0  0  0  0  0  0  0
   30.4960   30.8250   36.1920 C   0  0  0  0  0  0  0  0  0  0  0  0
   30.1460   32.0210   37.0020 C   0  0  0  0  0  0  0  0  0  0  0  0
   29.2100   31.7120   38.1570 C   0  0  0  0  0  0  0  0  0  0  0  0
   29.4560   30.3710   38.8060 C   0  0  0  0  0  0  0  0  0  0  0  0
   30.8550   29.8750   38.4910 C   0  0  0  0  0  0  0  0  0  0  0  0
   30.4340   28.7450   36.7670 H   0  0  0  0  0  0  0  0  0  0  0  0
   31.1650   31.1440   35.3860 H   0  0  0  0  0  0  0  0  0  0  0  0
   29.5510   30.5050   35.6620 H   0  0  0  0  0  0  0  0  0  0  0  0
   29.5510   32.7060   36.3290 H   0  0  0  0  0  0  0  0  0  0  0  0
   30.9630   32.6300   37.3790 H   0  0  0  0  0  0  0  0  0  0  0  0
   28.1390   31.8270   37.8490 H   0  0  0  0  0  0  0  0  0  0  0  0
   29.3590   32.4690   38.9560 H   0  0  0  0  0  0  0  0  0  0  0  0
   28.7190   29.6340   38.3880 H   0  0  0  0  0  0  0  0  0  0  0  0
   29.3260   30.3630   39.8950 H   0  0  0  0  0  0  0  0  0  0  0  0
   31.5970   30.6330   38.7770 H   0  0  0  0  0  0  0  0  0  0  0  0
   31.0220   28.9090   38.9840 H   0  0  0  0  0  0  0  0  0  0  0  0
   35.6810   28.8100   38.3680 C   0  0  0  0  0  0  0  0  0  0  0  0
   36.1940   27.5670   38.5090 N   0  0  0  0  0  0  0  0  0  0  0  0
   37.1580   27.5870   39.4430 C   0  0  0  0  0  0  0  0  0  0  0  0
   37.2380   28.8730   39.8840 N   0  0  0  0  0  0  0  0  0  0  0  0
   36.3340   29.6260   39.2270 N   0  0  0  0  0  0  0  0  0  0  0  0
   37.7930   26.7950   39.8270 H   0  0  0  0  0  0  0  0  0  0  0  0
   38.0830   29.2090   42.2190 C   0  0  0  0  0  0  0  0  0  0  0  0
   38.0790   29.4760   40.8630 C   0  0  0  0  0  0  0  0  0  0  0  0
   38.9660   30.4200   40.3350 C   0  0  0  0  0  0  0  0  0  0  0  0
   39.0070   30.6720   39.2680 H   0  0  0  0  0  0  0  0  0  0  0  0
   39.8580   31.1050   41.1400 C   0  0  0  0  0  0  0  0  0  0  0  0
   40.5380   31.8330   40.7140 H   0  0  0  0  0  0  0  0  0  0  0  0
   39.8300   30.8070   42.4960 C   0  0  0  0  0  3  0  0  0  0  0  0
   38.9660   29.8800   43.0460 C   0  0  0  0  0  3  0  0  0  0  0  0
   36.3760   27.4560   43.0520 N   0  0  0  0  0  0  0  0  0  0  0  0
   37.1560   28.2410   42.6720 C   0  0  0  0  0  0  0  0  0  0  0  0
  1  9  1  0  0  0  0
  1  6  1  0  0  0  0
  2  1  2  0  0  0  0
  3  2  1  0  0  0  0
  3  4  2  0  0  0  0
  4  5  1  0  0  0  0
  5  6  2  0  0  0  0
  5 26  1  0  0  0  0
  7  2  1  0  0  0  0
  8  3  1  0  0  0  0
  9 14  1  0  0  0  0
 10  9  1  0  0  0  0
 10 11  1  0  0  0  0
 11 19  1  0  0  0  0
 11 12  1  0  0  0  0
 12 13  1  0  0  0  0
 12 21  1  0  0  0  0
 13 23  1  0  0  0  0
 14 24  1  0  0  0  0
 14 13  1  0  0  0  0
 14 25  1  0  0  0  0
 15  9  1  0  0  0  0
 16 10  1  0  0  0  0
 17 10  1  0  0  0  0
 18 11  1  0  0  0  0
 20 12  1  0  0  0  0
 22 13  1  0  0  0  0
 26 27  1  0  0  0  0
 26 30  2  0  0  0  0
 27 28  2  0  0  0  0
 28 31  1  0  0  0  0
 28 29  1  0  0  0  0
 29 33  1  0  0  0  0
 30 29  1  0  0  0  0
 32 41  1  0  0  0  0
 32 39  1  0  0  0  0
 33 32  2  0  0  0  0
 34 33  1  0  0  0  0
 34 36  2  0  0  0  0
 35 34  1  0  0  0  0
 36 38  1  0  0  0  0
 37 36  1  0  0  0  0
 38 39  2  0  0  0  0
 41 40  3  0  0  0  0
M  END
>  <minimizedAffinity>
-5.6574626

$$$$

 OpenBabel03242519263D

 41 44  0  0  0  0  0  0  0  0999 V2000
   33.8360   28.9090   36.6270 C   0  0  0  0  0  0  0  0  0  0  0  0
   34.7720   29.1070   35.5940 C   0  0  0  0  0  0  0  0  0  0  0  0
   36.1470   29.0080   35.8620 C   0  0  0  0  0  0  0  0  0  0  0  0
   36.4860   28.7150   37.1570 N   0  0  0  0  0  0  0  0  0  0  0  0
   35.5500   28.5290   38.1390 C   0  0  0  0  0  0  0  0  0  0  0  0
   34.2570   28.6270   37.8630 N   0  0  0  0  0  0  0  0  0  0  0  0
   34.5930   29.3380   34.5580 H   0  0  0  0  0  0  0  0  0  0  0  0
   36.9150   29.1450   35.1300 H   0  0  0  0  0  0  0  0  0  0  0  0
   32.4240   29.0430   36.2290 C   0  0  0  0  0  0  0  0  0  0  0  0
   32.2270   29.7580   34.9670 C   0  0  0  0  0  0  0  0  0  0  0  0
   31.5720   31.0840   35.1100 C   0  0  0  0  0  0  0  0  0  0  0  0
   30.2720   31.0320   35.8920 C   0  0  0  0  0  0  0  0  0  0  0  0
   30.2760   30.0360   37.0270 C   0  0  0  0  0  0  0  0  0  0  0  0
   31.6990   29.6870   37.4240 C   0  0  0  0  0  0  0  0  0  0  0  0
   31.9890   28.0010   36.1990 H   0  0  0  0  0  0  0  0  0  0  0  0
   33.1470   29.8930   34.3890 H   0  0  0  0  0  0  0  0  0  0  0  0
   31.5620   29.1380   34.2970 H   0  0  0  0  0  0  0  0  0  0  0  0
   31.2660   31.4080   34.0710 H   0  0  0  0  0  0  0  0  0  0  0  0
   32.1720   31.9020   35.4990 H   0  0  0  0  0  0  0  0  0  0  0  0
   29.3970   30.8720   35.2100 H   0  0  0  0  0  0  0  0  0  0  0  0
   30.0910   32.0230   36.3580 H   0  0  0  0  0  0  0  0  0  0  0  0
   29.7690   29.0970   36.6760 H   0  0  0  0  0  0  0  0  0  0  0  0
   29.7400   30.3680   37.9240 H   0  0  0  0  0  0  0  0  0  0  0  0
   32.2610   30.6020   37.6540 H   0  0  0  0  0  0  0  0  0  0  0  0
   31.6830   28.9760   38.2590 H   0  0  0  0  0  0  0  0  0  0  0  0
   36.0940   28.2320   39.4630 C   0  0  0  0  0  0  0  0  0  0  0  0
   35.4550   28.7650   40.5280 N   0  0  0  0  0  0  0  0  0  0  0  0
   36.0810   28.3910   41.6550 C   0  0  0  0  0  0  0  0  0  0  0  0
   37.1280   27.6090   41.2710 N   0  0  0  0  0  0  0  0  0  0  0  0
   37.1390   27.5090   39.9270 N   0  0  0  0  0  0  0  0  0  0  0  0
   35.8670   28.6150   42.6960 H   0  0  0  0  0  0  0  0  0  0  0  0
   39.1180   27.5370   42.7920 C   0  0  0  0  0  0  0  0  0  0  0  0
   38.1260   26.9400   42.0360 C   0  0  0  0  0  0  0  0  0  0  0  0
   38.0370   25.5450   41.9760 C   0  0  0  0  0  0  0  0  0  0  0  0
   37.2710   25.0190   41.3930 H   0  0  0  0  0  0  0  0  0  0  0  0
   38.9250   24.7330   42.6580 C   0  0  0  0  0  0  0  0  0  0  0  0
   38.8410   23.6550   42.6000 H   0  0  0  0  0  0  0  0  0  0  0  0
   39.9060   25.3720   43.4050 C   0  0  0  0  0  3  0  0  0  0  0  0
   40.0190   26.7460   43.4840 C   0  0  0  0  0  3  0  0  0  0  0  0
   39.1650   30.1210   42.8250 N   0  0  0  0  0  0  0  0  0  0  0  0
   39.1390   28.9510   42.8000 C   0  0  0  0  0  0  0  0  0  0  0  0
  1  6  1  0  0  0  0
  2  3  1  0  0  0  0
  2  1  2  0  0  0  0
  3  4  2  0  0  0  0
  4  5  1  0  0  0  0
  5 26  1  0  0  0  0
  6  5  2  0  0  0  0
  7  2  1  0  0  0  0
  8  3  1  0  0  0  0
  9  1  1  0  0  0  0
  9 14  1  0  0  0  0
 10 11  1  0  0  0  0
 10  9  1  0  0  0  0
 11 19  1  0  0  0  0
 11 12  1  0  0  0  0
 12 21  1  0  0  0  0
 12 13  1  0  0  0  0
 13 14  1  0  0  0  0
 13 23  1  0  0  0  0
 14 24  1  0  0  0  0
 14 25  1  0  0  0  0
 15  9  1  0  0  0  0
 16 10  1  0  0  0  0
 17 10  1  0  0  0  0
 18 11  1  0  0  0  0
 20 12  1  0  0  0  0
 22 13  1  0  0  0  0
 26 30  2  0  0  0  0
 26 27  1  0  0  0  0
 27 28  2  0  0  0  0
 28 31  1  0  0  0  0
 29 28  1  0  0  0  0
 29 33  1  0  0  0  0
 30 29  1  0  0  0  0
 32 41  1  0  0  0  0
 32 39  1  0  0  0  0
 33 32  2  0  0  0  0
 34 33  1  0  0  0  0
 34 36  2  0  0  0  0
 35 34  1  0  0  0  0
 36 38  1  0  0  0  0
 37 36  1  0  0  0  0
 38 39  2  0  0  0  0
 41 40  3  0  0  0  0
M  END
>  <minimizedAffinity>
-5.60060596

$$$$
