
 OpenBabel03252506323D

 33 35  0  0  1  0  0  0  0  0999 V2000
   44.5730   35.7650   44.7330 C   0  0  0  0  0  0  0  0  0  0  0  0
   44.5290   35.3730   43.3850 C   0  0  0  0  0  0  0  0  0  0  0  0
   44.8740   34.0680   43.0380 C   0  0  0  0  0  0  0  0  0  0  0  0
   45.2420   33.2320   44.0550 N   0  0  0  0  0  0  0  0  0  0  0  0
   45.2710   33.6480   45.3390 C   0  0  0  0  0  0  0  0  0  0  0  0
   44.9440   34.8990   45.7000 N   0  0  0  0  0  0  0  0  0  0  0  0
   45.6770   32.6780   46.3040 N   0  0  0  0  0  0  0  0  0  0  0  0
   45.4310   32.8140   47.7490 C   0  0  0  0  0  0  0  0  0  0  0  0
   46.6940   32.2270   48.3180 C   0  0  0  0  0  0  0  0  0  0  0  0
   47.4150   31.5360   47.1920 C   0  0  0  0  0  0  0  0  0  0  0  0
   46.3630   31.4370   46.1400 C   0  0  2  0  0  0  0  0  0  0  0  0
   44.3040   36.7810   44.9930 H   0  0  0  0  0  0  0  0  0  0  0  0
   44.8290   33.8040   42.0020 H   0  0  0  0  0  0  0  0  0  0  0  0
   44.5240   32.1970   47.9470 H   0  0  0  0  0  0  0  0  0  0  0  0
   45.2700   33.8710   48.0260 H   0  0  0  0  0  0  0  0  0  0  0  0
   47.2660   33.0690   48.7550 H   0  0  0  0  0  0  0  0  0  0  0  0
   46.3920   31.4800   49.0780 H   0  0  0  0  0  0  0  0  0  0  0  0
   48.2320   32.2460   46.8740 H   0  0  0  0  0  0  0  0  0  0  0  0
   47.8360   30.5530   47.4870 H   0  0  0  0  0  0  0  0  0  0  0  0
   45.6450   30.6390   46.5170 H   0  0  0  0  0  0  0  0  0  0  0  0
   46.2300   30.0980   44.0420 C   0  0  0  0  0  0  0  0  0  0  0  0
   46.8540   31.0830   44.8210 C   0  0  0  0  0  0  0  0  0  0  0  0
   47.9570   31.6010   44.1800 C   0  0  0  0  0  0  0  0  0  0  0  0
   48.5330   32.3720   44.7040 H   0  0  0  0  0  0  0  0  0  0  0  0
   48.4320   31.2460   42.9490 C   0  0  0  0  0  0  0  0  0  0  0  0
   49.3200   31.7190   42.5240 H   0  0  0  0  0  0  0  0  0  0  0  0
   47.7710   30.2820   42.2560 C   0  0  0  0  0  0  0  0  0  0  0  0
   46.6520   29.6860   42.7920 C   0  0  0  0  0  0  0  0  0  0  0  0
   44.0910   28.9240   45.0300 N   0  0  0  0  0  0  0  0  0  0  0  0
   45.0450   29.4530   44.5880 C   0  0  0  0  0  0  0  0  0  0  0  0
   44.1180   36.3820   42.4380 N   0  0  0  0  0  0  0  0  0  0  0  0
   44.5720   37.3320   42.4150 H   0  0  0  0  0  0  0  0  0  0  0  0
   43.3460   35.9700   41.8540 H   0  0  0  0  0  0  0  0  0  0  0  0
  1 12  1  0  0  0  0
  1  6  1  0  0  0  0
  2  1  2  0  0  0  0
  3  2  1  0  0  0  0
  3  4  2  0  0  0  0
  4  5  1  0  0  0  0
  5  6  2  0  0  0  0
  5  7  1  0  0  0  0
  7  8  1  0  0  0  0
  8 14  1  0  0  0  0
  8 15  1  0  0  0  0
  8  9  1  0  0  0  0
  9 16  1  0  0  0  0
  9 17  1  0  0  0  0
 10 19  1  0  0  0  0
 10  9  1  0  0  0  0
 11  7  1  0  0  0  0
 11 20  1  1  0  0  0
 11 10  1  0  0  0  0
 13  3  1  0  0  0  0
 18 10  1  0  0  0  0
 21 30  1  0  0  0  0
 21 22  1  0  0  0  0
 22 11  1  0  0  0  0
 23 24  1  0  0  0  0
 23 22  2  0  0  0  0
 25 23  1  0  0  0  0
 26 25  1  0  0  0  0
 27 28  1  0  0  0  0
 27 25  2  0  0  0  0
 28 21  2  0  0  0  0
 30 29  3  0  0  0  0
 31  2  1  0  0  0  0
 32 31  1  0  0  0  0
 33 31  1  0  0  0  0
M  END
>  <minimizedAffinity>
-4.46627522

>  <minimizedRMSD>
2.05361581

$$$$
