
 OpenBabel03242510573D

 37 39  0  0  0  0  0  0  0  0999 V2000
   45.6450   31.5550   47.1010 C   0  0  0  0  0  0  0  0  0  0  0  0
   45.4210   32.0140   48.4100 C   0  0  0  0  0  0  0  0  0  0  0  0
   45.1780   31.1700   49.4730 C   0  0  0  0  0  0  0  0  0  0  0  0
   45.1590   29.8220   49.2320 C   0  0  0  0  0  0  0  0  0  0  0  0
   45.3820   29.3580   47.9320 C   0  0  0  0  0  0  0  0  0  0  0  0
   45.6070   30.2370   46.9640 N   0  0  0  0  0  0  0  0  0  0  0  0
   45.4360   33.0770   48.5970 H   0  0  0  0  0  0  0  0  0  0  0  0
   45.0110   31.5660   50.4650 H   0  0  0  0  0  0  0  0  0  0  0  0
   44.9690   29.1760   50.0720 H   0  0  0  0  0  0  0  0  0  0  0  0
   44.7720   36.5570   43.8510 C   0  0  0  0  0  0  0  0  0  0  0  0
   45.6540   36.2730   42.8110 C   0  0  0  0  0  0  0  0  0  0  0  0
   46.3140   35.0440   42.8350 C   0  0  0  0  0  0  0  0  0  0  0  0
   46.0690   34.1840   43.8670 N   0  0  0  0  0  0  0  0  0  0  0  0
   45.1900   34.5200   44.8620 C   0  0  0  0  0  0  0  0  0  0  0  0
   44.5360   35.7140   44.8560 N   0  0  0  0  0  0  0  0  0  0  0  0
   45.8930   32.5060   46.0320 C   0  0  0  0  0  0  0  0  0  0  0  0
   46.8880   32.3350   45.2890 O   0  0  0  0  0  0  0  0  0  0  0  0
   44.9750   33.5830   45.8990 N   0  0  0  0  0  0  0  0  0  0  0  0
   44.2220   37.5080   43.8890 H   0  0  0  0  0  0  0  0  0  0  0  0
   45.7750   37.0130   42.0530 H   0  0  0  0  0  0  0  0  0  0  0  0
   47.0020   34.8120   42.0330 H   0  0  0  0  0  0  0  0  0  0  0  0
   44.1420   33.7200   46.5270 H   0  0  0  0  0  0  0  0  0  0  0  0
   45.3620   27.9280   47.6790 C   0  0  0  0  0  0  0  0  0  0  0  0
   44.6140   27.1370   48.4200 C   0  0  0  0  0  0  0  0  0  0  0  0
   44.5080   25.6510   48.2690 C   0  0  0  0  0  0  0  0  0  0  0  0
   44.3370   25.2530   49.2970 H   0  0  0  0  0  0  0  0  0  0  0  0
   45.4830   25.2610   47.9040 H   0  0  0  0  0  0  0  0  0  0  0  0
   43.6830   24.2870   46.4580 C   0  0  0  0  0  0  0  0  0  0  0  0
   43.4210   25.3220   47.3480 C   0  0  0  0  0  0  0  0  0  0  0  0
   42.1880   25.9520   47.3050 C   0  0  0  0  0  0  0  0  0  0  0  0
   42.0130   26.7550   48.0110 H   0  0  0  0  0  0  0  0  0  0  0  0
   41.2420   25.5270   46.3650 C   0  0  0  0  0  0  0  0  0  0  0  0
   40.2790   26.0280   46.3390 H   0  0  0  0  0  0  0  0  0  0  0  0
   41.5180   24.4970   45.4860 C   0  0  0  0  0  0  0  0  0  0  0  0
   42.7410   23.8760   45.5340 C   0  0  0  0  0  0  0  0  0  0  0  0
   45.9650   23.0420   46.4320 N   0  0  0  0  0  0  0  0  0  0  0  0
   44.9460   23.5870   46.4490 C   0  0  0  0  0  0  0  0  0  0  0  0
  1  2  1  0  0  0  0
  2  7  1  0  0  0  0
  2  3  2  0  0  0  0
  3  8  1  0  0  0  0
  4  3  1  0  0  0  0
  4  9  1  0  0  0  0
  5  4  2  0  0  0  0
  6  1  2  0  0  0  0
  6  5  1  0  0  0  0
 10 19  1  0  0  0  0
 10 15  1  0  0  0  0
 11 12  1  0  0  0  0
 11 10  2  0  0  0  0
 12 13  2  0  0  0  0
 13 14  1  0  0  0  0
 14 18  1  0  0  0  0
 15 14  2  0  0  0  0
 16  1  1  0  0  0  0
 17 16  2  0  0  0  0
 18 16  1  0  0  0  0
 18 22  1  0  0  0  0
 20 11  1  0  0  0  0
 21 12  1  0  0  0  0
 23  5  1  0  0  0  0
 23 24  2  0  0  0  0
 25 24  1  0  0  0  0
 25 26  1  0  0  0  0
 27 25  1  0  0  0  0
 28 29  1  0  0  0  0
 29 25  1  0  0  0  0
 30 29  2  0  0  0  0
 30 31  1  0  0  0  0
 32 30  1  0  0  0  0
 33 32  1  0  0  0  0
 34 35  1  0  0  0  0
 34 32  2  0  0  0  0
 35 28  2  0  0  0  0
 36 37  3  0  0  0  0
 37 28  1  0  0  0  0
M  END
>  <minimizedAffinity>
-5.91461706

>  <minimizedRMSD>
1.06444681

$$$$
