
 OpenBabel03242515513D

 21 22  0  0  0  0  0  0  0  0999 V2000
   38.9660   30.3640   37.9500 C   0  0  0  0  0  0  0  0  0  0  0  0
   38.2890   31.5710   37.7030 C   0  0  0  0  0  0  0  0  0  0  0  0
   37.3720   32.0220   38.6390 C   0  0  0  0  0  0  0  0  0  0  0  0
   37.1840   31.2570   39.7470 N   0  0  0  0  0  0  0  0  0  0  0  0
   37.8420   30.1080   39.9600 C   0  0  0  0  0  0  0  0  0  0  0  0
   38.7430   29.6520   39.0560 N   0  0  0  0  0  0  0  0  0  0  0  0
   39.6930   29.9620   37.2560 H   0  0  0  0  0  0  0  0  0  0  0  0
   36.8650   32.9420   38.4350 H   0  0  0  0  0  0  0  0  0  0  0  0
   38.3620   29.5500   42.3020 C   0  0  0  0  0  0  0  0  0  0  0  0
   37.5880   29.3350   41.1810 C   0  0  0  0  0  0  0  0  0  0  0  0
   36.5700   28.4040   41.1710 C   0  0  0  0  0  0  0  0  0  0  0  0
   35.9640   28.2440   40.2790 H   0  0  0  0  0  0  0  0  0  0  0  0
   36.2810   27.6430   42.2950 C   0  0  0  0  0  0  0  0  0  0  0  0
   35.5120   26.9090   42.3610 H   0  0  0  0  0  0  0  0  0  0  0  0
   37.0910   27.9070   43.3810 C   0  0  0  0  0  3  0  0  0  0  0  0
   38.1240   28.8170   43.4690 C   0  0  0  0  0  3  0  0  0  0  0  0
   40.2950   31.2750   42.3690 N   0  0  0  0  0  0  0  0  0  0  0  0
   39.4260   30.5110   42.3360 C   0  0  0  0  0  0  0  0  0  0  0  0
   38.6080   32.2480   36.4850 N   0  0  0  0  0  0  0  0  0  0  0  0
   39.4090   32.7730   36.1420 H   0  0  0  0  0  0  0  0  0  0  0  0
   37.8690   32.2060   35.7720 H   0  0  0  0  0  0  0  0  0  0  0  0
  1  6  1  0  0  0  0
  2  1  2  0  0  0  0
  2  3  1  0  0  0  0
  3  4  2  0  0  0  0
  4  5  1  0  0  0  0
  5 10  1  0  0  0  0
  6  5  2  0  0  0  0
  7  1  1  0  0  0  0
  8  3  1  0  0  0  0
  9 18  1  0  0  0  0
  9 16  1  0  0  0  0
 10  9  2  0  0  0  0
 11 10  1  0  0  0  0
 11 13  2  0  0  0  0
 12 11  1  0  0  0  0
 13 14  1  0  0  0  0
 13 15  1  0  0  0  0
 15 16  2  0  0  0  0
 18 17  3  0  0  0  0
 19  2  1  0  0  0  0
 20 19  1  0  0  0  0
 21 19  1  0  0  0  0
M  END
>  <minimizedAffinity>
-4.68412781

$$$$

 OpenBabel03242515513D

 21 22  0  0  0  0  0  0  0  0999 V2000
   39.0000   30.0730   37.9390 C   0  0  0  0  0  0  0  0  0  0  0  0
   38.8880   31.4720   38.0080 C   0  0  0  0  0  0  0  0  0  0  0  0
   38.5160   32.0500   39.2110 C   0  0  0  0  0  0  0  0  0  0  0  0
   38.2790   31.2150   40.2580 N   0  0  0  0  0  0  0  0  0  0  0  0
   38.3920   29.8820   40.1660 C   0  0  0  0  0  0  0  0  0  0  0  0
   38.7560   29.2990   38.9980 N   0  0  0  0  0  0  0  0  0  0  0  0
   39.2860   29.5640   37.0260 H   0  0  0  0  0  0  0  0  0  0  0  0
   38.4350   33.1160   39.2470 H   0  0  0  0  0  0  0  0  0  0  0  0
   36.8380   28.5960   41.5800 C   0  0  0  0  0  0  0  0  0  0  0  0
   38.1210   29.0420   41.3390 C   0  0  0  0  0  0  0  0  0  0  0  0
   39.1690   28.7190   42.1750 C   0  0  0  0  0  0  0  0  0  0  0  0
   40.1790   29.0770   41.9720 H   0  0  0  0  0  0  0  0  0  0  0  0
   38.9760   27.9280   43.2980 C   0  0  0  0  0  0  0  0  0  0  0  0
   39.7360   27.6380   43.9850 H   0  0  0  0  0  0  0  0  0  0  0  0
   37.6710   27.5150   43.4820 C   0  0  0  0  0  3  0  0  0  0  0  0
   36.5730   27.7950   42.6950 C   0  0  0  0  0  3  0  0  0  0  0  0
   34.8380   29.1960   40.0440 N   0  0  0  0  0  0  0  0  0  0  0  0
   35.7320   28.9200   40.7260 C   0  0  0  0  0  0  0  0  0  0  0  0
   39.1730   32.1980   36.8100 N   0  0  0  0  0  0  0  0  0  0  0  0
   40.0160   32.4180   36.2850 H   0  0  0  0  0  0  0  0  0  0  0  0
   38.3450   32.6030   36.3530 H   0  0  0  0  0  0  0  0  0  0  0  0
  1  2  2  0  0  0  0
  1  6  1  0  0  0  0
  2  3  1  0  0  0  0
  3  8  1  0  0  0  0
  3  4  2  0  0  0  0
  5  4  1  0  0  0  0
  5 10  1  0  0  0  0
  6  5  2  0  0  0  0
  7  1  1  0  0  0  0
  9 16  1  0  0  0  0
 10  9  2  0  0  0  0
 10 11  1  0  0  0  0
 11 13  2  0  0  0  0
 12 11  1  0  0  0  0
 13 15  1  0  0  0  0
 13 14  1  0  0  0  0
 16 15  2  0  0  0  0
 17 18  3  0  0  0  0
 18  9  1  0  0  0  0
 19  2  1  0  0  0  0
 20 19  1  0  0  0  0
 21 19  1  0  0  0  0
M  END
>  <minimizedAffinity>
-4.66243458

$$$$

 OpenBabel03242515513D

 21 22  0  0  0  0  0  0  0  0999 V2000
   37.8650   30.4420   39.7640 C   0  0  0  0  0  0  0  0  0  0  0  0
   36.8620   31.2050   40.3870 C   0  0  0  0  0  0  0  0  0  0  0  0
   35.8330   30.5440   41.0380 C   0  0  0  0  0  0  0  0  0  0  0  0
   35.8600   29.1850   41.0300 N   0  0  0  0  0  0  0  0  0  0  0  0
   36.8290   28.4790   40.4290 C   0  0  0  0  0  0  0  0  0  0  0  0
   37.8440   29.1080   39.7880 N   0  0  0  0  0  0  0  0  0  0  0  0
   38.6940   30.9020   39.2400 H   0  0  0  0  0  0  0  0  0  0  0  0
   35.0770   31.1400   41.5060 H   0  0  0  0  0  0  0  0  0  0  0  0
   37.2300   26.3420   41.5850 C   0  0  0  0  0  0  0  0  0  0  0  0
   36.7940   27.0130   40.4620 C   0  0  0  0  0  0  0  0  0  0  0  0
   36.3190   26.3400   39.3550 C   0  0  0  0  0  0  0  0  0  0  0  0
   35.9760   26.8810   38.4740 H   0  0  0  0  0  0  0  0  0  0  0  0
   36.2600   24.9540   39.3280 C   0  0  0  0  0  0  0  0  0  0  0  0
   35.9060   24.3690   38.5110 H   0  0  0  0  0  0  0  0  0  0  0  0
   36.7110   24.3440   40.4820 C   0  0  0  0  0  3  0  0  0  0  0  0
   37.1990   24.9440   41.6240 C   0  0  0  0  0  3  0  0  0  0  0  0
   38.1470   27.5680   43.6780 N   0  0  0  0  0  0  0  0  0  0  0  0
   37.7290   27.0200   42.7470 C   0  0  0  0  0  0  0  0  0  0  0  0
   36.9880   32.6260   40.2970 N   0  0  0  0  0  0  0  0  0  0  0  0
   37.6010   33.3220   40.7140 H   0  0  0  0  0  0  0  0  0  0  0  0
   36.3100   33.0720   39.6650 H   0  0  0  0  0  0  0  0  0  0  0  0
  1  6  2  0  0  0  0
  1  2  1  0  0  0  0
  2  3  2  0  0  0  0
  3  8  1  0  0  0  0
  4  3  1  0  0  0  0
  5 10  1  0  0  0  0
  5  4  2  0  0  0  0
  6  5  1  0  0  0  0
  7  1  1  0  0  0  0
  9 16  1  0  0  0  0
  9 18  1  0  0  0  0
 10  9  2  0  0  0  0
 11 10  1  0  0  0  0
 12 11  1  0  0  0  0
 13 11  2  0  0  0  0
 13 15  1  0  0  0  0
 14 13  1  0  0  0  0
 15 16  2  0  0  0  0
 18 17  3  0  0  0  0
 19  2  1  0  0  0  0
 19 20  1  0  0  0  0
 21 19  1  0  0  0  0
M  END
>  <minimizedAffinity>
-4.57383394

$$$$

 OpenBabel03242515513D

 21 22  0  0  0  0  0  0  0  0999 V2000
   37.8790   31.4740   38.3890 C   0  0  0  0  0  0  0  0  0  0  0  0
   39.1950   31.3980   37.9010 C   0  0  0  0  0  0  0  0  0  0  0  0
   40.0830   30.5310   38.5170 C   0  0  0  0  0  0  0  0  0  0  0  0
   39.6170   29.8020   39.5660 N   0  0  0  0  0  0  0  0  0  0  0  0
   38.3570   29.8920   40.0130 C   0  0  0  0  0  0  0  0  0  0  0  0
   37.4740   30.7350   39.4230 N   0  0  0  0  0  0  0  0  0  0  0  0
   37.1410   32.1330   37.9490 H   0  0  0  0  0  0  0  0  0  0  0  0
   41.0810   30.4860   38.1330 H   0  0  0  0  0  0  0  0  0  0  0  0
   37.2720   27.8780   40.9270 C   0  0  0  0  0  0  0  0  0  0  0  0
   37.9230   29.0730   41.1510 C   0  0  0  0  0  0  0  0  0  0  0  0
   38.1840   29.5280   42.4270 C   0  0  0  0  0  0  0  0  0  0  0  0
   38.7000   30.4740   42.5910 H   0  0  0  0  0  0  0  0  0  0  0  0
   37.8000   28.7980   43.5430 C   0  0  0  0  0  0  0  0  0  0  0  0
   37.9680   29.0860   44.5540 H   0  0  0  0  0  0  0  0  0  0  0  0
   37.1540   27.6130   43.2490 C   0  0  0  0  0  3  0  0  0  0  0  0
   36.8570   27.0930   42.0070 C   0  0  0  0  0  3  0  0  0  0  0  0
   36.7740   26.9980   38.5400 N   0  0  0  0  0  0  0  0  0  0  0  0
   36.9900   27.3850   39.6100 C   0  0  0  0  0  0  0  0  0  0  0  0
   39.5160   32.2370   36.7890 N   0  0  0  0  0  0  0  0  0  0  0  0
   39.2830   32.2400   35.7990 H   0  0  0  0  0  0  0  0  0  0  0  0
   40.1240   33.0330   37.0210 H   0  0  0  0  0  0  0  0  0  0  0  0
  1  6  1  0  0  0  0
  2  1  2  0  0  0  0
  2  3  1  0  0  0  0
  3  4  2  0  0  0  0
  4  5  1  0  0  0  0
  5 10  1  0  0  0  0
  6  5  2  0  0  0  0
  7  1  1  0  0  0  0
  8  3  1  0  0  0  0
  9 10  2  0  0  0  0
  9 16  1  0  0  0  0
 10 11  1  0  0  0  0
 11 12  1  0  0  0  0
 11 13  2  0  0  0  0
 13 14  1  0  0  0  0
 15 13  1  0  0  0  0
 16 15  2  0  0  0  0
 17 18  3  0  0  0  0
 18  9  1  0  0  0  0
 19 21  1  0  0  0  0
 19  2  1  0  0  0  0
 20 19  1  0  0  0  0
M  END
>  <minimizedAffinity>
-4.43656635

$$$$

 OpenBabel03242515513D

 21 22  0  0  0  0  0  0  0  0999 V2000
   38.0570   30.4700   40.0900 C   0  0  0  0  0  0  0  0  0  0  0  0
   36.9530   31.2570   40.4620 C   0  0  0  0  0  0  0  0  0  0  0  0
   35.8150   30.6240   40.9320 C   0  0  0  0  0  0  0  0  0  0  0  0
   35.8400   29.2670   41.0040 N   0  0  0  0  0  0  0  0  0  0  0  0
   36.9050   28.5380   40.6430 C   0  0  0  0  0  0  0  0  0  0  0  0
   38.0280   29.1400   40.1810 N   0  0  0  0  0  0  0  0  0  0  0  0
   38.9740   30.9090   39.7150 H   0  0  0  0  0  0  0  0  0  0  0  0
   34.9830   31.2380   41.2100 H   0  0  0  0  0  0  0  0  0  0  0  0
   36.5120   26.3190   39.6470 C   0  0  0  0  0  0  0  0  0  0  0  0
   36.8610   27.0750   40.7470 C   0  0  0  0  0  0  0  0  0  0  0  0
   37.1740   26.4910   41.9570 C   0  0  0  0  0  0  0  0  0  0  0  0
   37.4490   27.0980   42.8190 H   0  0  0  0  0  0  0  0  0  0  0  0
   37.1510   25.1130   42.1170 C   0  0  0  0  0  0  0  0  0  0  0  0
   37.3800   24.5930   43.0190 H   0  0  0  0  0  0  0  0  0  0  0  0
   36.7940   24.4160   40.9790 C   0  0  0  0  0  3  0  0  0  0  0  0
   36.4690   24.9250   39.7390 C   0  0  0  0  0  3  0  0  0  0  0  0
   35.9250   27.3640   37.3480 N   0  0  0  0  0  0  0  0  0  0  0  0
   36.1820   26.9040   38.3790 C   0  0  0  0  0  0  0  0  0  0  0  0
   37.0990   32.6730   40.3210 N   0  0  0  0  0  0  0  0  0  0  0  0
   37.6190   33.3950   40.8130 H   0  0  0  0  0  0  0  0  0  0  0  0
   36.5600   33.0790   39.5450 H   0  0  0  0  0  0  0  0  0  0  0  0
  1  6  2  0  0  0  0
  1  2  1  0  0  0  0
  2  3  2  0  0  0  0
  3  4  1  0  0  0  0
  3  8  1  0  0  0  0
  5 10  1  0  0  0  0
  5  4  2  0  0  0  0
  6  5  1  0  0  0  0
  7  1  1  0  0  0  0
  9 16  2  0  0  0  0
  9 10  1  0  0  0  0
 10 11  2  0  0  0  0
 11 13  1  0  0  0  0
 11 12  1  0  0  0  0
 13 14  1  0  0  0  0
 15 13  2  0  0  0  0
 16 15  1  0  0  0  0
 17 18  3  0  0  0  0
 18  9  1  0  0  0  0
 19  2  1  0  0  0  0
 19 20  1  0  0  0  0
 21 19  1  0  0  0  0
M  END
>  <minimizedAffinity>
-4.42942333

$$$$

 OpenBabel03242515513D

 21 22  0  0  0  0  0  0  0  0999 V2000
   39.3130   30.1200   37.9560 C   0  0  0  0  0  0  0  0  0  0  0  0
   39.2090   31.5200   38.0160 C   0  0  0  0  0  0  0  0  0  0  0  0
   38.7460   32.1020   39.1840 C   0  0  0  0  0  0  0  0  0  0  0  0
   38.4180   31.2710   40.2080 N   0  0  0  0  0  0  0  0  0  0  0  0
   38.5260   29.9370   40.1270 C   0  0  0  0  0  0  0  0  0  0  0  0
   38.9780   29.3500   38.9920 N   0  0  0  0  0  0  0  0  0  0  0  0
   39.6690   29.6080   37.0700 H   0  0  0  0  0  0  0  0  0  0  0  0
   38.6720   33.1700   39.2120 H   0  0  0  0  0  0  0  0  0  0  0  0
   39.0780   28.8480   42.2660 C   0  0  0  0  0  0  0  0  0  0  0  0
   38.1530   29.1010   41.2740 C   0  0  0  0  0  0  0  0  0  0  0  0
   36.8740   28.5880   41.3280 C   0  0  0  0  0  0  0  0  0  0  0  0
   36.1520   28.7970   40.5380 H   0  0  0  0  0  0  0  0  0  0  0  0
   36.4630   27.7930   42.3880 C   0  0  0  0  0  0  0  0  0  0  0  0
   35.4940   27.3640   42.4960 H   0  0  0  0  0  0  0  0  0  0  0  0
   37.4340   27.5780   43.3450 C   0  0  0  0  0  3  0  0  0  0  0  0
   38.7290   28.0530   43.3630 C   0  0  0  0  0  3  0  0  0  0  0  0
   41.4920   29.7900   42.2210 N   0  0  0  0  0  0  0  0  0  0  0  0
   40.4140   29.3700   42.2320 C   0  0  0  0  0  0  0  0  0  0  0  0
   39.5970   32.2420   36.8440 N   0  0  0  0  0  0  0  0  0  0  0  0
   40.4810   32.4530   36.3890 H   0  0  0  0  0  0  0  0  0  0  0  0
   38.8130   32.6540   36.3210 H   0  0  0  0  0  0  0  0  0  0  0  0
  1  2  2  0  0  0  0
  1  6  1  0  0  0  0
  2  3  1  0  0  0  0
  3  8  1  0  0  0  0
  3  4  2  0  0  0  0
  5  4  1  0  0  0  0
  5 10  1  0  0  0  0
  6  5  2  0  0  0  0
  7  1  1  0  0  0  0
  9 16  1  0  0  0  0
 10 11  1  0  0  0  0
 10  9  2  0  0  0  0
 11 13  2  0  0  0  0
 12 11  1  0  0  0  0
 13 14  1  0  0  0  0
 13 15  1  0  0  0  0
 15 16  2  0  0  0  0
 17 18  3  0  0  0  0
 18  9  1  0  0  0  0
 19  2  1  0  0  0  0
 20 19  1  0  0  0  0
 21 19  1  0  0  0  0
M  END
>  <minimizedAffinity>
-4.28993797

$$$$

 OpenBabel03242515513D

 21 22  0  0  0  0  0  0  0  0999 V2000
   37.3500   24.4740   42.1070 C   0  0  0  0  0  0  0  0  0  0  0  0
   37.8980   23.8670   40.9640 C   0  0  0  0  0  0  0  0  0  0  0  0
   38.1170   24.6440   39.8390 C   0  0  0  0  0  0  0  0  0  0  0  0
   37.7820   25.9600   39.9150 N   0  0  0  0  0  0  0  0  0  0  0  0
   37.2610   26.5170   41.0180 C   0  0  0  0  0  0  0  0  0  0  0  0
   37.0400   25.7710   42.1280 N   0  0  0  0  0  0  0  0  0  0  0  0
   37.1570   23.9170   43.0160 H   0  0  0  0  0  0  0  0  0  0  0  0
   38.5340   24.1660   38.9770 H   0  0  0  0  0  0  0  0  0  0  0  0
   37.7320   28.8350   41.7040 C   0  0  0  0  0  0  0  0  0  0  0  0
   36.9240   27.9440   41.0280 C   0  0  0  0  0  0  0  0  0  0  0  0
   35.7950   28.3600   40.3520 C   0  0  0  0  0  0  0  0  0  0  0  0
   35.1650   27.6470   39.8200 H   0  0  0  0  0  0  0  0  0  0  0  0
   35.4260   29.6970   40.3240 C   0  0  0  0  0  0  0  0  0  0  0  0
   34.5710   30.0900   39.8240 H   0  0  0  0  0  0  0  0  0  0  0  0
   36.2760   30.5350   41.0190 C   0  0  0  0  0  3  0  0  0  0  0  0
   37.4170   30.1970   41.7170 C   0  0  0  0  0  3  0  0  0  0  0  0
   39.8660   28.1120   42.9860 N   0  0  0  0  0  0  0  0  0  0  0  0
   38.9100   28.4260   42.4140 C   0  0  0  0  0  0  0  0  0  0  0  0
   38.1900   22.4700   41.0580 N   0  0  0  0  0  0  0  0  0  0  0  0
   38.8940   21.9130   41.5370 H   0  0  0  0  0  0  0  0  0  0  0  0
   37.5510   21.8670   40.5240 H   0  0  0  0  0  0  0  0  0  0  0  0
  1  6  1  0  0  0  0
  1  7  1  0  0  0  0
  2 19  1  0  0  0  0
  2  1  2  0  0  0  0
  3  4  2  0  0  0  0
  3  2  1  0  0  0  0
  4  5  1  0  0  0  0
  5 10  1  0  0  0  0
  5  6  2  0  0  0  0
  8  3  1  0  0  0  0
  9 16  1  0  0  0  0
  9 18  1  0  0  0  0
 10  9  2  0  0  0  0
 11 10  1  0  0  0  0
 12 11  1  0  0  0  0
 13 11  2  0  0  0  0
 13 15  1  0  0  0  0
 14 13  1  0  0  0  0
 15 16  2  0  0  0  0
 18 17  3  0  0  0  0
 19 20  1  0  0  0  0
 21 19  1  0  0  0  0
M  END
>  <minimizedAffinity>
-4.28516817

$$$$

 OpenBabel03242515513D

 21 22  0  0  0  0  0  0  0  0999 V2000
   36.5800   28.1080   41.4680 C   0  0  0  0  0  0  0  0  0  0  0  0
   36.8380   29.3500   42.0750 C   0  0  0  0  0  0  0  0  0  0  0  0
   36.5010   30.5060   41.3920 C   0  0  0  0  0  0  0  0  0  0  0  0
   35.9370   30.3640   40.1630 N   0  0  0  0  0  0  0  0  0  0  0  0
   35.7010   29.1680   39.6050 C   0  0  0  0  0  0  0  0  0  0  0  0
   36.0230   28.0250   40.2590 N   0  0  0  0  0  0  0  0  0  0  0  0
   36.8210   27.1700   41.9540 H   0  0  0  0  0  0  0  0  0  0  0  0
   36.7060   31.4430   41.8680 H   0  0  0  0  0  0  0  0  0  0  0  0
   35.8790   29.1880   37.1480 C   0  0  0  0  0  0  0  0  0  0  0  0
   35.0880   29.0900   38.2740 C   0  0  0  0  0  0  0  0  0  0  0  0
   33.7220   28.9180   38.1860 C   0  0  0  0  0  0  0  0  0  0  0  0
   33.1080   28.8410   39.0830 H   0  0  0  0  0  0  0  0  0  0  0  0
   33.0850   28.8360   36.9560 C   0  0  0  0  0  0  0  0  0  0  0  0
   32.0380   28.7030   36.8130 H   0  0  0  0  0  0  0  0  0  0  0  0
   33.9330   28.9410   35.8710 C   0  0  0  0  0  3  0  0  0  0  0  0
   35.3010   29.1140   35.8770 C   0  0  0  0  0  3  0  0  0  0  0  0
   38.4490   29.5150   37.2500 N   0  0  0  0  0  0  0  0  0  0  0  0
   37.3010   29.3680   37.2140 C   0  0  0  0  0  0  0  0  0  0  0  0
   37.4380   29.3160   43.3730 N   0  0  0  0  0  0  0  0  0  0  0  0
   37.1200   29.0670   44.3060 H   0  0  0  0  0  0  0  0  0  0  0  0
   38.4250   29.6060   43.3910 H   0  0  0  0  0  0  0  0  0  0  0  0
  1  7  1  0  0  0  0
  1  2  1  0  0  0  0
  2 19  1  0  0  0  0
  3  8  1  0  0  0  0
  3  2  2  0  0  0  0
  4  3  1  0  0  0  0
  5  4  2  0  0  0  0
  5  6  1  0  0  0  0
  6  1  2  0  0  0  0
  9 18  1  0  0  0  0
  9 10  1  0  0  0  0
 10  5  1  0  0  0  0
 11 10  2  0  0  0  0
 11 12  1  0  0  0  0
 13 11  1  0  0  0  0
 14 13  1  0  0  0  0
 15 16  1  0  0  0  0
 15 13  2  0  0  0  0
 16  9  2  0  0  0  0
 18 17  3  0  0  0  0
 19 21  1  0  0  0  0
 19 20  1  0  0  0  0
M  END
>  <minimizedAffinity>
-4.20803976

$$$$

 OpenBabel03242515513D

 21 22  0  0  0  0  0  0  0  0999 V2000
   36.1520   28.0730   36.8000 C   0  0  0  0  0  0  0  0  0  0  0  0
   37.3980   28.3960   36.2340 C   0  0  0  0  0  0  0  0  0  0  0  0
   38.5240   28.3530   37.0390 C   0  0  0  0  0  0  0  0  0  0  0  0
   38.3480   28.0000   38.3400 N   0  0  0  0  0  0  0  0  0  0  0  0
   37.1490   27.6960   38.8570 C   0  0  0  0  0  0  0  0  0  0  0  0
   36.0360   27.7320   38.0840 N   0  0  0  0  0  0  0  0  0  0  0  0
   35.2370   28.0890   36.2200 H   0  0  0  0  0  0  0  0  0  0  0  0
   39.4640   28.6020   36.5930 H   0  0  0  0  0  0  0  0  0  0  0  0
   36.6460   28.2650   41.2000 C   0  0  0  0  0  0  0  0  0  0  0  0
   37.0350   27.3230   40.2710 C   0  0  0  0  0  0  0  0  0  0  0  0
   37.3220   26.0230   40.6350 C   0  0  0  0  0  0  0  0  0  0  0  0
   37.6270   25.2870   39.8910 H   0  0  0  0  0  0  0  0  0  0  0  0
   37.2310   25.6100   41.9560 C   0  0  0  0  0  0  0  0  0  0  0  0
   37.4360   24.6260   42.3090 H   0  0  0  0  0  0  0  0  0  0  0  0
   36.8370   26.6010   42.8340 C   0  0  0  0  0  3  0  0  0  0  0  0
   36.5340   27.9160   42.5500 C   0  0  0  0  0  3  0  0  0  0  0  0
   36.0830   30.7120   40.5540 N   0  0  0  0  0  0  0  0  0  0  0  0
   36.3430   29.6220   40.8460 C   0  0  0  0  0  0  0  0  0  0  0  0
   37.4010   28.7470   34.8480 N   0  0  0  0  0  0  0  0  0  0  0  0
   37.2780   28.2370   33.9760 H   0  0  0  0  0  0  0  0  0  0  0  0
   37.5620   29.7460   34.6650 H   0  0  0  0  0  0  0  0  0  0  0  0
  1  6  1  0  0  0  0
  2  1  2  0  0  0  0
  2  3  1  0  0  0  0
  3  4  2  0  0  0  0
  4  5  1  0  0  0  0
  5 10  1  0  0  0  0
  6  5  2  0  0  0  0
  7  1  1  0  0  0  0
  8  3  1  0  0  0  0
  9 16  1  0  0  0  0
 10 11  1  0  0  0  0
 10  9  2  0  0  0  0
 11 13  2  0  0  0  0
 12 11  1  0  0  0  0
 13 14  1  0  0  0  0
 13 15  1  0  0  0  0
 16 15  2  0  0  0  0
 17 18  3  0  0  0  0
 18  9  1  0  0  0  0
 19  2  1  0  0  0  0
 20 19  1  0  0  0  0
 21 19  1  0  0  0  0
M  END
>  <minimizedAffinity>
-4.15811968

$$$$
