
 OpenBabel03252507383D

 39 43  0  0  0  0  0  0  0  0999 V2000
   48.4430   24.4790   44.4190 C   0  0  0  0  0  0  0  0  0  0  0  0
   48.0650   25.7140   45.0020 C   0  0  0  0  0  0  0  0  0  0  0  0
   46.8460   25.7690   45.6390 C   0  0  0  0  0  0  0  0  0  0  0  0
   46.0790   24.6560   45.6760 N   0  0  0  0  0  0  0  0  0  0  0  0
   46.4570   23.4840   45.1140 C   0  0  0  0  0  0  0  0  0  0  0  0
   47.6260   23.4030   44.4940 N   0  0  0  0  0  0  0  0  0  0  0  0
   48.6680   26.5940   44.9730 H   0  0  0  0  0  0  0  0  0  0  0  0
   45.7650   22.6580   45.2030 H   0  0  0  0  0  0  0  0  0  0  0  0
   44.9540   27.2160   46.1540 C   0  0  0  0  0  0  0  0  0  0  0  0
   46.3090   26.9570   46.2920 C   0  0  0  0  0  0  0  0  0  0  0  0
   47.0580   27.8230   47.0400 C   0  0  0  0  0  0  0  0  0  0  0  0
   46.5170   28.9340   47.6560 C   0  0  0  0  0  0  0  0  0  0  0  0
   47.0630   29.9060   48.4340 N   0  0  0  0  0  0  0  0  0  0  0  0
   46.0390   30.7600   48.7720 C   0  0  0  0  0  0  0  0  0  0  0  0
   44.9120   30.3110   48.2110 N   0  0  0  0  0  0  0  0  0  0  0  0
   45.1870   29.1950   47.5250 C   0  0  0  0  0  0  0  0  0  0  0  0
   44.4010   28.3360   46.7730 C   0  0  0  0  0  0  0  0  0  0  0  0
   44.3160   26.5690   45.5760 H   0  0  0  0  0  0  0  0  0  0  0  0
   48.1310   27.6170   47.1490 H   0  0  0  0  0  0  0  0  0  0  0  0
   48.0670   29.9470   48.6910 H   0  0  0  0  0  0  0  0  0  0  0  0
   46.1670   31.6480   49.3980 H   0  0  0  0  0  0  0  0  0  0  0  0
   43.3410   28.5560   46.6760 H   0  0  0  0  0  0  0  0  0  0  0  0
   49.6850   24.4340   43.7730 O   0  0  0  0  0  0  0  0  0  0  0  0
   50.0030   25.4180   42.8350 C   0  0  0  0  0  0  0  0  0  0  0  0
   49.8180   24.7130   41.7030 C   0  0  0  0  0  0  0  0  0  0  0  0
   50.2350   26.0240   40.3760 S   0  0  0  0  0  0  0  0  0  0  0  0
   50.5770   27.2680   41.7420 C   0  0  0  0  0  0  0  0  0  0  0  0
   50.3790   26.6630   42.6270 N   0  0  0  0  0  0  0  0  0  0  0  0
   49.5570   23.7790   40.9170 H   0  0  0  0  0  0  0  0  0  0  0  0
   50.1150   29.6660   41.2070 C   0  0  0  0  0  0  0  0  0  0  0  0
   51.0010   28.6770   41.4480 C   0  0  0  0  0  0  0  0  0  0  0  0
   52.3630   28.8490   41.4510 C   0  0  0  0  0  0  0  0  0  0  0  0
   53.0450   28.0470   41.6460 H   0  0  0  0  0  0  0  0  0  0  0  0
   52.7970   30.1290   41.1860 C   0  0  0  0  0  0  0  0  0  0  0  0
   53.8750   30.2970   41.1810 H   0  0  0  0  0  0  0  0  0  0  0  0
   51.9170   31.1540   40.9360 C   0  0  0  0  0  3  0  0  0  0  0  0
   50.5520   30.9580   40.9380 C   0  0  0  0  0  3  0  0  0  0  0  0
   47.5690   29.2830   41.2140 N   0  0  0  0  0  0  0  0  0  0  0  0
   48.7130   29.4440   41.2130 C   0  0  0  0  0  0  0  0  0  0  0  0
  1  6  2  0  0  0  0
  1  2  1  0  0  0  0
  2  3  2  0  0  0  0
  3  4  1  0  0  0  0
  3 10  1  0  0  0  0
  5  8  1  0  0  0  0
  5  4  2  0  0  0  0
  6  5  1  0  0  0  0
  7  2  1  0  0  0  0
  9 10  2  0  0  0  0
  9 17  1  0  0  0  0
 10 11  1  0  0  0  0
 11 19  1  0  0  0  0
 11 12  2  0  0  0  0
 12 13  1  0  0  0  0
 13 20  1  0  0  0  0
 13 14  1  0  0  0  0
 14 21  1  0  0  0  0
 15 14  2  0  0  0  0
 16 12  1  0  0  0  0
 16 15  1  0  0  0  0
 17 16  2  0  0  0  0
 18  9  1  0  0  0  0
 22 17  1  0  0  0  0
 23  1  1  0  0  0  0
 24 23  1  0  0  0  0
 25 24  2  0  0  0  0
 26 25  1  0  0  0  0
 26 27  1  0  0  0  0
 27 28  2  0  0  0  0
 28 24  1  0  0  0  0
 29 25  1  0  0  0  0
 30 39  1  0  0  0  0
 30 31  1  0  0  0  0
 31 32  2  0  0  0  0
 31 27  1  0  0  0  0
 32 33  1  0  0  0  0
 34 32  1  0  0  0  0
 35 34  1  0  0  0  0
 36 37  1  0  0  0  0
 36 34  2  0  0  0  0
 37 30  2  0  0  0  0
 39 38  3  0  0  0  0
M  END
>  <minimizedAffinity>
-2.48236799

>  <minimizedRMSD>
9.75534344

$$$$
