
 OpenBabel03242523253D

 44 47  0  0  1  0  0  0  0  0999 V2000
   38.7950   29.6340   41.0600 C   0  0  0  0  0  0  0  0  0  0  0  0
   39.2780   29.0370   42.1430 C   0  0  0  0  0  0  0  0  0  0  0  0
   40.5820   28.6840   42.0710 C   0  0  0  0  0  0  0  0  0  0  0  0
   41.2990   28.9700   40.8920 N   0  0  0  0  0  0  0  0  0  0  0  0
   40.7580   29.5670   39.8460 C   0  0  0  0  0  0  0  0  0  0  0  0
   39.4430   29.9340   39.8910 N   0  0  0  0  0  0  0  0  0  0  0  0
   41.3080   28.1900   42.6710 H   0  0  0  0  0  0  0  0  0  0  0  0
   41.3660   29.7680   38.9420 H   0  0  0  0  0  0  0  0  0  0  0  0
   38.5720   28.6540   43.3050 C   0  0  1  0  0  0  0  0  0  0  0  0
   37.3200   28.1660   43.4610 C   0  0  0  0  0  0  0  0  0  0  0  0
   38.4330   27.1580   43.6800 C   0  0  1  0  0  0  0  0  0  0  0  0
   38.8350   29.3160   44.1790 H   0  0  0  0  0  0  0  0  0  0  0  0
   36.6620   28.2260   44.3950 H   0  0  0  0  0  0  0  0  0  0  0  0
   36.6320   28.1570   42.6090 H   0  0  0  0  0  0  0  0  0  0  0  0
   38.7020   26.9420   44.7580 H   0  0  0  0  0  0  0  0  0  0  0  0
   39.2560   25.1770   42.4030 C   0  0  0  0  0  0  0  0  0  0  0  0
   38.2430   26.0410   42.7800 C   0  0  0  0  0  0  0  0  0  0  0  0
   37.0850   25.6120   42.1570 C   0  0  0  0  0  0  0  0  0  0  0  0
   36.1470   26.1600   42.3430 H   0  0  0  0  0  0  0  0  0  0  0  0
   36.8210   24.5760   41.3130 C   0  0  0  0  0  0  0  0  0  0  0  0
   35.8900   24.3240   40.8820 H   0  0  0  0  0  0  0  0  0  0  0  0
   37.9090   23.7900   41.0110 C   0  0  0  0  0  3  0  0  0  0  0  0
   39.1410   24.0730   41.5480 C   0  0  0  0  0  3  0  0  0  0  0  0
   41.6490   25.3940   43.3560 N   0  0  0  0  0  0  0  0  0  0  0  0
   40.5800   25.2910   42.9400 C   0  0  0  0  0  0  0  0  0  0  0  0
   37.4320   30.1720   40.8770 C   0  0  0  0  0  0  0  0  0  0  0  0
   36.5190   30.9160   41.1380 O   0  0  0  0  0  0  0  0  0  0  0  0
   37.0250   31.5570   38.1510 Cl  0  0  0  0  0  0  0  0  0  0  0  0
   36.4990   29.9060   38.4730 C   0  0  0  0  0  0  0  0  0  0  0  0
   36.7730   29.4150   39.7750 C   0  0  0  0  0  0  0  0  0  0  0  0
   36.3260   28.1220   39.8990 C   0  0  0  0  0  0  0  0  0  0  0  0
   35.7180   27.3280   39.0390 C   0  0  0  0  0  0  0  0  0  0  0  0
   35.4800   27.8560   37.7960 C   0  0  0  0  0  0  0  0  0  0  0  0
   35.8650   29.1420   37.5030 C   0  0  0  0  0  0  0  0  0  0  0  0
   36.5110   27.5960   40.8670 H   0  0  0  0  0  0  0  0  0  0  0  0
   35.3900   26.3030   39.2210 H   0  0  0  0  0  0  0  0  0  0  0  0
   34.9740   27.2330   37.0340 H   0  0  0  0  0  0  0  0  0  0  0  0
   35.5770   29.5660   36.2320 O   0  0  0  0  0  0  0  0  0  0  0  0
   35.4590   28.3650   33.9050 O   0  0  0  0  0  0  0  0  0  0  0  0
   36.3400   29.2400   34.7680 P   0  0  0  0  0  0  0  0  0  0  0  0
   36.7050   30.7000   33.9930 O   0  0  0  0  0  0  0  0  0  0  0  0
   35.8510   31.1940   33.8050 H   0  0  0  0  0  0  0  0  0  0  0  0
   37.8410   28.4780   35.0260 O   0  0  0  0  0  0  0  0  0  0  0  0
   38.1270   28.6120   35.9630 H   0  0  0  0  0  0  0  0  0  0  0  0
  1  2  1  0  0  0  0
  2  9  1  0  0  0  0
  3  2  2  0  0  0  0
  3  7  1  0  0  0  0
  4  3  1  0  0  0  0
  5  6  1  0  0  0  0
  5  4  2  0  0  0  0
  6  1  2  0  0  0  0
  8  5  1  0  0  0  0
  9 10  1  0  0  0  0
  9 11  1  0  0  0  0
  9 12  1  1  0  0  0
 10 11  1  0  0  0  0
 10 13  1  0  0  0  0
 11 15  1  1  0  0  0
 14 10  1  0  0  0  0
 16 17  1  0  0  0  0
 16 25  1  0  0  0  0
 17 11  1  0  0  0  0
 18 19  1  0  0  0  0
 18 17  2  0  0  0  0
 20 18  1  0  0  0  0
 21 20  1  0  0  0  0
 22 20  2  0  0  0  0
 22 23  1  0  0  0  0
 23 16  2  0  0  0  0
 25 24  3  0  0  0  0
 26  1  1  0  0  0  0
 26 27  2  0  0  0  0
 28 29  1  0  0  0  0
 29 30  1  0  0  0  0
 30 31  2  0  0  0  0
 30 26  1  0  0  0  0
 31 35  1  0  0  0  0
 32 36  1  0  0  0  0
 32 31  1  0  0  0  0
 33 32  2  0  0  0  0
 34 33  1  0  0  0  0
 34 29  2  0  0  0  0
 37 33  1  0  0  0  0
 38 34  1  0  0  0  0
 39 40  2  0  0  0  0
 40 43  1  0  0  0  0
 40 38  1  0  0  0  0
 41 40  1  0  0  0  0
 42 41  1  0  0  0  0
 43 44  1  0  0  0  0
M  END
>  <minimizedAffinity>
-6.51699162

$$$$

 OpenBabel03242523253D

 44 47  0  0  1  0  0  0  0  0999 V2000
   35.9840   27.4080   39.6520 C   0  0  0  0  0  0  0  0  0  0  0  0
   36.6560   27.1000   40.7550 C   0  0  0  0  0  0  0  0  0  0  0  0
   37.3530   25.9420   40.6990 C   0  0  0  0  0  0  0  0  0  0  0  0
   37.3110   25.1810   39.5130 N   0  0  0  0  0  0  0  0  0  0  0  0
   36.6200   25.5430   38.4480 C   0  0  0  0  0  0  0  0  0  0  0  0
   35.9060   26.7080   38.4780 N   0  0  0  0  0  0  0  0  0  0  0  0
   37.9670   25.3500   41.3340 H   0  0  0  0  0  0  0  0  0  0  0  0
   36.6190   24.9080   37.5410 H   0  0  0  0  0  0  0  0  0  0  0  0
   36.6510   27.7880   41.9890 C   0  0  1  0  0  0  0  0  0  0  0  0
   36.9240   27.3620   43.2430 C   0  0  0  0  0  0  0  0  0  0  0  0
   37.9790   28.2620   42.6280 C   0  0  1  0  0  0  0  0  0  0  0  0
   35.8330   28.5640   42.0190 H   0  0  0  0  0  0  0  0  0  0  0  0
   36.5550   27.8140   44.2270 H   0  0  0  0  0  0  0  0  0  0  0  0
   37.0550   26.2920   43.4350 H   0  0  0  0  0  0  0  0  0  0  0  0
   37.9570   29.3470   42.9510 H   0  0  0  0  0  0  0  0  0  0  0  0
   40.1710   27.6530   41.5980 C   0  0  0  0  0  0  0  0  0  0  0  0
   39.2500   27.5710   42.6270 C   0  0  0  0  0  0  0  0  0  0  0  0
   39.7930   26.7470   43.5970 C   0  0  0  0  0  0  0  0  0  0  0  0
   39.2200   26.5640   44.5210 H   0  0  0  0  0  0  0  0  0  0  0  0
   40.9730   26.0720   43.6800 C   0  0  0  0  0  0  0  0  0  0  0  0
   41.3050   25.4590   44.4720 H   0  0  0  0  0  0  0  0  0  0  0  0
   41.8020   26.2310   42.5930 C   0  0  0  0  0  3  0  0  0  0  0  0
   41.4200   27.0210   41.5370 C   0  0  0  0  0  3  0  0  0  0  0  0
   39.7980   29.1770   39.5440 N   0  0  0  0  0  0  0  0  0  0  0  0
   39.9530   28.5000   40.4620 C   0  0  0  0  0  0  0  0  0  0  0  0
   35.1860   28.6270   39.4100 C   0  0  0  0  0  0  0  0  0  0  0  0
   34.1700   29.2760   39.4340 O   0  0  0  0  0  0  0  0  0  0  0  0
   36.0290   31.0610   41.1060 Cl  0  0  0  0  0  0  0  0  0  0  0  0
   36.5410   30.8360   39.4350 C   0  0  0  0  0  0  0  0  0  0  0  0
   36.0750   29.6570   38.8010 C   0  0  0  0  0  0  0  0  0  0  0  0
   36.5470   29.5910   37.5130 C   0  0  0  0  0  0  0  0  0  0  0  0
   37.3170   30.4140   36.8280 C   0  0  0  0  0  0  0  0  0  0  0  0
   37.7390   31.5370   37.4920 C   0  0  0  0  0  0  0  0  0  0  0  0
   37.3570   31.7580   38.7940 C   0  0  0  0  0  0  0  0  0  0  0  0
   36.2860   28.6900   36.9060 H   0  0  0  0  0  0  0  0  0  0  0  0
   37.6470   30.2870   35.7950 H   0  0  0  0  0  0  0  0  0  0  0  0
   38.3890   32.2610   36.9670 H   0  0  0  0  0  0  0  0  0  0  0  0
   37.8360   32.9110   39.3580 O   0  0  0  0  0  0  0  0  0  0  0  0
   40.2890   33.8280   39.4660 O   0  0  0  0  0  0  0  0  0  0  0  0
   39.2030   33.1860   40.3000 P   0  0  0  0  0  0  0  0  0  0  0  0
   38.7840   34.1590   41.6200 O   0  0  0  0  0  0  0  0  0  0  0  0
   38.4460   35.0410   41.2830 H   0  0  0  0  0  0  0  0  0  0  0  0
   39.7740   31.7300   40.9740 O   0  0  0  0  0  0  0  0  0  0  0  0
   39.0650   31.0420   40.9330 H   0  0  0  0  0  0  0  0  0  0  0  0
  1  2  1  0  0  0  0
  2  9  1  0  0  0  0
  3  2  2  0  0  0  0
  3  7  1  0  0  0  0
  4  3  1  0  0  0  0
  5  6  1  0  0  0  0
  5  4  2  0  0  0  0
  6  1  2  0  0  0  0
  8  5  1  0  0  0  0
  9 12  1  1  0  0  0
  9 11  1  0  0  0  0
  9 10  1  0  0  0  0
 10 14  1  0  0  0  0
 10 13  1  0  0  0  0
 11 15  1  1  0  0  0
 11 10  1  0  0  0  0
 16 17  1  0  0  0  0
 17 11  1  0  0  0  0
 17 18  2  0  0  0  0
 18 20  1  0  0  0  0
 18 19  1  0  0  0  0
 20 21  1  0  0  0  0
 22 20  2  0  0  0  0
 23 16  2  0  0  0  0
 23 22  1  0  0  0  0
 24 25  3  0  0  0  0
 25 16  1  0  0  0  0
 26 27  2  0  0  0  0
 26  1  1  0  0  0  0
 29 28  1  0  0  0  0
 30 26  1  0  0  0  0
 30 29  1  0  0  0  0
 31 30  2  0  0  0  0
 32 33  2  0  0  0  0
 32 31  1  0  0  0  0
 33 34  1  0  0  0  0
 34 38  1  0  0  0  0
 34 29  2  0  0  0  0
 35 31  1  0  0  0  0
 36 32  1  0  0  0  0
 37 33  1  0  0  0  0
 38 40  1  0  0  0  0
 39 40  2  0  0  0  0
 40 43  1  0  0  0  0
 40 41  1  0  0  0  0
 42 41  1  0  0  0  0
 44 43  1  0  0  0  0
M  END
>  <minimizedAffinity>
-6.50968313

$$$$

 OpenBabel03242523253D

 44 47  0  0  1  0  0  0  0  0999 V2000
   40.1400   28.5440   42.0230 C   0  0  0  0  0  0  0  0  0  0  0  0
   39.6240   27.4520   42.5760 C   0  0  0  0  0  0  0  0  0  0  0  0
   40.2140   26.2900   42.2120 C   0  0  0  0  0  0  0  0  0  0  0  0
   41.2930   26.3320   41.3060 N   0  0  0  0  0  0  0  0  0  0  0  0
   41.7590   27.4540   40.7900 C   0  0  0  0  0  0  0  0  0  0  0  0
   41.1810   28.6420   41.1400 N   0  0  0  0  0  0  0  0  0  0  0  0
   40.0990   25.2490   42.3910 H   0  0  0  0  0  0  0  0  0  0  0  0
   42.6100   27.4310   40.0810 H   0  0  0  0  0  0  0  0  0  0  0  0
   38.4900   27.3620   43.4140 C   0  0  1  0  0  0  0  0  0  0  0  0
   37.5070   28.2540   43.6750 C   0  0  0  0  0  0  0  0  0  0  0  0
   37.0920   27.0760   42.8130 C   0  0  1  0  0  0  0  0  0  0  0  0
   38.7150   26.7610   44.3410 H   0  0  0  0  0  0  0  0  0  0  0  0
   36.8440   28.3060   44.6060 H   0  0  0  0  0  0  0  0  0  0  0  0
   37.6010   29.2840   43.3160 H   0  0  0  0  0  0  0  0  0  0  0  0
   36.5410   26.2410   43.3450 H   0  0  0  0  0  0  0  0  0  0  0  0
   36.6900   26.9090   40.3550 C   0  0  0  0  0  0  0  0  0  0  0  0
   36.5550   27.5690   41.5630 C   0  0  0  0  0  0  0  0  0  0  0  0
   35.8260   28.7190   41.3230 C   0  0  0  0  0  0  0  0  0  0  0  0
   35.5880   29.3840   42.1700 H   0  0  0  0  0  0  0  0  0  0  0  0
   35.2790   29.2460   40.1920 C   0  0  0  0  0  0  0  0  0  0  0  0
   34.7300   30.1440   40.1060 H   0  0  0  0  0  0  0  0  0  0  0  0
   35.4830   28.5000   39.0550 C   0  0  0  0  0  3  0  0  0  0  0  0
   36.1880   27.3220   39.1140 C   0  0  0  0  0  3  0  0  0  0  0  0
   37.8250   24.5930   40.1920 N   0  0  0  0  0  0  0  0  0  0  0  0
   37.3300   25.6300   40.2650 C   0  0  0  0  0  0  0  0  0  0  0  0
   39.7350   29.9420   42.2750 C   0  0  0  0  0  0  0  0  0  0  0  0
   39.4380   30.8700   42.9860 O   0  0  0  0  0  0  0  0  0  0  0  0
   41.8130   32.0920   41.5190 Cl  0  0  0  0  0  0  0  0  0  0  0  0
   40.4650   31.6540   40.4720 C   0  0  0  0  0  0  0  0  0  0  0  0
   39.6070   30.6380   40.9630 C   0  0  0  0  0  0  0  0  0  0  0  0
   38.6070   30.3810   40.0580 C   0  0  0  0  0  0  0  0  0  0  0  0
   38.3470   30.9100   38.8790 C   0  0  0  0  0  0  0  0  0  0  0  0
   39.2100   31.8880   38.4540 C   0  0  0  0  0  0  0  0  0  0  0  0
   40.2710   32.2670   39.2420 C   0  0  0  0  0  0  0  0  0  0  0  0
   37.8770   29.5710   40.3020 H   0  0  0  0  0  0  0  0  0  0  0  0
   37.5200   30.6480   38.2160 H   0  0  0  0  0  0  0  0  0  0  0  0
   39.0410   32.3660   37.4710 H   0  0  0  0  0  0  0  0  0  0  0  0
   41.0670   33.2520   38.7190 O   0  0  0  0  0  0  0  0  0  0  0  0
   43.6690   33.5500   38.8120 O   0  0  0  0  0  0  0  0  0  0  0  0
   42.5320   33.1570   37.8970 P   0  0  0  0  0  0  0  0  0  0  0  0
   42.7360   31.5840   37.3030 O   0  0  0  0  0  0  0  0  0  0  0  0
   42.7600   30.9430   38.0740 H   0  0  0  0  0  0  0  0  0  0  0  0
   42.5190   34.1610   36.5220 O   0  0  0  0  0  0  0  0  0  0  0  0
   41.5880   34.3990   36.2900 H   0  0  0  0  0  0  0  0  0  0  0  0
  1 26  1  0  0  0  0
  1  2  1  0  0  0  0
  2  9  1  0  0  0  0
  3  7  1  0  0  0  0
  3  2  2  0  0  0  0
  4  3  1  0  0  0  0
  5  6  1  0  0  0  0
  5  4  2  0  0  0  0
  6  1  2  0  0  0  0
  8  5  1  0  0  0  0
  9 10  1  0  0  0  0
  9 12  1  1  0  0  0
 10 13  1  0  0  0  0
 11 15  1  1  0  0  0
 11  9  1  0  0  0  0
 11 10  1  0  0  0  0
 14 10  1  0  0  0  0
 16 17  1  0  0  0  0
 17 11  1  0  0  0  0
 18 17  2  0  0  0  0
 18 19  1  0  0  0  0
 20 18  1  0  0  0  0
 21 20  1  0  0  0  0
 22 23  1  0  0  0  0
 22 20  2  0  0  0  0
 23 16  2  0  0  0  0
 24 25  3  0  0  0  0
 25 16  1  0  0  0  0
 26 27  2  0  0  0  0
 29 30  1  0  0  0  0
 29 28  1  0  0  0  0
 30 26  1  0  0  0  0
 31 35  1  0  0  0  0
 31 30  2  0  0  0  0
 32 31  1  0  0  0  0
 33 32  2  0  0  0  0
 33 34  1  0  0  0  0
 34 29  2  0  0  0  0
 36 32  1  0  0  0  0
 37 33  1  0  0  0  0
 38 34  1  0  0  0  0
 40 38  1  0  0  0  0
 40 39  2  0  0  0  0
 41 40  1  0  0  0  0
 41 42  1  0  0  0  0
 43 40  1  0  0  0  0
 44 43  1  0  0  0  0
M  END
>  <minimizedAffinity>
-6.40007973

$$$$

 OpenBabel03242523253D

 44 47  0  0  1  0  0  0  0  0999 V2000
   37.6230   25.6190   38.9540 C   0  0  0  0  0  0  0  0  0  0  0  0
   38.3360   24.8240   39.7440 C   0  0  0  0  0  0  0  0  0  0  0  0
   37.7280   23.6660   40.0920 C   0  0  0  0  0  0  0  0  0  0  0  0
   36.4310   23.4070   39.6040 N   0  0  0  0  0  0  0  0  0  0  0  0
   35.7750   24.2420   38.8200 C   0  0  0  0  0  0  0  0  0  0  0  0
   36.3650   25.4190   38.4540 N   0  0  0  0  0  0  0  0  0  0  0  0
   37.9250   22.8140   40.6960 H   0  0  0  0  0  0  0  0  0  0  0  0
   34.7570   23.9900   38.4640 H   0  0  0  0  0  0  0  0  0  0  0  0
   39.5960   25.0880   40.3260 C   0  0  1  0  0  0  0  0  0  0  0  0
   40.2610   26.2510   40.5090 C   0  0  0  0  0  0  0  0  0  0  0  0
   39.6930   25.6310   41.7720 C   0  0  1  0  0  0  0  0  0  0  0  0
   40.3280   24.2600   40.1030 H   0  0  0  0  0  0  0  0  0  0  0  0
   41.3910   26.3960   40.6220 H   0  0  0  0  0  0  0  0  0  0  0  0
   39.8870   27.1690   40.0440 H   0  0  0  0  0  0  0  0  0  0  0  0
   40.4250   25.0560   42.4160 H   0  0  0  0  0  0  0  0  0  0  0  0
   39.2450   27.7750   42.9700 C   0  0  0  0  0  0  0  0  0  0  0  0
   38.8140   26.5850   42.4130 C   0  0  0  0  0  0  0  0  0  0  0  0
   37.4420   26.5270   42.5830 C   0  0  0  0  0  0  0  0  0  0  0  0
   36.8940   25.6560   42.1860 H   0  0  0  0  0  0  0  0  0  0  0  0
   36.5470   27.3760   43.1590 C   0  0  0  0  0  0  0  0  0  0  0  0
   35.5020   27.2440   43.2410 H   0  0  0  0  0  0  0  0  0  0  0  0
   37.0980   28.5240   43.6800 C   0  0  0  0  0  3  0  0  0  0  0  0
   38.4510   28.7460   43.5950 C   0  0  0  0  0  3  0  0  0  0  0  0
   41.7180   28.5200   42.8510 N   0  0  0  0  0  0  0  0  0  0  0  0
   40.6160   28.1880   42.8930 C   0  0  0  0  0  0  0  0  0  0  0  0
   38.0510   26.9100   38.3770 C   0  0  0  0  0  0  0  0  0  0  0  0
   38.6660   27.5950   37.5980 O   0  0  0  0  0  0  0  0  0  0  0  0
   39.7700   29.2450   39.4270 Cl  0  0  0  0  0  0  0  0  0  0  0  0
   38.0320   29.1400   39.6990 C   0  0  0  0  0  0  0  0  0  0  0  0
   37.3880   28.0070   39.1390 C   0  0  0  0  0  0  0  0  0  0  0  0
   36.0420   28.0430   39.4100 C   0  0  0  0  0  0  0  0  0  0  0  0
   35.3140   28.9200   40.0730 C   0  0  0  0  0  0  0  0  0  0  0  0
   35.9890   29.9950   40.5910 C   0  0  0  0  0  0  0  0  0  0  0  0
   37.3470   30.1140   40.4100 C   0  0  0  0  0  0  0  0  0  0  0  0
   35.4040   27.2260   38.9940 H   0  0  0  0  0  0  0  0  0  0  0  0
   34.2370   28.8720   40.2470 H   0  0  0  0  0  0  0  0  0  0  0  0
   35.4280   30.7630   41.1550 H   0  0  0  0  0  0  0  0  0  0  0  0
   37.9180   31.2260   40.9720 O   0  0  0  0  0  0  0  0  0  0  0  0
   39.1780   32.6520   39.1690 O   0  0  0  0  0  0  0  0  0  0  0  0
   38.2100   32.7530   40.3260 P   0  0  0  0  0  0  0  0  0  0  0  0
   36.7410   33.4430   39.8420 O   0  0  0  0  0  0  0  0  0  0  0  0
   36.3290   32.8690   39.1300 H   0  0  0  0  0  0  0  0  0  0  0  0
   38.8320   33.8020   41.5140 O   0  0  0  0  0  0  0  0  0  0  0  0
   38.6520   33.4330   42.4130 H   0  0  0  0  0  0  0  0  0  0  0  0
  1  2  1  0  0  0  0
  2  3  2  0  0  0  0
  2  9  1  0  0  0  0
  3  7  1  0  0  0  0
  4  3  1  0  0  0  0
  5  4  2  0  0  0  0
  6  5  1  0  0  0  0
  6  1  2  0  0  0  0
  8  5  1  0  0  0  0
  9 12  1  6  0  0  0
  9 10  1  0  0  0  0
  9 11  1  0  0  0  0
 10 13  1  0  0  0  0
 10 11  1  0  0  0  0
 11 17  1  0  0  0  0
 11 15  1  1  0  0  0
 14 10  1  0  0  0  0
 16 23  1  0  0  0  0
 17 18  1  0  0  0  0
 17 16  2  0  0  0  0
 18 20  2  0  0  0  0
 19 18  1  0  0  0  0
 20 21  1  0  0  0  0
 20 22  1  0  0  0  0
 23 22  2  0  0  0  0
 24 25  3  0  0  0  0
 25 16  1  0  0  0  0
 26  1  1  0  0  0  0
 26 30  1  0  0  0  0
 27 26  2  0  0  0  0
 28 29  1  0  0  0  0
 29 34  1  0  0  0  0
 30 31  1  0  0  0  0
 30 29  2  0  0  0  0
 31 32  2  0  0  0  0
 32 36  1  0  0  0  0
 32 33  1  0  0  0  0
 33 37  1  0  0  0  0
 34 33  2  0  0  0  0
 34 38  1  0  0  0  0
 35 31  1  0  0  0  0
 39 40  2  0  0  0  0
 40 38  1  0  0  0  0
 40 43  1  0  0  0  0
 41 40  1  0  0  0  0
 42 41  1  0  0  0  0
 43 44  1  0  0  0  0
M  END
>  <minimizedAffinity>
-6.33161116

$$$$

 OpenBabel03242523253D

 44 47  0  0  1  0  0  0  0  0999 V2000
   39.0530   26.4580   41.6430 C   0  0  0  0  0  0  0  0  0  0  0  0
   39.0130   25.1780   41.2900 C   0  0  0  0  0  0  0  0  0  0  0  0
   40.0280   24.7710   40.4930 C   0  0  0  0  0  0  0  0  0  0  0  0
   41.0130   25.7060   40.1160 N   0  0  0  0  0  0  0  0  0  0  0  0
   40.9940   26.9680   40.5020 C   0  0  0  0  0  0  0  0  0  0  0  0
   39.9810   27.4070   41.3060 N   0  0  0  0  0  0  0  0  0  0  0  0
   40.3400   23.8880   39.9910 H   0  0  0  0  0  0  0  0  0  0  0  0
   41.7940   27.6630   40.1760 H   0  0  0  0  0  0  0  0  0  0  0  0
   37.9980   24.2360   41.5720 C   0  0  1  0  0  0  0  0  0  0  0  0
   36.6610   24.3860   41.6990 C   0  0  0  0  0  0  0  0  0  0  0  0
   37.1090   23.6790   40.4340 C   0  0  1  0  0  0  0  0  0  0  0  0
   38.3650   23.4460   42.2880 H   0  0  0  0  0  0  0  0  0  0  0  0
   35.9390   23.7170   42.2820 H   0  0  0  0  0  0  0  0  0  0  0  0
   36.2280   25.3910   41.7290 H   0  0  0  0  0  0  0  0  0  0  0  0
   37.0320   22.5490   40.4420 H   0  0  0  0  0  0  0  0  0  0  0  0
   35.3810   24.1280   38.6900 C   0  0  0  0  0  0  0  0  0  0  0  0
   36.6010   24.3950   39.2850 C   0  0  0  0  0  0  0  0  0  0  0  0
   37.1760   25.4430   38.5880 C   0  0  0  0  0  0  0  0  0  0  0  0
   38.1550   25.8260   38.9180 H   0  0  0  0  0  0  0  0  0  0  0  0
   36.7640   26.1730   37.5140 C   0  0  0  0  0  0  0  0  0  0  0  0
   37.2800   26.9660   37.0450 H   0  0  0  0  0  0  0  0  0  0  0  0
   35.5370   25.8110   37.0100 C   0  0  0  0  0  3  0  0  0  0  0  0
   34.8240   24.7870   37.5860 C   0  0  0  0  0  3  0  0  0  0  0  0
   33.7580   22.3500   39.6300 N   0  0  0  0  0  0  0  0  0  0  0  0
   34.4850   23.1440   39.2220 C   0  0  0  0  0  0  0  0  0  0  0  0
   38.1150   27.1600   42.5420 C   0  0  0  0  0  0  0  0  0  0  0  0
   37.6040   27.3810   43.6130 O   0  0  0  0  0  0  0  0  0  0  0  0
   38.8170   30.1510   42.8130 Cl  0  0  0  0  0  0  0  0  0  0  0  0
   37.5360   29.5610   41.7560 C   0  0  0  0  0  0  0  0  0  0  0  0
   37.3500   28.1550   41.7390 C   0  0  0  0  0  0  0  0  0  0  0  0
   36.3360   27.8210   40.8750 C   0  0  0  0  0  0  0  0  0  0  0  0
   35.5630   28.5690   40.1140 C   0  0  0  0  0  0  0  0  0  0  0  0
   35.7880   29.9210   40.1700 C   0  0  0  0  0  0  0  0  0  0  0  0
   36.7710   30.4270   40.9870 C   0  0  0  0  0  0  0  0  0  0  0  0
   36.1060   26.7370   40.7340 H   0  0  0  0  0  0  0  0  0  0  0  0
   34.7690   28.2200   39.4500 H   0  0  0  0  0  0  0  0  0  0  0  0
   35.1690   30.5970   39.5510 H   0  0  0  0  0  0  0  0  0  0  0  0
   36.9080   31.7900   40.9650 O   0  0  0  0  0  0  0  0  0  0  0  0
   39.1440   31.9110   39.6030 O   0  0  0  0  0  0  0  0  0  0  0  0
   38.0540   32.7650   40.2100 P   0  0  0  0  0  0  0  0  0  0  0  0
   37.2890   33.7140   39.0360 O   0  0  0  0  0  0  0  0  0  0  0  0
   36.8770   33.1140   38.3460 H   0  0  0  0  0  0  0  0  0  0  0  0
   38.7290   33.8700   41.3160 O   0  0  0  0  0  0  0  0  0  0  0  0
   38.1490   33.9410   42.1140 H   0  0  0  0  0  0  0  0  0  0  0  0
  1 26  1  0  0  0  0
  2  9  1  0  0  0  0
  2  1  2  0  0  0  0
  3  2  1  0  0  0  0
  4  3  2  0  0  0  0
  4  5  1  0  0  0  0
  5  6  2  0  0  0  0
  6  1  1  0  0  0  0
  7  3  1  0  0  0  0
  8  5  1  0  0  0  0
  9 10  1  0  0  0  0
  9 12  1  1  0  0  0
 10 14  1  0  0  0  0
 10 13  1  0  0  0  0
 11 15  1  6  0  0  0
 11  9  1  0  0  0  0
 11 10  1  0  0  0  0
 16 25  1  0  0  0  0
 16 17  1  0  0  0  0
 17 11  1  0  0  0  0
 18 19  1  0  0  0  0
 18 17  2  0  0  0  0
 20 18  1  0  0  0  0
 21 20  1  0  0  0  0
 22 20  2  0  0  0  0
 22 23  1  0  0  0  0
 23 16  2  0  0  0  0
 25 24  3  0  0  0  0
 26 27  2  0  0  0  0
 29 28  1  0  0  0  0
 30 29  1  0  0  0  0
 30 26  1  0  0  0  0
 31 30  2  0  0  0  0
 32 33  2  0  0  0  0
 32 31  1  0  0  0  0
 33 34  1  0  0  0  0
 34 29  2  0  0  0  0
 35 31  1  0  0  0  0
 36 32  1  0  0  0  0
 37 33  1  0  0  0  0
 38 34  1  0  0  0  0
 39 40  2  0  0  0  0
 40 38  1  0  0  0  0
 40 43  1  0  0  0  0
 41 40  1  0  0  0  0
 42 41  1  0  0  0  0
 43 44  1  0  0  0  0
M  END
>  <minimizedAffinity>
-6.31227016

$$$$

 OpenBabel03242523253D

 44 47  0  0  1  0  0  0  0  0999 V2000
   36.9960   26.2890   40.2870 C   0  0  0  0  0  0  0  0  0  0  0  0
   36.9230   26.3680   41.6110 C   0  0  0  0  0  0  0  0  0  0  0  0
   37.0200   25.1860   42.2630 C   0  0  0  0  0  0  0  0  0  0  0  0
   37.1870   24.0070   41.5100 N   0  0  0  0  0  0  0  0  0  0  0  0
   37.2510   23.9960   40.1910 C   0  0  0  0  0  0  0  0  0  0  0  0
   37.1540   25.1750   39.5070 N   0  0  0  0  0  0  0  0  0  0  0  0
   36.9850   24.8230   43.2610 H   0  0  0  0  0  0  0  0  0  0  0  0
   37.3820   23.0400   39.6470 H   0  0  0  0  0  0  0  0  0  0  0  0
   36.6660   27.5160   42.3940 C   0  0  1  0  0  0  0  0  0  0  0  0
   36.9760   27.7990   43.6800 C   0  0  0  0  0  0  0  0  0  0  0  0
   37.7820   28.5590   42.6430 C   0  0  1  0  0  0  0  0  0  0  0  0
   35.6700   27.9730   42.1320 H   0  0  0  0  0  0  0  0  0  0  0  0
   36.4470   28.5360   44.3760 H   0  0  0  0  0  0  0  0  0  0  0  0
   37.3790   27.0120   44.3260 H   0  0  0  0  0  0  0  0  0  0  0  0
   37.4520   29.6230   42.4390 H   0  0  0  0  0  0  0  0  0  0  0  0
   40.1780   29.2610   42.7010 C   0  0  0  0  0  0  0  0  0  0  0  0
   39.1910   28.3050   42.8590 C   0  0  0  0  0  0  0  0  0  0  0  0
   39.8130   27.1360   43.2590 C   0  0  0  0  0  0  0  0  0  0  0  0
   39.1940   26.2470   43.4610 H   0  0  0  0  0  0  0  0  0  0  0  0
   41.1160   26.8180   43.4940 C   0  0  0  0  0  0  0  0  0  0  0  0
   41.5010   25.8840   43.8010 H   0  0  0  0  0  0  0  0  0  0  0  0
   42.0030   27.8520   43.3000 C   0  0  0  0  0  3  0  0  0  0  0  0
   41.5530   29.0880   42.9030 C   0  0  0  0  0  3  0  0  0  0  0  0
   39.6010   31.7040   42.0830 N   0  0  0  0  0  0  0  0  0  0  0  0
   39.8620   30.6190   42.3680 C   0  0  0  0  0  0  0  0  0  0  0  0
   36.9730   27.4120   39.3290 C   0  0  0  0  0  0  0  0  0  0  0  0
   36.4350   28.1540   38.5450 O   0  0  0  0  0  0  0  0  0  0  0  0
   37.3080   30.4670   39.0640 Cl  0  0  0  0  0  0  0  0  0  0  0  0
   38.6750   29.3550   39.1030 C   0  0  0  0  0  0  0  0  0  0  0  0
   38.3480   27.9820   39.2410 C   0  0  0  0  0  0  0  0  0  0  0  0
   39.4920   27.2220   39.2680 C   0  0  0  0  0  0  0  0  0  0  0  0
   40.7630   27.5640   39.1860 C   0  0  0  0  0  0  0  0  0  0  0  0
   41.0190   28.9050   39.0550 C   0  0  0  0  0  0  0  0  0  0  0  0
   39.9830   29.8080   39.0120 C   0  0  0  0  0  0  0  0  0  0  0  0
   39.3840   26.1190   39.4110 H   0  0  0  0  0  0  0  0  0  0  0  0
   41.6210   26.8890   39.2130 H   0  0  0  0  0  0  0  0  0  0  0  0
   42.0680   29.2490   38.9840 H   0  0  0  0  0  0  0  0  0  0  0  0
   40.3550   31.1200   38.8780 O   0  0  0  0  0  0  0  0  0  0  0  0
   41.3660   33.3330   37.9030 O   0  0  0  0  0  0  0  0  0  0  0  0
   40.7390   32.0150   37.5060 P   0  0  0  0  0  0  0  0  0  0  0  0
   41.7790   31.1100   36.5230 O   0  0  0  0  0  0  0  0  0  0  0  0
   42.6250   30.9210   37.0280 H   0  0  0  0  0  0  0  0  0  0  0  0
   39.3520   32.2940   36.5590 O   0  0  0  0  0  0  0  0  0  0  0  0
   38.6370   31.6620   36.8180 H   0  0  0  0  0  0  0  0  0  0  0  0
  1  2  1  0  0  0  0
  2  3  2  0  0  0  0
  2  9  1  0  0  0  0
  3  7  1  0  0  0  0
  4  3  1  0  0  0  0
  5  4  2  0  0  0  0
  6  5  1  0  0  0  0
  6  1  2  0  0  0  0
  8  5  1  0  0  0  0
  9 12  1  6  0  0  0
  9 11  1  0  0  0  0
  9 10  1  0  0  0  0
 10 14  1  0  0  0  0
 10 13  1  0  0  0  0
 11 15  1  6  0  0  0
 11 17  1  0  0  0  0
 11 10  1  0  0  0  0
 16 17  2  0  0  0  0
 16 23  1  0  0  0  0
 17 18  1  0  0  0  0
 18 19  1  0  0  0  0
 18 20  2  0  0  0  0
 20 21  1  0  0  0  0
 22 20  1  0  0  0  0
 23 22  2  0  0  0  0
 24 25  3  0  0  0  0
 25 16  1  0  0  0  0
 26  1  1  0  0  0  0
 27 26  2  0  0  0  0
 28 29  1  0  0  0  0
 29 30  1  0  0  0  0
 30 31  2  0  0  0  0
 30 26  1  0  0  0  0
 31 35  1  0  0  0  0
 32 36  1  0  0  0  0
 32 31  1  0  0  0  0
 33 32  2  0  0  0  0
 34 33  1  0  0  0  0
 34 29  2  0  0  0  0
 37 33  1  0  0  0  0
 38 34  1  0  0  0  0
 40 39  2  0  0  0  0
 40 38  1  0  0  0  0
 41 42  1  0  0  0  0
 41 40  1  0  0  0  0
 43 44  1  0  0  0  0
 43 40  1  0  0  0  0
M  END
>  <minimizedAffinity>
-6.28581285

$$$$

 OpenBabel03242523253D

 44 47  0  0  1  0  0  0  0  0999 V2000
   37.7540   25.4470   38.7310 C   0  0  0  0  0  0  0  0  0  0  0  0
   37.6940   24.7270   39.8450 C   0  0  0  0  0  0  0  0  0  0  0  0
   38.5040   23.6440   39.8730 C   0  0  0  0  0  0  0  0  0  0  0  0
   39.3200   23.3770   38.7550 N   0  0  0  0  0  0  0  0  0  0  0  0
   39.3320   24.1350   37.6740 C   0  0  0  0  0  0  0  0  0  0  0  0
   38.5230   25.2340   37.6180 N   0  0  0  0  0  0  0  0  0  0  0  0
   38.7290   22.8350   40.5250 H   0  0  0  0  0  0  0  0  0  0  0  0
   39.9920   23.8790   36.8210 H   0  0  0  0  0  0  0  0  0  0  0  0
   36.8270   24.9110   40.9460 C   0  0  1  0  0  0  0  0  0  0  0  0
   36.9140   24.4790   42.2240 C   0  0  0  0  0  0  0  0  0  0  0  0
   37.1520   25.9660   42.0310 C   0  0  1  0  0  0  0  0  0  0  0  0
   35.7480   24.9170   40.6170 H   0  0  0  0  0  0  0  0  0  0  0  0
   36.0560   24.3170   42.9630 H   0  0  0  0  0  0  0  0  0  0  0  0
   37.6900   23.7570   42.5010 H   0  0  0  0  0  0  0  0  0  0  0  0
   36.2770   26.6440   42.2690 H   0  0  0  0  0  0  0  0  0  0  0  0
   38.8770   27.6100   42.7740 C   0  0  0  0  0  0  0  0  0  0  0  0
   38.4540   26.3100   42.5600 C   0  0  0  0  0  0  0  0  0  0  0  0
   39.4810   25.4740   42.9560 C   0  0  0  0  0  0  0  0  0  0  0  0
   39.3360   24.3830   42.8840 H   0  0  0  0  0  0  0  0  0  0  0  0
   40.7200   25.7120   43.4690 C   0  0  0  0  0  0  0  0  0  0  0  0
   41.4460   24.9970   43.7450 H   0  0  0  0  0  0  0  0  0  0  0  0
   41.0270   27.0430   43.6330 C   0  0  0  0  0  3  0  0  0  0  0  0
   40.1150   28.0140   43.2910 C   0  0  0  0  0  3  0  0  0  0  0  0
   37.3280   29.6320   42.3390 N   0  0  0  0  0  0  0  0  0  0  0  0
   38.0130   28.7300   42.5430 C   0  0  0  0  0  0  0  0  0  0  0  0
   37.0280   26.7010   38.4440 C   0  0  0  0  0  0  0  0  0  0  0  0
   36.0690   27.3360   38.0810 O   0  0  0  0  0  0  0  0  0  0  0  0
   35.9560   29.5740   38.1120 Cl  0  0  0  0  0  0  0  0  0  0  0  0
   37.5980   29.2220   38.6460 C   0  0  0  0  0  0  0  0  0  0  0  0
   37.9280   27.8470   38.7580 C   0  0  0  0  0  0  0  0  0  0  0  0
   39.2240   27.7040   39.1890 C   0  0  0  0  0  0  0  0  0  0  0  0
   40.1430   28.6000   39.4900 C   0  0  0  0  0  0  0  0  0  0  0  0
   39.7670   29.9130   39.3640 C   0  0  0  0  0  0  0  0  0  0  0  0
   38.4990   30.2350   38.9430 C   0  0  0  0  0  0  0  0  0  0  0  0
   39.6070   26.6670   39.3580 H   0  0  0  0  0  0  0  0  0  0  0  0
   41.1620   28.4000   39.8270 H   0  0  0  0  0  0  0  0  0  0  0  0
   40.4980   30.7080   39.6050 H   0  0  0  0  0  0  0  0  0  0  0  0
   38.2330   31.5750   38.8520 O   0  0  0  0  0  0  0  0  0  0  0  0
   38.6810   33.0590   40.9660 O   0  0  0  0  0  0  0  0  0  0  0  0
   37.6050   32.6480   39.9870 P   0  0  0  0  0  0  0  0  0  0  0  0
   36.9570   33.9910   39.1850 O   0  0  0  0  0  0  0  0  0  0  0  0
   37.6880   34.4540   38.6780 H   0  0  0  0  0  0  0  0  0  0  0  0
   36.2980   31.9460   40.8220 O   0  0  0  0  0  0  0  0  0  0  0  0
   35.9600   31.1650   40.3190 H   0  0  0  0  0  0  0  0  0  0  0  0
  1  2  1  0  0  0  0
  2  3  2  0  0  0  0
  2  9  1  0  0  0  0
  3  7  1  0  0  0  0
  4  3  1  0  0  0  0
  5  4  2  0  0  0  0
  6  5  1  0  0  0  0
  6  1  2  0  0  0  0
  8  5  1  0  0  0  0
  9 12  1  6  0  0  0
  9 11  1  0  0  0  0
  9 10  1  0  0  0  0
 10 14  1  0  0  0  0
 10 13  1  0  0  0  0
 11 10  1  0  0  0  0
 11 15  1  1  0  0  0
 11 17  1  0  0  0  0
 16 23  1  0  0  0  0
 17 16  2  0  0  0  0
 17 18  1  0  0  0  0
 18 20  2  0  0  0  0
 19 18  1  0  0  0  0
 20 22  1  0  0  0  0
 20 21  1  0  0  0  0
 23 22  2  0  0  0  0
 24 25  3  0  0  0  0
 25 16  1  0  0  0  0
 26  1  1  0  0  0  0
 26 30  1  0  0  0  0
 27 26  2  0  0  0  0
 28 29  1  0  0  0  0
 29 30  2  0  0  0  0
 29 34  1  0  0  0  0
 30 31  1  0  0  0  0
 31 35  1  0  0  0  0
 31 32  2  0  0  0  0
 32 36  1  0  0  0  0
 33 32  1  0  0  0  0
 33 37  1  0  0  0  0
 34 33  2  0  0  0  0
 38 34  1  0  0  0  0
 38 40  1  0  0  0  0
 40 43  1  0  0  0  0
 40 39  2  0  0  0  0
 41 40  1  0  0  0  0
 42 41  1  0  0  0  0
 44 43  1  0  0  0  0
M  END
>  <minimizedAffinity>
-6.26028347

$$$$

 OpenBabel03242523253D

 44 47  0  0  1  0  0  0  0  0999 V2000
   38.9970   29.8260   40.8450 C   0  0  0  0  0  0  0  0  0  0  0  0
   39.3880   29.2120   41.9550 C   0  0  0  0  0  0  0  0  0  0  0  0
   40.6250   28.6660   41.9040 C   0  0  0  0  0  0  0  0  0  0  0  0
   41.3730   28.7900   40.7160 N   0  0  0  0  0  0  0  0  0  0  0  0
   40.9250   29.4150   39.6430 C   0  0  0  0  0  0  0  0  0  0  0  0
   39.6790   29.9750   39.6660 N   0  0  0  0  0  0  0  0  0  0  0  0
   41.2700   28.0960   42.5270 H   0  0  0  0  0  0  0  0  0  0  0  0
   41.5540   29.4840   38.7340 H   0  0  0  0  0  0  0  0  0  0  0  0
   38.6340   28.9880   43.1290 C   0  0  1  0  0  0  0  0  0  0  0  0
   37.3670   28.5490   43.2990 C   0  0  0  0  0  0  0  0  0  0  0  0
   38.4480   27.5540   43.6790 C   0  0  1  0  0  0  0  0  0  0  0  0
   38.8850   29.7480   43.9240 H   0  0  0  0  0  0  0  0  0  0  0  0
   36.6800   28.7360   44.1950 H   0  0  0  0  0  0  0  0  0  0  0  0
   36.7070   28.4480   42.4310 H   0  0  0  0  0  0  0  0  0  0  0  0
   38.6770   27.4660   44.7850 H   0  0  0  0  0  0  0  0  0  0  0  0
   39.2650   25.4170   42.6800 C   0  0  0  0  0  0  0  0  0  0  0  0
   38.2610   26.3380   42.9170 C   0  0  0  0  0  0  0  0  0  0  0  0
   37.1130   25.8560   42.3150 C   0  0  0  0  0  0  0  0  0  0  0  0
   36.1810   26.4380   42.4050 H   0  0  0  0  0  0  0  0  0  0  0  0
   36.8510   24.7290   41.5970 C   0  0  0  0  0  0  0  0  0  0  0  0
   35.9280   24.4420   41.1710 H   0  0  0  0  0  0  0  0  0  0  0  0
   37.9300   23.8930   41.4260 C   0  0  0  0  0  3  0  0  0  0  0  0
   39.1530   24.2190   41.9630 C   0  0  0  0  0  3  0  0  0  0  0  0
   41.6300   25.7170   43.6800 N   0  0  0  0  0  0  0  0  0  0  0  0
   40.5760   25.5730   43.2400 C   0  0  0  0  0  0  0  0  0  0  0  0
   37.7280   30.5520   40.6330 C   0  0  0  0  0  0  0  0  0  0  0  0
   36.8130   31.2560   40.9830 O   0  0  0  0  0  0  0  0  0  0  0  0
   35.9960   28.0820   39.9920 Cl  0  0  0  0  0  0  0  0  0  0  0  0
   36.5030   29.2390   38.7630 C   0  0  0  0  0  0  0  0  0  0  0  0
   37.2870   30.3260   39.2260 C   0  0  0  0  0  0  0  0  0  0  0  0
   37.6100   31.1580   38.1820 C   0  0  0  0  0  0  0  0  0  0  0  0
   37.3170   31.0930   36.8990 C   0  0  0  0  0  0  0  0  0  0  0  0
   36.5560   30.0210   36.5080 C   0  0  0  0  0  0  0  0  0  0  0  0
   36.1450   29.0890   37.4310 C   0  0  0  0  0  0  0  0  0  0  0  0
   38.1970   32.0810   38.4120 H   0  0  0  0  0  0  0  0  0  0  0  0
   37.6190   31.8030   36.1260 H   0  0  0  0  0  0  0  0  0  0  0  0
   36.2790   29.9170   35.4420 H   0  0  0  0  0  0  0  0  0  0  0  0
   35.3910   28.0610   36.9300 O   0  0  0  0  0  0  0  0  0  0  0  0
   33.0010   28.9450   37.5450 O   0  0  0  0  0  0  0  0  0  0  0  0
   33.7300   27.9350   36.6880 P   0  0  0  0  0  0  0  0  0  0  0  0
   33.3880   28.1620   35.0450 O   0  0  0  0  0  0  0  0  0  0  0  0
   33.6820   29.0810   34.7730 H   0  0  0  0  0  0  0  0  0  0  0  0
   33.1840   26.3640   37.0510 O   0  0  0  0  0  0  0  0  0  0  0  0
   33.9500   25.7390   37.0650 H   0  0  0  0  0  0  0  0  0  0  0  0
  1  2  1  0  0  0  0
  2  9  1  0  0  0  0
  3  2  2  0  0  0  0
  3  7  1  0  0  0  0
  4  3  1  0  0  0  0
  5  6  1  0  0  0  0
  5  4  2  0  0  0  0
  6  1  2  0  0  0  0
  8  5  1  0  0  0  0
  9 10  1  0  0  0  0
  9 11  1  0  0  0  0
  9 12  1  1  0  0  0
 10 11  1  0  0  0  0
 10 13  1  0  0  0  0
 11 15  1  1  0  0  0
 14 10  1  0  0  0  0
 16 17  1  0  0  0  0
 16 25  1  0  0  0  0
 17 11  1  0  0  0  0
 18 19  1  0  0  0  0
 18 17  2  0  0  0  0
 20 18  1  0  0  0  0
 21 20  1  0  0  0  0
 22 20  2  0  0  0  0
 22 23  1  0  0  0  0
 23 16  2  0  0  0  0
 25 24  3  0  0  0  0
 26  1  1  0  0  0  0
 26 27  2  0  0  0  0
 29 30  1  0  0  0  0
 29 28  1  0  0  0  0
 30 26  1  0  0  0  0
 31 35  1  0  0  0  0
 31 30  2  0  0  0  0
 32 31  1  0  0  0  0
 33 32  2  0  0  0  0
 33 34  1  0  0  0  0
 34 29  2  0  0  0  0
 36 32  1  0  0  0  0
 37 33  1  0  0  0  0
 38 34  1  0  0  0  0
 40 38  1  0  0  0  0
 40 43  1  0  0  0  0
 40 39  2  0  0  0  0
 41 40  1  0  0  0  0
 42 41  1  0  0  0  0
 43 44  1  0  0  0  0
M  END
>  <minimizedAffinity>
-6.18267202

$$$$

 OpenBabel03242523253D

 44 47  0  0  1  0  0  0  0  0999 V2000
   37.9250   29.8980   37.6980 C   0  0  0  0  0  0  0  0  0  0  0  0
   37.2770   29.3430   38.7160 C   0  0  0  0  0  0  0  0  0  0  0  0
   37.6180   28.0610   38.9830 C   0  0  0  0  0  0  0  0  0  0  0  0
   38.6000   27.4390   38.1860 N   0  0  0  0  0  0  0  0  0  0  0  0
   39.2070   28.0480   37.1840 C   0  0  0  0  0  0  0  0  0  0  0  0
   38.8820   29.3420   36.8920 N   0  0  0  0  0  0  0  0  0  0  0  0
   37.3380   27.2860   39.6550 H   0  0  0  0  0  0  0  0  0  0  0  0
   39.9720   27.5120   36.5880 H   0  0  0  0  0  0  0  0  0  0  0  0
   36.2270   29.9020   39.4790 C   0  0  1  0  0  0  0  0  0  0  0  0
   35.2320   29.3140   40.1820 C   0  0  0  0  0  0  0  0  0  0  0  0
   36.3210   29.9540   41.0230 C   0  0  1  0  0  0  0  0  0  0  0  0
   35.8530   30.8590   39.0150 H   0  0  0  0  0  0  0  0  0  0  0  0
   34.2160   29.7630   40.4570 H   0  0  0  0  0  0  0  0  0  0  0  0
   35.0700   28.2350   40.0930 H   0  0  0  0  0  0  0  0  0  0  0  0
   36.0840   30.9760   41.4490 H   0  0  0  0  0  0  0  0  0  0  0  0
   38.1420   29.0610   42.4790 C   0  0  0  0  0  0  0  0  0  0  0  0
   36.8890   28.9560   41.9030 C   0  0  0  0  0  0  0  0  0  0  0  0
   36.3340   27.7680   42.3440 C   0  0  0  0  0  0  0  0  0  0  0  0
   35.3160   27.5020   42.0130 H   0  0  0  0  0  0  0  0  0  0  0  0
   36.7900   26.7880   43.1720 C   0  0  0  0  0  0  0  0  0  0  0  0
   36.2860   25.9040   43.4550 H   0  0  0  0  0  0  0  0  0  0  0  0
   38.0500   27.0050   43.6790 C   0  0  0  0  0  3  0  0  0  0  0  0
   38.7470   28.1400   43.3450 C   0  0  0  0  0  3  0  0  0  0  0  0
   39.6300   31.1490   42.1550 N   0  0  0  0  0  0  0  0  0  0  0  0
   38.9600   30.2230   42.2920 C   0  0  0  0  0  0  0  0  0  0  0  0
   37.7980   31.2880   37.2180 C   0  0  0  0  0  0  0  0  0  0  0  0
   37.4870   32.1300   36.4110 O   0  0  0  0  0  0  0  0  0  0  0  0
   40.8400   31.7740   37.3580 Cl  0  0  0  0  0  0  0  0  0  0  0  0
   39.7010   32.5170   38.4780 C   0  0  0  0  0  0  0  0  0  0  0  0
   38.3350   32.1990   38.2690 C   0  0  0  0  0  0  0  0  0  0  0  0
   37.5510   32.8420   39.1950 C   0  0  0  0  0  0  0  0  0  0  0  0
   37.8660   33.6560   40.1840 C   0  0  0  0  0  0  0  0  0  0  0  0
   39.2010   33.9280   40.3380 C   0  0  0  0  0  0  0  0  0  0  0  0
   40.1260   33.3640   39.4920 C   0  0  0  0  0  0  0  0  0  0  0  0
   36.4440   32.7100   39.1240 H   0  0  0  0  0  0  0  0  0  0  0  0
   37.1730   34.1270   40.8840 H   0  0  0  0  0  0  0  0  0  0  0  0
   39.5220   34.6060   41.1510 H   0  0  0  0  0  0  0  0  0  0  0  0
   41.4300   33.7050   39.7380 O   0  0  0  0  0  0  0  0  0  0  0  0
   43.9770   33.1990   40.0970 O   0  0  0  0  0  0  0  0  0  0  0  0
   42.6030   32.9440   40.6750 P   0  0  0  0  0  0  0  0  0  0  0  0
   42.4930   33.5050   42.2690 O   0  0  0  0  0  0  0  0  0  0  0  0
   42.6660   34.4930   42.2810 H   0  0  0  0  0  0  0  0  0  0  0  0
   42.3120   31.2690   40.7640 O   0  0  0  0  0  0  0  0  0  0  0  0
   41.3790   31.0770   40.4990 H   0  0  0  0  0  0  0  0  0  0  0  0
  1  2  1  0  0  0  0
  2  3  2  0  0  0  0
  2  9  1  0  0  0  0
  3  7  1  0  0  0  0
  4  3  1  0  0  0  0
  5  4  2  0  0  0  0
  6  5  1  0  0  0  0
  6  1  2  0  0  0  0
  8  5  1  0  0  0  0
  9 12  1  6  0  0  0
  9 10  1  0  0  0  0
  9 11  1  0  0  0  0
 10 13  1  0  0  0  0
 10 11  1  0  0  0  0
 11 15  1  1  0  0  0
 11 17  1  0  0  0  0
 14 10  1  0  0  0  0
 16 23  1  0  0  0  0
 17 18  1  0  0  0  0
 17 16  2  0  0  0  0
 18 20  2  0  0  0  0
 19 18  1  0  0  0  0
 20 21  1  0  0  0  0
 20 22  1  0  0  0  0
 23 22  2  0  0  0  0
 24 25  3  0  0  0  0
 25 16  1  0  0  0  0
 26  1  1  0  0  0  0
 26 30  1  0  0  0  0
 27 26  2  0  0  0  0
 28 29  1  0  0  0  0
 29 34  1  0  0  0  0
 30 29  2  0  0  0  0
 30 31  1  0  0  0  0
 31 32  2  0  0  0  0
 32 33  1  0  0  0  0
 32 36  1  0  0  0  0
 33 37  1  0  0  0  0
 34 38  1  0  0  0  0
 34 33  2  0  0  0  0
 35 31  1  0  0  0  0
 38 40  1  0  0  0  0
 39 40  2  0  0  0  0
 40 43  1  0  0  0  0
 40 41  1  0  0  0  0
 41 42  1  0  0  0  0
 44 43  1  0  0  0  0
M  END
>  <minimizedAffinity>
-6.16449404

$$$$
