
 OpenBabel03252508393D

 42 45  0  0  0  0  0  0  0  0999 V2000
   45.2460   33.9420   40.6570 C   0  0  0  0  0  0  0  0  0  0  0  0
   44.1930   33.6260   39.8240 C   0  0  0  0  0  0  0  0  0  0  0  0
   44.4890   33.1480   38.5830 C   0  0  0  0  0  0  0  0  0  0  0  0
   45.7620   32.9640   38.1230 C   0  0  0  0  0  0  0  0  0  0  0  0
   46.7920   33.2830   38.9640 C   0  0  0  0  0  0  0  0  0  0  0  0
   46.5570   33.7750   40.2410 C   0  0  0  0  0  0  0  0  0  0  0  0
   43.6640   32.9000   37.9290 H   0  0  0  0  0  0  0  0  0  0  0  0
   45.9170   32.5810   37.1240 H   0  0  0  0  0  0  0  0  0  0  0  0
   47.7990   33.1330   38.5870 H   0  0  0  0  0  0  0  0  0  0  0  0
   40.9060   35.2270   40.7570 C   0  0  0  0  0  0  0  0  0  0  0  0
   42.2000   35.0650   40.2260 C   0  0  0  0  0  0  0  0  0  0  0  0
   42.8580   33.8370   40.3560 C   0  0  0  0  0  0  0  0  0  0  0  0
   42.1550   32.8810   41.0070 N   0  0  0  0  0  0  0  0  0  0  0  0
   40.9330   33.0460   41.5040 C   0  0  0  0  0  0  0  0  0  0  0  0
   40.3140   34.2270   41.3730 N   0  0  0  0  0  0  0  0  0  0  0  0
   40.2870   36.4960   40.5970 N   0  0  0  0  0  0  0  0  0  0  0  0
   42.7050   35.8750   39.7160 H   0  0  0  0  0  0  0  0  0  0  0  0
   40.4780   32.1970   42.0050 H   0  0  0  0  0  0  0  0  0  0  0  0
   40.8240   37.0930   41.2640 H   0  0  0  0  0  0  0  0  0  0  0  0
   39.4900   36.6230   39.9230 H   0  0  0  0  0  0  0  0  0  0  0  0
   47.7210   34.0860   41.0540 C   0  0  0  0  0  0  0  0  0  0  0  0
   48.1390   35.3930   41.0110 C   0  0  0  0  0  0  0  0  0  0  0  0
   49.2350   35.8780   41.7260 C   0  0  0  0  0  0  0  0  0  0  0  0
   49.9240   34.9860   42.5100 C   0  0  0  0  0  0  0  0  0  0  0  0
   49.5210   33.6690   42.5670 C   0  0  0  0  0  0  0  0  0  0  0  0
   48.4260   33.2180   41.8440 C   0  0  0  0  0  0  0  0  0  0  0  0
   47.6480   36.1740   40.4120 H   0  0  0  0  0  0  0  0  0  0  0  0
   49.5500   36.9100   41.6800 H   0  0  0  0  0  0  0  0  0  0  0  0
   50.7920   35.2680   43.1030 H   0  0  0  0  0  0  0  0  0  0  0  0
   50.0590   32.9510   43.1840 H   0  0  0  0  0  0  0  0  0  0  0  0
   47.3590   31.4770   43.1040 C   0  0  0  0  0  0  0  0  0  0  0  0
   48.0000   31.8230   41.9060 C   0  0  0  0  0  0  0  0  0  0  0  0
   48.1380   30.8290   40.9900 C   0  0  0  0  0  0  0  0  0  0  0  0
   48.6380   31.1260   40.0810 H   0  0  0  0  0  0  0  0  0  0  0  0
   47.6710   29.5530   41.2260 C   0  0  0  0  0  0  0  0  0  0  0  0
   47.8330   28.8360   40.4270 H   0  0  0  0  0  0  0  0  0  0  0  0
   47.0380   29.2100   42.4050 C   0  0  0  0  0  3  0  0  0  0  0  0
   46.9010   30.2160   43.3300 C   0  0  0  0  0  3  0  0  0  0  0  0
   46.9660   33.2040   45.0260 N   0  0  0  0  0  0  0  0  0  0  0  0
   47.1490   32.4450   44.1710 C   0  0  0  0  0  0  0  0  0  0  0  0
   44.8290   34.8810   43.0490 N   0  0  0  0  0  0  0  0  0  0  0  0
   45.0260   34.4600   41.9840 C   0  0  0  0  0  0  0  0  0  0  0  0
  1 42  1  0  0  0  0
  2 12  1  0  0  0  0
  2  1  2  0  0  0  0
  3  2  1  0  0  0  0
  4  3  2  0  0  0  0
  4  5  1  0  0  0  0
  5  6  2  0  0  0  0
  6  1  1  0  0  0  0
  6 21  1  0  0  0  0
  7  3  1  0  0  0  0
  8  4  1  0  0  0  0
  9  5  1  0  0  0  0
 10 15  1  0  0  0  0
 11 12  1  0  0  0  0
 11 10  2  0  0  0  0
 12 13  2  0  0  0  0
 13 14  1  0  0  0  0
 14 18  1  0  0  0  0
 15 14  2  0  0  0  0
 16 10  1  0  0  0  0
 16 19  1  0  0  0  0
 17 11  1  0  0  0  0
 20 16  1  0  0  0  0
 21 26  1  0  0  0  0
 22 21  2  0  0  0  0
 22 23  1  0  0  0  0
 23 24  2  0  0  0  0
 24 25  1  0  0  0  0
 24 29  1  0  0  0  0
 25 30  1  0  0  0  0
 26 32  1  0  0  0  0
 26 25  2  0  0  0  0
 27 22  1  0  0  0  0
 28 23  1  0  0  0  0
 31 38  1  0  0  0  0
 31 40  1  0  0  0  0
 32 31  2  0  0  0  0
 33 35  2  0  0  0  0
 33 32  1  0  0  0  0
 34 33  1  0  0  0  0
 35 37  1  0  0  0  0
 36 35  1  0  0  0  0
 37 38  2  0  0  0  0
 40 39  3  0  0  0  0
 42 41  3  0  0  0  0
M  END
>  <minimizedAffinity>
-6.09661484

>  <minimizedRMSD>
0.403589517

$$$$
