
 OpenBabel03252502083D

 49 53  0  0  0  0  0  0  0  0999 V2000
   45.6640   33.7760   45.3010 C   0  0  0  0  0  0  0  0  0  0  0  0
   44.8700   34.7740   45.7090 N   0  0  0  0  0  0  0  0  0  0  0  0
   44.5410   35.8390   44.9810 C   0  0  0  0  0  0  0  0  0  0  0  0
   45.0210   35.9720   43.7200 N   0  0  0  0  0  0  0  0  0  0  0  0
   45.8260   35.0410   43.1950 C   0  0  0  0  0  0  0  0  0  0  0  0
   46.3200   35.1680   41.9160 C   0  0  0  0  0  0  0  0  0  0  0  0
   47.1420   34.2290   41.3670 C   0  0  0  0  0  0  0  0  0  0  0  0
   47.4630   33.1360   42.1500 C   0  0  0  0  0  0  0  0  0  0  0  0
   46.9420   33.0500   43.4320 C   0  0  0  0  0  0  0  0  0  0  0  0
   46.1270   33.9610   44.0050 C   0  0  0  0  0  0  0  0  0  0  0  0
   43.8870   36.5820   45.4230 H   0  0  0  0  0  0  0  0  0  0  0  0
   46.0520   36.0340   41.3270 H   0  0  0  0  0  0  0  0  0  0  0  0
   47.5000   34.3800   40.3620 H   0  0  0  0  0  0  0  0  0  0  0  0
   47.5790   31.9850   47.7890 C   0  0  0  0  0  0  0  0  0  0  0  0
   47.0440   30.6950   47.8390 C   0  0  0  0  0  0  0  0  0  0  0  0
   45.9860   30.4310   47.0060 C   0  0  0  0  0  0  0  0  0  0  0  0
   45.5260   31.3850   46.2030 N   0  0  0  0  0  0  0  0  0  0  0  0
   46.0160   32.6050   46.1370 C   0  0  0  0  0  0  0  0  0  0  0  0
   47.0570   32.8890   46.9510 N   0  0  0  0  0  0  0  0  0  0  0  0
   45.4050   29.1850   47.0230 N   0  0  0  0  0  0  0  0  0  0  0  0
   44.1520   28.8470   46.2920 C   0  0  0  0  0  0  0  0  0  0  0  0
   44.0330   27.3490   46.3430 C   0  0  0  0  0  0  0  0  0  0  0  0
   44.7620   27.0030   47.6020 C   0  0  0  0  0  0  0  0  0  0  0  0
   45.8510   28.0140   47.7090 C   0  0  0  0  0  0  0  0  0  0  0  0
   48.4240   32.2400   48.4380 H   0  0  0  0  0  0  0  0  0  0  0  0
   43.2980   29.3900   46.7020 H   0  0  0  0  0  0  0  0  0  0  0  0
   44.3750   29.1230   45.2290 H   0  0  0  0  0  0  0  0  0  0  0  0
   42.9870   27.0070   46.3710 H   0  0  0  0  0  0  0  0  0  0  0  0
   44.5230   26.8500   45.4940 H   0  0  0  0  0  0  0  0  0  0  0  0
   45.1290   25.9540   47.5750 H   0  0  0  0  0  0  0  0  0  0  0  0
   44.0220   27.0560   48.4260 H   0  0  0  0  0  0  0  0  0  0  0  0
   46.7420   27.5970   47.2390 H   0  0  0  0  0  0  0  0  0  0  0  0
   45.9430   28.1470   48.8300 H   0  0  0  0  0  0  0  0  0  0  0  0
   47.6290   29.7910   48.6910 N   0  0  0  0  0  0  0  0  0  0  0  0
   48.2830   29.0180   48.4090 H   0  0  0  0  0  0  0  0  0  0  0  0
   47.5720   29.6630   49.7320 H   0  0  0  0  0  0  0  0  0  0  0  0
   49.6890   32.3940   41.5610 C   0  0  0  0  0  0  0  0  0  0  0  0
   48.3450   32.1520   41.5300 C   0  0  0  0  0  0  0  0  0  0  0  0
   47.8170   31.0210   40.9350 C   0  0  0  0  0  0  0  0  0  0  0  0
   46.7480   30.8730   40.9340 H   0  0  0  0  0  0  0  0  0  0  0  0
   48.6680   30.0980   40.3520 C   0  0  0  0  0  0  0  0  0  0  0  0
   48.3020   29.1980   39.8750 H   0  0  0  0  0  0  0  0  0  0  0  0
   50.0220   30.3710   40.4010 C   0  0  0  0  0  0  0  0  0  0  0  0
   50.5460   31.4870   40.9870 C   0  0  0  0  0  0  0  0  0  0  0  0
   50.6640   34.4850   42.6760 N   0  0  0  0  0  0  0  0  0  0  0  0
   50.2290   33.5600   42.1750 C   0  0  0  0  0  0  0  0  0  0  0  0
   47.3820   31.8480   44.0760 N   0  0  0  0  0  0  0  0  0  0  0  0
   46.6580   31.1430   43.7590 H   0  0  0  0  0  0  0  0  0  0  0  0
   48.1590   31.5840   44.6910 H   0  0  0  0  0  0  0  0  0  0  0  0
  1  2  1  0  0  0  0
  1 18  1  0  0  0  0
  3 11  1  0  0  0  0
  3  2  2  0  0  0  0
  4  3  1  0  0  0  0
  5  4  2  0  0  0  0
  5 10  1  0  0  0  0
  6  5  1  0  0  0  0
  7  6  2  0  0  0  0
  7  8  1  0  0  0  0
  8  9  2  0  0  0  0
  9 10  1  0  0  0  0
  9 47  1  0  0  0  0
 10  1  2  0  0  0  0
 12  6  1  0  0  0  0
 13  7  1  0  0  0  0
 14 15  1  0  0  0  0
 14 25  1  0  0  0  0
 15 34  1  0  0  0  0
 16 20  1  0  0  0  0
 16 15  2  0  0  0  0
 17 16  1  0  0  0  0
 18 17  2  0  0  0  0
 18 19  1  0  0  0  0
 19 14  2  0  0  0  0
 20 24  1  0  0  0  0
 21 22  1  0  0  0  0
 21 26  1  0  0  0  0
 21 20  1  0  0  0  0
 22 28  1  0  0  0  0
 22 23  1  0  0  0  0
 23 24  1  0  0  0  0
 23 31  1  0  0  0  0
 24 33  1  0  0  0  0
 27 21  1  0  0  0  0
 29 22  1  0  0  0  0
 30 23  1  0  0  0  0
 32 24  1  0  0  0  0
 34 36  1  0  0  0  0
 35 34  1  0  0  0  0
 37 46  1  0  0  0  0
 38 37  1  0  0  0  0
 38  8  1  0  0  0  0
 39 38  2  0  0  0  0
 40 39  1  0  0  0  0
 41 43  2  0  0  0  0
 41 39  1  0  0  0  0
 42 41  1  0  0  0  0
 43 44  1  0  0  0  0
 44 37  2  0  0  0  0
 46 45  3  0  0  0  0
 47 49  1  0  0  0  0
 48 47  1  0  0  0  0
M  END
>  <minimizedAffinity>
-6.93878984

>  <minimizedRMSD>
0.615059853

$$$$
