
 OpenBabel03252506053D

 44 48  0  0  0  0  0  0  0  0999 V2000
   44.8420   35.9740   43.1920 Cl  0  0  0  0  0  0  0  0  0  0  0  0
   45.5800   34.7360   44.1470 C   0  0  0  0  0  0  0  0  0  0  0  0
   46.6800   34.0480   43.6650 C   0  0  0  0  0  0  0  0  0  0  0  0
   47.1830   33.0830   44.5150 C   0  0  0  0  0  0  0  0  0  0  0  0
   46.6830   32.7730   45.7580 C   0  0  0  0  0  0  0  0  0  0  0  0
   45.5970   33.4760   46.1940 C   0  0  0  0  0  0  0  0  0  0  0  0
   44.9840   33.0560   47.7840 Cl  0  0  0  0  0  0  0  0  0  0  0  0
   45.0460   34.4490   45.4010 C   0  0  0  0  0  0  0  0  0  0  0  0
   48.0570   32.5410   44.1230 H   0  0  0  0  0  0  0  0  0  0  0  0
   44.1850   34.9890   45.7770 H   0  0  0  0  0  0  0  0  0  0  0  0
   47.3720   31.7080   46.4990 C   0  0  0  0  0  0  0  0  0  0  0  0
   47.5030   30.4220   46.0250 C   0  0  0  0  0  0  0  0  0  0  0  0
   48.1430   29.4120   46.7030 C   0  0  0  0  0  0  0  0  0  0  0  0
   48.6960   29.6910   47.9440 C   0  0  0  0  0  0  0  0  0  0  0  0
   49.3160   28.6840   48.5870 N   0  0  0  0  0  0  0  0  0  0  0  0
   49.8830   28.8550   49.7920 C   0  0  0  0  0  0  0  0  0  0  0  0
   49.7980   30.1250   50.3500 C   0  0  0  0  0  0  0  0  0  0  0  0
   49.1650   31.1510   49.6940 C   0  0  0  0  0  0  0  0  0  0  0  0
   48.5890   30.9550   48.4520 C   0  0  0  0  0  0  0  0  0  0  0  0
   47.9410   31.9510   47.7520 C   0  0  0  0  0  0  0  0  0  0  0  0
   47.0730   30.1980   45.0570 H   0  0  0  0  0  0  0  0  0  0  0  0
   48.2010   28.4340   46.2610 H   0  0  0  0  0  0  0  0  0  0  0  0
   50.3750   28.0350   50.2900 H   0  0  0  0  0  0  0  0  0  0  0  0
   50.2620   30.2460   51.3260 H   0  0  0  0  0  0  0  0  0  0  0  0
   49.1060   32.1360   50.1380 H   0  0  0  0  0  0  0  0  0  0  0  0
   47.8700   32.9420   48.1770 H   0  0  0  0  0  0  0  0  0  0  0  0
   48.7320   35.5330   41.0550 C   0  0  0  0  0  0  0  0  0  0  0  0
   48.3510   34.8220   39.9070 C   0  0  0  0  0  0  0  0  0  0  0  0
   47.3750   33.8180   40.0310 C   0  0  0  0  0  0  0  0  0  0  0  0
   46.8940   33.6390   41.2760 N   0  0  0  0  0  0  0  0  0  0  0  0
   47.2620   34.3200   42.3650 C   0  0  0  0  0  0  0  0  0  0  0  0
   48.1880   35.2770   42.2650 N   0  0  0  0  0  0  0  0  0  0  0  0
   49.4730   36.2800   40.9090 H   0  0  0  0  0  0  0  0  0  0  0  0
   48.7840   35.0310   38.9640 H   0  0  0  0  0  0  0  0  0  0  0  0
   47.7430   32.0350   38.4330 C   0  0  0  0  0  0  0  0  0  0  0  0
   46.9130   33.0280   38.9040 C   0  0  0  0  0  0  0  0  0  0  0  0
   45.6950   33.2300   38.2940 C   0  0  0  0  0  0  0  0  0  0  0  0
   45.0270   33.9840   38.6260 H   0  0  0  0  0  0  0  0  0  0  0  0
   45.2580   32.4650   37.2100 C   0  0  0  0  0  0  0  0  0  0  0  0
   44.3160   32.6130   36.7310 H   0  0  0  0  0  0  0  0  0  0  0  0
   46.0760   31.4610   36.7200 C   0  0  0  0  0  3  0  0  0  0  0  0
   47.3000   31.2720   37.3460 C   0  0  0  0  0  3  0  0  0  0  0  0
   50.0620   31.5330   39.4720 N   0  0  0  0  0  0  0  0  0  0  0  0
   49.0340   31.7510   39.0060 C   0  0  0  0  0  0  0  0  0  0  0  0
  1  2  1  0  0  0  0
  2  8  1  0  0  0  0
  3  2  2  0  0  0  0
  3  4  1  0  0  0  0
  4  5  2  0  0  0  0
  5  6  1  0  0  0  0
  5 11  1  0  0  0  0
  6  7  1  0  0  0  0
  8 10  1  0  0  0  0
  8  6  2  0  0  0  0
  9  4  1  0  0  0  0
 11 20  1  0  0  0  0
 12 11  2  0  0  0  0
 12 13  1  0  0  0  0
 13 14  2  0  0  0  0
 14 19  1  0  0  0  0
 14 15  1  0  0  0  0
 15 16  2  0  0  0  0
 16 23  1  0  0  0  0
 16 17  1  0  0  0  0
 17 24  1  0  0  0  0
 18 25  1  0  0  0  0
 18 17  2  0  0  0  0
 19 18  1  0  0  0  0
 20 26  1  0  0  0  0
 20 19  2  0  0  0  0
 21 12  1  0  0  0  0
 22 13  1  0  0  0  0
 27 32  1  0  0  0  0
 28 29  1  0  0  0  0
 28 27  2  0  0  0  0
 29 30  2  0  0  0  0
 30 31  1  0  0  0  0
 31  3  1  0  0  0  0
 32 31  2  0  0  0  0
 33 27  1  0  0  0  0
 34 28  1  0  0  0  0
 35 36  1  0  0  0  0
 35 44  1  0  0  0  0
 36 29  1  0  0  0  0
 37 38  1  0  0  0  0
 37 36  2  0  0  0  0
 39 37  1  0  0  0  0
 40 39  1  0  0  0  0
 41 39  2  0  0  0  0
 41 42  1  0  0  0  0
 42 35  2  0  0  0  0
 44 43  3  0  0  0  0
M  END
>  <minimizedAffinity>
-6.89203358

>  <minimizedRMSD>
1.16891086

$$$$
