
 OpenBabel03252500373D

 47 50  0  0  1  0  0  0  0  0999 V2000
   45.7930   34.9460   42.6640 C   0  0  1  0  0  0  0  0  0  0  0  0
   44.7050   34.3710   43.3260 C   0  0  0  0  0  0  0  0  0  0  0  0
   45.8830   34.6000   44.1790 C   0  0  1  0  0  0  0  0  0  0  0  0
   45.8150   36.0500   42.4370 H   0  0  0  0  0  0  0  0  0  0  0  0
   43.7760   34.9710   43.5000 H   0  0  0  0  0  0  0  0  0  0  0  0
   44.4360   33.2920   43.1410 H   0  0  0  0  0  0  0  0  0  0  0  0
   46.0330   35.5130   44.7740 H   0  0  0  0  0  0  0  0  0  0  0  0
   46.2960   33.0900   41.0700 C   0  0  0  0  0  0  0  0  0  0  0  0
   46.7640   34.2500   41.7650 C   0  0  0  0  0  0  0  0  0  0  0  0
   48.0450   34.6730   41.5970 C   0  0  0  0  0  0  0  0  0  0  0  0
   48.8320   33.9330   40.7420 N   0  0  0  0  0  0  0  0  0  0  0  0
   48.3780   32.8410   40.0920 C   0  0  0  0  0  0  0  0  0  0  0  0
   47.0890   32.3830   40.2360 N   0  0  0  0  0  0  0  0  0  0  0  0
   45.2930   32.7590   41.2030 H   0  0  0  0  0  0  0  0  0  0  0  0
   48.4100   35.5370   42.1090 H   0  0  0  0  0  0  0  0  0  0  0  0
   49.4050   32.4840   37.8800 C   0  0  0  0  0  0  0  0  0  0  0  0
   49.2840   32.1210   39.2050 C   0  0  0  0  0  0  0  0  0  0  0  0
   50.0080   31.0750   39.7370 C   0  0  0  0  0  0  0  0  0  0  0  0
   49.9640   30.7410   40.7510 H   0  0  0  0  0  0  0  0  0  0  0  0
   50.8780   30.3720   38.9170 C   0  0  0  0  0  0  0  0  0  0  0  0
   51.4990   29.5280   39.2360 H   0  0  0  0  0  0  0  0  0  0  0  0
   51.0380   30.6980   37.5670 C   0  0  0  0  0  3  0  0  0  0  0  0
   50.2890   31.7570   37.0790 C   0  0  0  0  0  3  0  0  0  0  0  0
   48.0190   34.4440   36.9110 N   0  0  0  0  0  0  0  0  0  0  0  0
   48.6410   33.5740   37.3520 C   0  0  0  0  0  0  0  0  0  0  0  0
   46.7320   33.4630   44.6100 C   0  0  0  0  0  0  0  0  0  0  0  0
   47.5910   33.8600   45.1710 H   0  0  0  0  0  0  0  0  0  0  0  0
   47.1230   32.9000   43.7380 H   0  0  0  0  0  0  0  0  0  0  0  0
   45.9490   32.6520   45.4710 N   0  0  0  0  0  0  0  0  0  0  0  0
   45.7850   33.0560   46.7990 C   0  0  0  0  0  0  0  0  0  0  0  0
   46.8810   32.4670   47.7100 C   0  0  0  0  0  0  0  0  0  0  0  0
   46.6430   30.9800   47.7560 C   0  0  0  0  0  0  0  0  0  0  0  0
   46.7700   30.4820   46.3440 C   0  0  0  0  0  0  0  0  0  0  0  0
   45.9850   31.2590   45.3240 C   0  0  2  0  0  0  0  0  0  0  0  0
   44.8610   32.5120   47.1680 H   0  0  0  0  0  0  0  0  0  0  0  0
   45.5550   34.0950   47.0250 H   0  0  0  0  0  0  0  0  0  0  0  0
   47.8740   32.6700   47.2980 H   0  0  0  0  0  0  0  0  0  0  0  0
   46.7220   32.9140   48.7060 H   0  0  0  0  0  0  0  0  0  0  0  0
   47.4880   30.5340   48.3290 H   0  0  0  0  0  0  0  0  0  0  0  0
   45.6910   30.7230   48.2330 H   0  0  0  0  0  0  0  0  0  0  0  0
   47.8130   30.4310   46.0380 H   0  0  0  0  0  0  0  0  0  0  0  0
   46.3850   29.4250   46.3310 H   0  0  0  0  0  0  0  0  0  0  0  0
   44.9320   30.8660   45.3700 H   0  0  0  0  0  0  0  0  0  0  0  0
   46.5080   30.8460   43.9550 C   0  0  0  0  0  0  0  0  0  0  0  0
   47.5980   31.0700   43.8680 H   0  0  0  0  0  0  0  0  0  0  0  0
   46.3020   29.7640   43.8020 H   0  0  0  0  0  0  0  0  0  0  0  0
   45.9110   31.3650   43.1720 H   0  0  0  0  0  0  0  0  0  0  0  0
  1  4  1  6  0  0  0
  1  2  1  0  0  0  0
  1  3  1  0  0  0  0
  2  5  1  0  0  0  0
  2  3  1  0  0  0  0
  3 26  1  0  0  0  0
  3  7  1  1  0  0  0
  6  2  1  0  0  0  0
  8 14  1  0  0  0  0
  8  9  1  0  0  0  0
  9  1  1  0  0  0  0
 10  9  2  0  0  0  0
 10 15  1  0  0  0  0
 11 10  1  0  0  0  0
 12 13  1  0  0  0  0
 12 11  2  0  0  0  0
 13  8  2  0  0  0  0
 16 17  1  0  0  0  0
 17 18  2  0  0  0  0
 17 12  1  0  0  0  0
 18 19  1  0  0  0  0
 20 21  1  0  0  0  0
 20 18  1  0  0  0  0
 22 20  2  0  0  0  0
 23 22  1  0  0  0  0
 23 16  2  0  0  0  0
 24 25  3  0  0  0  0
 25 16  1  0  0  0  0
 26 27  1  0  0  0  0
 26 29  1  0  0  0  0
 28 26  1  0  0  0  0
 29 30  1  0  0  0  0
 30 36  1  0  0  0  0
 30 35  1  0  0  0  0
 30 31  1  0  0  0  0
 31 32  1  0  0  0  0
 31 38  1  0  0  0  0
 32 40  1  0  0  0  0
 32 39  1  0  0  0  0
 33 32  1  0  0  0  0
 34 43  1  1  0  0  0
 34 29  1  0  0  0  0
 34 33  1  0  0  0  0
 37 31  1  0  0  0  0
 41 33  1  0  0  0  0
 42 33  1  0  0  0  0
 44 34  1  0  0  0  0
 45 44  1  0  0  0  0
 46 44  1  0  0  0  0
 47 44  1  0  0  0  0
M  END
>  <minimizedAffinity>
-4.56814528

>  <minimizedRMSD>
3.28104663

$$$$
