
 OpenBabel03242512493D

 31 33  0  0  1  0  0  0  0  0999 V2000
   37.6160   29.5720   41.9130 N   0  0  0  0  0  0  0  0  0  0  0  0
   38.1350   29.2570   43.2560 C   0  0  0  0  0  0  0  0  0  0  0  0
   38.0640   27.7590   43.1790 C   0  0  0  0  0  0  0  0  0  0  0  0
   36.6410   27.5640   42.6950 C   0  0  0  0  0  0  0  0  0  0  0  0
   36.4730   28.7190   41.7730 C   0  0  2  0  0  0  0  0  0  0  0  0
   39.1730   29.6480   43.2920 H   0  0  0  0  0  0  0  0  0  0  0  0
   37.4690   29.7080   44.0090 H   0  0  0  0  0  0  0  0  0  0  0  0
   38.8430   27.4310   42.5070 H   0  0  0  0  0  0  0  0  0  0  0  0
   38.2160   27.2750   44.1640 H   0  0  0  0  0  0  0  0  0  0  0  0
   36.0290   27.5830   43.6200 H   0  0  0  0  0  0  0  0  0  0  0  0
   36.4620   26.5730   42.2580 H   0  0  0  0  0  0  0  0  0  0  0  0
   35.6790   29.3590   42.3340 H   0  0  0  0  0  0  0  0  0  0  0  0
   39.5530   31.2980   39.2690 C   0  0  0  0  0  0  0  0  0  0  0  0
   39.1910   30.3160   40.1830 C   0  0  0  0  0  0  0  0  0  0  0  0
   38.0710   30.4880   40.9760 C   0  0  0  0  0  0  0  0  0  0  0  0
   37.3730   31.6530   40.8020 N   0  0  0  0  0  0  0  0  0  0  0  0
   37.7130   32.6080   39.9260 C   0  0  0  0  0  0  0  0  0  0  0  0
   38.8130   32.4330   39.1490 N   0  0  0  0  0  0  0  0  0  0  0  0
   40.4160   31.2420   38.6100 H   0  0  0  0  0  0  0  0  0  0  0  0
   39.8170   29.4790   40.2180 H   0  0  0  0  0  0  0  0  0  0  0  0
   37.0730   33.4980   39.8790 H   0  0  0  0  0  0  0  0  0  0  0  0
   36.3970   27.6910   39.4970 C   0  0  0  0  0  0  0  0  0  0  0  0
   35.8770   28.5010   40.4950 C   0  0  0  0  0  0  0  0  0  0  0  0
   34.6870   29.1050   40.0540 C   0  0  0  0  0  0  0  0  0  0  0  0
   34.1980   29.7700   40.7850 H   0  0  0  0  0  0  0  0  0  0  0  0
   34.0610   28.9720   38.8380 C   0  0  0  0  0  0  0  0  0  0  0  0
   33.1440   29.5080   38.6520 H   0  0  0  0  0  0  0  0  0  0  0  0
   34.6700   28.1420   37.9250 C   0  0  0  0  0  3  0  0  0  0  0  0
   35.8410   27.4970   38.2490 C   0  0  0  0  0  3  0  0  0  0  0  0
   38.5710   26.3540   39.9410 N   0  0  0  0  0  0  0  0  0  0  0  0
   37.6090   26.9450   39.7560 C   0  0  0  0  0  0  0  0  0  0  0  0
  1  2  1  0  0  0  0
  2  6  1  0  0  0  0
  2  7  1  0  0  0  0
  3  2  1  0  0  0  0
  3  9  1  0  0  0  0
  4  3  1  0  0  0  0
  4 10  1  0  0  0  0
  5  1  1  0  0  0  0
  5 12  1  1  0  0  0
  5  4  1  0  0  0  0
  8  3  1  0  0  0  0
 11  4  1  0  0  0  0
 13 14  1  0  0  0  0
 14 20  1  0  0  0  0
 14 15  2  0  0  0  0
 15  1  1  0  0  0  0
 16 15  1  0  0  0  0
 17 16  2  0  0  0  0
 18 13  2  0  0  0  0
 18 17  1  0  0  0  0
 19 13  1  0  0  0  0
 21 17  1  0  0  0  0
 22 31  1  0  0  0  0
 22 23  1  0  0  0  0
 23  5  1  0  0  0  0
 24 23  2  0  0  0  0
 24 25  1  0  0  0  0
 26 24  1  0  0  0  0
 27 26  1  0  0  0  0
 28 29  1  0  0  0  0
 28 26  2  0  0  0  0
 29 22  2  0  0  0  0
 31 30  3  0  0  0  0
M  END
>  <minimizedAffinity>
-5.00780296

$$$$

 OpenBabel03242512493D

 31 33  0  0  1  0  0  0  0  0999 V2000
   37.4760   29.9640   39.1370 N   0  0  0  0  0  0  0  0  0  0  0  0
   37.0670   31.1720   38.4000 C   0  0  0  0  0  0  0  0  0  0  0  0
   37.2290   32.1760   39.5050 C   0  0  0  0  0  0  0  0  0  0  0  0
   36.4590   31.4990   40.6220 C   0  0  0  0  0  0  0  0  0  0  0  0
   36.7790   30.0660   40.3860 C   0  0  2  0  0  0  0  0  0  0  0  0
   37.8000   31.3020   37.5760 H   0  0  0  0  0  0  0  0  0  0  0  0
   36.0310   31.0400   38.0500 H   0  0  0  0  0  0  0  0  0  0  0  0
   38.2870   32.3090   39.6710 H   0  0  0  0  0  0  0  0  0  0  0  0
   36.7800   33.1580   39.2560 H   0  0  0  0  0  0  0  0  0  0  0  0
   35.4050   31.7980   40.4520 H   0  0  0  0  0  0  0  0  0  0  0  0
   36.7060   31.8870   41.6190 H   0  0  0  0  0  0  0  0  0  0  0  0
   35.7440   29.6380   40.0700 H   0  0  0  0  0  0  0  0  0  0  0  0
   40.4380   27.8840   38.3440 C   0  0  0  0  0  0  0  0  0  0  0  0
   39.6940   28.9870   38.7450 C   0  0  0  0  0  0  0  0  0  0  0  0
   38.3120   28.9270   38.7520 C   0  0  0  0  0  0  0  0  0  0  0  0
   37.7520   27.7440   38.3490 N   0  0  0  0  0  0  0  0  0  0  0  0
   38.4570   26.6740   37.9590 C   0  0  0  0  0  0  0  0  0  0  0  0
   39.8140   26.7390   37.9550 N   0  0  0  0  0  0  0  0  0  0  0  0
   41.5230   27.8490   38.3100 H   0  0  0  0  0  0  0  0  0  0  0  0
   40.2500   29.8300   39.0200 H   0  0  0  0  0  0  0  0  0  0  0  0
   37.8930   25.7830   37.6580 H   0  0  0  0  0  0  0  0  0  0  0  0
   38.2820   29.4220   42.2750 C   0  0  0  0  0  0  0  0  0  0  0  0
   37.1480   29.2490   41.4960 C   0  0  0  0  0  0  0  0  0  0  0  0
   36.4250   28.1280   41.9400 C   0  0  0  0  0  0  0  0  0  0  0  0
   35.5020   27.9110   41.3780 H   0  0  0  0  0  0  0  0  0  0  0  0
   36.7200   27.2770   42.9770 C   0  0  0  0  0  0  0  0  0  0  0  0
   36.0570   26.4550   43.1930 H   0  0  0  0  0  0  0  0  0  0  0  0
   37.8720   27.5460   43.6800 C   0  0  0  0  0  3  0  0  0  0  0  0
   38.6590   28.6200   43.3330 C   0  0  0  0  0  3  0  0  0  0  0  0
   39.8310   31.4430   41.8000 N   0  0  0  0  0  0  0  0  0  0  0  0
   39.1550   30.5430   42.0090 C   0  0  0  0  0  0  0  0  0  0  0  0
  1  5  1  0  0  0  0
  2  1  1  0  0  0  0
  2  3  1  0  0  0  0
  3  8  1  0  0  0  0
  3  4  1  0  0  0  0
  4 11  1  0  0  0  0
  5 12  1  6  0  0  0
  5  4  1  0  0  0  0
  5 23  1  0  0  0  0
  6  2  1  0  0  0  0
  7  2  1  0  0  0  0
  9  3  1  0  0  0  0
 10  4  1  0  0  0  0
 13 14  1  0  0  0  0
 14 15  2  0  0  0  0
 14 20  1  0  0  0  0
 15  1  1  0  0  0  0
 16 15  1  0  0  0  0
 17 16  2  0  0  0  0
 18 17  1  0  0  0  0
 18 13  2  0  0  0  0
 19 13  1  0  0  0  0
 21 17  1  0  0  0  0
 22 29  1  0  0  0  0
 23 24  1  0  0  0  0
 23 22  2  0  0  0  0
 24 26  2  0  0  0  0
 25 24  1  0  0  0  0
 26 27  1  0  0  0  0
 26 28  1  0  0  0  0
 29 28  2  0  0  0  0
 30 31  3  0  0  0  0
 31 22  1  0  0  0  0
M  END
>  <minimizedAffinity>
-4.55777693

$$$$

 OpenBabel03242512493D

 31 33  0  0  1  0  0  0  0  0999 V2000
   38.3810   29.5120   38.9120 N   0  0  0  0  0  0  0  0  0  0  0  0
   38.2120   29.3110   37.4620 C   0  0  0  0  0  0  0  0  0  0  0  0
   37.0430   28.3700   37.5010 C   0  0  0  0  0  0  0  0  0  0  0  0
   37.5350   27.3420   38.5010 C   0  0  0  0  0  0  0  0  0  0  0  0
   38.2930   28.1900   39.4590 C   0  0  2  0  0  0  0  0  0  0  0  0
   37.9640   30.3050   37.0330 H   0  0  0  0  0  0  0  0  0  0  0  0
   39.1370   28.8750   37.0540 H   0  0  0  0  0  0  0  0  0  0  0  0
   36.1750   28.9410   37.7950 H   0  0  0  0  0  0  0  0  0  0  0  0
   36.8430   27.8990   36.5170 H   0  0  0  0  0  0  0  0  0  0  0  0
   38.1350   26.6330   37.8950 H   0  0  0  0  0  0  0  0  0  0  0  0
   36.7300   26.7340   38.9320 H   0  0  0  0  0  0  0  0  0  0  0  0
   39.3860   27.8300   39.2850 H   0  0  0  0  0  0  0  0  0  0  0  0
   39.8950   32.1820   40.9870 C   0  0  0  0  0  0  0  0  0  0  0  0
   39.7750   30.9780   40.3040 C   0  0  0  0  0  0  0  0  0  0  0  0
   38.6050   30.6790   39.6290 C   0  0  0  0  0  0  0  0  0  0  0  0
   37.6130   31.6210   39.6810 N   0  0  0  0  0  0  0  0  0  0  0  0
   37.7160   32.7840   40.3370 C   0  0  0  0  0  0  0  0  0  0  0  0
   38.8670   33.0730   40.9980 N   0  0  0  0  0  0  0  0  0  0  0  0
   40.7770   32.4940   41.5410 H   0  0  0  0  0  0  0  0  0  0  0  0
   40.6080   30.3460   40.3520 H   0  0  0  0  0  0  0  0  0  0  0  0
   36.8510   33.4570   40.3050 H   0  0  0  0  0  0  0  0  0  0  0  0
   36.9300   28.2610   41.5520 C   0  0  0  0  0  0  0  0  0  0  0  0
   38.1000   27.9910   40.8590 C   0  0  0  0  0  0  0  0  0  0  0  0
   39.0860   27.5190   41.7430 C   0  0  0  0  0  0  0  0  0  0  0  0
   40.0560   27.2770   41.2800 H   0  0  0  0  0  0  0  0  0  0  0  0
   38.9930   27.3240   43.1000 C   0  0  0  0  0  0  0  0  0  0  0  0
   39.8480   26.9530   43.6410 H   0  0  0  0  0  0  0  0  0  0  0  0
   37.7830   27.6270   43.6800 C   0  0  0  0  0  3  0  0  0  0  0  0
   36.7440   28.0970   42.9090 C   0  0  0  0  0  3  0  0  0  0  0  0
   34.8640   29.0950   40.2300 N   0  0  0  0  0  0  0  0  0  0  0  0
   35.7710   28.7270   40.8230 C   0  0  0  0  0  0  0  0  0  0  0  0
  1  5  1  0  0  0  0
  1 15  1  0  0  0  0
  2  3  1  0  0  0  0
  2  1  1  0  0  0  0
  3  8  1  0  0  0  0
  3  4  1  0  0  0  0
  4 11  1  0  0  0  0
  4  5  1  0  0  0  0
  5 12  1  6  0  0  0
  5 23  1  0  0  0  0
  6  2  1  0  0  0  0
  7  2  1  0  0  0  0
  9  3  1  0  0  0  0
 10  4  1  0  0  0  0
 13 18  1  0  0  0  0
 13 19  1  0  0  0  0
 14 20  1  0  0  0  0
 14 13  2  0  0  0  0
 15 16  2  0  0  0  0
 15 14  1  0  0  0  0
 16 17  1  0  0  0  0
 17 18  2  0  0  0  0
 21 17  1  0  0  0  0
 22 29  1  0  0  0  0
 23 22  2  0  0  0  0
 23 24  1  0  0  0  0
 24 26  2  0  0  0  0
 25 24  1  0  0  0  0
 26 27  1  0  0  0  0
 26 28  1  0  0  0  0
 29 28  2  0  0  0  0
 30 31  3  0  0  0  0
 31 22  1  0  0  0  0
M  END
>  <minimizedAffinity>
-4.53626251

$$$$

 OpenBabel03242512493D

 31 33  0  0  1  0  0  0  0  0999 V2000
   37.1220   29.4850   39.0220 N   0  0  0  0  0  0  0  0  0  0  0  0
   36.3030   29.3700   37.8010 C   0  0  0  0  0  0  0  0  0  0  0  0
   35.1270   28.6430   38.3870 C   0  0  0  0  0  0  0  0  0  0  0  0
   35.8240   27.5090   39.1140 C   0  0  0  0  0  0  0  0  0  0  0  0
   37.0570   28.1780   39.6080 C   0  0  2  0  0  0  0  0  0  0  0  0
   36.0660   30.4070   37.4830 H   0  0  0  0  0  0  0  0  0  0  0  0
   36.8670   28.7960   37.0490 H   0  0  0  0  0  0  0  0  0  0  0  0
   34.5870   29.3430   39.0070 H   0  0  0  0  0  0  0  0  0  0  0  0
   34.4400   28.2500   37.6110 H   0  0  0  0  0  0  0  0  0  0  0  0
   35.9680   26.7310   38.3380 H   0  0  0  0  0  0  0  0  0  0  0  0
   35.1980   27.0330   39.8800 H   0  0  0  0  0  0  0  0  0  0  0  0
   37.8840   27.6420   38.9890 H   0  0  0  0  0  0  0  0  0  0  0  0
   38.0830   32.6550   40.6800 C   0  0  0  0  0  0  0  0  0  0  0  0
   37.2760   31.6210   40.2210 C   0  0  0  0  0  0  0  0  0  0  0  0
   37.8320   30.5680   39.5180 C   0  0  0  0  0  0  0  0  0  0  0  0
   39.1850   30.6180   39.3150 N   0  0  0  0  0  0  0  0  0  0  0  0
   39.9730   31.6090   39.7500 C   0  0  0  0  0  0  0  0  0  0  0  0
   39.4220   32.6410   40.4410 N   0  0  0  0  0  0  0  0  0  0  0  0
   37.7270   33.5170   41.2380 H   0  0  0  0  0  0  0  0  0  0  0  0
   36.2560   31.7130   40.4400 H   0  0  0  0  0  0  0  0  0  0  0  0
   41.0440   31.5360   39.5240 H   0  0  0  0  0  0  0  0  0  0  0  0
   38.7120   27.5020   41.3530 C   0  0  0  0  0  0  0  0  0  0  0  0
   37.4660   27.9630   40.9580 C   0  0  0  0  0  0  0  0  0  0  0  0
   36.6460   28.1610   42.0830 C   0  0  0  0  0  0  0  0  0  0  0  0
   35.6300   28.5300   41.8660 H   0  0  0  0  0  0  0  0  0  0  0  0
   36.9490   27.9550   43.4070 C   0  0  0  0  0  0  0  0  0  0  0  0
   36.2030   28.1560   44.1590 H   0  0  0  0  0  0  0  0  0  0  0  0
   38.2170   27.4950   43.6800 C   0  0  0  0  0  3  0  0  0  0  0  0
   39.1050   27.2660   42.6550 C   0  0  0  0  0  3  0  0  0  0  0  0
   40.5410   27.0740   39.5690 N   0  0  0  0  0  0  0  0  0  0  0  0
   39.7250   27.2640   40.3500 C   0  0  0  0  0  0  0  0  0  0  0  0
  1 15  1  0  0  0  0
  1  5  1  0  0  0  0
  2  3  1  0  0  0  0
  2  1  1  0  0  0  0
  3  8  1  0  0  0  0
  3  4  1  0  0  0  0
  4  5  1  0  0  0  0
  4 11  1  0  0  0  0
  5 12  1  6  0  0  0
  5 23  1  0  0  0  0
  6  2  1  0  0  0  0
  7  2  1  0  0  0  0
  9  3  1  0  0  0  0
 10  4  1  0  0  0  0
 13 19  1  0  0  0  0
 14 20  1  0  0  0  0
 14 13  2  0  0  0  0
 15 14  1  0  0  0  0
 16 15  2  0  0  0  0
 16 17  1  0  0  0  0
 17 18  2  0  0  0  0
 18 13  1  0  0  0  0
 21 17  1  0  0  0  0
 22 29  1  0  0  0  0
 23 22  2  0  0  0  0
 23 24  1  0  0  0  0
 24 26  2  0  0  0  0
 25 24  1  0  0  0  0
 26 28  1  0  0  0  0
 26 27  1  0  0  0  0
 29 28  2  0  0  0  0
 30 31  3  0  0  0  0
 31 22  1  0  0  0  0
M  END
>  <minimizedAffinity>
-4.51760244

$$$$

 OpenBabel03242512493D

 31 33  0  0  1  0  0  0  0  0999 V2000
   40.1070   30.4120   41.3660 N   0  0  0  0  0  0  0  0  0  0  0  0
   41.4760   30.9570   41.4010 C   0  0  0  0  0  0  0  0  0  0  0  0
   42.2220   29.6750   41.6340 C   0  0  0  0  0  0  0  0  0  0  0  0
   41.4510   29.1040   42.8080 C   0  0  0  0  0  0  0  0  0  0  0  0
   40.0600   29.5210   42.4880 C   0  0  2  0  0  0  0  0  0  0  0  0
   41.6630   31.4010   40.4000 H   0  0  0  0  0  0  0  0  0  0  0  0
   41.5480   31.6850   42.2240 H   0  0  0  0  0  0  0  0  0  0  0  0
   42.1830   29.1050   40.7180 H   0  0  0  0  0  0  0  0  0  0  0  0
   43.2840   29.8440   41.9040 H   0  0  0  0  0  0  0  0  0  0  0  0
   41.9110   29.5790   43.6980 H   0  0  0  0  0  0  0  0  0  0  0  0
   41.6080   28.0270   42.9490 H   0  0  0  0  0  0  0  0  0  0  0  0
   39.8370   30.2840   43.3380 H   0  0  0  0  0  0  0  0  0  0  0  0
   37.8440   30.4940   38.4340 C   0  0  0  0  0  0  0  0  0  0  0  0
   38.9380   30.1580   39.2230 C   0  0  0  0  0  0  0  0  0  0  0  0
   39.0620   30.6850   40.4960 C   0  0  0  0  0  0  0  0  0  0  0  0
   38.0670   31.5310   40.9050 N   0  0  0  0  0  0  0  0  0  0  0  0
   37.0090   31.8640   40.1550 C   0  0  0  0  0  0  0  0  0  0  0  0
   36.8910   31.3420   38.9060 N   0  0  0  0  0  0  0  0  0  0  0  0
   37.6710   30.1250   37.4270 H   0  0  0  0  0  0  0  0  0  0  0  0
   39.6290   29.5060   38.7830 H   0  0  0  0  0  0  0  0  0  0  0  0
   36.2770   32.5530   40.5950 H   0  0  0  0  0  0  0  0  0  0  0  0
   38.8790   27.4080   41.8680 C   0  0  0  0  0  0  0  0  0  0  0  0
   39.0060   28.5670   42.6180 C   0  0  0  0  0  0  0  0  0  0  0  0
   37.9260   28.6850   43.5090 C   0  0  0  0  0  0  0  0  0  0  0  0
   37.9410   29.5810   44.1510 H   0  0  0  0  0  0  0  0  0  0  0  0
   36.8620   27.8320   43.6800 C   0  0  0  0  0  0  0  0  0  0  0  0
   36.1070   28.0670   44.4130 H   0  0  0  0  0  0  0  0  0  0  0  0
   36.8410   26.7140   42.8790 C   0  0  0  0  0  3  0  0  0  0  0  0
   37.8490   26.4950   41.9690 C   0  0  0  0  0  3  0  0  0  0  0  0
   40.7080   26.8030   40.1350 N   0  0  0  0  0  0  0  0  0  0  0  0
   39.9080   27.0740   40.9080 C   0  0  0  0  0  0  0  0  0  0  0  0
  1  2  1  0  0  0  0
  1  5  1  0  0  0  0
  2  3  1  0  0  0  0
  2  7  1  0  0  0  0
  3  9  1  0  0  0  0
  3  4  1  0  0  0  0
  4 11  1  0  0  0  0
  4 10  1  0  0  0  0
  5 23  1  0  0  0  0
  5  4  1  0  0  0  0
  5 12  1  1  0  0  0
  6  2  1  0  0  0  0
  8  3  1  0  0  0  0
 13 18  2  0  0  0  0
 13 14  1  0  0  0  0
 14 15  2  0  0  0  0
 15 16  1  0  0  0  0
 15  1  1  0  0  0  0
 17 21  1  0  0  0  0
 17 16  2  0  0  0  0
 18 17  1  0  0  0  0
 19 13  1  0  0  0  0
 20 14  1  0  0  0  0
 22 29  2  0  0  0  0
 22 23  1  0  0  0  0
 23 24  2  0  0  0  0
 24 26  1  0  0  0  0
 24 25  1  0  0  0  0
 26 27  1  0  0  0  0
 28 26  2  0  0  0  0
 29 28  1  0  0  0  0
 30 31  3  0  0  0  0
 31 22  1  0  0  0  0
M  END
>  <minimizedAffinity>
-4.45888138

$$$$

 OpenBabel03242512493D

 31 33  0  0  1  0  0  0  0  0999 V2000
   38.0030   27.1490   41.7590 N   0  0  0  0  0  0  0  0  0  0  0  0
   38.5290   27.2750   43.1300 C   0  0  0  0  0  0  0  0  0  0  0  0
   37.4990   28.2190   43.6800 C   0  0  0  0  0  0  0  0  0  0  0  0
   37.5000   29.2970   42.6130 C   0  0  0  0  0  0  0  0  0  0  0  0
   37.7060   28.4980   41.3760 C   0  0  2  0  0  0  0  0  0  0  0  0
   38.4820   26.2600   43.5800 H   0  0  0  0  0  0  0  0  0  0  0  0
   39.5490   27.6870   43.0830 H   0  0  0  0  0  0  0  0  0  0  0  0
   36.5790   27.6660   43.7950 H   0  0  0  0  0  0  0  0  0  0  0  0
   37.7890   28.6390   44.6640 H   0  0  0  0  0  0  0  0  0  0  0  0
   38.3300   29.9720   42.9030 H   0  0  0  0  0  0  0  0  0  0  0  0
   36.6020   29.9280   42.6310 H   0  0  0  0  0  0  0  0  0  0  0  0
   38.7650   28.8460   41.0400 H   0  0  0  0  0  0  0  0  0  0  0  0
   36.7930   23.9630   40.3060 C   0  0  0  0  0  0  0  0  0  0  0  0
   36.8710   25.0530   41.1640 C   0  0  0  0  0  0  0  0  0  0  0  0
   37.8410   26.0210   40.9690 C   0  0  0  0  0  0  0  0  0  0  0  0
   38.6850   25.8310   39.9080 N   0  0  0  0  0  0  0  0  0  0  0  0
   38.6210   24.7850   39.0750 C   0  0  0  0  0  0  0  0  0  0  0  0
   37.6670   23.8380   39.2710 N   0  0  0  0  0  0  0  0  0  0  0  0
   36.0650   23.1610   40.3890 H   0  0  0  0  0  0  0  0  0  0  0  0
   36.1680   25.0690   41.9390 H   0  0  0  0  0  0  0  0  0  0  0  0
   39.3560   24.7450   38.2610 H   0  0  0  0  0  0  0  0  0  0  0  0
   37.3660   29.1460   38.9870 C   0  0  0  0  0  0  0  0  0  0  0  0
   36.8930   28.7700   40.2350 C   0  0  0  0  0  0  0  0  0  0  0  0
   35.4890   28.7230   40.2240 C   0  0  0  0  0  0  0  0  0  0  0  0
   35.0200   28.4310   41.1780 H   0  0  0  0  0  0  0  0  0  0  0  0
   34.6330   28.9940   39.1830 C   0  0  0  0  0  0  0  0  0  0  0  0
   33.5690   28.9120   39.3370 H   0  0  0  0  0  0  0  0  0  0  0  0
   35.2160   29.3580   37.9920 C   0  0  0  0  0  3  0  0  0  0  0  0
   36.5860   29.4360   37.8870 C   0  0  0  0  0  3  0  0  0  0  0  0
   39.9220   29.3040   38.5930 N   0  0  0  0  0  0  0  0  0  0  0  0
   38.7940   29.2230   38.7680 C   0  0  0  0  0  0  0  0  0  0  0  0
  1  2  1  0  0  0  0
  2  6  1  0  0  0  0
  2  3  1  0  0  0  0
  3  8  1  0  0  0  0
  3  9  1  0  0  0  0
  4 11  1  0  0  0  0
  4 10  1  0  0  0  0
  4  3  1  0  0  0  0
  5 12  1  6  0  0  0
  5  1  1  0  0  0  0
  5  4  1  0  0  0  0
  7  2  1  0  0  0  0
 13 19  1  0  0  0  0
 13 14  1  0  0  0  0
 14 20  1  0  0  0  0
 15 14  2  0  0  0  0
 15  1  1  0  0  0  0
 16 15  1  0  0  0  0
 17 18  1  0  0  0  0
 17 16  2  0  0  0  0
 18 13  2  0  0  0  0
 21 17  1  0  0  0  0
 22 23  1  0  0  0  0
 23  5  1  0  0  0  0
 24 23  2  0  0  0  0
 24 25  1  0  0  0  0
 26 27  1  0  0  0  0
 26 24  1  0  0  0  0
 28 26  2  0  0  0  0
 29 28  1  0  0  0  0
 29 22  2  0  0  0  0
 30 31  3  0  0  0  0
 31 22  1  0  0  0  0
M  END
>  <minimizedAffinity>
-4.45752001

$$$$

 OpenBabel03242512493D

 31 33  0  0  1  0  0  0  0  0999 V2000
   37.1500   29.3570   39.0300 N   0  0  0  0  0  0  0  0  0  0  0  0
   36.5860   28.4090   38.0530 C   0  0  0  0  0  0  0  0  0  0  0  0
   37.3440   28.8600   36.8380 C   0  0  0  0  0  0  0  0  0  0  0  0
   37.0990   30.3560   36.8860 C   0  0  0  0  0  0  0  0  0  0  0  0
   37.1160   30.6180   38.3500 C   0  0  2  0  0  0  0  0  0  0  0  0
   36.8710   27.3930   38.3990 H   0  0  0  0  0  0  0  0  0  0  0  0
   35.4970   28.5630   37.9960 H   0  0  0  0  0  0  0  0  0  0  0  0
   38.3690   28.5430   36.9580 H   0  0  0  0  0  0  0  0  0  0  0  0
   36.9440   28.4250   35.9010 H   0  0  0  0  0  0  0  0  0  0  0  0
   36.1240   30.4920   36.3760 H   0  0  0  0  0  0  0  0  0  0  0  0
   37.8150   30.9330   36.2880 H   0  0  0  0  0  0  0  0  0  0  0  0
   36.0100   30.9210   38.5510 H   0  0  0  0  0  0  0  0  0  0  0  0
   37.4610   29.2550   42.7200 C   0  0  0  0  0  0  0  0  0  0  0  0
   36.9240   29.5300   41.4680 C   0  0  0  0  0  0  0  0  0  0  0  0
   37.5970   29.1390   40.3250 C   0  0  0  0  0  0  0  0  0  0  0  0
   38.7860   28.4870   40.5100 N   0  0  0  0  0  0  0  0  0  0  0  0
   39.3150   28.2170   41.7110 C   0  0  0  0  0  0  0  0  0  0  0  0
   38.6500   28.6020   42.8310 N   0  0  0  0  0  0  0  0  0  0  0  0
   36.9990   29.5270   43.6650 H   0  0  0  0  0  0  0  0  0  0  0  0
   36.0110   30.0420   41.4710 H   0  0  0  0  0  0  0  0  0  0  0  0
   40.2760   27.6880   41.7290 H   0  0  0  0  0  0  0  0  0  0  0  0
   39.2360   31.8670   38.7820 C   0  0  0  0  0  0  0  0  0  0  0  0
   37.8570   31.7330   38.8430 C   0  0  0  0  0  0  0  0  0  0  0  0
   37.2930   32.8460   39.4910 C   0  0  0  0  0  0  0  0  0  0  0  0
   36.1950   32.8270   39.5870 H   0  0  0  0  0  0  0  0  0  0  0  0
   37.9320   33.9430   40.0160 C   0  0  0  0  0  0  0  0  0  0  0  0
   37.3510   34.7190   40.4870 H   0  0  0  0  0  0  0  0  0  0  0  0
   39.3020   33.9660   39.8980 C   0  0  0  0  0  3  0  0  0  0  0  0
   39.9620   32.9290   39.2800 C   0  0  0  0  0  3  0  0  0  0  0  0
   40.6460   30.0450   37.5970 N   0  0  0  0  0  0  0  0  0  0  0  0
   40.0140   30.8430   38.1210 C   0  0  0  0  0  0  0  0  0  0  0  0
  1 15  1  0  0  0  0
  2  6  1  0  0  0  0
  2  1  1  0  0  0  0
  3  4  1  0  0  0  0
  3  8  1  0  0  0  0
  3  2  1  0  0  0  0
  4  5  1  0  0  0  0
  5 12  1  1  0  0  0
  5 23  1  0  0  0  0
  5  1  1  0  0  0  0
  7  2  1  0  0  0  0
  9  3  1  0  0  0  0
 10  4  1  0  0  0  0
 11  4  1  0  0  0  0
 13 18  1  0  0  0  0
 13 19  1  0  0  0  0
 14 20  1  0  0  0  0
 14 13  2  0  0  0  0
 15 16  2  0  0  0  0
 15 14  1  0  0  0  0
 16 17  1  0  0  0  0
 17 21  1  0  0  0  0
 17 18  2  0  0  0  0
 22 23  2  0  0  0  0
 22 29  1  0  0  0  0
 23 24  1  0  0  0  0
 24 25  1  0  0  0  0
 24 26  2  0  0  0  0
 26 27  1  0  0  0  0
 28 26  1  0  0  0  0
 29 28  2  0  0  0  0
 30 31  3  0  0  0  0
 31 22  1  0  0  0  0
M  END
>  <minimizedAffinity>
-4.44438839

$$$$

 OpenBabel03242512493D

 31 33  0  0  1  0  0  0  0  0999 V2000
   39.0570   26.1620   41.3160 N   0  0  0  0  0  0  0  0  0  0  0  0
   40.1730   25.9030   42.2430 C   0  0  0  0  0  0  0  0  0  0  0  0
   39.8140   26.8980   43.3090 C   0  0  0  0  0  0  0  0  0  0  0  0
   39.6070   28.1480   42.4760 C   0  0  0  0  0  0  0  0  0  0  0  0
   38.9910   27.5920   41.2430 C   0  0  2  0  0  0  0  0  0  0  0  0
   40.0700   24.8470   42.5720 H   0  0  0  0  0  0  0  0  0  0  0  0
   41.1220   26.1110   41.7240 H   0  0  0  0  0  0  0  0  0  0  0  0
   38.9440   26.5220   43.8250 H   0  0  0  0  0  0  0  0  0  0  0  0
   40.6300   27.0450   44.0450 H   0  0  0  0  0  0  0  0  0  0  0  0
   40.6240   28.5760   42.3640 H   0  0  0  0  0  0  0  0  0  0  0  0
   39.0290   28.9240   42.9930 H   0  0  0  0  0  0  0  0  0  0  0  0
   39.8210   27.7890   40.4510 H   0  0  0  0  0  0  0  0  0  0  0  0
   36.4390   23.7080   40.3940 C   0  0  0  0  0  0  0  0  0  0  0  0
   37.1900   24.5740   41.1800 C   0  0  0  0  0  0  0  0  0  0  0  0
   38.2490   25.2710   40.6260 C   0  0  0  0  0  0  0  0  0  0  0  0
   38.4930   25.0520   39.2960 N   0  0  0  0  0  0  0  0  0  0  0  0
   37.7780   24.2200   38.5290 C   0  0  0  0  0  0  0  0  0  0  0  0
   36.7390   23.5390   39.0780 N   0  0  0  0  0  0  0  0  0  0  0  0
   35.5940   23.1250   40.7500 H   0  0  0  0  0  0  0  0  0  0  0  0
   36.8990   24.6410   42.1830 H   0  0  0  0  0  0  0  0  0  0  0  0
   38.0720   24.1300   37.4760 H   0  0  0  0  0  0  0  0  0  0  0  0
   36.6060   28.3360   41.3010 C   0  0  0  0  0  0  0  0  0  0  0  0
   37.8470   28.2420   40.6900 C   0  0  0  0  0  0  0  0  0  0  0  0
   37.8090   28.8550   39.4250 C   0  0  0  0  0  0  0  0  0  0  0  0
   38.7560   28.8300   38.8620 H   0  0  0  0  0  0  0  0  0  0  0  0
   36.7500   29.4770   38.8090 C   0  0  0  0  0  0  0  0  0  0  0  0
   36.8830   29.9020   37.8280 H   0  0  0  0  0  0  0  0  0  0  0  0
   35.5670   29.5090   39.5120 C   0  0  0  0  0  3  0  0  0  0  0  0
   35.4890   28.9390   40.7610 C   0  0  0  0  0  3  0  0  0  0  0  0
   36.2920   27.3510   43.6770 N   0  0  0  0  0  0  0  0  0  0  0  0
   36.4340   27.7960   42.6320 C   0  0  0  0  0  0  0  0  0  0  0  0
  1  2  1  0  0  0  0
  2  6  1  0  0  0  0
  2  3  1  0  0  0  0
  3  8  1  0  0  0  0
  3  9  1  0  0  0  0
  4 11  1  0  0  0  0
  4  3  1  0  0  0  0
  5 12  1  6  0  0  0
  5  1  1  0  0  0  0
  5  4  1  0  0  0  0
  7  2  1  0  0  0  0
 10  4  1  0  0  0  0
 13 19  1  0  0  0  0
 13 14  1  0  0  0  0
 14 20  1  0  0  0  0
 15 14  2  0  0  0  0
 15  1  1  0  0  0  0
 16 15  1  0  0  0  0
 17 18  1  0  0  0  0
 17 16  2  0  0  0  0
 18 13  2  0  0  0  0
 21 17  1  0  0  0  0
 22 31  1  0  0  0  0
 23  5  1  0  0  0  0
 23 22  2  0  0  0  0
 24 23  1  0  0  0  0
 25 24  1  0  0  0  0
 26 24  2  0  0  0  0
 26 28  1  0  0  0  0
 27 26  1  0  0  0  0
 28 29  2  0  0  0  0
 29 22  1  0  0  0  0
 31 30  3  0  0  0  0
M  END
>  <minimizedAffinity>
-4.39247656

$$$$

 OpenBabel03242512493D

 31 33  0  0  1  0  0  0  0  0999 V2000
   37.0500   25.7560   39.5070 N   0  0  0  0  0  0  0  0  0  0  0  0
   36.7740   24.4010   38.9990 C   0  0  0  0  0  0  0  0  0  0  0  0
   36.1540   23.8200   40.2370 C   0  0  0  0  0  0  0  0  0  0  0  0
   37.1870   24.1970   41.2800 C   0  0  0  0  0  0  0  0  0  0  0  0
   37.6300   25.5330   40.7990 C   0  0  2  0  0  0  0  0  0  0  0  0
   36.0570   24.5190   38.1600 H   0  0  0  0  0  0  0  0  0  0  0  0
   37.7260   23.9330   38.7010 H   0  0  0  0  0  0  0  0  0  0  0  0
   35.1780   24.2660   40.3520 H   0  0  0  0  0  0  0  0  0  0  0  0
   36.0380   22.7190   40.1770 H   0  0  0  0  0  0  0  0  0  0  0  0
   37.9400   23.3850   41.2290 H   0  0  0  0  0  0  0  0  0  0  0  0
   36.8020   24.1620   42.3070 H   0  0  0  0  0  0  0  0  0  0  0  0
   38.7310   25.3220   40.4870 H   0  0  0  0  0  0  0  0  0  0  0  0
   35.6270   29.0090   38.4500 C   0  0  0  0  0  0  0  0  0  0  0  0
   35.7280   27.7840   39.0980 C   0  0  0  0  0  0  0  0  0  0  0  0
   36.8450   26.9900   38.9070 C   0  0  0  0  0  0  0  0  0  0  0  0
   37.8050   27.4820   38.0650 N   0  0  0  0  0  0  0  0  0  0  0  0
   37.7190   28.6600   37.4340 C   0  0  0  0  0  0  0  0  0  0  0  0
   36.6210   29.4360   37.6250 N   0  0  0  0  0  0  0  0  0  0  0  0
   34.7860   29.6910   38.5450 H   0  0  0  0  0  0  0  0  0  0  0  0
   34.9170   27.5270   39.7080 H   0  0  0  0  0  0  0  0  0  0  0  0
   38.5560   28.9440   36.7830 H   0  0  0  0  0  0  0  0  0  0  0  0
   38.8580   27.4250   41.8730 C   0  0  0  0  0  0  0  0  0  0  0  0
   37.7520   26.5990   41.7390 C   0  0  0  0  0  0  0  0  0  0  0  0
   36.7740   26.9470   42.6870 C   0  0  0  0  0  0  0  0  0  0  0  0
   35.8530   26.3410   42.6560 H   0  0  0  0  0  0  0  0  0  0  0  0
   36.8210   27.9360   43.6390 C   0  0  0  0  0  0  0  0  0  0  0  0
   35.9800   28.0760   44.2990 H   0  0  0  0  0  0  0  0  0  0  0  0
   37.9700   28.6910   43.6790 C   0  0  0  0  0  3  0  0  0  0  0  0
   38.9950   28.4400   42.7970 C   0  0  0  0  0  3  0  0  0  0  0  0
   40.8440   27.1250   40.2370 N   0  0  0  0  0  0  0  0  0  0  0  0
   39.9740   27.2600   40.9670 C   0  0  0  0  0  0  0  0  0  0  0  0
  1  5  1  0  0  0  0
  2  1  1  0  0  0  0
  2  3  1  0  0  0  0
  3  8  1  0  0  0  0
  3  4  1  0  0  0  0
  4 11  1  0  0  0  0
  5 12  1  6  0  0  0
  5  4  1  0  0  0  0
  5 23  1  0  0  0  0
  6  2  1  0  0  0  0
  7  2  1  0  0  0  0
  9  3  1  0  0  0  0
 10  4  1  0  0  0  0
 13 19  1  0  0  0  0
 13 14  1  0  0  0  0
 14 20  1  0  0  0  0
 15 14  2  0  0  0  0
 15  1  1  0  0  0  0
 16 15  1  0  0  0  0
 17 18  1  0  0  0  0
 17 16  2  0  0  0  0
 18 13  2  0  0  0  0
 21 17  1  0  0  0  0
 22 29  1  0  0  0  0
 23 22  2  0  0  0  0
 23 24  1  0  0  0  0
 24 26  2  0  0  0  0
 25 24  1  0  0  0  0
 26 28  1  0  0  0  0
 26 27  1  0  0  0  0
 29 28  2  0  0  0  0
 30 31  3  0  0  0  0
 31 22  1  0  0  0  0
M  END
>  <minimizedAffinity>
-4.38817883

$$$$
