
 OpenBabel03242522123D

 21 22  0  0  0  0  0  0  0  0999 V2000
   44.4790   35.7930   44.9700 C   0  0  0  0  0  0  0  0  0  0  0  0
   45.1360   35.7170   43.7420 C   0  0  0  0  0  0  0  0  0  0  0  0
   46.0530   34.6880   43.4970 C   0  0  0  0  0  0  0  0  0  0  0  0
   46.2370   33.8130   44.5060 N   0  0  0  0  0  0  0  0  0  0  0  0
   45.5990   33.8950   45.6810 C   0  0  0  0  0  0  0  0  0  0  0  0
   44.7140   34.8870   45.9250 N   0  0  0  0  0  0  0  0  0  0  0  0
   43.7830   36.5850   45.1610 H   0  0  0  0  0  0  0  0  0  0  0  0
   45.8990   33.0820   46.3450 H   0  0  0  0  0  0  0  0  0  0  0  0
   46.1840   33.9450   41.1270 C   0  0  0  0  0  0  0  0  0  0  0  0
   46.7090   34.6300   42.2350 C   0  0  0  0  0  0  0  0  0  0  0  0
   47.9230   35.2750   42.0860 C   0  0  0  0  0  0  0  0  0  0  0  0
   48.4530   35.8380   42.8420 H   0  0  0  0  0  0  0  0  0  0  0  0
   48.6020   35.2500   40.8880 C   0  0  0  0  0  0  0  0  0  0  0  0
   49.5540   35.7380   40.7110 H   0  0  0  0  0  0  0  0  0  0  0  0
   48.0610   34.5660   39.8170 C   0  0  0  0  0  0  0  0  0  0  0  0
   46.8410   33.8960   39.9040 C   0  0  0  0  0  0  0  0  0  0  0  0
   43.8740   32.7210   41.4140 N   0  0  0  0  0  0  0  0  0  0  0  0
   44.9070   33.2650   41.2770 C   0  0  0  0  0  0  0  0  0  0  0  0
   44.8030   36.7440   42.7860 N   0  0  0  0  0  0  0  0  0  0  0  0
   43.8500   37.1630   42.8220 H   0  0  0  0  0  0  0  0  0  0  0  0
   45.2780   37.2140   42.0130 H   0  0  0  0  0  0  0  0  0  0  0  0
  1  7  1  0  0  0  0
  1  6  1  0  0  0  0
  2  1  2  0  0  0  0
  3  2  1  0  0  0  0
  3  4  2  0  0  0  0
  4  5  1  0  0  0  0
  5  6  2  0  0  0  0
  5  8  1  0  0  0  0
  9 18  1  0  0  0  0
  9 10  1  0  0  0  0
 10  3  1  0  0  0  0
 11 10  2  0  0  0  0
 11 12  1  0  0  0  0
 13 11  1  0  0  0  0
 14 13  1  0  0  0  0
 15 16  1  0  0  0  0
 15 13  2  0  0  0  0
 16  9  2  0  0  0  0
 18 17  3  0  0  0  0
 19 20  1  0  0  0  0
 19  2  1  0  0  0  0
 21 19  1  0  0  0  0
M  END
>  <minimizedAffinity>
-5.23662281

>  <minimizedRMSD>
1.83269179

$$$$
