
 OpenBabel03252506063D

 44 48  0  0  0  0  0  0  0  0999 V2000
   44.8270   35.9490   43.1830 Cl  0  0  0  0  0  0  0  0  0  0  0  0
   45.5670   34.7150   44.1420 C   0  0  0  0  0  0  0  0  0  0  0  0
   46.6550   34.0130   43.6520 C   0  0  0  0  0  0  0  0  0  0  0  0
   47.1610   33.0520   44.5060 C   0  0  0  0  0  0  0  0  0  0  0  0
   46.6760   32.7600   45.7590 C   0  0  0  0  0  0  0  0  0  0  0  0
   45.6020   33.4770   46.2020 C   0  0  0  0  0  0  0  0  0  0  0  0
   45.0070   33.0790   47.8040 Cl  0  0  0  0  0  0  0  0  0  0  0  0
   45.0480   34.4460   45.4060 C   0  0  0  0  0  0  0  0  0  0  0  0
   48.0260   32.4990   44.1080 H   0  0  0  0  0  0  0  0  0  0  0  0
   44.1970   34.9970   45.7880 H   0  0  0  0  0  0  0  0  0  0  0  0
   47.3650   31.6970   46.5020 C   0  0  0  0  0  0  0  0  0  0  0  0
   47.4920   30.4090   46.0340 C   0  0  0  0  0  0  0  0  0  0  0  0
   48.1330   29.4000   46.7140 C   0  0  0  0  0  0  0  0  0  0  0  0
   48.6920   29.6850   47.9510 C   0  0  0  0  0  0  0  0  0  0  0  0
   49.3130   28.6790   48.5960 N   0  0  0  0  0  0  0  0  0  0  0  0
   49.8850   28.8550   49.7980 C   0  0  0  0  0  0  0  0  0  0  0  0
   49.8060   30.1280   50.3500 C   0  0  0  0  0  0  0  0  0  0  0  0
   49.1720   31.1520   49.6920 C   0  0  0  0  0  0  0  0  0  0  0  0
   48.5890   30.9500   48.4530 C   0  0  0  0  0  0  0  0  0  0  0  0
   47.9400   31.9450   47.7510 C   0  0  0  0  0  0  0  0  0  0  0  0
   47.0570   30.1800   45.0690 H   0  0  0  0  0  0  0  0  0  0  0  0
   48.1860   28.4200   46.2760 H   0  0  0  0  0  0  0  0  0  0  0  0
   50.3770   28.0360   50.2970 H   0  0  0  0  0  0  0  0  0  0  0  0
   50.2740   30.2520   51.3230 H   0  0  0  0  0  0  0  0  0  0  0  0
   49.1170   32.1390   50.1300 H   0  0  0  0  0  0  0  0  0  0  0  0
   47.8740   32.9390   48.1710 H   0  0  0  0  0  0  0  0  0  0  0  0
   48.6660   35.4700   40.9940 C   0  0  0  0  0  0  0  0  0  0  0  0
   48.2830   34.7320   39.8640 C   0  0  0  0  0  0  0  0  0  0  0  0
   47.3190   33.7200   40.0170 C   0  0  0  0  0  0  0  0  0  0  0  0
   46.8520   33.5600   41.2700 N   0  0  0  0  0  0  0  0  0  0  0  0
   47.2220   34.2660   42.3420 C   0  0  0  0  0  0  0  0  0  0  0  0
   48.1360   35.2320   42.2150 N   0  0  0  0  0  0  0  0  0  0  0  0
   49.3960   36.2220   40.8280 H   0  0  0  0  0  0  0  0  0  0  0  0
   48.7040   34.9270   38.9140 H   0  0  0  0  0  0  0  0  0  0  0  0
   47.5690   31.7620   38.6120 C   0  0  0  0  0  0  0  0  0  0  0  0
   46.8560   32.9030   38.9100 C   0  0  0  0  0  0  0  0  0  0  0  0
   45.7480   33.2180   38.1550 C   0  0  0  0  0  0  0  0  0  0  0  0
   45.1720   34.0860   38.3530 H   0  0  0  0  0  0  0  0  0  0  0  0
   45.3100   32.4260   37.0920 C   0  0  0  0  0  0  0  0  0  0  0  0
   44.4530   32.6610   36.5010 H   0  0  0  0  0  0  0  0  0  0  0  0
   46.0120   31.2760   36.7750 C   0  0  0  0  0  3  0  0  0  0  0  0
   47.1250   30.9730   37.5440 C   0  0  0  0  0  3  0  0  0  0  0  0
   49.6720   31.0350   39.9370 N   0  0  0  0  0  0  0  0  0  0  0  0
   48.7400   31.3530   39.3450 C   0  0  0  0  0  0  0  0  0  0  0  0
  1  2  1  0  0  0  0
  2  8  1  0  0  0  0
  3  2  2  0  0  0  0
  3  4  1  0  0  0  0
  4  5  2  0  0  0  0
  5  6  1  0  0  0  0
  5 11  1  0  0  0  0
  6  7  1  0  0  0  0
  8 10  1  0  0  0  0
  8  6  2  0  0  0  0
  9  4  1  0  0  0  0
 11 20  1  0  0  0  0
 12 11  2  0  0  0  0
 12 13  1  0  0  0  0
 13 14  2  0  0  0  0
 14 19  1  0  0  0  0
 14 15  1  0  0  0  0
 15 16  2  0  0  0  0
 16 23  1  0  0  0  0
 16 17  1  0  0  0  0
 17 24  1  0  0  0  0
 18 25  1  0  0  0  0
 18 17  2  0  0  0  0
 19 18  1  0  0  0  0
 20 26  1  0  0  0  0
 20 19  2  0  0  0  0
 21 12  1  0  0  0  0
 22 13  1  0  0  0  0
 27 32  1  0  0  0  0
 28 29  1  0  0  0  0
 28 27  2  0  0  0  0
 29 30  2  0  0  0  0
 30 31  1  0  0  0  0
 31  3  1  0  0  0  0
 32 31  2  0  0  0  0
 33 27  1  0  0  0  0
 34 28  1  0  0  0  0
 35 36  1  0  0  0  0
 35 44  1  0  0  0  0
 36 29  1  0  0  0  0
 37 38  1  0  0  0  0
 37 36  2  0  0  0  0
 39 37  1  0  0  0  0
 40 39  1  0  0  0  0
 41 39  2  0  0  0  0
 41 42  1  0  0  0  0
 42 35  2  0  0  0  0
 44 43  3  0  0  0  0
M  END
>  <minimizedAffinity>
-6.76827335

>  <minimizedRMSD>
0.472613066

$$$$
