
 OpenBabel03252500363D

 47 50  0  0  1  0  0  0  0  0999 V2000
   45.7720   34.8820   44.2600 C   0  0  1  0  0  0  0  0  0  0  0  0
   44.8290   34.7820   45.2860 C   0  0  0  0  0  0  0  0  0  0  0  0
   46.0400   33.9700   45.4930 C   0  0  1  0  0  0  0  0  0  0  0  0
   46.4550   35.7750   44.1850 H   0  0  0  0  0  0  0  0  0  0  0  0
   44.6350   35.6600   45.9540 H   0  0  0  0  0  0  0  0  0  0  0  0
   43.8750   34.2050   45.1230 H   0  0  0  0  0  0  0  0  0  0  0  0
   46.9200   34.3250   46.0500 H   0  0  0  0  0  0  0  0  0  0  0  0
   44.4330   33.8410   42.4250 C   0  0  0  0  0  0  0  0  0  0  0  0
   45.7240   34.2000   42.9300 C   0  0  0  0  0  0  0  0  0  0  0  0
   46.8390   33.9150   42.2080 C   0  0  0  0  0  0  0  0  0  0  0  0
   46.6480   33.2800   41.0000 N   0  0  0  0  0  0  0  0  0  0  0  0
   45.4250   32.9480   40.5360 C   0  0  0  0  0  0  0  0  0  0  0  0
   44.2730   33.2200   41.2370 N   0  0  0  0  0  0  0  0  0  0  0  0
   43.5600   34.0650   42.9920 H   0  0  0  0  0  0  0  0  0  0  0  0
   47.8100   34.1750   42.5710 H   0  0  0  0  0  0  0  0  0  0  0  0
   45.3160   30.9010   39.1670 C   0  0  0  0  0  0  0  0  0  0  0  0
   45.3190   32.2780   39.2450 C   0  0  0  0  0  0  0  0  0  0  0  0
   45.2220   33.0670   38.1180 C   0  0  0  0  0  0  0  0  0  0  0  0
   45.2180   34.1350   38.1060 H   0  0  0  0  0  0  0  0  0  0  0  0
   45.1190   32.4580   36.8770 C   0  0  0  0  0  0  0  0  0  0  0  0
   45.0370   32.9870   35.9210 H   0  0  0  0  0  0  0  0  0  0  0  0
   45.1110   31.0650   36.7410 C   0  0  0  0  0  3  0  0  0  0  0  0
   45.2110   30.3170   37.9020 C   0  0  0  0  0  3  0  0  0  0  0  0
   45.5160   29.4550   41.3040 N   0  0  0  0  0  0  0  0  0  0  0  0
   45.4180   30.1060   40.3520 C   0  0  0  0  0  0  0  0  0  0  0  0
   45.9950   32.4980   45.3260 C   0  0  0  0  0  0  0  0  0  0  0  0
   46.9820   32.1550   44.9780 H   0  0  0  0  0  0  0  0  0  0  0  0
   45.2430   32.2020   44.5670 H   0  0  0  0  0  0  0  0  0  0  0  0
   45.7310   31.9340   46.6000 N   0  0  0  0  0  0  0  0  0  0  0  0
   46.2190   32.5920   47.7340 C   0  0  0  0  0  0  0  0  0  0  0  0
   47.6240   32.0920   48.1200 C   0  0  0  0  0  0  0  0  0  0  0  0
   47.4580   30.6660   48.5780 C   0  0  0  0  0  0  0  0  0  0  0  0
   46.9010   29.9030   47.4100 C   0  0  0  0  0  0  0  0  0  0  0  0
   45.7120   30.5400   46.7440 C   0  0  2  0  0  0  0  0  0  0  0  0
   45.5910   32.2100   48.5970 H   0  0  0  0  0  0  0  0  0  0  0  0
   46.1100   33.6710   47.8220 H   0  0  0  0  0  0  0  0  0  0  0  0
   48.2960   32.1260   47.2570 H   0  0  0  0  0  0  0  0  0  0  0  0
   47.9560   32.7290   48.9570 H   0  0  0  0  0  0  0  0  0  0  0  0
   48.4810   30.2630   48.7630 H   0  0  0  0  0  0  0  0  0  0  0  0
   46.8540   30.5860   49.4890 H   0  0  0  0  0  0  0  0  0  0  0  0
   47.6700   29.7050   46.6670 H   0  0  0  0  0  0  0  0  0  0  0  0
   46.5710   28.9000   47.7980 H   0  0  0  0  0  0  0  0  0  0  0  0
   44.8150   30.2560   47.3610 H   0  0  0  0  0  0  0  0  0  0  0  0
   45.5220   29.8340   45.4090 C   0  0  0  0  0  0  0  0  0  0  0  0
   46.4330   29.9420   44.7750 H   0  0  0  0  0  0  0  0  0  0  0  0
   45.2820   28.7650   45.5980 H   0  0  0  0  0  0  0  0  0  0  0  0
   44.6160   30.2470   44.9120 H   0  0  0  0  0  0  0  0  0  0  0  0
  1  4  1  1  0  0  0
  1  2  1  0  0  0  0
  1  3  1  0  0  0  0
  2  3  1  0  0  0  0
  2  5  1  0  0  0  0
  3  7  1  1  0  0  0
  6  2  1  0  0  0  0
  8  9  1  0  0  0  0
  8 14  1  0  0  0  0
  9  1  1  0  0  0  0
 10 15  1  0  0  0  0
 10  9  2  0  0  0  0
 11 10  1  0  0  0  0
 12 11  2  0  0  0  0
 12 13  1  0  0  0  0
 13  8  2  0  0  0  0
 16 17  1  0  0  0  0
 16 25  1  0  0  0  0
 17 12  1  0  0  0  0
 18 17  2  0  0  0  0
 19 18  1  0  0  0  0
 20 18  1  0  0  0  0
 21 20  1  0  0  0  0
 22 20  2  0  0  0  0
 22 23  1  0  0  0  0
 23 16  2  0  0  0  0
 25 24  3  0  0  0  0
 26  3  1  0  0  0  0
 26 29  1  0  0  0  0
 27 26  1  0  0  0  0
 28 26  1  0  0  0  0
 29 34  1  0  0  0  0
 29 30  1  0  0  0  0
 30 36  1  0  0  0  0
 30 31  1  0  0  0  0
 30 35  1  0  0  0  0
 31 32  1  0  0  0  0
 31 38  1  0  0  0  0
 32 39  1  0  0  0  0
 32 40  1  0  0  0  0
 33 42  1  0  0  0  0
 33 32  1  0  0  0  0
 34 43  1  1  0  0  0
 34 33  1  0  0  0  0
 37 31  1  0  0  0  0
 41 33  1  0  0  0  0
 44 46  1  0  0  0  0
 44 34  1  0  0  0  0
 45 44  1  0  0  0  0
 47 44  1  0  0  0  0
M  END
>  <minimizedAffinity>
-3.91952515

>  <minimizedRMSD>
1.16554403

$$$$
