
 OpenBabel03252507193D

 45 48  0  0  1  0  0  0  0  0999 V2000
   46.9790   32.8910   43.4580 C   0  0  0  0  0  0  0  0  0  0  0  0
   48.1510   32.7930   43.9060 O   0  0  0  0  0  0  0  0  0  0  0  0
   46.4500   32.0570   42.4250 N   0  0  0  0  0  0  0  0  0  0  0  0
   45.1650   31.3740   42.3150 C   0  0  0  0  0  0  0  0  0  0  0  0
   44.5170   31.7350   40.9600 C   0  0  0  0  0  0  0  0  0  0  0  0
   45.3750   31.1810   39.8460 C   0  0  0  0  0  0  0  0  0  0  0  0
   46.7170   30.7770   40.3870 C   0  0  0  0  0  0  0  0  0  0  0  0
   47.2970   31.8360   41.2850 C   0  0  2  0  0  0  0  0  0  0  0  0
   44.4550   31.8410   43.0570 H   0  0  0  0  0  0  0  0  0  0  0  0
   45.2290   30.2930   42.4040 H   0  0  0  0  0  0  0  0  0  0  0  0
   43.4820   31.4030   40.9450 H   0  0  0  0  0  0  0  0  0  0  0  0
   44.6390   32.8470   40.9090 H   0  0  0  0  0  0  0  0  0  0  0  0
   45.4570   31.8620   38.9770 H   0  0  0  0  0  0  0  0  0  0  0  0
   44.8830   30.2500   39.4740 H   0  0  0  0  0  0  0  0  0  0  0  0
   47.4210   30.5720   39.5590 H   0  0  0  0  0  0  0  0  0  0  0  0
   46.6230   29.8070   40.9370 H   0  0  0  0  0  0  0  0  0  0  0  0
   47.2030   32.7910   40.6850 H   0  0  0  0  0  0  0  0  0  0  0  0
   45.7400   34.9820   43.1880 C   0  0  0  0  0  0  0  0  0  0  0  0
   46.1240   33.9080   44.0230 C   0  0  0  0  0  0  0  0  0  0  0  0
   45.6780   33.8630   45.3260 C   0  0  0  0  0  0  0  0  0  0  0  0
   44.8790   34.8590   45.7650 N   0  0  0  0  0  0  0  0  0  0  0  0
   44.5020   35.8960   44.9760 C   0  0  0  0  0  0  0  0  0  0  0  0
   44.9400   35.9370   43.7030 N   0  0  0  0  0  0  0  0  0  0  0  0
   46.0860   35.0260   42.1630 H   0  0  0  0  0  0  0  0  0  0  0  0
   43.8620   36.6330   45.4340 H   0  0  0  0  0  0  0  0  0  0  0  0
   46.0910   32.7560   46.1650 C   0  0  0  0  0  0  0  0  0  0  0  0
   45.5260   31.5260   46.0000 C   0  0  0  0  0  0  0  0  0  0  0  0
   45.9260   30.4840   46.8040 C   0  0  0  0  0  0  0  0  0  0  0  0
   46.8960   30.6250   47.7930 C   0  0  0  0  0  0  0  0  0  0  0  0
   47.4300   31.8930   47.9120 C   0  0  0  0  0  0  0  0  0  0  0  0
   47.0160   32.8860   47.1090 N   0  0  0  0  0  0  0  0  0  0  0  0
   44.7650   31.2550   45.2880 H   0  0  0  0  0  0  0  0  0  0  0  0
   45.5090   29.4770   46.7180 H   0  0  0  0  0  0  0  0  0  0  0  0
   47.2320   29.8270   48.4410 H   0  0  0  0  0  0  0  0  0  0  0  0
   48.1910   32.1500   48.6370 H   0  0  0  0  0  0  0  0  0  0  0  0
   49.2140   30.5030   42.1740 C   0  0  0  0  0  0  0  0  0  0  0  0
   48.7160   31.6520   41.5460 C   0  0  0  0  0  0  0  0  0  0  0  0
   49.7400   32.5570   41.2410 C   0  0  0  0  0  0  0  0  0  0  0  0
   49.4390   33.4760   40.7520 H   0  0  0  0  0  0  0  0  0  0  0  0
   51.0750   32.3570   41.5180 C   0  0  0  0  0  0  0  0  0  0  0  0
   51.8080   33.1060   41.2490 H   0  0  0  0  0  0  0  0  0  0  0  0
   51.4530   31.1850   42.1410 C   0  0  0  0  0  3  0  0  0  0  0  0
   50.5270   30.2240   42.4880 C   0  0  0  0  0  3  0  0  0  0  0  0
   47.4140   28.7130   42.8110 N   0  0  0  0  0  0  0  0  0  0  0  0
   48.2080   29.5140   42.5230 C   0  0  0  0  0  0  0  0  0  0  0  0
  1  2  2  0  0  0  0
  1 19  1  0  0  0  0
  3  1  1  0  0  0  0
  4 10  1  0  0  0  0
  4  3  1  0  0  0  0
  4  9  1  0  0  0  0
  5  4  1  0  0  0  0
  6  7  1  0  0  0  0
  6  5  1  0  0  0  0
  7 16  1  0  0  0  0
  7  8  1  0  0  0  0
  8 17  1  6  0  0  0
  8 37  1  0  0  0  0
  8  3  1  0  0  0  0
 11  5  1  0  0  0  0
 12  5  1  0  0  0  0
 13  6  1  0  0  0  0
 14  6  1  0  0  0  0
 15  7  1  0  0  0  0
 18 23  2  0  0  0  0
 18 19  1  0  0  0  0
 19 20  2  0  0  0  0
 20 21  1  0  0  0  0
 20 26  1  0  0  0  0
 22 25  1  0  0  0  0
 22 21  2  0  0  0  0
 23 22  1  0  0  0  0
 24 18  1  0  0  0  0
 26 31  1  0  0  0  0
 27 26  2  0  0  0  0
 27 28  1  0  0  0  0
 28 29  2  0  0  0  0
 29 30  1  0  0  0  0
 29 34  1  0  0  0  0
 30 35  1  0  0  0  0
 31 30  2  0  0  0  0
 32 27  1  0  0  0  0
 33 28  1  0  0  0  0
 36 43  1  0  0  0  0
 36 45  1  0  0  0  0
 37 36  2  0  0  0  0
 38 40  2  0  0  0  0
 38 37  1  0  0  0  0
 39 38  1  0  0  0  0
 40 42  1  0  0  0  0
 41 40  1  0  0  0  0
 42 43  2  0  0  0  0
 45 44  3  0  0  0  0
M  END
>  <minimizedAffinity>
-4.92458534

>  <minimizedRMSD>
1.60810387

$$$$
