
 OpenBabel03252508393D

 42 45  0  0  0  0  0  0  0  0999 V2000
   45.1810   33.9770   40.6990 C   0  0  0  0  0  0  0  0  0  0  0  0
   44.1340   33.6480   39.8630 C   0  0  0  0  0  0  0  0  0  0  0  0
   44.4390   33.1670   38.6270 C   0  0  0  0  0  0  0  0  0  0  0  0
   45.7160   32.9900   38.1720 C   0  0  0  0  0  0  0  0  0  0  0  0
   46.7390   33.3210   39.0160 C   0  0  0  0  0  0  0  0  0  0  0  0
   46.4950   33.8180   40.2890 C   0  0  0  0  0  0  0  0  0  0  0  0
   43.6190   32.9090   37.9700 H   0  0  0  0  0  0  0  0  0  0  0  0
   45.8780   32.6030   37.1760 H   0  0  0  0  0  0  0  0  0  0  0  0
   47.7490   33.1770   38.6440 H   0  0  0  0  0  0  0  0  0  0  0  0
   40.8360   35.2330   40.7860 C   0  0  0  0  0  0  0  0  0  0  0  0
   42.1340   35.0790   40.2620 C   0  0  0  0  0  0  0  0  0  0  0  0
   42.7960   33.8520   40.3890 C   0  0  0  0  0  0  0  0  0  0  0  0
   42.0920   32.8890   41.0300 N   0  0  0  0  0  0  0  0  0  0  0  0
   40.8660   33.0480   41.5210 C   0  0  0  0  0  0  0  0  0  0  0  0
   40.2440   34.2270   41.3940 N   0  0  0  0  0  0  0  0  0  0  0  0
   40.2140   36.5010   40.6290 N   0  0  0  0  0  0  0  0  0  0  0  0
   42.6390   35.8930   39.7600 H   0  0  0  0  0  0  0  0  0  0  0  0
   40.4120   32.1950   42.0150 H   0  0  0  0  0  0  0  0  0  0  0  0
   40.7450   37.0960   41.3030 H   0  0  0  0  0  0  0  0  0  0  0  0
   39.4200   36.6280   39.9510 H   0  0  0  0  0  0  0  0  0  0  0  0
   47.6540   34.1410   41.1060 C   0  0  0  0  0  0  0  0  0  0  0  0
   48.1490   35.4130   40.9490 C   0  0  0  0  0  0  0  0  0  0  0  0
   49.2530   35.9040   41.6470 C   0  0  0  0  0  0  0  0  0  0  0  0
   49.8660   35.0560   42.5370 C   0  0  0  0  0  0  0  0  0  0  0  0
   49.3850   33.7770   42.7090 C   0  0  0  0  0  0  0  0  0  0  0  0
   48.2850   33.3180   41.9990 C   0  0  0  0  0  0  0  0  0  0  0  0
   47.7220   36.1570   40.2600 H   0  0  0  0  0  0  0  0  0  0  0  0
   49.6290   36.9060   41.5120 H   0  0  0  0  0  0  0  0  0  0  0  0
   50.7330   35.3470   43.1270 H   0  0  0  0  0  0  0  0  0  0  0  0
   49.8630   33.0940   43.4110 H   0  0  0  0  0  0  0  0  0  0  0  0
   48.3940   31.0070   41.3630 C   0  0  0  0  0  0  0  0  0  0  0  0
   47.7750   31.9630   42.1830 C   0  0  0  0  0  0  0  0  0  0  0  0
   46.8050   31.5010   43.0140 C   0  0  0  0  0  0  0  0  0  0  0  0
   46.3470   32.2620   43.6290 H   0  0  0  0  0  0  0  0  0  0  0  0
   46.4490   30.1700   43.0480 C   0  0  0  0  0  0  0  0  0  0  0  0
   45.6610   29.9100   43.7500 H   0  0  0  0  0  0  0  0  0  0  0  0
   47.0560   29.2270   42.2410 C   0  0  0  0  0  3  0  0  0  0  0  0
   48.0370   29.6960   41.4020 C   0  0  0  0  0  3  0  0  0  0  0  0
   50.2740   31.6650   39.6710 N   0  0  0  0  0  0  0  0  0  0  0  0
   49.4480   31.3660   40.4250 C   0  0  0  0  0  0  0  0  0  0  0  0
   44.7680   34.9040   43.0960 N   0  0  0  0  0  0  0  0  0  0  0  0
   44.9520   34.5000   42.0220 C   0  0  0  0  0  0  0  0  0  0  0  0
  1 42  1  0  0  0  0
  2 12  1  0  0  0  0
  2  1  2  0  0  0  0
  3  2  1  0  0  0  0
  4  3  2  0  0  0  0
  4  5  1  0  0  0  0
  5  6  2  0  0  0  0
  6  1  1  0  0  0  0
  6 21  1  0  0  0  0
  7  3  1  0  0  0  0
  8  4  1  0  0  0  0
  9  5  1  0  0  0  0
 10 15  1  0  0  0  0
 11 12  1  0  0  0  0
 11 10  2  0  0  0  0
 12 13  2  0  0  0  0
 13 14  1  0  0  0  0
 14 18  1  0  0  0  0
 15 14  2  0  0  0  0
 16 10  1  0  0  0  0
 16 19  1  0  0  0  0
 17 11  1  0  0  0  0
 20 16  1  0  0  0  0
 21 26  1  0  0  0  0
 22 21  2  0  0  0  0
 22 23  1  0  0  0  0
 23 24  2  0  0  0  0
 24 25  1  0  0  0  0
 24 29  1  0  0  0  0
 25 30  1  0  0  0  0
 26 32  1  0  0  0  0
 26 25  2  0  0  0  0
 27 22  1  0  0  0  0
 28 23  1  0  0  0  0
 31 38  2  0  0  0  0
 31 32  1  0  0  0  0
 32 33  2  0  0  0  0
 33 35  1  0  0  0  0
 33 34  1  0  0  0  0
 35 36  1  0  0  0  0
 37 35  2  0  0  0  0
 38 37  1  0  0  0  0
 39 40  3  0  0  0  0
 40 31  1  0  0  0  0
 42 41  3  0  0  0  0
M  END
>  <minimizedAffinity>
-5.99220276

>  <minimizedRMSD>
0.717496276

$$$$
