
 OpenBabel03252508393D

 42 45  0  0  0  0  0  0  0  0999 V2000
   45.1550   33.9360   40.7000 C   0  0  0  0  0  0  0  0  0  0  0  0
   44.1030   33.6200   39.8650 C   0  0  0  0  0  0  0  0  0  0  0  0
   44.4000   33.1250   38.6320 C   0  0  0  0  0  0  0  0  0  0  0  0
   45.6740   32.9230   38.1800 C   0  0  0  0  0  0  0  0  0  0  0  0
   46.7020   33.2420   39.0230 C   0  0  0  0  0  0  0  0  0  0  0  0
   46.4660   33.7520   40.2920 C   0  0  0  0  0  0  0  0  0  0  0  0
   43.5760   32.8760   37.9770 H   0  0  0  0  0  0  0  0  0  0  0  0
   45.8300   32.5260   37.1870 H   0  0  0  0  0  0  0  0  0  0  0  0
   47.7090   33.0780   38.6520 H   0  0  0  0  0  0  0  0  0  0  0  0
   40.8350   35.2700   40.7810 C   0  0  0  0  0  0  0  0  0  0  0  0
   42.1310   35.0900   40.2600 C   0  0  0  0  0  0  0  0  0  0  0  0
   42.7680   33.8510   40.3880 C   0  0  0  0  0  0  0  0  0  0  0  0
   42.0440   32.9030   41.0290 N   0  0  0  0  0  0  0  0  0  0  0  0
   40.8210   33.0860   41.5170 C   0  0  0  0  0  0  0  0  0  0  0  0
   40.2220   34.2770   41.3880 N   0  0  0  0  0  0  0  0  0  0  0  0
   40.2380   36.5500   40.6220 N   0  0  0  0  0  0  0  0  0  0  0  0
   42.6520   35.8940   39.7570 H   0  0  0  0  0  0  0  0  0  0  0  0
   40.3490   32.2420   42.0110 H   0  0  0  0  0  0  0  0  0  0  0  0
   40.7800   37.1360   41.2960 H   0  0  0  0  0  0  0  0  0  0  0  0
   39.4490   36.6930   39.9430 H   0  0  0  0  0  0  0  0  0  0  0  0
   47.6290   34.0610   41.1070 C   0  0  0  0  0  0  0  0  0  0  0  0
   48.0730   35.3590   41.0340 C   0  0  0  0  0  0  0  0  0  0  0  0
   49.1730   35.8410   41.7440 C   0  0  0  0  0  0  0  0  0  0  0  0
   49.8370   34.9560   42.5580 C   0  0  0  0  0  0  0  0  0  0  0  0
   49.4080   33.6500   42.6460 C   0  0  0  0  0  0  0  0  0  0  0  0
   48.3110   33.2010   41.9260 C   0  0  0  0  0  0  0  0  0  0  0  0
   47.6020   36.1330   40.4100 H   0  0  0  0  0  0  0  0  0  0  0  0
   49.5080   36.8640   41.6750 H   0  0  0  0  0  0  0  0  0  0  0  0
   50.7050   35.2370   43.1510 H   0  0  0  0  0  0  0  0  0  0  0  0
   49.9270   32.9380   43.2860 H   0  0  0  0  0  0  0  0  0  0  0  0
   47.2130   31.5110   43.2270 C   0  0  0  0  0  0  0  0  0  0  0  0
   47.8570   31.8170   42.0200 C   0  0  0  0  0  0  0  0  0  0  0  0
   47.9710   30.7990   41.1260 C   0  0  0  0  0  0  0  0  0  0  0  0
   48.4740   31.0660   40.2090 H   0  0  0  0  0  0  0  0  0  0  0  0
   47.4800   29.5380   41.3930 C   0  0  0  0  0  0  0  0  0  0  0  0
   47.6230   28.8000   40.6090 H   0  0  0  0  0  0  0  0  0  0  0  0
   46.8430   29.2350   42.5820 C   0  0  0  0  0  3  0  0  0  0  0  0
   46.7310   30.2650   43.4830 C   0  0  0  0  0  3  0  0  0  0  0  0
   46.8960   33.3030   45.1030 N   0  0  0  0  0  0  0  0  0  0  0  0
   47.0250   32.5070   44.2730 C   0  0  0  0  0  0  0  0  0  0  0  0
   44.7550   34.8870   43.0900 N   0  0  0  0  0  0  0  0  0  0  0  0
   44.9330   34.4730   42.0190 C   0  0  0  0  0  0  0  0  0  0  0  0
  1 42  1  0  0  0  0
  2 12  1  0  0  0  0
  2  1  2  0  0  0  0
  3  2  1  0  0  0  0
  4  3  2  0  0  0  0
  4  5  1  0  0  0  0
  5  6  2  0  0  0  0
  6  1  1  0  0  0  0
  6 21  1  0  0  0  0
  7  3  1  0  0  0  0
  8  4  1  0  0  0  0
  9  5  1  0  0  0  0
 10 15  1  0  0  0  0
 11 12  1  0  0  0  0
 11 10  2  0  0  0  0
 12 13  2  0  0  0  0
 13 14  1  0  0  0  0
 14 18  1  0  0  0  0
 15 14  2  0  0  0  0
 16 10  1  0  0  0  0
 16 19  1  0  0  0  0
 17 11  1  0  0  0  0
 20 16  1  0  0  0  0
 21 26  1  0  0  0  0
 22 21  2  0  0  0  0
 22 23  1  0  0  0  0
 23 24  2  0  0  0  0
 24 25  1  0  0  0  0
 24 29  1  0  0  0  0
 25 30  1  0  0  0  0
 26 32  1  0  0  0  0
 26 25  2  0  0  0  0
 27 22  1  0  0  0  0
 28 23  1  0  0  0  0
 31 38  1  0  0  0  0
 31 40  1  0  0  0  0
 32 31  2  0  0  0  0
 33 35  2  0  0  0  0
 33 32  1  0  0  0  0
 34 33  1  0  0  0  0
 35 37  1  0  0  0  0
 36 35  1  0  0  0  0
 37 38  2  0  0  0  0
 40 39  3  0  0  0  0
 42 41  3  0  0  0  0
M  END
>  <minimizedAffinity>
-6.0925951

>  <minimizedRMSD>
0.582005262

$$$$
