
 OpenBabel03252507433D

 32 34  0  0  0  0  0  0  0  0999 V2000
   45.9210   34.6890   41.7510 C   0  0  0  0  0  0  0  0  0  0  0  0
   46.1560   35.6750   42.2410 H   0  0  0  0  0  0  0  0  0  0  0  0
   45.9560   33.9470   42.5830 H   0  0  0  0  0  0  0  0  0  0  0  0
   44.5280   34.6650   41.2290 C   0  0  0  0  0  0  0  0  0  0  0  0
   43.5960   35.6880   41.5840 C   0  0  0  0  0  0  0  0  0  0  0  0
   42.0760   35.1600   40.6740 S   0  0  0  0  0  0  0  0  0  0  0  0
   42.9730   33.6630   39.9850 C   0  0  0  0  0  0  0  0  0  0  0  0
   44.0140   33.7630   40.4310 N   0  0  0  0  0  0  0  0  0  0  0  0
   43.8170   36.5370   42.2400 H   0  0  0  0  0  0  0  0  0  0  0  0
   42.9190   32.1420   37.9870 C   0  0  0  0  0  0  0  0  0  0  0  0
   42.3110   32.6930   39.0880 C   0  0  0  0  0  0  0  0  0  0  0  0
   41.0240   32.3710   39.4310 C   0  0  0  0  0  0  0  0  0  0  0  0
   40.5480   32.8040   40.2940 H   0  0  0  0  0  0  0  0  0  0  0  0
   40.3540   31.4810   38.6470 C   0  0  0  0  0  0  0  0  0  0  0  0
   39.3390   31.2180   38.9040 H   0  0  0  0  0  0  0  0  0  0  0  0
   40.9740   30.9330   37.5420 C   0  0  0  0  0  3  0  0  0  0  0  0
   42.2690   31.2380   37.1710 C   0  0  0  0  0  3  0  0  0  0  0  0
   45.3490   32.7670   37.3610 N   0  0  0  0  0  0  0  0  0  0  0  0
   44.2620   32.4940   37.6500 C   0  0  0  0  0  0  0  0  0  0  0  0
   46.9700   34.3090   40.7490 C   0  0  0  0  0  0  0  0  0  0  0  0
   47.0390   35.1730   40.0270 H   0  0  0  0  0  0  0  0  0  0  0  0
   46.6180   33.4660   40.1690 H   0  0  0  0  0  0  0  0  0  0  0  0
   48.3070   34.0950   41.3330 C   0  0  0  0  0  0  0  0  0  0  0  0
   48.9350   32.8680   41.0260 C   0  0  0  0  0  0  0  0  0  0  0  0
   50.1910   32.6160   41.5470 C   0  0  0  0  0  0  0  0  0  0  0  0
   50.7710   33.5760   42.3450 N   0  0  0  0  0  0  0  0  0  0  0  0
   50.1380   34.7250   42.6090 C   0  0  0  0  0  0  0  0  0  0  0  0
   48.9270   34.9760   42.1090 N   0  0  0  0  0  0  0  0  0  0  0  0
   50.7050   31.6840   41.3330 H   0  0  0  0  0  0  0  0  0  0  0  0
   50.6610   35.4360   43.2470 H   0  0  0  0  0  0  0  0  0  0  0  0
   48.1320   31.6630   39.9870 S   0  0  0  0  0  0  0  0  0  0  0  0
   49.0300   30.9190   39.2340 H   0  0  0  0  0  0  0  0  0  0  0  0
  1  2  1  0  0  0  0
  1  3  1  0  0  0  0
  4  5  2  0  0  0  0
  4  1  1  0  0  0  0
  5  9  1  0  0  0  0
  6  5  1  0  0  0  0
  7  8  2  0  0  0  0
  7  6  1  0  0  0  0
  8  4  1  0  0  0  0
 10 11  1  0  0  0  0
 11 12  2  0  0  0  0
 11  7  1  0  0  0  0
 12 13  1  0  0  0  0
 14 15  1  0  0  0  0
 14 12  1  0  0  0  0
 16 14  2  0  0  0  0
 17 16  1  0  0  0  0
 17 10  2  0  0  0  0
 18 19  3  0  0  0  0
 19 10  1  0  0  0  0
 20 23  1  0  0  0  0
 20  1  1  0  0  0  0
 21 20  1  0  0  0  0
 22 20  1  0  0  0  0
 23 28  1  0  0  0  0
 24 23  2  0  0  0  0
 24 25  1  0  0  0  0
 25 26  2  0  0  0  0
 26 27  1  0  0  0  0
 27 30  1  0  0  0  0
 28 27  2  0  0  0  0
 29 25  1  0  0  0  0
 31 24  1  0  0  0  0
 32 31  1  0  0  0  0
M  END
>  <minimizedAffinity>
-4.42192078

>  <minimizedRMSD>
1.04665136

$$$$
