
 OpenBabel03242521263D

 43 46  0  0  0  0  0  0  0  0999 V2000
   35.6520   27.8520   37.3650 C   0  0  0  0  0  0  0  0  0  0  0  0
   36.7360   27.9890   36.5590 C   0  0  0  0  0  0  0  0  0  0  0  0
   38.0330   28.0500   37.0260 C   0  0  0  0  0  0  0  0  0  0  0  0
   38.1930   27.9650   38.3630 N   0  0  0  0  0  0  0  0  0  0  0  0
   37.1180   27.8280   39.1720 C   0  0  0  0  0  0  0  0  0  0  0  0
   35.8650   27.7700   38.7020 N   0  0  0  0  0  0  0  0  0  0  0  0
   36.5670   28.0540   35.4920 H   0  0  0  0  0  0  0  0  0  0  0  0
   38.8850   28.1600   36.3730 H   0  0  0  0  0  0  0  0  0  0  0  0
   37.3110   27.7350   40.6350 C   0  0  0  0  0  0  0  0  0  0  0  0
   37.0310   26.5560   41.2780 C   0  0  0  0  0  0  0  0  0  0  0  0
   37.1750   26.3520   42.6460 C   0  0  0  0  0  0  0  0  0  0  0  0
   37.6350   27.4370   43.3760 C   0  0  0  0  0  0  0  0  0  0  0  0
   37.9150   28.6120   42.7400 C   0  0  0  0  0  0  0  0  0  0  0  0
   37.7660   28.7940   41.3800 C   0  0  0  0  0  0  0  0  0  0  0  0
   36.6720   25.7140   40.6890 H   0  0  0  0  0  0  0  0  0  0  0  0
   36.9470   25.4180   43.1210 H   0  0  0  0  0  0  0  0  0  0  0  0
   37.7540   27.2990   44.4500 H   0  0  0  0  0  0  0  0  0  0  0  0
   38.2780   29.4760   43.3020 H   0  0  0  0  0  0  0  0  0  0  0  0
   38.0360   29.9540   40.7150 O   0  0  0  0  0  0  0  0  0  0  0  0
   36.6500   31.2850   38.9460 O   0  0  0  0  0  0  0  0  0  0  0  0
   36.9600   31.2280   40.4450 P   0  0  0  0  0  0  0  0  0  0  0  0
   35.5550   31.1490   41.3430 O   0  0  0  0  0  0  0  0  0  0  0  0
   35.6990   30.5790   42.1520 H   0  0  0  0  0  0  0  0  0  0  0  0
   37.7520   32.6850   40.8130 O   0  0  0  0  0  0  0  0  0  0  0  0
   37.4310   33.4070   40.2150 H   0  0  0  0  0  0  0  0  0  0  0  0
   32.4530   26.5010   36.2260 C   0  0  0  0  0  0  0  0  0  0  0  0
   31.7600   27.6620   35.8760 C   0  0  0  0  0  0  0  0  0  0  0  0
   32.3710   28.8820   36.0240 C   0  0  0  0  0  0  0  0  0  0  0  0
   33.6520   28.9150   36.5150 N   0  0  0  0  0  0  0  0  0  0  0  0
   34.3020   27.7890   36.8470 C   0  0  0  0  0  0  0  0  0  0  0  0
   33.7040   26.5960   36.7020 N   0  0  0  0  0  0  0  0  0  0  0  0
   32.0270   25.5090   36.1330 H   0  0  0  0  0  0  0  0  0  0  0  0
   30.7530   27.5860   35.4930 H   0  0  0  0  0  0  0  0  0  0  0  0
   30.9310   30.7920   36.6020 C   0  0  0  0  0  0  0  0  0  0  0  0
   31.7240   30.1390   35.6830 C   0  0  0  0  0  0  0  0  0  0  0  0
   31.8360   30.7660   34.4700 C   0  0  0  0  0  0  0  0  0  0  0  0
   32.4410   30.3170   33.6970 H   0  0  0  0  0  0  0  0  0  0  0  0
   31.2150   31.9640   34.1580 C   0  0  0  0  0  0  0  0  0  0  0  0
   31.3600   32.3940   33.1660 H   0  0  0  0  0  0  0  0  0  0  0  0
   30.4330   32.5720   35.1170 C   0  0  0  0  0  3  0  0  0  0  0  0
   30.2800   31.9910   36.3600 C   0  0  0  0  0  3  0  0  0  0  0  0
   30.5330   29.8120   39.0000 N   0  0  0  0  0  0  0  0  0  0  0  0
   30.7210   30.2450   37.9280 C   0  0  0  0  0  0  0  0  0  0  0  0
  1  6  1  0  0  0  0
  2  3  1  0  0  0  0
  2  1  2  0  0  0  0
  3  4  2  0  0  0  0
  4  5  1  0  0  0  0
  5  9  1  0  0  0  0
  6  5  2  0  0  0  0
  7  2  1  0  0  0  0
  8  3  1  0  0  0  0
  9 10  2  0  0  0  0
  9 14  1  0  0  0  0
 10 11  1  0  0  0  0
 11 16  1  0  0  0  0
 11 12  2  0  0  0  0
 12 17  1  0  0  0  0
 13 18  1  0  0  0  0
 13 12  1  0  0  0  0
 14 13  2  0  0  0  0
 15 10  1  0  0  0  0
 19 14  1  0  0  0  0
 20 21  2  0  0  0  0
 21 19  1  0  0  0  0
 21 24  1  0  0  0  0
 21 22  1  0  0  0  0
 22 23  1  0  0  0  0
 25 24  1  0  0  0  0
 26 31  1  0  0  0  0
 27 28  1  0  0  0  0
 27 26  2  0  0  0  0
 28 29  2  0  0  0  0
 29 30  1  0  0  0  0
 30  1  1  0  0  0  0
 31 30  2  0  0  0  0
 32 26  1  0  0  0  0
 33 27  1  0  0  0  0
 34 43  1  0  0  0  0
 35 28  1  0  0  0  0
 35 34  2  0  0  0  0
 36 35  1  0  0  0  0
 37 36  1  0  0  0  0
 38 36  2  0  0  0  0
 38 40  1  0  0  0  0
 39 38  1  0  0  0  0
 40 41  2  0  0  0  0
 41 34  1  0  0  0  0
 43 42  3  0  0  0  0
M  END
>  <minimizedAffinity>
-6.95111513

$$$$

 OpenBabel03242521263D

 43 46  0  0  0  0  0  0  0  0999 V2000
   38.3740   31.8280   40.5990 C   0  0  0  0  0  0  0  0  0  0  0  0
   37.7180   32.9570   40.2240 C   0  0  0  0  0  0  0  0  0  0  0  0
   38.3490   34.1510   39.9460 C   0  0  0  0  0  0  0  0  0  0  0  0
   39.6930   34.1610   40.0640 N   0  0  0  0  0  0  0  0  0  0  0  0
   40.3530   33.0410   40.4380 C   0  0  0  0  0  0  0  0  0  0  0  0
   39.7250   31.8880   40.7040 N   0  0  0  0  0  0  0  0  0  0  0  0
   36.6400   32.9090   40.1390 H   0  0  0  0  0  0  0  0  0  0  0  0
   37.8140   35.0400   39.6480 H   0  0  0  0  0  0  0  0  0  0  0  0
   41.8260   33.0690   40.5630 C   0  0  0  0  0  0  0  0  0  0  0  0
   42.4050   33.8540   41.5280 C   0  0  0  0  0  0  0  0  0  0  0  0
   43.7760   33.9590   41.7390 C   0  0  0  0  0  0  0  0  0  0  0  0
   44.5780   33.2050   40.8970 C   0  0  0  0  0  0  0  0  0  0  0  0
   44.0060   32.4230   39.9350 C   0  0  0  0  0  0  0  0  0  0  0  0
   42.6420   32.3320   39.7430 C   0  0  0  0  0  0  0  0  0  0  0  0
   41.7600   34.4390   42.1800 H   0  0  0  0  0  0  0  0  0  0  0  0
   44.2000   34.5820   42.5010 H   0  0  0  0  0  0  0  0  0  0  0  0
   45.6560   33.2730   41.0450 H   0  0  0  0  0  0  0  0  0  0  0  0
   44.6260   31.8220   39.2640 H   0  0  0  0  0  0  0  0  0  0  0  0
   42.0400   31.5600   38.7920 O   0  0  0  0  0  0  0  0  0  0  0  0
   42.5910   33.2570   36.8850 O   0  0  0  0  0  0  0  0  0  0  0  0
   41.8190   31.9650   37.1670 P   0  0  0  0  0  0  0  0  0  0  0  0
   42.2480   30.7650   36.0900 O   0  0  0  0  0  0  0  0  0  0  0  0
   42.2330   29.8760   36.5470 H   0  0  0  0  0  0  0  0  0  0  0  0
   40.1790   32.3420   36.9280 O   0  0  0  0  0  0  0  0  0  0  0  0
   40.0890   33.0480   36.2380 H   0  0  0  0  0  0  0  0  0  0  0  0
   35.6820   29.3860   40.9830 C   0  0  0  0  0  0  0  0  0  0  0  0
   36.3810   28.2550   41.4100 C   0  0  0  0  0  0  0  0  0  0  0  0
   37.7430   28.3230   41.5660 C   0  0  0  0  0  0  0  0  0  0  0  0
   38.3730   29.5100   41.2930 N   0  0  0  0  0  0  0  0  0  0  0  0
   37.6850   30.5870   40.8830 C   0  0  0  0  0  0  0  0  0  0  0  0
   36.3520   30.5200   40.7300 N   0  0  0  0  0  0  0  0  0  0  0  0
   34.6080   29.3970   40.8400 H   0  0  0  0  0  0  0  0  0  0  0  0
   35.8420   27.3410   41.6130 H   0  0  0  0  0  0  0  0  0  0  0  0
   38.8550   26.1690   41.1390 C   0  0  0  0  0  0  0  0  0  0  0  0
   38.5470   27.1940   42.0080 C   0  0  0  0  0  0  0  0  0  0  0  0
   39.0530   27.0490   43.2720 C   0  0  0  0  0  0  0  0  0  0  0  0
   38.8560   27.8110   44.0100 H   0  0  0  0  0  0  0  0  0  0  0  0
   39.8190   25.9700   43.6800 C   0  0  0  0  0  0  0  0  0  0  0  0
   40.1820   25.9350   44.7080 H   0  0  0  0  0  0  0  0  0  0  0  0
   40.0950   24.9730   42.7680 C   0  0  0  0  0  3  0  0  0  0  0  0
   39.6140   25.0600   41.4770 C   0  0  0  0  0  3  0  0  0  0  0  0
   38.0230   26.2160   38.6540 N   0  0  0  0  0  0  0  0  0  0  0  0
   38.3860   26.1880   39.7670 C   0  0  0  0  0  0  0  0  0  0  0  0
  1  6  1  0  0  0  0
  1 30  1  0  0  0  0
  2  1  2  0  0  0  0
  3  4  2  0  0  0  0
  3  2  1  0  0  0  0
  4  5  1  0  0  0  0
  5  9  1  0  0  0  0
  5  6  2  0  0  0  0
  7  2  1  0  0  0  0
  8  3  1  0  0  0  0
  9 10  1  0  0  0  0
 10 11  2  0  0  0  0
 10 15  1  0  0  0  0
 11 16  1  0  0  0  0
 12 17  1  0  0  0  0
 12 11  1  0  0  0  0
 13 12  2  0  0  0  0
 14 13  1  0  0  0  0
 14  9  2  0  0  0  0
 18 13  1  0  0  0  0
 19 14  1  0  0  0  0
 20 21  2  0  0  0  0
 21 19  1  0  0  0  0
 22 23  1  0  0  0  0
 22 21  1  0  0  0  0
 24 21  1  0  0  0  0
 25 24  1  0  0  0  0
 26 27  1  0  0  0  0
 27 28  2  0  0  0  0
 27 33  1  0  0  0  0
 28 35  1  0  0  0  0
 29 28  1  0  0  0  0
 30 29  2  0  0  0  0
 31 30  1  0  0  0  0
 31 26  2  0  0  0  0
 32 26  1  0  0  0  0
 34 41  2  0  0  0  0
 34 35  1  0  0  0  0
 35 36  2  0  0  0  0
 36 38  1  0  0  0  0
 36 37  1  0  0  0  0
 38 39  1  0  0  0  0
 40 38  2  0  0  0  0
 41 40  1  0  0  0  0
 42 43  3  0  0  0  0
 43 34  1  0  0  0  0
M  END
>  <minimizedAffinity>
-6.53021574

$$$$

 OpenBabel03242521263D

 43 46  0  0  0  0  0  0  0  0999 V2000
   38.0420   31.1110   40.0070 C   0  0  0  0  0  0  0  0  0  0  0  0
   37.4750   32.3450   40.0330 C   0  0  0  0  0  0  0  0  0  0  0  0
   38.1660   33.4970   40.3440 C   0  0  0  0  0  0  0  0  0  0  0  0
   39.4760   33.3510   40.6340 N   0  0  0  0  0  0  0  0  0  0  0  0
   40.0470   32.1250   40.6110 C   0  0  0  0  0  0  0  0  0  0  0  0
   39.3610   31.0160   40.3060 N   0  0  0  0  0  0  0  0  0  0  0  0
   36.4220   32.4220   39.7940 H   0  0  0  0  0  0  0  0  0  0  0  0
   37.7020   34.4710   40.3600 H   0  0  0  0  0  0  0  0  0  0  0  0
   41.4830   31.9830   40.9310 C   0  0  0  0  0  0  0  0  0  0  0  0
   41.8640   31.1840   41.9800 C   0  0  0  0  0  0  0  0  0  0  0  0
   43.1810   30.9740   42.3720 C   0  0  0  0  0  0  0  0  0  0  0  0
   44.1470   31.6340   41.6290 C   0  0  0  0  0  0  0  0  0  0  0  0
   43.7730   32.4300   40.5850 C   0  0  0  0  0  0  0  0  0  0  0  0
   42.4590   32.6240   40.2110 C   0  0  0  0  0  0  0  0  0  0  0  0
   41.0910   30.6720   42.5520 H   0  0  0  0  0  0  0  0  0  0  0  0
   43.4480   30.3430   43.1970 H   0  0  0  0  0  0  0  0  0  0  0  0
   45.1860   31.4840   41.9200 H   0  0  0  0  0  0  0  0  0  0  0  0
   44.5240   32.9570   39.9900 H   0  0  0  0  0  0  0  0  0  0  0  0
   42.0530   33.4130   39.1740 O   0  0  0  0  0  0  0  0  0  0  0  0
   42.7370   31.6940   37.3310 O   0  0  0  0  0  0  0  0  0  0  0  0
   41.8700   32.9340   37.5650 P   0  0  0  0  0  0  0  0  0  0  0  0
   40.2910   32.6560   37.1000 O   0  0  0  0  0  0  0  0  0  0  0  0
   39.6660   33.1430   37.7090 H   0  0  0  0  0  0  0  0  0  0  0  0
   42.5170   34.1490   36.5680 O   0  0  0  0  0  0  0  0  0  0  0  0
   42.9170   33.7460   35.7560 H   0  0  0  0  0  0  0  0  0  0  0  0
   35.4540   28.9400   38.6110 C   0  0  0  0  0  0  0  0  0  0  0  0
   35.8760   27.6800   39.0410 C   0  0  0  0  0  0  0  0  0  0  0  0
   37.0190   27.5710   39.7930 C   0  0  0  0  0  0  0  0  0  0  0  0
   37.7110   28.7160   40.0970 N   0  0  0  0  0  0  0  0  0  0  0  0
   37.2910   29.9190   39.6750 C   0  0  0  0  0  0  0  0  0  0  0  0
   36.1730   30.0240   38.9390 N   0  0  0  0  0  0  0  0  0  0  0  0
   34.5620   29.0920   38.0150 H   0  0  0  0  0  0  0  0  0  0  0  0
   35.2980   26.8060   38.7770 H   0  0  0  0  0  0  0  0  0  0  0  0
   37.5060   26.0070   41.6290 C   0  0  0  0  0  0  0  0  0  0  0  0
   37.5280   26.2990   40.2820 C   0  0  0  0  0  0  0  0  0  0  0  0
   38.0540   25.3160   39.4870 C   0  0  0  0  0  0  0  0  0  0  0  0
   38.1050   25.4700   38.4200 H   0  0  0  0  0  0  0  0  0  0  0  0
   38.5340   24.1090   39.9660 C   0  0  0  0  0  0  0  0  0  0  0  0
   38.9360   23.3800   39.2600 H   0  0  0  0  0  0  0  0  0  0  0  0
   38.4870   23.8700   41.3230 C   0  0  0  0  0  3  0  0  0  0  0  0
   37.9680   24.8210   42.1780 C   0  0  0  0  0  3  0  0  0  0  0  0
   36.5600   27.7100   43.3810 N   0  0  0  0  0  0  0  0  0  0  0  0
   36.9770   26.9540   42.5900 C   0  0  0  0  0  0  0  0  0  0  0  0
  1  2  2  0  0  0  0
  1  6  1  0  0  0  0
  2  3  1  0  0  0  0
  3  8  1  0  0  0  0
  3  4  2  0  0  0  0
  5  4  1  0  0  0  0
  5  9  1  0  0  0  0
  6  5  2  0  0  0  0
  7  2  1  0  0  0  0
  9 10  1  0  0  0  0
 10 11  2  0  0  0  0
 10 15  1  0  0  0  0
 11 16  1  0  0  0  0
 12 17  1  0  0  0  0
 12 11  1  0  0  0  0
 13 12  2  0  0  0  0
 14 13  1  0  0  0  0
 14  9  2  0  0  0  0
 18 13  1  0  0  0  0
 19 14  1  0  0  0  0
 20 21  2  0  0  0  0
 21 19  1  0  0  0  0
 22 21  1  0  0  0  0
 22 23  1  0  0  0  0
 24 21  1  0  0  0  0
 25 24  1  0  0  0  0
 26 31  2  0  0  0  0
 26 27  1  0  0  0  0
 27 28  2  0  0  0  0
 28 29  1  0  0  0  0
 28 35  1  0  0  0  0
 30  1  1  0  0  0  0
 30 29  2  0  0  0  0
 31 30  1  0  0  0  0
 32 26  1  0  0  0  0
 33 27  1  0  0  0  0
 34 41  1  0  0  0  0
 34 43  1  0  0  0  0
 35 34  2  0  0  0  0
 36 38  2  0  0  0  0
 36 35  1  0  0  0  0
 37 36  1  0  0  0  0
 38 40  1  0  0  0  0
 39 38  1  0  0  0  0
 40 41  2  0  0  0  0
 43 42  3  0  0  0  0
M  END
>  <minimizedAffinity>
-6.49957705

$$$$

 OpenBabel03242521263D

 43 46  0  0  0  0  0  0  0  0999 V2000
   40.9020   28.9780   41.4850 C   0  0  0  0  0  0  0  0  0  0  0  0
   41.8710   29.3160   42.3750 C   0  0  0  0  0  0  0  0  0  0  0  0
   43.1410   29.7100   42.0080 C   0  0  0  0  0  0  0  0  0  0  0  0
   43.3990   29.7490   40.6840 N   0  0  0  0  0  0  0  0  0  0  0  0
   42.4390   29.4130   39.7930 C   0  0  0  0  0  0  0  0  0  0  0  0
   41.2090   29.0330   40.1650 N   0  0  0  0  0  0  0  0  0  0  0  0
   41.6260   29.2720   43.4280 H   0  0  0  0  0  0  0  0  0  0  0  0
   43.9010   29.9760   42.7270 H   0  0  0  0  0  0  0  0  0  0  0  0
   42.7370   29.4620   38.3460 C   0  0  0  0  0  0  0  0  0  0  0  0
   43.0670   28.3050   37.6860 C   0  0  0  0  0  0  0  0  0  0  0  0
   43.3660   28.2280   36.3300 C   0  0  0  0  0  0  0  0  0  0  0  0
   43.3170   29.4240   35.6310 C   0  0  0  0  0  0  0  0  0  0  0  0
   42.9900   30.5780   36.2830 C   0  0  0  0  0  0  0  0  0  0  0  0
   42.6950   30.6320   37.6300 C   0  0  0  0  0  0  0  0  0  0  0  0
   43.1000   27.3750   38.2520 H   0  0  0  0  0  0  0  0  0  0  0  0
   43.6210   27.3090   35.8430 H   0  0  0  0  0  0  0  0  0  0  0  0
   43.5490   29.3880   34.5670 H   0  0  0  0  0  0  0  0  0  0  0  0
   42.9470   31.5290   35.7440 H   0  0  0  0  0  0  0  0  0  0  0  0
   42.3650   31.7680   38.3100 O   0  0  0  0  0  0  0  0  0  0  0  0
   40.9400   33.8830   38.8750 O   0  0  0  0  0  0  0  0  0  0  0  0
   41.5140   33.0910   37.6960 P   0  0  0  0  0  0  0  0  0  0  0  0
   42.4050   34.0810   36.6890 O   0  0  0  0  0  0  0  0  0  0  0  0
   43.1800   33.5740   36.3130 H   0  0  0  0  0  0  0  0  0  0  0  0
   40.1730   32.5100   36.8290 O   0  0  0  0  0  0  0  0  0  0  0  0
   39.4130   33.1390   36.9160 H   0  0  0  0  0  0  0  0  0  0  0  0
   37.7390   28.8670   43.3130 C   0  0  0  0  0  0  0  0  0  0  0  0
   37.0790   27.8120   42.6800 C   0  0  0  0  0  0  0  0  0  0  0  0
   37.7000   27.1490   41.6500 C   0  0  0  0  0  0  0  0  0  0  0  0
   38.9570   27.5530   41.2790 N   0  0  0  0  0  0  0  0  0  0  0  0
   39.5760   28.5700   41.8980 C   0  0  0  0  0  0  0  0  0  0  0  0
   38.9690   29.2180   42.9050 N   0  0  0  0  0  0  0  0  0  0  0  0
   37.3040   29.4300   44.1310 H   0  0  0  0  0  0  0  0  0  0  0  0
   36.0900   27.5290   43.0070 H   0  0  0  0  0  0  0  0  0  0  0  0
   36.5600   26.2210   39.6770 C   0  0  0  0  0  0  0  0  0  0  0  0
   37.0860   26.0390   40.9380 C   0  0  0  0  0  0  0  0  0  0  0  0
   36.9790   24.7660   41.4290 C   0  0  0  0  0  0  0  0  0  0  0  0
   37.3690   24.5430   42.4110 H   0  0  0  0  0  0  0  0  0  0  0  0
   36.3930   23.7170   40.7400 C   0  0  0  0  0  0  0  0  0  0  0  0
   36.3510   22.7330   41.2080 H   0  0  0  0  0  0  0  0  0  0  0  0
   35.8830   23.9570   39.4820 C   0  0  0  0  0  3  0  0  0  0  0  0
   35.9600   25.2200   38.9300 C   0  0  0  0  0  3  0  0  0  0  0  0
   36.6390   28.5740   38.5260 N   0  0  0  0  0  0  0  0  0  0  0  0
   36.6020   27.5170   39.0300 C   0  0  0  0  0  0  0  0  0  0  0  0
  1 30  1  0  0  0  0
  1  2  1  0  0  0  0
  2  7  1  0  0  0  0
  3  2  2  0  0  0  0
  3  8  1  0  0  0  0
  4  3  1  0  0  0  0
  5  6  1  0  0  0  0
  5  4  2  0  0  0  0
  6  1  2  0  0  0  0
  9  5  1  0  0  0  0
 10 15  1  0  0  0  0
 10  9  1  0  0  0  0
 11 10  2  0  0  0  0
 12 13  2  0  0  0  0
 12 11  1  0  0  0  0
 13 14  1  0  0  0  0
 14 19  1  0  0  0  0
 14  9  2  0  0  0  0
 16 11  1  0  0  0  0
 17 12  1  0  0  0  0
 18 13  1  0  0  0  0
 21 19  1  0  0  0  0
 21 20  2  0  0  0  0
 22 21  1  0  0  0  0
 23 22  1  0  0  0  0
 24 25  1  0  0  0  0
 24 21  1  0  0  0  0
 26 32  1  0  0  0  0
 27 33  1  0  0  0  0
 27 26  2  0  0  0  0
 28 27  1  0  0  0  0
 29 28  2  0  0  0  0
 29 30  1  0  0  0  0
 30 31  2  0  0  0  0
 31 26  1  0  0  0  0
 34 35  1  0  0  0  0
 35 36  2  0  0  0  0
 35 28  1  0  0  0  0
 36 37  1  0  0  0  0
 38 39  1  0  0  0  0
 38 36  1  0  0  0  0
 40 38  2  0  0  0  0
 41 40  1  0  0  0  0
 41 34  2  0  0  0  0
 42 43  3  0  0  0  0
 43 34  1  0  0  0  0
M  END
>  <minimizedAffinity>
-6.46948671

$$$$

 OpenBabel03242521263D

 43 46  0  0  0  0  0  0  0  0999 V2000
   35.4030   28.5590   36.8460 C   0  0  0  0  0  0  0  0  0  0  0  0
   36.5350   28.7650   36.1250 C   0  0  0  0  0  0  0  0  0  0  0  0
   37.8030   28.7200   36.6640 C   0  0  0  0  0  0  0  0  0  0  0  0
   37.8850   28.4550   37.9850 N   0  0  0  0  0  0  0  0  0  0  0  0
   36.7620   28.2490   38.7090 C   0  0  0  0  0  0  0  0  0  0  0  0
   35.5360   28.2950   38.1700 N   0  0  0  0  0  0  0  0  0  0  0  0
   36.4280   28.9750   35.0680 H   0  0  0  0  0  0  0  0  0  0  0  0
   38.6940   28.8860   36.0780 H   0  0  0  0  0  0  0  0  0  0  0  0
   36.8690   27.9590   40.1550 C   0  0  0  0  0  0  0  0  0  0  0  0
   37.0650   26.6660   40.5700 C   0  0  0  0  0  0  0  0  0  0  0  0
   37.1810   26.2740   41.9000 C   0  0  0  0  0  0  0  0  0  0  0  0
   37.0860   27.2880   42.8400 C   0  0  0  0  0  0  0  0  0  0  0  0
   36.8900   28.5760   42.4320 C   0  0  0  0  0  0  0  0  0  0  0  0
   36.7780   28.9430   41.1060 C   0  0  0  0  0  0  0  0  0  0  0  0
   37.1390   25.8830   39.8170 H   0  0  0  0  0  0  0  0  0  0  0  0
   37.3350   25.2550   42.1940 H   0  0  0  0  0  0  0  0  0  0  0  0
   37.1740   27.0030   43.8880 H   0  0  0  0  0  0  0  0  0  0  0  0
   36.8130   29.3860   43.1630 H   0  0  0  0  0  0  0  0  0  0  0  0
   36.5820   30.2200   40.6660 O   0  0  0  0  0  0  0  0  0  0  0  0
   38.7850   31.2870   41.5770 O   0  0  0  0  0  0  0  0  0  0  0  0
   37.7750   31.3930   40.4310 P   0  0  0  0  0  0  0  0  0  0  0  0
   38.5410   31.3140   38.9500 O   0  0  0  0  0  0  0  0  0  0  0  0
   37.9610   30.8340   38.2910 H   0  0  0  0  0  0  0  0  0  0  0  0
   37.0570   32.9250   40.5830 O   0  0  0  0  0  0  0  0  0  0  0  0
   37.7020   33.5650   40.9790 H   0  0  0  0  0  0  0  0  0  0  0  0
   32.6360   27.9740   34.5300 C   0  0  0  0  0  0  0  0  0  0  0  0
   31.6030   28.6960   35.1310 C   0  0  0  0  0  0  0  0  0  0  0  0
   31.8430   29.3690   36.3030 C   0  0  0  0  0  0  0  0  0  0  0  0
   33.1020   29.3080   36.8440 N   0  0  0  0  0  0  0  0  0  0  0  0
   34.0830   28.6090   36.2530 C   0  0  0  0  0  0  0  0  0  0  0  0
   33.8480   27.9500   35.1070 N   0  0  0  0  0  0  0  0  0  0  0  0
   32.5110   27.4220   33.6060 H   0  0  0  0  0  0  0  0  0  0  0  0
   30.6280   28.7150   34.6680 H   0  0  0  0  0  0  0  0  0  0  0  0
   30.3990   31.3530   36.4870 C   0  0  0  0  0  0  0  0  0  0  0  0
   30.8250   30.1450   36.9950 C   0  0  0  0  0  0  0  0  0  0  0  0
   30.2200   29.7650   38.1630 C   0  0  0  0  0  0  0  0  0  0  0  0
   30.4990   28.8290   38.6230 H   0  0  0  0  0  0  0  0  0  0  0  0
   29.2510   30.5120   38.8110 C   0  0  0  0  0  0  0  0  0  0  0  0
   28.8210   30.1320   39.7390 H   0  0  0  0  0  0  0  0  0  0  0  0
   28.8630   31.7130   38.2570 C   0  0  0  0  0  3  0  0  0  0  0  0
   29.4350   32.1530   37.0800 C   0  0  0  0  0  3  0  0  0  0  0  0
   31.4150   32.2970   34.2630 N   0  0  0  0  0  0  0  0  0  0  0  0
   30.9520   31.8820   35.2560 C   0  0  0  0  0  0  0  0  0  0  0  0
  1  6  1  0  0  0  0
  2  3  1  0  0  0  0
  2  1  2  0  0  0  0
  3  4  2  0  0  0  0
  4  5  1  0  0  0  0
  5  9  1  0  0  0  0
  6  5  2  0  0  0  0
  7  2  1  0  0  0  0
  8  3  1  0  0  0  0
  9 10  2  0  0  0  0
  9 14  1  0  0  0  0
 10 11  1  0  0  0  0
 11 16  1  0  0  0  0
 11 12  2  0  0  0  0
 12 17  1  0  0  0  0
 13 12  1  0  0  0  0
 13 18  1  0  0  0  0
 14 13  2  0  0  0  0
 15 10  1  0  0  0  0
 19 14  1  0  0  0  0
 21 24  1  0  0  0  0
 21 19  1  0  0  0  0
 21 20  2  0  0  0  0
 22 21  1  0  0  0  0
 23 22  1  0  0  0  0
 24 25  1  0  0  0  0
 26 31  2  0  0  0  0
 26 27  1  0  0  0  0
 27 28  2  0  0  0  0
 28 29  1  0  0  0  0
 28 35  1  0  0  0  0
 30 29  2  0  0  0  0
 30  1  1  0  0  0  0
 31 30  1  0  0  0  0
 32 26  1  0  0  0  0
 33 27  1  0  0  0  0
 34 35  2  0  0  0  0
 34 41  1  0  0  0  0
 35 36  1  0  0  0  0
 36 37  1  0  0  0  0
 36 38  2  0  0  0  0
 38 39  1  0  0  0  0
 40 38  1  0  0  0  0
 41 40  2  0  0  0  0
 42 43  3  0  0  0  0
 43 34  1  0  0  0  0
M  END
>  <minimizedAffinity>
-6.37628126

$$$$

 OpenBabel03242521263D

 43 46  0  0  0  0  0  0  0  0999 V2000
   38.1520   30.6110   39.1080 C   0  0  0  0  0  0  0  0  0  0  0  0
   37.2250   31.6000   39.1990 C   0  0  0  0  0  0  0  0  0  0  0  0
   37.4470   32.7980   39.8450 C   0  0  0  0  0  0  0  0  0  0  0  0
   38.6640   32.9610   40.4060 N   0  0  0  0  0  0  0  0  0  0  0  0
   39.5910   31.9800   40.3190 C   0  0  0  0  0  0  0  0  0  0  0  0
   39.3600   30.8220   39.6870 N   0  0  0  0  0  0  0  0  0  0  0  0
   36.2610   31.4320   38.7360 H   0  0  0  0  0  0  0  0  0  0  0  0
   36.7010   33.5750   39.9100 H   0  0  0  0  0  0  0  0  0  0  0  0
   40.9190   32.1750   40.9390 C   0  0  0  0  0  0  0  0  0  0  0  0
   41.2120   31.5390   42.1190 C   0  0  0  0  0  0  0  0  0  0  0  0
   42.4250   31.6460   42.7920 C   0  0  0  0  0  0  0  0  0  0  0  0
   43.3770   32.4600   42.1990 C   0  0  0  0  0  0  0  0  0  0  0  0
   43.0900   33.0950   41.0250 C   0  0  0  0  0  0  0  0  0  0  0  0
   41.8800   32.9750   40.3730 C   0  0  0  0  0  0  0  0  0  0  0  0
   40.4520   30.9020   42.5700 H   0  0  0  0  0  0  0  0  0  0  0  0
   42.6250   31.1360   43.7130 H   0  0  0  0  0  0  0  0  0  0  0  0
   44.3340   32.5580   42.7090 H   0  0  0  0  0  0  0  0  0  0  0  0
   43.8310   33.7410   40.5460 H   0  0  0  0  0  0  0  0  0  0  0  0
   41.5620   33.5960   39.2000 O   0  0  0  0  0  0  0  0  0  0  0  0
   42.7880   31.8340   37.7120 O   0  0  0  0  0  0  0  0  0  0  0  0
   41.7510   32.9600   37.6470 P   0  0  0  0  0  0  0  0  0  0  0  0
   40.3360   32.4280   36.9380 O   0  0  0  0  0  0  0  0  0  0  0  0
   39.5520   32.8760   37.3670 H   0  0  0  0  0  0  0  0  0  0  0  0
   42.4300   34.1610   36.6550 O   0  0  0  0  0  0  0  0  0  0  0  0
   43.0250   33.7480   35.9790 H   0  0  0  0  0  0  0  0  0  0  0  0
   37.4200   28.2350   36.4290 C   0  0  0  0  0  0  0  0  0  0  0  0
   37.4050   27.0210   37.1200 C   0  0  0  0  0  0  0  0  0  0  0  0
   37.6400   27.0120   38.4720 C   0  0  0  0  0  0  0  0  0  0  0  0
   37.8820   28.2070   39.1010 N   0  0  0  0  0  0  0  0  0  0  0  0
   37.8920   29.3640   38.4210 C   0  0  0  0  0  0  0  0  0  0  0  0
   37.6620   29.3730   37.0980 N   0  0  0  0  0  0  0  0  0  0  0  0
   37.2420   28.3100   35.3630 H   0  0  0  0  0  0  0  0  0  0  0  0
   37.2100   26.1050   36.5820 H   0  0  0  0  0  0  0  0  0  0  0  0
   38.7840   25.0290   39.3750 C   0  0  0  0  0  0  0  0  0  0  0  0
   37.6420   25.7940   39.2680 C   0  0  0  0  0  0  0  0  0  0  0  0
   36.5600   25.3130   39.9550 C   0  0  0  0  0  0  0  0  0  0  0  0
   35.6280   25.8580   39.9210 H   0  0  0  0  0  0  0  0  0  0  0  0
   36.5750   24.1530   40.7100 C   0  0  0  0  0  0  0  0  0  0  0  0
   35.6650   23.8440   41.2260 H   0  0  0  0  0  0  0  0  0  0  0  0
   37.7450   23.4270   40.7820 C   0  0  0  0  0  3  0  0  0  0  0  0
   38.8720   23.8580   40.1110 C   0  0  0  0  0  3  0  0  0  0  0  0
   40.9870   25.7220   38.1370 N   0  0  0  0  0  0  0  0  0  0  0  0
   40.0070   25.4150   38.7000 C   0  0  0  0  0  0  0  0  0  0  0  0
  1  2  2  0  0  0  0
  1  6  1  0  0  0  0
  2  3  1  0  0  0  0
  3  8  1  0  0  0  0
  3  4  2  0  0  0  0
  5  4  1  0  0  0  0
  5  9  1  0  0  0  0
  6  5  2  0  0  0  0
  7  2  1  0  0  0  0
  9 10  1  0  0  0  0
 10 15  1  0  0  0  0
 10 11  2  0  0  0  0
 11 16  1  0  0  0  0
 12 17  1  0  0  0  0
 12 11  1  0  0  0  0
 13 12  2  0  0  0  0
 14  9  2  0  0  0  0
 14 13  1  0  0  0  0
 18 13  1  0  0  0  0
 19 14  1  0  0  0  0
 21 20  2  0  0  0  0
 21 19  1  0  0  0  0
 22 23  1  0  0  0  0
 22 21  1  0  0  0  0
 24 21  1  0  0  0  0
 25 24  1  0  0  0  0
 26 31  2  0  0  0  0
 26 27  1  0  0  0  0
 27 28  2  0  0  0  0
 28 29  1  0  0  0  0
 28 35  1  0  0  0  0
 30 29  2  0  0  0  0
 30  1  1  0  0  0  0
 31 30  1  0  0  0  0
 32 26  1  0  0  0  0
 33 27  1  0  0  0  0
 34 41  1  0  0  0  0
 35 34  2  0  0  0  0
 35 36  1  0  0  0  0
 36 38  2  0  0  0  0
 37 36  1  0  0  0  0
 38 40  1  0  0  0  0
 38 39  1  0  0  0  0
 41 40  2  0  0  0  0
 42 43  3  0  0  0  0
 43 34  1  0  0  0  0
M  END
>  <minimizedAffinity>
-6.1283493

$$$$

 OpenBabel03242521263D

 43 46  0  0  0  0  0  0  0  0999 V2000
   38.7300   31.7470   40.4260 C   0  0  0  0  0  0  0  0  0  0  0  0
   38.3050   33.0190   40.6410 C   0  0  0  0  0  0  0  0  0  0  0  0
   39.0340   34.1370   40.2950 C   0  0  0  0  0  0  0  0  0  0  0  0
   40.2300   33.9170   39.7110 N   0  0  0  0  0  0  0  0  0  0  0  0
   40.6600   32.6530   39.4940 C   0  0  0  0  0  0  0  0  0  0  0  0
   39.9400   31.5770   39.8360 N   0  0  0  0  0  0  0  0  0  0  0  0
   37.3400   33.1550   41.1120 H   0  0  0  0  0  0  0  0  0  0  0  0
   38.6830   35.1420   40.4730 H   0  0  0  0  0  0  0  0  0  0  0  0
   41.9730   32.4280   38.8530 C   0  0  0  0  0  0  0  0  0  0  0  0
   42.0230   31.9250   37.5770 C   0  0  0  0  0  0  0  0  0  0  0  0
   43.1970   31.6730   36.8750 C   0  0  0  0  0  0  0  0  0  0  0  0
   44.3770   31.9650   37.5430 C   0  0  0  0  0  0  0  0  0  0  0  0
   44.3320   32.4650   38.8120 C   0  0  0  0  0  0  0  0  0  0  0  0
   43.1550   32.7090   39.4910 C   0  0  0  0  0  0  0  0  0  0  0  0
   41.0870   31.7030   37.0680 H   0  0  0  0  0  0  0  0  0  0  0  0
   43.2050   31.2790   35.8790 H   0  0  0  0  0  0  0  0  0  0  0  0
   45.3080   31.7750   37.0110 H   0  0  0  0  0  0  0  0  0  0  0  0
   45.2540   32.6990   39.3510 H   0  0  0  0  0  0  0  0  0  0  0  0
   43.0760   33.2080   40.7590 O   0  0  0  0  0  0  0  0  0  0  0  0
   43.8900   31.0110   41.9130 O   0  0  0  0  0  0  0  0  0  0  0  0
   43.1380   32.3160   42.1920 P   0  0  0  0  0  0  0  0  0  0  0  0
   43.8110   33.1280   43.4850 O   0  0  0  0  0  0  0  0  0  0  0  0
   43.7530   34.1150   43.3350 H   0  0  0  0  0  0  0  0  0  0  0  0
   41.5550   31.8610   42.6080 O   0  0  0  0  0  0  0  0  0  0  0  0
   41.5610   30.9740   43.0510 H   0  0  0  0  0  0  0  0  0  0  0  0
   35.8430   29.5930   41.0440 C   0  0  0  0  0  0  0  0  0  0  0  0
   36.4530   28.4200   41.4940 C   0  0  0  0  0  0  0  0  0  0  0  0
   37.8210   28.3630   41.5850 C   0  0  0  0  0  0  0  0  0  0  0  0
   38.5450   29.4720   41.2290 N   0  0  0  0  0  0  0  0  0  0  0  0
   37.9430   30.5920   40.7980 C   0  0  0  0  0  0  0  0  0  0  0  0
   36.6040   30.6460   40.7080 N   0  0  0  0  0  0  0  0  0  0  0  0
   34.7690   29.7010   40.9490 H   0  0  0  0  0  0  0  0  0  0  0  0
   35.8410   27.5720   41.7640 H   0  0  0  0  0  0  0  0  0  0  0  0
   38.6180   26.0590   41.2510 C   0  0  0  0  0  0  0  0  0  0  0  0
   38.5370   27.1830   42.0450 C   0  0  0  0  0  0  0  0  0  0  0  0
   39.1700   27.0800   43.2550 C   0  0  0  0  0  0  0  0  0  0  0  0
   39.1510   27.9200   43.9330 H   0  0  0  0  0  0  0  0  0  0  0  0
   39.8480   25.9510   43.6800 C   0  0  0  0  0  0  0  0  0  0  0  0
   40.3250   25.9570   44.6610 H   0  0  0  0  0  0  0  0  0  0  0  0
   39.8970   24.8560   42.8440 C   0  0  0  0  0  3  0  0  0  0  0  0
   39.2790   24.8950   41.6100 C   0  0  0  0  0  3  0  0  0  0  0  0
   37.5070   25.9830   38.8790 N   0  0  0  0  0  0  0  0  0  0  0  0
   37.9950   26.0230   39.9430 C   0  0  0  0  0  0  0  0  0  0  0  0
  1  2  1  0  0  0  0
  1 30  1  0  0  0  0
  2  7  1  0  0  0  0
  3  8  1  0  0  0  0
  3  2  2  0  0  0  0
  4  3  1  0  0  0  0
  5  4  2  0  0  0  0
  5  6  1  0  0  0  0
  6  1  2  0  0  0  0
  9 14  1  0  0  0  0
  9  5  1  0  0  0  0
 10  9  2  0  0  0  0
 11 12  2  0  0  0  0
 11 10  1  0  0  0  0
 12 13  1  0  0  0  0
 13 18  1  0  0  0  0
 13 14  2  0  0  0  0
 14 19  1  0  0  0  0
 15 10  1  0  0  0  0
 16 11  1  0  0  0  0
 17 12  1  0  0  0  0
 19 21  1  0  0  0  0
 20 21  2  0  0  0  0
 21 24  1  0  0  0  0
 21 22  1  0  0  0  0
 23 22  1  0  0  0  0
 24 25  1  0  0  0  0
 26 27  1  0  0  0  0
 27 28  2  0  0  0  0
 27 33  1  0  0  0  0
 28 35  1  0  0  0  0
 29 28  1  0  0  0  0
 30 29  2  0  0  0  0
 31 30  1  0  0  0  0
 31 26  2  0  0  0  0
 32 26  1  0  0  0  0
 34 41  2  0  0  0  0
 34 35  1  0  0  0  0
 35 36  2  0  0  0  0
 36 38  1  0  0  0  0
 36 37  1  0  0  0  0
 38 39  1  0  0  0  0
 40 38  2  0  0  0  0
 41 40  1  0  0  0  0
 42 43  3  0  0  0  0
 43 34  1  0  0  0  0
M  END
>  <minimizedAffinity>
-6.07782316

$$$$

 OpenBabel03242521263D

 43 46  0  0  0  0  0  0  0  0999 V2000
   36.8380   29.5530   38.7640 C   0  0  0  0  0  0  0  0  0  0  0  0
   35.8540   29.4670   37.8320 C   0  0  0  0  0  0  0  0  0  0  0  0
   35.1810   28.3000   37.5380 C   0  0  0  0  0  0  0  0  0  0  0  0
   35.5480   27.2040   38.2350 N   0  0  0  0  0  0  0  0  0  0  0  0
   36.5270   27.2830   39.1640 C   0  0  0  0  0  0  0  0  0  0  0  0
   37.1710   28.4250   39.4380 N   0  0  0  0  0  0  0  0  0  0  0  0
   35.5880   30.3680   37.2950 H   0  0  0  0  0  0  0  0  0  0  0  0
   34.4010   28.2460   36.7950 H   0  0  0  0  0  0  0  0  0  0  0  0
   36.9170   26.0720   39.9180 C   0  0  0  0  0  0  0  0  0  0  0  0
   37.1720   24.9080   39.2390 C   0  0  0  0  0  0  0  0  0  0  0  0
   37.5460   23.7110   39.8410 C   0  0  0  0  0  0  0  0  0  0  0  0
   37.6570   23.7360   41.2220 C   0  0  0  0  0  0  0  0  0  0  0  0
   37.4040   24.8920   41.9020 C   0  0  0  0  0  0  0  0  0  0  0  0
   37.0350   26.0700   41.2850 C   0  0  0  0  0  0  0  0  0  0  0  0
   37.0810   24.9070   38.1540 H   0  0  0  0  0  0  0  0  0  0  0  0
   37.7390   22.8160   39.2830 H   0  0  0  0  0  0  0  0  0  0  0  0
   37.9480   22.8080   41.7140 H   0  0  0  0  0  0  0  0  0  0  0  0
   37.4870   24.9270   42.9920 H   0  0  0  0  0  0  0  0  0  0  0  0
   36.7750   27.2410   41.9360 O   0  0  0  0  0  0  0  0  0  0  0  0
   38.7160   27.3620   43.6780 O   0  0  0  0  0  0  0  0  0  0  0  0
   37.9050   28.2290   42.7110 P   0  0  0  0  0  0  0  0  0  0  0  0
   38.9090   29.0740   41.6800 O   0  0  0  0  0  0  0  0  0  0  0  0
   38.4810   29.1570   40.7800 H   0  0  0  0  0  0  0  0  0  0  0  0
   37.0660   29.3450   43.6790 O   0  0  0  0  0  0  0  0  0  0  0  0
   37.5900   29.5490   44.4950 H   0  0  0  0  0  0  0  0  0  0  0  0
   37.4520   32.9820   39.8710 C   0  0  0  0  0  0  0  0  0  0  0  0
   38.8150   33.1290   39.6060 C   0  0  0  0  0  0  0  0  0  0  0  0
   39.5130   32.0800   39.0600 C   0  0  0  0  0  0  0  0  0  0  0  0
   38.8380   30.9160   38.7920 N   0  0  0  0  0  0  0  0  0  0  0  0
   37.5270   30.7930   39.0540 C   0  0  0  0  0  0  0  0  0  0  0  0
   36.8450   31.8190   39.5880 N   0  0  0  0  0  0  0  0  0  0  0  0
   36.8460   33.7710   40.3010 H   0  0  0  0  0  0  0  0  0  0  0  0
   39.3050   34.0640   39.8330 H   0  0  0  0  0  0  0  0  0  0  0  0
   41.8740   31.8270   39.7060 C   0  0  0  0  0  0  0  0  0  0  0  0
   40.9330   32.1480   38.7520 C   0  0  0  0  0  0  0  0  0  0  0  0
   41.4470   32.5190   37.5380 C   0  0  0  0  0  0  0  0  0  0  0  0
   40.7730   32.7840   36.7370 H   0  0  0  0  0  0  0  0  0  0  0  0
   42.8010   32.5780   37.2560 C   0  0  0  0  0  0  0  0  0  0  0  0
   43.1230   32.8840   36.2600 H   0  0  0  0  0  0  0  0  0  0  0  0
   43.6980   32.2460   38.2500 C   0  0  0  0  0  3  0  0  0  0  0  0
   43.2430   31.8630   39.4960 C   0  0  0  0  0  3  0  0  0  0  0  0
   41.1380   31.0980   42.1130 N   0  0  0  0  0  0  0  0  0  0  0  0
   41.4750   31.4160   41.0380 C   0  0  0  0  0  0  0  0  0  0  0  0
  1 30  1  0  0  0  0
  1  6  1  0  0  0  0
  2  1  2  0  0  0  0
  3  2  1  0  0  0  0
  3  4  2  0  0  0  0
  4  5  1  0  0  0  0
  5  6  2  0  0  0  0
  5  9  1  0  0  0  0
  7  2  1  0  0  0  0
  8  3  1  0  0  0  0
  9 14  1  0  0  0  0
 10 11  1  0  0  0  0
 10  9  2  0  0  0  0
 11 12  2  0  0  0  0
 12 17  1  0  0  0  0
 12 13  1  0  0  0  0
 13 18  1  0  0  0  0
 14 13  2  0  0  0  0
 14 19  1  0  0  0  0
 15 10  1  0  0  0  0
 16 11  1  0  0  0  0
 19 21  1  0  0  0  0
 21 20  2  0  0  0  0
 21 24  1  0  0  0  0
 22 21  1  0  0  0  0
 23 22  1  0  0  0  0
 24 25  1  0  0  0  0
 26 32  1  0  0  0  0
 27 33  1  0  0  0  0
 27 26  1  0  0  0  0
 28 27  2  0  0  0  0
 29 30  2  0  0  0  0
 29 28  1  0  0  0  0
 30 31  1  0  0  0  0
 31 26  2  0  0  0  0
 34 43  1  0  0  0  0
 35 28  1  0  0  0  0
 35 34  2  0  0  0  0
 36 35  1  0  0  0  0
 37 36  1  0  0  0  0
 38 36  2  0  0  0  0
 38 40  1  0  0  0  0
 39 38  1  0  0  0  0
 40 41  2  0  0  0  0
 41 34  1  0  0  0  0
 43 42  3  0  0  0  0
M  END
>  <minimizedAffinity>
-6.04823589

$$$$

 OpenBabel03242521263D

 43 46  0  0  0  0  0  0  0  0999 V2000
   38.6440   31.3900   40.2680 C   0  0  0  0  0  0  0  0  0  0  0  0
   38.0320   32.5810   40.0430 C   0  0  0  0  0  0  0  0  0  0  0  0
   38.6510   33.8020   40.2110 C   0  0  0  0  0  0  0  0  0  0  0  0
   39.9350   33.7720   40.6240 N   0  0  0  0  0  0  0  0  0  0  0  0
   40.5510   32.5890   40.8510 C   0  0  0  0  0  0  0  0  0  0  0  0
   39.9360   31.4120   40.6810 N   0  0  0  0  0  0  0  0  0  0  0  0
   37.0020   32.5640   39.7130 H   0  0  0  0  0  0  0  0  0  0  0  0
   38.1520   34.7410   40.0290 H   0  0  0  0  0  0  0  0  0  0  0  0
   41.9590   32.5740   41.3020 C   0  0  0  0  0  0  0  0  0  0  0  0
   42.2880   31.9140   42.4590 C   0  0  0  0  0  0  0  0  0  0  0  0
   43.5750   31.8320   42.9800 C   0  0  0  0  0  0  0  0  0  0  0  0
   44.5650   32.4720   42.2520 C   0  0  0  0  0  0  0  0  0  0  0  0
   44.2430   33.1300   41.1000 C   0  0  0  0  0  0  0  0  0  0  0  0
   42.9580   33.1990   40.6000 C   0  0  0  0  0  0  0  0  0  0  0  0
   41.4970   31.4160   43.0170 H   0  0  0  0  0  0  0  0  0  0  0  0
   43.8020   31.3080   43.8880 H   0  0  0  0  0  0  0  0  0  0  0  0
   45.5810   32.4210   42.6420 H   0  0  0  0  0  0  0  0  0  0  0  0
   45.0130   33.6400   40.5160 H   0  0  0  0  0  0  0  0  0  0  0  0
   42.6030   33.8480   39.4530 O   0  0  0  0  0  0  0  0  0  0  0  0
   43.3090   32.0000   37.7480 O   0  0  0  0  0  0  0  0  0  0  0  0
   43.1740   33.5180   37.8980 P   0  0  0  0  0  0  0  0  0  0  0  0
   42.2450   34.1590   36.6690 O   0  0  0  0  0  0  0  0  0  0  0  0
   41.7050   34.9260   37.0140 H   0  0  0  0  0  0  0  0  0  0  0  0
   44.7480   34.1410   37.7630 O   0  0  0  0  0  0  0  0  0  0  0  0
   45.2920   33.5650   37.1670 H   0  0  0  0  0  0  0  0  0  0  0  0
   37.7360   27.8730   40.6700 C   0  0  0  0  0  0  0  0  0  0  0  0
   36.7050   27.7350   39.7380 C   0  0  0  0  0  0  0  0  0  0  0  0
   36.3260   28.8190   38.9860 C   0  0  0  0  0  0  0  0  0  0  0  0
   36.9810   30.0090   39.1800 N   0  0  0  0  0  0  0  0  0  0  0  0
   37.9700   30.1230   40.0810 C   0  0  0  0  0  0  0  0  0  0  0  0
   38.3400   29.0620   40.8160 N   0  0  0  0  0  0  0  0  0  0  0  0
   38.0800   27.0560   41.2930 H   0  0  0  0  0  0  0  0  0  0  0  0
   36.2180   26.7790   39.6200 H   0  0  0  0  0  0  0  0  0  0  0  0
   35.5570   28.5380   36.6660 C   0  0  0  0  0  0  0  0  0  0  0  0
   35.2640   28.7640   37.9930 C   0  0  0  0  0  0  0  0  0  0  0  0
   33.9330   28.9230   38.2710 C   0  0  0  0  0  0  0  0  0  0  0  0
   33.6230   29.1030   39.2890 H   0  0  0  0  0  0  0  0  0  0  0  0
   32.9310   28.8670   37.3170 C   0  0  0  0  0  0  0  0  0  0  0  0
   31.8940   29.0050   37.6270 H   0  0  0  0  0  0  0  0  0  0  0  0
   33.2820   28.6380   36.0030 C   0  0  0  0  0  3  0  0  0  0  0  0
   34.6080   28.4690   35.6580 C   0  0  0  0  0  3  0  0  0  0  0  0
   38.0280   28.1800   35.8720 N   0  0  0  0  0  0  0  0  0  0  0  0
   36.9250   28.3510   36.2240 C   0  0  0  0  0  0  0  0  0  0  0  0
  1  6  1  0  0  0  0
  2  3  1  0  0  0  0
  2  1  2  0  0  0  0
  3  4  2  0  0  0  0
  4  5  1  0  0  0  0
  5  9  1  0  0  0  0
  6  5  2  0  0  0  0
  7  2  1  0  0  0  0
  8  3  1  0  0  0  0
  9 10  1  0  0  0  0
 10 11  2  0  0  0  0
 10 15  1  0  0  0  0
 11 16  1  0  0  0  0
 12 17  1  0  0  0  0
 12 11  1  0  0  0  0
 13 12  2  0  0  0  0
 14 13  1  0  0  0  0
 14  9  2  0  0  0  0
 18 13  1  0  0  0  0
 19 14  1  0  0  0  0
 20 21  2  0  0  0  0
 21 19  1  0  0  0  0
 22 23  1  0  0  0  0
 22 21  1  0  0  0  0
 24 21  1  0  0  0  0
 25 24  1  0  0  0  0
 26 31  1  0  0  0  0
 26 32  1  0  0  0  0
 27 26  2  0  0  0  0
 28 29  2  0  0  0  0
 28 27  1  0  0  0  0
 29 30  1  0  0  0  0
 30  1  1  0  0  0  0
 30 31  2  0  0  0  0
 33 27  1  0  0  0  0
 34 35  1  0  0  0  0
 35 36  2  0  0  0  0
 35 28  1  0  0  0  0
 36 37  1  0  0  0  0
 38 39  1  0  0  0  0
 38 36  1  0  0  0  0
 40 38  2  0  0  0  0
 41 40  1  0  0  0  0
 41 34  2  0  0  0  0
 42 43  3  0  0  0  0
 43 34  1  0  0  0  0
M  END
>  <minimizedAffinity>
-5.98219633

$$$$
