
 OpenBabel03242512483D

 31 33  0  0  1  0  0  0  0  0999 V2000
   46.5840   34.1990   42.4410 N   0  0  0  0  0  0  0  0  0  0  0  0
   48.0240   34.2550   42.1340 C   0  0  0  0  0  0  0  0  0  0  0  0
   47.9360   34.8060   40.7400 C   0  0  0  0  0  0  0  0  0  0  0  0
   46.9200   33.8630   40.1240 C   0  0  0  0  0  0  0  0  0  0  0  0
   46.0010   33.6190   41.2670 C   0  0  2  0  0  0  0  0  0  0  0  0
   48.4740   34.9650   42.8610 H   0  0  0  0  0  0  0  0  0  0  0  0
   48.4410   33.2380   42.1990 H   0  0  0  0  0  0  0  0  0  0  0  0
   47.6380   35.8400   40.8170 H   0  0  0  0  0  0  0  0  0  0  0  0
   48.9020   34.7520   40.2000 H   0  0  0  0  0  0  0  0  0  0  0  0
   47.5200   32.9950   39.7850 H   0  0  0  0  0  0  0  0  0  0  0  0
   46.4560   34.2600   39.2120 H   0  0  0  0  0  0  0  0  0  0  0  0
   46.1890   32.4920   41.4890 H   0  0  0  0  0  0  0  0  0  0  0  0
   44.4920   36.0050   44.9090 C   0  0  0  0  0  0  0  0  0  0  0  0
   45.1390   35.7240   43.7110 C   0  0  0  0  0  0  0  0  0  0  0  0
   45.9030   34.5780   43.5890 C   0  0  0  0  0  0  0  0  0  0  0  0
   45.9730   33.7710   44.6930 N   0  0  0  0  0  0  0  0  0  0  0  0
   45.3560   34.0310   45.8520 C   0  0  0  0  0  0  0  0  0  0  0  0
   44.6060   35.1580   45.9670 N   0  0  0  0  0  0  0  0  0  0  0  0
   43.8750   36.8810   45.0880 H   0  0  0  0  0  0  0  0  0  0  0  0
   45.0060   36.4300   42.9500 H   0  0  0  0  0  0  0  0  0  0  0  0
   45.4890   33.3070   46.6660 H   0  0  0  0  0  0  0  0  0  0  0  0
   43.6700   32.7540   41.5070 C   0  0  0  0  0  0  0  0  0  0  0  0
   44.5930   33.6800   41.0450 C   0  0  0  0  0  0  0  0  0  0  0  0
   43.9430   34.6770   40.2980 C   0  0  0  0  0  0  0  0  0  0  0  0
   44.6000   35.4620   39.8880 H   0  0  0  0  0  0  0  0  0  0  0  0
   42.6030   34.7970   40.0150 C   0  0  0  0  0  0  0  0  0  0  0  0
   42.2590   35.6280   39.4220 H   0  0  0  0  0  0  0  0  0  0  0  0
   41.7820   33.8180   40.5250 C   0  0  0  0  0  0  0  0  0  0  0  0
   42.3100   32.7920   41.2740 C   0  0  0  0  0  0  0  0  0  0  0  0
   44.4980   30.7990   42.9910 N   0  0  0  0  0  0  0  0  0  0  0  0
   44.1240   31.6570   42.3310 C   0  0  0  0  0  0  0  0  0  0  0  0
  1 15  1  0  0  0  0
  2  7  1  0  0  0  0
  2  1  1  0  0  0  0
  2  6  1  0  0  0  0
  3  8  1  0  0  0  0
  3  2  1  0  0  0  0
  4  3  1  0  0  0  0
  4  5  1  0  0  0  0
  5 12  1  1  0  0  0
  5  1  1  0  0  0  0
  9  3  1  0  0  0  0
 10  4  1  0  0  0  0
 11  4  1  0  0  0  0
 13 19  1  0  0  0  0
 13 18  1  0  0  0  0
 14 13  2  0  0  0  0
 15 14  1  0  0  0  0
 15 16  2  0  0  0  0
 16 17  1  0  0  0  0
 17 18  2  0  0  0  0
 17 21  1  0  0  0  0
 20 14  1  0  0  0  0
 22 31  1  0  0  0  0
 23  5  1  0  0  0  0
 23 22  2  0  0  0  0
 24 23  1  0  0  0  0
 25 24  1  0  0  0  0
 26 24  2  0  0  0  0
 26 28  1  0  0  0  0
 27 26  1  0  0  0  0
 28 29  2  0  0  0  0
 29 22  1  0  0  0  0
 31 30  3  0  0  0  0
M  END
>  <minimizedAffinity>
-4.83213329

>  <minimizedRMSD>
1.54734576

$$$$
