
 OpenBabel03252500203D

 21 22  0  0  0  0  0  0  0  0999 V2000
   38.1250   30.7720   38.1100 C   0  0  0  0  0  0  0  0  0  0  0  0
   38.0210   29.8040   39.1370 C   0  0  0  0  0  0  0  0  0  0  0  0
   37.5120   30.2140   40.3640 C   0  0  0  0  0  0  0  0  0  0  0  0
   37.1470   31.5140   40.4990 N   0  0  0  0  0  0  0  0  0  0  0  0
   37.2580   32.4070   39.5060 C   0  0  0  0  0  0  0  0  0  0  0  0
   37.7490   32.0340   38.3050 N   0  0  0  0  0  0  0  0  0  0  0  0
   36.8670   33.7590   39.6820 N   0  0  0  0  0  0  0  0  0  0  0  0
   38.5270   30.4140   37.1640 H   0  0  0  0  0  0  0  0  0  0  0  0
   38.3240   28.8050   38.9650 H   0  0  0  0  0  0  0  0  0  0  0  0
   36.0890   34.1260   39.0840 H   0  0  0  0  0  0  0  0  0  0  0  0
   37.2290   34.5130   40.3380 H   0  0  0  0  0  0  0  0  0  0  0  0
   38.2610   29.3570   42.5310 C   0  0  0  0  0  0  0  0  0  0  0  0
   37.3650   29.2970   41.4850 C   0  0  0  0  0  0  0  0  0  0  0  0
   36.3760   28.3440   41.5910 C   0  0  0  0  0  0  0  0  0  0  0  0
   35.6480   28.2530   40.7960 H   0  0  0  0  0  0  0  0  0  0  0  0
   36.2580   27.4840   42.6630 C   0  0  0  0  0  0  0  0  0  0  0  0
   35.4630   26.7630   42.6820 H   0  0  0  0  0  0  0  0  0  0  0  0
   37.1870   27.5960   43.6800 C   0  0  0  0  0  3  0  0  0  0  0  0
   38.2030   28.5290   43.6360 C   0  0  0  0  0  3  0  0  0  0  0  0
   40.2160   31.0970   42.5280 N   0  0  0  0  0  0  0  0  0  0  0  0
   39.3360   30.3160   42.5280 C   0  0  0  0  0  0  0  0  0  0  0  0
  1  6  2  0  0  0  0
  1  2  1  0  0  0  0
  2  3  2  0  0  0  0
  3  4  1  0  0  0  0
  3 13  1  0  0  0  0
  5  7  1  0  0  0  0
  5  4  2  0  0  0  0
  6  5  1  0  0  0  0
  7 11  1  0  0  0  0
  8  1  1  0  0  0  0
  9  2  1  0  0  0  0
 10  7  1  0  0  0  0
 12 19  1  0  0  0  0
 13 14  1  0  0  0  0
 13 12  2  0  0  0  0
 14 16  2  0  0  0  0
 15 14  1  0  0  0  0
 16 17  1  0  0  0  0
 16 18  1  0  0  0  0
 19 18  2  0  0  0  0
 20 21  3  0  0  0  0
 21 12  1  0  0  0  0
M  END
>  <minimizedAffinity>
-4.88660955

$$$$

 OpenBabel03252500203D

 21 22  0  0  0  0  0  0  0  0999 V2000
   38.9470   30.9950   38.4100 C   0  0  0  0  0  0  0  0  0  0  0  0
   38.8450   29.9740   39.3840 C   0  0  0  0  0  0  0  0  0  0  0  0
   38.0950   30.2400   40.5240 C   0  0  0  0  0  0  0  0  0  0  0  0
   37.5090   31.4590   40.6300 N   0  0  0  0  0  0  0  0  0  0  0  0
   37.6250   32.4050   39.6880 C   0  0  0  0  0  0  0  0  0  0  0  0
   38.3480   32.1720   38.5730 N   0  0  0  0  0  0  0  0  0  0  0  0
   37.0000   33.6700   39.8320 N   0  0  0  0  0  0  0  0  0  0  0  0
   39.5430   30.7500   37.5310 H   0  0  0  0  0  0  0  0  0  0  0  0
   39.3280   29.0440   39.2390 H   0  0  0  0  0  0  0  0  0  0  0  0
   36.2730   33.9410   39.1270 H   0  0  0  0  0  0  0  0  0  0  0  0
   37.1300   34.4390   40.5550 H   0  0  0  0  0  0  0  0  0  0  0  0
   36.7210   28.6050   41.7210 C   0  0  0  0  0  0  0  0  0  0  0  0
   37.9270   29.2580   41.5850 C   0  0  0  0  0  0  0  0  0  0  0  0
   38.9040   28.9160   42.4950 C   0  0  0  0  0  0  0  0  0  0  0  0
   39.8700   29.3990   42.4340 H   0  0  0  0  0  0  0  0  0  0  0  0
   38.7220   27.9820   43.4940 C   0  0  0  0  0  0  0  0  0  0  0  0
   39.5260   27.7630   44.1710 H   0  0  0  0  0  0  0  0  0  0  0  0
   37.4900   27.3630   43.5760 C   0  0  0  0  0  3  0  0  0  0  0  0
   36.4680   27.6590   42.6970 C   0  0  0  0  0  3  0  0  0  0  0  0
   34.7360   29.1140   40.0930 N   0  0  0  0  0  0  0  0  0  0  0  0
   35.6280   28.8820   40.8250 C   0  0  0  0  0  0  0  0  0  0  0  0
  1  6  2  0  0  0  0
  1  2  1  0  0  0  0
  2  3  2  0  0  0  0
  3  4  1  0  0  0  0
  3 13  1  0  0  0  0
  5  7  1  0  0  0  0
  5  4  2  0  0  0  0
  6  5  1  0  0  0  0
  7 11  1  0  0  0  0
  8  1  1  0  0  0  0
  9  2  1  0  0  0  0
 10  7  1  0  0  0  0
 12 19  1  0  0  0  0
 13 12  2  0  0  0  0
 13 14  1  0  0  0  0
 14 16  2  0  0  0  0
 15 14  1  0  0  0  0
 16 18  1  0  0  0  0
 16 17  1  0  0  0  0
 19 18  2  0  0  0  0
 20 21  3  0  0  0  0
 21 12  1  0  0  0  0
M  END
>  <minimizedAffinity>
-4.8608036

$$$$

 OpenBabel03252500203D

 21 22  0  0  0  0  0  0  0  0999 V2000
   38.6800   29.9140   39.6490 C   0  0  0  0  0  0  0  0  0  0  0  0
   38.4820   28.5160   39.7160 C   0  0  0  0  0  0  0  0  0  0  0  0
   37.3200   28.0540   40.3240 C   0  0  0  0  0  0  0  0  0  0  0  0
   36.4500   28.9740   40.8130 N   0  0  0  0  0  0  0  0  0  0  0  0
   36.6670   30.2930   40.7340 C   0  0  0  0  0  0  0  0  0  0  0  0
   37.7870   30.7670   40.1490 N   0  0  0  0  0  0  0  0  0  0  0  0
   35.7360   31.2270   41.2560 N   0  0  0  0  0  0  0  0  0  0  0  0
   39.6010   30.2380   39.1660 H   0  0  0  0  0  0  0  0  0  0  0  0
   39.2020   27.8520   39.3140 H   0  0  0  0  0  0  0  0  0  0  0  0
   35.2820   31.8940   40.5880 H   0  0  0  0  0  0  0  0  0  0  0  0
   35.3890   31.3910   42.2480 H   0  0  0  0  0  0  0  0  0  0  0  0
   37.2700   25.9880   41.6370 C   0  0  0  0  0  0  0  0  0  0  0  0
   37.0220   26.6340   40.4440 C   0  0  0  0  0  0  0  0  0  0  0  0
   36.4980   25.8570   39.4350 C   0  0  0  0  0  0  0  0  0  0  0  0
   36.2850   26.3140   38.4780 H   0  0  0  0  0  0  0  0  0  0  0  0
   36.2240   24.5120   39.5720 C   0  0  0  0  0  0  0  0  0  0  0  0
   35.8160   23.9640   38.7450 H   0  0  0  0  0  0  0  0  0  0  0  0
   36.4950   23.9250   40.7930 C   0  0  0  0  0  3  0  0  0  0  0  0
   37.0210   24.6460   41.8460 C   0  0  0  0  0  3  0  0  0  0  0  0
   38.2660   27.2910   43.6780 N   0  0  0  0  0  0  0  0  0  0  0  0
   37.8180   26.7030   42.7620 C   0  0  0  0  0  0  0  0  0  0  0  0
  1  2  2  0  0  0  0
  1  6  1  0  0  0  0
  2  3  1  0  0  0  0
  3 13  1  0  0  0  0
  3  4  2  0  0  0  0
  5  4  1  0  0  0  0
  5  7  1  0  0  0  0
  6  5  2  0  0  0  0
  7 11  1  0  0  0  0
  8  1  1  0  0  0  0
  9  2  1  0  0  0  0
 10  7  1  0  0  0  0
 12 19  1  0  0  0  0
 12 21  1  0  0  0  0
 13 12  2  0  0  0  0
 14 16  2  0  0  0  0
 14 13  1  0  0  0  0
 15 14  1  0  0  0  0
 16 18  1  0  0  0  0
 17 16  1  0  0  0  0
 18 19  2  0  0  0  0
 21 20  3  0  0  0  0
M  END
>  <minimizedAffinity>
-4.67898035

$$$$

 OpenBabel03252500203D

 21 22  0  0  0  0  0  0  0  0999 V2000
   41.8090   25.7250   40.3640 C   0  0  0  0  0  0  0  0  0  0  0  0
   40.5480   26.2370   40.7470 C   0  0  0  0  0  0  0  0  0  0  0  0
   40.2300   26.2290   42.1000 C   0  0  0  0  0  0  0  0  0  0  0  0
   41.1490   25.7310   42.9670 N   0  0  0  0  0  0  0  0  0  0  0  0
   42.3360   25.2530   42.5710 C   0  0  0  0  0  0  0  0  0  0  0  0
   42.6680   25.2500   41.2630 N   0  0  0  0  0  0  0  0  0  0  0  0
   43.2730   24.7400   43.5030 N   0  0  0  0  0  0  0  0  0  0  0  0
   42.0220   25.7480   39.2950 H   0  0  0  0  0  0  0  0  0  0  0  0
   39.8760   26.6100   40.0200 H   0  0  0  0  0  0  0  0  0  0  0  0
   44.1990   25.2240   43.5860 H   0  0  0  0  0  0  0  0  0  0  0  0
   43.2170   23.9160   44.1720 H   0  0  0  0  0  0  0  0  0  0  0  0
   37.8260   25.9560   42.4740 C   0  0  0  0  0  0  0  0  0  0  0  0
   38.9580   26.7320   42.5990 C   0  0  0  0  0  0  0  0  0  0  0  0
   38.7850   27.9580   43.2030 C   0  0  0  0  0  0  0  0  0  0  0  0
   39.6410   28.6080   43.3260 H   0  0  0  0  0  0  0  0  0  0  0  0
   37.5690   28.4140   43.6670 C   0  0  0  0  0  0  0  0  0  0  0  0
   37.5030   29.3810   44.1280 H   0  0  0  0  0  0  0  0  0  0  0  0
   36.4730   27.5870   43.5120 C   0  0  0  0  0  3  0  0  0  0  0  0
   36.5770   26.3480   42.9150 C   0  0  0  0  0  3  0  0  0  0  0  0
   37.9360   23.5900   41.3580 N   0  0  0  0  0  0  0  0  0  0  0  0
   37.8890   24.6540   41.8580 C   0  0  0  0  0  0  0  0  0  0  0  0
  1  2  2  0  0  0  0
  1  6  1  0  0  0  0
  2  3  1  0  0  0  0
  3 13  1  0  0  0  0
  3  4  2  0  0  0  0
  5  4  1  0  0  0  0
  5  7  1  0  0  0  0
  6  5  2  0  0  0  0
  7 10  1  0  0  0  0
  7 11  1  0  0  0  0
  8  1  1  0  0  0  0
  9  2  1  0  0  0  0
 12 13  2  0  0  0  0
 12 19  1  0  0  0  0
 13 14  1  0  0  0  0
 14 15  1  0  0  0  0
 14 16  2  0  0  0  0
 16 17  1  0  0  0  0
 18 16  1  0  0  0  0
 19 18  2  0  0  0  0
 20 21  3  0  0  0  0
 21 12  1  0  0  0  0
M  END
>  <minimizedAffinity>
-4.57806444

$$$$

 OpenBabel03252500203D

 21 22  0  0  0  0  0  0  0  0999 V2000
   37.7040   32.6660   39.7090 C   0  0  0  0  0  0  0  0  0  0  0  0
   37.5140   31.7450   40.7660 C   0  0  0  0  0  0  0  0  0  0  0  0
   37.9290   30.4340   40.5640 C   0  0  0  0  0  0  0  0  0  0  0  0
   38.4890   30.1200   39.3680 N   0  0  0  0  0  0  0  0  0  0  0  0
   38.6550   31.0170   38.3870 C   0  0  0  0  0  0  0  0  0  0  0  0
   38.2610   32.2960   38.5570 N   0  0  0  0  0  0  0  0  0  0  0  0
   39.2440   30.6550   37.1490 N   0  0  0  0  0  0  0  0  0  0  0  0
   37.3670   33.6830   39.9040 H   0  0  0  0  0  0  0  0  0  0  0  0
   37.0700   32.0550   41.6740 H   0  0  0  0  0  0  0  0  0  0  0  0
   40.1410   31.1230   36.8770 H   0  0  0  0  0  0  0  0  0  0  0  0
   38.9370   29.9630   36.4020 H   0  0  0  0  0  0  0  0  0  0  0  0
   36.6020   28.6960   41.6650 C   0  0  0  0  0  0  0  0  0  0  0  0
   37.7790   29.4100   41.5880 C   0  0  0  0  0  0  0  0  0  0  0  0
   38.7430   29.0840   42.5160 C   0  0  0  0  0  0  0  0  0  0  0  0
   39.6860   29.6150   42.5020 H   0  0  0  0  0  0  0  0  0  0  0  0
   38.5770   28.1100   43.4790 C   0  0  0  0  0  0  0  0  0  0  0  0
   39.3700   27.9060   44.1730 H   0  0  0  0  0  0  0  0  0  0  0  0
   37.3750   27.4300   43.5010 C   0  0  0  0  0  3  0  0  0  0  0  0
   36.3670   27.7070   42.6000 C   0  0  0  0  0  3  0  0  0  0  0  0
   34.6460   29.1630   39.9890 N   0  0  0  0  0  0  0  0  0  0  0  0
   35.5240   28.9510   40.7430 C   0  0  0  0  0  0  0  0  0  0  0  0
  1  8  1  0  0  0  0
  1  2  1  0  0  0  0
  2  9  1  0  0  0  0
  3  2  2  0  0  0  0
  3 13  1  0  0  0  0
  4  3  1  0  0  0  0
  5  6  1  0  0  0  0
  5  4  2  0  0  0  0
  6  1  2  0  0  0  0
  7  5  1  0  0  0  0
 10  7  1  0  0  0  0
 11  7  1  0  0  0  0
 12 19  1  0  0  0  0
 13 12  2  0  0  0  0
 13 14  1  0  0  0  0
 14 16  2  0  0  0  0
 15 14  1  0  0  0  0
 16 18  1  0  0  0  0
 16 17  1  0  0  0  0
 19 18  2  0  0  0  0
 20 21  3  0  0  0  0
 21 12  1  0  0  0  0
M  END
>  <minimizedAffinity>
-4.44534779

$$$$

 OpenBabel03252500203D

 21 22  0  0  0  0  0  0  0  0999 V2000
   38.3800   27.4300   40.6950 C   0  0  0  0  0  0  0  0  0  0  0  0
   38.4940   28.7630   40.2390 C   0  0  0  0  0  0  0  0  0  0  0  0
   37.8670   29.7570   40.9820 C   0  0  0  0  0  0  0  0  0  0  0  0
   37.1860   29.3860   42.0950 N   0  0  0  0  0  0  0  0  0  0  0  0
   37.0960   28.1120   42.5000 C   0  0  0  0  0  0  0  0  0  0  0  0
   37.6960   27.1290   41.7980 N   0  0  0  0  0  0  0  0  0  0  0  0
   36.3750   27.7600   43.6690 N   0  0  0  0  0  0  0  0  0  0  0  0
   38.8840   26.6790   40.0890 H   0  0  0  0  0  0  0  0  0  0  0  0
   39.0410   28.9850   39.3610 H   0  0  0  0  0  0  0  0  0  0  0  0
   36.9050   27.3180   44.4580 H   0  0  0  0  0  0  0  0  0  0  0  0
   35.3460   27.8620   43.9160 H   0  0  0  0  0  0  0  0  0  0  0  0
   38.9220   31.9630   41.1070 C   0  0  0  0  0  0  0  0  0  0  0  0
   37.9240   31.1610   40.5980 C   0  0  0  0  0  0  0  0  0  0  0  0
   37.0350   31.7740   39.7420 C   0  0  0  0  0  0  0  0  0  0  0  0
   36.2310   31.1900   39.3140 H   0  0  0  0  0  0  0  0  0  0  0  0
   37.1080   33.1060   39.3930 C   0  0  0  0  0  0  0  0  0  0  0  0
   36.3820   33.5210   38.7210 H   0  0  0  0  0  0  0  0  0  0  0  0
   38.1330   33.8560   39.9370 C   0  0  0  0  0  3  0  0  0  0  0  0
   39.0570   33.3040   40.8020 C   0  0  0  0  0  3  0  0  0  0  0  0
   40.7150   30.9960   42.7510 N   0  0  0  0  0  0  0  0  0  0  0  0
   39.9090   31.4290   42.0110 C   0  0  0  0  0  0  0  0  0  0  0  0
  1  6  1  0  0  0  0
  2  1  2  0  0  0  0
  2  3  1  0  0  0  0
  3  4  2  0  0  0  0
  4  5  1  0  0  0  0
  5  7  1  0  0  0  0
  6  5  2  0  0  0  0
  7 11  1  0  0  0  0
  7 10  1  0  0  0  0
  8  1  1  0  0  0  0
  9  2  1  0  0  0  0
 12 21  1  0  0  0  0
 13  3  1  0  0  0  0
 13 12  2  0  0  0  0
 14 13  1  0  0  0  0
 15 14  1  0  0  0  0
 16 14  2  0  0  0  0
 16 18  1  0  0  0  0
 17 16  1  0  0  0  0
 18 19  2  0  0  0  0
 19 12  1  0  0  0  0
 21 20  3  0  0  0  0
M  END
>  <minimizedAffinity>
-4.43525219

$$$$

 OpenBabel03252500203D

 21 22  0  0  0  0  0  0  0  0999 V2000
   40.1680   31.4770   39.2350 C   0  0  0  0  0  0  0  0  0  0  0  0
   39.6750   30.3150   39.8740 C   0  0  0  0  0  0  0  0  0  0  0  0
   38.8990   30.4840   41.0150 C   0  0  0  0  0  0  0  0  0  0  0  0
   38.6630   31.7500   41.4430 N   0  0  0  0  0  0  0  0  0  0  0  0
   39.1450   32.8310   40.8130 C   0  0  0  0  0  0  0  0  0  0  0  0
   39.9000   32.6940   39.7040 N   0  0  0  0  0  0  0  0  0  0  0  0
   38.8780   34.1400   41.2880 N   0  0  0  0  0  0  0  0  0  0  0  0
   40.7710   31.3050   38.3440 H   0  0  0  0  0  0  0  0  0  0  0  0
   39.8970   29.3550   39.4890 H   0  0  0  0  0  0  0  0  0  0  0  0
   38.3420   34.7890   40.6640 H   0  0  0  0  0  0  0  0  0  0  0  0
   39.1300   34.6190   42.2030 H   0  0  0  0  0  0  0  0  0  0  0  0
   39.1610   28.6250   42.5870 C   0  0  0  0  0  0  0  0  0  0  0  0
   38.3460   29.3540   41.7480 C   0  0  0  0  0  0  0  0  0  0  0  0
   37.0340   28.9380   41.6700 C   0  0  0  0  0  0  0  0  0  0  0  0
   36.3520   29.4750   41.0250 H   0  0  0  0  0  0  0  0  0  0  0  0
   36.5320   27.8630   42.3730 C   0  0  0  0  0  0  0  0  0  0  0  0
   35.5000   27.5920   42.2660 H   0  0  0  0  0  0  0  0  0  0  0  0
   37.4010   27.1750   43.1970 C   0  0  0  0  0  3  0  0  0  0  0  0
   38.7270   27.5380   43.3210 C   0  0  0  0  0  3  0  0  0  0  0  0
   41.6850   29.2560   42.8750 N   0  0  0  0  0  0  0  0  0  0  0  0
   40.5510   28.9700   42.7470 C   0  0  0  0  0  0  0  0  0  0  0  0
  1  6  2  0  0  0  0
  1  2  1  0  0  0  0
  2  3  2  0  0  0  0
  3  4  1  0  0  0  0
  3 13  1  0  0  0  0
  5  7  1  0  0  0  0
  5  4  2  0  0  0  0
  6  5  1  0  0  0  0
  7 11  1  0  0  0  0
  8  1  1  0  0  0  0
  9  2  1  0  0  0  0
 10  7  1  0  0  0  0
 12 21  1  0  0  0  0
 12 19  1  0  0  0  0
 13 12  2  0  0  0  0
 14 13  1  0  0  0  0
 14 16  2  0  0  0  0
 15 14  1  0  0  0  0
 16 18  1  0  0  0  0
 17 16  1  0  0  0  0
 18 19  2  0  0  0  0
 21 20  3  0  0  0  0
M  END
>  <minimizedAffinity>
-4.3933897

$$$$

 OpenBabel03252500203D

 21 22  0  0  0  0  0  0  0  0999 V2000
   37.0370   31.1780   38.0830 C   0  0  0  0  0  0  0  0  0  0  0  0
   36.8850   30.7020   39.4060 C   0  0  0  0  0  0  0  0  0  0  0  0
   37.5540   29.5350   39.7540 C   0  0  0  0  0  0  0  0  0  0  0  0
   38.3090   28.9260   38.8050 N   0  0  0  0  0  0  0  0  0  0  0  0
   38.4320   29.4030   37.5600 C   0  0  0  0  0  0  0  0  0  0  0  0
   37.7940   30.5350   37.1960 N   0  0  0  0  0  0  0  0  0  0  0  0
   39.2300   28.7410   36.5920 N   0  0  0  0  0  0  0  0  0  0  0  0
   36.4990   32.0950   37.8470 H   0  0  0  0  0  0  0  0  0  0  0  0
   36.2800   31.2250   40.0980 H   0  0  0  0  0  0  0  0  0  0  0  0
   40.0550   29.2560   36.2010 H   0  0  0  0  0  0  0  0  0  0  0  0
   39.1520   27.7720   36.1630 H   0  0  0  0  0  0  0  0  0  0  0  0
   38.2380   29.4790   42.1050 C   0  0  0  0  0  0  0  0  0  0  0  0
   37.4620   28.9610   41.0900 C   0  0  0  0  0  0  0  0  0  0  0  0
   36.6400   27.9100   41.4350 C   0  0  0  0  0  0  0  0  0  0  0  0
   36.0110   27.4660   40.6760 H   0  0  0  0  0  0  0  0  0  0  0  0
   36.5710   27.3820   42.7070 C   0  0  0  0  0  0  0  0  0  0  0  0
   35.9100   26.5620   42.9090 H   0  0  0  0  0  0  0  0  0  0  0  0
   37.3750   27.9470   43.6790 C   0  0  0  0  0  3  0  0  0  0  0  0
   38.2210   29.0010   43.4010 C   0  0  0  0  0  3  0  0  0  0  0  0
   39.8690   31.4780   41.6610 N   0  0  0  0  0  0  0  0  0  0  0  0
   39.1350   30.5800   41.8580 C   0  0  0  0  0  0  0  0  0  0  0  0
  1  2  1  0  0  0  0
  2  3  2  0  0  0  0
  2  9  1  0  0  0  0
  3 13  1  0  0  0  0
  4  3  1  0  0  0  0
  5  4  2  0  0  0  0
  6  5  1  0  0  0  0
  6  1  2  0  0  0  0
  7  5  1  0  0  0  0
  8  1  1  0  0  0  0
 10  7  1  0  0  0  0
 11  7  1  0  0  0  0
 12 19  1  0  0  0  0
 13 14  1  0  0  0  0
 13 12  2  0  0  0  0
 14 16  2  0  0  0  0
 15 14  1  0  0  0  0
 16 17  1  0  0  0  0
 16 18  1  0  0  0  0
 19 18  2  0  0  0  0
 20 21  3  0  0  0  0
 21 12  1  0  0  0  0
M  END
>  <minimizedAffinity>
-4.36580086

$$$$

 OpenBabel03252500203D

 21 22  0  0  0  0  0  0  0  0999 V2000
   39.0820   27.6630   41.1390 C   0  0  0  0  0  0  0  0  0  0  0  0
   39.1130   28.9830   40.6320 C   0  0  0  0  0  0  0  0  0  0  0  0
   38.2270   29.9060   41.1760 C   0  0  0  0  0  0  0  0  0  0  0  0
   37.3900   29.4830   42.1580 N   0  0  0  0  0  0  0  0  0  0  0  0
   37.3870   28.2240   42.6160 C   0  0  0  0  0  0  0  0  0  0  0  0
   38.2370   27.3090   42.1050 N   0  0  0  0  0  0  0  0  0  0  0  0
   36.4990   27.8160   43.6440 N   0  0  0  0  0  0  0  0  0  0  0  0
   39.7910   26.9690   40.6890 H   0  0  0  0  0  0  0  0  0  0  0  0
   39.7910   29.2480   39.8640 H   0  0  0  0  0  0  0  0  0  0  0  0
   36.9130   27.4800   44.5460 H   0  0  0  0  0  0  0  0  0  0  0  0
   35.4370   27.7820   43.6800 H   0  0  0  0  0  0  0  0  0  0  0  0
   37.3470   31.6310   39.6780 C   0  0  0  0  0  0  0  0  0  0  0  0
   38.1770   31.2890   40.7240 C   0  0  0  0  0  0  0  0  0  0  0  0
   38.9140   32.3170   41.2710 C   0  0  0  0  0  0  0  0  0  0  0  0
   39.5820   32.1030   42.0940 H   0  0  0  0  0  0  0  0  0  0  0  0
   38.8510   33.6210   40.8250 C   0  0  0  0  0  0  0  0  0  0  0  0
   39.4530   34.3740   41.2950 H   0  0  0  0  0  0  0  0  0  0  0  0
   37.9990   33.8980   39.7730 C   0  0  0  0  0  3  0  0  0  0  0  0
   37.2330   32.9150   39.1800 C   0  0  0  0  0  3  0  0  0  0  0  0
   35.8660   29.8220   38.5010 N   0  0  0  0  0  0  0  0  0  0  0  0
   36.5290   30.6370   39.0310 C   0  0  0  0  0  0  0  0  0  0  0  0
  1  6  1  0  0  0  0
  2  1  2  0  0  0  0
  2  3  1  0  0  0  0
  3  4  2  0  0  0  0
  4  5  1  0  0  0  0
  5  7  1  0  0  0  0
  6  5  2  0  0  0  0
  7 11  1  0  0  0  0
  7 10  1  0  0  0  0
  8  1  1  0  0  0  0
  9  2  1  0  0  0  0
 12 13  1  0  0  0  0
 13  3  1  0  0  0  0
 13 14  2  0  0  0  0
 14 15  1  0  0  0  0
 16 14  1  0  0  0  0
 16 17  1  0  0  0  0
 18 16  2  0  0  0  0
 19 12  2  0  0  0  0
 19 18  1  0  0  0  0
 20 21  3  0  0  0  0
 21 12  1  0  0  0  0
M  END
>  <minimizedAffinity>
-4.31990528

$$$$
