
 OpenBabel03252500363D

 47 50  0  0  1  0  0  0  0  0999 V2000
   46.2600   34.5280   43.9300 C   0  0  1  0  0  0  0  0  0  0  0  0
   45.1020   34.5670   44.7110 C   0  0  0  0  0  0  0  0  0  0  0  0
   46.1780   33.7250   45.2610 C   0  0  1  0  0  0  0  0  0  0  0  0
   46.9980   35.3790   43.9450 H   0  0  0  0  0  0  0  0  0  0  0  0
   44.8180   35.5110   45.2420 H   0  0  0  0  0  0  0  0  0  0  0  0
   44.1750   34.0200   44.3780 H   0  0  0  0  0  0  0  0  0  0  0  0
   46.9290   34.0910   45.9770 H   0  0  0  0  0  0  0  0  0  0  0  0
   45.3430   33.5430   41.8250 C   0  0  0  0  0  0  0  0  0  0  0  0
   46.4730   33.7270   42.6850 C   0  0  0  0  0  0  0  0  0  0  0  0
   47.6730   33.1810   42.3570 C   0  0  0  0  0  0  0  0  0  0  0  0
   47.7260   32.4640   41.1820 N   0  0  0  0  0  0  0  0  0  0  0  0
   46.6530   32.2980   40.3790 C   0  0  0  0  0  0  0  0  0  0  0  0
   45.4220   32.8350   40.6770 N   0  0  0  0  0  0  0  0  0  0  0  0
   44.4030   33.9700   42.0830 H   0  0  0  0  0  0  0  0  0  0  0  0
   48.5260   33.3090   42.9890 H   0  0  0  0  0  0  0  0  0  0  0  0
   47.4090   32.0750   38.0440 C   0  0  0  0  0  0  0  0  0  0  0  0
   46.8030   31.5240   39.1530 C   0  0  0  0  0  0  0  0  0  0  0  0
   46.3200   30.2310   39.1470 C   0  0  0  0  0  0  0  0  0  0  0  0
   45.8420   29.7430   39.9680 H   0  0  0  0  0  0  0  0  0  0  0  0
   46.4490   29.4710   37.9950 C   0  0  0  0  0  0  0  0  0  0  0  0
   46.1020   28.4380   37.8810 H   0  0  0  0  0  0  0  0  0  0  0  0
   47.0540   29.9810   36.8420 C   0  0  0  0  0  3  0  0  0  0  0  0
   47.5220   31.2830   36.8980 C   0  0  0  0  0  3  0  0  0  0  0  0
   48.2870   34.5090   38.0900 N   0  0  0  0  0  0  0  0  0  0  0  0
   47.9000   33.4180   38.0780 C   0  0  0  0  0  0  0  0  0  0  0  0
   46.0780   32.2470   45.2070 C   0  0  0  0  0  0  0  0  0  0  0  0
   47.0590   31.8390   44.9200 H   0  0  0  0  0  0  0  0  0  0  0  0
   45.3370   31.9210   44.4490 H   0  0  0  0  0  0  0  0  0  0  0  0
   45.7520   31.7960   46.5120 N   0  0  0  0  0  0  0  0  0  0  0  0
   46.1550   32.5710   47.6040 C   0  0  0  0  0  0  0  0  0  0  0  0
   47.5460   32.1490   48.1160 C   0  0  0  0  0  0  0  0  0  0  0  0
   47.3860   30.7680   48.6960 C   0  0  0  0  0  0  0  0  0  0  0  0
   46.9180   29.8840   47.5750 C   0  0  0  0  0  0  0  0  0  0  0  0
   45.7560   30.4220   46.7850 C   0  0  2  0  0  0  0  0  0  0  0  0
   45.4860   32.2520   48.4630 H   0  0  0  0  0  0  0  0  0  0  0  0
   46.0160   33.6500   47.5840 H   0  0  0  0  0  0  0  0  0  0  0  0
   48.2670   32.1230   47.2930 H   0  0  0  0  0  0  0  0  0  0  0  0
   47.8120   32.8710   48.9060 H   0  0  0  0  0  0  0  0  0  0  0  0
   48.4050   30.4140   48.9770 H   0  0  0  0  0  0  0  0  0  0  0  0
   46.7310   30.7560   49.5740 H   0  0  0  0  0  0  0  0  0  0  0  0
   47.7340   29.6400   46.8990 H   0  0  0  0  0  0  0  0  0  0  0  0
   46.5890   28.9130   48.0370 H   0  0  0  0  0  0  0  0  0  0  0  0
   44.8310   30.1700   47.3740 H   0  0  0  0  0  0  0  0  0  0  0  0
   45.6620   29.5900   45.5150 C   0  0  0  0  0  0  0  0  0  0  0  0
   46.6070   29.6650   44.9260 H   0  0  0  0  0  0  0  0  0  0  0  0
   45.4370   28.5360   45.7900 H   0  0  0  0  0  0  0  0  0  0  0  0
   44.7780   29.9290   44.9300 H   0  0  0  0  0  0  0  0  0  0  0  0
  1  4  1  1  0  0  0
  1  2  1  0  0  0  0
  1  3  1  0  0  0  0
  2  5  1  0  0  0  0
  2  3  1  0  0  0  0
  3  7  1  1  0  0  0
  6  2  1  0  0  0  0
  8 14  1  0  0  0  0
  8  9  1  0  0  0  0
  9  1  1  0  0  0  0
 10  9  2  0  0  0  0
 10 15  1  0  0  0  0
 11 10  1  0  0  0  0
 12 13  1  0  0  0  0
 12 11  2  0  0  0  0
 13  8  2  0  0  0  0
 16 25  1  0  0  0  0
 16 17  1  0  0  0  0
 17 12  1  0  0  0  0
 18 17  2  0  0  0  0
 18 19  1  0  0  0  0
 20 18  1  0  0  0  0
 21 20  1  0  0  0  0
 22 23  1  0  0  0  0
 22 20  2  0  0  0  0
 23 16  2  0  0  0  0
 25 24  3  0  0  0  0
 26  3  1  0  0  0  0
 26 29  1  0  0  0  0
 27 26  1  0  0  0  0
 28 26  1  0  0  0  0
 29 34  1  0  0  0  0
 29 30  1  0  0  0  0
 30 31  1  0  0  0  0
 30 35  1  0  0  0  0
 31 32  1  0  0  0  0
 31 38  1  0  0  0  0
 32 39  1  0  0  0  0
 32 40  1  0  0  0  0
 33 42  1  0  0  0  0
 33 32  1  0  0  0  0
 34 43  1  1  0  0  0
 34 33  1  0  0  0  0
 36 30  1  0  0  0  0
 37 31  1  0  0  0  0
 41 33  1  0  0  0  0
 44 46  1  0  0  0  0
 44 34  1  0  0  0  0
 45 44  1  0  0  0  0
 47 44  1  0  0  0  0
M  END
>  <minimizedAffinity>
-4.15063047

>  <minimizedRMSD>
1.29654419

$$$$
