
 OpenBabel03252507193D

 45 48  0  0  1  0  0  0  0  0999 V2000
   45.6560   31.2350   43.5490 C   0  0  0  0  0  0  0  0  0  0  0  0
   44.9710   32.1970   43.9860 O   0  0  0  0  0  0  0  0  0  0  0  0
   46.7370   31.3830   42.6270 N   0  0  0  0  0  0  0  0  0  0  0  0
   48.0700   30.7880   42.6170 C   0  0  0  0  0  0  0  0  0  0  0  0
   48.3190   30.1330   41.2400 C   0  0  0  0  0  0  0  0  0  0  0  0
   48.3410   31.2130   40.1820 C   0  0  0  0  0  0  0  0  0  0  0  0
   47.7820   32.4900   40.7440 C   0  0  0  0  0  0  0  0  0  0  0  0
   46.5070   32.2530   41.5060 C   0  0  2  0  0  0  0  0  0  0  0  0
   48.0630   29.9000   43.3110 H   0  0  0  0  0  0  0  0  0  0  0  0
   48.8710   31.4930   42.8270 H   0  0  0  0  0  0  0  0  0  0  0  0
   49.2140   29.5170   41.2790 H   0  0  0  0  0  0  0  0  0  0  0  0
   47.3760   29.5560   41.0600 H   0  0  0  0  0  0  0  0  0  0  0  0
   47.8430   30.9130   39.2400 H   0  0  0  0  0  0  0  0  0  0  0  0
   49.4090   31.4120   39.9270 H   0  0  0  0  0  0  0  0  0  0  0  0
   47.5960   33.2190   39.9340 H   0  0  0  0  0  0  0  0  0  0  0  0
   48.5460   32.9750   41.4020 H   0  0  0  0  0  0  0  0  0  0  0  0
   45.8750   31.6310   40.8020 H   0  0  0  0  0  0  0  0  0  0  0  0
   44.8030   28.9960   43.0620 C   0  0  0  0  0  0  0  0  0  0  0  0
   45.3230   29.9080   44.0080 C   0  0  0  0  0  0  0  0  0  0  0  0
   45.4960   29.5100   45.3160 C   0  0  0  0  0  0  0  0  0  0  0  0
   45.1590   28.2450   45.6520 N   0  0  0  0  0  0  0  0  0  0  0  0
   44.6600   27.3590   44.7550 C   0  0  0  0  0  0  0  0  0  0  0  0
   44.4920   27.7520   43.4780 N   0  0  0  0  0  0  0  0  0  0  0  0
   44.6650   29.2990   42.0320 H   0  0  0  0  0  0  0  0  0  0  0  0
   44.4260   26.3780   45.1370 H   0  0  0  0  0  0  0  0  0  0  0  0
   46.0240   30.4650   46.2700 C   0  0  0  0  0  0  0  0  0  0  0  0
   47.3700   30.6480   46.3800 C   0  0  0  0  0  0  0  0  0  0  0  0
   47.8580   31.5570   47.2900 C   0  0  0  0  0  0  0  0  0  0  0  0
   47.0300   32.3110   48.1190 C   0  0  0  0  0  0  0  0  0  0  0  0
   45.6790   32.0800   47.9610 C   0  0  0  0  0  0  0  0  0  0  0  0
   45.2380   31.1850   47.0620 N   0  0  0  0  0  0  0  0  0  0  0  0
   48.1390   30.1440   45.8180 H   0  0  0  0  0  0  0  0  0  0  0  0
   48.9260   31.7460   47.4220 H   0  0  0  0  0  0  0  0  0  0  0  0
   47.3810   33.0320   48.8430 H   0  0  0  0  0  0  0  0  0  0  0  0
   44.9180   32.5930   48.5370 H   0  0  0  0  0  0  0  0  0  0  0  0
   46.3120   34.5520   42.4630 C   0  0  0  0  0  0  0  0  0  0  0  0
   45.7580   33.4730   41.7630 C   0  0  0  0  0  0  0  0  0  0  0  0
   44.4340   33.7280   41.3860 C   0  0  0  0  0  0  0  0  0  0  0  0
   43.9300   32.9400   40.8390 H   0  0  0  0  0  0  0  0  0  0  0  0
   43.7480   34.8910   41.6610 C   0  0  0  0  0  0  0  0  0  0  0  0
   42.7240   35.0120   41.3360 H   0  0  0  0  0  0  0  0  0  0  0  0
   44.3940   35.8900   42.3590 C   0  0  0  0  0  3  0  0  0  0  0  0
   45.7000   35.7470   42.7800 C   0  0  0  0  0  3  0  0  0  0  0  0
   48.7910   34.2260   43.2320 N   0  0  0  0  0  0  0  0  0  0  0  0
   47.6870   34.3630   42.8890 C   0  0  0  0  0  0  0  0  0  0  0  0
  1  2  2  0  0  0  0
  1 19  1  0  0  0  0
  3  1  1  0  0  0  0
  4  3  1  0  0  0  0
  4 10  1  0  0  0  0
  4  9  1  0  0  0  0
  5 11  1  0  0  0  0
  5  4  1  0  0  0  0
  6  7  1  0  0  0  0
  6  5  1  0  0  0  0
  7 16  1  0  0  0  0
  7  8  1  0  0  0  0
  8 17  1  6  0  0  0
  8 37  1  0  0  0  0
  8  3  1  0  0  0  0
 12  5  1  0  0  0  0
 13  6  1  0  0  0  0
 14  6  1  0  0  0  0
 15  7  1  0  0  0  0
 18 23  2  0  0  0  0
 18 19  1  0  0  0  0
 19 20  2  0  0  0  0
 20 21  1  0  0  0  0
 20 26  1  0  0  0  0
 22 25  1  0  0  0  0
 22 21  2  0  0  0  0
 23 22  1  0  0  0  0
 24 18  1  0  0  0  0
 26 27  2  0  0  0  0
 26 31  1  0  0  0  0
 27 28  1  0  0  0  0
 28 33  1  0  0  0  0
 28 29  2  0  0  0  0
 29 34  1  0  0  0  0
 30 29  1  0  0  0  0
 30 35  1  0  0  0  0
 31 30  2  0  0  0  0
 32 27  1  0  0  0  0
 36 43  1  0  0  0  0
 36 45  1  0  0  0  0
 37 36  2  0  0  0  0
 38 40  2  0  0  0  0
 38 37  1  0  0  0  0
 39 38  1  0  0  0  0
 40 42  1  0  0  0  0
 41 40  1  0  0  0  0
 42 43  2  0  0  0  0
 45 44  3  0  0  0  0
M  END
>  <minimizedAffinity>
-4.34033298

>  <minimizedRMSD>
4.85719585

$$$$
