
 OpenBabel03252500363D

 47 50  0  0  1  0  0  0  0  0999 V2000
   45.6690   35.4740   43.3650 C   0  0  1  0  0  0  0  0  0  0  0  0
   44.5640   34.8890   43.9890 C   0  0  0  0  0  0  0  0  0  0  0  0
   45.8460   34.6460   44.6710 C   0  0  1  0  0  0  0  0  0  0  0  0
   45.8830   36.5740   43.4800 H   0  0  0  0  0  0  0  0  0  0  0  0
   43.7930   35.5350   44.4820 H   0  0  0  0  0  0  0  0  0  0  0  0
   44.0710   33.9830   43.5350 H   0  0  0  0  0  0  0  0  0  0  0  0
   46.2330   35.2830   45.4810 H   0  0  0  0  0  0  0  0  0  0  0  0
   45.6490   34.1250   41.2630 C   0  0  0  0  0  0  0  0  0  0  0  0
   46.3870   34.9670   42.1560 C   0  0  0  0  0  0  0  0  0  0  0  0
   47.6850   35.2690   41.8890 C   0  0  0  0  0  0  0  0  0  0  0  0
   48.2220   34.7290   40.7410 N   0  0  0  0  0  0  0  0  0  0  0  0
   47.5150   33.9370   39.9070 C   0  0  0  0  0  0  0  0  0  0  0  0
   46.2000   33.6090   40.1420 N   0  0  0  0  0  0  0  0  0  0  0  0
   44.6330   33.8880   41.4730 H   0  0  0  0  0  0  0  0  0  0  0  0
   48.2490   35.8950   42.5470 H   0  0  0  0  0  0  0  0  0  0  0  0
   49.0210   32.3320   38.7980 C   0  0  0  0  0  0  0  0  0  0  0  0
   48.1660   33.4120   38.7130 C   0  0  0  0  0  0  0  0  0  0  0  0
   47.8990   34.0300   37.5100 C   0  0  0  0  0  0  0  0  0  0  0  0
   47.2500   34.8680   37.3720 H   0  0  0  0  0  0  0  0  0  0  0  0
   48.5060   33.5510   36.3580 C   0  0  0  0  0  0  0  0  0  0  0  0
   48.3640   33.9660   35.3540 H   0  0  0  0  0  0  0  0  0  0  0  0
   49.3790   32.4600   36.3880 C   0  0  0  0  0  3  0  0  0  0  0  0
   49.6150   31.8730   37.6210 C   0  0  0  0  0  3  0  0  0  0  0  0
   49.5090   31.2040   41.0750 N   0  0  0  0  0  0  0  0  0  0  0  0
   49.2800   31.7100   40.0600 C   0  0  0  0  0  0  0  0  0  0  0  0
   46.4950   33.3150   44.5990 C   0  0  0  0  0  0  0  0  0  0  0  0
   47.5660   33.4350   44.8230 H   0  0  0  0  0  0  0  0  0  0  0  0
   46.4050   32.8770   43.5850 H   0  0  0  0  0  0  0  0  0  0  0  0
   45.9010   32.4990   45.5960 N   0  0  0  0  0  0  0  0  0  0  0  0
   45.9250   32.9440   46.9220 C   0  0  0  0  0  0  0  0  0  0  0  0
   47.1790   32.4440   47.6660 C   0  0  0  0  0  0  0  0  0  0  0  0
   47.0330   30.9500   47.7920 C   0  0  0  0  0  0  0  0  0  0  0  0
   46.9660   30.4060   46.3930 C   0  0  0  0  0  0  0  0  0  0  0  0
   45.9910   31.1050   45.4860 C   0  0  2  0  0  0  0  0  0  0  0  0
   45.1000   32.3690   47.4470 H   0  0  0  0  0  0  0  0  0  0  0  0
   45.6760   33.9780   47.1510 H   0  0  0  0  0  0  0  0  0  0  0  0
   48.0840   32.6800   47.0960 H   0  0  0  0  0  0  0  0  0  0  0  0
   47.1530   32.9200   48.6610 H   0  0  0  0  0  0  0  0  0  0  0  0
   47.9810   30.5680   48.2370 H   0  0  0  0  0  0  0  0  0  0  0  0
   46.1830   30.6640   48.4200 H   0  0  0  0  0  0  0  0  0  0  0  0
   47.9500   30.3950   45.9280 H   0  0  0  0  0  0  0  0  0  0  0  0
   46.6420   29.3320   46.4710 H   0  0  0  0  0  0  0  0  0  0  0  0
   44.9800   30.6620   45.7090 H   0  0  0  0  0  0  0  0  0  0  0  0
   46.3160   30.6680   44.0650 C   0  0  0  0  0  0  0  0  0  0  0  0
   47.3640   30.9420   43.8010 H   0  0  0  0  0  0  0  0  0  0  0  0
   46.1480   29.5720   43.9780 H   0  0  0  0  0  0  0  0  0  0  0  0
   45.5770   31.1270   43.3710 H   0  0  0  0  0  0  0  0  0  0  0  0
  1  4  1  1  0  0  0
  1  2  1  0  0  0  0
  1  3  1  0  0  0  0
  2  5  1  0  0  0  0
  2  3  1  0  0  0  0
  3  7  1  1  0  0  0
  6  2  1  0  0  0  0
  8 14  1  0  0  0  0
  8  9  1  0  0  0  0
  9  1  1  0  0  0  0
 10  9  2  0  0  0  0
 10 15  1  0  0  0  0
 11 10  1  0  0  0  0
 12 13  1  0  0  0  0
 12 11  2  0  0  0  0
 13  8  2  0  0  0  0
 16 25  1  0  0  0  0
 17 16  1  0  0  0  0
 17 12  1  0  0  0  0
 18 17  2  0  0  0  0
 19 18  1  0  0  0  0
 20 22  2  0  0  0  0
 20 18  1  0  0  0  0
 21 20  1  0  0  0  0
 22 23  1  0  0  0  0
 23 16  2  0  0  0  0
 25 24  3  0  0  0  0
 26  3  1  0  0  0  0
 26 27  1  0  0  0  0
 26 29  1  0  0  0  0
 28 26  1  0  0  0  0
 29 30  1  0  0  0  0
 30 36  1  0  0  0  0
 30 35  1  0  0  0  0
 30 31  1  0  0  0  0
 31 32  1  0  0  0  0
 31 38  1  0  0  0  0
 32 39  1  0  0  0  0
 32 40  1  0  0  0  0
 33 42  1  0  0  0  0
 33 32  1  0  0  0  0
 34 29  1  0  0  0  0
 34 43  1  1  0  0  0
 34 33  1  0  0  0  0
 37 31  1  0  0  0  0
 41 33  1  0  0  0  0
 44 34  1  0  0  0  0
 45 44  1  0  0  0  0
 46 44  1  0  0  0  0
 47 44  1  0  0  0  0
M  END
>  <minimizedAffinity>
-5.04790306

>  <minimizedRMSD>
3.48819971

$$$$
