
 OpenBabel03242516393D

 21 22  0  0  0  0  0  0  0  0999 V2000
   37.3330   32.7120   39.3100 C   0  0  0  0  0  0  0  0  0  0  0  0
   37.3230   31.8320   40.4040 C   0  0  0  0  0  0  0  0  0  0  0  0
   37.6680   30.4850   40.2250 C   0  0  0  0  0  0  0  0  0  0  0  0
   37.9960   30.1220   38.9620 N   0  0  0  0  0  0  0  0  0  0  0  0
   38.0010   30.9680   37.9300 C   0  0  0  0  0  0  0  0  0  0  0  0
   37.6690   32.2630   38.1060 N   0  0  0  0  0  0  0  0  0  0  0  0
   36.9780   34.0610   39.5370 N   0  0  0  0  0  0  0  0  0  0  0  0
   37.0520   32.2110   41.3550 H   0  0  0  0  0  0  0  0  0  0  0  0
   38.2630   30.6620   36.9430 H   0  0  0  0  0  0  0  0  0  0  0  0
   35.9730   34.0660   39.8000 H   0  0  0  0  0  0  0  0  0  0  0  0
   37.5200   34.9620   39.4880 H   0  0  0  0  0  0  0  0  0  0  0  0
   36.5290   28.7930   41.5250 C   0  0  0  0  0  0  0  0  0  0  0  0
   37.6680   29.5480   41.3360 C   0  0  0  0  0  0  0  0  0  0  0  0
   38.7000   29.3540   42.2110 C   0  0  0  0  0  0  0  0  0  0  0  0
   39.5880   29.9230   42.0880 H   0  0  0  0  0  0  0  0  0  0  0  0
   38.6520   28.4490   43.2560 C   0  0  0  0  0  0  0  0  0  0  0  0
   39.5050   28.3430   43.9150 H   0  0  0  0  0  0  0  0  0  0  0  0
   37.4950   27.7080   43.4150 C   0  0  0  0  0  3  0  0  0  0  0  0
   36.4320   27.8740   42.5550 C   0  0  0  0  0  3  0  0  0  0  0  0
   34.4800   29.0630   39.9270 N   0  0  0  0  0  0  0  0  0  0  0  0
   35.3970   28.9340   40.6510 C   0  0  0  0  0  0  0  0  0  0  0  0
  1  7  1  0  0  0  0
  1  2  1  0  0  0  0
  2  8  1  0  0  0  0
  3  2  2  0  0  0  0
  3 13  1  0  0  0  0
  4  3  1  0  0  0  0
  5  6  1  0  0  0  0
  5  4  2  0  0  0  0
  6  1  2  0  0  0  0
  7 10  1  0  0  0  0
  9  5  1  0  0  0  0
 11  7  1  0  0  0  0
 12 19  1  0  0  0  0
 13 12  2  0  0  0  0
 13 14  1  0  0  0  0
 14 16  2  0  0  0  0
 15 14  1  0  0  0  0
 16 18  1  0  0  0  0
 16 17  1  0  0  0  0
 19 18  2  0  0  0  0
 20 21  3  0  0  0  0
 21 12  1  0  0  0  0
M  END
>  <minimizedAffinity>
-4.95736361

$$$$

 OpenBabel03242516393D

 21 22  0  0  0  0  0  0  0  0999 V2000
   37.3480   32.4450   39.3940 C   0  0  0  0  0  0  0  0  0  0  0  0
   37.1470   31.5760   40.4790 C   0  0  0  0  0  0  0  0  0  0  0  0
   37.5280   30.2300   40.3810 C   0  0  0  0  0  0  0  0  0  0  0  0
   38.0820   29.8570   39.2030 N   0  0  0  0  0  0  0  0  0  0  0  0
   38.2680   30.6930   38.1790 C   0  0  0  0  0  0  0  0  0  0  0  0
   37.9000   31.9870   38.2770 N   0  0  0  0  0  0  0  0  0  0  0  0
   36.9480   33.7930   39.5380 N   0  0  0  0  0  0  0  0  0  0  0  0
   36.7050   31.9620   41.3600 H   0  0  0  0  0  0  0  0  0  0  0  0
   38.7060   30.3790   37.2590 H   0  0  0  0  0  0  0  0  0  0  0  0
   35.9120   33.7910   39.6140 H   0  0  0  0  0  0  0  0  0  0  0  0
   37.4830   34.6980   39.5760 H   0  0  0  0  0  0  0  0  0  0  0  0
   38.2180   29.3880   42.5400 C   0  0  0  0  0  0  0  0  0  0  0  0
   37.3340   29.3050   41.4850 C   0  0  0  0  0  0  0  0  0  0  0  0
   36.3510   28.3590   41.5650 C   0  0  0  0  0  0  0  0  0  0  0  0
   35.6580   28.2740   40.7650 H   0  0  0  0  0  0  0  0  0  0  0  0
   36.2070   27.4990   42.6390 C   0  0  0  0  0  0  0  0  0  0  0  0
   35.4060   26.7710   42.6400 H   0  0  0  0  0  0  0  0  0  0  0  0
   37.1110   27.6110   43.6800 C   0  0  0  0  0  3  0  0  0  0  0  0
   38.1170   28.5510   43.6380 C   0  0  0  0  0  3  0  0  0  0  0  0
   40.1380   31.1590   42.5350 N   0  0  0  0  0  0  0  0  0  0  0  0
   39.2810   30.3550   42.5380 C   0  0  0  0  0  0  0  0  0  0  0  0
  1  7  1  0  0  0  0
  1  2  1  0  0  0  0
  2  8  1  0  0  0  0
  3  2  2  0  0  0  0
  3 13  1  0  0  0  0
  4  3  1  0  0  0  0
  5  6  1  0  0  0  0
  5  4  2  0  0  0  0
  6  1  2  0  0  0  0
  7 11  1  0  0  0  0
  7 10  1  0  0  0  0
  9  5  1  0  0  0  0
 12 19  1  0  0  0  0
 13 14  1  0  0  0  0
 13 12  2  0  0  0  0
 14 16  2  0  0  0  0
 15 14  1  0  0  0  0
 16 17  1  0  0  0  0
 16 18  1  0  0  0  0
 19 18  2  0  0  0  0
 20 21  3  0  0  0  0
 21 12  1  0  0  0  0
M  END
>  <minimizedAffinity>
-4.91237926

$$$$

 OpenBabel03242516393D

 21 22  0  0  0  0  0  0  0  0999 V2000
   37.8530   32.7220   39.9650 C   0  0  0  0  0  0  0  0  0  0  0  0
   37.3990   31.6050   40.6850 C   0  0  0  0  0  0  0  0  0  0  0  0
   38.2600   30.5230   40.9200 C   0  0  0  0  0  0  0  0  0  0  0  0
   39.5110   30.6440   40.4150 N   0  0  0  0  0  0  0  0  0  0  0  0
   39.9310   31.7120   39.7320 C   0  0  0  0  0  0  0  0  0  0  0  0
   39.0990   32.7500   39.5090 N   0  0  0  0  0  0  0  0  0  0  0  0
   36.9500   33.7890   39.7530 N   0  0  0  0  0  0  0  0  0  0  0  0
   36.4010   31.6030   41.0400 H   0  0  0  0  0  0  0  0  0  0  0  0
   40.9200   31.7880   39.3440 H   0  0  0  0  0  0  0  0  0  0  0  0
   36.2020   33.4280   39.1280 H   0  0  0  0  0  0  0  0  0  0  0  0
   36.9230   34.7830   40.0960 H   0  0  0  0  0  0  0  0  0  0  0  0
   37.3230   28.2950   40.9290 C   0  0  0  0  0  0  0  0  0  0  0  0
   37.8220   29.3520   41.6600 C   0  0  0  0  0  0  0  0  0  0  0  0
   37.8620   29.2110   43.0180 C   0  0  0  0  0  0  0  0  0  0  0  0
   38.2410   30.0120   43.6050 H   0  0  0  0  0  0  0  0  0  0  0  0
   37.4320   28.0740   43.6800 C   0  0  0  0  0  0  0  0  0  0  0  0
   37.4900   28.0260   44.7600 H   0  0  0  0  0  0  0  0  0  0  0  0
   36.9380   27.0330   42.9150 C   0  0  0  0  0  3  0  0  0  0  0  0
   36.8800   27.1360   41.5420 C   0  0  0  0  0  3  0  0  0  0  0  0
   37.1790   28.4290   38.3240 N   0  0  0  0  0  0  0  0  0  0  0  0
   37.2460   28.3590   39.4960 C   0  0  0  0  0  0  0  0  0  0  0  0
  1  2  1  0  0  0  0
  2  3  2  0  0  0  0
  2  8  1  0  0  0  0
  3 13  1  0  0  0  0
  4  3  1  0  0  0  0
  5  4  2  0  0  0  0
  6  5  1  0  0  0  0
  6  1  2  0  0  0  0
  7  1  1  0  0  0  0
  7 11  1  0  0  0  0
  9  5  1  0  0  0  0
 10  7  1  0  0  0  0
 12 19  2  0  0  0  0
 12 13  1  0  0  0  0
 13 14  2  0  0  0  0
 14 15  1  0  0  0  0
 14 16  1  0  0  0  0
 16 17  1  0  0  0  0
 18 16  2  0  0  0  0
 19 18  1  0  0  0  0
 20 21  3  0  0  0  0
 21 12  1  0  0  0  0
M  END
>  <minimizedAffinity>
-4.74561405

$$$$

 OpenBabel03242516393D

 21 22  0  0  0  0  0  0  0  0999 V2000
   36.7940   30.2530   40.9570 C   0  0  0  0  0  0  0  0  0  0  0  0
   36.4770   28.8860   41.0010 C   0  0  0  0  0  0  0  0  0  0  0  0
   37.4030   27.9340   40.5520 C   0  0  0  0  0  0  0  0  0  0  0  0
   38.5790   28.4260   40.0930 N   0  0  0  0  0  0  0  0  0  0  0  0
   38.8690   29.7280   40.0560 C   0  0  0  0  0  0  0  0  0  0  0  0
   37.9740   30.6400   40.4890 N   0  0  0  0  0  0  0  0  0  0  0  0
   35.8280   31.1760   41.4190 N   0  0  0  0  0  0  0  0  0  0  0  0
   35.5290   28.5990   41.3770 H   0  0  0  0  0  0  0  0  0  0  0  0
   39.8010   30.0940   39.6920 H   0  0  0  0  0  0  0  0  0  0  0  0
   35.0270   31.1260   40.7590 H   0  0  0  0  0  0  0  0  0  0  0  0
   35.8010   31.8320   42.2420 H   0  0  0  0  0  0  0  0  0  0  0  0
   37.4950   25.8120   41.7060 C   0  0  0  0  0  0  0  0  0  0  0  0
   37.1060   26.5120   40.5840 C   0  0  0  0  0  0  0  0  0  0  0  0
   36.4750   25.8110   39.5950 C   0  0  0  0  0  0  0  0  0  0  0  0
   36.1660   26.3270   38.7200 H   0  0  0  0  0  0  0  0  0  0  0  0
   36.2140   24.4540   39.6710 C   0  0  0  0  0  0  0  0  0  0  0  0
   35.7110   23.9570   38.8520 H   0  0  0  0  0  0  0  0  0  0  0  0
   36.6180   23.7830   40.8120 C   0  0  0  0  0  3  0  0  0  0  0  0
   37.2570   24.4540   41.8310 C   0  0  0  0  0  3  0  0  0  0  0  0
   38.7000   27.0270   43.6800 N   0  0  0  0  0  0  0  0  0  0  0  0
   38.1630   26.4720   42.7940 C   0  0  0  0  0  0  0  0  0  0  0  0
  1  2  1  0  0  0  0
  1  7  1  0  0  0  0
  2  8  1  0  0  0  0
  3 13  1  0  0  0  0
  3  2  2  0  0  0  0
  4  3  1  0  0  0  0
  5  4  2  0  0  0  0
  5  6  1  0  0  0  0
  6  1  2  0  0  0  0
  7 11  1  0  0  0  0
  9  5  1  0  0  0  0
 10  7  1  0  0  0  0
 12 19  1  0  0  0  0
 12 21  1  0  0  0  0
 13 12  2  0  0  0  0
 14 16  2  0  0  0  0
 14 13  1  0  0  0  0
 15 14  1  0  0  0  0
 16 18  1  0  0  0  0
 17 16  1  0  0  0  0
 18 19  2  0  0  0  0
 21 20  3  0  0  0  0
M  END
>  <minimizedAffinity>
-4.64147139

$$$$

 OpenBabel03242516393D

 21 22  0  0  0  0  0  0  0  0999 V2000
   37.7310   31.0250   38.1100 C   0  0  0  0  0  0  0  0  0  0  0  0
   37.7120   30.0500   39.1200 C   0  0  0  0  0  0  0  0  0  0  0  0
   37.3510   30.4000   40.4290 C   0  0  0  0  0  0  0  0  0  0  0  0
   37.0360   31.7030   40.6260 N   0  0  0  0  0  0  0  0  0  0  0  0
   37.0570   32.6210   39.6570 C   0  0  0  0  0  0  0  0  0  0  0  0
   37.4050   32.2790   38.3990 N   0  0  0  0  0  0  0  0  0  0  0  0
   38.1020   30.6260   36.8060 N   0  0  0  0  0  0  0  0  0  0  0  0
   37.9760   29.0560   38.8680 H   0  0  0  0  0  0  0  0  0  0  0  0
   36.8050   33.6410   39.8330 H   0  0  0  0  0  0  0  0  0  0  0  0
   39.1030   30.3520   36.8500 H   0  0  0  0  0  0  0  0  0  0  0  0
   37.5730   30.5680   35.8970 H   0  0  0  0  0  0  0  0  0  0  0  0
   38.3390   29.4640   42.4280 C   0  0  0  0  0  0  0  0  0  0  0  0
   37.3220   29.4160   41.4970 C   0  0  0  0  0  0  0  0  0  0  0  0
   36.3740   28.4450   41.6570 C   0  0  0  0  0  0  0  0  0  0  0  0
   35.5800   28.3860   40.9530 H   0  0  0  0  0  0  0  0  0  0  0  0
   36.3890   27.5270   42.6920 C   0  0  0  0  0  0  0  0  0  0  0  0
   35.6060   26.7820   42.7620 H   0  0  0  0  0  0  0  0  0  0  0  0
   37.4230   27.6060   43.6070 C   0  0  0  0  0  3  0  0  0  0  0  0
   38.3990   28.5700   43.4820 C   0  0  0  0  0  3  0  0  0  0  0  0
   40.2370   31.2530   42.2730 N   0  0  0  0  0  0  0  0  0  0  0  0
   39.3770   30.4540   42.3360 C   0  0  0  0  0  0  0  0  0  0  0  0
  1  6  2  0  0  0  0
  1  2  1  0  0  0  0
  2  3  2  0  0  0  0
  3  4  1  0  0  0  0
  3 13  1  0  0  0  0
  5  9  1  0  0  0  0
  5  4  2  0  0  0  0
  6  5  1  0  0  0  0
  7 10  1  0  0  0  0
  7  1  1  0  0  0  0
  8  2  1  0  0  0  0
 11  7  1  0  0  0  0
 12 19  1  0  0  0  0
 13 14  1  0  0  0  0
 13 12  2  0  0  0  0
 14 16  2  0  0  0  0
 15 14  1  0  0  0  0
 16 17  1  0  0  0  0
 16 18  1  0  0  0  0
 19 18  2  0  0  0  0
 20 21  3  0  0  0  0
 21 12  1  0  0  0  0
M  END
>  <minimizedAffinity>
-4.63417244

$$$$

 OpenBabel03242516393D

 21 22  0  0  0  0  0  0  0  0999 V2000
   36.7440   30.3750   41.1980 C   0  0  0  0  0  0  0  0  0  0  0  0
   36.4170   29.0100   41.2130 C   0  0  0  0  0  0  0  0  0  0  0  0
   37.4160   28.0450   41.0170 C   0  0  0  0  0  0  0  0  0  0  0  0
   38.6680   28.5230   40.8210 N   0  0  0  0  0  0  0  0  0  0  0  0
   38.9670   29.8240   40.8090 C   0  0  0  0  0  0  0  0  0  0  0  0
   38.0020   30.7490   40.9980 N   0  0  0  0  0  0  0  0  0  0  0  0
   35.7050   31.3110   41.3990 N   0  0  0  0  0  0  0  0  0  0  0  0
   35.4070   28.7340   41.3730 H   0  0  0  0  0  0  0  0  0  0  0  0
   39.9590   30.1800   40.6540 H   0  0  0  0  0  0  0  0  0  0  0  0
   35.0740   31.2390   40.5770 H   0  0  0  0  0  0  0  0  0  0  0  0
   35.4950   31.9940   42.1730 H   0  0  0  0  0  0  0  0  0  0  0  0
   36.6830   26.0640   39.8410 C   0  0  0  0  0  0  0  0  0  0  0  0
   37.1110   26.6250   41.0260 C   0  0  0  0  0  0  0  0  0  0  0  0
   37.2100   25.7980   42.1100 C   0  0  0  0  0  0  0  0  0  0  0  0
   37.5370   26.2050   43.0350 H   0  0  0  0  0  0  0  0  0  0  0  0
   36.9070   24.4490   42.0700 C   0  0  0  0  0  0  0  0  0  0  0  0
   37.0070   23.8480   42.9650 H   0  0  0  0  0  0  0  0  0  0  0  0
   36.4820   23.9200   40.8640 C   0  0  0  0  0  3  0  0  0  0  0  0
   36.3680   24.7200   39.7480 C   0  0  0  0  0  3  0  0  0  0  0  0
   36.4410   27.4960   37.6700 N   0  0  0  0  0  0  0  0  0  0  0  0
   36.5510   26.8610   38.6530 C   0  0  0  0  0  0  0  0  0  0  0  0
  1  2  1  0  0  0  0
  1  7  1  0  0  0  0
  2  8  1  0  0  0  0
  3 13  1  0  0  0  0
  3  2  2  0  0  0  0
  4  3  1  0  0  0  0
  5  4  2  0  0  0  0
  5  6  1  0  0  0  0
  6  1  2  0  0  0  0
  7 11  1  0  0  0  0
  9  5  1  0  0  0  0
 10  7  1  0  0  0  0
 12 13  1  0  0  0  0
 13 14  2  0  0  0  0
 14 15  1  0  0  0  0
 16 14  1  0  0  0  0
 16 17  1  0  0  0  0
 18 16  2  0  0  0  0
 19 12  2  0  0  0  0
 19 18  1  0  0  0  0
 20 21  3  0  0  0  0
 21 12  1  0  0  0  0
M  END
>  <minimizedAffinity>
-4.60937691

$$$$

 OpenBabel03242516393D

 21 22  0  0  0  0  0  0  0  0999 V2000
   38.5710   31.3410   38.4140 C   0  0  0  0  0  0  0  0  0  0  0  0
   38.5170   30.3170   39.3730 C   0  0  0  0  0  0  0  0  0  0  0  0
   37.8110   30.5100   40.5690 C   0  0  0  0  0  0  0  0  0  0  0  0
   37.2120   31.7170   40.7120 N   0  0  0  0  0  0  0  0  0  0  0  0
   37.2710   32.6830   39.7930 C   0  0  0  0  0  0  0  0  0  0  0  0
   37.9510   32.4920   38.6440 N   0  0  0  0  0  0  0  0  0  0  0  0
   39.2950   31.1010   37.2240 N   0  0  0  0  0  0  0  0  0  0  0  0
   39.0190   29.4070   39.1690 H   0  0  0  0  0  0  0  0  0  0  0  0
   36.7910   33.6250   39.9250 H   0  0  0  0  0  0  0  0  0  0  0  0
   40.2940   31.0150   37.4940 H   0  0  0  0  0  0  0  0  0  0  0  0
   39.0050   31.0040   36.2160 H   0  0  0  0  0  0  0  0  0  0  0  0
   36.5900   28.7070   41.6180 C   0  0  0  0  0  0  0  0  0  0  0  0
   37.7360   29.4720   41.5820 C   0  0  0  0  0  0  0  0  0  0  0  0
   38.7060   29.1900   42.5030 C   0  0  0  0  0  0  0  0  0  0  0  0
   39.5990   29.7640   42.4980 H   0  0  0  0  0  0  0  0  0  0  0  0
   38.5880   28.1880   43.4510 C   0  0  0  0  0  0  0  0  0  0  0  0
   39.3940   28.0160   44.1530 H   0  0  0  0  0  0  0  0  0  0  0  0
   37.4240   27.4410   43.4570 C   0  0  0  0  0  3  0  0  0  0  0  0
   36.4230   27.6940   42.5460 C   0  0  0  0  0  3  0  0  0  0  0  0
   34.6370   29.1340   39.9350 N   0  0  0  0  0  0  0  0  0  0  0  0
   35.5200   28.9360   40.6850 C   0  0  0  0  0  0  0  0  0  0  0  0
  1  6  2  0  0  0  0
  1  2  1  0  0  0  0
  2  3  2  0  0  0  0
  3  4  1  0  0  0  0
  3 13  1  0  0  0  0
  5  9  1  0  0  0  0
  5  4  2  0  0  0  0
  6  5  1  0  0  0  0
  7 10  1  0  0  0  0
  7  1  1  0  0  0  0
  8  2  1  0  0  0  0
 11  7  1  0  0  0  0
 12 19  1  0  0  0  0
 13 12  2  0  0  0  0
 13 14  1  0  0  0  0
 14 16  2  0  0  0  0
 15 14  1  0  0  0  0
 16 18  1  0  0  0  0
 16 17  1  0  0  0  0
 19 18  2  0  0  0  0
 20 21  3  0  0  0  0
 21 12  1  0  0  0  0
M  END
>  <minimizedAffinity>
-4.56806707

$$$$

 OpenBabel03242516393D

 21 22  0  0  0  0  0  0  0  0999 V2000
   37.0280   28.1170   42.5130 C   0  0  0  0  0  0  0  0  0  0  0  0
   37.0960   29.4720   42.1510 C   0  0  0  0  0  0  0  0  0  0  0  0
   37.8460   29.8640   41.0330 C   0  0  0  0  0  0  0  0  0  0  0  0
   38.4710   28.8670   40.3620 N   0  0  0  0  0  0  0  0  0  0  0  0
   38.3980   27.5820   40.7160 C   0  0  0  0  0  0  0  0  0  0  0  0
   37.6750   27.2100   41.7920 N   0  0  0  0  0  0  0  0  0  0  0  0
   36.2610   27.7690   43.6480 N   0  0  0  0  0  0  0  0  0  0  0  0
   36.5720   30.1790   42.7400 H   0  0  0  0  0  0  0  0  0  0  0  0
   38.8970   26.8120   40.1730 H   0  0  0  0  0  0  0  0  0  0  0  0
   36.7410   28.1800   44.4710 H   0  0  0  0  0  0  0  0  0  0  0  0
   35.3720   27.2170   43.7690 H   0  0  0  0  0  0  0  0  0  0  0  0
   38.9960   31.9890   41.1290 C   0  0  0  0  0  0  0  0  0  0  0  0
   37.9380   31.2580   40.6320 C   0  0  0  0  0  0  0  0  0  0  0  0
   37.0630   31.9050   39.8060 C   0  0  0  0  0  0  0  0  0  0  0  0
   36.2390   31.3650   39.4100 H   0  0  0  0  0  0  0  0  0  0  0  0
   37.1920   33.2370   39.4520 C   0  0  0  0  0  0  0  0  0  0  0  0
   36.4630   33.6910   38.7930 H   0  0  0  0  0  0  0  0  0  0  0  0
   38.2660   33.9390   39.9690 C   0  0  0  0  0  3  0  0  0  0  0  0
   39.1700   33.3230   40.8060 C   0  0  0  0  0  3  0  0  0  0  0  0
   40.7680   30.8990   42.7090 N   0  0  0  0  0  0  0  0  0  0  0  0
   39.9630   31.3860   42.0040 C   0  0  0  0  0  0  0  0  0  0  0  0
  1  7  1  0  0  0  0
  2  1  1  0  0  0  0
  2  8  1  0  0  0  0
  3  2  2  0  0  0  0
  4  5  2  0  0  0  0
  4  3  1  0  0  0  0
  5  6  1  0  0  0  0
  6  1  2  0  0  0  0
  7 11  1  0  0  0  0
  7 10  1  0  0  0  0
  9  5  1  0  0  0  0
 12 21  1  0  0  0  0
 13  3  1  0  0  0  0
 13 12  2  0  0  0  0
 14 13  1  0  0  0  0
 15 14  1  0  0  0  0
 16 14  2  0  0  0  0
 16 18  1  0  0  0  0
 17 16  1  0  0  0  0
 18 19  2  0  0  0  0
 19 12  1  0  0  0  0
 21 20  3  0  0  0  0
M  END
>  <minimizedAffinity>
-4.47841263

$$$$

 OpenBabel03242516393D

 21 22  0  0  0  0  0  0  0  0999 V2000
   39.8650   31.5690   38.7130 C   0  0  0  0  0  0  0  0  0  0  0  0
   39.5960   30.4820   39.5610 C   0  0  0  0  0  0  0  0  0  0  0  0
   39.4900   30.6810   40.9450 C   0  0  0  0  0  0  0  0  0  0  0  0
   39.6610   31.9540   41.3740 N   0  0  0  0  0  0  0  0  0  0  0  0
   39.9150   32.9790   40.5570 C   0  0  0  0  0  0  0  0  0  0  0  0
   40.0170   32.7830   39.2260 N   0  0  0  0  0  0  0  0  0  0  0  0
   39.9640   31.3210   37.3250 N   0  0  0  0  0  0  0  0  0  0  0  0
   39.4790   29.5220   39.1300 H   0  0  0  0  0  0  0  0  0  0  0  0
   40.0460   33.9740   40.9150 H   0  0  0  0  0  0  0  0  0  0  0  0
   40.8090   30.7340   37.1850 H   0  0  0  0  0  0  0  0  0  0  0  0
   39.3740   31.6090   36.5020 H   0  0  0  0  0  0  0  0  0  0  0  0
   37.8910   29.3120   42.1340 C   0  0  0  0  0  0  0  0  0  0  0  0
   39.2130   29.5780   41.8500 C   0  0  0  0  0  0  0  0  0  0  0  0
   40.1530   28.7840   42.4440 C   0  0  0  0  0  0  0  0  0  0  0  0
   41.1800   28.9680   42.2420 H   0  0  0  0  0  0  0  0  0  0  0  0
   39.8400   27.7440   43.3010 C   0  0  0  0  0  0  0  0  0  0  0  0
   40.6330   27.1510   43.7400 H   0  0  0  0  0  0  0  0  0  0  0  0
   38.5030   27.5050   43.5630 C   0  0  0  0  0  3  0  0  0  0  0  0
   37.5250   28.2840   42.9850 C   0  0  0  0  0  3  0  0  0  0  0  0
   35.9850   30.7400   41.0590 N   0  0  0  0  0  0  0  0  0  0  0  0
   36.8380   30.0980   41.5520 C   0  0  0  0  0  0  0  0  0  0  0  0
  1  6  2  0  0  0  0
  1  2  1  0  0  0  0
  2  3  2  0  0  0  0
  3  4  1  0  0  0  0
  3 13  1  0  0  0  0
  5  9  1  0  0  0  0
  5  4  2  0  0  0  0
  6  5  1  0  0  0  0
  7  1  1  0  0  0  0
  8  2  1  0  0  0  0
 10  7  1  0  0  0  0
 11  7  1  0  0  0  0
 12 19  1  0  0  0  0
 13 12  2  0  0  0  0
 13 14  1  0  0  0  0
 14 16  2  0  0  0  0
 15 14  1  0  0  0  0
 16 18  1  0  0  0  0
 16 17  1  0  0  0  0
 19 18  2  0  0  0  0
 20 21  3  0  0  0  0
 21 12  1  0  0  0  0
M  END
>  <minimizedAffinity>
-4.32903671

$$$$
