
 OpenBabel03242517213D

 34 36  0  0  1  0  0  0  0  0999 V2000
   44.4880   35.8140   44.8600 C   0  0  0  0  0  0  0  0  0  0  0  0
   44.5770   35.5800   43.4690 C   0  0  0  0  0  0  0  0  0  0  0  0
   45.1280   34.3780   43.0130 C   0  0  0  0  0  0  0  0  0  0  0  0
   45.5470   33.4980   43.9600 N   0  0  0  0  0  0  0  0  0  0  0  0
   45.4620   33.7210   45.2800 C   0  0  0  0  0  0  0  0  0  0  0  0
   44.9270   34.8880   45.7310 N   0  0  0  0  0  0  0  0  0  0  0  0
   45.9210   32.7530   46.2340 N   0  0  0  0  0  0  0  0  0  0  0  0
   45.4140   32.8470   47.5870 C   0  0  0  0  0  0  0  0  0  0  0  0
   46.2400   32.0850   48.5820 C   0  0  0  0  0  0  0  0  0  0  0  0
   46.6110   30.7780   47.9690 C   0  0  0  0  0  0  0  0  0  0  0  0
   47.5830   31.0730   46.8540 C   0  0  0  0  0  0  0  0  0  0  0  0
   46.8550   31.7700   45.7540 C   0  0  1  0  0  0  0  0  0  0  0  0
   44.0660   36.7380   45.2120 H   0  0  0  0  0  0  0  0  0  0  0  0
   44.2260   36.3210   42.7580 H   0  0  0  0  0  0  0  0  0  0  0  0
   45.2190   34.1530   41.9700 H   0  0  0  0  0  0  0  0  0  0  0  0
   44.4150   32.3550   47.5820 H   0  0  0  0  0  0  0  0  0  0  0  0
   45.2350   33.9010   47.8910 H   0  0  0  0  0  0  0  0  0  0  0  0
   47.1690   32.6350   48.8770 H   0  0  0  0  0  0  0  0  0  0  0  0
   45.6410   32.0170   49.5150 H   0  0  0  0  0  0  0  0  0  0  0  0
   47.0960   30.0810   48.7120 H   0  0  0  0  0  0  0  0  0  0  0  0
   45.6940   30.2620   47.6560 H   0  0  0  0  0  0  0  0  0  0  0  0
   48.4220   31.6330   47.2790 H   0  0  0  0  0  0  0  0  0  0  0  0
   47.9720   30.0880   46.4890 H   0  0  0  0  0  0  0  0  0  0  0  0
   47.6480   32.3850   45.2350 H   0  0  0  0  0  0  0  0  0  0  0  0
   46.9140   30.7660   43.4570 C   0  0  0  0  0  0  0  0  0  0  0  0
   46.3160   30.8850   44.7000 C   0  0  0  0  0  0  0  0  0  0  0  0
   45.1750   30.1190   44.8980 C   0  0  0  0  0  0  0  0  0  0  0  0
   44.6380   30.1520   45.8520 H   0  0  0  0  0  0  0  0  0  0  0  0
   44.6590   29.2870   43.9240 C   0  0  0  0  0  0  0  0  0  0  0  0
   43.7680   28.7000   44.1020 H   0  0  0  0  0  0  0  0  0  0  0  0
   45.3060   29.2120   42.7000 C   0  0  0  0  0  3  0  0  0  0  0  0
   46.4530   29.9550   42.4410 C   0  0  0  0  0  3  0  0  0  0  0  0
   49.0570   32.1880   43.0230 N   0  0  0  0  0  0  0  0  0  0  0  0
   48.0960   31.5480   43.2280 C   0  0  0  0  0  0  0  0  0  0  0  0
  1 13  1  0  0  0  0
  1  6  1  0  0  0  0
  2  1  2  0  0  0  0
  3  2  1  0  0  0  0
  3  4  2  0  0  0  0
  4  5  1  0  0  0  0
  5  6  2  0  0  0  0
  5  7  1  0  0  0  0
  7  8  1  0  0  0  0
  8 17  1  0  0  0  0
  8  9  1  0  0  0  0
  9 18  1  0  0  0  0
  9 19  1  0  0  0  0
 10  9  1  0  0  0  0
 10 20  1  0  0  0  0
 11 22  1  0  0  0  0
 11 10  1  0  0  0  0
 12 24  1  6  0  0  0
 12  7  1  0  0  0  0
 12 11  1  0  0  0  0
 14  2  1  0  0  0  0
 15  3  1  0  0  0  0
 16  8  1  0  0  0  0
 21 10  1  0  0  0  0
 23 11  1  0  0  0  0
 25 26  1  0  0  0  0
 26 27  2  0  0  0  0
 26 12  1  0  0  0  0
 27 28  1  0  0  0  0
 29 30  1  0  0  0  0
 29 27  1  0  0  0  0
 31 29  2  0  0  0  0
 32 31  1  0  0  0  0
 32 25  2  0  0  0  0
 33 34  3  0  0  0  0
 34 25  1  0  0  0  0
M  END
>  <minimizedAffinity>
-4.3531394

>  <minimizedRMSD>
1.33032382

$$$$
