
 OpenBabel03252501523D

 46 49  0  0  1  0  0  0  0  0999 V2000
   33.6570   29.1310   38.6000 C   0  0  0  0  0  0  0  0  0  0  0  0
   33.4040   30.1890   38.8880 H   0  0  0  0  0  0  0  0  0  0  0  0
   32.8940   28.4990   39.1160 H   0  0  0  0  0  0  0  0  0  0  0  0
   33.6140   29.0480   37.1850 N   0  0  0  0  0  0  0  0  0  0  0  0
   34.5530   28.1220   36.6460 C   0  0  0  0  0  0  0  0  0  0  0  0
   33.9580   27.5620   35.3810 C   0  0  0  0  0  0  0  0  0  0  0  0
   32.4900   27.6920   35.6150 C   0  0  0  0  0  0  0  0  0  0  0  0
   32.3030   28.7340   36.6840 C   0  0  2  0  0  0  0  0  0  0  0  0
   34.6750   27.2440   37.3340 H   0  0  0  0  0  0  0  0  0  0  0  0
   35.5420   28.5560   36.4040 H   0  0  0  0  0  0  0  0  0  0  0  0
   34.1990   26.5010   35.2050 H   0  0  0  0  0  0  0  0  0  0  0  0
   34.2610   28.1880   34.5300 H   0  0  0  0  0  0  0  0  0  0  0  0
   31.9920   28.0570   34.6810 H   0  0  0  0  0  0  0  0  0  0  0  0
   31.9980   26.7500   35.9310 H   0  0  0  0  0  0  0  0  0  0  0  0
   31.6880   28.3230   37.5290 H   0  0  0  0  0  0  0  0  0  0  0  0
   30.7520   30.7730   36.7800 C   0  0  0  0  0  0  0  0  0  0  0  0
   31.6920   29.9710   36.1650 C   0  0  0  0  0  0  0  0  0  0  0  0
   32.0840   30.4220   34.9010 C   0  0  0  0  0  0  0  0  0  0  0  0
   32.8240   29.8380   34.3580 H   0  0  0  0  0  0  0  0  0  0  0  0
   31.6140   31.5570   34.2690 C   0  0  0  0  0  0  0  0  0  0  0  0
   31.9820   31.8180   33.2920 H   0  0  0  0  0  0  0  0  0  0  0  0
   30.6790   32.3190   34.9260 C   0  0  0  0  0  3  0  0  0  0  0  0
   30.2640   31.9110   36.1760 C   0  0  0  0  0  3  0  0  0  0  0  0
   29.9760   29.9640   39.1340 N   0  0  0  0  0  0  0  0  0  0  0  0
   30.3310   30.3250   38.0920 C   0  0  0  0  0  0  0  0  0  0  0  0
   35.2090   28.9460   40.5010 C   0  0  0  0  0  3  0  0  0  0  0  0
   35.0240   28.8880   39.1750 C   0  0  0  0  0  3  0  0  0  0  0  0
   37.3310   27.5770   40.8070 C   0  0  0  0  0  0  0  0  0  0  0  0
   36.5280   28.7160   41.1210 C   0  0  0  0  0  0  0  0  0  0  0  0
   37.0060   29.6450   42.0470 C   0  0  0  0  0  0  0  0  0  0  0  0
   38.2240   29.4210   42.6110 N   0  0  0  0  0  0  0  0  0  0  0  0
   38.9510   28.3520   42.3000 C   0  0  0  0  0  0  0  0  0  0  0  0
   38.4950   27.4520   41.4070 N   0  0  0  0  0  0  0  0  0  0  0  0
   36.8970   26.9080   40.0880 H   0  0  0  0  0  0  0  0  0  0  0  0
   36.4360   30.5220   42.3170 H   0  0  0  0  0  0  0  0  0  0  0  0
   39.3670   26.2890   44.1060 F   0  0  0  0  0  0  0  0  0  0  0  0
   40.4340   27.1000   43.8330 C   0  0  0  0  0  0  0  0  0  0  0  0
   40.2550   28.1480   42.9280 C   0  0  0  0  0  0  0  0  0  0  0  0
   41.2790   29.0090   42.6000 C   0  0  0  0  0  0  0  0  0  0  0  0
   42.5130   28.8000   43.2060 C   0  0  0  0  0  0  0  0  0  0  0  0
   42.7180   27.7440   44.1270 C   0  0  0  0  0  0  0  0  0  0  0  0
   41.6610   26.8980   44.4330 C   0  0  0  0  0  0  0  0  0  0  0  0
   41.1470   29.8220   41.8990 H   0  0  0  0  0  0  0  0  0  0  0  0
   43.3750   29.4280   43.0080 H   0  0  0  0  0  0  0  0  0  0  0  0
   43.6860   27.5960   44.5910 H   0  0  0  0  0  0  0  0  0  0  0  0
   41.7920   26.0830   45.1340 H   0  0  0  0  0  0  0  0  0  0  0  0
  1  2  1  0  0  0  0
  1  3  1  0  0  0  0
  1 27  1  0  0  0  0
  4  1  1  0  0  0  0
  5  4  1  0  0  0  0
  5  9  1  0  0  0  0
  6  7  1  0  0  0  0
  6  5  1  0  0  0  0
  7 14  1  0  0  0  0
  7  8  1  0  0  0  0
  8  4  1  0  0  0  0
  8 15  1  1  0  0  0
 10  5  1  0  0  0  0
 11  6  1  0  0  0  0
 12  6  1  0  0  0  0
 13  7  1  0  0  0  0
 16 25  1  0  0  0  0
 17  8  1  0  0  0  0
 17 16  2  0  0  0  0
 18 17  1  0  0  0  0
 19 18  1  0  0  0  0
 20 18  2  0  0  0  0
 20 22  1  0  0  0  0
 21 20  1  0  0  0  0
 22 23  2  0  0  0  0
 23 16  1  0  0  0  0
 25 24  3  0  0  0  0
 26 29  1  0  0  0  0
 27 26  2  0  0  0  0
 28 29  2  0  0  0  0
 28 33  1  0  0  0  0
 29 30  1  0  0  0  0
 30 35  1  0  0  0  0
 30 31  2  0  0  0  0
 32 31  1  0  0  0  0
 32 38  1  0  0  0  0
 33 32  2  0  0  0  0
 34 28  1  0  0  0  0
 37 36  1  0  0  0  0
 37 42  1  0  0  0  0
 38 37  2  0  0  0  0
 39 38  1  0  0  0  0
 39 40  2  0  0  0  0
 40 41  1  0  0  0  0
 41 42  2  0  0  0  0
 41 45  1  0  0  0  0
 42 46  1  0  0  0  0
 43 39  1  0  0  0  0
 44 40  1  0  0  0  0
M  END
>  <minimizedAffinity>
-6.47302675

$$$$

 OpenBabel03252501523D

 46 49  0  0  1  0  0  0  0  0999 V2000
   37.6100   25.8270   38.7680 C   0  0  0  0  0  0  0  0  0  0  0  0
   38.5730   26.4100   38.7520 H   0  0  0  0  0  0  0  0  0  0  0  0
   37.6920   25.1060   37.9190 H   0  0  0  0  0  0  0  0  0  0  0  0
   37.5030   25.2090   40.0400 N   0  0  0  0  0  0  0  0  0  0  0  0
   37.2660   23.8060   39.9670 C   0  0  0  0  0  0  0  0  0  0  0  0
   37.9000   23.1770   41.1790 C   0  0  0  0  0  0  0  0  0  0  0  0
   38.9950   24.1330   41.5170 C   0  0  0  0  0  0  0  0  0  0  0  0
   38.6470   25.4490   40.8760 C   0  0  2  0  0  0  0  0  0  0  0  0
   37.8030   23.3640   39.0860 H   0  0  0  0  0  0  0  0  0  0  0  0
   36.1970   23.5180   39.9440 H   0  0  0  0  0  0  0  0  0  0  0  0
   38.3390   22.1840   40.9910 H   0  0  0  0  0  0  0  0  0  0  0  0
   37.1660   23.1420   41.9960 H   0  0  0  0  0  0  0  0  0  0  0  0
   39.0330   24.2850   42.6260 H   0  0  0  0  0  0  0  0  0  0  0  0
   39.9980   23.8110   41.1730 H   0  0  0  0  0  0  0  0  0  0  0  0
   39.4930   25.8060   40.2280 H   0  0  0  0  0  0  0  0  0  0  0  0
   39.0640   27.5480   42.2870 C   0  0  0  0  0  0  0  0  0  0  0  0
   38.2940   26.4840   41.8660 C   0  0  0  0  0  0  0  0  0  0  0  0
   37.0380   26.4130   42.4750 C   0  0  0  0  0  0  0  0  0  0  0  0
   36.3770   25.5970   42.1900 H   0  0  0  0  0  0  0  0  0  0  0  0
   36.5500   27.2970   43.4190 C   0  0  0  0  0  0  0  0  0  0  0  0
   35.5640   27.1540   43.8280 H   0  0  0  0  0  0  0  0  0  0  0  0
   37.3570   28.3400   43.8030 C   0  0  0  0  0  3  0  0  0  0  0  0
   38.6050   28.4470   43.2270 C   0  0  0  0  0  3  0  0  0  0  0  0
   41.4210   27.7010   41.1840 N   0  0  0  0  0  0  0  0  0  0  0  0
   40.3700   27.6420   41.6690 C   0  0  0  0  0  0  0  0  0  0  0  0
   35.4500   26.4940   37.7950 C   0  0  0  0  0  3  0  0  0  0  0  0
   36.5350   26.8430   38.5000 C   0  0  0  0  0  3  0  0  0  0  0  0
   33.3720   27.1930   36.5050 C   0  0  0  0  0  0  0  0  0  0  0  0
   34.3640   27.4480   37.5020 C   0  0  0  0  0  0  0  0  0  0  0  0
   34.3040   28.6410   38.2240 C   0  0  0  0  0  0  0  0  0  0  0  0
   33.2960   29.5120   37.9440 N   0  0  0  0  0  0  0  0  0  0  0  0
   32.3870   29.2480   37.0110 C   0  0  0  0  0  0  0  0  0  0  0  0
   32.4390   28.0990   36.3100 N   0  0  0  0  0  0  0  0  0  0  0  0
   33.4840   26.2560   35.9930 H   0  0  0  0  0  0  0  0  0  0  0  0
   35.0300   28.8800   38.9880 H   0  0  0  0  0  0  0  0  0  0  0  0
   30.4900   29.8680   38.9370 F   0  0  0  0  0  0  0  0  0  0  0  0
   30.3800   30.5020   37.7300 C   0  0  0  0  0  0  0  0  0  0  0  0
   31.3200   30.2100   36.7400 C   0  0  0  0  0  0  0  0  0  0  0  0
   31.2780   30.8060   35.4980 C   0  0  0  0  0  0  0  0  0  0  0  0
   30.2570   31.7190   35.2580 C   0  0  0  0  0  0  0  0  0  0  0  0
   29.2920   32.0310   36.2470 C   0  0  0  0  0  0  0  0  0  0  0  0
   29.3670   31.4090   37.4860 C   0  0  0  0  0  0  0  0  0  0  0  0
   32.0040   30.5850   34.7280 H   0  0  0  0  0  0  0  0  0  0  0  0
   30.1460   32.2350   34.3110 H   0  0  0  0  0  0  0  0  0  0  0  0
   28.5020   32.7440   36.0430 H   0  0  0  0  0  0  0  0  0  0  0  0
   28.6420   31.6300   38.2580 H   0  0  0  0  0  0  0  0  0  0  0  0
  1  4  1  0  0  0  0
  2  1  1  0  0  0  0
  3  1  1  0  0  0  0
  4  8  1  0  0  0  0
  5  4  1  0  0  0  0
  5  6  1  0  0  0  0
  6  7  1  0  0  0  0
  6 12  1  0  0  0  0
  7 13  1  0  0  0  0
  8 15  1  6  0  0  0
  8  7  1  0  0  0  0
  8 17  1  0  0  0  0
  9  5  1  0  0  0  0
 10  5  1  0  0  0  0
 11  6  1  0  0  0  0
 14  7  1  0  0  0  0
 16 23  1  0  0  0  0
 17 16  2  0  0  0  0
 17 18  1  0  0  0  0
 18 20  2  0  0  0  0
 19 18  1  0  0  0  0
 20 22  1  0  0  0  0
 20 21  1  0  0  0  0
 23 22  2  0  0  0  0
 24 25  3  0  0  0  0
 25 16  1  0  0  0  0
 26 27  2  0  0  0  0
 27  1  1  0  0  0  0
 28 29  1  0  0  0  0
 29 26  1  0  0  0  0
 29 30  2  0  0  0  0
 30 35  1  0  0  0  0
 31 30  1  0  0  0  0
 32 31  2  0  0  0  0
 33 28  2  0  0  0  0
 33 32  1  0  0  0  0
 34 28  1  0  0  0  0
 37 36  1  0  0  0  0
 38 32  1  0  0  0  0
 38 37  2  0  0  0  0
 39 38  1  0  0  0  0
 40 39  2  0  0  0  0
 40 41  1  0  0  0  0
 41 42  2  0  0  0  0
 42 37  1  0  0  0  0
 42 46  1  0  0  0  0
 43 39  1  0  0  0  0
 44 40  1  0  0  0  0
 45 41  1  0  0  0  0
M  END
>  <minimizedAffinity>
-6.10479498

$$$$

 OpenBabel03252501523D

 46 49  0  0  1  0  0  0  0  0999 V2000
   33.2060   27.7300   36.7890 C   0  0  0  0  0  0  0  0  0  0  0  0
   32.5120   27.6200   37.6680 H   0  0  0  0  0  0  0  0  0  0  0  0
   33.7770   26.7710   36.7470 H   0  0  0  0  0  0  0  0  0  0  0  0
   32.4090   27.9770   35.6410 N   0  0  0  0  0  0  0  0  0  0  0  0
   32.3760   26.8810   34.7310 C   0  0  0  0  0  0  0  0  0  0  0  0
   31.0370   26.9060   34.0440 C   0  0  0  0  0  0  0  0  0  0  0  0
   30.1610   27.5870   35.0410 C   0  0  0  0  0  0  0  0  0  0  0  0
   31.0620   28.3570   35.9690 C   0  0  2  0  0  0  0  0  0  0  0  0
   32.4070   25.9080   35.2910 H   0  0  0  0  0  0  0  0  0  0  0  0
   33.1670   26.8990   33.9570 H   0  0  0  0  0  0  0  0  0  0  0  0
   30.6250   25.9070   33.8300 H   0  0  0  0  0  0  0  0  0  0  0  0
   31.1100   27.5130   33.1300 H   0  0  0  0  0  0  0  0  0  0  0  0
   29.4930   28.3170   34.5180 H   0  0  0  0  0  0  0  0  0  0  0  0
   29.5290   26.8950   35.6340 H   0  0  0  0  0  0  0  0  0  0  0  0
   30.8610   28.0720   37.0370 H   0  0  0  0  0  0  0  0  0  0  0  0
   30.3920   30.7250   36.6830 C   0  0  0  0  0  0  0  0  0  0  0  0
   30.9330   29.8160   35.7980 C   0  0  0  0  0  0  0  0  0  0  0  0
   31.4040   30.3860   34.6120 C   0  0  0  0  0  0  0  0  0  0  0  0
   31.8440   29.7260   33.8680 H   0  0  0  0  0  0  0  0  0  0  0  0
   31.3620   31.7300   34.2930 C   0  0  0  0  0  0  0  0  0  0  0  0
   31.7530   32.0690   33.3480 H   0  0  0  0  0  0  0  0  0  0  0  0
   30.8120   32.5930   35.2090 C   0  0  0  0  0  3  0  0  0  0  0  0
   30.3350   32.0720   36.3930 C   0  0  0  0  0  3  0  0  0  0  0  0
   29.5040   29.7190   38.9180 N   0  0  0  0  0  0  0  0  0  0  0  0
   29.8970   30.1570   37.9200 C   0  0  0  0  0  0  0  0  0  0  0  0
   35.0080   28.7280   38.1350 C   0  0  0  0  0  3  0  0  0  0  0  0
   34.1130   28.8730   37.1490 C   0  0  0  0  0  3  0  0  0  0  0  0
   36.8420   30.4120   37.6140 C   0  0  0  0  0  0  0  0  0  0  0  0
   35.9240   29.8150   38.5310 C   0  0  0  0  0  0  0  0  0  0  0  0
   35.8900   30.2750   39.8490 C   0  0  0  0  0  0  0  0  0  0  0  0
   36.7390   31.2780   40.2010 N   0  0  0  0  0  0  0  0  0  0  0  0
   37.5840   31.8150   39.3260 C   0  0  0  0  0  0  0  0  0  0  0  0
   37.6210   31.3760   38.0530 N   0  0  0  0  0  0  0  0  0  0  0  0
   36.8100   30.0060   36.6210 H   0  0  0  0  0  0  0  0  0  0  0  0
   35.2130   29.8560   40.5790 H   0  0  0  0  0  0  0  0  0  0  0  0
   36.7290   34.4530   39.3870 F   0  0  0  0  0  0  0  0  0  0  0  0
   38.0200   34.2100   39.7650 C   0  0  0  0  0  0  0  0  0  0  0  0
   38.4800   32.8920   39.7440 C   0  0  0  0  0  0  0  0  0  0  0  0
   39.7670   32.5650   40.1110 C   0  0  0  0  0  0  0  0  0  0  0  0
   40.6060   33.6010   40.5070 C   0  0  0  0  0  0  0  0  0  0  0  0
   40.1620   34.9450   40.5350 C   0  0  0  0  0  0  0  0  0  0  0  0
   38.8580   35.2350   40.1580 C   0  0  0  0  0  0  0  0  0  0  0  0
   40.1290   31.5450   40.0980 H   0  0  0  0  0  0  0  0  0  0  0  0
   41.6340   33.4360   40.8110 H   0  0  0  0  0  0  0  0  0  0  0  0
   40.8290   35.7400   40.8460 H   0  0  0  0  0  0  0  0  0  0  0  0
   38.4940   36.2550   40.1710 H   0  0  0  0  0  0  0  0  0  0  0  0
  1 27  1  0  0  0  0
  1  2  1  0  0  0  0
  3  1  1  0  0  0  0
  4  8  1  0  0  0  0
  4  1  1  0  0  0  0
  5  9  1  0  0  0  0
  5  4  1  0  0  0  0
  6  5  1  0  0  0  0
  6  7  1  0  0  0  0
  7 14  1  0  0  0  0
  7  8  1  0  0  0  0
  8 15  1  1  0  0  0
 10  5  1  0  0  0  0
 11  6  1  0  0  0  0
 12  6  1  0  0  0  0
 13  7  1  0  0  0  0
 16 25  1  0  0  0  0
 17  8  1  0  0  0  0
 17 16  2  0  0  0  0
 18 17  1  0  0  0  0
 19 18  1  0  0  0  0
 20 18  2  0  0  0  0
 20 22  1  0  0  0  0
 21 20  1  0  0  0  0
 22 23  2  0  0  0  0
 23 16  1  0  0  0  0
 25 24  3  0  0  0  0
 26 29  1  0  0  0  0
 27 26  2  0  0  0  0
 28 33  2  0  0  0  0
 28 29  1  0  0  0  0
 29 30  2  0  0  0  0
 30 31  1  0  0  0  0
 30 35  1  0  0  0  0
 32 38  1  0  0  0  0
 32 31  2  0  0  0  0
 33 32  1  0  0  0  0
 34 28  1  0  0  0  0
 36 37  1  0  0  0  0
 37 42  1  0  0  0  0
 38 37  2  0  0  0  0
 38 39  1  0  0  0  0
 39 40  2  0  0  0  0
 40 41  1  0  0  0  0
 40 44  1  0  0  0  0
 41 45  1  0  0  0  0
 42 46  1  0  0  0  0
 42 41  2  0  0  0  0
 43 39  1  0  0  0  0
M  END
>  <minimizedAffinity>
-6.07626867

$$$$

 OpenBabel03252501523D

 46 49  0  0  1  0  0  0  0  0999 V2000
   37.5260   27.5100   38.8320 C   0  0  0  0  0  0  0  0  0  0  0  0
   38.5140   27.6070   38.3020 H   0  0  0  0  0  0  0  0  0  0  0  0
   37.2900   26.4190   38.8120 H   0  0  0  0  0  0  0  0  0  0  0  0
   37.6830   28.0430   40.1370 N   0  0  0  0  0  0  0  0  0  0  0  0
   37.3560   29.4280   40.2240 C   0  0  0  0  0  0  0  0  0  0  0  0
   36.8280   29.6810   41.6100 C   0  0  0  0  0  0  0  0  0  0  0  0
   36.2760   28.3520   42.0060 C   0  0  0  0  0  0  0  0  0  0  0  0
   36.9330   27.3210   41.1280 C   0  0  2  0  0  0  0  0  0  0  0  0
   36.5080   29.6730   39.5310 H   0  0  0  0  0  0  0  0  0  0  0  0
   38.2060   30.1140   40.0430 H   0  0  0  0  0  0  0  0  0  0  0  0
   36.0210   30.4300   41.6520 H   0  0  0  0  0  0  0  0  0  0  0  0
   37.6620   29.9540   42.2720 H   0  0  0  0  0  0  0  0  0  0  0  0
   36.5510   28.1320   43.0680 H   0  0  0  0  0  0  0  0  0  0  0  0
   35.1750   28.2720   41.9040 H   0  0  0  0  0  0  0  0  0  0  0  0
   36.1570   26.6990   40.6050 H   0  0  0  0  0  0  0  0  0  0  0  0
   37.9170   25.0740   41.8720 C   0  0  0  0  0  0  0  0  0  0  0  0
   37.8610   26.4530   41.8750 C   0  0  0  0  0  0  0  0  0  0  0  0
   38.8140   27.0590   42.6980 C   0  0  0  0  0  0  0  0  0  0  0  0
   38.8280   28.1460   42.7490 H   0  0  0  0  0  0  0  0  0  0  0  0
   39.7560   26.3970   43.4630 C   0  0  0  0  0  0  0  0  0  0  0  0
   40.4490   26.9600   44.0650 H   0  0  0  0  0  0  0  0  0  0  0  0
   39.7680   25.0240   43.4230 C   0  0  0  0  0  3  0  0  0  0  0  0
   38.8450   24.3850   42.6240 C   0  0  0  0  0  3  0  0  0  0  0  0
   36.1630   23.8870   40.3520 N   0  0  0  0  0  0  0  0  0  0  0  0
   36.9380   24.4240   41.0260 C   0  0  0  0  0  0  0  0  0  0  0  0
   35.3470   27.7590   37.7140 C   0  0  0  0  0  3  0  0  0  0  0  0
   36.5530   28.2790   37.9820 C   0  0  0  0  0  3  0  0  0  0  0  0
   33.0920   28.8950   37.4080 C   0  0  0  0  0  0  0  0  0  0  0  0
   34.3520   28.4670   36.8870 C   0  0  0  0  0  0  0  0  0  0  0  0
   34.6530   28.7280   35.5500 C   0  0  0  0  0  0  0  0  0  0  0  0
   33.7270   29.3830   34.7970 N   0  0  0  0  0  0  0  0  0  0  0  0
   32.5620   29.7690   35.3090 C   0  0  0  0  0  0  0  0  0  0  0  0
   32.2650   29.5210   36.5990 N   0  0  0  0  0  0  0  0  0  0  0  0
   32.9320   28.6590   38.4430 H   0  0  0  0  0  0  0  0  0  0  0  0
   35.5930   28.4250   35.1100 H   0  0  0  0  0  0  0  0  0  0  0  0
   30.9100   28.3860   33.5620 F   0  0  0  0  0  0  0  0  0  0  0  0
   30.7760   29.7460   33.5980 C   0  0  0  0  0  0  0  0  0  0  0  0
   31.5930   30.4710   34.4670 C   0  0  0  0  0  0  0  0  0  0  0  0
   31.5180   31.8430   34.5630 C   0  0  0  0  0  0  0  0  0  0  0  0
   30.5910   32.4940   33.7560 C   0  0  0  0  0  0  0  0  0  0  0  0
   29.7510   31.7800   32.8670 C   0  0  0  0  0  0  0  0  0  0  0  0
   29.8570   30.3970   32.7990 C   0  0  0  0  0  0  0  0  0  0  0  0
   32.1490   32.4090   35.2350 H   0  0  0  0  0  0  0  0  0  0  0  0
   30.4630   33.5700   33.7650 H   0  0  0  0  0  0  0  0  0  0  0  0
   29.0340   32.3030   32.2450 H   0  0  0  0  0  0  0  0  0  0  0  0
   29.2260   29.8290   32.1270 H   0  0  0  0  0  0  0  0  0  0  0  0
  1  4  1  0  0  0  0
  2  1  1  0  0  0  0
  3  1  1  0  0  0  0
  4  5  1  0  0  0  0
  4  8  1  0  0  0  0
  5  6  1  0  0  0  0
  6 11  1  0  0  0  0
  6  7  1  0  0  0  0
  6 12  1  0  0  0  0
  7 13  1  0  0  0  0
  8 15  1  6  0  0  0
  8 17  1  0  0  0  0
  8  7  1  0  0  0  0
  9  5  1  0  0  0  0
 10  5  1  0  0  0  0
 14  7  1  0  0  0  0
 16 17  2  0  0  0  0
 16 23  1  0  0  0  0
 17 18  1  0  0  0  0
 18 19  1  0  0  0  0
 18 20  2  0  0  0  0
 20 21  1  0  0  0  0
 22 20  1  0  0  0  0
 23 22  2  0  0  0  0
 24 25  3  0  0  0  0
 25 16  1  0  0  0  0
 26 27  2  0  0  0  0
 27  1  1  0  0  0  0
 28 34  1  0  0  0  0
 29 28  1  0  0  0  0
 29 26  1  0  0  0  0
 30 29  2  0  0  0  0
 31 32  2  0  0  0  0
 31 30  1  0  0  0  0
 32 33  1  0  0  0  0
 33 28  2  0  0  0  0
 35 30  1  0  0  0  0
 36 37  1  0  0  0  0
 37 38  1  0  0  0  0
 38 39  2  0  0  0  0
 38 32  1  0  0  0  0
 39 43  1  0  0  0  0
 40 44  1  0  0  0  0
 40 39  1  0  0  0  0
 41 40  2  0  0  0  0
 42 41  1  0  0  0  0
 42 37  2  0  0  0  0
 45 41  1  0  0  0  0
 46 42  1  0  0  0  0
M  END
>  <minimizedAffinity>
-5.87316418

$$$$

 OpenBabel03252501523D

 46 49  0  0  1  0  0  0  0  0999 V2000
   37.9670   26.1000   38.6510 C   0  0  0  0  0  0  0  0  0  0  0  0
   38.6690   25.2810   38.3300 H   0  0  0  0  0  0  0  0  0  0  0  0
   37.3880   26.3640   37.7340 H   0  0  0  0  0  0  0  0  0  0  0  0
   37.1710   25.5940   39.7100 N   0  0  0  0  0  0  0  0  0  0  0  0
   36.2240   24.6170   39.2860 C   0  0  0  0  0  0  0  0  0  0  0  0
   36.0160   23.6630   40.4320 C   0  0  0  0  0  0  0  0  0  0  0  0
   37.3040   23.7530   41.1800 C   0  0  0  0  0  0  0  0  0  0  0  0
   37.9540   25.0520   40.7870 C   0  0  2  0  0  0  0  0  0  0  0  0
   36.6490   23.9970   38.4530 H   0  0  0  0  0  0  0  0  0  0  0  0
   35.2390   25.0270   38.9900 H   0  0  0  0  0  0  0  0  0  0  0  0
   35.8560   22.6180   40.1200 H   0  0  0  0  0  0  0  0  0  0  0  0
   35.1890   24.0250   41.0600 H   0  0  0  0  0  0  0  0  0  0  0  0
   37.0980   23.7850   42.2800 H   0  0  0  0  0  0  0  0  0  0  0  0
   38.0030   22.9170   40.9780 H   0  0  0  0  0  0  0  0  0  0  0  0
   38.9980   24.8710   40.4130 H   0  0  0  0  0  0  0  0  0  0  0  0
   39.0270   26.3520   42.7180 C   0  0  0  0  0  0  0  0  0  0  0  0
   37.9720   26.0300   41.8900 C   0  0  0  0  0  0  0  0  0  0  0  0
   36.7980   26.7380   42.1640 C   0  0  0  0  0  0  0  0  0  0  0  0
   35.9240   26.5350   41.5490 H   0  0  0  0  0  0  0  0  0  0  0  0
   36.6430   27.6880   43.1560 C   0  0  0  0  0  0  0  0  0  0  0  0
   35.6930   28.1790   43.2840 H   0  0  0  0  0  0  0  0  0  0  0  0
   37.7260   27.9700   43.9520 C   0  0  0  0  0  3  0  0  0  0  0  0
   38.9040   27.2940   43.7170 C   0  0  0  0  0  3  0  0  0  0  0  0
   41.2330   25.0400   42.2570 N   0  0  0  0  0  0  0  0  0  0  0  0
   40.2550   25.6290   42.4540 C   0  0  0  0  0  0  0  0  0  0  0  0
   38.3370   28.4560   39.2610 C   0  0  0  0  0  3  0  0  0  0  0  0
   38.8600   27.2380   39.0610 C   0  0  0  0  0  3  0  0  0  0  0  0
   39.9760   30.3280   38.7340 C   0  0  0  0  0  0  0  0  0  0  0  0
   39.1640   29.6090   39.6650 C   0  0  0  0  0  0  0  0  0  0  0  0
   39.1500   30.0110   41.0010 C   0  0  0  0  0  0  0  0  0  0  0  0
   39.9170   31.0770   41.3590 N   0  0  0  0  0  0  0  0  0  0  0  0
   40.6640   31.7280   40.4730 C   0  0  0  0  0  0  0  0  0  0  0  0
   40.6810   31.3450   39.1810 N   0  0  0  0  0  0  0  0  0  0  0  0
   39.9350   29.9610   37.7270 H   0  0  0  0  0  0  0  0  0  0  0  0
   38.5520   29.5000   41.7420 H   0  0  0  0  0  0  0  0  0  0  0  0
   39.9850   34.3180   39.7510 F   0  0  0  0  0  0  0  0  0  0  0  0
   41.1060   34.1610   40.5190 C   0  0  0  0  0  0  0  0  0  0  0  0
   41.4730   32.8690   40.8980 C   0  0  0  0  0  0  0  0  0  0  0  0
   42.5880   32.6260   41.6710 C   0  0  0  0  0  0  0  0  0  0  0  0
   43.3460   33.7230   42.0670 C   0  0  0  0  0  0  0  0  0  0  0  0
   42.9920   35.0420   41.6950 C   0  0  0  0  0  0  0  0  0  0  0  0
   41.8630   35.2460   40.9150 C   0  0  0  0  0  0  0  0  0  0  0  0
   42.8770   31.6270   41.9680 H   0  0  0  0  0  0  0  0  0  0  0  0
   44.2380   33.6260   42.6750 H   0  0  0  0  0  0  0  0  0  0  0  0
   43.5950   35.8850   42.0110 H   0  0  0  0  0  0  0  0  0  0  0  0
   41.5710   36.2450   40.6160 H   0  0  0  0  0  0  0  0  0  0  0  0
  1 27  1  0  0  0  0
  1  4  1  0  0  0  0
  2  1  1  0  0  0  0
  3  1  1  0  0  0  0
  4  8  1  0  0  0  0
  5  4  1  0  0  0  0
  5  6  1  0  0  0  0
  6 12  1  0  0  0  0
  6  7  1  0  0  0  0
  7 13  1  0  0  0  0
  8 15  1  6  0  0  0
  8  7  1  0  0  0  0
  8 17  1  0  0  0  0
  9  5  1  0  0  0  0
 10  5  1  0  0  0  0
 11  6  1  0  0  0  0
 14  7  1  0  0  0  0
 16 23  1  0  0  0  0
 17 18  1  0  0  0  0
 17 16  2  0  0  0  0
 18 20  2  0  0  0  0
 19 18  1  0  0  0  0
 20 21  1  0  0  0  0
 20 22  1  0  0  0  0
 23 22  2  0  0  0  0
 24 25  3  0  0  0  0
 25 16  1  0  0  0  0
 26 29  1  0  0  0  0
 27 26  2  0  0  0  0
 28 33  2  0  0  0  0
 28 29  1  0  0  0  0
 29 30  2  0  0  0  0
 30 31  1  0  0  0  0
 30 35  1  0  0  0  0
 32 38  1  0  0  0  0
 32 31  2  0  0  0  0
 33 32  1  0  0  0  0
 34 28  1  0  0  0  0
 36 37  1  0  0  0  0
 37 38  2  0  0  0  0
 37 42  1  0  0  0  0
 38 39  1  0  0  0  0
 39 43  1  0  0  0  0
 39 40  2  0  0  0  0
 40 44  1  0  0  0  0
 41 45  1  0  0  0  0
 41 40  1  0  0  0  0
 42 41  2  0  0  0  0
 46 42  1  0  0  0  0
M  END
>  <minimizedAffinity>
-5.81250763

$$$$

 OpenBabel03252501523D

 46 49  0  0  1  0  0  0  0  0999 V2000
   37.3230   27.2560   38.7110 C   0  0  0  0  0  0  0  0  0  0  0  0
   37.6270   28.2390   39.1680 H   0  0  0  0  0  0  0  0  0  0  0  0
   38.2430   26.8730   38.2070 H   0  0  0  0  0  0  0  0  0  0  0  0
   36.8480   26.4240   39.7560 N   0  0  0  0  0  0  0  0  0  0  0  0
   36.2210   25.2330   39.2880 C   0  0  0  0  0  0  0  0  0  0  0  0
   36.4520   24.1640   40.3230 C   0  0  0  0  0  0  0  0  0  0  0  0
   37.7160   24.6040   40.9810 C   0  0  0  0  0  0  0  0  0  0  0  0
   37.8730   26.0740   40.7010 C   0  0  2  0  0  0  0  0  0  0  0  0
   36.7290   24.8640   38.3580 H   0  0  0  0  0  0  0  0  0  0  0  0
   35.1310   25.3220   39.1150 H   0  0  0  0  0  0  0  0  0  0  0  0
   36.6000   23.1570   39.9010 H   0  0  0  0  0  0  0  0  0  0  0  0
   35.6250   24.1770   41.0470 H   0  0  0  0  0  0  0  0  0  0  0  0
   37.6300   24.4670   42.0890 H   0  0  0  0  0  0  0  0  0  0  0  0
   38.6190   24.0650   40.6310 H   0  0  0  0  0  0  0  0  0  0  0  0
   38.8740   26.2800   40.2340 H   0  0  0  0  0  0  0  0  0  0  0  0
   38.4770   27.9570   42.3320 C   0  0  0  0  0  0  0  0  0  0  0  0
   37.6970   26.9010   41.9090 C   0  0  0  0  0  0  0  0  0  0  0  0
   36.6220   26.6130   42.7550 C   0  0  0  0  0  0  0  0  0  0  0  0
   35.9630   25.7910   42.4830 H   0  0  0  0  0  0  0  0  0  0  0  0
   36.3120   27.2860   43.9220 C   0  0  0  0  0  0  0  0  0  0  0  0
   35.4580   26.9850   44.5040 H   0  0  0  0  0  0  0  0  0  0  0  0
   37.1220   28.3300   44.2970 C   0  0  0  0  0  3  0  0  0  0  0  0
   38.1940   28.6470   43.4920 C   0  0  0  0  0  3  0  0  0  0  0  0
   40.4830   28.5250   40.7670 N   0  0  0  0  0  0  0  0  0  0  0  0
   39.5980   28.2730   41.4710 C   0  0  0  0  0  0  0  0  0  0  0  0
   35.3390   28.5240   37.9950 C   0  0  0  0  0  3  0  0  0  0  0  0
   36.2710   27.6080   37.6970 C   0  0  0  0  0  3  0  0  0  0  0  0
   32.9350   29.1530   37.4500 C   0  0  0  0  0  0  0  0  0  0  0  0
   34.2820   28.9090   37.0400 C   0  0  0  0  0  0  0  0  0  0  0  0
   34.6120   29.0410   35.6900 C   0  0  0  0  0  0  0  0  0  0  0  0
   33.6280   29.3980   34.8200 N   0  0  0  0  0  0  0  0  0  0  0  0
   32.3830   29.6180   35.2290 C   0  0  0  0  0  0  0  0  0  0  0  0
   32.0580   29.4930   36.5300 N   0  0  0  0  0  0  0  0  0  0  0  0
   32.7590   29.0320   38.5010 H   0  0  0  0  0  0  0  0  0  0  0  0
   35.6170   28.8680   35.3320 H   0  0  0  0  0  0  0  0  0  0  0  0
   31.6420   32.2700   34.8930 F   0  0  0  0  0  0  0  0  0  0  0  0
   31.0040   31.3430   34.1160 C   0  0  0  0  0  0  0  0  0  0  0  0
   31.3540   30.0000   34.2620 C   0  0  0  0  0  0  0  0  0  0  0  0
   30.7580   29.0070   33.5170 C   0  0  0  0  0  0  0  0  0  0  0  0
   29.7830   29.3880   32.6020 C   0  0  0  0  0  0  0  0  0  0  0  0
   29.4110   30.7440   32.4360 C   0  0  0  0  0  0  0  0  0  0  0  0
   30.0340   31.7160   33.2060 C   0  0  0  0  0  0  0  0  0  0  0  0
   31.0260   27.9640   33.6250 H   0  0  0  0  0  0  0  0  0  0  0  0
   29.2610   28.6740   31.9730 H   0  0  0  0  0  0  0  0  0  0  0  0
   28.6480   31.0230   31.7180 H   0  0  0  0  0  0  0  0  0  0  0  0
   29.7670   32.7600   33.0980 H   0  0  0  0  0  0  0  0  0  0  0  0
  1  2  1  0  0  0  0
  1  4  1  0  0  0  0
  3  1  1  0  0  0  0
  4  8  1  0  0  0  0
  5  4  1  0  0  0  0
  5  6  1  0  0  0  0
  6  7  1  0  0  0  0
  6 12  1  0  0  0  0
  7 13  1  0  0  0  0
  8 15  1  6  0  0  0
  8  7  1  0  0  0  0
  8 17  1  0  0  0  0
  9  5  1  0  0  0  0
 10  5  1  0  0  0  0
 11  6  1  0  0  0  0
 14  7  1  0  0  0  0
 16 23  1  0  0  0  0
 17 16  2  0  0  0  0
 17 18  1  0  0  0  0
 18 20  2  0  0  0  0
 19 18  1  0  0  0  0
 20 22  1  0  0  0  0
 20 21  1  0  0  0  0
 23 22  2  0  0  0  0
 24 25  3  0  0  0  0
 25 16  1  0  0  0  0
 27 26  2  0  0  0  0
 27  1  1  0  0  0  0
 28 34  1  0  0  0  0
 29 28  1  0  0  0  0
 29 26  1  0  0  0  0
 30 29  2  0  0  0  0
 31 32  2  0  0  0  0
 31 30  1  0  0  0  0
 32 33  1  0  0  0  0
 33 28  2  0  0  0  0
 35 30  1  0  0  0  0
 37 38  1  0  0  0  0
 37 36  1  0  0  0  0
 38 32  1  0  0  0  0
 39 43  1  0  0  0  0
 39 38  2  0  0  0  0
 40 39  1  0  0  0  0
 41 40  2  0  0  0  0
 41 42  1  0  0  0  0
 42 37  2  0  0  0  0
 44 40  1  0  0  0  0
 45 41  1  0  0  0  0
 46 42  1  0  0  0  0
M  END
>  <minimizedAffinity>
-5.80139637

$$$$

 OpenBabel03252501523D

 46 49  0  0  1  0  0  0  0  0999 V2000
   35.7020   27.8550   39.7890 C   0  0  0  0  0  0  0  0  0  0  0  0
   36.4680   27.3850   39.1110 H   0  0  0  0  0  0  0  0  0  0  0  0
   35.1820   26.9970   40.2800 H   0  0  0  0  0  0  0  0  0  0  0  0
   36.3910   28.7050   40.6920 N   0  0  0  0  0  0  0  0  0  0  0  0
   36.5160   28.1540   42.0000 C   0  0  0  0  0  0  0  0  0  0  0  0
   37.7970   28.6800   42.5910 C   0  0  0  0  0  0  0  0  0  0  0  0
   38.6320   28.9570   41.3850 C   0  0  0  0  0  0  0  0  0  0  0  0
   37.6920   29.0870   40.2170 C   0  0  2  0  0  0  0  0  0  0  0  0
   36.6470   27.0410   41.9440 H   0  0  0  0  0  0  0  0  0  0  0  0
   35.6860   28.4050   42.6890 H   0  0  0  0  0  0  0  0  0  0  0  0
   38.3250   27.9560   43.2320 H   0  0  0  0  0  0  0  0  0  0  0  0
   37.5910   29.6160   43.1290 H   0  0  0  0  0  0  0  0  0  0  0  0
   39.1650   29.9340   41.5140 H   0  0  0  0  0  0  0  0  0  0  0  0
   39.3830   28.1730   41.1660 H   0  0  0  0  0  0  0  0  0  0  0  0
   37.9910   28.3850   39.3930 H   0  0  0  0  0  0  0  0  0  0  0  0
   37.6540   30.8850   38.3910 C   0  0  0  0  0  0  0  0  0  0  0  0
   37.6160   30.4680   39.7050 C   0  0  0  0  0  0  0  0  0  0  0  0
   37.4890   31.5090   40.6290 C   0  0  0  0  0  0  0  0  0  0  0  0
   37.4520   31.2520   41.6860 H   0  0  0  0  0  0  0  0  0  0  0  0
   37.4030   32.8530   40.3210 C   0  0  0  0  0  0  0  0  0  0  0  0
   37.3070   33.5790   41.1110 H   0  0  0  0  0  0  0  0  0  0  0  0
   37.4470   33.2150   38.9970 C   0  0  0  0  0  3  0  0  0  0  0  0
   37.5710   32.2190   38.0520 C   0  0  0  0  0  3  0  0  0  0  0  0
   37.9080   28.9690   36.6410 N   0  0  0  0  0  0  0  0  0  0  0  0
   37.7860   29.8230   37.4140 C   0  0  0  0  0  0  0  0  0  0  0  0
   34.4650   28.0660   37.6720 C   0  0  0  0  0  3  0  0  0  0  0  0
   34.7660   28.5870   38.8690 C   0  0  0  0  0  3  0  0  0  0  0  0
   32.2310   29.1380   37.0980 C   0  0  0  0  0  0  0  0  0  0  0  0
   33.5520   28.7390   36.7280 C   0  0  0  0  0  0  0  0  0  0  0  0
   33.9980   28.9960   35.4310 C   0  0  0  0  0  0  0  0  0  0  0  0
   33.1460   29.6180   34.5700 N   0  0  0  0  0  0  0  0  0  0  0  0
   31.9210   29.9780   34.9410 C   0  0  0  0  0  0  0  0  0  0  0  0
   31.4860   29.7330   36.1920 N   0  0  0  0  0  0  0  0  0  0  0  0
   31.9610   28.9070   38.1100 H   0  0  0  0  0  0  0  0  0  0  0  0
   34.9880   28.7140   35.1040 H   0  0  0  0  0  0  0  0  0  0  0  0
   31.3860   32.6920   35.1340 F   0  0  0  0  0  0  0  0  0  0  0  0
   30.7870   32.0120   34.1100 C   0  0  0  0  0  0  0  0  0  0  0  0
   31.0370   30.6450   33.9870 C   0  0  0  0  0  0  0  0  0  0  0  0
   30.4730   29.8900   32.9820 C   0  0  0  0  0  0  0  0  0  0  0  0
   29.6350   30.5400   32.0820 C   0  0  0  0  0  0  0  0  0  0  0  0
   29.3670   31.9270   32.1880 C   0  0  0  0  0  0  0  0  0  0  0  0
   29.9540   32.6530   33.2140 C   0  0  0  0  0  0  0  0  0  0  0  0
   30.6630   28.8300   32.8810 H   0  0  0  0  0  0  0  0  0  0  0  0
   29.1470   30.0260   31.2620 H   0  0  0  0  0  0  0  0  0  0  0  0
   28.7110   32.4180   31.4790 H   0  0  0  0  0  0  0  0  0  0  0  0
   29.7640   33.7150   33.3170 H   0  0  0  0  0  0  0  0  0  0  0  0
  1  3  1  0  0  0  0
  1  4  1  0  0  0  0
  2  1  1  0  0  0  0
  4  5  1  0  0  0  0
  5  6  1  0  0  0  0
  5 10  1  0  0  0  0
  6 12  1  0  0  0  0
  6 11  1  0  0  0  0
  7 13  1  0  0  0  0
  7  6  1  0  0  0  0
  8 15  1  6  0  0  0
  8  4  1  0  0  0  0
  8  7  1  0  0  0  0
  9  5  1  0  0  0  0
 14  7  1  0  0  0  0
 16 17  1  0  0  0  0
 17  8  1  0  0  0  0
 17 18  2  0  0  0  0
 18 19  1  0  0  0  0
 20 18  1  0  0  0  0
 20 21  1  0  0  0  0
 22 20  2  0  0  0  0
 23 16  2  0  0  0  0
 23 22  1  0  0  0  0
 24 25  3  0  0  0  0
 25 16  1  0  0  0  0
 26 27  2  0  0  0  0
 27  1  1  0  0  0  0
 28 34  1  0  0  0  0
 29 28  1  0  0  0  0
 29 26  1  0  0  0  0
 30 29  2  0  0  0  0
 31 32  2  0  0  0  0
 31 30  1  0  0  0  0
 32 33  1  0  0  0  0
 33 28  2  0  0  0  0
 35 30  1  0  0  0  0
 37 36  1  0  0  0  0
 38 37  1  0  0  0  0
 38 32  1  0  0  0  0
 39 38  2  0  0  0  0
 40 41  2  0  0  0  0
 40 39  1  0  0  0  0
 41 42  1  0  0  0  0
 42 46  1  0  0  0  0
 42 37  2  0  0  0  0
 43 39  1  0  0  0  0
 44 40  1  0  0  0  0
 45 41  1  0  0  0  0
M  END
>  <minimizedAffinity>
-5.77320004

$$$$

 OpenBabel03252501523D

 46 49  0  0  1  0  0  0  0  0999 V2000
   36.8420   24.7910   38.1290 C   0  0  0  0  0  0  0  0  0  0  0  0
   37.8400   25.0890   37.7030 H   0  0  0  0  0  0  0  0  0  0  0  0
   36.4990   23.9370   37.4960 H   0  0  0  0  0  0  0  0  0  0  0  0
   37.0390   24.4560   39.4930 N   0  0  0  0  0  0  0  0  0  0  0  0
   37.0390   23.0510   39.7340 C   0  0  0  0  0  0  0  0  0  0  0  0
   37.9510   22.7950   40.9040 C   0  0  0  0  0  0  0  0  0  0  0  0
   38.9030   23.9420   40.8450 C   0  0  0  0  0  0  0  0  0  0  0  0
   38.2390   25.0270   40.0400 C   0  0  2  0  0  0  0  0  0  0  0  0
   37.5020   22.5070   38.8690 H   0  0  0  0  0  0  0  0  0  0  0  0
   36.0450   22.6220   39.9650 H   0  0  0  0  0  0  0  0  0  0  0  0
   38.5200   21.8540   40.8310 H   0  0  0  0  0  0  0  0  0  0  0  0
   37.3670   22.8380   41.8350 H   0  0  0  0  0  0  0  0  0  0  0  0
   39.0830   24.3340   41.8770 H   0  0  0  0  0  0  0  0  0  0  0  0
   39.8820   23.6930   40.3880 H   0  0  0  0  0  0  0  0  0  0  0  0
   38.9010   25.3460   39.1910 H   0  0  0  0  0  0  0  0  0  0  0  0
   38.1230   27.5240   40.6050 C   0  0  0  0  0  0  0  0  0  0  0  0
   37.8690   26.1930   40.8630 C   0  0  0  0  0  0  0  0  0  0  0  0
   37.1770   25.9660   42.0560 C   0  0  0  0  0  0  0  0  0  0  0  0
   36.9430   24.9380   42.3230 H   0  0  0  0  0  0  0  0  0  0  0  0
   36.7550   26.9420   42.9400 C   0  0  0  0  0  0  0  0  0  0  0  0
   36.2260   26.6610   43.8350 H   0  0  0  0  0  0  0  0  0  0  0  0
   37.0350   28.2510   42.6350 C   0  0  0  0  0  3  0  0  0  0  0  0
   37.7160   28.5200   41.4670 C   0  0  0  0  0  3  0  0  0  0  0  0
   39.3970   27.9920   38.3790 N   0  0  0  0  0  0  0  0  0  0  0  0
   38.8400   27.7830   39.3730 C   0  0  0  0  0  0  0  0  0  0  0  0
   34.8120   25.8650   37.2430 C   0  0  0  0  0  3  0  0  0  0  0  0
   35.9580   25.9900   37.9260 C   0  0  0  0  0  3  0  0  0  0  0  0
   32.7650   26.9140   36.1580 C   0  0  0  0  0  0  0  0  0  0  0  0
   33.9060   27.0060   37.0130 C   0  0  0  0  0  0  0  0  0  0  0  0
   34.1740   28.2160   37.6540 C   0  0  0  0  0  0  0  0  0  0  0  0
   33.3290   29.2610   37.4330 N   0  0  0  0  0  0  0  0  0  0  0  0
   32.2740   29.1470   36.6320 C   0  0  0  0  0  0  0  0  0  0  0  0
   32.0110   27.9810   36.0110 N   0  0  0  0  0  0  0  0  0  0  0  0
   32.6250   25.9530   35.7010 H   0  0  0  0  0  0  0  0  0  0  0  0
   35.0240   28.3360   38.3100 H   0  0  0  0  0  0  0  0  0  0  0  0
   30.6540   30.1040   38.6690 F   0  0  0  0  0  0  0  0  0  0  0  0
   30.5880   30.7510   37.4670 C   0  0  0  0  0  0  0  0  0  0  0  0
   31.3910   30.2930   36.4210 C   0  0  0  0  0  0  0  0  0  0  0  0
   31.3830   30.8910   35.1800 C   0  0  0  0  0  0  0  0  0  0  0  0
   30.5370   31.9800   34.9980 C   0  0  0  0  0  0  0  0  0  0  0  0
   29.7130   32.4630   36.0430 C   0  0  0  0  0  0  0  0  0  0  0  0
   29.7500   31.8330   37.2790 C   0  0  0  0  0  0  0  0  0  0  0  0
   32.0040   30.5400   34.3670 H   0  0  0  0  0  0  0  0  0  0  0  0
   30.4650   32.5110   34.0550 H   0  0  0  0  0  0  0  0  0  0  0  0
   29.0600   33.3120   35.8830 H   0  0  0  0  0  0  0  0  0  0  0  0
   29.1290   32.1830   38.0950 H   0  0  0  0  0  0  0  0  0  0  0  0
  1  4  1  0  0  0  0
  2  1  1  0  0  0  0
  3  1  1  0  0  0  0
  4  5  1  0  0  0  0
  4  8  1  0  0  0  0
  5 10  1  0  0  0  0
  5  6  1  0  0  0  0
  6 12  1  0  0  0  0
  7  6  1  0  0  0  0
  7 13  1  0  0  0  0
  8 15  1  6  0  0  0
  8  7  1  0  0  0  0
  8 17  1  0  0  0  0
  9  5  1  0  0  0  0
 11  6  1  0  0  0  0
 14  7  1  0  0  0  0
 16 17  2  0  0  0  0
 16 23  1  0  0  0  0
 17 18  1  0  0  0  0
 18 19  1  0  0  0  0
 18 20  2  0  0  0  0
 20 21  1  0  0  0  0
 22 20  1  0  0  0  0
 23 22  2  0  0  0  0
 24 25  3  0  0  0  0
 25 16  1  0  0  0  0
 26 27  2  0  0  0  0
 27  1  1  0  0  0  0
 28 29  1  0  0  0  0
 29 26  1  0  0  0  0
 29 30  2  0  0  0  0
 30 35  1  0  0  0  0
 31 30  1  0  0  0  0
 32 31  2  0  0  0  0
 33 28  2  0  0  0  0
 33 32  1  0  0  0  0
 34 28  1  0  0  0  0
 37 36  1  0  0  0  0
 38 32  1  0  0  0  0
 38 37  2  0  0  0  0
 39 38  1  0  0  0  0
 40 39  2  0  0  0  0
 40 41  1  0  0  0  0
 41 42  2  0  0  0  0
 42 37  1  0  0  0  0
 42 46  1  0  0  0  0
 43 39  1  0  0  0  0
 44 40  1  0  0  0  0
 45 41  1  0  0  0  0
M  END
>  <minimizedAffinity>
-5.74830294

$$$$

 OpenBabel03252501523D

 46 49  0  0  1  0  0  0  0  0999 V2000
   39.1390   27.1490   43.7320 C   0  0  0  0  0  0  0  0  0  0  0  0
   38.6750   26.2240   44.1760 H   0  0  0  0  0  0  0  0  0  0  0  0
   38.8720   27.9750   44.4350 H   0  0  0  0  0  0  0  0  0  0  0  0
   40.5340   26.9180   43.6160 N   0  0  0  0  0  0  0  0  0  0  0  0
   40.8720   25.5360   43.5400 C   0  0  0  0  0  0  0  0  0  0  0  0
   42.1180   25.4210   42.7040 C   0  0  0  0  0  0  0  0  0  0  0  0
   42.0460   26.6270   41.8280 C   0  0  0  0  0  0  0  0  0  0  0  0
   41.1230   27.6070   42.5010 C   0  0  2  0  0  0  0  0  0  0  0  0
   40.0810   24.9710   42.9780 H   0  0  0  0  0  0  0  0  0  0  0  0
   41.0610   25.0520   44.5180 H   0  0  0  0  0  0  0  0  0  0  0  0
   42.1510   24.5210   42.0700 H   0  0  0  0  0  0  0  0  0  0  0  0
   43.0000   25.4830   43.3580 H   0  0  0  0  0  0  0  0  0  0  0  0
   43.0590   27.0980   41.7530 H   0  0  0  0  0  0  0  0  0  0  0  0
   41.6780   26.4200   40.8040 H   0  0  0  0  0  0  0  0  0  0  0  0
   40.3020   27.9180   41.7990 H   0  0  0  0  0  0  0  0  0  0  0  0
   41.5930   30.1190   42.7040 C   0  0  0  0  0  0  0  0  0  0  0  0
   41.8340   28.7950   43.0090 C   0  0  0  0  0  0  0  0  0  0  0  0
   42.8850   28.6000   43.9090 C   0  0  0  0  0  0  0  0  0  0  0  0
   43.1310   27.5800   44.1940 H   0  0  0  0  0  0  0  0  0  0  0  0
   43.6520   29.5990   44.4800 C   0  0  0  0  0  0  0  0  0  0  0  0
   44.4420   29.3420   45.1660 H   0  0  0  0  0  0  0  0  0  0  0  0
   43.3700   30.9000   44.1420 C   0  0  0  0  0  3  0  0  0  0  0  0
   42.3410   31.1370   43.2560 C   0  0  0  0  0  3  0  0  0  0  0  0
   39.6270   30.5200   41.0390 N   0  0  0  0  0  0  0  0  0  0  0  0
   40.5080   30.3450   41.7720 C   0  0  0  0  0  0  0  0  0  0  0  0
   37.2940   28.0110   42.3500 C   0  0  0  0  0  3  0  0  0  0  0  0
   38.4480   27.3340   42.4090 C   0  0  0  0  0  3  0  0  0  0  0  0
   36.5000   27.2200   40.0660 C   0  0  0  0  0  0  0  0  0  0  0  0
   36.5720   28.2240   41.0810 C   0  0  0  0  0  0  0  0  0  0  0  0
   35.9380   29.4480   40.8660 C   0  0  0  0  0  0  0  0  0  0  0  0
   35.2750   29.6310   39.6910 N   0  0  0  0  0  0  0  0  0  0  0  0
   35.2240   28.6790   38.7640 C   0  0  0  0  0  0  0  0  0  0  0  0
   35.8340   27.4950   38.9660 N   0  0  0  0  0  0  0  0  0  0  0  0
   37.0110   26.3060   40.3040 H   0  0  0  0  0  0  0  0  0  0  0  0
   35.9640   30.2380   41.6020 H   0  0  0  0  0  0  0  0  0  0  0  0
   32.5100   29.2500   38.7620 F   0  0  0  0  0  0  0  0  0  0  0  0
   33.1360   29.2010   37.5470 C   0  0  0  0  0  0  0  0  0  0  0  0
   34.5010   28.9150   37.5150 C   0  0  0  0  0  0  0  0  0  0  0  0
   35.2040   28.8480   36.3320 C   0  0  0  0  0  0  0  0  0  0  0  0
   34.5010   29.0750   35.1540 C   0  0  0  0  0  0  0  0  0  0  0  0
   33.1150   29.3670   35.1620 C   0  0  0  0  0  0  0  0  0  0  0  0
   32.4420   29.4250   36.3740 C   0  0  0  0  0  0  0  0  0  0  0  0
   36.2620   28.6280   36.3010 H   0  0  0  0  0  0  0  0  0  0  0  0
   34.9710   29.0430   34.1770 H   0  0  0  0  0  0  0  0  0  0  0  0
   32.5820   29.5410   34.2340 H   0  0  0  0  0  0  0  0  0  0  0  0
   31.3820   29.6460   36.4060 H   0  0  0  0  0  0  0  0  0  0  0  0
  1  2  1  0  0  0  0
  1  3  1  0  0  0  0
  4  1  1  0  0  0  0
  5  4  1  0  0  0  0
  5 10  1  0  0  0  0
  6 12  1  0  0  0  0
  6  5  1  0  0  0  0
  7  8  1  0  0  0  0
  7  6  1  0  0  0  0
  8 15  1  6  0  0  0
  8 17  1  0  0  0  0
  8  4  1  0  0  0  0
  9  5  1  0  0  0  0
 11  6  1  0  0  0  0
 13  7  1  0  0  0  0
 14  7  1  0  0  0  0
 16 17  2  0  0  0  0
 16 23  1  0  0  0  0
 17 18  1  0  0  0  0
 18 19  1  0  0  0  0
 18 20  2  0  0  0  0
 20 21  1  0  0  0  0
 22 20  1  0  0  0  0
 23 22  2  0  0  0  0
 24 25  3  0  0  0  0
 25 16  1  0  0  0  0
 26 27  2  0  0  0  0
 27  1  1  0  0  0  0
 28 34  1  0  0  0  0
 28 29  1  0  0  0  0
 29 26  1  0  0  0  0
 30 29  2  0  0  0  0
 30 35  1  0  0  0  0
 31 30  1  0  0  0  0
 32 33  1  0  0  0  0
 32 31  2  0  0  0  0
 33 28  2  0  0  0  0
 37 36  1  0  0  0  0
 38 37  1  0  0  0  0
 38 32  1  0  0  0  0
 39 38  2  0  0  0  0
 40 41  2  0  0  0  0
 40 39  1  0  0  0  0
 41 42  1  0  0  0  0
 42 46  1  0  0  0  0
 42 37  2  0  0  0  0
 43 39  1  0  0  0  0
 44 40  1  0  0  0  0
 45 41  1  0  0  0  0
M  END
>  <minimizedAffinity>
-5.63254833

$$$$
