
 OpenBabel03252502043D

 47 51  0  0  0  0  0  0  0  0999 V2000
   45.6270   33.6750   45.3540 C   0  0  0  0  0  0  0  0  0  0  0  0
   44.8930   34.6980   45.8720 N   0  0  0  0  0  0  0  0  0  0  0  0
   44.5550   35.8060   45.2150 C   0  0  0  0  0  0  0  0  0  0  0  0
   44.9530   35.9620   43.9320 N   0  0  0  0  0  0  0  0  0  0  0  0
   45.6880   35.0100   43.3120 C   0  0  0  0  0  0  0  0  0  0  0  0
   46.0720   35.1970   42.0150 C   0  0  0  0  0  0  0  0  0  0  0  0
   46.8160   34.2300   41.3760 C   0  0  0  0  0  0  0  0  0  0  0  0
   47.1490   33.0850   42.0890 C   0  0  0  0  0  0  0  0  0  0  0  0
   46.7200   32.9700   43.4020 C   0  0  0  0  0  0  0  0  0  0  0  0
   45.9890   33.9040   44.0600 C   0  0  0  0  0  0  0  0  0  0  0  0
   43.9620   36.5470   45.7530 H   0  0  0  0  0  0  0  0  0  0  0  0
   45.7650   36.1240   41.5350 H   0  0  0  0  0  0  0  0  0  0  0  0
   47.0620   34.4900   40.3480 H   0  0  0  0  0  0  0  0  0  0  0  0
   47.7260   32.4430   41.4400 H   0  0  0  0  0  0  0  0  0  0  0  0
   47.5730   31.7650   47.7120 C   0  0  0  0  0  0  0  0  0  0  0  0
   47.0190   30.5030   47.7560 C   0  0  0  0  0  0  0  0  0  0  0  0
   45.9340   30.2890   46.9660 C   0  0  0  0  0  0  0  0  0  0  0  0
   45.4550   31.2690   46.1950 N   0  0  0  0  0  0  0  0  0  0  0  0
   45.9820   32.4910   46.1370 C   0  0  0  0  0  0  0  0  0  0  0  0
   47.0560   32.7070   46.9250 N   0  0  0  0  0  0  0  0  0  0  0  0
   45.2900   29.0580   46.9520 N   0  0  0  0  0  0  0  0  0  0  0  0
   43.9860   28.7860   46.3110 C   0  0  0  0  0  0  0  0  0  0  0  0
   43.8480   27.2820   46.3140 C   0  0  0  0  0  0  0  0  0  0  0  0
   44.6560   26.8720   47.5130 C   0  0  0  0  0  0  0  0  0  0  0  0
   45.7760   27.8510   47.5520 C   0  0  0  0  0  0  0  0  0  0  0  0
   48.4490   31.9660   48.3450 H   0  0  0  0  0  0  0  0  0  0  0  0
   44.1050   29.0710   45.2390 H   0  0  0  0  0  0  0  0  0  0  0  0
   43.1630   29.2960   46.8100 H   0  0  0  0  0  0  0  0  0  0  0  0
   44.2880   26.8010   45.4270 H   0  0  0  0  0  0  0  0  0  0  0  0
   42.7730   27.0130   46.3850 H   0  0  0  0  0  0  0  0  0  0  0  0
   44.9970   25.8040   47.4120 H   0  0  0  0  0  0  0  0  0  0  0  0
   43.9690   26.9100   48.3770 H   0  0  0  0  0  0  0  0  0  0  0  0
   45.9300   27.9320   48.6730 H   0  0  0  0  0  0  0  0  0  0  0  0
   46.6500   27.4780   47.0160 H   0  0  0  0  0  0  0  0  0  0  0  0
   47.6290   29.5190   48.5260 N   0  0  0  0  0  0  0  0  0  0  0  0
   48.2620   28.7390   48.2710 H   0  0  0  0  0  0  0  0  0  0  0  0
   47.3370   29.6760   49.5330 H   0  0  0  0  0  0  0  0  0  0  0  0
   46.2570   30.6680   43.3890 C   0  0  0  0  0  0  0  0  0  0  0  0
   47.1960   31.6510   43.7890 C   0  0  0  0  0  0  0  0  0  0  0  0
   48.3410   31.1520   44.3860 C   0  0  0  0  0  0  0  0  0  0  0  0
   48.9750   32.0140   44.6440 H   0  0  0  0  0  0  0  0  0  0  0  0
   48.5750   29.8140   44.5870 C   0  0  0  0  0  0  0  0  0  0  0  0
   49.5390   29.6560   45.0730 H   0  0  0  0  0  0  0  0  0  0  0  0
   47.6580   28.8640   44.1960 C   0  0  0  0  0  3  0  0  0  0  0  0
   46.5000   29.3050   43.5950 C   0  0  0  0  0  3  0  0  0  0  0  0
   43.9920   31.1970   42.2380 N   0  0  0  0  0  0  0  0  0  0  0  0
   44.9950   30.9510   42.7480 C   0  0  0  0  0  0  0  0  0  0  0  0
  1  2  1  0  0  0  0
  1 19  1  0  0  0  0
  3 11  1  0  0  0  0
  3  2  2  0  0  0  0
  4  3  1  0  0  0  0
  5  4  2  0  0  0  0
  5 10  1  0  0  0  0
  6  5  1  0  0  0  0
  7  6  2  0  0  0  0
  7  8  1  0  0  0  0
  8  9  2  0  0  0  0
  9 39  1  0  0  0  0
  9 10  1  0  0  0  0
 10  1  2  0  0  0  0
 12  6  1  0  0  0  0
 13  7  1  0  0  0  0
 14  8  1  0  0  0  0
 15 16  1  0  0  0  0
 15 26  1  0  0  0  0
 16 35  1  0  0  0  0
 17 16  2  0  0  0  0
 18 17  1  0  0  0  0
 19 18  2  0  0  0  0
 19 20  1  0  0  0  0
 20 15  2  0  0  0  0
 21 17  1  0  0  0  0
 21 25  1  0  0  0  0
 22 23  1  0  0  0  0
 22 28  1  0  0  0  0
 22 21  1  0  0  0  0
 23 30  1  0  0  0  0
 23 24  1  0  0  0  0
 24 25  1  0  0  0  0
 24 32  1  0  0  0  0
 25 33  1  0  0  0  0
 27 22  1  0  0  0  0
 29 23  1  0  0  0  0
 31 24  1  0  0  0  0
 34 25  1  0  0  0  0
 35 37  1  0  0  0  0
 36 35  1  0  0  0  0
 38 45  2  0  0  0  0
 38 39  1  0  0  0  0
 39 40  2  0  0  0  0
 40 42  1  0  0  0  0
 40 41  1  0  0  0  0
 42 43  1  0  0  0  0
 44 42  2  0  0  0  0
 45 44  1  0  0  0  0
 46 47  3  0  0  0  0
 47 38  1  0  0  0  0
M  END
>  <minimizedAffinity>
-5.91862059

>  <minimizedRMSD>
1.50727117

$$$$
