
 OpenBabel03242512263D

 21 22  0  0  0  0  0  0  0  0999 V2000
   37.2980   32.3910   39.6370 C   0  0  0  0  0  0  0  0  0  0  0  0
   37.7540   32.0150   38.3640 C   0  0  0  0  0  0  0  0  0  0  0  0
   38.1100   30.6520   38.1600 C   0  0  0  0  0  0  0  0  0  0  0  0
   37.9840   29.8090   39.2140 N   0  0  0  0  0  0  0  0  0  0  0  0
   37.5460   30.2060   40.4180 C   0  0  0  0  0  0  0  0  0  0  0  0
   37.2050   31.5000   40.6170 N   0  0  0  0  0  0  0  0  0  0  0  0
   36.9420   33.7420   39.8520 N   0  0  0  0  0  0  0  0  0  0  0  0
   37.8480   32.7000   37.5310 H   0  0  0  0  0  0  0  0  0  0  0  0
   38.4590   30.3280   37.2100 H   0  0  0  0  0  0  0  0  0  0  0  0
   37.1090   34.4760   39.1150 H   0  0  0  0  0  0  0  0  0  0  0  0
   36.5020   34.0300   40.7540 H   0  0  0  0  0  0  0  0  0  0  0  0
   38.3440   29.3720   42.5640 C   0  0  0  0  0  0  0  0  0  0  0  0
   37.4170   29.2820   41.5440 C   0  0  0  0  0  0  0  0  0  0  0  0
   36.4010   28.3420   41.5970 C   0  0  0  0  0  0  0  0  0  0  0  0
   35.7030   28.3240   40.7610 H   0  0  0  0  0  0  0  0  0  0  0  0
   36.2970   27.4740   42.6750 C   0  0  0  0  0  0  0  0  0  0  0  0
   35.4700   26.7740   42.6280 H   0  0  0  0  0  0  0  0  0  0  0  0
   37.2390   27.5900   43.6780 C   0  0  0  0  0  3  0  0  0  0  0  0
   38.2420   28.5110   43.6330 C   0  0  0  0  0  3  0  0  0  0  0  0
   40.2540   31.1360   42.4710 N   0  0  0  0  0  0  0  0  0  0  0  0
   39.4040   30.3520   42.5100 C   0  0  0  0  0  0  0  0  0  0  0  0
  1  7  1  0  0  0  0
  1  6  1  0  0  0  0
  2  1  2  0  0  0  0
  3  2  1  0  0  0  0
  3  4  2  0  0  0  0
  4  5  1  0  0  0  0
  5  6  2  0  0  0  0
  5 13  1  0  0  0  0
  7 11  1  0  0  0  0
  8  2  1  0  0  0  0
  9  3  1  0  0  0  0
 10  7  1  0  0  0  0
 12 19  1  0  0  0  0
 13 14  1  0  0  0  0
 13 12  2  0  0  0  0
 14 16  2  0  0  0  0
 15 14  1  0  0  0  0
 16 18  1  0  0  0  0
 17 16  1  0  0  0  0
 19 18  2  0  0  0  0
 20 21  3  0  0  0  0
 21 12  1  0  0  0  0
M  END
>  <minimizedAffinity>
-4.99798965

$$$$

 OpenBabel03242512263D

 21 22  0  0  0  0  0  0  0  0999 V2000
   37.4940   32.4180   39.6060 C   0  0  0  0  0  0  0  0  0  0  0  0
   38.0090   32.0990   38.3410 C   0  0  0  0  0  0  0  0  0  0  0  0
   38.4740   30.7710   38.1260 C   0  0  0  0  0  0  0  0  0  0  0  0
   38.3860   29.9040   39.1640 N   0  0  0  0  0  0  0  0  0  0  0  0
   37.8870   30.2460   40.3620 C   0  0  0  0  0  0  0  0  0  0  0  0
   37.4430   31.5060   40.5710 N   0  0  0  0  0  0  0  0  0  0  0  0
   37.0290   33.7340   39.8310 N   0  0  0  0  0  0  0  0  0  0  0  0
   38.0730   32.8040   37.5210 H   0  0  0  0  0  0  0  0  0  0  0  0
   38.8710   30.4900   37.1820 H   0  0  0  0  0  0  0  0  0  0  0  0
   37.1590   34.4910   39.1090 H   0  0  0  0  0  0  0  0  0  0  0  0
   36.5460   33.9730   40.7250 H   0  0  0  0  0  0  0  0  0  0  0  0
   36.6100   28.6200   41.6510 C   0  0  0  0  0  0  0  0  0  0  0  0
   37.8000   29.2960   41.4700 C   0  0  0  0  0  0  0  0  0  0  0  0
   38.8730   29.0730   42.3180 C   0  0  0  0  0  0  0  0  0  0  0  0
   39.7830   29.6380   42.1200 H   0  0  0  0  0  0  0  0  0  0  0  0
   38.7690   28.1670   43.3650 C   0  0  0  0  0  0  0  0  0  0  0  0
   39.6600   28.0600   43.9740 H   0  0  0  0  0  0  0  0  0  0  0  0
   37.5660   27.5080   43.5180 C   0  0  0  0  0  3  0  0  0  0  0  0
   36.5060   27.7220   42.6890 C   0  0  0  0  0  3  0  0  0  0  0  0
   34.5960   29.0430   40.0600 N   0  0  0  0  0  0  0  0  0  0  0  0
   35.4910   28.8520   40.7680 C   0  0  0  0  0  0  0  0  0  0  0  0
  1  7  1  0  0  0  0
  1  6  1  0  0  0  0
  2  1  2  0  0  0  0
  3  2  1  0  0  0  0
  3  4  2  0  0  0  0
  4  5  1  0  0  0  0
  5  6  2  0  0  0  0
  5 13  1  0  0  0  0
  7 11  1  0  0  0  0
  8  2  1  0  0  0  0
  9  3  1  0  0  0  0
 10  7  1  0  0  0  0
 12 19  1  0  0  0  0
 13 12  2  0  0  0  0
 13 14  1  0  0  0  0
 14 16  2  0  0  0  0
 15 14  1  0  0  0  0
 16 18  1  0  0  0  0
 16 17  1  0  0  0  0
 19 18  2  0  0  0  0
 20 21  3  0  0  0  0
 21 12  1  0  0  0  0
M  END
>  <minimizedAffinity>
-4.89311314

$$$$

 OpenBabel03242512263D

 21 22  0  0  0  0  0  0  0  0999 V2000
   36.7090   30.2370   40.8200 C   0  0  0  0  0  0  0  0  0  0  0  0
   37.8250   30.7210   40.1220 C   0  0  0  0  0  0  0  0  0  0  0  0
   38.7080   29.7700   39.5340 C   0  0  0  0  0  0  0  0  0  0  0  0
   38.4060   28.4590   39.6920 N   0  0  0  0  0  0  0  0  0  0  0  0
   37.3280   28.0330   40.3680 C   0  0  0  0  0  0  0  0  0  0  0  0
   36.4870   28.9320   40.9280 N   0  0  0  0  0  0  0  0  0  0  0  0
   35.8260   31.1720   41.4080 N   0  0  0  0  0  0  0  0  0  0  0  0
   38.0530   31.7730   40.0040 H   0  0  0  0  0  0  0  0  0  0  0  0
   39.5640   30.0970   38.9970 H   0  0  0  0  0  0  0  0  0  0  0  0
   36.0470   32.2020   41.4180 H   0  0  0  0  0  0  0  0  0  0  0  0
   34.9340   30.8470   41.8430 H   0  0  0  0  0  0  0  0  0  0  0  0
   37.2970   26.0240   41.7470 C   0  0  0  0  0  0  0  0  0  0  0  0
   37.0190   26.6130   40.5290 C   0  0  0  0  0  0  0  0  0  0  0  0
   36.4650   25.8720   39.4980 C   0  0  0  0  0  0  0  0  0  0  0  0
   36.2700   26.3960   38.5640 H   0  0  0  0  0  0  0  0  0  0  0  0
   36.1790   24.5240   39.6710 C   0  0  0  0  0  0  0  0  0  0  0  0
   35.7470   24.0280   38.8090 H   0  0  0  0  0  0  0  0  0  0  0  0
   36.4690   23.9660   40.9000 C   0  0  0  0  0  3  0  0  0  0  0  0
   37.0150   24.6880   41.9180 C   0  0  0  0  0  3  0  0  0  0  0  0
   38.3400   27.4170   43.6800 N   0  0  0  0  0  0  0  0  0  0  0  0
   37.8750   26.7950   42.8220 C   0  0  0  0  0  0  0  0  0  0  0  0
  1  6  1  0  0  0  0
  1  7  1  0  0  0  0
  2  1  2  0  0  0  0
  3  4  2  0  0  0  0
  3  2  1  0  0  0  0
  4  5  1  0  0  0  0
  5 13  1  0  0  0  0
  5  6  2  0  0  0  0
  7 10  1  0  0  0  0
  7 11  1  0  0  0  0
  8  2  1  0  0  0  0
  9  3  1  0  0  0  0
 12 19  1  0  0  0  0
 12 21  1  0  0  0  0
 13 12  2  0  0  0  0
 14 16  2  0  0  0  0
 14 13  1  0  0  0  0
 15 14  1  0  0  0  0
 16 18  1  0  0  0  0
 17 16  1  0  0  0  0
 18 19  2  0  0  0  0
 21 20  3  0  0  0  0
M  END
>  <minimizedAffinity>
-4.73351097

$$$$

 OpenBabel03242512263D

 21 22  0  0  0  0  0  0  0  0999 V2000
   36.6980   30.1760   41.1770 C   0  0  0  0  0  0  0  0  0  0  0  0
   38.0030   30.6720   41.0310 C   0  0  0  0  0  0  0  0  0  0  0  0
   39.0580   29.7310   40.8550 C   0  0  0  0  0  0  0  0  0  0  0  0
   38.7260   28.4170   40.8430 N   0  0  0  0  0  0  0  0  0  0  0  0
   37.4650   27.9800   40.9870 C   0  0  0  0  0  0  0  0  0  0  0  0
   36.4600   28.8700   41.1530 N   0  0  0  0  0  0  0  0  0  0  0  0
   35.6440   31.1000   41.3510 N   0  0  0  0  0  0  0  0  0  0  0  0
   38.2520   31.7250   41.0420 H   0  0  0  0  0  0  0  0  0  0  0  0
   40.0590   30.0670   40.7410 H   0  0  0  0  0  0  0  0  0  0  0  0
   35.8320   32.1300   41.4760 H   0  0  0  0  0  0  0  0  0  0  0  0
   34.6530   30.7690   41.3580 H   0  0  0  0  0  0  0  0  0  0  0  0
   36.6930   26.0090   39.7800 C   0  0  0  0  0  0  0  0  0  0  0  0
   37.1260   26.5580   40.9710 C   0  0  0  0  0  0  0  0  0  0  0  0
   37.2340   25.7760   42.1090 C   0  0  0  0  0  0  0  0  0  0  0  0
   37.5810   26.2700   43.0160 H   0  0  0  0  0  0  0  0  0  0  0  0
   36.9070   24.4270   42.0730 C   0  0  0  0  0  0  0  0  0  0  0  0
   37.0220   23.8970   43.0120 H   0  0  0  0  0  0  0  0  0  0  0  0
   36.4770   23.9090   40.8670 C   0  0  0  0  0  3  0  0  0  0  0  0
   36.3690   24.6720   39.7440 C   0  0  0  0  0  3  0  0  0  0  0  0
   36.4880   27.4800   37.6440 N   0  0  0  0  0  0  0  0  0  0  0  0
   36.5810   26.8240   38.5930 C   0  0  0  0  0  0  0  0  0  0  0  0
  1  7  1  0  0  0  0
  2  8  1  0  0  0  0
  2  1  2  0  0  0  0
  3  2  1  0  0  0  0
  4  3  2  0  0  0  0
  4  5  1  0  0  0  0
  5  6  2  0  0  0  0
  6  1  1  0  0  0  0
  7 11  1  0  0  0  0
  7 10  1  0  0  0  0
  9  3  1  0  0  0  0
 12 13  1  0  0  0  0
 13  5  1  0  0  0  0
 13 14  2  0  0  0  0
 14 15  1  0  0  0  0
 16 14  1  0  0  0  0
 16 17  1  0  0  0  0
 18 16  2  0  0  0  0
 19 12  2  0  0  0  0
 19 18  1  0  0  0  0
 20 21  3  0  0  0  0
 21 12  1  0  0  0  0
M  END
>  <minimizedAffinity>
-4.62671232

$$$$

 OpenBabel03242512263D

 21 22  0  0  0  0  0  0  0  0999 V2000
   37.9450   30.6980   38.3120 C   0  0  0  0  0  0  0  0  0  0  0  0
   37.5090   32.0260   38.4380 C   0  0  0  0  0  0  0  0  0  0  0  0
   36.9980   32.4420   39.7010 C   0  0  0  0  0  0  0  0  0  0  0  0
   36.9690   31.5220   40.6960 N   0  0  0  0  0  0  0  0  0  0  0  0
   37.3940   30.2590   40.5370 C   0  0  0  0  0  0  0  0  0  0  0  0
   37.8810   29.8600   39.3400 N   0  0  0  0  0  0  0  0  0  0  0  0
   38.4540   30.2750   37.0630 N   0  0  0  0  0  0  0  0  0  0  0  0
   37.5400   32.7500   37.6340 H   0  0  0  0  0  0  0  0  0  0  0  0
   36.6590   33.4390   39.8370 H   0  0  0  0  0  0  0  0  0  0  0  0
   38.4140   30.8980   36.2150 H   0  0  0  0  0  0  0  0  0  0  0  0
   38.8820   29.3260   36.9670 H   0  0  0  0  0  0  0  0  0  0  0  0
   38.3440   29.3400   42.5830 C   0  0  0  0  0  0  0  0  0  0  0  0
   37.3540   29.2810   41.6220 C   0  0  0  0  0  0  0  0  0  0  0  0
   36.3590   28.3200   41.6940 C   0  0  0  0  0  0  0  0  0  0  0  0
   35.6080   28.3280   40.9040 H   0  0  0  0  0  0  0  0  0  0  0  0
   36.3390   27.4000   42.7330 C   0  0  0  0  0  0  0  0  0  0  0  0
   35.5220   26.6870   42.7040 H   0  0  0  0  0  0  0  0  0  0  0  0
   37.3420   27.4860   43.6770 C   0  0  0  0  0  3  0  0  0  0  0  0
   38.3250   28.4270   43.6130 C   0  0  0  0  0  3  0  0  0  0  0  0
   40.2130   31.1450   42.4530 N   0  0  0  0  0  0  0  0  0  0  0  0
   39.3820   30.3410   42.5090 C   0  0  0  0  0  0  0  0  0  0  0  0
  1  2  2  0  0  0  0
  1  6  1  0  0  0  0
  2  3  1  0  0  0  0
  3  9  1  0  0  0  0
  3  4  2  0  0  0  0
  5  4  1  0  0  0  0
  5 13  1  0  0  0  0
  6  5  2  0  0  0  0
  7  1  1  0  0  0  0
  8  2  1  0  0  0  0
 10  7  1  0  0  0  0
 11  7  1  0  0  0  0
 12 19  1  0  0  0  0
 13 14  1  0  0  0  0
 13 12  2  0  0  0  0
 14 16  2  0  0  0  0
 15 14  1  0  0  0  0
 16 18  1  0  0  0  0
 17 16  1  0  0  0  0
 19 18  2  0  0  0  0
 20 21  3  0  0  0  0
 21 12  1  0  0  0  0
M  END
>  <minimizedAffinity>
-4.61563206

$$$$

 OpenBabel03242512263D

 21 22  0  0  0  0  0  0  0  0999 V2000
   38.2260   31.0920   38.3280 C   0  0  0  0  0  0  0  0  0  0  0  0
   37.8180   32.4160   38.5500 C   0  0  0  0  0  0  0  0  0  0  0  0
   37.3370   32.7560   39.8470 C   0  0  0  0  0  0  0  0  0  0  0  0
   37.3050   31.7720   40.7780 N   0  0  0  0  0  0  0  0  0  0  0  0
   37.7030   30.5150   40.5280 C   0  0  0  0  0  0  0  0  0  0  0  0
   38.1620   30.1880   39.2980 N   0  0  0  0  0  0  0  0  0  0  0  0
   38.7060   30.7440   37.0450 N   0  0  0  0  0  0  0  0  0  0  0  0
   37.8500   33.1920   37.7950 H   0  0  0  0  0  0  0  0  0  0  0  0
   37.0190   33.7480   40.0550 H   0  0  0  0  0  0  0  0  0  0  0  0
   38.6640   31.4240   36.2410 H   0  0  0  0  0  0  0  0  0  0  0  0
   39.1130   29.7960   36.8780 H   0  0  0  0  0  0  0  0  0  0  0  0
   36.5270   28.6820   41.6200 C   0  0  0  0  0  0  0  0  0  0  0  0
   37.6620   29.4670   41.5450 C   0  0  0  0  0  0  0  0  0  0  0  0
   38.7210   29.2570   42.4120 C   0  0  0  0  0  0  0  0  0  0  0  0
   39.5860   29.9100   42.3010 H   0  0  0  0  0  0  0  0  0  0  0  0
   38.6610   28.2560   43.3730 C   0  0  0  0  0  0  0  0  0  0  0  0
   39.5380   28.1680   44.0050 H   0  0  0  0  0  0  0  0  0  0  0  0
   37.5140   27.4900   43.4210 C   0  0  0  0  0  3  0  0  0  0  0  0
   36.4670   27.6900   42.5720 C   0  0  0  0  0  3  0  0  0  0  0  0
   34.5380   29.0790   39.9920 N   0  0  0  0  0  0  0  0  0  0  0  0
   35.4220   28.9000   40.7160 C   0  0  0  0  0  0  0  0  0  0  0  0
  1  2  2  0  0  0  0
  1  6  1  0  0  0  0
  2  3  1  0  0  0  0
  3  9  1  0  0  0  0
  3  4  2  0  0  0  0
  5  4  1  0  0  0  0
  5 13  1  0  0  0  0
  6  5  2  0  0  0  0
  7  1  1  0  0  0  0
  8  2  1  0  0  0  0
 10  7  1  0  0  0  0
 11  7  1  0  0  0  0
 12 19  1  0  0  0  0
 13 12  2  0  0  0  0
 13 14  1  0  0  0  0
 14 16  2  0  0  0  0
 15 14  1  0  0  0  0
 16 18  1  0  0  0  0
 16 17  1  0  0  0  0
 19 18  2  0  0  0  0
 20 21  3  0  0  0  0
 21 12  1  0  0  0  0
M  END
>  <minimizedAffinity>
-4.60248804

$$$$

 OpenBabel03242512263D

 21 22  0  0  0  0  0  0  0  0999 V2000
   37.2580   28.4430   42.4970 C   0  0  0  0  0  0  0  0  0  0  0  0
   37.8470   27.4170   41.7440 C   0  0  0  0  0  0  0  0  0  0  0  0
   38.5430   27.7780   40.5550 C   0  0  0  0  0  0  0  0  0  0  0  0
   38.5880   29.0930   40.2340 N   0  0  0  0  0  0  0  0  0  0  0  0
   38.0110   30.0480   40.9800 C   0  0  0  0  0  0  0  0  0  0  0  0
   37.3490   29.7110   42.1100 N   0  0  0  0  0  0  0  0  0  0  0  0
   36.5640   28.0970   43.6790 N   0  0  0  0  0  0  0  0  0  0  0  0
   37.8030   26.3690   42.0140 H   0  0  0  0  0  0  0  0  0  0  0  0
   39.0030   27.0290   39.9580 H   0  0  0  0  0  0  0  0  0  0  0  0
   36.3960   27.0900   43.9400 H   0  0  0  0  0  0  0  0  0  0  0  0
   36.2050   28.8440   44.3140 H   0  0  0  0  0  0  0  0  0  0  0  0
   39.1480   32.2020   41.0630 C   0  0  0  0  0  0  0  0  0  0  0  0
   38.0700   31.4630   40.6160 C   0  0  0  0  0  0  0  0  0  0  0  0
   37.0810   32.0540   39.8480 C   0  0  0  0  0  0  0  0  0  0  0  0
   36.2580   31.4160   39.5270 H   0  0  0  0  0  0  0  0  0  0  0  0
   37.1560   33.4000   39.5130 C   0  0  0  0  0  0  0  0  0  0  0  0
   36.3360   33.7730   38.9090 H   0  0  0  0  0  0  0  0  0  0  0  0
   38.2450   34.1100   39.9760 C   0  0  0  0  0  3  0  0  0  0  0  0
   39.2220   33.5360   40.7330 C   0  0  0  0  0  3  0  0  0  0  0  0
   41.0060   31.0970   42.5100 N   0  0  0  0  0  0  0  0  0  0  0  0
   40.1790   31.5860   41.8650 C   0  0  0  0  0  0  0  0  0  0  0  0
  1  7  1  0  0  0  0
  2  8  1  0  0  0  0
  2  1  2  0  0  0  0
  3  2  1  0  0  0  0
  4  3  2  0  0  0  0
  4  5  1  0  0  0  0
  5  6  2  0  0  0  0
  6  1  1  0  0  0  0
  7 10  1  0  0  0  0
  7 11  1  0  0  0  0
  9  3  1  0  0  0  0
 12 21  1  0  0  0  0
 13  5  1  0  0  0  0
 13 12  2  0  0  0  0
 14 13  1  0  0  0  0
 15 14  1  0  0  0  0
 16 14  2  0  0  0  0
 16 18  1  0  0  0  0
 17 16  1  0  0  0  0
 18 19  2  0  0  0  0
 19 12  1  0  0  0  0
 21 20  3  0  0  0  0
M  END
>  <minimizedAffinity>
-4.42554855

$$$$

 OpenBabel03242512263D

 21 22  0  0  0  0  0  0  0  0999 V2000
   36.9600   30.4330   40.9610 C   0  0  0  0  0  0  0  0  0  0  0  0
   37.5840   30.8760   39.7850 C   0  0  0  0  0  0  0  0  0  0  0  0
   38.7260   30.1600   39.3260 C   0  0  0  0  0  0  0  0  0  0  0  0
   39.1320   29.0960   40.0620 N   0  0  0  0  0  0  0  0  0  0  0  0
   38.5100   28.7020   41.1830 C   0  0  0  0  0  0  0  0  0  0  0  0
   37.4240   29.3790   41.6230 N   0  0  0  0  0  0  0  0  0  0  0  0
   35.8250   31.1360   41.4250 N   0  0  0  0  0  0  0  0  0  0  0  0
   37.2470   31.7280   39.2080 H   0  0  0  0  0  0  0  0  0  0  0  0
   39.2260   30.4640   38.4400 H   0  0  0  0  0  0  0  0  0  0  0  0
   35.5110   32.0320   40.9690 H   0  0  0  0  0  0  0  0  0  0  0  0
   35.2780   30.7700   42.2370 H   0  0  0  0  0  0  0  0  0  0  0  0
   38.3970   26.3220   41.6920 C   0  0  0  0  0  0  0  0  0  0  0  0
   38.9630   27.5520   41.9640 C   0  0  0  0  0  0  0  0  0  0  0  0
   39.9300   27.6810   42.9470 C   0  0  0  0  0  0  0  0  0  0  0  0
   40.3360   28.6780   43.1110 H   0  0  0  0  0  0  0  0  0  0  0  0
   40.3470   26.5750   43.6770 C   0  0  0  0  0  0  0  0  0  0  0  0
   41.1070   26.7740   44.4240 H   0  0  0  0  0  0  0  0  0  0  0  0
   39.7610   25.3610   43.3810 C   0  0  0  0  0  3  0  0  0  0  0  0
   38.8090   25.2270   42.4160 C   0  0  0  0  0  3  0  0  0  0  0  0
   36.5810   26.0750   39.8460 N   0  0  0  0  0  0  0  0  0  0  0  0
   37.3880   26.1880   40.6670 C   0  0  0  0  0  0  0  0  0  0  0  0
  1  7  1  0  0  0  0
  1  6  1  0  0  0  0
  2  1  2  0  0  0  0
  3  2  1  0  0  0  0
  3  4  2  0  0  0  0
  4  5  1  0  0  0  0
  5  6  2  0  0  0  0
  5 13  1  0  0  0  0
  7 11  1  0  0  0  0
  8  2  1  0  0  0  0
  9  3  1  0  0  0  0
 10  7  1  0  0  0  0
 12 13  2  0  0  0  0
 12 19  1  0  0  0  0
 13 14  1  0  0  0  0
 14 15  1  0  0  0  0
 14 16  2  0  0  0  0
 16 17  1  0  0  0  0
 18 16  1  0  0  0  0
 19 18  2  0  0  0  0
 20 21  3  0  0  0  0
 21 12  1  0  0  0  0
M  END
>  <minimizedAffinity>
-4.40917683

$$$$

 OpenBabel03242512263D

 21 22  0  0  0  0  0  0  0  0999 V2000
   34.3880   28.8090   38.2170 C   0  0  0  0  0  0  0  0  0  0  0  0
   35.2090   28.9070   37.0840 C   0  0  0  0  0  0  0  0  0  0  0  0
   36.6170   28.7920   37.2680 C   0  0  0  0  0  0  0  0  0  0  0  0
   37.0660   28.5950   38.5320 N   0  0  0  0  0  0  0  0  0  0  0  0
   36.2490   28.5070   39.5930 C   0  0  0  0  0  0  0  0  0  0  0  0
   34.9120   28.6150   39.4220 N   0  0  0  0  0  0  0  0  0  0  0  0
   32.9900   28.9210   38.0460 N   0  0  0  0  0  0  0  0  0  0  0  0
   34.8350   29.0640   36.0800 H   0  0  0  0  0  0  0  0  0  0  0  0
   37.2720   28.8610   36.4350 H   0  0  0  0  0  0  0  0  0  0  0  0
   32.5710   29.1780   37.1130 H   0  0  0  0  0  0  0  0  0  0  0  0
   32.3480   28.7490   38.8510 H   0  0  0  0  0  0  0  0  0  0  0  0
   37.1500   29.4020   41.6720 C   0  0  0  0  0  0  0  0  0  0  0  0
   36.7520   28.2940   40.9490 C   0  0  0  0  0  0  0  0  0  0  0  0
   36.8320   27.0270   41.5010 C   0  0  0  0  0  0  0  0  0  0  0  0
   36.5030   26.1960   40.8780 H   0  0  0  0  0  0  0  0  0  0  0  0
   37.3140   26.8470   42.7910 C   0  0  0  0  0  0  0  0  0  0  0  0
   37.3390   25.8190   43.1360 H   0  0  0  0  0  0  0  0  0  0  0  0
   37.7030   27.9740   43.4870 C   0  0  0  0  0  3  0  0  0  0  0  0
   37.6270   29.2240   42.9500 C   0  0  0  0  0  3  0  0  0  0  0  0
   36.9960   31.7820   40.6350 N   0  0  0  0  0  0  0  0  0  0  0  0
   37.0670   30.7240   41.0970 C   0  0  0  0  0  0  0  0  0  0  0  0
  1  6  1  0  0  0  0
  2  3  1  0  0  0  0
  2  1  2  0  0  0  0
  3  4  2  0  0  0  0
  4  5  1  0  0  0  0
  5 13  1  0  0  0  0
  6  5  2  0  0  0  0
  7  1  1  0  0  0  0
  7 11  1  0  0  0  0
  8  2  1  0  0  0  0
  9  3  1  0  0  0  0
 10  7  1  0  0  0  0
 12 19  1  0  0  0  0
 13 14  1  0  0  0  0
 13 12  2  0  0  0  0
 14 16  2  0  0  0  0
 15 14  1  0  0  0  0
 16 17  1  0  0  0  0
 16 18  1  0  0  0  0
 19 18  2  0  0  0  0
 20 21  3  0  0  0  0
 21 12  1  0  0  0  0
M  END
>  <minimizedAffinity>
-4.35150433

$$$$
