
 OpenBabel03252507193D

 45 48  0  0  1  0  0  0  0  0999 V2000
   46.9800   32.8900   43.4570 C   0  0  0  0  0  0  0  0  0  0  0  0
   48.1520   32.7920   43.9060 O   0  0  0  0  0  0  0  0  0  0  0  0
   46.4500   32.0570   42.4250 N   0  0  0  0  0  0  0  0  0  0  0  0
   45.1650   31.3740   42.3140 C   0  0  0  0  0  0  0  0  0  0  0  0
   44.5170   31.7350   40.9600 C   0  0  0  0  0  0  0  0  0  0  0  0
   45.3750   31.1820   39.8450 C   0  0  0  0  0  0  0  0  0  0  0  0
   46.7180   30.7780   40.3860 C   0  0  0  0  0  0  0  0  0  0  0  0
   47.2970   31.8360   41.2840 C   0  0  2  0  0  0  0  0  0  0  0  0
   44.4550   31.8410   43.0560 H   0  0  0  0  0  0  0  0  0  0  0  0
   45.2290   30.2930   42.4030 H   0  0  0  0  0  0  0  0  0  0  0  0
   43.4820   31.4030   40.9440 H   0  0  0  0  0  0  0  0  0  0  0  0
   44.6390   32.8470   40.9080 H   0  0  0  0  0  0  0  0  0  0  0  0
   45.4580   31.8630   38.9760 H   0  0  0  0  0  0  0  0  0  0  0  0
   44.8840   30.2510   39.4730 H   0  0  0  0  0  0  0  0  0  0  0  0
   47.4220   30.5730   39.5580 H   0  0  0  0  0  0  0  0  0  0  0  0
   46.6230   29.8080   40.9350 H   0  0  0  0  0  0  0  0  0  0  0  0
   47.2030   32.7920   40.6840 H   0  0  0  0  0  0  0  0  0  0  0  0
   45.7410   34.9820   43.1890 C   0  0  0  0  0  0  0  0  0  0  0  0
   46.1250   33.9070   44.0230 C   0  0  0  0  0  0  0  0  0  0  0  0
   45.6790   33.8610   45.3260 C   0  0  0  0  0  0  0  0  0  0  0  0
   44.8790   34.8580   45.7660 N   0  0  0  0  0  0  0  0  0  0  0  0
   44.5020   35.8950   44.9770 C   0  0  0  0  0  0  0  0  0  0  0  0
   44.9410   35.9360   43.7040 N   0  0  0  0  0  0  0  0  0  0  0  0
   46.0860   35.0260   42.1640 H   0  0  0  0  0  0  0  0  0  0  0  0
   43.8630   36.6320   45.4360 H   0  0  0  0  0  0  0  0  0  0  0  0
   46.0910   32.7540   46.1640 C   0  0  0  0  0  0  0  0  0  0  0  0
   45.5270   31.5250   45.9990 C   0  0  0  0  0  0  0  0  0  0  0  0
   45.9270   30.4820   46.8020 C   0  0  0  0  0  0  0  0  0  0  0  0
   46.8960   30.6220   47.7920 C   0  0  0  0  0  0  0  0  0  0  0  0
   47.4290   31.8900   47.9110 C   0  0  0  0  0  0  0  0  0  0  0  0
   47.0150   32.8840   47.1090 N   0  0  0  0  0  0  0  0  0  0  0  0
   44.7660   31.2540   45.2850 H   0  0  0  0  0  0  0  0  0  0  0  0
   45.5090   29.4750   46.7150 H   0  0  0  0  0  0  0  0  0  0  0  0
   47.2320   29.8240   48.4390 H   0  0  0  0  0  0  0  0  0  0  0  0
   48.1910   32.1470   48.6370 H   0  0  0  0  0  0  0  0  0  0  0  0
   49.2140   30.5030   42.1730 C   0  0  0  0  0  0  0  0  0  0  0  0
   48.7170   31.6520   41.5450 C   0  0  0  0  0  0  0  0  0  0  0  0
   49.7400   32.5560   41.2400 C   0  0  0  0  0  0  0  0  0  0  0  0
   49.4410   33.4760   40.7520 H   0  0  0  0  0  0  0  0  0  0  0  0
   51.0750   32.3570   41.5170 C   0  0  0  0  0  0  0  0  0  0  0  0
   51.8090   33.1060   41.2500 H   0  0  0  0  0  0  0  0  0  0  0  0
   51.4530   31.1840   42.1410 C   0  0  0  0  0  3  0  0  0  0  0  0
   50.5280   30.2230   42.4860 C   0  0  0  0  0  3  0  0  0  0  0  0
   47.4150   28.7130   42.8080 N   0  0  0  0  0  0  0  0  0  0  0  0
   48.2090   29.5140   42.5210 C   0  0  0  0  0  0  0  0  0  0  0  0
  1  2  2  0  0  0  0
  1 19  1  0  0  0  0
  3  1  1  0  0  0  0
  4 10  1  0  0  0  0
  4  3  1  0  0  0  0
  4  9  1  0  0  0  0
  5  4  1  0  0  0  0
  6  7  1  0  0  0  0
  6  5  1  0  0  0  0
  7 16  1  0  0  0  0
  7  8  1  0  0  0  0
  8 17  1  6  0  0  0
  8 37  1  0  0  0  0
  8  3  1  0  0  0  0
 11  5  1  0  0  0  0
 12  5  1  0  0  0  0
 13  6  1  0  0  0  0
 14  6  1  0  0  0  0
 15  7  1  0  0  0  0
 18 23  2  0  0  0  0
 18 19  1  0  0  0  0
 19 20  2  0  0  0  0
 20 21  1  0  0  0  0
 20 26  1  0  0  0  0
 22 25  1  0  0  0  0
 22 21  2  0  0  0  0
 23 22  1  0  0  0  0
 24 18  1  0  0  0  0
 26 31  1  0  0  0  0
 27 26  2  0  0  0  0
 27 28  1  0  0  0  0
 28 29  2  0  0  0  0
 29 30  1  0  0  0  0
 29 34  1  0  0  0  0
 30 35  1  0  0  0  0
 31 30  2  0  0  0  0
 32 27  1  0  0  0  0
 33 28  1  0  0  0  0
 36 43  1  0  0  0  0
 36 45  1  0  0  0  0
 37 36  2  0  0  0  0
 38 40  2  0  0  0  0
 38 37  1  0  0  0  0
 39 38  1  0  0  0  0
 40 42  1  0  0  0  0
 41 40  1  0  0  0  0
 42 43  2  0  0  0  0
 45 44  3  0  0  0  0
M  END
>  <minimizedAffinity>
-4.92529202

>  <minimizedRMSD>
2.05881739

$$$$
