
 OpenBabel03252502043D

 47 51  0  0  0  0  0  0  0  0999 V2000
   45.4770   33.5540   45.1340 C   0  0  0  0  0  0  0  0  0  0  0  0
   44.9310   34.5660   45.8650 N   0  0  0  0  0  0  0  0  0  0  0  0
   44.4670   35.7070   45.3630 C   0  0  0  0  0  0  0  0  0  0  0  0
   44.5240   35.9160   44.0270 N   0  0  0  0  0  0  0  0  0  0  0  0
   45.0450   34.9810   43.2010 C   0  0  0  0  0  0  0  0  0  0  0  0
   45.0860   35.2190   41.8580 C   0  0  0  0  0  0  0  0  0  0  0  0
   45.6120   34.2700   41.0090 C   0  0  0  0  0  0  0  0  0  0  0  0
   46.0850   33.0890   41.5650 C   0  0  0  0  0  0  0  0  0  0  0  0
   46.0070   32.9210   42.9390 C   0  0  0  0  0  0  0  0  0  0  0  0
   45.4990   33.8360   43.8000 C   0  0  0  0  0  0  0  0  0  0  0  0
   44.0540   36.4330   46.0650 H   0  0  0  0  0  0  0  0  0  0  0  0
   44.6920   36.1730   41.5100 H   0  0  0  0  0  0  0  0  0  0  0  0
   45.5910   34.5720   39.9630 H   0  0  0  0  0  0  0  0  0  0  0  0
   46.4560   32.4670   40.7640 H   0  0  0  0  0  0  0  0  0  0  0  0
   47.9240   31.4950   46.7960 C   0  0  0  0  0  0  0  0  0  0  0  0
   47.3550   30.2500   46.9540 C   0  0  0  0  0  0  0  0  0  0  0  0
   46.0860   30.0990   46.4930 C   0  0  0  0  0  0  0  0  0  0  0  0
   45.4510   31.1230   45.9160 N   0  0  0  0  0  0  0  0  0  0  0  0
   45.9890   32.3300   45.7500 C   0  0  0  0  0  0  0  0  0  0  0  0
   47.2470   32.4830   46.2130 N   0  0  0  0  0  0  0  0  0  0  0  0
   45.4160   28.8890   46.6210 N   0  0  0  0  0  0  0  0  0  0  0  0
   43.9750   28.6810   46.3620 C   0  0  0  0  0  0  0  0  0  0  0  0
   43.7840   27.1830   46.3570 C   0  0  0  0  0  0  0  0  0  0  0  0
   44.8770   26.7020   47.2700 C   0  0  0  0  0  0  0  0  0  0  0  0
   46.0010   27.6450   47.0250 C   0  0  0  0  0  0  0  0  0  0  0  0
   48.9500   31.6450   47.1650 H   0  0  0  0  0  0  0  0  0  0  0  0
   43.8030   29.0060   45.3080 H   0  0  0  0  0  0  0  0  0  0  0  0
   43.3440   29.1940   47.0850 H   0  0  0  0  0  0  0  0  0  0  0  0
   43.9410   26.7260   45.3680 H   0  0  0  0  0  0  0  0  0  0  0  0
   42.7620   26.9430   46.7170 H   0  0  0  0  0  0  0  0  0  0  0  0
   45.1340   25.6290   47.0450 H   0  0  0  0  0  0  0  0  0  0  0  0
   44.4590   26.7250   48.2920 H   0  0  0  0  0  0  0  0  0  0  0  0
   46.4640   27.6770   48.0600 H   0  0  0  0  0  0  0  0  0  0  0  0
   46.6770   27.2690   46.2550 H   0  0  0  0  0  0  0  0  0  0  0  0
   48.1160   29.2180   47.4930 N   0  0  0  0  0  0  0  0  0  0  0  0
   48.6220   28.4300   47.0480 H   0  0  0  0  0  0  0  0  0  0  0  0
   48.1220   29.3430   48.5460 H   0  0  0  0  0  0  0  0  0  0  0  0
   47.9440   31.6170   43.1950 C   0  0  0  0  0  0  0  0  0  0  0  0
   46.5300   31.5770   43.1360 C   0  0  0  0  0  0  0  0  0  0  0  0
   45.9760   30.3240   43.3280 C   0  0  0  0  0  0  0  0  0  0  0  0
   44.8820   30.4370   43.2580 H   0  0  0  0  0  0  0  0  0  0  0  0
   46.7140   29.1890   43.5590 C   0  0  0  0  0  0  0  0  0  0  0  0
   46.0670   28.3190   43.6810 H   0  0  0  0  0  0  0  0  0  0  0  0
   48.0890   29.2360   43.6160 C   0  0  0  0  0  3  0  0  0  0  0  0
   48.6950   30.4590   43.4310 C   0  0  0  0  0  3  0  0  0  0  0  0
   49.3570   33.7720   42.8850 N   0  0  0  0  0  0  0  0  0  0  0  0
   48.7400   32.8100   43.0240 C   0  0  0  0  0  0  0  0  0  0  0  0
  1 19  1  0  0  0  0
  1  2  1  0  0  0  0
  3  2  2  0  0  0  0
  3 11  1  0  0  0  0
  4  3  1  0  0  0  0
  5 10  1  0  0  0  0
  5  4  2  0  0  0  0
  6  5  1  0  0  0  0
  7  8  1  0  0  0  0
  7  6  2  0  0  0  0
  8  9  2  0  0  0  0
  9 39  1  0  0  0  0
  9 10  1  0  0  0  0
 10  1  2  0  0  0  0
 12  6  1  0  0  0  0
 13  7  1  0  0  0  0
 14  8  1  0  0  0  0
 15 16  1  0  0  0  0
 15 26  1  0  0  0  0
 16 35  1  0  0  0  0
 17 21  1  0  0  0  0
 17 16  2  0  0  0  0
 18 17  1  0  0  0  0
 19 18  2  0  0  0  0
 19 20  1  0  0  0  0
 20 15  2  0  0  0  0
 21 25  1  0  0  0  0
 22 21  1  0  0  0  0
 22 28  1  0  0  0  0
 23 22  1  0  0  0  0
 23 30  1  0  0  0  0
 23 24  1  0  0  0  0
 24 32  1  0  0  0  0
 25 24  1  0  0  0  0
 25 33  1  0  0  0  0
 27 22  1  0  0  0  0
 29 23  1  0  0  0  0
 31 24  1  0  0  0  0
 34 25  1  0  0  0  0
 35 37  1  0  0  0  0
 36 35  1  0  0  0  0
 38 45  1  0  0  0  0
 39 38  2  0  0  0  0
 39 40  1  0  0  0  0
 40 42  2  0  0  0  0
 41 40  1  0  0  0  0
 42 44  1  0  0  0  0
 42 43  1  0  0  0  0
 45 44  2  0  0  0  0
 46 47  3  0  0  0  0
 47 38  1  0  0  0  0
M  END
>  <minimizedAffinity>
-5.14186954

>  <minimizedRMSD>
1.50465429

$$$$
