
 OpenBabel03252501503D

 46 49  0  0  1  0  0  0  0  0999 V2000
   47.5000   34.0730   43.3430 C   0  0  0  0  0  0  0  0  0  0  0  0
   47.6230   33.2390   44.0890 H   0  0  0  0  0  0  0  0  0  0  0  0
   47.4860   35.0090   43.9520 H   0  0  0  0  0  0  0  0  0  0  0  0
   48.5820   33.9950   42.4300 N   0  0  0  0  0  0  0  0  0  0  0  0
   49.8370   34.3370   43.0120 C   0  0  0  0  0  0  0  0  0  0  0  0
   50.8980   33.5430   42.2980 C   0  0  0  0  0  0  0  0  0  0  0  0
   50.1510   32.3420   41.8200 C   0  0  0  0  0  0  0  0  0  0  0  0
   48.6910   32.7070   41.8020 C   0  0  2  0  0  0  0  0  0  0  0  0
   49.8770   33.9970   44.0810 H   0  0  0  0  0  0  0  0  0  0  0  0
   50.1010   35.4100   42.9450 H   0  0  0  0  0  0  0  0  0  0  0  0
   51.7250   33.2140   42.9480 H   0  0  0  0  0  0  0  0  0  0  0  0
   51.2680   34.1210   41.4400 H   0  0  0  0  0  0  0  0  0  0  0  0
   50.4630   32.0980   40.7730 H   0  0  0  0  0  0  0  0  0  0  0  0
   50.2960   31.4410   42.4490 H   0  0  0  0  0  0  0  0  0  0  0  0
   48.0950   31.9670   42.4000 H   0  0  0  0  0  0  0  0  0  0  0  0
   48.1040   33.9220   39.6230 C   0  0  0  0  0  0  0  0  0  0  0  0
   48.1520   32.8070   40.4330 C   0  0  0  0  0  0  0  0  0  0  0  0
   47.6140   31.6560   39.8500 C   0  0  0  0  0  0  0  0  0  0  0  0
   47.6190   30.7370   40.4330 H   0  0  0  0  0  0  0  0  0  0  0  0
   47.0710   31.5750   38.5810 C   0  0  0  0  0  0  0  0  0  0  0  0
   46.6820   30.6360   38.2240 H   0  0  0  0  0  0  0  0  0  0  0  0
   47.0480   32.7150   37.8170 C   0  0  0  0  0  0  0  0  0  0  0  0
   47.5680   33.8730   38.3540 C   0  0  0  0  0  0  0  0  0  0  0  0
   49.0950   36.1000   40.6580 N   0  0  0  0  0  0  0  0  0  0  0  0
   48.6550   35.1270   40.2080 C   0  0  0  0  0  0  0  0  0  0  0  0
   45.5850   34.7990   41.9790 C   0  0  0  0  0  0  0  0  0  0  0  0
   46.1590   33.8330   42.7080 C   0  0  0  0  0  0  0  0  0  0  0  0
   43.9820   33.5050   40.4870 C   0  0  0  0  0  0  0  0  0  0  0  0
   44.2710   34.6200   41.3320 C   0  0  0  0  0  0  0  0  0  0  0  0
   43.2770   35.5740   41.5560 C   0  0  0  0  0  0  0  0  0  0  0  0
   42.0690   35.3970   40.9540 N   0  0  0  0  0  0  0  0  0  0  0  0
   41.8280   34.3490   40.1720 C   0  0  0  0  0  0  0  0  0  0  0  0
   42.7830   33.4250   39.9520 N   0  0  0  0  0  0  0  0  0  0  0  0
   44.7940   32.8150   40.3630 H   0  0  0  0  0  0  0  0  0  0  0  0
   43.4470   36.4340   42.1870 H   0  0  0  0  0  0  0  0  0  0  0  0
   39.6160   33.5480   41.6420 F   0  0  0  0  0  0  0  0  0  0  0  0
   39.4220   33.7910   40.3100 C   0  0  0  0  0  0  0  0  0  0  0  0
   40.5160   34.1950   39.5440 C   0  0  0  0  0  0  0  0  0  0  0  0
   40.4030   34.4590   38.1960 C   0  0  0  0  0  0  0  0  0  0  0  0
   39.1480   34.3080   37.6150 C   0  0  0  0  0  0  0  0  0  0  0  0
   38.0240   33.8990   38.3730 C   0  0  0  0  0  0  0  0  0  0  0  0
   38.1790   33.6420   39.7280 C   0  0  0  0  0  0  0  0  0  0  0  0
   41.2470   34.7730   37.5970 H   0  0  0  0  0  0  0  0  0  0  0  0
   38.9670   34.4930   36.5620 H   0  0  0  0  0  0  0  0  0  0  0  0
   37.0540   33.7850   37.9040 H   0  0  0  0  0  0  0  0  0  0  0  0
   37.3350   33.3270   40.3290 H   0  0  0  0  0  0  0  0  0  0  0  0
  1  3  1  0  0  0  0
  1  2  1  0  0  0  0
  4  5  1  0  0  0  0
  4  1  1  0  0  0  0
  5  9  1  0  0  0  0
  6 11  1  0  0  0  0
  6  5  1  0  0  0  0
  7  6  1  0  0  0  0
  7 14  1  0  0  0  0
  8  7  1  0  0  0  0
  8 15  1  1  0  0  0
  8  4  1  0  0  0  0
 10  5  1  0  0  0  0
 12  6  1  0  0  0  0
 13  7  1  0  0  0  0
 16 25  1  0  0  0  0
 16 17  1  0  0  0  0
 17  8  1  0  0  0  0
 18 17  2  0  0  0  0
 18 19  1  0  0  0  0
 20 18  1  0  0  0  0
 21 20  1  0  0  0  0
 22 23  1  0  0  0  0
 22 20  2  0  0  0  0
 23 16  2  0  0  0  0
 25 24  3  0  0  0  0
 26 27  2  0  0  0  0
 27  1  1  0  0  0  0
 28 29  1  0  0  0  0
 29 30  2  0  0  0  0
 29 26  1  0  0  0  0
 30 35  1  0  0  0  0
 31 30  1  0  0  0  0
 32 31  2  0  0  0  0
 33 32  1  0  0  0  0
 33 28  2  0  0  0  0
 34 28  1  0  0  0  0
 37 36  1  0  0  0  0
 38 32  1  0  0  0  0
 38 37  2  0  0  0  0
 39 38  1  0  0  0  0
 40 39  2  0  0  0  0
 40 41  1  0  0  0  0
 41 42  2  0  0  0  0
 42 37  1  0  0  0  0
 42 46  1  0  0  0  0
 43 39  1  0  0  0  0
 44 40  1  0  0  0  0
 45 41  1  0  0  0  0
M  END
>  <minimizedAffinity>
-6.18592978

>  <minimizedRMSD>
1.19871628

$$$$
