
 OpenBabel03252502083D

 49 53  0  0  0  0  0  0  0  0999 V2000
   45.6830   33.8260   45.4310 C   0  0  0  0  0  0  0  0  0  0  0  0
   44.7680   34.7320   45.7950 N   0  0  0  0  0  0  0  0  0  0  0  0
   44.4250   35.8050   45.0850 C   0  0  0  0  0  0  0  0  0  0  0  0
   45.0200   36.0430   43.8900 N   0  0  0  0  0  0  0  0  0  0  0  0
   45.9520   35.2100   43.4130 C   0  0  0  0  0  0  0  0  0  0  0  0
   46.5620   35.4450   42.2010 C   0  0  0  0  0  0  0  0  0  0  0  0
   47.5140   34.6070   41.7020 C   0  0  0  0  0  0  0  0  0  0  0  0
   47.8460   33.5040   42.4650 C   0  0  0  0  0  0  0  0  0  0  0  0
   47.2050   33.3070   43.6790 C   0  0  0  0  0  0  0  0  0  0  0  0
   46.2600   34.1160   44.2020 C   0  0  0  0  0  0  0  0  0  0  0  0
   43.6670   36.4680   45.4870 H   0  0  0  0  0  0  0  0  0  0  0  0
   46.2830   36.3170   41.6260 H   0  0  0  0  0  0  0  0  0  0  0  0
   47.9600   34.8400   40.7490 H   0  0  0  0  0  0  0  0  0  0  0  0
   47.5790   32.0290   47.9290 C   0  0  0  0  0  0  0  0  0  0  0  0
   47.0830   30.7220   47.9300 C   0  0  0  0  0  0  0  0  0  0  0  0
   46.0600   30.4480   47.0580 C   0  0  0  0  0  0  0  0  0  0  0  0
   45.5940   31.4090   46.2660 N   0  0  0  0  0  0  0  0  0  0  0  0
   46.0470   32.6440   46.2460 C   0  0  0  0  0  0  0  0  0  0  0  0
   47.0540   32.9380   47.0990 N   0  0  0  0  0  0  0  0  0  0  0  0
   45.5180   29.1840   47.0250 N   0  0  0  0  0  0  0  0  0  0  0  0
   44.2990   28.8280   46.2470 C   0  0  0  0  0  0  0  0  0  0  0  0
   44.2260   27.3260   46.2560 C   0  0  0  0  0  0  0  0  0  0  0  0
   44.9270   26.9690   47.5270 C   0  0  0  0  0  0  0  0  0  0  0  0
   45.9800   28.0100   47.6940 C   0  0  0  0  0  0  0  0  0  0  0  0
   48.3950   32.2920   48.6090 H   0  0  0  0  0  0  0  0  0  0  0  0
   43.4160   29.3330   46.6450 H   0  0  0  0  0  0  0  0  0  0  0  0
   44.5440   29.1390   45.1990 H   0  0  0  0  0  0  0  0  0  0  0  0
   43.1900   26.9510   46.2430 H   0  0  0  0  0  0  0  0  0  0  0  0
   44.7560   26.8650   45.4100 H   0  0  0  0  0  0  0  0  0  0  0  0
   45.3280   25.9330   47.4850 H   0  0  0  0  0  0  0  0  0  0  0  0
   44.1620   26.9770   48.3290 H   0  0  0  0  0  0  0  0  0  0  0  0
   46.8980   27.6330   47.2400 H   0  0  0  0  0  0  0  0  0  0  0  0
   46.0350   28.1160   48.8200 H   0  0  0  0  0  0  0  0  0  0  0  0
   47.6710   29.8130   48.7750 N   0  0  0  0  0  0  0  0  0  0  0  0
   48.3580   29.0690   48.4940 H   0  0  0  0  0  0  0  0  0  0  0  0
   47.5880   29.6560   49.8110 H   0  0  0  0  0  0  0  0  0  0  0  0
   48.4530   31.5840   41.1240 C   0  0  0  0  0  0  0  0  0  0  0  0
   48.8690   32.6290   41.9000 C   0  0  0  0  0  0  0  0  0  0  0  0
   50.2060   32.8670   42.1530 C   0  0  0  0  0  0  0  0  0  0  0  0
   50.4880   33.7060   42.7730 H   0  0  0  0  0  0  0  0  0  0  0  0
   51.1630   32.0270   41.6090 C   0  0  0  0  0  0  0  0  0  0  0  0
   52.2220   32.1730   41.7790 H   0  0  0  0  0  0  0  0  0  0  0  0
   50.7110   30.9800   40.8300 C   0  0  0  0  0  3  0  0  0  0  0  0
   49.3910   30.7420   40.5780 C   0  0  0  0  0  3  0  0  0  0  0  0
   45.9730   31.1530   40.6460 N   0  0  0  0  0  0  0  0  0  0  0  0
   47.0750   31.3410   40.8660 C   0  0  0  0  0  0  0  0  0  0  0  0
   47.6790   32.1120   44.3120 N   0  0  0  0  0  0  0  0  0  0  0  0
   47.0540   31.3680   43.8880 H   0  0  0  0  0  0  0  0  0  0  0  0
   48.4070   31.8790   44.9940 H   0  0  0  0  0  0  0  0  0  0  0  0
  1  2  1  0  0  0  0
  1 18  1  0  0  0  0
  3 11  1  0  0  0  0
  3  2  2  0  0  0  0
  4  3  1  0  0  0  0
  5  4  2  0  0  0  0
  5 10  1  0  0  0  0
  6  5  1  0  0  0  0
  7  6  2  0  0  0  0
  7  8  1  0  0  0  0
  8  9  2  0  0  0  0
  9 10  1  0  0  0  0
  9 47  1  0  0  0  0
 10  1  2  0  0  0  0
 12  6  1  0  0  0  0
 13  7  1  0  0  0  0
 14 15  1  0  0  0  0
 14 25  1  0  0  0  0
 15 34  1  0  0  0  0
 16 15  2  0  0  0  0
 17 16  1  0  0  0  0
 18 17  2  0  0  0  0
 18 19  1  0  0  0  0
 19 14  2  0  0  0  0
 20 16  1  0  0  0  0
 20 24  1  0  0  0  0
 21 22  1  0  0  0  0
 21 26  1  0  0  0  0
 21 20  1  0  0  0  0
 22 23  1  0  0  0  0
 23 24  1  0  0  0  0
 23 31  1  0  0  0  0
 24 33  1  0  0  0  0
 27 21  1  0  0  0  0
 28 22  1  0  0  0  0
 29 22  1  0  0  0  0
 30 23  1  0  0  0  0
 32 24  1  0  0  0  0
 34 36  1  0  0  0  0
 35 34  1  0  0  0  0
 37 38  1  0  0  0  0
 38 39  2  0  0  0  0
 38  8  1  0  0  0  0
 39 40  1  0  0  0  0
 41 42  1  0  0  0  0
 41 39  1  0  0  0  0
 43 41  2  0  0  0  0
 44 43  1  0  0  0  0
 44 37  2  0  0  0  0
 45 46  3  0  0  0  0
 46 37  1  0  0  0  0
 47 49  1  0  0  0  0
 48 47  1  0  0  0  0
M  END
>  <minimizedAffinity>
-6.8918891

>  <minimizedRMSD>
0.908541322

$$$$
