
 OpenBabel03252501503D

 46 49  0  0  1  0  0  0  0  0999 V2000
   47.3150   33.7280   43.3290 C   0  0  0  0  0  0  0  0  0  0  0  0
   47.4980   32.8520   44.0110 H   0  0  0  0  0  0  0  0  0  0  0  0
   47.2070   34.6080   44.0080 H   0  0  0  0  0  0  0  0  0  0  0  0
   48.4160   33.8170   42.4390 N   0  0  0  0  0  0  0  0  0  0  0  0
   49.6200   34.2390   43.0730 C   0  0  0  0  0  0  0  0  0  0  0  0
   50.7660   33.6010   42.3350 C   0  0  0  0  0  0  0  0  0  0  0  0
   50.1500   32.3680   41.7620 C   0  0  0  0  0  0  0  0  0  0  0  0
   48.6620   32.5900   41.7320 C   0  0  2  0  0  0  0  0  0  0  0  0
   49.6740   33.8340   44.1180 H   0  0  0  0  0  0  0  0  0  0  0  0
   49.7780   35.3350   43.0820 H   0  0  0  0  0  0  0  0  0  0  0  0
   51.6100   33.3110   42.9820 H   0  0  0  0  0  0  0  0  0  0  0  0
   51.0940   34.2690   41.5260 H   0  0  0  0  0  0  0  0  0  0  0  0
   50.5030   32.2270   40.7090 H   0  0  0  0  0  0  0  0  0  0  0  0
   50.3720   31.4450   42.3340 H   0  0  0  0  0  0  0  0  0  0  0  0
   48.1300   31.7580   42.2660 H   0  0  0  0  0  0  0  0  0  0  0  0
   48.0740   33.8740   39.5920 C   0  0  0  0  0  0  0  0  0  0  0  0
   48.1400   32.7290   40.3600 C   0  0  0  0  0  0  0  0  0  0  0  0
   47.6410   31.5900   39.7250 C   0  0  0  0  0  0  0  0  0  0  0  0
   47.6600   30.6490   40.2730 H   0  0  0  0  0  0  0  0  0  0  0  0
   47.1160   31.5440   38.4470 C   0  0  0  0  0  0  0  0  0  0  0  0
   46.7570   30.6100   38.0490 H   0  0  0  0  0  0  0  0  0  0  0  0
   47.0760   32.7110   37.7260 C   0  0  0  0  0  3  0  0  0  0  0  0
   47.5580   33.8610   38.3140 C   0  0  0  0  0  3  0  0  0  0  0  0
   48.9950   36.0340   40.7240 N   0  0  0  0  0  0  0  0  0  0  0  0
   48.5860   35.0700   40.2300 C   0  0  0  0  0  0  0  0  0  0  0  0
   45.3550   34.3960   41.9980 C   0  0  0  0  0  3  0  0  0  0  0  0
   46.0120   33.4230   42.6450 C   0  0  0  0  0  3  0  0  0  0  0  0
   43.2650   33.0090   41.5790 C   0  0  0  0  0  0  0  0  0  0  0  0
   44.0730   34.1560   41.3090 C   0  0  0  0  0  0  0  0  0  0  0  0
   43.6360   35.0820   40.3610 C   0  0  0  0  0  0  0  0  0  0  0  0
   42.4510   34.8490   39.7330 N   0  0  0  0  0  0  0  0  0  0  0  0
   41.7200   33.7720   40.0040 C   0  0  0  0  0  0  0  0  0  0  0  0
   42.1360   32.8740   40.9180 N   0  0  0  0  0  0  0  0  0  0  0  0
   43.6670   32.3430   42.3180 H   0  0  0  0  0  0  0  0  0  0  0  0
   44.2110   35.9650   40.1230 H   0  0  0  0  0  0  0  0  0  0  0  0
   39.5280   35.4050   40.4750 F   0  0  0  0  0  0  0  0  0  0  0  0
   39.3670   34.3970   39.5660 C   0  0  0  0  0  0  0  0  0  0  0  0
   40.4520   33.5580   39.3070 C   0  0  0  0  0  0  0  0  0  0  0  0
   40.3710   32.5200   38.4050 C   0  0  0  0  0  0  0  0  0  0  0  0
   39.1580   32.3310   37.7510 C   0  0  0  0  0  0  0  0  0  0  0  0
   38.0440   33.1700   37.9970 C   0  0  0  0  0  0  0  0  0  0  0  0
   38.1650   34.2040   38.9140 C   0  0  0  0  0  0  0  0  0  0  0  0
   41.2090   31.8670   38.2000 H   0  0  0  0  0  0  0  0  0  0  0  0
   39.0030   31.5390   37.0260 H   0  0  0  0  0  0  0  0  0  0  0  0
   37.1060   33.0070   37.4790 H   0  0  0  0  0  0  0  0  0  0  0  0
   37.3280   34.8590   39.1200 H   0  0  0  0  0  0  0  0  0  0  0  0
  1  3  1  0  0  0  0
  1  2  1  0  0  0  0
  4  5  1  0  0  0  0
  4  1  1  0  0  0  0
  5 10  1  0  0  0  0
  5  9  1  0  0  0  0
  6 11  1  0  0  0  0
  6  5  1  0  0  0  0
  7 14  1  0  0  0  0
  7  6  1  0  0  0  0
  8  7  1  0  0  0  0
  8 15  1  1  0  0  0
  8  4  1  0  0  0  0
 12  6  1  0  0  0  0
 13  7  1  0  0  0  0
 16 25  1  0  0  0  0
 16 17  1  0  0  0  0
 17  8  1  0  0  0  0
 18 19  1  0  0  0  0
 18 17  2  0  0  0  0
 20 18  1  0  0  0  0
 21 20  1  0  0  0  0
 22 23  1  0  0  0  0
 22 20  2  0  0  0  0
 23 16  2  0  0  0  0
 25 24  3  0  0  0  0
 26 27  2  0  0  0  0
 27  1  1  0  0  0  0
 28 34  1  0  0  0  0
 29 28  1  0  0  0  0
 29 26  1  0  0  0  0
 30 29  2  0  0  0  0
 31 32  2  0  0  0  0
 31 30  1  0  0  0  0
 32 33  1  0  0  0  0
 33 28  2  0  0  0  0
 35 30  1  0  0  0  0
 37 36  1  0  0  0  0
 38 37  1  0  0  0  0
 38 32  1  0  0  0  0
 39 38  2  0  0  0  0
 40 41  2  0  0  0  0
 40 39  1  0  0  0  0
 41 42  1  0  0  0  0
 42 46  1  0  0  0  0
 42 37  2  0  0  0  0
 43 39  1  0  0  0  0
 44 40  1  0  0  0  0
 45 41  1  0  0  0  0
M  END
>  <minimizedAffinity>
-5.67134285

>  <minimizedRMSD>
1.66157722

$$$$
