
 OpenBabel03252506073D

 44 48  0  0  0  0  0  0  0  0999 V2000
   40.5590   31.1730   42.9310 Cl  0  0  0  0  0  0  0  0  0  0  0  0
   39.2500   30.7090   41.9010 C   0  0  0  0  0  0  0  0  0  0  0  0
   38.7980   31.5740   40.9180 C   0  0  0  0  0  0  0  0  0  0  0  0
   37.7490   31.0960   40.1580 C   0  0  0  0  0  0  0  0  0  0  0  0
   37.1480   29.8680   40.3070 C   0  0  0  0  0  0  0  0  0  0  0  0
   37.6240   29.0470   41.2890 C   0  0  0  0  0  0  0  0  0  0  0  0
   36.8350   27.4880   41.4530 Cl  0  0  0  0  0  0  0  0  0  0  0  0
   38.6640   29.4590   42.0820 C   0  0  0  0  0  0  0  0  0  0  0  0
   37.3970   31.7890   39.3790 H   0  0  0  0  0  0  0  0  0  0  0  0
   39.0190   28.7840   42.8510 H   0  0  0  0  0  0  0  0  0  0  0  0
   36.0440   29.5580   39.3890 C   0  0  0  0  0  0  0  0  0  0  0  0
   34.7440   29.3740   39.8060 C   0  0  0  0  0  0  0  0  0  0  0  0
   33.6980   29.0830   38.9630 C   0  0  0  0  0  0  0  0  0  0  0  0
   33.9530   28.9650   37.6050 C   0  0  0  0  0  0  0  0  0  0  0  0
   32.9100   28.6790   36.8020 N   0  0  0  0  0  0  0  0  0  0  0  0
   33.0550   28.5440   35.4740 C   0  0  0  0  0  0  0  0  0  0  0  0
   34.3360   28.7130   34.9630 C   0  0  0  0  0  0  0  0  0  0  0  0
   35.3980   29.0040   35.7820 C   0  0  0  0  0  0  0  0  0  0  0  0
   35.2280   29.1390   37.1480 C   0  0  0  0  0  0  0  0  0  0  0  0
   36.2610   29.4300   38.0150 C   0  0  0  0  0  0  0  0  0  0  0  0
   34.5390   29.4650   40.8650 H   0  0  0  0  0  0  0  0  0  0  0  0
   32.7120   28.9550   39.3710 H   0  0  0  0  0  0  0  0  0  0  0  0
   32.2070   28.3160   34.8490 H   0  0  0  0  0  0  0  0  0  0  0  0
   34.4350   28.6000   33.8850 H   0  0  0  0  0  0  0  0  0  0  0  0
   36.3910   29.1340   35.3730 H   0  0  0  0  0  0  0  0  0  0  0  0
   37.2610   29.5630   37.6270 H   0  0  0  0  0  0  0  0  0  0  0  0
   39.1120   35.1480   40.3210 C   0  0  0  0  0  0  0  0  0  0  0  0
   40.5010   35.3450   40.2920 C   0  0  0  0  0  0  0  0  0  0  0  0
   41.3420   34.2340   40.4790 C   0  0  0  0  0  0  0  0  0  0  0  0
   40.7060   33.0620   40.6730 N   0  0  0  0  0  0  0  0  0  0  0  0
   39.3830   32.8820   40.7010 C   0  0  0  0  0  0  0  0  0  0  0  0
   38.5690   33.9270   40.5240 N   0  0  0  0  0  0  0  0  0  0  0  0
   38.5200   36.0170   40.1750 H   0  0  0  0  0  0  0  0  0  0  0  0
   40.9150   36.3060   40.1320 H   0  0  0  0  0  0  0  0  0  0  0  0
   43.4440   34.0090   39.2960 C   0  0  0  0  0  0  0  0  0  0  0  0
   42.7900   34.3340   40.4650 C   0  0  0  0  0  0  0  0  0  0  0  0
   43.5260   34.7360   41.5580 C   0  0  0  0  0  0  0  0  0  0  0  0
   43.0610   34.9940   42.4740 H   0  0  0  0  0  0  0  0  0  0  0  0
   44.9200   34.8290   41.5350 C   0  0  0  0  0  0  0  0  0  0  0  0
   45.4990   35.1390   42.3740 H   0  0  0  0  0  0  0  0  0  0  0  0
   45.5970   34.5070   40.3710 C   0  0  0  0  0  3  0  0  0  0  0  0
   44.8400   34.1040   39.2800 C   0  0  0  0  0  3  0  0  0  0  0  0
   42.2160   33.2450   37.1480 N   0  0  0  0  0  0  0  0  0  0  0  0
   42.7590   33.5790   38.1050 C   0  0  0  0  0  0  0  0  0  0  0  0
  2  8  1  0  0  0  0
  2  1  1  0  0  0  0
  3  2  2  0  0  0  0
  4  5  2  0  0  0  0
  4  3  1  0  0  0  0
  5  6  1  0  0  0  0
  6  7  1  0  0  0  0
  6  8  2  0  0  0  0
  8 10  1  0  0  0  0
  9  4  1  0  0  0  0
 11 12  1  0  0  0  0
 11  5  1  0  0  0  0
 12 21  1  0  0  0  0
 13 22  1  0  0  0  0
 13 12  2  0  0  0  0
 14 13  1  0  0  0  0
 15 14  2  0  0  0  0
 16 15  1  0  0  0  0
 17 16  2  0  0  0  0
 17 18  1  0  0  0  0
 18 19  2  0  0  0  0
 19 14  1  0  0  0  0
 19 20  1  0  0  0  0
 20 11  2  0  0  0  0
 23 16  1  0  0  0  0
 24 17  1  0  0  0  0
 25 18  1  0  0  0  0
 26 20  1  0  0  0  0
 27 32  1  0  0  0  0
 28 27  2  0  0  0  0
 28 29  1  0  0  0  0
 29 30  2  0  0  0  0
 30 31  1  0  0  0  0
 31  3  1  0  0  0  0
 32 31  2  0  0  0  0
 33 27  1  0  0  0  0
 34 28  1  0  0  0  0
 35 36  1  0  0  0  0
 36 29  1  0  0  0  0
 36 37  2  0  0  0  0
 37 38  1  0  0  0  0
 39 37  1  0  0  0  0
 39 40  1  0  0  0  0
 41 39  2  0  0  0  0
 42 35  2  0  0  0  0
 42 41  1  0  0  0  0
 43 44  3  0  0  0  0
 44 35  1  0  0  0  0
M  END
>  <minimizedAffinity>
-7.30077171

$$$$

 OpenBabel03252506073D

 44 48  0  0  0  0  0  0  0  0999 V2000
   37.7920   30.9390   36.8640 Cl  0  0  0  0  0  0  0  0  0  0  0  0
   39.0870   31.4300   37.8990 C   0  0  0  0  0  0  0  0  0  0  0  0
   39.0190   31.1920   39.2610 C   0  0  0  0  0  0  0  0  0  0  0  0
   40.1100   31.6280   39.9860 C   0  0  0  0  0  0  0  0  0  0  0  0
   41.2160   32.2580   39.4640 C   0  0  0  0  0  0  0  0  0  0  0  0
   41.2420   32.4730   38.1160 C   0  0  0  0  0  0  0  0  0  0  0  0
   42.6670   33.2790   37.4840 Cl  0  0  0  0  0  0  0  0  0  0  0  0
   40.1910   32.0660   37.3360 C   0  0  0  0  0  0  0  0  0  0  0  0
   40.0470   31.4340   41.0670 H   0  0  0  0  0  0  0  0  0  0  0  0
   40.2440   32.2520   36.2700 H   0  0  0  0  0  0  0  0  0  0  0  0
   42.2670   32.6400   40.4160 C   0  0  0  0  0  0  0  0  0  0  0  0
   43.2710   31.7870   40.8150 C   0  0  0  0  0  0  0  0  0  0  0  0
   44.2630   32.1250   41.7050 C   0  0  0  0  0  0  0  0  0  0  0  0
   44.2650   33.4030   42.2430 C   0  0  0  0  0  0  0  0  0  0  0  0
   45.2470   33.7080   43.1120 N   0  0  0  0  0  0  0  0  0  0  0  0
   45.3340   34.9190   43.6860 C   0  0  0  0  0  0  0  0  0  0  0  0
   44.3600   35.8480   43.3410 C   0  0  0  0  0  0  0  0  0  0  0  0
   43.3580   35.5360   42.4550 C   0  0  0  0  0  0  0  0  0  0  0  0
   43.2870   34.2830   41.8740 C   0  0  0  0  0  0  0  0  0  0  0  0
   42.3020   33.9180   40.9800 C   0  0  0  0  0  0  0  0  0  0  0  0
   43.2750   30.7870   40.3990 H   0  0  0  0  0  0  0  0  0  0  0  0
   45.0110   31.3970   41.9630 H   0  0  0  0  0  0  0  0  0  0  0  0
   46.1290   35.1430   44.3790 H   0  0  0  0  0  0  0  0  0  0  0  0
   44.4450   36.8230   43.8150 H   0  0  0  0  0  0  0  0  0  0  0  0
   42.6050   36.2670   42.1940 H   0  0  0  0  0  0  0  0  0  0  0  0
   41.5390   34.6330   40.7050 H   0  0  0  0  0  0  0  0  0  0  0  0
   35.8150   30.6680   40.9030 C   0  0  0  0  0  0  0  0  0  0  0  0
   35.7570   29.2740   41.0500 C   0  0  0  0  0  0  0  0  0  0  0  0
   36.8340   28.5020   40.5790 C   0  0  0  0  0  0  0  0  0  0  0  0
   37.8380   29.2040   40.0190 N   0  0  0  0  0  0  0  0  0  0  0  0
   37.8860   30.5320   39.8810 C   0  0  0  0  0  0  0  0  0  0  0  0
   36.8720   31.2810   40.3230 N   0  0  0  0  0  0  0  0  0  0  0  0
   34.9780   31.2060   41.2740 H   0  0  0  0  0  0  0  0  0  0  0  0
   34.9240   28.8050   41.5050 H   0  0  0  0  0  0  0  0  0  0  0  0
   37.1320   26.5090   41.9240 C   0  0  0  0  0  0  0  0  0  0  0  0
   36.8690   27.0550   40.6850 C   0  0  0  0  0  0  0  0  0  0  0  0
   36.6520   26.2170   39.6140 C   0  0  0  0  0  0  0  0  0  0  0  0
   36.4470   26.5970   38.6470 H   0  0  0  0  0  0  0  0  0  0  0  0
   36.6870   24.8250   39.7260 C   0  0  0  0  0  0  0  0  0  0  0  0
   36.5210   24.1680   38.9040 H   0  0  0  0  0  0  0  0  0  0  0  0
   36.9500   24.2560   40.9610 C   0  0  0  0  0  3  0  0  0  0  0  0
   37.1660   25.1150   42.0290 C   0  0  0  0  0  3  0  0  0  0  0  0
   37.5520   27.9480   44.0350 N   0  0  0  0  0  0  0  0  0  0  0  0
   37.3710   27.3060   43.0990 C   0  0  0  0  0  0  0  0  0  0  0  0
  1  2  1  0  0  0  0
  2  3  1  0  0  0  0
  3 31  1  0  0  0  0
  3  4  2  0  0  0  0
  4  9  1  0  0  0  0
  5  4  1  0  0  0  0
  5 11  1  0  0  0  0
  6  5  2  0  0  0  0
  7  6  1  0  0  0  0
  8  2  2  0  0  0  0
  8  6  1  0  0  0  0
 10  8  1  0  0  0  0
 11 12  2  0  0  0  0
 11 20  1  0  0  0  0
 12 13  1  0  0  0  0
 13 22  1  0  0  0  0
 13 14  2  0  0  0  0
 14 15  1  0  0  0  0
 15 16  2  0  0  0  0
 16 23  1  0  0  0  0
 17 16  1  0  0  0  0
 17 24  1  0  0  0  0
 18 17  2  0  0  0  0
 19 14  1  0  0  0  0
 19 18  1  0  0  0  0
 20 19  2  0  0  0  0
 21 12  1  0  0  0  0
 25 18  1  0  0  0  0
 26 20  1  0  0  0  0
 27 28  1  0  0  0  0
 27 33  1  0  0  0  0
 28 34  1  0  0  0  0
 29 36  1  0  0  0  0
 29 28  2  0  0  0  0
 30 29  1  0  0  0  0
 31 30  2  0  0  0  0
 31 32  1  0  0  0  0
 32 27  2  0  0  0  0
 35 42  1  0  0  0  0
 35 44  1  0  0  0  0
 36 35  2  0  0  0  0
 37 39  2  0  0  0  0
 37 36  1  0  0  0  0
 38 37  1  0  0  0  0
 39 41  1  0  0  0  0
 40 39  1  0  0  0  0
 41 42  2  0  0  0  0
 44 43  3  0  0  0  0
M  END
>  <minimizedAffinity>
-7.21453714

$$$$

 OpenBabel03252506073D

 44 48  0  0  0  0  0  0  0  0999 V2000
   39.3930   30.2420   42.8570 Cl  0  0  0  0  0  0  0  0  0  0  0  0
   38.9630   28.6840   42.2440 C   0  0  0  0  0  0  0  0  0  0  0  0
   38.3070   28.5700   41.0300 C   0  0  0  0  0  0  0  0  0  0  0  0
   38.0150   27.2770   40.6430 C   0  0  0  0  0  0  0  0  0  0  0  0
   38.3210   26.1410   41.3550 C   0  0  0  0  0  0  0  0  0  0  0  0
   38.9670   26.2990   42.5480 C   0  0  0  0  0  0  0  0  0  0  0  0
   39.3410   24.8300   43.4320 Cl  0  0  0  0  0  0  0  0  0  0  0  0
   39.2870   27.5550   42.9940 C   0  0  0  0  0  0  0  0  0  0  0  0
   37.4950   27.1970   39.6770 H   0  0  0  0  0  0  0  0  0  0  0  0
   39.8000   27.6450   43.9430 H   0  0  0  0  0  0  0  0  0  0  0  0
   37.9180   24.8610   40.7590 C   0  0  0  0  0  0  0  0  0  0  0  0
   38.8050   23.8480   40.4730 C   0  0  0  0  0  0  0  0  0  0  0  0
   38.4480   22.6440   39.9150 C   0  0  0  0  0  0  0  0  0  0  0  0
   37.1120   22.4210   39.6160 C   0  0  0  0  0  0  0  0  0  0  0  0
   36.7900   21.2330   39.0700 N   0  0  0  0  0  0  0  0  0  0  0  0
   35.5240   20.9230   38.7450 C   0  0  0  0  0  0  0  0  0  0  0  0
   34.5580   21.8880   38.9990 C   0  0  0  0  0  0  0  0  0  0  0  0
   34.8870   23.0990   39.5550 C   0  0  0  0  0  0  0  0  0  0  0  0
   36.1970   23.3990   39.8830 C   0  0  0  0  0  0  0  0  0  0  0  0
   36.5820   24.5990   40.4430 C   0  0  0  0  0  0  0  0  0  0  0  0
   39.8500   24.0160   40.7040 H   0  0  0  0  0  0  0  0  0  0  0  0
   39.2060   21.9060   39.7240 H   0  0  0  0  0  0  0  0  0  0  0  0
   35.2880   19.9660   38.3090 H   0  0  0  0  0  0  0  0  0  0  0  0
   33.5380   21.6200   38.7290 H   0  0  0  0  0  0  0  0  0  0  0  0
   34.1260   23.8420   39.7490 H   0  0  0  0  0  0  0  0  0  0  0  0
   35.8370   25.3570   40.6450 H   0  0  0  0  0  0  0  0  0  0  0  0
   36.5860   30.6980   38.6350 C   0  0  0  0  0  0  0  0  0  0  0  0
   37.3000   31.9040   38.7080 C   0  0  0  0  0  0  0  0  0  0  0  0
   38.3900   31.9870   39.5930 C   0  0  0  0  0  0  0  0  0  0  0  0
   38.6400   30.8660   40.2990 N   0  0  0  0  0  0  0  0  0  0  0  0
   37.9540   29.7220   40.2240 C   0  0  0  0  0  0  0  0  0  0  0  0
   36.9160   29.6260   39.3880 N   0  0  0  0  0  0  0  0  0  0  0  0
   35.7720   30.6860   37.9520 H   0  0  0  0  0  0  0  0  0  0  0  0
   37.0320   32.7370   38.1140 H   0  0  0  0  0  0  0  0  0  0  0  0
   40.3760   33.2580   39.0390 C   0  0  0  0  0  0  0  0  0  0  0  0
   39.1920   33.1870   39.7420 C   0  0  0  0  0  0  0  0  0  0  0  0
   38.8220   34.2440   40.5440 C   0  0  0  0  0  0  0  0  0  0  0  0
   37.9200   34.2280   41.0990 H   0  0  0  0  0  0  0  0  0  0  0  0
   39.6000   35.3960   40.6800 C   0  0  0  0  0  0  0  0  0  0  0  0
   39.3240   36.2190   41.2980 H   0  0  0  0  0  0  0  0  0  0  0  0
   40.7940   35.4880   39.9840 C   0  0  0  0  0  3  0  0  0  0  0  0
   41.1500   34.4150   39.1800 C   0  0  0  0  0  3  0  0  0  0  0  0
   41.2240   31.3710   37.4830 N   0  0  0  0  0  0  0  0  0  0  0  0
   40.8430   32.2040   38.1770 C   0  0  0  0  0  0  0  0  0  0  0  0
  2  1  1  0  0  0  0
  2  8  1  0  0  0  0
  3  2  2  0  0  0  0
  4  3  1  0  0  0  0
  4  5  2  0  0  0  0
  5  6  1  0  0  0  0
  6  8  2  0  0  0  0
  6  7  1  0  0  0  0
  8 10  1  0  0  0  0
  9  4  1  0  0  0  0
 11  5  1  0  0  0  0
 12 21  1  0  0  0  0
 12 11  1  0  0  0  0
 13 12  2  0  0  0  0
 14 19  1  0  0  0  0
 14 13  1  0  0  0  0
 15 14  2  0  0  0  0
 16 17  2  0  0  0  0
 16 15  1  0  0  0  0
 17 18  1  0  0  0  0
 18 25  1  0  0  0  0
 18 19  2  0  0  0  0
 19 20  1  0  0  0  0
 20 26  1  0  0  0  0
 20 11  2  0  0  0  0
 22 13  1  0  0  0  0
 23 16  1  0  0  0  0
 24 17  1  0  0  0  0
 27 28  2  0  0  0  0
 27 32  1  0  0  0  0
 28 29  1  0  0  0  0
 29 36  1  0  0  0  0
 29 30  2  0  0  0  0
 31 30  1  0  0  0  0
 31  3  1  0  0  0  0
 32 31  2  0  0  0  0
 33 27  1  0  0  0  0
 34 28  1  0  0  0  0
 35 42  2  0  0  0  0
 35 36  1  0  0  0  0
 36 37  2  0  0  0  0
 37 39  1  0  0  0  0
 37 38  1  0  0  0  0
 39 40  1  0  0  0  0
 41 39  2  0  0  0  0
 42 41  1  0  0  0  0
 43 44  3  0  0  0  0
 44 35  1  0  0  0  0
M  END
>  <minimizedAffinity>
-7.20981407

$$$$

 OpenBabel03252506073D

 44 48  0  0  0  0  0  0  0  0999 V2000
   38.1970   30.4180   37.4360 Cl  0  0  0  0  0  0  0  0  0  0  0  0
   39.3020   31.3610   38.3740 C   0  0  0  0  0  0  0  0  0  0  0  0
   39.3010   31.2650   39.7550 C   0  0  0  0  0  0  0  0  0  0  0  0
   40.2260   32.0650   40.3970 C   0  0  0  0  0  0  0  0  0  0  0  0
   41.1120   32.9160   39.7790 C   0  0  0  0  0  0  0  0  0  0  0  0
   41.0790   32.9800   38.4150 C   0  0  0  0  0  0  0  0  0  0  0  0
   42.2220   34.0770   37.6590 Cl  0  0  0  0  0  0  0  0  0  0  0  0
   40.1850   32.2140   37.7140 C   0  0  0  0  0  0  0  0  0  0  0  0
   40.2190   31.9810   41.4940 H   0  0  0  0  0  0  0  0  0  0  0  0
   40.1850   32.2880   36.6340 H   0  0  0  0  0  0  0  0  0  0  0  0
   42.0130   33.6780   40.6530 C   0  0  0  0  0  0  0  0  0  0  0  0
   41.8090   35.0000   40.9810 C   0  0  0  0  0  0  0  0  0  0  0  0
   42.6400   35.7300   41.7960 C   0  0  0  0  0  0  0  0  0  0  0  0
   43.7590   35.1090   42.3310 C   0  0  0  0  0  0  0  0  0  0  0  0
   44.5560   35.8470   43.1260 N   0  0  0  0  0  0  0  0  0  0  0  0
   45.6630   35.3360   43.6910 C   0  0  0  0  0  0  0  0  0  0  0  0
   45.9490   34.0050   43.4150 C   0  0  0  0  0  0  0  0  0  0  0  0
   45.1360   33.2530   42.6040 C   0  0  0  0  0  0  0  0  0  0  0  0
   44.0000   33.7980   42.0320 C   0  0  0  0  0  0  0  0  0  0  0  0
   43.1510   33.0870   41.2100 C   0  0  0  0  0  0  0  0  0  0  0  0
   40.9370   35.4900   40.5660 H   0  0  0  0  0  0  0  0  0  0  0  0
   42.4070   36.7590   42.0010 H   0  0  0  0  0  0  0  0  0  0  0  0
   46.2870   35.9450   44.3240 H   0  0  0  0  0  0  0  0  0  0  0  0
   46.8490   33.6080   43.8800 H   0  0  0  0  0  0  0  0  0  0  0  0
   45.3690   32.2180   42.3970 H   0  0  0  0  0  0  0  0  0  0  0  0
   43.3650   32.0510   40.9900 H   0  0  0  0  0  0  0  0  0  0  0  0
   36.2870   29.9610   41.3200 C   0  0  0  0  0  0  0  0  0  0  0  0
   36.7050   28.7260   41.8360 C   0  0  0  0  0  0  0  0  0  0  0  0
   38.0430   28.3340   41.6450 C   0  0  0  0  0  0  0  0  0  0  0  0
   38.8040   29.2140   40.9650 N   0  0  0  0  0  0  0  0  0  0  0  0
   38.3980   30.3890   40.4750 C   0  0  0  0  0  0  0  0  0  0  0  0
   37.1310   30.7760   40.6480 N   0  0  0  0  0  0  0  0  0  0  0  0
   35.2690   30.2110   41.4900 H   0  0  0  0  0  0  0  0  0  0  0  0
   36.0360   28.0960   42.3600 H   0  0  0  0  0  0  0  0  0  0  0  0
   38.2090   25.9230   41.4800 C   0  0  0  0  0  0  0  0  0  0  0  0
   38.5720   27.0770   42.1410 C   0  0  0  0  0  0  0  0  0  0  0  0
   39.4120   26.9930   43.2300 C   0  0  0  0  0  0  0  0  0  0  0  0
   39.7130   27.8560   43.7640 H   0  0  0  0  0  0  0  0  0  0  0  0
   39.9160   25.7780   43.7000 C   0  0  0  0  0  0  0  0  0  0  0  0
   40.5660   25.7010   44.5410 H   0  0  0  0  0  0  0  0  0  0  0  0
   39.5640   24.6060   43.0510 C   0  0  0  0  0  3  0  0  0  0  0  0
   38.7180   24.7100   41.9570 C   0  0  0  0  0  3  0  0  0  0  0  0
   36.6350   25.9170   39.4240 N   0  0  0  0  0  0  0  0  0  0  0  0
   37.3370   25.9140   40.3340 C   0  0  0  0  0  0  0  0  0  0  0  0
  1  2  1  0  0  0  0
  2  3  1  0  0  0  0
  3  4  2  0  0  0  0
  3 31  1  0  0  0  0
  4  9  1  0  0  0  0
  5  4  1  0  0  0  0
  5 11  1  0  0  0  0
  6  5  2  0  0  0  0
  7  6  1  0  0  0  0
  8  2  2  0  0  0  0
  8  6  1  0  0  0  0
 10  8  1  0  0  0  0
 11 12  2  0  0  0  0
 11 20  1  0  0  0  0
 12 13  1  0  0  0  0
 13 22  1  0  0  0  0
 13 14  2  0  0  0  0
 14 15  1  0  0  0  0
 15 16  2  0  0  0  0
 16 23  1  0  0  0  0
 17 16  1  0  0  0  0
 17 24  1  0  0  0  0
 18 17  2  0  0  0  0
 19 14  1  0  0  0  0
 19 18  1  0  0  0  0
 20 19  2  0  0  0  0
 21 12  1  0  0  0  0
 25 18  1  0  0  0  0
 26 20  1  0  0  0  0
 27 33  1  0  0  0  0
 27 28  1  0  0  0  0
 28 34  1  0  0  0  0
 29 28  2  0  0  0  0
 29 36  1  0  0  0  0
 30 29  1  0  0  0  0
 31 32  1  0  0  0  0
 31 30  2  0  0  0  0
 32 27  2  0  0  0  0
 35 42  2  0  0  0  0
 35 36  1  0  0  0  0
 36 37  2  0  0  0  0
 37 39  1  0  0  0  0
 37 38  1  0  0  0  0
 39 40  1  0  0  0  0
 41 39  2  0  0  0  0
 42 41  1  0  0  0  0
 43 44  3  0  0  0  0
 44 35  1  0  0  0  0
M  END
>  <minimizedAffinity>
-7.13290882

$$$$

 OpenBabel03252506073D

 44 48  0  0  0  0  0  0  0  0999 V2000
   39.8990   31.1000   42.9040 Cl  0  0  0  0  0  0  0  0  0  0  0  0
   38.9230   30.6140   41.5620 C   0  0  0  0  0  0  0  0  0  0  0  0
   38.7100   31.4830   40.5060 C   0  0  0  0  0  0  0  0  0  0  0  0
   37.9150   30.9860   39.4920 C   0  0  0  0  0  0  0  0  0  0  0  0
   37.3440   29.7350   39.4640 C   0  0  0  0  0  0  0  0  0  0  0  0
   37.5810   28.9100   40.5270 C   0  0  0  0  0  0  0  0  0  0  0  0
   36.8370   27.3220   40.4600 Cl  0  0  0  0  0  0  0  0  0  0  0  0
   38.3610   29.3400   41.5680 C   0  0  0  0  0  0  0  0  0  0  0  0
   37.7510   31.6830   38.6570 H   0  0  0  0  0  0  0  0  0  0  0  0
   38.5290   28.6610   42.3950 H   0  0  0  0  0  0  0  0  0  0  0  0
   36.5310   29.4070   38.2860 C   0  0  0  0  0  0  0  0  0  0  0  0
   37.0700   29.1000   37.0570 C   0  0  0  0  0  0  0  0  0  0  0  0
   36.3260   28.7920   35.9430 C   0  0  0  0  0  0  0  0  0  0  0  0
   34.9440   28.7850   36.0490 C   0  0  0  0  0  0  0  0  0  0  0  0
   34.2390   28.4800   34.9430 N   0  0  0  0  0  0  0  0  0  0  0  0
   32.8960   28.4470   34.9450 C   0  0  0  0  0  0  0  0  0  0  0  0
   32.2640   28.7450   36.1460 C   0  0  0  0  0  0  0  0  0  0  0  0
   32.9830   29.0560   37.2730 C   0  0  0  0  0  0  0  0  0  0  0  0
   34.3660   29.0840   37.2500 C   0  0  0  0  0  0  0  0  0  0  0  0
   35.1350   29.3910   38.3540 C   0  0  0  0  0  0  0  0  0  0  0  0
   38.1490   29.1040   36.9680 H   0  0  0  0  0  0  0  0  0  0  0  0
   36.8280   28.5640   35.0210 H   0  0  0  0  0  0  0  0  0  0  0  0
   32.3510   28.2000   34.0480 H   0  0  0  0  0  0  0  0  0  0  0  0
   31.1770   28.7140   36.1290 H   0  0  0  0  0  0  0  0  0  0  0  0
   32.4800   29.2860   38.2020 H   0  0  0  0  0  0  0  0  0  0  0  0
   34.6520   29.6240   39.2920 H   0  0  0  0  0  0  0  0  0  0  0  0
   38.9830   35.1070   40.3450 C   0  0  0  0  0  0  0  0  0  0  0  0
   40.3680   35.3240   40.3880 C   0  0  0  0  0  0  0  0  0  0  0  0
   41.2220   34.2100   40.4730 C   0  0  0  0  0  0  0  0  0  0  0  0
   40.6000   33.0150   40.5060 N   0  0  0  0  0  0  0  0  0  0  0  0
   39.2790   32.8160   40.4650 C   0  0  0  0  0  0  0  0  0  0  0  0
   38.4540   33.8640   40.3830 N   0  0  0  0  0  0  0  0  0  0  0  0
   38.3810   35.9800   40.2800 H   0  0  0  0  0  0  0  0  0  0  0  0
   40.7710   36.3020   40.3570 H   0  0  0  0  0  0  0  0  0  0  0  0
   43.3740   34.0420   39.3740 C   0  0  0  0  0  0  0  0  0  0  0  0
   42.6670   34.3290   40.5220 C   0  0  0  0  0  0  0  0  0  0  0  0
   43.3520   34.7140   41.6540 C   0  0  0  0  0  0  0  0  0  0  0  0
   42.8450   34.9430   42.5560 H   0  0  0  0  0  0  0  0  0  0  0  0
   44.7430   34.8270   41.6920 C   0  0  0  0  0  0  0  0  0  0  0  0
   45.2830   35.1230   42.5620 H   0  0  0  0  0  0  0  0  0  0  0  0
   45.4730   34.5420   40.5500 C   0  0  0  0  0  3  0  0  0  0  0  0
   44.7680   34.1570   39.4200 C   0  0  0  0  0  3  0  0  0  0  0  0
   42.2370   33.2970   37.1710 N   0  0  0  0  0  0  0  0  0  0  0  0
   42.7450   33.6330   38.1450 C   0  0  0  0  0  0  0  0  0  0  0  0
  2  8  1  0  0  0  0
  2  1  1  0  0  0  0
  3  2  2  0  0  0  0
  4  3  1  0  0  0  0
  5  4  2  0  0  0  0
  5  6  1  0  0  0  0
  6  8  2  0  0  0  0
  7  6  1  0  0  0  0
  8 10  1  0  0  0  0
  9  4  1  0  0  0  0
 11 20  1  0  0  0  0
 11  5  1  0  0  0  0
 12 11  2  0  0  0  0
 13 14  2  0  0  0  0
 13 12  1  0  0  0  0
 14 19  1  0  0  0  0
 15 16  2  0  0  0  0
 15 14  1  0  0  0  0
 16 17  1  0  0  0  0
 17 18  2  0  0  0  0
 18 25  1  0  0  0  0
 19 18  1  0  0  0  0
 19 20  2  0  0  0  0
 20 26  1  0  0  0  0
 21 12  1  0  0  0  0
 22 13  1  0  0  0  0
 23 16  1  0  0  0  0
 24 17  1  0  0  0  0
 27 32  2  0  0  0  0
 27 28  1  0  0  0  0
 28 29  2  0  0  0  0
 29 30  1  0  0  0  0
 29 36  1  0  0  0  0
 31 30  2  0  0  0  0
 31  3  1  0  0  0  0
 32 31  1  0  0  0  0
 33 27  1  0  0  0  0
 34 28  1  0  0  0  0
 35 42  2  0  0  0  0
 35 36  1  0  0  0  0
 36 37  2  0  0  0  0
 37 39  1  0  0  0  0
 37 38  1  0  0  0  0
 39 40  1  0  0  0  0
 41 39  2  0  0  0  0
 42 41  1  0  0  0  0
 43 44  3  0  0  0  0
 44 35  1  0  0  0  0
M  END
>  <minimizedAffinity>
-6.9876647

$$$$

 OpenBabel03252506073D

 44 48  0  0  0  0  0  0  0  0999 V2000
   36.7090   26.2240   38.5720 Cl  0  0  0  0  0  0  0  0  0  0  0  0
   35.3710   27.1970   38.0720 C   0  0  0  0  0  0  0  0  0  0  0  0
   35.1230   28.4110   38.6900 C   0  0  0  0  0  0  0  0  0  0  0  0
   34.0280   29.0990   38.2070 C   0  0  0  0  0  0  0  0  0  0  0  0
   33.2010   28.6750   37.1930 C   0  0  0  0  0  0  0  0  0  0  0  0
   33.4810   27.4720   36.6110 C   0  0  0  0  0  0  0  0  0  0  0  0
   32.4060   26.9610   35.3220 Cl  0  0  0  0  0  0  0  0  0  0  0  0
   34.5540   26.7350   37.0420 C   0  0  0  0  0  0  0  0  0  0  0  0
   33.8390   30.0630   38.7030 H   0  0  0  0  0  0  0  0  0  0  0  0
   34.7480   25.7850   36.5590 H   0  0  0  0  0  0  0  0  0  0  0  0
   32.0890   29.5650   36.8340 C   0  0  0  0  0  0  0  0  0  0  0  0
   31.0380   29.8400   37.6790 C   0  0  0  0  0  0  0  0  0  0  0  0
   29.9880   30.6690   37.3620 C   0  0  0  0  0  0  0  0  0  0  0  0
   29.9740   31.2740   36.1140 C   0  0  0  0  0  0  0  0  0  0  0  0
   28.9350   32.0800   35.8280 N   0  0  0  0  0  0  0  0  0  0  0  0
   28.8310   32.7120   34.6470 C   0  0  0  0  0  0  0  0  0  0  0  0
   29.8500   32.4930   33.7280 C   0  0  0  0  0  0  0  0  0  0  0  0
   30.9090   31.6700   34.0200 C   0  0  0  0  0  0  0  0  0  0  0  0
   30.9980   31.0290   35.2430 C   0  0  0  0  0  0  0  0  0  0  0  0
   32.0390   30.1920   35.5860 C   0  0  0  0  0  0  0  0  0  0  0  0
   31.0430   29.3700   38.6550 H   0  0  0  0  0  0  0  0  0  0  0  0
   29.2070   30.8290   38.0810 H   0  0  0  0  0  0  0  0  0  0  0  0
   27.9900   33.3530   34.4390 H   0  0  0  0  0  0  0  0  0  0  0  0
   29.7500   33.0110   32.7770 H   0  0  0  0  0  0  0  0  0  0  0  0
   31.6970   31.5070   33.2970 H   0  0  0  0  0  0  0  0  0  0  0  0
   32.8370   30.0160   34.8780 H   0  0  0  0  0  0  0  0  0  0  0  0
   36.7050   28.7710   41.9460 C   0  0  0  0  0  0  0  0  0  0  0  0
   37.5200   29.9000   41.7800 C   0  0  0  0  0  0  0  0  0  0  0  0
   37.5270   30.5480   40.5320 C   0  0  0  0  0  0  0  0  0  0  0  0
   36.7250   29.9990   39.5990 N   0  0  0  0  0  0  0  0  0  0  0  0
   35.9520   28.9220   39.7630 C   0  0  0  0  0  0  0  0  0  0  0  0
   35.9330   28.2950   40.9430 N   0  0  0  0  0  0  0  0  0  0  0  0
   36.7350   28.3170   42.9050 H   0  0  0  0  0  0  0  0  0  0  0  0
   38.1200   30.2640   42.5720 H   0  0  0  0  0  0  0  0  0  0  0  0
   39.6360   31.5260   39.8500 C   0  0  0  0  0  0  0  0  0  0  0  0
   38.3350   31.7230   40.2610 C   0  0  0  0  0  0  0  0  0  0  0  0
   37.8600   33.0090   40.3950 C   0  0  0  0  0  0  0  0  0  0  0  0
   36.8660   33.2020   40.7080 H   0  0  0  0  0  0  0  0  0  0  0  0
   38.6450   34.1340   40.1320 C   0  0  0  0  0  0  0  0  0  0  0  0
   38.2880   35.1330   40.2330 H   0  0  0  0  0  0  0  0  0  0  0  0
   39.9550   33.9600   39.7190 C   0  0  0  0  0  3  0  0  0  0  0  0
   40.4170   32.6580   39.5890 C   0  0  0  0  0  3  0  0  0  0  0  0
   40.6840   29.1760   39.5620 N   0  0  0  0  0  0  0  0  0  0  0  0
   40.2190   30.2200   39.6830 C   0  0  0  0  0  0  0  0  0  0  0  0
  2  1  1  0  0  0  0
  2  3  1  0  0  0  0
  3 31  1  0  0  0  0
  4  3  2  0  0  0  0
  4  9  1  0  0  0  0
  5  4  1  0  0  0  0
  6  8  1  0  0  0  0
  6  5  2  0  0  0  0
  7  6  1  0  0  0  0
  8  2  2  0  0  0  0
 10  8  1  0  0  0  0
 11  5  1  0  0  0  0
 11 12  1  0  0  0  0
 12 21  1  0  0  0  0
 13 12  2  0  0  0  0
 13 22  1  0  0  0  0
 14 13  1  0  0  0  0
 15 14  1  0  0  0  0
 16 15  2  0  0  0  0
 17 18  2  0  0  0  0
 17 16  1  0  0  0  0
 18 19  1  0  0  0  0
 19 20  1  0  0  0  0
 19 14  2  0  0  0  0
 20 11  2  0  0  0  0
 23 16  1  0  0  0  0
 24 17  1  0  0  0  0
 25 18  1  0  0  0  0
 26 20  1  0  0  0  0
 27 33  1  0  0  0  0
 28 27  1  0  0  0  0
 28 34  1  0  0  0  0
 29 28  2  0  0  0  0
 30 31  2  0  0  0  0
 30 29  1  0  0  0  0
 31 32  1  0  0  0  0
 32 27  2  0  0  0  0
 35 36  1  0  0  0  0
 36 37  2  0  0  0  0
 36 29  1  0  0  0  0
 37 38  1  0  0  0  0
 39 40  1  0  0  0  0
 39 37  1  0  0  0  0
 41 39  2  0  0  0  0
 42 41  1  0  0  0  0
 42 35  2  0  0  0  0
 43 44  3  0  0  0  0
 44 35  1  0  0  0  0
M  END
>  <minimizedAffinity>
-6.97032166

$$$$

 OpenBabel03252506073D

 44 48  0  0  0  0  0  0  0  0999 V2000
   36.9590   34.2160   39.1770 Cl  0  0  0  0  0  0  0  0  0  0  0  0
   37.4060   32.7340   39.9460 C   0  0  0  0  0  0  0  0  0  0  0  0
   38.6780   32.5800   40.4720 C   0  0  0  0  0  0  0  0  0  0  0  0
   38.9200   31.3550   41.0610 C   0  0  0  0  0  0  0  0  0  0  0  0
   38.0190   30.3200   41.1560 C   0  0  0  0  0  0  0  0  0  0  0  0
   36.7770   30.5150   40.6230 C   0  0  0  0  0  0  0  0  0  0  0  0
   35.6520   29.1750   40.7600 Cl  0  0  0  0  0  0  0  0  0  0  0  0
   36.4680   31.7080   40.0220 C   0  0  0  0  0  0  0  0  0  0  0  0
   39.9330   31.2410   41.4780 H   0  0  0  0  0  0  0  0  0  0  0  0
   35.4740   31.8300   39.6100 H   0  0  0  0  0  0  0  0  0  0  0  0
   38.4850   29.0990   41.8250 C   0  0  0  0  0  0  0  0  0  0  0  0
   38.1600   28.7770   43.1230 C   0  0  0  0  0  0  0  0  0  0  0  0
   38.5860   27.6400   43.7670 C   0  0  0  0  0  0  0  0  0  0  0  0
   39.3960   26.7510   43.0770 C   0  0  0  0  0  0  0  0  0  0  0  0
   39.8000   25.6450   43.7300 N   0  0  0  0  0  0  0  0  0  0  0  0
   40.5860   24.7250   43.1480 C   0  0  0  0  0  0  0  0  0  0  0  0
   40.9660   24.9660   41.8330 C   0  0  0  0  0  0  0  0  0  0  0  0
   40.5540   26.0940   41.1680 C   0  0  0  0  0  0  0  0  0  0  0  0
   39.7440   27.0300   41.7860 C   0  0  0  0  0  0  0  0  0  0  0  0
   39.3030   28.1790   41.1630 C   0  0  0  0  0  0  0  0  0  0  0  0
   37.5280   29.4680   43.6680 H   0  0  0  0  0  0  0  0  0  0  0  0
   38.2860   27.4650   44.7840 H   0  0  0  0  0  0  0  0  0  0  0  0
   40.8970   23.8460   43.6890 H   0  0  0  0  0  0  0  0  0  0  0  0
   41.6010   24.2110   41.3770 H   0  0  0  0  0  0  0  0  0  0  0  0
   40.8550   26.2720   40.1450 H   0  0  0  0  0  0  0  0  0  0  0  0
   39.5930   28.3760   40.1400 H   0  0  0  0  0  0  0  0  0  0  0  0
   40.2870   35.8280   40.7780 C   0  0  0  0  0  0  0  0  0  0  0  0
   41.5800   35.5890   40.2900 C   0  0  0  0  0  0  0  0  0  0  0  0
   41.9050   34.2940   39.8480 C   0  0  0  0  0  0  0  0  0  0  0  0
   40.9090   33.3920   39.9440 N   0  0  0  0  0  0  0  0  0  0  0  0
   39.6790   33.6260   40.4110 C   0  0  0  0  0  0  0  0  0  0  0  0
   39.3540   34.8510   40.8340 N   0  0  0  0  0  0  0  0  0  0  0  0
   40.0910   36.8210   41.0990 H   0  0  0  0  0  0  0  0  0  0  0  0
   42.3020   36.3620   40.2500 H   0  0  0  0  0  0  0  0  0  0  0  0
   44.2030   33.6310   40.2330 C   0  0  0  0  0  0  0  0  0  0  0  0
   43.2140   33.9470   39.3260 C   0  0  0  0  0  0  0  0  0  0  0  0
   43.5030   33.9200   37.9790 C   0  0  0  0  0  0  0  0  0  0  0  0
   42.7700   34.1560   37.2520 H   0  0  0  0  0  0  0  0  0  0  0  0
   44.7660   33.5840   37.4860 C   0  0  0  0  0  0  0  0  0  0  0  0
   45.0000   33.5610   36.4470 H   0  0  0  0  0  0  0  0  0  0  0  0
   45.7740   33.2640   38.3790 C   0  0  0  0  0  3  0  0  0  0  0  0
   45.4650   33.2960   39.7310 C   0  0  0  0  0  3  0  0  0  0  0  0
   43.8380   33.6380   42.7960 N   0  0  0  0  0  0  0  0  0  0  0  0
   43.9940   33.6320   41.6570 C   0  0  0  0  0  0  0  0  0  0  0  0
  1  2  1  0  0  0  0
  2  8  2  0  0  0  0
  2  3  1  0  0  0  0
  3  4  2  0  0  0  0
  4  5  1  0  0  0  0
  4  9  1  0  0  0  0
  5 11  1  0  0  0  0
  6  7  1  0  0  0  0
  6  5  2  0  0  0  0
  8  6  1  0  0  0  0
 10  8  1  0  0  0  0
 11 12  1  0  0  0  0
 12 21  1  0  0  0  0
 12 13  2  0  0  0  0
 13 22  1  0  0  0  0
 14 15  1  0  0  0  0
 14 13  1  0  0  0  0
 16 23  1  0  0  0  0
 16 15  2  0  0  0  0
 17 16  1  0  0  0  0
 18 19  1  0  0  0  0
 18 17  2  0  0  0  0
 19 14  2  0  0  0  0
 20 19  1  0  0  0  0
 20 11  2  0  0  0  0
 24 17  1  0  0  0  0
 25 18  1  0  0  0  0
 26 20  1  0  0  0  0
 27 32  1  0  0  0  0
 27 33  1  0  0  0  0
 28 27  2  0  0  0  0
 29 30  2  0  0  0  0
 29 28  1  0  0  0  0
 30 31  1  0  0  0  0
 31  3  1  0  0  0  0
 31 32  2  0  0  0  0
 34 28  1  0  0  0  0
 35 44  1  0  0  0  0
 36 29  1  0  0  0  0
 36 35  2  0  0  0  0
 37 36  1  0  0  0  0
 38 37  1  0  0  0  0
 39 37  2  0  0  0  0
 39 41  1  0  0  0  0
 40 39  1  0  0  0  0
 41 42  2  0  0  0  0
 42 35  1  0  0  0  0
 44 43  3  0  0  0  0
M  END
>  <minimizedAffinity>
-6.91552401

$$$$

 OpenBabel03252506073D

 44 48  0  0  0  0  0  0  0  0999 V2000
   39.9310   30.7340   42.9380 Cl  0  0  0  0  0  0  0  0  0  0  0  0
   39.4400   29.1780   42.3650 C   0  0  0  0  0  0  0  0  0  0  0  0
   38.7960   29.0580   41.1440 C   0  0  0  0  0  0  0  0  0  0  0  0
   38.4510   27.7680   40.7910 C   0  0  0  0  0  0  0  0  0  0  0  0
   38.6960   26.6420   41.5410 C   0  0  0  0  0  0  0  0  0  0  0  0
   39.3330   26.8060   42.7370 C   0  0  0  0  0  0  0  0  0  0  0  0
   39.6280   25.3480   43.6690 Cl  0  0  0  0  0  0  0  0  0  0  0  0
   39.7030   28.0590   43.1510 C   0  0  0  0  0  0  0  0  0  0  0  0
   37.9410   27.6820   39.8200 H   0  0  0  0  0  0  0  0  0  0  0  0
   40.2060   28.1550   44.1050 H   0  0  0  0  0  0  0  0  0  0  0  0
   38.2440   25.3630   40.9760 C   0  0  0  0  0  0  0  0  0  0  0  0
   37.0020   24.8240   41.2260 C   0  0  0  0  0  0  0  0  0  0  0  0
   36.5600   23.6300   40.7080 C   0  0  0  0  0  0  0  0  0  0  0  0
   37.4090   22.9120   39.8790 C   0  0  0  0  0  0  0  0  0  0  0  0
   36.9520   21.7450   39.3860 N   0  0  0  0  0  0  0  0  0  0  0  0
   37.6990   20.9780   38.5750 C   0  0  0  0  0  0  0  0  0  0  0  0
   38.9710   21.4440   38.2670 C   0  0  0  0  0  0  0  0  0  0  0  0
   39.4360   22.6340   38.7710 C   0  0  0  0  0  0  0  0  0  0  0  0
   38.6510   23.4100   39.6040 C   0  0  0  0  0  0  0  0  0  0  0  0
   39.0700   24.6110   40.1380 C   0  0  0  0  0  0  0  0  0  0  0  0
   36.3350   25.3800   41.8730 H   0  0  0  0  0  0  0  0  0  0  0  0
   35.5740   23.2810   40.9540 H   0  0  0  0  0  0  0  0  0  0  0  0
   37.3140   20.0470   38.1910 H   0  0  0  0  0  0  0  0  0  0  0  0
   39.5620   20.8110   37.6100 H   0  0  0  0  0  0  0  0  0  0  0  0
   40.4280   22.9870   38.5240 H   0  0  0  0  0  0  0  0  0  0  0  0
   40.0580   24.9820   39.9040 H   0  0  0  0  0  0  0  0  0  0  0  0
   36.9620   31.5140   39.1860 C   0  0  0  0  0  0  0  0  0  0  0  0
   37.9750   32.3580   38.7040 C   0  0  0  0  0  0  0  0  0  0  0  0
   39.3070   32.0790   39.0570 C   0  0  0  0  0  0  0  0  0  0  0  0
   39.4760   30.9980   39.8440 N   0  0  0  0  0  0  0  0  0  0  0  0
   38.5060   30.2000   40.3000 C   0  0  0  0  0  0  0  0  0  0  0  0
   37.2350   30.4500   39.9740 N   0  0  0  0  0  0  0  0  0  0  0  0
   35.9740   31.7670   38.8920 H   0  0  0  0  0  0  0  0  0  0  0  0
   37.7500   33.1880   38.0890 H   0  0  0  0  0  0  0  0  0  0  0  0
   40.6170   34.1100   39.2220 C   0  0  0  0  0  0  0  0  0  0  0  0
   40.4240   32.8900   38.6100 C   0  0  0  0  0  0  0  0  0  0  0  0
   41.2890   32.4940   37.6130 C   0  0  0  0  0  0  0  0  0  0  0  0
   41.1750   31.5640   37.1190 H   0  0  0  0  0  0  0  0  0  0  0  0
   42.3620   33.2820   37.1900 C   0  0  0  0  0  0  0  0  0  0  0  0
   43.0370   32.9860   36.4200 H   0  0  0  0  0  0  0  0  0  0  0  0
   42.5730   34.5120   37.7900 C   0  0  0  0  0  3  0  0  0  0  0  0
   41.6930   34.8940   38.7920 C   0  0  0  0  0  3  0  0  0  0  0  0
   39.0920   35.0130   41.1090 N   0  0  0  0  0  0  0  0  0  0  0  0
   39.7650   34.6070   40.2710 C   0  0  0  0  0  0  0  0  0  0  0  0
  2  1  1  0  0  0  0
  2  8  1  0  0  0  0
  3  2  2  0  0  0  0
  4  3  1  0  0  0  0
  4  5  2  0  0  0  0
  5  6  1  0  0  0  0
  6  8  2  0  0  0  0
  6  7  1  0  0  0  0
  8 10  1  0  0  0  0
  9  4  1  0  0  0  0
 11 12  1  0  0  0  0
 11  5  1  0  0  0  0
 12 21  1  0  0  0  0
 13 22  1  0  0  0  0
 13 12  2  0  0  0  0
 14 13  1  0  0  0  0
 15 14  2  0  0  0  0
 16 15  1  0  0  0  0
 17 16  2  0  0  0  0
 17 18  1  0  0  0  0
 18 19  2  0  0  0  0
 19 14  1  0  0  0  0
 19 20  1  0  0  0  0
 20 11  2  0  0  0  0
 23 16  1  0  0  0  0
 24 17  1  0  0  0  0
 25 18  1  0  0  0  0
 26 20  1  0  0  0  0
 27 32  1  0  0  0  0
 28 29  1  0  0  0  0
 28 27  2  0  0  0  0
 29 30  2  0  0  0  0
 30 31  1  0  0  0  0
 31  3  1  0  0  0  0
 32 31  2  0  0  0  0
 33 27  1  0  0  0  0
 34 28  1  0  0  0  0
 35 44  1  0  0  0  0
 36 29  1  0  0  0  0
 36 35  2  0  0  0  0
 37 36  1  0  0  0  0
 38 37  1  0  0  0  0
 39 37  2  0  0  0  0
 39 41  1  0  0  0  0
 40 39  1  0  0  0  0
 41 42  2  0  0  0  0
 42 35  1  0  0  0  0
 44 43  3  0  0  0  0
M  END
>  <minimizedAffinity>
-6.84648275

$$$$

 OpenBabel03252506073D

 44 48  0  0  0  0  0  0  0  0999 V2000
   39.5670   34.6950   39.9060 Cl  0  0  0  0  0  0  0  0  0  0  0  0
   39.1930   33.0600   40.3280 C   0  0  0  0  0  0  0  0  0  0  0  0
   40.2120   32.1520   40.5640 C   0  0  0  0  0  0  0  0  0  0  0  0
   39.7930   30.8780   40.8920 C   0  0  0  0  0  0  0  0  0  0  0  0
   38.4850   30.4690   40.9970 C   0  0  0  0  0  0  0  0  0  0  0  0
   37.5120   31.3960   40.7560 C   0  0  0  0  0  0  0  0  0  0  0  0
   35.8530   30.8410   40.8970 Cl  0  0  0  0  0  0  0  0  0  0  0  0
   37.8570   32.6810   40.4240 C   0  0  0  0  0  0  0  0  0  0  0  0
   40.6090   30.1640   41.0790 H   0  0  0  0  0  0  0  0  0  0  0  0
   37.0610   33.3920   40.2390 H   0  0  0  0  0  0  0  0  0  0  0  0
   38.2600   29.0630   41.3600 C   0  0  0  0  0  0  0  0  0  0  0  0
   38.4800   28.5650   42.6240 C   0  0  0  0  0  0  0  0  0  0  0  0
   38.2770   27.2540   42.9830 C   0  0  0  0  0  0  0  0  0  0  0  0
   37.8220   26.3650   42.0200 C   0  0  0  0  0  0  0  0  0  0  0  0
   37.6320   25.0870   42.3980 N   0  0  0  0  0  0  0  0  0  0  0  0
   37.1940   24.1510   41.5400 C   0  0  0  0  0  0  0  0  0  0  0  0
   36.9450   24.5650   40.2360 C   0  0  0  0  0  0  0  0  0  0  0  0
   37.1400   25.8680   39.8520 C   0  0  0  0  0  0  0  0  0  0  0  0
   37.5910   26.8160   40.7520 C   0  0  0  0  0  0  0  0  0  0  0  0
   37.8030   28.1380   40.4180 C   0  0  0  0  0  0  0  0  0  0  0  0
   38.8360   29.2540   43.3800 H   0  0  0  0  0  0  0  0  0  0  0  0
   38.4740   26.9470   43.9940 H   0  0  0  0  0  0  0  0  0  0  0  0
   37.0480   23.1340   41.8630 H   0  0  0  0  0  0  0  0  0  0  0  0
   36.5910   23.7950   39.5550 H   0  0  0  0  0  0  0  0  0  0  0  0
   36.9420   26.1790   38.8350 H   0  0  0  0  0  0  0  0  0  0  0  0
   37.6120   28.4690   39.4060 H   0  0  0  0  0  0  0  0  0  0  0  0
   43.5460   32.6990   39.2160 C   0  0  0  0  0  0  0  0  0  0  0  0
   44.2580   33.1930   40.3190 C   0  0  0  0  0  0  0  0  0  0  0  0
   43.5830   33.3410   41.5440 C   0  0  0  0  0  0  0  0  0  0  0  0
   42.2850   32.9810   41.5290 N   0  0  0  0  0  0  0  0  0  0  0  0
   41.6130   32.5120   40.4740 C   0  0  0  0  0  0  0  0  0  0  0  0
   42.2390   32.3650   39.3020 N   0  0  0  0  0  0  0  0  0  0  0  0
   44.0990   32.6060   38.3150 H   0  0  0  0  0  0  0  0  0  0  0  0
   45.2810   33.4520   40.2400 H   0  0  0  0  0  0  0  0  0  0  0  0
   44.8250   32.9250   43.5820 C   0  0  0  0  0  0  0  0  0  0  0  0
   44.2310   33.8430   42.7420 C   0  0  0  0  0  0  0  0  0  0  0  0
   44.2770   35.1800   43.0680 C   0  0  0  0  0  0  0  0  0  0  0  0
   43.8330   35.9160   42.4490 H   0  0  0  0  0  0  0  0  0  0  0  0
   44.9040   35.6540   44.2230 C   0  0  0  0  0  0  0  0  0  0  0  0
   44.9440   36.6860   44.4850 H   0  0  0  0  0  0  0  0  0  0  0  0
   45.5060   34.7500   45.0820 C   0  0  0  0  0  3  0  0  0  0  0  0
   45.4500   33.4070   44.7380 C   0  0  0  0  0  3  0  0  0  0  0  0
   44.8290   30.3760   43.1300 N   0  0  0  0  0  0  0  0  0  0  0  0
   44.8270   31.5090   43.3240 C   0  0  0  0  0  0  0  0  0  0  0  0
  1  2  1  0  0  0  0
  2  8  2  0  0  0  0
  2  3  1  0  0  0  0
  3  4  2  0  0  0  0
  4  5  1  0  0  0  0
  4  9  1  0  0  0  0
  5 11  1  0  0  0  0
  6  7  1  0  0  0  0
  6  5  2  0  0  0  0
  8  6  1  0  0  0  0
 10  8  1  0  0  0  0
 11 12  1  0  0  0  0
 12 13  2  0  0  0  0
 12 21  1  0  0  0  0
 13 22  1  0  0  0  0
 14 15  1  0  0  0  0
 14 13  1  0  0  0  0
 16 23  1  0  0  0  0
 16 15  2  0  0  0  0
 17 16  1  0  0  0  0
 18 17  2  0  0  0  0
 18 19  1  0  0  0  0
 19 14  2  0  0  0  0
 20 19  1  0  0  0  0
 20 11  2  0  0  0  0
 24 17  1  0  0  0  0
 25 18  1  0  0  0  0
 26 20  1  0  0  0  0
 27 32  2  0  0  0  0
 27 28  1  0  0  0  0
 28 29  2  0  0  0  0
 29 36  1  0  0  0  0
 30 29  1  0  0  0  0
 31  3  1  0  0  0  0
 31 30  2  0  0  0  0
 32 31  1  0  0  0  0
 33 27  1  0  0  0  0
 34 28  1  0  0  0  0
 35 42  1  0  0  0  0
 36 37  1  0  0  0  0
 36 35  2  0  0  0  0
 37 39  2  0  0  0  0
 38 37  1  0  0  0  0
 39 40  1  0  0  0  0
 39 41  1  0  0  0  0
 42 41  2  0  0  0  0
 43 44  3  0  0  0  0
 44 35  1  0  0  0  0
M  END
>  <minimizedAffinity>
-6.8325963

$$$$
