
 OpenBabel03252505043D

 35 37  0  0  1  0  0  0  0  0999 V2000
   44.6280   35.5380   44.6140 C   0  0  0  0  0  0  0  0  0  0  0  0
   45.3040   35.5210   43.3670 C   0  0  0  0  0  0  0  0  0  0  0  0
   46.3730   34.6020   43.2110 C   0  0  0  0  0  0  0  0  0  0  0  0
   46.6960   33.7910   44.2490 N   0  0  0  0  0  0  0  0  0  0  0  0
   46.0180   33.8470   45.4190 C   0  0  0  0  0  0  0  0  0  0  0  0
   44.9890   34.7120   45.6100 N   0  0  0  0  0  0  0  0  0  0  0  0
   43.8020   36.2000   44.8330 H   0  0  0  0  0  0  0  0  0  0  0  0
   44.8980   36.2300   42.6990 H   0  0  0  0  0  0  0  0  0  0  0  0
   46.4430   32.9220   46.5060 C   0  0  2  0  0  0  0  0  0  0  0  0
   46.9680   31.6900   45.8510 C   0  0  0  0  0  0  0  0  0  0  0  0
   46.0890   30.5050   45.8840 C   0  0  0  0  0  0  0  0  0  0  0  0
   45.7550   30.2690   47.3450 C   0  0  0  0  0  0  0  0  0  0  0  0
   44.9660   31.3600   47.9340 C   0  0  0  0  0  0  0  0  0  0  0  0
   45.3630   32.7320   47.4630 C   0  0  0  0  0  0  0  0  0  0  0  0
   47.2760   33.4510   47.0170 H   0  0  0  0  0  0  0  0  0  0  0  0
   47.9290   31.4180   46.3330 H   0  0  0  0  0  0  0  0  0  0  0  0
   47.2360   31.9140   44.7740 H   0  0  0  0  0  0  0  0  0  0  0  0
   46.6770   29.6190   45.5700 H   0  0  0  0  0  0  0  0  0  0  0  0
   45.1880   30.5410   45.2700 H   0  0  0  0  0  0  0  0  0  0  0  0
   46.6240   29.9440   47.9120 H   0  0  0  0  0  0  0  0  0  0  0  0
   45.0350   29.4030   47.3190 H   0  0  0  0  0  0  0  0  0  0  0  0
   44.1660   31.3820   48.6270 H   0  0  0  0  0  0  0  0  0  0  0  0
   44.6680   33.8720   47.9600 N   0  0  0  0  0  0  0  0  0  0  0  0
   43.7080   33.8450   47.5850 H   0  0  0  0  0  0  0  0  0  0  0  0
   45.0990   34.5980   48.6000 H   0  0  0  0  0  0  0  0  0  0  0  0
   46.6430   33.9380   40.8280 C   0  0  0  0  0  0  0  0  0  0  0  0
   47.0370   34.6500   41.9410 C   0  0  0  0  0  0  0  0  0  0  0  0
   48.1620   35.4080   41.7080 C   0  0  0  0  0  0  0  0  0  0  0  0
   48.6080   36.0240   42.4540 H   0  0  0  0  0  0  0  0  0  0  0  0
   48.8260   35.4570   40.5030 C   0  0  0  0  0  0  0  0  0  0  0  0
   49.7140   36.0680   40.3500 H   0  0  0  0  0  0  0  0  0  0  0  0
   48.3920   34.7320   39.4300 C   0  0  0  0  0  3  0  0  0  0  0  0
   47.2860   33.9640   39.5980 C   0  0  0  0  0  3  0  0  0  0  0  0
   44.6030   32.3650   40.9580 N   0  0  0  0  0  0  0  0  0  0  0  0
   45.5030   33.0730   40.9010 C   0  0  0  0  0  0  0  0  0  0  0  0
  1  7  1  0  0  0  0
  1  6  1  0  0  0  0
  2  1  2  0  0  0  0
  3  2  1  0  0  0  0
  3  4  2  0  0  0  0
  4  5  1  0  0  0  0
  5  6  2  0  0  0  0
  5  9  1  0  0  0  0
  8  2  1  0  0  0  0
  9 15  1  1  0  0  0
  9 14  1  0  0  0  0
 10 11  1  0  0  0  0
 10 16  1  0  0  0  0
 10  9  1  0  0  0  0
 11 12  1  0  0  0  0
 12 20  1  0  0  0  0
 12 13  1  0  0  0  0
 13 22  1  0  0  0  0
 14 13  2  0  0  0  0
 14 23  1  0  0  0  0
 17 10  1  0  0  0  0
 18 11  1  0  0  0  0
 19 11  1  0  0  0  0
 21 12  1  0  0  0  0
 23 25  1  0  0  0  0
 24 23  1  0  0  0  0
 26 35  1  0  0  0  0
 26 27  1  0  0  0  0
 27  3  1  0  0  0  0
 28 27  2  0  0  0  0
 28 29  1  0  0  0  0
 30 28  1  0  0  0  0
 31 30  1  0  0  0  0
 32 33  1  0  0  0  0
 32 30  2  0  0  0  0
 33 26  2  0  0  0  0
 35 34  3  0  0  0  0
M  END
>  <minimizedAffinity>
-6.7580657

>  <minimizedRMSD>
1.06823587

$$$$
