
 OpenBabel03242516053D

 37 40  0  0  0  0  0  0  0  0999 V2000
   45.1910   33.0450   41.1720 Cl  0  0  0  0  0  0  0  0  0  0  0  0
   46.6240   34.0330   41.0550 C   0  0  0  0  0  0  0  0  0  0  0  0
   47.0210   34.8740   42.0610 C   0  0  0  0  0  0  0  0  0  0  0  0
   48.1610   35.5940   41.8450 C   0  0  0  0  0  0  0  0  0  0  0  0
   48.8850   35.5100   40.7130 C   0  0  0  0  0  0  0  0  0  0  0  0
   48.4920   34.6730   39.7090 C   0  0  0  0  0  0  0  0  0  0  0  0
   47.3320   33.9200   39.8920 C   0  0  0  0  0  0  0  0  0  0  0  0
   48.4900   36.2660   42.6300 H   0  0  0  0  0  0  0  0  0  0  0  0
   49.7840   36.0630   40.5140 H   0  0  0  0  0  0  0  0  0  0  0  0
   49.0410   34.5710   38.7830 H   0  0  0  0  0  0  0  0  0  0  0  0
   44.4500   35.9290   44.6520 C   0  0  0  0  0  0  0  0  0  0  0  0
   45.2300   35.8950   43.4920 C   0  0  0  0  0  0  0  0  0  0  0  0
   46.1980   34.9260   43.2620 C   0  0  0  0  0  0  0  0  0  0  0  0
   46.3250   34.0150   44.2600 N   0  0  0  0  0  0  0  0  0  0  0  0
   45.5740   34.0540   45.3690 C   0  0  0  0  0  0  0  0  0  0  0  0
   44.6540   34.9930   45.5610 N   0  0  0  0  0  0  0  0  0  0  0  0
   43.7140   36.7240   44.7490 H   0  0  0  0  0  0  0  0  0  0  0  0
   45.0870   36.6520   42.7220 H   0  0  0  0  0  0  0  0  0  0  0  0
   45.8290   33.2360   46.0440 H   0  0  0  0  0  0  0  0  0  0  0  0
   46.9040   33.0100   38.8010 C   0  0  0  0  0  0  0  0  0  0  0  0
   47.2110   31.6450   38.7940 C   0  0  0  0  0  0  0  0  0  0  0  0
   46.4540   31.0420   37.2590 S   0  0  0  0  0  0  0  0  0  0  0  0
   45.8130   32.8040   36.8460 C   0  0  0  0  0  0  0  0  0  0  0  0
   46.2100   33.3460   37.7390 N   0  0  0  0  0  0  0  0  0  0  0  0
   45.0610   33.1700   35.6950 N   0  0  0  0  0  0  0  0  0  0  0  0
   44.0870   32.8070   35.7910 H   0  0  0  0  0  0  0  0  0  0  0  0
   45.4480   33.7130   34.8990 H   0  0  0  0  0  0  0  0  0  0  0  0
   49.3160   30.7280   39.5710 C   0  0  0  0  0  0  0  0  0  0  0  0
   47.9460   30.8260   39.7380 C   0  0  0  0  0  0  0  0  0  0  0  0
   47.3630   30.1420   40.7870 C   0  0  0  0  0  0  0  0  0  0  0  0
   46.3030   30.2150   40.9190 H   0  0  0  0  0  0  0  0  0  0  0  0
   48.1390   29.3740   41.6530 C   0  0  0  0  0  0  0  0  0  0  0  0
   47.6560   28.8380   42.4820 H   0  0  0  0  0  0  0  0  0  0  0  0
   49.5100   29.2880   41.4700 C   0  0  0  0  0  0  0  0  0  0  0  0
   50.1100   29.9760   40.4140 C   0  0  0  0  0  0  0  0  0  0  0  0
   50.5430   31.9780   37.6340 N   0  0  0  0  0  0  0  0  0  0  0  0
   49.9940   31.4150   38.4980 C   0  0  0  0  0  0  0  0  0  0  0  0
  2  1  1  0  0  0  0
  2  3  1  0  0  0  0
  3 13  1  0  0  0  0
  4  3  2  0  0  0  0
  4  8  1  0  0  0  0
  5  4  1  0  0  0  0
  6  7  1  0  0  0  0
  6  5  2  0  0  0  0
  7  2  2  0  0  0  0
  9  5  1  0  0  0  0
 10  6  1  0  0  0  0
 11 17  1  0  0  0  0
 11 16  1  0  0  0  0
 12 11  2  0  0  0  0
 13 12  1  0  0  0  0
 13 14  2  0  0  0  0
 14 15  1  0  0  0  0
 15 16  2  0  0  0  0
 15 19  1  0  0  0  0
 18 12  1  0  0  0  0
 20  7  1  0  0  0  0
 21 20  2  0  0  0  0
 21 29  1  0  0  0  0
 22 21  1  0  0  0  0
 23 22  1  0  0  0  0
 23 24  2  0  0  0  0
 24 20  1  0  0  0  0
 25 26  1  0  0  0  0
 25 23  1  0  0  0  0
 27 25  1  0  0  0  0
 28 29  2  0  0  0  0
 28 35  1  0  0  0  0
 29 30  1  0  0  0  0
 30 31  1  0  0  0  0
 30 32  2  0  0  0  0
 32 33  1  0  0  0  0
 34 32  1  0  0  0  0
 35 34  2  0  0  0  0
 36 37  3  0  0  0  0
 37 28  1  0  0  0  0
M  END
>  <minimizedAffinity>
-6.02787209

>  <minimizedRMSD>
1.49117637

$$$$
