
 OpenBabel03252500363D

 47 50  0  0  1  0  0  0  0  0999 V2000
   45.6700   35.4740   43.3640 C   0  0  1  0  0  0  0  0  0  0  0  0
   44.5640   34.8900   43.9870 C   0  0  0  0  0  0  0  0  0  0  0  0
   45.8450   34.6440   44.6700 C   0  0  1  0  0  0  0  0  0  0  0  0
   45.8860   36.5740   43.4800 H   0  0  0  0  0  0  0  0  0  0  0  0
   43.7940   35.5370   44.4800 H   0  0  0  0  0  0  0  0  0  0  0  0
   44.0700   33.9850   43.5310 H   0  0  0  0  0  0  0  0  0  0  0  0
   46.2320   35.2790   45.4800 H   0  0  0  0  0  0  0  0  0  0  0  0
   45.6500   34.1260   41.2610 C   0  0  0  0  0  0  0  0  0  0  0  0
   46.3880   34.9670   42.1550 C   0  0  0  0  0  0  0  0  0  0  0  0
   47.6860   35.2680   41.8880 C   0  0  0  0  0  0  0  0  0  0  0  0
   48.2230   34.7290   40.7400 N   0  0  0  0  0  0  0  0  0  0  0  0
   47.5160   33.9380   39.9060 C   0  0  0  0  0  0  0  0  0  0  0  0
   46.2010   33.6110   40.1410 N   0  0  0  0  0  0  0  0  0  0  0  0
   44.6340   33.8900   41.4710 H   0  0  0  0  0  0  0  0  0  0  0  0
   48.2510   35.8940   42.5460 H   0  0  0  0  0  0  0  0  0  0  0  0
   49.0200   32.3320   38.7960 C   0  0  0  0  0  0  0  0  0  0  0  0
   48.1670   33.4120   38.7120 C   0  0  0  0  0  0  0  0  0  0  0  0
   47.9000   34.0310   37.5080 C   0  0  0  0  0  0  0  0  0  0  0  0
   47.2510   34.8690   37.3720 H   0  0  0  0  0  0  0  0  0  0  0  0
   48.5040   33.5520   36.3560 C   0  0  0  0  0  0  0  0  0  0  0  0
   48.3620   33.9670   35.3530 H   0  0  0  0  0  0  0  0  0  0  0  0
   49.3770   32.4600   36.3850 C   0  0  0  0  0  0  0  0  0  0  0  0
   49.6140   31.8730   37.6170 C   0  0  0  0  0  0  0  0  0  0  0  0
   49.5110   31.2080   41.0750 N   0  0  0  0  0  0  0  0  0  0  0  0
   49.2810   31.7090   40.0570 C   0  0  0  0  0  0  0  0  0  0  0  0
   46.4920   33.3120   44.5970 C   0  0  0  0  0  0  0  0  0  0  0  0
   47.5640   33.4310   44.8180 H   0  0  0  0  0  0  0  0  0  0  0  0
   46.3980   32.8740   43.5820 H   0  0  0  0  0  0  0  0  0  0  0  0
   45.8990   32.4970   45.5950 N   0  0  0  0  0  0  0  0  0  0  0  0
   45.9240   32.9440   46.9200 C   0  0  0  0  0  0  0  0  0  0  0  0
   47.1790   32.4450   47.6630 C   0  0  0  0  0  0  0  0  0  0  0  0
   47.0340   30.9520   47.7910 C   0  0  0  0  0  0  0  0  0  0  0  0
   46.9660   30.4060   46.3930 C   0  0  0  0  0  0  0  0  0  0  0  0
   45.9890   31.1030   45.4870 C   0  0  2  0  0  0  0  0  0  0  0  0
   45.1000   32.3700   47.4470 H   0  0  0  0  0  0  0  0  0  0  0  0
   45.6750   33.9780   47.1480 H   0  0  0  0  0  0  0  0  0  0  0  0
   48.0830   32.6810   47.0920 H   0  0  0  0  0  0  0  0  0  0  0  0
   47.1550   32.9220   48.6580 H   0  0  0  0  0  0  0  0  0  0  0  0
   47.9820   30.5700   48.2360 H   0  0  0  0  0  0  0  0  0  0  0  0
   46.1840   30.6660   48.4210 H   0  0  0  0  0  0  0  0  0  0  0  0
   47.9490   30.3940   45.9270 H   0  0  0  0  0  0  0  0  0  0  0  0
   46.6420   29.3320   46.4740 H   0  0  0  0  0  0  0  0  0  0  0  0
   44.9790   30.6600   45.7120 H   0  0  0  0  0  0  0  0  0  0  0  0
   46.3120   30.6640   44.0660 C   0  0  0  0  0  0  0  0  0  0  0  0
   47.3610   30.9380   43.8000 H   0  0  0  0  0  0  0  0  0  0  0  0
   46.1450   29.5680   43.9810 H   0  0  0  0  0  0  0  0  0  0  0  0
   45.5730   31.1220   43.3720 H   0  0  0  0  0  0  0  0  0  0  0  0
  1  4  1  1  0  0  0
  1  2  1  0  0  0  0
  1  3  1  0  0  0  0
  2  5  1  0  0  0  0
  2  3  1  0  0  0  0
  3  7  1  1  0  0  0
  6  2  1  0  0  0  0
  8 14  1  0  0  0  0
  8  9  1  0  0  0  0
  9  1  1  0  0  0  0
 10  9  2  0  0  0  0
 10 15  1  0  0  0  0
 11 10  1  0  0  0  0
 12 13  1  0  0  0  0
 12 11  2  0  0  0  0
 13  8  2  0  0  0  0
 16 25  1  0  0  0  0
 17 16  1  0  0  0  0
 17 12  1  0  0  0  0
 18 17  2  0  0  0  0
 19 18  1  0  0  0  0
 20 22  2  0  0  0  0
 20 18  1  0  0  0  0
 21 20  1  0  0  0  0
 22 23  1  0  0  0  0
 23 16  2  0  0  0  0
 25 24  3  0  0  0  0
 26  3  1  0  0  0  0
 26 27  1  0  0  0  0
 26 29  1  0  0  0  0
 28 26  1  0  0  0  0
 29 30  1  0  0  0  0
 30 36  1  0  0  0  0
 30 35  1  0  0  0  0
 30 31  1  0  0  0  0
 31 32  1  0  0  0  0
 31 38  1  0  0  0  0
 32 39  1  0  0  0  0
 32 40  1  0  0  0  0
 33 42  1  0  0  0  0
 33 32  1  0  0  0  0
 34 29  1  0  0  0  0
 34 43  1  1  0  0  0
 34 33  1  0  0  0  0
 37 31  1  0  0  0  0
 41 33  1  0  0  0  0
 44 34  1  0  0  0  0
 45 44  1  0  0  0  0
 46 44  1  0  0  0  0
 47 44  1  0  0  0  0
M  END
>  <minimizedAffinity>
-5.05220747

>  <minimizedRMSD>
2.83288264

$$$$
