
 OpenBabel03242516073D

 37 40  0  0  0  0  0  0  0  0999 V2000
   40.6800   30.5120   38.5380 Cl  0  0  0  0  0  0  0  0  0  0  0  0
   39.4070   31.5950   39.0400 C   0  0  0  0  0  0  0  0  0  0  0  0
   39.6610   32.8000   39.6410 C   0  0  0  0  0  0  0  0  0  0  0  0
   38.5770   33.5530   39.9870 C   0  0  0  0  0  0  0  0  0  0  0  0
   37.3060   33.1660   39.7660 C   0  0  0  0  0  0  0  0  0  0  0  0
   37.0500   31.9670   39.1680 C   0  0  0  0  0  0  0  0  0  0  0  0
   38.1320   31.1670   38.7990 C   0  0  0  0  0  0  0  0  0  0  0  0
   38.7580   34.5100   40.4640 H   0  0  0  0  0  0  0  0  0  0  0  0
   36.4340   33.7360   40.0270 H   0  0  0  0  0  0  0  0  0  0  0  0
   36.0480   31.6140   38.9690 H   0  0  0  0  0  0  0  0  0  0  0  0
   43.1720   34.1610   39.1330 C   0  0  0  0  0  0  0  0  0  0  0  0
   41.8350   33.8180   38.9090 C   0  0  0  0  0  0  0  0  0  0  0  0
   41.0550   33.1660   39.8560 C   0  0  0  0  0  0  0  0  0  0  0  0
   41.6990   32.8900   41.0170 N   0  0  0  0  0  0  0  0  0  0  0  0
   42.9810   33.2220   41.2250 C   0  0  0  0  0  0  0  0  0  0  0  0
   43.7030   33.8460   40.3000 N   0  0  0  0  0  0  0  0  0  0  0  0
   43.7080   34.6710   38.3350 H   0  0  0  0  0  0  0  0  0  0  0  0
   41.3660   34.0630   37.9570 H   0  0  0  0  0  0  0  0  0  0  0  0
   43.3100   32.9150   42.2180 H   0  0  0  0  0  0  0  0  0  0  0  0
   37.8540   29.8630   38.1490 C   0  0  0  0  0  0  0  0  0  0  0  0
   37.7160   28.6740   38.8740 C   0  0  0  0  0  0  0  0  0  0  0  0
   37.3920   27.4260   37.5960 S   0  0  0  0  0  0  0  0  0  0  0  0
   37.4990   28.7620   36.2210 C   0  0  0  0  0  0  0  0  0  0  0  0
   37.7070   29.6530   36.8620 N   0  0  0  0  0  0  0  0  0  0  0  0
   37.3400   28.5370   34.8250 N   0  0  0  0  0  0  0  0  0  0  0  0
   36.3320   28.3630   34.6180 H   0  0  0  0  0  0  0  0  0  0  0  0
   38.1240   28.5500   34.1430 H   0  0  0  0  0  0  0  0  0  0  0  0
   36.6280   28.5110   41.0340 C   0  0  0  0  0  0  0  0  0  0  0  0
   37.7940   28.4070   40.2970 C   0  0  0  0  0  0  0  0  0  0  0  0
   38.9570   28.0580   40.9550 C   0  0  0  0  0  0  0  0  0  0  0  0
   39.8620   27.9770   40.3880 H   0  0  0  0  0  0  0  0  0  0  0  0
   38.9510   27.8170   42.3280 C   0  0  0  0  0  0  0  0  0  0  0  0
   39.8870   27.5400   42.8340 H   0  0  0  0  0  0  0  0  0  0  0  0
   37.7730   27.9260   43.0500 C   0  0  0  0  0  3  0  0  0  0  0  0
   36.5920   28.2770   42.3940 C   0  0  0  0  0  3  0  0  0  0  0  0
   34.3660   29.1680   39.9080 N   0  0  0  0  0  0  0  0  0  0  0  0
   35.3760   28.8710   40.4140 C   0  0  0  0  0  0  0  0  0  0  0  0
  1  2  1  0  0  0  0
  2  3  1  0  0  0  0
  3 13  1  0  0  0  0
  3  4  2  0  0  0  0
  4  8  1  0  0  0  0
  5  4  1  0  0  0  0
  5  9  1  0  0  0  0
  6  5  2  0  0  0  0
  7  2  2  0  0  0  0
  7  6  1  0  0  0  0
 10  6  1  0  0  0  0
 11 16  1  0  0  0  0
 12 11  2  0  0  0  0
 12 13  1  0  0  0  0
 13 14  2  0  0  0  0
 14 15  1  0  0  0  0
 15 19  1  0  0  0  0
 16 15  2  0  0  0  0
 17 11  1  0  0  0  0
 18 12  1  0  0  0  0
 20  7  1  0  0  0  0
 20 21  2  0  0  0  0
 21 29  1  0  0  0  0
 22 21  1  0  0  0  0
 23 24  2  0  0  0  0
 23 22  1  0  0  0  0
 24 20  1  0  0  0  0
 25 23  1  0  0  0  0
 26 25  1  0  0  0  0
 27 25  1  0  0  0  0
 28 35  1  0  0  0  0
 29 30  1  0  0  0  0
 29 28  2  0  0  0  0
 30 32  2  0  0  0  0
 31 30  1  0  0  0  0
 32 33  1  0  0  0  0
 32 34  1  0  0  0  0
 35 34  2  0  0  0  0
 36 37  3  0  0  0  0
 37 28  1  0  0  0  0
M  END
>  <minimizedAffinity>
-6.10199642

$$$$

 OpenBabel03242516073D

 37 40  0  0  0  0  0  0  0  0999 V2000
   40.5560   30.4570   38.3300 Cl  0  0  0  0  0  0  0  0  0  0  0  0
   39.2820   31.4110   39.0460 C   0  0  0  0  0  0  0  0  0  0  0  0
   39.5290   32.5820   39.7150 C   0  0  0  0  0  0  0  0  0  0  0  0
   38.4450   33.2330   40.2290 C   0  0  0  0  0  0  0  0  0  0  0  0
   37.1820   32.7800   40.1070 C   0  0  0  0  0  0  0  0  0  0  0  0
   36.9350   31.6150   39.4410 C   0  0  0  0  0  0  0  0  0  0  0  0
   38.0160   30.9190   38.9010 C   0  0  0  0  0  0  0  0  0  0  0  0
   38.6200   34.1610   40.7620 H   0  0  0  0  0  0  0  0  0  0  0  0
   36.3110   33.2690   40.5000 H   0  0  0  0  0  0  0  0  0  0  0  0
   35.9390   31.2120   39.3170 H   0  0  0  0  0  0  0  0  0  0  0  0
   43.0580   33.1830   40.9870 C   0  0  0  0  0  0  0  0  0  0  0  0
   41.7300   32.7490   40.9070 C   0  0  0  0  0  0  0  0  0  0  0  0
   40.9130   33.0230   39.8170 C   0  0  0  0  0  0  0  0  0  0  0  0
   41.5110   33.7470   38.8380 N   0  0  0  0  0  0  0  0  0  0  0  0
   42.7830   34.1590   38.9230 C   0  0  0  0  0  0  0  0  0  0  0  0
   43.5420   33.8810   39.9770 N   0  0  0  0  0  0  0  0  0  0  0  0
   43.6250   32.9220   41.8780 H   0  0  0  0  0  0  0  0  0  0  0  0
   41.2990   32.1710   41.7230 H   0  0  0  0  0  0  0  0  0  0  0  0
   43.0730   34.7230   38.0350 H   0  0  0  0  0  0  0  0  0  0  0  0
   37.7480   29.6520   38.1780 C   0  0  0  0  0  0  0  0  0  0  0  0
   37.5530   28.4340   38.8380 C   0  0  0  0  0  0  0  0  0  0  0  0
   37.2710   27.2540   37.4890 S   0  0  0  0  0  0  0  0  0  0  0  0
   37.4680   28.6480   36.1850 C   0  0  0  0  0  0  0  0  0  0  0  0
   37.6600   29.5050   36.8760 N   0  0  0  0  0  0  0  0  0  0  0  0
   37.3740   28.4920   34.7740 N   0  0  0  0  0  0  0  0  0  0  0  0
   36.3750   28.3480   34.5100 H   0  0  0  0  0  0  0  0  0  0  0  0
   38.1900   28.5200   34.1320 H   0  0  0  0  0  0  0  0  0  0  0  0
   38.7150   27.5570   40.7770 C   0  0  0  0  0  0  0  0  0  0  0  0
   37.5570   28.1000   40.2490 C   0  0  0  0  0  0  0  0  0  0  0  0
   36.4800   28.2930   41.0920 C   0  0  0  0  0  0  0  0  0  0  0  0
   35.5810   28.7130   40.6870 H   0  0  0  0  0  0  0  0  0  0  0  0
   36.5610   27.9460   42.4390 C   0  0  0  0  0  0  0  0  0  0  0  0
   35.6930   28.1070   43.0940 H   0  0  0  0  0  0  0  0  0  0  0  0
   37.7300   27.4020   42.9500 C   0  0  0  0  0  3  0  0  0  0  0  0
   38.8240   27.2050   42.1070 C   0  0  0  0  0  3  0  0  0  0  0  0
   40.8200   27.1370   39.2910 N   0  0  0  0  0  0  0  0  0  0  0  0
   39.8800   27.3290   39.9560 C   0  0  0  0  0  0  0  0  0  0  0  0
  1  2  1  0  0  0  0
  2  3  1  0  0  0  0
  3 13  1  0  0  0  0
  3  4  2  0  0  0  0
  4  8  1  0  0  0  0
  5  4  1  0  0  0  0
  5  9  1  0  0  0  0
  6  5  2  0  0  0  0
  7  2  2  0  0  0  0
  7  6  1  0  0  0  0
 10  6  1  0  0  0  0
 11 17  1  0  0  0  0
 12 11  1  0  0  0  0
 12 18  1  0  0  0  0
 13 12  2  0  0  0  0
 14 15  2  0  0  0  0
 14 13  1  0  0  0  0
 15 16  1  0  0  0  0
 16 11  2  0  0  0  0
 19 15  1  0  0  0  0
 20 21  2  0  0  0  0
 20  7  1  0  0  0  0
 21 29  1  0  0  0  0
 22 21  1  0  0  0  0
 23 24  2  0  0  0  0
 23 22  1  0  0  0  0
 24 20  1  0  0  0  0
 25 23  1  0  0  0  0
 26 25  1  0  0  0  0
 27 25  1  0  0  0  0
 28 35  1  0  0  0  0
 29 28  2  0  0  0  0
 29 30  1  0  0  0  0
 30 32  2  0  0  0  0
 31 30  1  0  0  0  0
 32 34  1  0  0  0  0
 32 33  1  0  0  0  0
 35 34  2  0  0  0  0
 36 37  3  0  0  0  0
 37 28  1  0  0  0  0
M  END
>  <minimizedAffinity>
-5.75744724

$$$$

 OpenBabel03242516073D

 37 40  0  0  0  0  0  0  0  0999 V2000
   39.8450   26.7370   40.5910 Cl  0  0  0  0  0  0  0  0  0  0  0  0
   38.6250   27.1110   41.7810 C   0  0  0  0  0  0  0  0  0  0  0  0
   37.5180   26.3260   41.9700 C   0  0  0  0  0  0  0  0  0  0  0  0
   36.6380   26.7280   42.9330 C   0  0  0  0  0  0  0  0  0  0  0  0
   36.8130   27.8350   43.6800 C   0  0  0  0  0  0  0  0  0  0  0  0
   37.9150   28.6190   43.4930 C   0  0  0  0  0  0  0  0  0  0  0  0
   38.8380   28.2410   42.5180 C   0  0  0  0  0  0  0  0  0  0  0  0
   35.7550   26.1200   43.0960 H   0  0  0  0  0  0  0  0  0  0  0  0
   36.1400   28.1770   44.4420 H   0  0  0  0  0  0  0  0  0  0  0  0
   38.1000   29.5150   44.0690 H   0  0  0  0  0  0  0  0  0  0  0  0
   36.5250   23.9660   39.1620 C   0  0  0  0  0  0  0  0  0  0  0  0
   36.6470   25.1140   39.9520 C   0  0  0  0  0  0  0  0  0  0  0  0
   37.3790   25.1420   41.1330 C   0  0  0  0  0  0  0  0  0  0  0  0
   37.9640   23.9610   41.4560 N   0  0  0  0  0  0  0  0  0  0  0  0
   37.8420   22.8650   40.6940 C   0  0  0  0  0  0  0  0  0  0  0  0
   37.1360   22.8690   39.5690 N   0  0  0  0  0  0  0  0  0  0  0  0
   35.9320   24.0350   38.2520 H   0  0  0  0  0  0  0  0  0  0  0  0
   36.1560   26.0360   39.6470 H   0  0  0  0  0  0  0  0  0  0  0  0
   38.3860   22.0250   41.1250 H   0  0  0  0  0  0  0  0  0  0  0  0
   40.0360   29.0930   42.3160 C   0  0  0  0  0  0  0  0  0  0  0  0
   40.0490   30.1760   41.4300 C   0  0  0  0  0  0  0  0  0  0  0  0
   41.7320   30.8380   41.5850 S   0  0  0  0  0  0  0  0  0  0  0  0
   42.1770   29.4910   42.8790 C   0  0  0  0  0  0  0  0  0  0  0  0
   41.1970   28.9540   42.9120 N   0  0  0  0  0  0  0  0  0  0  0  0
   43.4340   29.3380   43.5260 N   0  0  0  0  0  0  0  0  0  0  0  0
   43.5500   30.0950   44.2340 H   0  0  0  0  0  0  0  0  0  0  0  0
   44.1100   28.5800   43.3070 H   0  0  0  0  0  0  0  0  0  0  0  0
   39.1260   30.4550   39.2050 C   0  0  0  0  0  0  0  0  0  0  0  0
   39.0200   30.7130   40.5610 C   0  0  0  0  0  0  0  0  0  0  0  0
   37.9480   31.4610   41.0040 C   0  0  0  0  0  0  0  0  0  0  0  0
   37.8630   31.6640   42.0520 H   0  0  0  0  0  0  0  0  0  0  0  0
   36.9980   31.9430   40.1050 C   0  0  0  0  0  0  0  0  0  0  0  0
   36.1510   32.5370   40.4770 H   0  0  0  0  0  0  0  0  0  0  0  0
   37.1210   31.6740   38.7500 C   0  0  0  0  0  3  0  0  0  0  0  0
   38.2000   30.9180   38.2920 C   0  0  0  0  0  3  0  0  0  0  0  0
   41.1000   29.0440   38.2400 N   0  0  0  0  0  0  0  0  0  0  0  0
   40.2200   29.6790   38.6710 C   0  0  0  0  0  0  0  0  0  0  0  0
  1  2  1  0  0  0  0
  2  3  2  0  0  0  0
  2  7  1  0  0  0  0
  3  4  1  0  0  0  0
  4  8  1  0  0  0  0
  4  5  2  0  0  0  0
  5  9  1  0  0  0  0
  6  5  1  0  0  0  0
  6 10  1  0  0  0  0
  7  6  2  0  0  0  0
 11 16  2  0  0  0  0
 11 12  1  0  0  0  0
 12 13  2  0  0  0  0
 13 14  1  0  0  0  0
 13  3  1  0  0  0  0
 15 19  1  0  0  0  0
 15 14  2  0  0  0  0
 16 15  1  0  0  0  0
 17 11  1  0  0  0  0
 18 12  1  0  0  0  0
 20  7  1  0  0  0  0
 20 24  1  0  0  0  0
 21 22  1  0  0  0  0
 21 20  2  0  0  0  0
 22 23  1  0  0  0  0
 23 24  2  0  0  0  0
 23 25  1  0  0  0  0
 25 26  1  0  0  0  0
 27 25  1  0  0  0  0
 28 29  1  0  0  0  0
 29 30  2  0  0  0  0
 29 21  1  0  0  0  0
 30 31  1  0  0  0  0
 32 33  1  0  0  0  0
 32 30  1  0  0  0  0
 34 32  2  0  0  0  0
 35 34  1  0  0  0  0
 35 28  2  0  0  0  0
 36 37  3  0  0  0  0
 37 28  1  0  0  0  0
M  END
>  <minimizedAffinity>
-5.68237352

$$$$

 OpenBabel03242516073D

 37 40  0  0  0  0  0  0  0  0999 V2000
   37.9350   27.6660   39.2770 Cl  0  0  0  0  0  0  0  0  0  0  0  0
   37.7440   27.9540   40.9880 C   0  0  0  0  0  0  0  0  0  0  0  0
   37.7460   29.2140   41.5250 C   0  0  0  0  0  0  0  0  0  0  0  0
   37.5880   29.3040   42.8780 C   0  0  0  0  0  0  0  0  0  0  0  0
   37.4360   28.2310   43.6780 C   0  0  0  0  0  0  0  0  0  0  0  0
   37.4340   26.9750   43.1450 C   0  0  0  0  0  0  0  0  0  0  0  0
   37.5920   26.8420   41.7660 C   0  0  0  0  0  0  0  0  0  0  0  0
   37.5880   30.2930   43.3220 H   0  0  0  0  0  0  0  0  0  0  0  0
   37.3110   28.2700   44.7430 H   0  0  0  0  0  0  0  0  0  0  0  0
   37.3150   26.0840   43.7460 H   0  0  0  0  0  0  0  0  0  0  0  0
   37.0410   32.1600   39.2310 C   0  0  0  0  0  0  0  0  0  0  0  0
   36.8580   31.0850   40.1070 C   0  0  0  0  0  0  0  0  0  0  0  0
   37.9150   30.3370   40.6130 C   0  0  0  0  0  0  0  0  0  0  0  0
   39.1380   30.7380   40.1850 N   0  0  0  0  0  0  0  0  0  0  0  0
   39.3050   31.7690   39.3450 C   0  0  0  0  0  0  0  0  0  0  0  0
   38.2760   32.4660   38.8780 N   0  0  0  0  0  0  0  0  0  0  0  0
   36.1560   32.6900   38.8840 H   0  0  0  0  0  0  0  0  0  0  0  0
   35.8530   30.8050   40.4180 H   0  0  0  0  0  0  0  0  0  0  0  0
   40.3610   31.9290   39.1250 H   0  0  0  0  0  0  0  0  0  0  0  0
   37.5900   25.4760   41.1860 C   0  0  0  0  0  0  0  0  0  0  0  0
   38.7460   24.6910   41.1030 C   0  0  0  0  0  0  0  0  0  0  0  0
   38.1670   23.1550   40.3270 S   0  0  0  0  0  0  0  0  0  0  0  0
   36.3770   23.8410   40.2300 C   0  0  0  0  0  0  0  0  0  0  0  0
   36.5510   24.8430   40.6920 N   0  0  0  0  0  0  0  0  0  0  0  0
   35.2490   23.1590   39.6960 N   0  0  0  0  0  0  0  0  0  0  0  0
   34.9560   22.4080   40.3580 H   0  0  0  0  0  0  0  0  0  0  0  0
   34.8080   23.3930   38.7850 H   0  0  0  0  0  0  0  0  0  0  0  0
   41.0250   25.2810   40.5230 C   0  0  0  0  0  0  0  0  0  0  0  0
   40.1120   24.9540   41.5110 C   0  0  0  0  0  0  0  0  0  0  0  0
   40.5530   24.8980   42.8190 C   0  0  0  0  0  0  0  0  0  0  0  0
   39.8490   24.6440   43.5850 H   0  0  0  0  0  0  0  0  0  0  0  0
   41.8840   25.1650   43.1310 C   0  0  0  0  0  0  0  0  0  0  0  0
   42.2160   25.1150   44.1780 H   0  0  0  0  0  0  0  0  0  0  0  0
   42.7840   25.4910   42.1280 C   0  0  0  0  0  3  0  0  0  0  0  0
   42.3490   25.5510   40.8040 C   0  0  0  0  0  3  0  0  0  0  0  0
   40.3180   25.4160   38.0140 N   0  0  0  0  0  0  0  0  0  0  0  0
   40.6350   25.3600   39.1360 C   0  0  0  0  0  0  0  0  0  0  0  0
  1  2  1  0  0  0  0
  2  3  2  0  0  0  0
  2  7  1  0  0  0  0
  3  4  1  0  0  0  0
  4  8  1  0  0  0  0
  4  5  2  0  0  0  0
  5  9  1  0  0  0  0
  6  5  1  0  0  0  0
  6 10  1  0  0  0  0
  7  6  2  0  0  0  0
 11 12  1  0  0  0  0
 12 18  1  0  0  0  0
 12 13  2  0  0  0  0
 13  3  1  0  0  0  0
 14 13  1  0  0  0  0
 15 14  2  0  0  0  0
 16 11  2  0  0  0  0
 16 15  1  0  0  0  0
 17 11  1  0  0  0  0
 19 15  1  0  0  0  0
 20  7  1  0  0  0  0
 21 20  2  0  0  0  0
 21 29  1  0  0  0  0
 22 21  1  0  0  0  0
 23 22  1  0  0  0  0
 23 24  2  0  0  0  0
 24 20  1  0  0  0  0
 25 23  1  0  0  0  0
 25 26  1  0  0  0  0
 27 25  1  0  0  0  0
 28 35  2  0  0  0  0
 28 29  1  0  0  0  0
 29 30  2  0  0  0  0
 30 32  1  0  0  0  0
 30 31  1  0  0  0  0
 32 33  1  0  0  0  0
 34 32  2  0  0  0  0
 35 34  1  0  0  0  0
 36 37  3  0  0  0  0
 37 28  1  0  0  0  0
M  END
>  <minimizedAffinity>
-5.67772436

$$$$

 OpenBabel03242516073D

 37 40  0  0  0  0  0  0  0  0999 V2000
   38.3650   29.2020   38.0210 Cl  0  0  0  0  0  0  0  0  0  0  0  0
   36.7590   29.1350   38.7010 C   0  0  0  0  0  0  0  0  0  0  0  0
   35.6360   29.0260   37.9230 C   0  0  0  0  0  0  0  0  0  0  0  0
   34.4390   28.9840   38.5780 C   0  0  0  0  0  0  0  0  0  0  0  0
   34.3270   29.0450   39.9190 C   0  0  0  0  0  0  0  0  0  0  0  0
   35.4440   29.1530   40.6950 C   0  0  0  0  0  0  0  0  0  0  0  0
   36.6860   29.1990   40.0630 C   0  0  0  0  0  0  0  0  0  0  0  0
   33.5390   28.9000   37.9800 H   0  0  0  0  0  0  0  0  0  0  0  0
   33.4010   29.0150   40.4620 H   0  0  0  0  0  0  0  0  0  0  0  0
   35.4040   29.2040   41.7740 H   0  0  0  0  0  0  0  0  0  0  0  0
   35.7890   27.7800   34.3370 C   0  0  0  0  0  0  0  0  0  0  0  0
   35.6090   27.8180   35.7240 C   0  0  0  0  0  0  0  0  0  0  0  0
   35.8180   28.9660   36.4790 C   0  0  0  0  0  0  0  0  0  0  0  0
   36.2120   30.0450   35.7590 N   0  0  0  0  0  0  0  0  0  0  0  0
   36.3830   30.0000   34.4300 C   0  0  0  0  0  0  0  0  0  0  0  0
   36.1750   28.8890   33.7330 N   0  0  0  0  0  0  0  0  0  0  0  0
   35.6020   26.8380   33.8250 H   0  0  0  0  0  0  0  0  0  0  0  0
   35.2910   26.9210   36.2530 H   0  0  0  0  0  0  0  0  0  0  0  0
   36.7000   30.9690   34.0420 H   0  0  0  0  0  0  0  0  0  0  0  0
   37.9010   29.3170   40.9070 C   0  0  0  0  0  0  0  0  0  0  0  0
   38.5080   28.2110   41.5140 C   0  0  0  0  0  0  0  0  0  0  0  0
   39.9190   28.9280   42.4010 S   0  0  0  0  0  0  0  0  0  0  0  0
   39.4510   30.6870   41.7890 C   0  0  0  0  0  0  0  0  0  0  0  0
   38.5460   30.4250   41.1890 N   0  0  0  0  0  0  0  0  0  0  0  0
   40.1470   31.8890   42.0940 N   0  0  0  0  0  0  0  0  0  0  0  0
   41.0440   31.9110   41.5600 H   0  0  0  0  0  0  0  0  0  0  0  0
   39.7940   32.6140   42.7490 H   0  0  0  0  0  0  0  0  0  0  0  0
   38.8800   25.9800   40.6410 C   0  0  0  0  0  0  0  0  0  0  0  0
   38.1650   26.8020   41.4940 C   0  0  0  0  0  0  0  0  0  0  0  0
   37.1740   26.2370   42.2720 C   0  0  0  0  0  0  0  0  0  0  0  0
   36.6180   26.8700   42.9330 H   0  0  0  0  0  0  0  0  0  0  0  0
   36.9030   24.8720   42.1960 C   0  0  0  0  0  0  0  0  0  0  0  0
   36.1100   24.4400   42.8230 H   0  0  0  0  0  0  0  0  0  0  0  0
   37.6300   24.0640   41.3350 C   0  0  0  0  0  3  0  0  0  0  0  0
   38.6350   24.6250   40.5460 C   0  0  0  0  0  3  0  0  0  0  0  0
   40.7850   26.9220   39.1240 N   0  0  0  0  0  0  0  0  0  0  0  0
   39.9300   26.5010   39.7990 C   0  0  0  0  0  0  0  0  0  0  0  0
  1  2  1  0  0  0  0
  2  7  1  0  0  0  0
  3  4  1  0  0  0  0
  3  2  2  0  0  0  0
  4  5  2  0  0  0  0
  5  9  1  0  0  0  0
  5  6  1  0  0  0  0
  6 10  1  0  0  0  0
  7  6  2  0  0  0  0
  7 20  1  0  0  0  0
  8  4  1  0  0  0  0
 11 12  1  0  0  0  0
 12 18  1  0  0  0  0
 12 13  2  0  0  0  0
 13  3  1  0  0  0  0
 14 13  1  0  0  0  0
 15 14  2  0  0  0  0
 16 11  2  0  0  0  0
 16 15  1  0  0  0  0
 17 11  1  0  0  0  0
 19 15  1  0  0  0  0
 20 24  1  0  0  0  0
 20 21  2  0  0  0  0
 21 22  1  0  0  0  0
 23 25  1  0  0  0  0
 23 22  1  0  0  0  0
 24 23  2  0  0  0  0
 25 27  1  0  0  0  0
 26 25  1  0  0  0  0
 28 29  1  0  0  0  0
 29 21  1  0  0  0  0
 29 30  2  0  0  0  0
 30 31  1  0  0  0  0
 32 30  1  0  0  0  0
 32 33  1  0  0  0  0
 34 32  2  0  0  0  0
 35 28  2  0  0  0  0
 35 34  1  0  0  0  0
 36 37  3  0  0  0  0
 37 28  1  0  0  0  0
M  END
>  <minimizedAffinity>
-5.66195536

$$$$

 OpenBabel03242516073D

 37 40  0  0  0  0  0  0  0  0999 V2000
   39.6210   26.8050   40.0590 Cl  0  0  0  0  0  0  0  0  0  0  0  0
   38.6110   27.2180   41.4210 C   0  0  0  0  0  0  0  0  0  0  0  0
   39.0930   27.2730   42.7020 C   0  0  0  0  0  0  0  0  0  0  0  0
   38.1990   27.6080   43.6790 C   0  0  0  0  0  0  0  0  0  0  0  0
   36.9020   27.8750   43.4350 C   0  0  0  0  0  0  0  0  0  0  0  0
   36.4200   27.8210   42.1600 C   0  0  0  0  0  0  0  0  0  0  0  0
   37.3020   27.4830   41.1330 C   0  0  0  0  0  0  0  0  0  0  0  0
   38.5610   27.6560   44.7000 H   0  0  0  0  0  0  0  0  0  0  0  0
   36.1760   28.1400   44.1800 H   0  0  0  0  0  0  0  0  0  0  0  0
   35.3880   28.0280   41.9140 H   0  0  0  0  0  0  0  0  0  0  0  0
   42.8480   27.6340   43.1480 C   0  0  0  0  0  0  0  0  0  0  0  0
   41.4980   27.9420   42.9510 C   0  0  0  0  0  0  0  0  0  0  0  0
   40.5030   26.9730   42.9080 C   0  0  0  0  0  0  0  0  0  0  0  0
   40.9510   25.7030   43.0720 N   0  0  0  0  0  0  0  0  0  0  0  0
   42.2460   25.4160   43.2610 C   0  0  0  0  0  0  0  0  0  0  0  0
   43.1770   26.3630   43.2980 N   0  0  0  0  0  0  0  0  0  0  0  0
   43.5610   28.4560   43.1680 H   0  0  0  0  0  0  0  0  0  0  0  0
   41.1930   28.9790   42.8230 H   0  0  0  0  0  0  0  0  0  0  0  0
   42.3980   24.3420   43.3720 H   0  0  0  0  0  0  0  0  0  0  0  0
   36.7780   27.4230   39.7460 C   0  0  0  0  0  0  0  0  0  0  0  0
   36.7610   28.5360   38.8980 C   0  0  0  0  0  0  0  0  0  0  0  0
   36.0310   27.8960   37.3640 S   0  0  0  0  0  0  0  0  0  0  0  0
   35.8550   26.1490   38.1390 C   0  0  0  0  0  0  0  0  0  0  0  0
   36.2810   26.3640   39.1490 N   0  0  0  0  0  0  0  0  0  0  0  0
   35.3160   25.0010   37.4950 N   0  0  0  0  0  0  0  0  0  0  0  0
   36.0000   24.6500   36.7900 H   0  0  0  0  0  0  0  0  0  0  0  0
   34.3840   24.5980   37.7140 H   0  0  0  0  0  0  0  0  0  0  0  0
   38.3740   30.3000   38.4970 C   0  0  0  0  0  0  0  0  0  0  0  0
   37.1970   29.9030   39.1060 C   0  0  0  0  0  0  0  0  0  0  0  0
   36.5110   30.8250   39.8720 C   0  0  0  0  0  0  0  0  0  0  0  0
   35.6000   30.5210   40.3460 H   0  0  0  0  0  0  0  0  0  0  0  0
   36.9960   32.1230   40.0240 C   0  0  0  0  0  0  0  0  0  0  0  0
   36.4360   32.8430   40.6380 H   0  0  0  0  0  0  0  0  0  0  0  0
   38.1780   32.5030   39.4060 C   0  0  0  0  0  3  0  0  0  0  0  0
   38.8780   31.5790   38.6290 C   0  0  0  0  0  3  0  0  0  0  0  0
   39.7690   28.6610   37.0190 N   0  0  0  0  0  0  0  0  0  0  0  0
   39.1430   29.3910   37.6810 C   0  0  0  0  0  0  0  0  0  0  0  0
  1  2  1  0  0  0  0
  2  3  1  0  0  0  0
  3 13  1  0  0  0  0
  3  4  2  0  0  0  0
  4  8  1  0  0  0  0
  5  4  1  0  0  0  0
  5  9  1  0  0  0  0
  6  5  2  0  0  0  0
  7  2  2  0  0  0  0
  7  6  1  0  0  0  0
 10  6  1  0  0  0  0
 11 17  1  0  0  0  0
 11 16  1  0  0  0  0
 12 11  2  0  0  0  0
 13 12  1  0  0  0  0
 13 14  2  0  0  0  0
 14 15  1  0  0  0  0
 15 16  2  0  0  0  0
 15 19  1  0  0  0  0
 18 12  1  0  0  0  0
 20  7  1  0  0  0  0
 21 29  1  0  0  0  0
 21 20  2  0  0  0  0
 22 23  1  0  0  0  0
 22 21  1  0  0  0  0
 23 24  2  0  0  0  0
 24 20  1  0  0  0  0
 25 27  1  0  0  0  0
 25 23  1  0  0  0  0
 26 25  1  0  0  0  0
 28 35  2  0  0  0  0
 28 29  1  0  0  0  0
 29 30  2  0  0  0  0
 30 32  1  0  0  0  0
 30 31  1  0  0  0  0
 32 33  1  0  0  0  0
 34 32  2  0  0  0  0
 35 34  1  0  0  0  0
 36 37  3  0  0  0  0
 37 28  1  0  0  0  0
M  END
>  <minimizedAffinity>
-5.62590885

$$$$

 OpenBabel03242516073D

 37 40  0  0  0  0  0  0  0  0999 V2000
   38.2240   28.2280   39.2600 Cl  0  0  0  0  0  0  0  0  0  0  0  0
   37.7950   27.9550   40.9300 C   0  0  0  0  0  0  0  0  0  0  0  0
   37.3770   26.7340   41.3910 C   0  0  0  0  0  0  0  0  0  0  0  0
   37.0710   26.6530   42.7190 C   0  0  0  0  0  0  0  0  0  0  0  0
   37.1610   27.6980   43.5650 C   0  0  0  0  0  0  0  0  0  0  0  0
   37.5760   28.9140   43.1070 C   0  0  0  0  0  0  0  0  0  0  0  0
   37.8990   29.0380   41.7560 C   0  0  0  0  0  0  0  0  0  0  0  0
   36.7370   25.6950   43.1020 H   0  0  0  0  0  0  0  0  0  0  0  0
   36.9260   27.6650   44.6120 H   0  0  0  0  0  0  0  0  0  0  0  0
   37.6650   29.7810   43.7470 H   0  0  0  0  0  0  0  0  0  0  0  0
   38.1770   23.6140   39.3760 C   0  0  0  0  0  0  0  0  0  0  0  0
   38.2700   24.6570   40.3040 C   0  0  0  0  0  0  0  0  0  0  0  0
   37.2980   25.6410   40.4320 C   0  0  0  0  0  0  0  0  0  0  0  0
   36.2500   25.5060   39.5810 N   0  0  0  0  0  0  0  0  0  0  0  0
   36.1680   24.5050   38.6940 C   0  0  0  0  0  0  0  0  0  0  0  0
   37.1130   23.5770   38.5940 N   0  0  0  0  0  0  0  0  0  0  0  0
   38.9850   22.8860   39.3440 H   0  0  0  0  0  0  0  0  0  0  0  0
   39.1340   24.7180   40.9640 H   0  0  0  0  0  0  0  0  0  0  0  0
   35.2520   24.5750   38.1060 H   0  0  0  0  0  0  0  0  0  0  0  0
   38.3510   30.3610   41.2590 C   0  0  0  0  0  0  0  0  0  0  0  0
   39.7010   30.7250   41.2040 C   0  0  0  0  0  0  0  0  0  0  0  0
   39.6650   32.4090   40.5290 S   0  0  0  0  0  0  0  0  0  0  0  0
   37.7490   32.3600   40.4210 C   0  0  0  0  0  0  0  0  0  0  0  0
   37.5800   31.3300   40.8210 N   0  0  0  0  0  0  0  0  0  0  0  0
   36.9120   33.4080   39.9480 N   0  0  0  0  0  0  0  0  0  0  0  0
   36.9970   33.4740   38.9110 H   0  0  0  0  0  0  0  0  0  0  0  0
   36.3200   34.0000   40.5640 H   0  0  0  0  0  0  0  0  0  0  0  0
   41.7050   29.5270   40.5490 C   0  0  0  0  0  0  0  0  0  0  0  0
   40.9020   30.0000   41.5720 C   0  0  0  0  0  0  0  0  0  0  0  0
   41.2890   29.7570   42.8750 C   0  0  0  0  0  0  0  0  0  0  0  0
   40.6690   30.1220   43.6700 H   0  0  0  0  0  0  0  0  0  0  0  0
   42.4590   29.0520   43.1490 C   0  0  0  0  0  0  0  0  0  0  0  0
   42.7500   28.8690   44.1930 H   0  0  0  0  0  0  0  0  0  0  0  0
   43.2510   28.5860   42.1110 C   0  0  0  0  0  3  0  0  0  0  0  0
   42.8690   28.8270   40.7900 C   0  0  0  0  0  3  0  0  0  0  0  0
   41.0820   29.9260   38.0450 N   0  0  0  0  0  0  0  0  0  0  0  0
   41.3630   29.7450   39.1640 C   0  0  0  0  0  0  0  0  0  0  0  0
  1  2  1  0  0  0  0
  2  3  2  0  0  0  0
  2  7  1  0  0  0  0
  3  4  1  0  0  0  0
  4  8  1  0  0  0  0
  4  5  2  0  0  0  0
  5  9  1  0  0  0  0
  6  5  1  0  0  0  0
  6 10  1  0  0  0  0
  7  6  2  0  0  0  0
 11 12  1  0  0  0  0
 12 13  2  0  0  0  0
 12 18  1  0  0  0  0
 13  3  1  0  0  0  0
 14 13  1  0  0  0  0
 15 14  2  0  0  0  0
 16 15  1  0  0  0  0
 16 11  2  0  0  0  0
 17 11  1  0  0  0  0
 19 15  1  0  0  0  0
 20  7  1  0  0  0  0
 21 20  2  0  0  0  0
 21 29  1  0  0  0  0
 22 21  1  0  0  0  0
 23 22  1  0  0  0  0
 23 24  2  0  0  0  0
 24 20  1  0  0  0  0
 25 23  1  0  0  0  0
 25 27  1  0  0  0  0
 26 25  1  0  0  0  0
 28 35  2  0  0  0  0
 28 29  1  0  0  0  0
 29 30  2  0  0  0  0
 30 32  1  0  0  0  0
 30 31  1  0  0  0  0
 32 33  1  0  0  0  0
 34 32  2  0  0  0  0
 35 34  1  0  0  0  0
 36 37  3  0  0  0  0
 37 28  1  0  0  0  0
M  END
>  <minimizedAffinity>
-5.56299114

$$$$

 OpenBabel03242516073D

 37 40  0  0  0  0  0  0  0  0999 V2000
   40.4000   27.6520   39.4150 Cl  0  0  0  0  0  0  0  0  0  0  0  0
   40.1330   28.8690   40.6370 C   0  0  0  0  0  0  0  0  0  0  0  0
   40.6570   30.1320   40.5430 C   0  0  0  0  0  0  0  0  0  0  0  0
   40.3740   30.9900   41.5660 C   0  0  0  0  0  0  0  0  0  0  0  0
   39.6230   30.6500   42.6310 C   0  0  0  0  0  0  0  0  0  0  0  0
   39.1010   29.3930   42.7270 C   0  0  0  0  0  0  0  0  0  0  0  0
   39.3670   28.4860   41.7010 C   0  0  0  0  0  0  0  0  0  0  0  0
   40.7810   31.9930   41.5100 H   0  0  0  0  0  0  0  0  0  0  0  0
   39.3850   31.3010   43.4500 H   0  0  0  0  0  0  0  0  0  0  0  0
   38.4920   29.0740   43.5620 H   0  0  0  0  0  0  0  0  0  0  0  0
   41.7400   31.3250   37.1020 C   0  0  0  0  0  0  0  0  0  0  0  0
   40.9510   31.0340   38.2200 C   0  0  0  0  0  0  0  0  0  0  0  0
   41.4620   30.4430   39.3700 C   0  0  0  0  0  0  0  0  0  0  0  0
   42.7900   30.1720   39.3170 N   0  0  0  0  0  0  0  0  0  0  0  0
   43.5390   30.4540   38.2420 C   0  0  0  0  0  0  0  0  0  0  0  0
   43.0240   31.0200   37.1560 N   0  0  0  0  0  0  0  0  0  0  0  0
   41.2570   31.7890   36.2440 H   0  0  0  0  0  0  0  0  0  0  0  0
   39.8890   31.2720   38.2090 H   0  0  0  0  0  0  0  0  0  0  0  0
   44.5770   30.1600   38.3990 H   0  0  0  0  0  0  0  0  0  0  0  0
   38.7990   27.1190   41.8050 C   0  0  0  0  0  0  0  0  0  0  0  0
   37.5620   26.7730   41.2490 C   0  0  0  0  0  0  0  0  0  0  0  0
   37.3780   25.0170   41.6720 S   0  0  0  0  0  0  0  0  0  0  0  0
   39.0730   25.0240   42.5730 C   0  0  0  0  0  0  0  0  0  0  0  0
   39.3530   26.0920   42.4060 N   0  0  0  0  0  0  0  0  0  0  0  0
   39.6750   23.9130   43.2260 N   0  0  0  0  0  0  0  0  0  0  0  0
   40.0270   23.2420   42.5080 H   0  0  0  0  0  0  0  0  0  0  0  0
   39.7390   23.8120   44.2580 H   0  0  0  0  0  0  0  0  0  0  0  0
   36.4750   27.2990   39.1470 C   0  0  0  0  0  0  0  0  0  0  0  0
   36.5970   27.5550   40.5010 C   0  0  0  0  0  0  0  0  0  0  0  0
   35.7980   28.5340   41.0590 C   0  0  0  0  0  0  0  0  0  0  0  0
   35.8900   28.7360   42.1070 H   0  0  0  0  0  0  0  0  0  0  0  0
   34.8920   29.2440   40.2730 C   0  0  0  0  0  0  0  0  0  0  0  0
   34.2650   30.0200   40.7350 H   0  0  0  0  0  0  0  0  0  0  0  0
   34.7840   28.9740   38.9170 C   0  0  0  0  0  3  0  0  0  0  0  0
   35.5860   27.9860   38.3450 C   0  0  0  0  0  3  0  0  0  0  0  0
   37.9180   25.4700   37.9700 N   0  0  0  0  0  0  0  0  0  0  0  0
   37.2760   26.2900   38.4970 C   0  0  0  0  0  0  0  0  0  0  0  0
  1  2  1  0  0  0  0
  2  7  1  0  0  0  0
  3  2  2  0  0  0  0
  3  4  1  0  0  0  0
  4  5  2  0  0  0  0
  5  6  1  0  0  0  0
  5  9  1  0  0  0  0
  6 10  1  0  0  0  0
  7 20  1  0  0  0  0
  7  6  2  0  0  0  0
  8  4  1  0  0  0  0
 11 16  2  0  0  0  0
 11 12  1  0  0  0  0
 12 13  2  0  0  0  0
 13  3  1  0  0  0  0
 14 13  1  0  0  0  0
 15 19  1  0  0  0  0
 15 14  2  0  0  0  0
 16 15  1  0  0  0  0
 17 11  1  0  0  0  0
 18 12  1  0  0  0  0
 20 24  1  0  0  0  0
 21 22  1  0  0  0  0
 21 20  2  0  0  0  0
 22 23  1  0  0  0  0
 23 25  1  0  0  0  0
 24 23  2  0  0  0  0
 25 27  1  0  0  0  0
 26 25  1  0  0  0  0
 28 29  1  0  0  0  0
 29 30  2  0  0  0  0
 29 21  1  0  0  0  0
 30 31  1  0  0  0  0
 32 33  1  0  0  0  0
 32 30  1  0  0  0  0
 34 32  2  0  0  0  0
 35 34  1  0  0  0  0
 35 28  2  0  0  0  0
 36 37  3  0  0  0  0
 37 28  1  0  0  0  0
M  END
>  <minimizedAffinity>
-5.55880451

$$$$

 OpenBabel03242516073D

 37 40  0  0  0  0  0  0  0  0999 V2000
   40.6950   30.2860   39.9980 Cl  0  0  0  0  0  0  0  0  0  0  0  0
   39.3700   31.4200   39.9280 C   0  0  0  0  0  0  0  0  0  0  0  0
   39.5410   32.7270   39.5530 C   0  0  0  0  0  0  0  0  0  0  0  0
   38.4240   33.5110   39.5410 C   0  0  0  0  0  0  0  0  0  0  0  0
   37.1990   33.0600   39.8740 C   0  0  0  0  0  0  0  0  0  0  0  0
   37.0270   31.7600   40.2470 C   0  0  0  0  0  0  0  0  0  0  0  0
   38.1450   30.9250   40.2730 C   0  0  0  0  0  0  0  0  0  0  0  0
   38.5390   34.5490   39.2480 H   0  0  0  0  0  0  0  0  0  0  0  0
   36.3030   33.6520   39.8740 H   0  0  0  0  0  0  0  0  0  0  0  0
   36.0640   31.3520   40.5220 H   0  0  0  0  0  0  0  0  0  0  0  0
   42.6820   33.5780   37.5930 C   0  0  0  0  0  0  0  0  0  0  0  0
   41.3850   33.1590   37.9080 C   0  0  0  0  0  0  0  0  0  0  0  0
   40.8870   33.1590   39.2050 C   0  0  0  0  0  0  0  0  0  0  0  0
   41.7650   33.5990   40.1410 N   0  0  0  0  0  0  0  0  0  0  0  0
   43.0070   33.9980   39.8310 C   0  0  0  0  0  0  0  0  0  0  0  0
   43.4560   33.9880   38.5810 N   0  0  0  0  0  0  0  0  0  0  0  0
   42.9890   33.5450   36.5490 H   0  0  0  0  0  0  0  0  0  0  0  0
   40.7210   32.8150   37.1170 H   0  0  0  0  0  0  0  0  0  0  0  0
   43.5510   34.3140   40.7220 H   0  0  0  0  0  0  0  0  0  0  0  0
   37.9580   29.5100   40.6790 C   0  0  0  0  0  0  0  0  0  0  0  0
   37.5900   28.5090   39.7740 C   0  0  0  0  0  0  0  0  0  0  0  0
   37.5100   27.0120   40.7980 S   0  0  0  0  0  0  0  0  0  0  0  0
   38.0070   28.0150   42.3580 C   0  0  0  0  0  0  0  0  0  0  0  0
   38.1040   29.0250   41.8900 N   0  0  0  0  0  0  0  0  0  0  0  0
   38.1660   27.4910   43.6710 N   0  0  0  0  0  0  0  0  0  0  0  0
   39.0470   26.9340   43.7140 H   0  0  0  0  0  0  0  0  0  0  0  0
   37.4930   27.6550   44.4460 H   0  0  0  0  0  0  0  0  0  0  0  0
   36.0130   28.7810   37.9530 C   0  0  0  0  0  0  0  0  0  0  0  0
   37.3200   28.5590   38.3500 C   0  0  0  0  0  0  0  0  0  0  0  0
   38.2830   28.3990   37.3740 C   0  0  0  0  0  0  0  0  0  0  0  0
   39.2960   28.2260   37.6780 H   0  0  0  0  0  0  0  0  0  0  0  0
   37.9440   28.4610   36.0240 C   0  0  0  0  0  0  0  0  0  0  0  0
   38.7260   28.3320   35.2620 H   0  0  0  0  0  0  0  0  0  0  0  0
   36.6290   28.6840   35.6450 C   0  0  0  0  0  3  0  0  0  0  0  0
   35.6480   28.8480   36.6240 C   0  0  0  0  0  3  0  0  0  0  0  0
   34.1020   29.1050   39.7020 N   0  0  0  0  0  0  0  0  0  0  0  0
   34.9540   28.9580   38.9170 C   0  0  0  0  0  0  0  0  0  0  0  0
  2  1  1  0  0  0  0
  2  7  1  0  0  0  0
  3  2  2  0  0  0  0
  4  3  1  0  0  0  0
  4  5  2  0  0  0  0
  5  6  1  0  0  0  0
  6  7  2  0  0  0  0
  6 10  1  0  0  0  0
  7 20  1  0  0  0  0
  8  4  1  0  0  0  0
  9  5  1  0  0  0  0
 11 12  2  0  0  0  0
 11 16  1  0  0  0  0
 12 13  1  0  0  0  0
 13  3  1  0  0  0  0
 13 14  2  0  0  0  0
 15 14  1  0  0  0  0
 15 19  1  0  0  0  0
 16 15  2  0  0  0  0
 17 11  1  0  0  0  0
 18 12  1  0  0  0  0
 20 24  1  0  0  0  0
 21 20  2  0  0  0  0
 21 22  1  0  0  0  0
 22 23  1  0  0  0  0
 23 25  1  0  0  0  0
 24 23  2  0  0  0  0
 25 26  1  0  0  0  0
 25 27  1  0  0  0  0
 28 29  1  0  0  0  0
 28 37  1  0  0  0  0
 29 21  1  0  0  0  0
 30 31  1  0  0  0  0
 30 29  2  0  0  0  0
 32 30  1  0  0  0  0
 33 32  1  0  0  0  0
 34 32  2  0  0  0  0
 34 35  1  0  0  0  0
 35 28  2  0  0  0  0
 37 36  3  0  0  0  0
M  END
>  <minimizedAffinity>
-5.47401285

$$$$
