
 OpenBabel03242522123D

 21 22  0  0  0  0  0  0  0  0999 V2000
   37.5700   32.4620   40.0360 C   0  0  0  0  0  0  0  0  0  0  0  0
   37.2130   31.2790   40.6840 C   0  0  0  0  0  0  0  0  0  0  0  0
   38.1770   30.2960   40.9370 C   0  0  0  0  0  0  0  0  0  0  0  0
   39.4280   30.5800   40.5200 N   0  0  0  0  0  0  0  0  0  0  0  0
   39.7600   31.7200   39.9000 C   0  0  0  0  0  0  0  0  0  0  0  0
   38.8330   32.6720   39.6500 N   0  0  0  0  0  0  0  0  0  0  0  0
   36.8300   33.2100   39.8350 H   0  0  0  0  0  0  0  0  0  0  0  0
   40.8240   31.7360   39.6560 H   0  0  0  0  0  0  0  0  0  0  0  0
   37.3330   27.9570   40.9270 C   0  0  0  0  0  0  0  0  0  0  0  0
   37.7890   29.1000   41.6030 C   0  0  0  0  0  0  0  0  0  0  0  0
   37.8590   29.0550   42.9840 C   0  0  0  0  0  0  0  0  0  0  0  0
   38.1850   29.8490   43.6420 H   0  0  0  0  0  0  0  0  0  0  0  0
   37.4920   27.9240   43.6800 C   0  0  0  0  0  0  0  0  0  0  0  0
   37.5290   27.8290   44.7600 H   0  0  0  0  0  0  0  0  0  0  0  0
   37.0460   26.8160   42.9860 C   0  0  0  0  0  3  0  0  0  0  0  0
   36.9530   26.8000   41.5950 C   0  0  0  0  0  3  0  0  0  0  0  0
   37.1810   28.0370   38.3020 N   0  0  0  0  0  0  0  0  0  0  0  0
   37.2570   27.9990   39.4740 C   0  0  0  0  0  0  0  0  0  0  0  0
   35.8250   31.1610   41.0580 N   0  0  0  0  0  0  0  0  0  0  0  0
   35.2940   32.0320   41.2700 H   0  0  0  0  0  0  0  0  0  0  0  0
   35.1590   30.3980   41.1890 H   0  0  0  0  0  0  0  0  0  0  0  0
  1  2  1  0  0  0  0
  2  3  2  0  0  0  0
  2 19  1  0  0  0  0
  3 10  1  0  0  0  0
  4  3  1  0  0  0  0
  5  4  2  0  0  0  0
  6  5  1  0  0  0  0
  6  1  2  0  0  0  0
  7  1  1  0  0  0  0
  8  5  1  0  0  0  0
  9 16  2  0  0  0  0
  9 10  1  0  0  0  0
 10 11  2  0  0  0  0
 11 12  1  0  0  0  0
 11 13  1  0  0  0  0
 13 14  1  0  0  0  0
 15 13  2  0  0  0  0
 16 15  1  0  0  0  0
 17 18  3  0  0  0  0
 18  9  1  0  0  0  0
 19 21  1  0  0  0  0
 19 20  1  0  0  0  0
M  END
>  <minimizedAffinity>
-4.75482702

$$$$

 OpenBabel03242522123D

 21 22  0  0  0  0  0  0  0  0999 V2000
   36.7780   31.7000   39.1990 C   0  0  0  0  0  0  0  0  0  0  0  0
   36.7760   30.7750   40.2430 C   0  0  0  0  0  0  0  0  0  0  0  0
   37.7090   29.7320   40.2620 C   0  0  0  0  0  0  0  0  0  0  0  0
   38.5750   29.7010   39.2290 N   0  0  0  0  0  0  0  0  0  0  0  0
   38.5700   30.5960   38.2320 C   0  0  0  0  0  0  0  0  0  0  0  0
   37.6700   31.6040   38.2070 N   0  0  0  0  0  0  0  0  0  0  0  0
   36.0580   32.4940   39.1800 H   0  0  0  0  0  0  0  0  0  0  0  0
   39.3580   30.3790   37.5090 H   0  0  0  0  0  0  0  0  0  0  0  0
   38.4310   28.9760   42.5190 C   0  0  0  0  0  0  0  0  0  0  0  0
   37.6880   28.8030   41.3400 C   0  0  0  0  0  0  0  0  0  0  0  0
   36.9010   27.6710   41.2270 C   0  0  0  0  0  0  0  0  0  0  0  0
   36.2780   27.3980   40.3860 H   0  0  0  0  0  0  0  0  0  0  0  0
   36.8460   26.7380   42.2380 C   0  0  0  0  0  0  0  0  0  0  0  0
   36.2450   25.8340   42.2070 H   0  0  0  0  0  0  0  0  0  0  0  0
   37.5900   26.9350   43.3840 C   0  0  0  0  0  3  0  0  0  0  0  0
   38.4020   28.0560   43.5580 C   0  0  0  0  0  3  0  0  0  0  0  0
   39.9290   31.1290   42.7280 N   0  0  0  0  0  0  0  0  0  0  0  0
   39.2610   30.1650   42.6430 C   0  0  0  0  0  0  0  0  0  0  0  0
   35.7730   30.9780   41.2600 N   0  0  0  0  0  0  0  0  0  0  0  0
   35.4470   31.9500   41.4470 H   0  0  0  0  0  0  0  0  0  0  0  0
   35.2500   30.3870   41.9080 H   0  0  0  0  0  0  0  0  0  0  0  0
  1  2  1  0  0  0  0
  2  3  2  0  0  0  0
  2 19  1  0  0  0  0
  3 10  1  0  0  0  0
  4  3  1  0  0  0  0
  5  4  2  0  0  0  0
  6  5  1  0  0  0  0
  6  1  2  0  0  0  0
  7  1  1  0  0  0  0
  8  5  1  0  0  0  0
  9 18  1  0  0  0  0
  9 16  1  0  0  0  0
 10  9  2  0  0  0  0
 11 10  1  0  0  0  0
 11 13  2  0  0  0  0
 12 11  1  0  0  0  0
 13 15  1  0  0  0  0
 14 13  1  0  0  0  0
 15 16  2  0  0  0  0
 18 17  3  0  0  0  0
 19 20  1  0  0  0  0
 19 21  1  0  0  0  0
M  END
>  <minimizedAffinity>
-4.74538326

$$$$

 OpenBabel03242522123D

 21 22  0  0  0  0  0  0  0  0999 V2000
   39.3980   33.1910   40.2680 C   0  0  0  0  0  0  0  0  0  0  0  0
   38.2600   32.4060   40.0790 C   0  0  0  0  0  0  0  0  0  0  0  0
   38.3860   31.0650   39.6980 C   0  0  0  0  0  0  0  0  0  0  0  0
   39.6480   30.6150   39.5400 N   0  0  0  0  0  0  0  0  0  0  0  0
   40.7330   31.3780   39.7260 C   0  0  0  0  0  0  0  0  0  0  0  0
   40.6180   32.6740   40.0910 N   0  0  0  0  0  0  0  0  0  0  0  0
   39.3020   34.2200   40.5510 H   0  0  0  0  0  0  0  0  0  0  0  0
   41.6460   30.8070   39.5470 H   0  0  0  0  0  0  0  0  0  0  0  0
   36.6420   29.4980   40.5290 C   0  0  0  0  0  0  0  0  0  0  0  0
   37.2100   30.2840   39.5140 C   0  0  0  0  0  0  0  0  0  0  0  0
   36.5940   30.2930   38.2760 C   0  0  0  0  0  0  0  0  0  0  0  0
   36.9100   30.8410   37.3990 H   0  0  0  0  0  0  0  0  0  0  0  0
   35.4560   29.5540   38.0410 C   0  0  0  0  0  0  0  0  0  0  0  0
   34.9280   29.5230   37.0940 H   0  0  0  0  0  0  0  0  0  0  0  0
   34.9220   28.7890   39.0600 C   0  0  0  0  0  3  0  0  0  0  0  0
   35.4970   28.7390   40.3290 C   0  0  0  0  0  3  0  0  0  0  0  0
   37.8130   29.4610   42.8850 N   0  0  0  0  0  0  0  0  0  0  0  0
   37.2860   29.4860   41.8350 C   0  0  0  0  0  0  0  0  0  0  0  0
   36.9970   33.0660   40.3000 N   0  0  0  0  0  0  0  0  0  0  0  0
   36.9610   33.8480   40.9890 H   0  0  0  0  0  0  0  0  0  0  0  0
   36.0440   32.9730   39.9450 H   0  0  0  0  0  0  0  0  0  0  0  0
  1  7  1  0  0  0  0
  2  1  2  0  0  0  0
  2 19  1  0  0  0  0
  3  2  1  0  0  0  0
  4  3  2  0  0  0  0
  4  5  1  0  0  0  0
  5  6  2  0  0  0  0
  6  1  1  0  0  0  0
  8  5  1  0  0  0  0
  9 18  1  0  0  0  0
 10  3  1  0  0  0  0
 10  9  2  0  0  0  0
 11 10  1  0  0  0  0
 12 11  1  0  0  0  0
 13 11  2  0  0  0  0
 13 15  1  0  0  0  0
 14 13  1  0  0  0  0
 15 16  2  0  0  0  0
 16  9  1  0  0  0  0
 18 17  3  0  0  0  0
 19 20  1  0  0  0  0
 21 19  1  0  0  0  0
M  END
>  <minimizedAffinity>
-4.41935492

$$$$

 OpenBabel03242522123D

 21 22  0  0  0  0  0  0  0  0999 V2000
   37.3200   26.7030   42.9510 C   0  0  0  0  0  0  0  0  0  0  0  0
   37.3920   28.0620   42.6450 C   0  0  0  0  0  0  0  0  0  0  0  0
   37.8690   28.4780   41.3960 C   0  0  0  0  0  0  0  0  0  0  0  0
   38.2360   27.4940   40.5500 N   0  0  0  0  0  0  0  0  0  0  0  0
   38.1610   26.1920   40.8540 C   0  0  0  0  0  0  0  0  0  0  0  0
   37.7030   25.7830   42.0590 N   0  0  0  0  0  0  0  0  0  0  0  0
   36.9620   26.3840   43.9100 H   0  0  0  0  0  0  0  0  0  0  0  0
   38.5060   25.5760   40.0210 H   0  0  0  0  0  0  0  0  0  0  0  0
   36.8700   30.5820   40.5230 C   0  0  0  0  0  0  0  0  0  0  0  0
   37.9300   29.8710   41.1070 C   0  0  0  0  0  0  0  0  0  0  0  0
   39.0880   30.5630   41.4110 C   0  0  0  0  0  0  0  0  0  0  0  0
   39.9860   30.1570   41.8590 H   0  0  0  0  0  0  0  0  0  0  0  0
   39.2030   31.9100   41.1510 C   0  0  0  0  0  0  0  0  0  0  0  0
   40.0830   32.5050   41.3700 H   0  0  0  0  0  0  0  0  0  0  0  0
   38.1430   32.5810   40.5730 C   0  0  0  0  0  3  0  0  0  0  0  0
   36.9500   31.9390   40.2430 C   0  0  0  0  0  3  0  0  0  0  0  0
   34.6590   29.2860   39.9300 N   0  0  0  0  0  0  0  0  0  0  0  0
   35.6490   29.8580   40.2000 C   0  0  0  0  0  0  0  0  0  0  0  0
   36.9490   28.9640   43.6800 N   0  0  0  0  0  0  0  0  0  0  0  0
   36.2150   28.6350   44.3430 H   0  0  0  0  0  0  0  0  0  0  0  0
   37.1680   29.9190   43.9690 H   0  0  0  0  0  0  0  0  0  0  0  0
  1  7  1  0  0  0  0
  2  1  1  0  0  0  0
  2 19  1  0  0  0  0
  3  2  2  0  0  0  0
  4  5  2  0  0  0  0
  4  3  1  0  0  0  0
  5  6  1  0  0  0  0
  6  1  2  0  0  0  0
  8  5  1  0  0  0  0
  9 10  1  0  0  0  0
 10  3  1  0  0  0  0
 10 11  2  0  0  0  0
 11 12  1  0  0  0  0
 13 14  1  0  0  0  0
 13 11  1  0  0  0  0
 15 13  2  0  0  0  0
 16  9  2  0  0  0  0
 16 15  1  0  0  0  0
 17 18  3  0  0  0  0
 18  9  1  0  0  0  0
 19 21  1  0  0  0  0
 19 20  1  0  0  0  0
M  END
>  <minimizedAffinity>
-4.38126612

$$$$

 OpenBabel03242522123D

 21 22  0  0  0  0  0  0  0  0999 V2000
   38.1540   30.9380   38.1830 C   0  0  0  0  0  0  0  0  0  0  0  0
   38.0810   30.0270   39.2370 C   0  0  0  0  0  0  0  0  0  0  0  0
   37.4760   30.3950   40.4450 C   0  0  0  0  0  0  0  0  0  0  0  0
   36.9890   31.6510   40.4990 N   0  0  0  0  0  0  0  0  0  0  0  0
   37.0630   32.5170   39.4800 C   0  0  0  0  0  0  0  0  0  0  0  0
   37.6470   32.1690   38.3120 N   0  0  0  0  0  0  0  0  0  0  0  0
   38.6240   30.6600   37.2610 H   0  0  0  0  0  0  0  0  0  0  0  0
   36.6020   33.4710   39.7440 H   0  0  0  0  0  0  0  0  0  0  0  0
   38.3470   29.3970   42.5500 C   0  0  0  0  0  0  0  0  0  0  0  0
   37.4110   29.4470   41.5040 C   0  0  0  0  0  0  0  0  0  0  0  0
   36.3810   28.5240   41.5090 C   0  0  0  0  0  0  0  0  0  0  0  0
   35.5900   28.4340   40.7770 H   0  0  0  0  0  0  0  0  0  0  0  0
   36.2720   27.5820   42.5070 C   0  0  0  0  0  0  0  0  0  0  0  0
   35.4850   26.8370   42.5650 H   0  0  0  0  0  0  0  0  0  0  0  0
   37.2090   27.5570   43.5210 C   0  0  0  0  0  3  0  0  0  0  0  0
   38.2710   28.4600   43.5720 C   0  0  0  0  0  3  0  0  0  0  0  0
   40.3000   31.1590   42.5540 N   0  0  0  0  0  0  0  0  0  0  0  0
   39.4340   30.3650   42.5500 C   0  0  0  0  0  0  0  0  0  0  0  0
   38.6550   28.7280   38.9870 N   0  0  0  0  0  0  0  0  0  0  0  0
   38.6570   28.3680   38.0080 H   0  0  0  0  0  0  0  0  0  0  0  0
   39.0950   27.9960   39.5460 H   0  0  0  0  0  0  0  0  0  0  0  0
  1  6  2  0  0  0  0
  1  2  1  0  0  0  0
  2  3  2  0  0  0  0
  3  4  1  0  0  0  0
  3 10  1  0  0  0  0
  5  8  1  0  0  0  0
  5  4  2  0  0  0  0
  6  5  1  0  0  0  0
  7  1  1  0  0  0  0
  9 18  1  0  0  0  0
  9 16  1  0  0  0  0
 10 11  1  0  0  0  0
 10  9  2  0  0  0  0
 11 13  2  0  0  0  0
 12 11  1  0  0  0  0
 13 14  1  0  0  0  0
 13 15  1  0  0  0  0
 15 16  2  0  0  0  0
 18 17  3  0  0  0  0
 19  2  1  0  0  0  0
 19 21  1  0  0  0  0
 20 19  1  0  0  0  0
M  END
>  <minimizedAffinity>
-4.31908417

$$$$

 OpenBabel03242522123D

 21 22  0  0  0  0  0  0  0  0999 V2000
   38.6450   31.3630   38.5200 C   0  0  0  0  0  0  0  0  0  0  0  0
   38.4680   30.3410   39.4540 C   0  0  0  0  0  0  0  0  0  0  0  0
   37.7910   30.5930   40.6530 C   0  0  0  0  0  0  0  0  0  0  0  0
   37.3420   31.8530   40.8200 N   0  0  0  0  0  0  0  0  0  0  0  0
   37.5160   32.8260   39.9160 C   0  0  0  0  0  0  0  0  0  0  0  0
   38.1710   32.5900   38.7570 N   0  0  0  0  0  0  0  0  0  0  0  0
   39.1700   31.1720   37.6060 H   0  0  0  0  0  0  0  0  0  0  0  0
   37.0690   33.7610   40.2590 H   0  0  0  0  0  0  0  0  0  0  0  0
   36.4930   28.6960   41.6050 C   0  0  0  0  0  0  0  0  0  0  0  0
   37.6210   29.5330   41.5880 C   0  0  0  0  0  0  0  0  0  0  0  0
   38.6090   29.3120   42.5290 C   0  0  0  0  0  0  0  0  0  0  0  0
   39.5290   29.8690   42.6450 H   0  0  0  0  0  0  0  0  0  0  0  0
   38.4950   28.3020   43.4590 C   0  0  0  0  0  0  0  0  0  0  0  0
   39.2380   28.0800   44.2190 H   0  0  0  0  0  0  0  0  0  0  0  0
   37.3730   27.4980   43.4520 C   0  0  0  0  0  3  0  0  0  0  0  0
   36.3420   27.6700   42.5280 C   0  0  0  0  0  3  0  0  0  0  0  0
   34.6000   29.1190   39.8270 N   0  0  0  0  0  0  0  0  0  0  0  0
   35.4500   28.9240   40.6160 C   0  0  0  0  0  0  0  0  0  0  0  0
   39.0170   29.0570   39.0920 N   0  0  0  0  0  0  0  0  0  0  0  0
   39.0770   28.8110   38.0810 H   0  0  0  0  0  0  0  0  0  0  0  0
   39.3920   28.2490   39.5910 H   0  0  0  0  0  0  0  0  0  0  0  0
  1  6  2  0  0  0  0
  1  2  1  0  0  0  0
  2  3  2  0  0  0  0
  3  4  1  0  0  0  0
  3 10  1  0  0  0  0
  5  8  1  0  0  0  0
  5  4  2  0  0  0  0
  6  5  1  0  0  0  0
  7  1  1  0  0  0  0
  9 16  1  0  0  0  0
 10  9  2  0  0  0  0
 10 11  1  0  0  0  0
 11 12  1  0  0  0  0
 11 13  2  0  0  0  0
 13 14  1  0  0  0  0
 15 13  1  0  0  0  0
 16 15  2  0  0  0  0
 17 18  3  0  0  0  0
 18  9  1  0  0  0  0
 19  2  1  0  0  0  0
 19 21  1  0  0  0  0
 20 19  1  0  0  0  0
M  END
>  <minimizedAffinity>
-4.29605055

$$$$

 OpenBabel03242522123D

 21 22  0  0  0  0  0  0  0  0999 V2000
   35.2000   29.2700   37.9710 C   0  0  0  0  0  0  0  0  0  0  0  0
   35.5290   29.0350   39.3070 C   0  0  0  0  0  0  0  0  0  0  0  0
   36.8170   28.6090   39.6510 C   0  0  0  0  0  0  0  0  0  0  0  0
   37.6780   28.4540   38.6250 N   0  0  0  0  0  0  0  0  0  0  0  0
   37.3520   28.6830   37.3460 C   0  0  0  0  0  0  0  0  0  0  0  0
   36.1100   29.0920   37.0060 N   0  0  0  0  0  0  0  0  0  0  0  0
   34.2120   29.5880   37.7070 H   0  0  0  0  0  0  0  0  0  0  0  0
   38.2030   28.4970   36.6880 H   0  0  0  0  0  0  0  0  0  0  0  0
   37.7080   29.3530   41.8520 C   0  0  0  0  0  0  0  0  0  0  0  0
   37.1270   28.3800   41.0210 C   0  0  0  0  0  0  0  0  0  0  0  0
   36.8500   27.1400   41.5670 C   0  0  0  0  0  0  0  0  0  0  0  0
   36.4090   26.2930   41.0590 H   0  0  0  0  0  0  0  0  0  0  0  0
   37.1320   26.8630   42.8870 C   0  0  0  0  0  0  0  0  0  0  0  0
   36.9340   25.9120   43.3700 H   0  0  0  0  0  0  0  0  0  0  0  0
   37.7040   27.8400   43.6770 C   0  0  0  0  0  3  0  0  0  0  0  0
   38.0080   29.1090   43.1850 C   0  0  0  0  0  3  0  0  0  0  0  0
   38.2400   31.7210   40.8370 N   0  0  0  0  0  0  0  0  0  0  0  0
   38.0020   30.6590   41.2820 C   0  0  0  0  0  0  0  0  0  0  0  0
   34.4720   29.2610   40.2630 N   0  0  0  0  0  0  0  0  0  0  0  0
   33.7480   29.9770   40.0390 H   0  0  0  0  0  0  0  0  0  0  0  0
   34.2140   28.8900   41.1780 H   0  0  0  0  0  0  0  0  0  0  0  0
  1  2  1  0  0  0  0
  2  3  2  0  0  0  0
  2 19  1  0  0  0  0
  3 10  1  0  0  0  0
  4  3  1  0  0  0  0
  5  4  2  0  0  0  0
  6  5  1  0  0  0  0
  6  1  2  0  0  0  0
  7  1  1  0  0  0  0
  8  5  1  0  0  0  0
  9 16  1  0  0  0  0
 10 11  1  0  0  0  0
 10  9  2  0  0  0  0
 11 13  2  0  0  0  0
 12 11  1  0  0  0  0
 13 14  1  0  0  0  0
 13 15  1  0  0  0  0
 16 15  2  0  0  0  0
 17 18  3  0  0  0  0
 18  9  1  0  0  0  0
 19 21  1  0  0  0  0
 20 19  1  0  0  0  0
M  END
>  <minimizedAffinity>
-4.29388618

$$$$

 OpenBabel03242522123D

 21 22  0  0  0  0  0  0  0  0999 V2000
   38.4100   27.1510   43.3720 C   0  0  0  0  0  0  0  0  0  0  0  0
   38.0850   28.4070   42.8590 C   0  0  0  0  0  0  0  0  0  0  0  0
   38.6370   28.8370   41.6470 C   0  0  0  0  0  0  0  0  0  0  0  0
   39.4740   27.9690   41.0420 N   0  0  0  0  0  0  0  0  0  0  0  0
   39.7780   26.7640   41.5430 C   0  0  0  0  0  0  0  0  0  0  0  0
   39.2490   26.3440   42.7140 N   0  0  0  0  0  0  0  0  0  0  0  0
   37.9930   26.8240   44.3040 H   0  0  0  0  0  0  0  0  0  0  0  0
   40.4690   26.2320   40.8860 H   0  0  0  0  0  0  0  0  0  0  0  0
   39.0470   31.2770   41.3890 C   0  0  0  0  0  0  0  0  0  0  0  0
   38.2870   30.1210   41.1430 C   0  0  0  0  0  0  0  0  0  0  0  0
   37.1430   30.2460   40.3770 C   0  0  0  0  0  0  0  0  0  0  0  0
   36.4570   29.4550   40.1040 H   0  0  0  0  0  0  0  0  0  0  0  0
   36.7560   31.4650   39.8670 C   0  0  0  0  0  0  0  0  0  0  0  0
   35.8720   31.6230   39.2580 H   0  0  0  0  0  0  0  0  0  0  0  0
   37.5230   32.5840   40.1270 C   0  0  0  0  0  3  0  0  0  0  0  0
   38.6870   32.5230   40.8930 C   0  0  0  0  0  3  0  0  0  0  0  0
   41.2250   31.0660   42.8490 N   0  0  0  0  0  0  0  0  0  0  0  0
   40.2520   31.1510   42.1950 C   0  0  0  0  0  0  0  0  0  0  0  0
   37.1680   29.1900   43.6500 N   0  0  0  0  0  0  0  0  0  0  0  0
   36.4680   28.6890   44.2380 H   0  0  0  0  0  0  0  0  0  0  0  0
   36.9920   30.1840   43.8070 H   0  0  0  0  0  0  0  0  0  0  0  0
  1  7  1  0  0  0  0
  2  1  1  0  0  0  0
  2 19  1  0  0  0  0
  3  2  2  0  0  0  0
  4  5  2  0  0  0  0
  4  3  1  0  0  0  0
  5  6  1  0  0  0  0
  6  1  2  0  0  0  0
  8  5  1  0  0  0  0
  9 18  1  0  0  0  0
 10  9  1  0  0  0  0
 10  3  1  0  0  0  0
 11 10  2  0  0  0  0
 12 11  1  0  0  0  0
 13 15  2  0  0  0  0
 13 11  1  0  0  0  0
 14 13  1  0  0  0  0
 15 16  1  0  0  0  0
 16  9  2  0  0  0  0
 18 17  3  0  0  0  0
 19 21  1  0  0  0  0
 19 20  1  0  0  0  0
M  END
>  <minimizedAffinity>
-4.22695398

$$$$

 OpenBabel03242522123D

 21 22  0  0  0  0  0  0  0  0999 V2000
   40.8020   32.0700   40.5990 C   0  0  0  0  0  0  0  0  0  0  0  0
   40.2040   31.1580   41.4690 C   0  0  0  0  0  0  0  0  0  0  0  0
   39.6810   29.9560   40.9780 C   0  0  0  0  0  0  0  0  0  0  0  0
   39.8010   29.7620   39.6490 N   0  0  0  0  0  0  0  0  0  0  0  0
   40.3790   30.6440   38.8230 C   0  0  0  0  0  0  0  0  0  0  0  0
   40.8840   31.8080   39.2900 N   0  0  0  0  0  0  0  0  0  0  0  0
   41.1960   32.9930   40.9730 H   0  0  0  0  0  0  0  0  0  0  0  0
   40.3680   30.2800   37.7940 H   0  0  0  0  0  0  0  0  0  0  0  0
   37.7100   29.0550   42.2000 C   0  0  0  0  0  0  0  0  0  0  0  0
   39.0790   29.0400   41.8870 C   0  0  0  0  0  0  0  0  0  0  0  0
   39.8750   28.0890   42.4980 C   0  0  0  0  0  0  0  0  0  0  0  0
   40.9400   27.9520   42.3620 H   0  0  0  0  0  0  0  0  0  0  0  0
   39.3460   27.1800   43.3870 C   0  0  0  0  0  0  0  0  0  0  0  0
   39.9190   26.4110   43.8940 H   0  0  0  0  0  0  0  0  0  0  0  0
   37.9960   27.2220   43.6760 C   0  0  0  0  0  3  0  0  0  0  0  0
   37.1410   28.1570   43.0930 C   0  0  0  0  0  3  0  0  0  0  0  0
   36.1930   30.8730   41.0530 N   0  0  0  0  0  0  0  0  0  0  0  0
   36.8670   30.0550   41.5600 C   0  0  0  0  0  0  0  0  0  0  0  0
   40.1750   31.5420   42.8590 N   0  0  0  0  0  0  0  0  0  0  0  0
   40.9350   32.1580   43.2190 H   0  0  0  0  0  0  0  0  0  0  0  0
   39.5690   31.3610   43.6610 H   0  0  0  0  0  0  0  0  0  0  0  0
  1  7  1  0  0  0  0
  1  2  1  0  0  0  0
  2 19  1  0  0  0  0
  3  2  2  0  0  0  0
  3 10  1  0  0  0  0
  4  3  1  0  0  0  0
  5  6  1  0  0  0  0
  5  4  2  0  0  0  0
  6  1  2  0  0  0  0
  8  5  1  0  0  0  0
  9 16  1  0  0  0  0
 10  9  2  0  0  0  0
 10 11  1  0  0  0  0
 11 13  2  0  0  0  0
 12 11  1  0  0  0  0
 13 15  1  0  0  0  0
 13 14  1  0  0  0  0
 16 15  2  0  0  0  0
 17 18  3  0  0  0  0
 18  9  1  0  0  0  0
 19 20  1  0  0  0  0
 19 21  1  0  0  0  0
M  END
>  <minimizedAffinity>
-4.22062826

$$$$
