
 OpenBabel03242512253D

 21 22  0  0  0  0  0  0  0  0999 V2000
   44.9870   34.9810   44.3270 C   0  0  0  0  0  0  0  0  0  0  0  0
   45.8490   35.1660   43.2350 C   0  0  0  0  0  0  0  0  0  0  0  0
   47.0230   34.3640   43.1690 C   0  0  0  0  0  0  0  0  0  0  0  0
   47.2280   33.4740   44.1700 N   0  0  0  0  0  0  0  0  0  0  0  0
   46.3810   33.3250   45.2010 C   0  0  0  0  0  0  0  0  0  0  0  0
   45.2630   34.0840   45.2670 N   0  0  0  0  0  0  0  0  0  0  0  0
   43.8180   35.7710   44.4020 N   0  0  0  0  0  0  0  0  0  0  0  0
   45.6710   35.8810   42.4410 H   0  0  0  0  0  0  0  0  0  0  0  0
   47.7000   34.4740   42.3580 H   0  0  0  0  0  0  0  0  0  0  0  0
   43.6420   36.5550   43.7200 H   0  0  0  0  0  0  0  0  0  0  0  0
   43.1070   35.5850   45.1440 H   0  0  0  0  0  0  0  0  0  0  0  0
   46.2810   31.0410   46.0420 C   0  0  0  0  0  0  0  0  0  0  0  0
   46.6190   32.3600   46.2720 C   0  0  0  0  0  0  0  0  0  0  0  0
   47.1660   32.7450   47.4850 C   0  0  0  0  0  0  0  0  0  0  0  0
   47.4110   33.8000   47.6020 H   0  0  0  0  0  0  0  0  0  0  0  0
   47.3840   31.8120   48.4900 C   0  0  0  0  0  0  0  0  0  0  0  0
   47.8160   32.2080   49.4030 H   0  0  0  0  0  0  0  0  0  0  0  0
   47.0350   30.5020   48.2280 C   0  0  0  0  0  0  0  0  0  0  0  0
   46.4960   30.1160   47.0380 C   0  0  0  0  0  0  0  0  0  0  0  0
   45.2480   30.3170   43.7670 N   0  0  0  0  0  0  0  0  0  0  0  0
   45.7100   30.6390   44.7780 C   0  0  0  0  0  0  0  0  0  0  0  0
  1  7  1  0  0  0  0
  1  6  1  0  0  0  0
  2  1  2  0  0  0  0
  3  2  1  0  0  0  0
  3  4  2  0  0  0  0
  4  5  1  0  0  0  0
  5  6  2  0  0  0  0
  5 13  1  0  0  0  0
  7 11  1  0  0  0  0
  8  2  1  0  0  0  0
  9  3  1  0  0  0  0
 10  7  1  0  0  0  0
 12 13  2  0  0  0  0
 12 19  1  0  0  0  0
 13 14  1  0  0  0  0
 14 15  1  0  0  0  0
 14 16  2  0  0  0  0
 16 17  1  0  0  0  0
 18 16  1  0  0  0  0
 19 18  2  0  0  0  0
 20 21  3  0  0  0  0
 21 12  1  0  0  0  0
M  END
>  <minimizedAffinity>
-4.68422651

>  <minimizedRMSD>
2.04866815

$$$$
