
 OpenBabel03252507203D

 45 48  0  0  1  0  0  0  0  0999 V2000
   46.9790   32.8910   43.4580 C   0  0  0  0  0  0  0  0  0  0  0  0
   48.1510   32.7930   43.9060 O   0  0  0  0  0  0  0  0  0  0  0  0
   46.4500   32.0580   42.4250 N   0  0  0  0  0  0  0  0  0  0  0  0
   45.1650   31.3740   42.3150 C   0  0  0  0  0  0  0  0  0  0  0  0
   44.5170   31.7350   40.9610 C   0  0  0  0  0  0  0  0  0  0  0  0
   45.3740   31.1810   39.8460 C   0  0  0  0  0  0  0  0  0  0  0  0
   46.7170   30.7780   40.3860 C   0  0  0  0  0  0  0  0  0  0  0  0
   47.2970   31.8370   41.2850 C   0  0  2  0  0  0  0  0  0  0  0  0
   44.4550   31.8410   43.0570 H   0  0  0  0  0  0  0  0  0  0  0  0
   45.2290   30.2930   42.4040 H   0  0  0  0  0  0  0  0  0  0  0  0
   43.4820   31.4030   40.9450 H   0  0  0  0  0  0  0  0  0  0  0  0
   44.6390   32.8470   40.9090 H   0  0  0  0  0  0  0  0  0  0  0  0
   45.4570   31.8630   38.9770 H   0  0  0  0  0  0  0  0  0  0  0  0
   44.8830   30.2510   39.4740 H   0  0  0  0  0  0  0  0  0  0  0  0
   47.4210   30.5730   39.5590 H   0  0  0  0  0  0  0  0  0  0  0  0
   46.6230   29.8080   40.9360 H   0  0  0  0  0  0  0  0  0  0  0  0
   47.2030   32.7920   40.6850 H   0  0  0  0  0  0  0  0  0  0  0  0
   45.7400   34.9820   43.1890 C   0  0  0  0  0  0  0  0  0  0  0  0
   46.1240   33.9080   44.0230 C   0  0  0  0  0  0  0  0  0  0  0  0
   45.6780   33.8620   45.3260 C   0  0  0  0  0  0  0  0  0  0  0  0
   44.8790   34.8590   45.7660 N   0  0  0  0  0  0  0  0  0  0  0  0
   44.5020   35.8950   44.9770 C   0  0  0  0  0  0  0  0  0  0  0  0
   44.9400   35.9360   43.7040 N   0  0  0  0  0  0  0  0  0  0  0  0
   46.0850   35.0270   42.1640 H   0  0  0  0  0  0  0  0  0  0  0  0
   43.8620   36.6330   45.4360 H   0  0  0  0  0  0  0  0  0  0  0  0
   46.0910   32.7550   46.1650 C   0  0  0  0  0  0  0  0  0  0  0  0
   45.5260   31.5260   46.0000 C   0  0  0  0  0  0  0  0  0  0  0  0
   45.9260   30.4830   46.8030 C   0  0  0  0  0  0  0  0  0  0  0  0
   46.8960   30.6240   47.7930 C   0  0  0  0  0  0  0  0  0  0  0  0
   47.4300   31.8910   47.9110 C   0  0  0  0  0  0  0  0  0  0  0  0
   47.0150   32.8850   47.1090 N   0  0  0  0  0  0  0  0  0  0  0  0
   44.7650   31.2540   45.2870 H   0  0  0  0  0  0  0  0  0  0  0  0
   45.5090   29.4760   46.7170 H   0  0  0  0  0  0  0  0  0  0  0  0
   47.2320   29.8260   48.4400 H   0  0  0  0  0  0  0  0  0  0  0  0
   48.1910   32.1480   48.6370 H   0  0  0  0  0  0  0  0  0  0  0  0
   49.2130   30.5030   42.1740 C   0  0  0  0  0  0  0  0  0  0  0  0
   48.7160   31.6530   41.5460 C   0  0  0  0  0  0  0  0  0  0  0  0
   49.7400   32.5570   41.2410 C   0  0  0  0  0  0  0  0  0  0  0  0
   49.4390   33.4770   40.7520 H   0  0  0  0  0  0  0  0  0  0  0  0
   51.0750   32.3570   41.5180 C   0  0  0  0  0  0  0  0  0  0  0  0
   51.8070   33.1060   41.2510 H   0  0  0  0  0  0  0  0  0  0  0  0
   51.4520   31.1850   42.1410 C   0  0  0  0  0  3  0  0  0  0  0  0
   50.5260   30.2230   42.4860 C   0  0  0  0  0  3  0  0  0  0  0  0
   47.4150   28.7130   42.8090 N   0  0  0  0  0  0  0  0  0  0  0  0
   48.2080   29.5140   42.5220 C   0  0  0  0  0  0  0  0  0  0  0  0
  1  2  2  0  0  0  0
  1 19  1  0  0  0  0
  3  1  1  0  0  0  0
  4 10  1  0  0  0  0
  4  3  1  0  0  0  0
  4  9  1  0  0  0  0
  5  4  1  0  0  0  0
  6  7  1  0  0  0  0
  6  5  1  0  0  0  0
  7 16  1  0  0  0  0
  7  8  1  0  0  0  0
  8 17  1  6  0  0  0
  8 37  1  0  0  0  0
  8  3  1  0  0  0  0
 11  5  1  0  0  0  0
 12  5  1  0  0  0  0
 13  6  1  0  0  0  0
 14  6  1  0  0  0  0
 15  7  1  0  0  0  0
 18 23  2  0  0  0  0
 18 19  1  0  0  0  0
 19 20  2  0  0  0  0
 20 21  1  0  0  0  0
 20 26  1  0  0  0  0
 22 25  1  0  0  0  0
 22 21  2  0  0  0  0
 23 22  1  0  0  0  0
 24 18  1  0  0  0  0
 26 31  1  0  0  0  0
 27 26  2  0  0  0  0
 27 28  1  0  0  0  0
 28 29  2  0  0  0  0
 29 30  1  0  0  0  0
 29 34  1  0  0  0  0
 30 35  1  0  0  0  0
 31 30  2  0  0  0  0
 32 27  1  0  0  0  0
 33 28  1  0  0  0  0
 36 43  1  0  0  0  0
 36 45  1  0  0  0  0
 37 36  2  0  0  0  0
 38 40  2  0  0  0  0
 38 37  1  0  0  0  0
 39 38  1  0  0  0  0
 40 42  1  0  0  0  0
 41 40  1  0  0  0  0
 42 43  2  0  0  0  0
 45 44  3  0  0  0  0
M  END
>  <minimizedAffinity>
-4.92504311

>  <minimizedRMSD>
2.20629525

$$$$
