
 OpenBabel03252507383D

 39 43  0  0  0  0  0  0  0  0999 V2000
   45.6700   34.7110   43.4530 C   0  0  0  0  0  0  0  0  0  0  0  0
   46.3850   33.6570   44.0760 C   0  0  0  0  0  0  0  0  0  0  0  0
   46.1620   33.4440   45.4160 C   0  0  0  0  0  0  0  0  0  0  0  0
   45.2840   34.2400   46.0670 N   0  0  0  0  0  0  0  0  0  0  0  0
   44.6090   35.2420   45.4560 C   0  0  0  0  0  0  0  0  0  0  0  0
   44.8040   35.4700   44.1640 N   0  0  0  0  0  0  0  0  0  0  0  0
   47.0790   33.0280   43.5640 H   0  0  0  0  0  0  0  0  0  0  0  0
   43.9320   35.8160   46.0720 H   0  0  0  0  0  0  0  0  0  0  0  0
   47.0390   32.6550   47.5490 C   0  0  0  0  0  0  0  0  0  0  0  0
   46.8110   32.4030   46.2050 C   0  0  0  0  0  0  0  0  0  0  0  0
   47.1970   31.1910   45.7020 C   0  0  0  0  0  0  0  0  0  0  0  0
   47.7990   30.2210   46.4780 C   0  0  0  0  0  0  0  0  0  0  0  0
   48.2510   28.9710   46.1940 N   0  0  0  0  0  0  0  0  0  0  0  0
   48.7550   28.4590   47.3660 C   0  0  0  0  0  0  0  0  0  0  0  0
   48.6090   29.3780   48.3260 N   0  0  0  0  0  0  0  0  0  0  0  0
   48.0260   30.4620   47.7990 C   0  0  0  0  0  0  0  0  0  0  0  0
   47.6470   31.6810   48.3390 C   0  0  0  0  0  0  0  0  0  0  0  0
   46.7560   33.5920   47.9990 H   0  0  0  0  0  0  0  0  0  0  0  0
   47.0170   30.9920   44.6380 H   0  0  0  0  0  0  0  0  0  0  0  0
   48.2000   28.5360   45.2530 H   0  0  0  0  0  0  0  0  0  0  0  0
   49.1940   27.4610   47.4570 H   0  0  0  0  0  0  0  0  0  0  0  0
   47.8340   31.8600   49.3940 H   0  0  0  0  0  0  0  0  0  0  0  0
   45.9040   34.9190   42.0880 O   0  0  0  0  0  0  0  0  0  0  0  0
   44.9280   34.5420   41.1630 C   0  0  0  0  0  0  0  0  0  0  0  0
   45.6930   33.8400   40.3070 C   0  0  0  0  0  0  0  0  0  0  0  0
   44.3980   33.2890   39.0140 S   0  0  0  0  0  0  0  0  0  0  0  0
   43.0700   34.1870   39.9930 C   0  0  0  0  0  0  0  0  0  0  0  0
   43.6570   34.5900   40.8190 N   0  0  0  0  0  0  0  0  0  0  0  0
   46.6820   33.2950   39.7720 H   0  0  0  0  0  0  0  0  0  0  0  0
   41.1310   33.3150   38.6780 C   0  0  0  0  0  0  0  0  0  0  0  0
   41.6340   34.2080   39.5560 C   0  0  0  0  0  0  0  0  0  0  0  0
   40.9020   35.2140   40.1340 C   0  0  0  0  0  0  0  0  0  0  0  0
   41.3250   35.9100   40.8280 H   0  0  0  0  0  0  0  0  0  0  0  0
   39.5770   35.2710   39.7600 C   0  0  0  0  0  0  0  0  0  0  0  0
   38.9690   36.0600   40.2030 H   0  0  0  0  0  0  0  0  0  0  0  0
   39.0390   34.3730   38.8680 C   0  0  0  0  0  3  0  0  0  0  0  0
   39.7940   33.3690   38.3000 C   0  0  0  0  0  3  0  0  0  0  0  0
   42.5560   31.4460   37.6260 N   0  0  0  0  0  0  0  0  0  0  0  0
   41.9260   32.2880   38.1030 C   0  0  0  0  0  0  0  0  0  0  0  0
  1  2  2  0  0  0  0
  1  6  1  0  0  0  0
  2  3  1  0  0  0  0
  3  4  2  0  0  0  0
  3 10  1  0  0  0  0
  5  4  1  0  0  0  0
  5  8  1  0  0  0  0
  6  5  2  0  0  0  0
  7  2  1  0  0  0  0
  9 18  1  0  0  0  0
  9 17  1  0  0  0  0
 10  9  2  0  0  0  0
 11 10  1  0  0  0  0
 11 12  2  0  0  0  0
 12 16  1  0  0  0  0
 13 12  1  0  0  0  0
 13 14  1  0  0  0  0
 14 21  1  0  0  0  0
 14 15  2  0  0  0  0
 16 15  1  0  0  0  0
 16 17  2  0  0  0  0
 17 22  1  0  0  0  0
 19 11  1  0  0  0  0
 20 13  1  0  0  0  0
 23  1  1  0  0  0  0
 24 23  1  0  0  0  0
 25 24  2  0  0  0  0
 26 27  1  0  0  0  0
 26 25  1  0  0  0  0
 27 28  2  0  0  0  0
 28 24  1  0  0  0  0
 29 25  1  0  0  0  0
 30 31  1  0  0  0  0
 31 27  1  0  0  0  0
 31 32  2  0  0  0  0
 32 33  1  0  0  0  0
 34 32  1  0  0  0  0
 34 35  1  0  0  0  0
 36 34  2  0  0  0  0
 37 30  2  0  0  0  0
 37 36  1  0  0  0  0
 38 39  3  0  0  0  0
 39 30  1  0  0  0  0
M  END
>  <minimizedAffinity>
-6.72560453

>  <minimizedRMSD>
1.06524801

$$$$
