
 OpenBabel03242521433D

 39 41  0  0  1  0  0  0  0  0999 V2000
   45.2140   36.2670   43.3920 C   0  0  0  0  0  0  0  0  0  0  0  0
   46.2100   35.3600   42.9980 C   0  0  0  0  0  0  0  0  0  0  0  0
   46.4890   34.2550   43.8150 C   0  0  0  0  0  0  0  0  0  0  0  0
   45.7830   34.1240   44.9380 N   0  0  0  0  0  0  0  0  0  0  0  0
   44.8250   35.0080   45.3050 C   0  0  0  0  0  0  0  0  0  0  0  0
   44.5400   36.0790   44.5320 N   0  0  0  0  0  0  0  0  0  0  0  0
   46.6980   35.5920   42.0650 H   0  0  0  0  0  0  0  0  0  0  0  0
   44.3290   34.7860   46.2360 H   0  0  0  0  0  0  0  0  0  0  0  0
   48.6620   34.0120   42.6330 C   0  0  2  0  0  0  0  0  0  0  0  0
   47.5290   33.3610   43.3480 C   0  0  2  0  0  0  0  0  0  0  0  0
   47.1010   32.4210   42.3670 O   0  0  0  0  0  0  0  0  0  0  0  0
   48.2780   31.7840   42.0370 C   0  0  0  0  0  0  0  0  0  0  0  0
   49.4290   32.7360   42.2360 C   0  0  1  0  0  0  0  0  0  0  0  0
   48.3080   34.4670   41.6660 H   0  0  0  0  0  0  0  0  0  0  0  0
   47.9470   32.7040   44.1630 H   0  0  0  0  0  0  0  0  0  0  0  0
   48.4220   30.8130   42.5830 H   0  0  0  0  0  0  0  0  0  0  0  0
   48.2490   31.5160   40.9590 H   0  0  0  0  0  0  0  0  0  0  0  0
   50.0930   32.4290   43.0440 H   0  0  0  0  0  0  0  0  0  0  0  0
   49.3980   34.8730   43.3910 O   0  0  0  0  0  0  0  0  0  0  0  0
   48.7600   35.4190   43.9050 H   0  0  0  0  0  0  0  0  0  0  0  0
   50.1540   32.9900   41.0790 O   0  0  0  0  0  0  0  0  0  0  0  0
   49.5620   33.2490   40.3360 H   0  0  0  0  0  0  0  0  0  0  0  0
   44.9320   37.4510   42.5110 C   0  0  0  0  0  0  0  0  0  0  0  0
   45.8220   37.6810   41.9060 H   0  0  0  0  0  0  0  0  0  0  0  0
   44.0750   37.2030   41.8520 H   0  0  0  0  0  0  0  0  0  0  0  0
   45.5200   39.6180   43.7500 C   0  0  0  0  0  0  0  0  0  0  0  0
   46.7030   39.5570   43.3100 O   0  0  0  0  0  0  0  0  0  0  0  0
   44.6390   38.5650   43.4060 N   0  0  0  0  0  0  0  0  0  0  0  0
   43.6820   38.6090   43.8530 H   0  0  0  0  0  0  0  0  0  0  0  0
   44.7650   40.3650   45.8900 C   0  0  0  0  0  0  0  0  0  0  0  0
   45.0660   40.7310   44.5830 C   0  0  0  0  0  0  0  0  0  0  0  0
   44.9130   42.0530   44.2190 C   0  0  0  0  0  0  0  0  0  0  0  0
   45.1640   42.2670   43.1940 H   0  0  0  0  0  0  0  0  0  0  0  0
   44.4720   42.9800   45.1380 C   0  0  0  0  0  0  0  0  0  0  0  0
   44.3600   44.0050   44.8330 H   0  0  0  0  0  0  0  0  0  0  0  0
   44.1610   42.6580   46.4480 C   0  0  0  0  0  3  0  0  0  0  0  0
   44.3230   41.3130   46.7920 C   0  0  0  0  0  3  0  0  0  0  0  0
   44.9860   37.9140   46.7460 N   0  0  0  0  0  0  0  0  0  0  0  0
   44.8900   39.0040   46.3770 C   0  0  0  0  0  0  0  0  0  0  0  0
  1  6  1  0  0  0  0
  2  1  2  0  0  0  0
  2  3  1  0  0  0  0
  3  4  2  0  0  0  0
  4  5  1  0  0  0  0
  5  8  1  0  0  0  0
  6  5  2  0  0  0  0
  7  2  1  0  0  0  0
  9 14  1  6  0  0  0
  9 10  1  0  0  0  0
  9 19  1  0  0  0  0
 10  3  1  0  0  0  0
 10 15  1  1  0  0  0
 11 10  1  0  0  0  0
 12 13  1  0  0  0  0
 12 11  1  0  0  0  0
 12 16  1  0  0  0  0
 13  9  1  0  0  0  0
 13 18  1  1  0  0  0
 17 12  1  0  0  0  0
 19 20  1  0  0  0  0
 21 13  1  0  0  0  0
 22 21  1  0  0  0  0
 23  1  1  0  0  0  0
 23 28  1  0  0  0  0
 24 23  1  0  0  0  0
 25 23  1  0  0  0  0
 26 31  1  0  0  0  0
 27 26  2  0  0  0  0
 28 26  1  0  0  0  0
 28 29  1  0  0  0  0
 30 39  1  0  0  0  0
 30 37  1  0  0  0  0
 31 30  2  0  0  0  0
 32 31  1  0  0  0  0
 32 34  2  0  0  0  0
 33 32  1  0  0  0  0
 34 36  1  0  0  0  0
 35 34  1  0  0  0  0
 36 37  2  0  0  0  0
 39 38  3  0  0  0  0
M  END
>  <minimizedAffinity>
1.02851927

>  <minimizedRMSD>
1.10268879

$$$$
