
 OpenBabel03242521173D

 39 41  0  0  0  0  0  0  0  0999 V2000
   46.2880   32.9910   46.5270 C   0  0  0  0  0  0  0  0  0  0  0  0
   46.6170   32.1020   45.9360 H   0  0  0  0  0  0  0  0  0  0  0  0
   47.1560   33.3920   47.0910 H   0  0  0  0  0  0  0  0  0  0  0  0
   44.4680   35.7660   44.7800 C   0  0  0  0  0  0  0  0  0  0  0  0
   45.0840   35.7060   43.5090 C   0  0  0  0  0  0  0  0  0  0  0  0
   46.0650   34.7360   43.3370 C   0  0  0  0  0  0  0  0  0  0  0  0
   46.3800   33.9040   44.3840 N   0  0  0  0  0  0  0  0  0  0  0  0
   45.7600   34.0120   45.5630 C   0  0  0  0  0  0  0  0  0  0  0  0
   44.7940   34.9400   45.7920 N   0  0  0  0  0  0  0  0  0  0  0  0
   43.6950   36.5020   44.9770 H   0  0  0  0  0  0  0  0  0  0  0  0
   44.7990   36.3830   42.7300 H   0  0  0  0  0  0  0  0  0  0  0  0
   46.7030   34.6550   42.0620 N   0  0  0  0  0  0  0  0  0  0  0  0
   47.9270   35.2130   41.9250 C   0  0  0  0  0  0  0  0  0  0  0  0
   48.5470   35.1380   40.6860 C   0  0  0  0  0  0  0  0  0  0  0  0
   47.9090   34.5120   39.6670 C   0  0  0  0  0  0  0  0  0  0  0  0
   48.4910   34.4500   38.5360 O   0  0  0  0  0  0  0  0  0  0  0  0
   46.6930   33.9510   39.7850 N   0  0  0  0  0  0  0  0  0  0  0  0
   46.1140   34.0440   41.0140 C   0  0  0  0  0  0  0  0  0  0  0  0
   44.9880   33.5610   41.2420 O   0  0  0  0  0  0  0  0  0  0  0  0
   48.4380   35.7130   42.7400 H   0  0  0  0  0  0  0  0  0  0  0  0
   49.5350   35.5900   40.5780 H   0  0  0  0  0  0  0  0  0  0  0  0
   46.1910   33.4640   38.9960 H   0  0  0  0  0  0  0  0  0  0  0  0
   45.2260   32.6170   47.5370 C   0  0  0  0  0  0  0  0  0  0  0  0
   45.5450   32.8730   48.5820 H   0  0  0  0  0  0  0  0  0  0  0  0
   44.2830   33.1420   47.2760 H   0  0  0  0  0  0  0  0  0  0  0  0
   45.6220   30.2830   48.2970 C   0  0  0  0  0  0  0  0  0  0  0  0
   46.2160   30.8420   49.2420 O   0  0  0  0  0  0  0  0  0  0  0  0
   44.9670   31.1910   47.4240 N   0  0  0  0  0  0  0  0  0  0  0  0
   44.2870   30.8800   46.6760 H   0  0  0  0  0  0  0  0  0  0  0  0
   46.3930   28.3870   46.9870 C   0  0  0  0  0  0  0  0  0  0  0  0
   45.4700   28.8770   47.9190 C   0  0  0  0  0  0  0  0  0  0  0  0
   44.5010   28.0270   48.4120 C   0  0  0  0  0  0  0  0  0  0  0  0
   43.8090   28.4300   49.1250 H   0  0  0  0  0  0  0  0  0  0  0  0
   44.4790   26.7180   47.9660 C   0  0  0  0  0  0  0  0  0  0  0  0
   43.7050   26.0360   48.3570 H   0  0  0  0  0  0  0  0  0  0  0  0
   45.3740   26.2040   47.0460 C   0  0  0  0  0  3  0  0  0  0  0  0
   46.3480   27.0660   46.5530 C   0  0  0  0  0  3  0  0  0  0  0  0
   48.2570   29.9320   46.0270 N   0  0  0  0  0  0  0  0  0  0  0  0
   47.4300   29.2480   46.4410 C   0  0  0  0  0  0  0  0  0  0  0  0
  1  3  1  0  0  0  0
  1 23  1  0  0  0  0
  2  1  1  0  0  0  0
  4 10  1  0  0  0  0
  4  9  1  0  0  0  0
  5  4  2  0  0  0  0
  6  5  1  0  0  0  0
  6  7  2  0  0  0  0
  7  8  1  0  0  0  0
  8  9  2  0  0  0  0
  8  1  1  0  0  0  0
 11  5  1  0  0  0  0
 12  6  1  0  0  0  0
 13 12  1  0  0  0  0
 13 20  1  0  0  0  0
 14 13  2  0  0  0  0
 15 17  1  0  0  0  0
 15 14  1  0  0  0  0
 16 15  2  0  0  0  0
 17 18  1  0  0  0  0
 18 19  2  0  0  0  0
 18 12  1  0  0  0  0
 21 14  1  0  0  0  0
 22 17  1  0  0  0  0
 23 24  1  0  0  0  0
 25 23  1  0  0  0  0
 26 27  2  0  0  0  0
 28 23  1  0  0  0  0
 28 26  1  0  0  0  0
 29 28  1  0  0  0  0
 30 31  1  0  0  0  0
 31 26  1  0  0  0  0
 31 32  2  0  0  0  0
 32 33  1  0  0  0  0
 34 35  1  0  0  0  0
 34 32  1  0  0  0  0
 36 34  2  0  0  0  0
 37 30  2  0  0  0  0
 37 36  1  0  0  0  0
 38 39  3  0  0  0  0
 39 30  1  0  0  0  0
M  END
>  <minimizedAffinity>
-6.20723343

>  <minimizedRMSD>
1.26055396

$$$$
