
 OpenBabel03242521173D

 39 41  0  0  0  0  0  0  0  0999 V2000
   46.2870   32.9910   46.5280 C   0  0  0  0  0  0  0  0  0  0  0  0
   46.6160   32.1020   45.9370 H   0  0  0  0  0  0  0  0  0  0  0  0
   47.1550   33.3920   47.0920 H   0  0  0  0  0  0  0  0  0  0  0  0
   44.4680   35.7670   44.7810 C   0  0  0  0  0  0  0  0  0  0  0  0
   45.0830   35.7060   43.5100 C   0  0  0  0  0  0  0  0  0  0  0  0
   46.0640   34.7360   43.3380 C   0  0  0  0  0  0  0  0  0  0  0  0
   46.3790   33.9040   44.3850 N   0  0  0  0  0  0  0  0  0  0  0  0
   45.7590   34.0120   45.5640 C   0  0  0  0  0  0  0  0  0  0  0  0
   44.7940   34.9400   45.7930 N   0  0  0  0  0  0  0  0  0  0  0  0
   43.6950   36.5030   44.9780 H   0  0  0  0  0  0  0  0  0  0  0  0
   44.7990   36.3820   42.7310 H   0  0  0  0  0  0  0  0  0  0  0  0
   46.7020   34.6540   42.0630 N   0  0  0  0  0  0  0  0  0  0  0  0
   47.9260   35.2120   41.9260 C   0  0  0  0  0  0  0  0  0  0  0  0
   48.5460   35.1370   40.6870 C   0  0  0  0  0  0  0  0  0  0  0  0
   47.9080   34.5110   39.6680 C   0  0  0  0  0  0  0  0  0  0  0  0
   48.4890   34.4490   38.5370 O   0  0  0  0  0  0  0  0  0  0  0  0
   46.6920   33.9510   39.7860 N   0  0  0  0  0  0  0  0  0  0  0  0
   46.1130   34.0430   41.0150 C   0  0  0  0  0  0  0  0  0  0  0  0
   44.9870   33.5610   41.2430 O   0  0  0  0  0  0  0  0  0  0  0  0
   48.4370   35.7120   42.7410 H   0  0  0  0  0  0  0  0  0  0  0  0
   49.5340   35.5890   40.5790 H   0  0  0  0  0  0  0  0  0  0  0  0
   46.1890   33.4630   38.9980 H   0  0  0  0  0  0  0  0  0  0  0  0
   45.2250   32.6170   47.5380 C   0  0  0  0  0  0  0  0  0  0  0  0
   45.5440   32.8730   48.5830 H   0  0  0  0  0  0  0  0  0  0  0  0
   44.2820   33.1410   47.2770 H   0  0  0  0  0  0  0  0  0  0  0  0
   45.6210   30.2820   48.2970 C   0  0  0  0  0  0  0  0  0  0  0  0
   46.2160   30.8410   49.2420 O   0  0  0  0  0  0  0  0  0  0  0  0
   44.9660   31.1910   47.4240 N   0  0  0  0  0  0  0  0  0  0  0  0
   44.2850   30.8800   46.6770 H   0  0  0  0  0  0  0  0  0  0  0  0
   46.3920   28.3870   46.9870 C   0  0  0  0  0  0  0  0  0  0  0  0
   45.4700   28.8770   47.9190 C   0  0  0  0  0  0  0  0  0  0  0  0
   44.5020   28.0280   48.4120 C   0  0  0  0  0  0  0  0  0  0  0  0
   43.8080   28.4300   49.1260 H   0  0  0  0  0  0  0  0  0  0  0  0
   44.4780   26.7180   47.9650 C   0  0  0  0  0  0  0  0  0  0  0  0
   43.7050   26.0360   48.3570 H   0  0  0  0  0  0  0  0  0  0  0  0
   45.3740   26.2040   47.0460 C   0  0  0  0  0  3  0  0  0  0  0  0
   46.3480   27.0660   46.5540 C   0  0  0  0  0  3  0  0  0  0  0  0
   48.2580   29.9320   46.0270 N   0  0  0  0  0  0  0  0  0  0  0  0
   47.4290   29.2480   46.4410 C   0  0  0  0  0  0  0  0  0  0  0  0
  1  3  1  0  0  0  0
  1 23  1  0  0  0  0
  2  1  1  0  0  0  0
  4 10  1  0  0  0  0
  4  9  1  0  0  0  0
  5  4  2  0  0  0  0
  6  5  1  0  0  0  0
  6  7  2  0  0  0  0
  7  8  1  0  0  0  0
  8  9  2  0  0  0  0
  8  1  1  0  0  0  0
 11  5  1  0  0  0  0
 12  6  1  0  0  0  0
 13 12  1  0  0  0  0
 13 20  1  0  0  0  0
 14 13  2  0  0  0  0
 15 17  1  0  0  0  0
 15 14  1  0  0  0  0
 16 15  2  0  0  0  0
 17 18  1  0  0  0  0
 18 19  2  0  0  0  0
 18 12  1  0  0  0  0
 21 14  1  0  0  0  0
 22 17  1  0  0  0  0
 23 24  1  0  0  0  0
 25 23  1  0  0  0  0
 26 27  2  0  0  0  0
 28 23  1  0  0  0  0
 28 26  1  0  0  0  0
 29 28  1  0  0  0  0
 30 31  1  0  0  0  0
 31 26  1  0  0  0  0
 31 32  2  0  0  0  0
 32 33  1  0  0  0  0
 34 35  1  0  0  0  0
 34 32  1  0  0  0  0
 36 34  2  0  0  0  0
 37 30  2  0  0  0  0
 37 36  1  0  0  0  0
 38 39  3  0  0  0  0
 39 30  1  0  0  0  0
M  END
>  <minimizedAffinity>
-6.20754528

>  <minimizedRMSD>
0.969643831

$$$$
