
 OpenBabel03242520203D

 36 38  0  0  0  0  0  0  0  0999 V2000
   37.9820   27.6390   43.5540 C   0  0  0  0  0  0  0  0  0  0  0  0
   38.9090   28.2340   43.4430 H   0  0  0  0  0  0  0  0  0  0  0  0
   37.7930   27.4670   44.6470 H   0  0  0  0  0  0  0  0  0  0  0  0
   37.4570   24.5030   41.5410 C   0  0  0  0  0  0  0  0  0  0  0  0
   37.2170   25.7400   42.1430 C   0  0  0  0  0  0  0  0  0  0  0  0
   38.2140   26.3240   42.9120 C   0  0  0  0  0  0  0  0  0  0  0  0
   39.3960   25.6450   43.0380 N   0  0  0  0  0  0  0  0  0  0  0  0
   39.5910   24.4420   42.4340 C   0  0  0  0  0  0  0  0  0  0  0  0
   38.6390   23.8750   41.6950 N   0  0  0  0  0  0  0  0  0  0  0  0
   36.2550   26.1940   41.9930 H   0  0  0  0  0  0  0  0  0  0  0  0
   40.5800   23.9950   42.6040 H   0  0  0  0  0  0  0  0  0  0  0  0
   36.3810   23.8700   40.7320 C   0  0  0  0  0  0  0  0  0  0  0  0
   36.4190   24.3650   39.2360 C   0  0  0  0  0  0  0  0  0  0  0  0
   36.6150   22.9720   39.6580 C   0  0  0  0  0  0  0  0  0  0  0  0
   35.3460   23.9830   41.1740 H   0  0  0  0  0  0  0  0  0  0  0  0
   37.2710   24.9640   38.9250 H   0  0  0  0  0  0  0  0  0  0  0  0
   35.4430   24.6910   38.8050 H   0  0  0  0  0  0  0  0  0  0  0  0
   37.6450   22.5200   39.5920 H   0  0  0  0  0  0  0  0  0  0  0  0
   35.8170   22.2400   39.3740 H   0  0  0  0  0  0  0  0  0  0  0  0
   36.7880   28.3400   42.9660 C   0  0  0  0  0  0  0  0  0  0  0  0
   35.9310   28.2800   43.6990 H   0  0  0  0  0  0  0  0  0  0  0  0
   36.4470   27.7760   42.0980 H   0  0  0  0  0  0  0  0  0  0  0  0
   37.5750   30.0690   41.3750 C   0  0  0  0  0  0  0  0  0  0  0  0
   37.7410   29.1920   40.4660 O   0  0  0  0  0  0  0  0  0  0  0  0
   37.0660   29.7410   42.6600 N   0  0  0  0  0  0  0  0  0  0  0  0
   36.9160   30.5150   43.3340 H   0  0  0  0  0  0  0  0  0  0  0  0
   39.1690   32.0470   41.1710 C   0  0  0  0  0  0  0  0  0  0  0  0
   37.9670   31.3950   40.9130 C   0  0  0  0  0  0  0  0  0  0  0  0
   37.1020   32.1590   40.1090 C   0  0  0  0  0  0  0  0  0  0  0  0
   36.1440   31.6520   39.8880 H   0  0  0  0  0  0  0  0  0  0  0  0
   37.3190   33.4030   39.5910 C   0  0  0  0  0  0  0  0  0  0  0  0
   36.5540   33.8430   38.9890 H   0  0  0  0  0  0  0  0  0  0  0  0
   38.5380   33.9690   39.9010 C   0  0  0  0  0  3  0  0  0  0  0  0
   39.4490   33.2930   40.6820 C   0  0  0  0  0  3  0  0  0  0  0  0
   40.8710   30.7740   42.6560 N   0  0  0  0  0  0  0  0  0  0  0  0
   40.1140   31.3510   41.9910 C   0  0  0  0  0  0  0  0  0  0  0  0
  1  3  1  0  0  0  0
  2  1  1  0  0  0  0
  4  9  2  0  0  0  0
  4  5  1  0  0  0  0
  5  6  2  0  0  0  0
  6  7  1  0  0  0  0
  6  1  1  0  0  0  0
  8 11  1  0  0  0  0
  8  7  2  0  0  0  0
  9  8  1  0  0  0  0
 10  5  1  0  0  0  0
 12 15  1  0  0  0  0
 12  4  1  0  0  0  0
 13 14  1  0  0  0  0
 13 12  1  0  0  0  0
 14 12  1  0  0  0  0
 16 13  1  0  0  0  0
 17 13  1  0  0  0  0
 18 14  1  0  0  0  0
 19 14  1  0  0  0  0
 20  1  1  0  0  0  0
 20 21  1  0  0  0  0
 22 20  1  0  0  0  0
 23 25  1  0  0  0  0
 24 23  2  0  0  0  0
 25 20  1  0  0  0  0
 25 26  1  0  0  0  0
 27 36  1  0  0  0  0
 28 27  1  0  0  0  0
 28 23  1  0  0  0  0
 29 28  2  0  0  0  0
 30 29  1  0  0  0  0
 31 33  2  0  0  0  0
 31 29  1  0  0  0  0
 32 31  1  0  0  0  0
 33 34  1  0  0  0  0
 34 27  2  0  0  0  0
 36 35  3  0  0  0  0
M  END
>  <minimizedAffinity>
-5.40892982

$$$$

 OpenBabel03242520203D

 36 38  0  0  0  0  0  0  0  0999 V2000
   35.5710   27.9800   37.7460 C   0  0  0  0  0  0  0  0  0  0  0  0
   36.0950   27.0040   37.7500 H   0  0  0  0  0  0  0  0  0  0  0  0
   35.9910   28.6100   36.9180 H   0  0  0  0  0  0  0  0  0  0  0  0
   36.3840   28.5520   41.3760 C   0  0  0  0  0  0  0  0  0  0  0  0
   36.1020   27.8990   40.1740 C   0  0  0  0  0  0  0  0  0  0  0  0
   35.8650   28.6520   39.0330 C   0  0  0  0  0  0  0  0  0  0  0  0
   35.9240   30.0150   39.1510 N   0  0  0  0  0  0  0  0  0  0  0  0
   36.2030   30.6130   40.3400 C   0  0  0  0  0  0  0  0  0  0  0  0
   36.4310   29.8960   41.4400 N   0  0  0  0  0  0  0  0  0  0  0  0
   36.0690   26.8250   40.1810 H   0  0  0  0  0  0  0  0  0  0  0  0
   36.2260   31.7110   40.3110 H   0  0  0  0  0  0  0  0  0  0  0  0
   36.6180   27.7420   42.6020 C   0  0  0  0  0  0  0  0  0  0  0  0
   38.1210   27.2780   42.7070 C   0  0  0  0  0  0  0  0  0  0  0  0
   37.4480   28.1500   43.6800 C   0  0  0  0  0  0  0  0  0  0  0  0
   35.9110   26.8670   42.7180 H   0  0  0  0  0  0  0  0  0  0  0  0
   38.8290   27.7000   41.9970 H   0  0  0  0  0  0  0  0  0  0  0  0
   38.2840   26.1990   42.9350 H   0  0  0  0  0  0  0  0  0  0  0  0
   37.7250   29.2410   43.7190 H   0  0  0  0  0  0  0  0  0  0  0  0
   37.2680   27.7260   44.6990 H   0  0  0  0  0  0  0  0  0  0  0  0
   34.0910   27.8240   37.5280 C   0  0  0  0  0  0  0  0  0  0  0  0
   33.6350   27.3410   38.4410 H   0  0  0  0  0  0  0  0  0  0  0  0
   33.9330   27.1010   36.7270 H   0  0  0  0  0  0  0  0  0  0  0  0
   32.2310   29.1130   36.5180 C   0  0  0  0  0  0  0  0  0  0  0  0
   31.6830   28.0410   36.1010 O   0  0  0  0  0  0  0  0  0  0  0  0
   33.4320   29.1030   37.2770 N   0  0  0  0  0  0  0  0  0  0  0  0
   33.7960   30.0110   37.6200 H   0  0  0  0  0  0  0  0  0  0  0  0
   30.4980   30.9490   36.8620 C   0  0  0  0  0  0  0  0  0  0  0  0
   31.4710   30.2900   36.1170 C   0  0  0  0  0  0  0  0  0  0  0  0
   31.6870   30.8900   34.8640 C   0  0  0  0  0  0  0  0  0  0  0  0
   32.4640   30.3830   34.2610 H   0  0  0  0  0  0  0  0  0  0  0  0
   31.0710   31.9910   34.3430 C   0  0  0  0  0  0  0  0  0  0  0  0
   31.3600   32.3240   33.3710 H   0  0  0  0  0  0  0  0  0  0  0  0
   30.1210   32.5760   35.1550 C   0  0  0  0  0  3  0  0  0  0  0  0
   29.8430   32.0570   36.4010 C   0  0  0  0  0  3  0  0  0  0  0  0
   29.9630   29.9790   39.2060 N   0  0  0  0  0  0  0  0  0  0  0  0
   30.2000   30.4060   38.1530 C   0  0  0  0  0  0  0  0  0  0  0  0
  1  2  1  0  0  0  0
  1  6  1  0  0  0  0
  3  1  1  0  0  0  0
  4  9  1  0  0  0  0
  4 12  1  0  0  0  0
  5 10  1  0  0  0  0
  5  4  2  0  0  0  0
  6  7  2  0  0  0  0
  6  5  1  0  0  0  0
  7  8  1  0  0  0  0
  8  9  2  0  0  0  0
 11  8  1  0  0  0  0
 12 13  1  0  0  0  0
 12 15  1  0  0  0  0
 12 14  1  0  0  0  0
 13 17  1  0  0  0  0
 13 14  1  0  0  0  0
 14 18  1  0  0  0  0
 14 19  1  0  0  0  0
 16 13  1  0  0  0  0
 20  1  1  0  0  0  0
 20 21  1  0  0  0  0
 22 20  1  0  0  0  0
 23 25  1  0  0  0  0
 24 23  2  0  0  0  0
 25 20  1  0  0  0  0
 25 26  1  0  0  0  0
 27 36  1  0  0  0  0
 28 23  1  0  0  0  0
 28 27  2  0  0  0  0
 29 28  1  0  0  0  0
 30 29  1  0  0  0  0
 31 29  2  0  0  0  0
 31 33  1  0  0  0  0
 32 31  1  0  0  0  0
 33 34  2  0  0  0  0
 34 27  1  0  0  0  0
 36 35  3  0  0  0  0
M  END
>  <minimizedAffinity>
-5.34349298

$$$$

 OpenBabel03242520203D

 36 38  0  0  0  0  0  0  0  0999 V2000
   36.7700   27.0820   43.1760 C   0  0  0  0  0  0  0  0  0  0  0  0
   36.1720   26.6180   43.9830 H   0  0  0  0  0  0  0  0  0  0  0  0
   36.0720   27.4670   42.3860 H   0  0  0  0  0  0  0  0  0  0  0  0
   37.8450   24.0620   41.2060 C   0  0  0  0  0  0  0  0  0  0  0  0
   37.0340   25.0490   41.7700 C   0  0  0  0  0  0  0  0  0  0  0  0
   37.6110   26.0220   42.5740 C   0  0  0  0  0  0  0  0  0  0  0  0
   38.9650   25.9610   42.7690 N   0  0  0  0  0  0  0  0  0  0  0  0
   39.7210   24.9830   42.2010 C   0  0  0  0  0  0  0  0  0  0  0  0
   39.1730   24.0460   41.4290 N   0  0  0  0  0  0  0  0  0  0  0  0
   35.9800   25.0110   41.5660 H   0  0  0  0  0  0  0  0  0  0  0  0
   40.7940   25.0390   42.4270 H   0  0  0  0  0  0  0  0  0  0  0  0
   37.2220   23.0090   40.3600 C   0  0  0  0  0  0  0  0  0  0  0  0
   37.0380   23.4980   38.8730 C   0  0  0  0  0  0  0  0  0  0  0  0
   37.8770   22.3630   39.2780 C   0  0  0  0  0  0  0  0  0  0  0  0
   36.2550   22.5960   40.7770 H   0  0  0  0  0  0  0  0  0  0  0  0
   37.4980   24.4430   38.5930 H   0  0  0  0  0  0  0  0  0  0  0  0
   36.0320   23.3230   38.4230 H   0  0  0  0  0  0  0  0  0  0  0  0
   38.9980   22.4680   39.2320 H   0  0  0  0  0  0  0  0  0  0  0  0
   37.5380   21.3440   38.9640 H   0  0  0  0  0  0  0  0  0  0  0  0
   37.6020   28.2310   43.6800 C   0  0  0  0  0  0  0  0  0  0  0  0
   38.6940   27.9790   43.5420 H   0  0  0  0  0  0  0  0  0  0  0  0
   37.4710   28.3070   44.7590 H   0  0  0  0  0  0  0  0  0  0  0  0
   38.1230   29.8580   41.8850 C   0  0  0  0  0  0  0  0  0  0  0  0
   39.0720   29.1220   41.4600 O   0  0  0  0  0  0  0  0  0  0  0  0
   37.3020   29.4780   42.9810 N   0  0  0  0  0  0  0  0  0  0  0  0
   36.5210   30.1070   43.2420 H   0  0  0  0  0  0  0  0  0  0  0  0
   37.0820   31.3720   40.1200 C   0  0  0  0  0  0  0  0  0  0  0  0
   38.0160   31.0890   41.1110 C   0  0  0  0  0  0  0  0  0  0  0  0
   38.9070   32.1540   41.3320 C   0  0  0  0  0  0  0  0  0  0  0  0
   39.6530   31.9480   42.1230 H   0  0  0  0  0  0  0  0  0  0  0  0
   38.9380   33.3660   40.7040 C   0  0  0  0  0  0  0  0  0  0  0  0
   39.6820   34.0730   40.9990 H   0  0  0  0  0  0  0  0  0  0  0  0
   37.9730   33.5550   39.7360 C   0  0  0  0  0  3  0  0  0  0  0  0
   37.0570   32.5660   39.4530 C   0  0  0  0  0  3  0  0  0  0  0  0
   35.3670   29.5030   39.5850 N   0  0  0  0  0  0  0  0  0  0  0  0
   36.1350   30.3430   39.8160 C   0  0  0  0  0  0  0  0  0  0  0  0
  1 20  1  0  0  0  0
  1  2  1  0  0  0  0
  3  1  1  0  0  0  0
  4  9  2  0  0  0  0
  4  5  1  0  0  0  0
  5  6  2  0  0  0  0
  6  7  1  0  0  0  0
  6  1  1  0  0  0  0
  8 11  1  0  0  0  0
  8  7  2  0  0  0  0
  9  8  1  0  0  0  0
 10  5  1  0  0  0  0
 12 15  1  0  0  0  0
 12  4  1  0  0  0  0
 13 14  1  0  0  0  0
 13 12  1  0  0  0  0
 14 12  1  0  0  0  0
 16 13  1  0  0  0  0
 17 13  1  0  0  0  0
 18 14  1  0  0  0  0
 19 14  1  0  0  0  0
 20 22  1  0  0  0  0
 21 20  1  0  0  0  0
 23 25  1  0  0  0  0
 24 23  2  0  0  0  0
 25 26  1  0  0  0  0
 25 20  1  0  0  0  0
 27 28  1  0  0  0  0
 28 29  2  0  0  0  0
 28 23  1  0  0  0  0
 29 30  1  0  0  0  0
 31 32  1  0  0  0  0
 31 29  1  0  0  0  0
 33 31  2  0  0  0  0
 34 33  1  0  0  0  0
 34 27  2  0  0  0  0
 35 36  3  0  0  0  0
 36 27  1  0  0  0  0
M  END
>  <minimizedAffinity>
-5.26301861

$$$$

 OpenBabel03242520203D

 36 38  0  0  0  0  0  0  0  0999 V2000
   37.9070   28.4700   43.5370 C   0  0  0  0  0  0  0  0  0  0  0  0
   37.7620   28.9040   44.5450 H   0  0  0  0  0  0  0  0  0  0  0  0
   38.7240   27.7020   43.5900 H   0  0  0  0  0  0  0  0  0  0  0  0
   37.9060   31.1410   40.8860 C   0  0  0  0  0  0  0  0  0  0  0  0
   37.4680   30.1100   41.7210 C   0  0  0  0  0  0  0  0  0  0  0  0
   38.3530   29.5590   42.6380 C   0  0  0  0  0  0  0  0  0  0  0  0
   39.6240   30.0650   42.6740 N   0  0  0  0  0  0  0  0  0  0  0  0
   40.0120   31.0710   41.8440 C   0  0  0  0  0  0  0  0  0  0  0  0
   39.1680   31.6050   40.9620 N   0  0  0  0  0  0  0  0  0  0  0  0
   36.4540   29.7730   41.6140 H   0  0  0  0  0  0  0  0  0  0  0  0
   41.0530   31.3960   41.9680 H   0  0  0  0  0  0  0  0  0  0  0  0
   36.9620   31.7180   39.8920 C   0  0  0  0  0  0  0  0  0  0  0  0
   37.3240   33.2140   39.5550 C   0  0  0  0  0  0  0  0  0  0  0  0
   37.3310   32.1160   38.5800 C   0  0  0  0  0  0  0  0  0  0  0  0
   35.8730   31.6160   40.1780 H   0  0  0  0  0  0  0  0  0  0  0  0
   38.2630   33.6050   39.9410 H   0  0  0  0  0  0  0  0  0  0  0  0
   36.4770   33.9390   39.5810 H   0  0  0  0  0  0  0  0  0  0  0  0
   38.3180   31.7320   38.1950 H   0  0  0  0  0  0  0  0  0  0  0  0
   36.5510   32.1450   37.7780 H   0  0  0  0  0  0  0  0  0  0  0  0
   36.6580   27.8040   43.0260 C   0  0  0  0  0  0  0  0  0  0  0  0
   36.2870   28.3680   42.1200 H   0  0  0  0  0  0  0  0  0  0  0  0
   35.8690   27.9290   43.7680 H   0  0  0  0  0  0  0  0  0  0  0  0
   36.9490   26.0610   41.2890 C   0  0  0  0  0  0  0  0  0  0  0  0
   36.8730   26.9350   40.3650 O   0  0  0  0  0  0  0  0  0  0  0  0
   36.8850   26.4070   42.6650 N   0  0  0  0  0  0  0  0  0  0  0  0
   36.9980   25.6470   43.3610 H   0  0  0  0  0  0  0  0  0  0  0  0
   38.0440   23.7660   41.1240 C   0  0  0  0  0  0  0  0  0  0  0  0
   37.1060   24.7200   40.7400 C   0  0  0  0  0  0  0  0  0  0  0  0
   36.2570   24.2590   39.7190 C   0  0  0  0  0  0  0  0  0  0  0  0
   35.5000   25.0030   39.4060 H   0  0  0  0  0  0  0  0  0  0  0  0
   36.2650   23.0390   39.1070 C   0  0  0  0  0  0  0  0  0  0  0  0
   35.5400   22.8460   38.3480 H   0  0  0  0  0  0  0  0  0  0  0  0
   37.2300   22.1600   39.5540 C   0  0  0  0  0  3  0  0  0  0  0  0
   38.1060   22.5250   40.5530 C   0  0  0  0  0  3  0  0  0  0  0  0
   39.7190   24.4450   42.9830 N   0  0  0  0  0  0  0  0  0  0  0  0
   38.9620   24.1460   42.1540 C   0  0  0  0  0  0  0  0  0  0  0  0
  1  3  1  0  0  0  0
  1  2  1  0  0  0  0
  4  9  2  0  0  0  0
  4  5  1  0  0  0  0
  5  6  2  0  0  0  0
  6  7  1  0  0  0  0
  6  1  1  0  0  0  0
  8 11  1  0  0  0  0
  8  7  2  0  0  0  0
  9  8  1  0  0  0  0
 10  5  1  0  0  0  0
 12 15  1  0  0  0  0
 12  4  1  0  0  0  0
 13 17  1  0  0  0  0
 13 12  1  0  0  0  0
 13 16  1  0  0  0  0
 14 13  1  0  0  0  0
 14 12  1  0  0  0  0
 18 14  1  0  0  0  0
 19 14  1  0  0  0  0
 20  1  1  0  0  0  0
 20 22  1  0  0  0  0
 21 20  1  0  0  0  0
 23 25  1  0  0  0  0
 24 23  2  0  0  0  0
 25 20  1  0  0  0  0
 25 26  1  0  0  0  0
 27 36  1  0  0  0  0
 28 27  1  0  0  0  0
 28 23  1  0  0  0  0
 29 28  2  0  0  0  0
 30 29  1  0  0  0  0
 31 33  2  0  0  0  0
 31 29  1  0  0  0  0
 32 31  1  0  0  0  0
 33 34  1  0  0  0  0
 34 27  2  0  0  0  0
 36 35  3  0  0  0  0
M  END
>  <minimizedAffinity>
-5.25323009

$$$$

 OpenBabel03242520203D

 36 38  0  0  0  0  0  0  0  0999 V2000
   36.0290   30.3760   40.8960 C   0  0  0  0  0  0  0  0  0  0  0  0
   35.1210   31.0060   40.8360 H   0  0  0  0  0  0  0  0  0  0  0  0
   36.6060   30.6630   41.8150 H   0  0  0  0  0  0  0  0  0  0  0  0
   37.2530   30.5890   37.3430 C   0  0  0  0  0  0  0  0  0  0  0  0
   36.4530   30.2870   38.4470 C   0  0  0  0  0  0  0  0  0  0  0  0
   36.8670   30.6810   39.7120 C   0  0  0  0  0  0  0  0  0  0  0  0
   38.0540   31.3560   39.8080 N   0  0  0  0  0  0  0  0  0  0  0  0
   38.8040   31.6330   38.7080 C   0  0  0  0  0  0  0  0  0  0  0  0
   38.4130   31.2570   37.4910 N   0  0  0  0  0  0  0  0  0  0  0  0
   35.5410   29.7460   38.2740 H   0  0  0  0  0  0  0  0  0  0  0  0
   39.7340   32.1820   38.9090 H   0  0  0  0  0  0  0  0  0  0  0  0
   36.8160   30.1500   35.9910 C   0  0  0  0  0  0  0  0  0  0  0  0
   37.1920   28.6410   35.7270 C   0  0  0  0  0  0  0  0  0  0  0  0
   35.8200   29.1650   35.7560 C   0  0  0  0  0  0  0  0  0  0  0  0
   37.1800   30.8140   35.1510 H   0  0  0  0  0  0  0  0  0  0  0  0
   37.5710   28.0620   36.5670 H   0  0  0  0  0  0  0  0  0  0  0  0
   37.6930   28.4260   34.7540 H   0  0  0  0  0  0  0  0  0  0  0  0
   35.1520   28.9050   36.6250 H   0  0  0  0  0  0  0  0  0  0  0  0
   35.2610   29.1750   34.7870 H   0  0  0  0  0  0  0  0  0  0  0  0
   35.6960   28.9120   40.9770 C   0  0  0  0  0  0  0  0  0  0  0  0
   35.1200   28.6150   40.0520 H   0  0  0  0  0  0  0  0  0  0  0  0
   34.9950   28.7600   41.7980 H   0  0  0  0  0  0  0  0  0  0  0  0
   37.1800   27.4690   42.3390 C   0  0  0  0  0  0  0  0  0  0  0  0
   36.4040   27.5780   43.3440 O   0  0  0  0  0  0  0  0  0  0  0  0
   36.8910   28.0790   41.0890 N   0  0  0  0  0  0  0  0  0  0  0  0
   37.5470   27.9100   40.3050 H   0  0  0  0  0  0  0  0  0  0  0  0
   38.5240   25.3050   42.3970 C   0  0  0  0  0  0  0  0  0  0  0  0
   38.3510   26.6610   42.6570 C   0  0  0  0  0  0  0  0  0  0  0  0
   39.4690   27.2350   43.2860 C   0  0  0  0  0  0  0  0  0  0  0  0
   39.3510   28.3150   43.4940 H   0  0  0  0  0  0  0  0  0  0  0  0
   40.6380   26.6250   43.6420 C   0  0  0  0  0  0  0  0  0  0  0  0
   41.3970   27.2120   44.1100 H   0  0  0  0  0  0  0  0  0  0  0  0
   40.7170   25.2800   43.3430 C   0  0  0  0  0  3  0  0  0  0  0  0
   39.6690   24.6330   42.7260 C   0  0  0  0  0  3  0  0  0  0  0  0
   36.5560   24.0630   41.2530 N   0  0  0  0  0  0  0  0  0  0  0  0
   37.4330   24.6270   41.7640 C   0  0  0  0  0  0  0  0  0  0  0  0
  1 20  1  0  0  0  0
  1  3  1  0  0  0  0
  2  1  1  0  0  0  0
  4  9  2  0  0  0  0
  4  5  1  0  0  0  0
  5  6  2  0  0  0  0
  6  7  1  0  0  0  0
  6  1  1  0  0  0  0
  8 11  1  0  0  0  0
  8  7  2  0  0  0  0
  9  8  1  0  0  0  0
 10  5  1  0  0  0  0
 12  4  1  0  0  0  0
 13 14  1  0  0  0  0
 13 12  1  0  0  0  0
 13 16  1  0  0  0  0
 14 12  1  0  0  0  0
 14 18  1  0  0  0  0
 15 12  1  0  0  0  0
 17 13  1  0  0  0  0
 19 14  1  0  0  0  0
 20 25  1  0  0  0  0
 20 22  1  0  0  0  0
 21 20  1  0  0  0  0
 23 28  1  0  0  0  0
 23 24  2  0  0  0  0
 25 23  1  0  0  0  0
 26 25  1  0  0  0  0
 27 28  2  0  0  0  0
 27 34  1  0  0  0  0
 28 29  1  0  0  0  0
 29 30  1  0  0  0  0
 29 31  2  0  0  0  0
 31 32  1  0  0  0  0
 33 31  1  0  0  0  0
 34 33  2  0  0  0  0
 35 36  3  0  0  0  0
 36 27  1  0  0  0  0
M  END
>  <minimizedAffinity>
-5.12195015

$$$$

 OpenBabel03242520203D

 36 38  0  0  0  0  0  0  0  0999 V2000
   37.3100   28.2430   43.6010 C   0  0  0  0  0  0  0  0  0  0  0  0
   37.3600   28.1160   44.7000 H   0  0  0  0  0  0  0  0  0  0  0  0
   36.2340   28.3540   43.3000 H   0  0  0  0  0  0  0  0  0  0  0  0
   37.4990   24.9780   41.7400 C   0  0  0  0  0  0  0  0  0  0  0  0
   36.9800   26.1350   42.3250 C   0  0  0  0  0  0  0  0  0  0  0  0
   37.8390   27.0060   42.9810 C   0  0  0  0  0  0  0  0  0  0  0  0
   39.1680   26.6780   43.0170 N   0  0  0  0  0  0  0  0  0  0  0  0
   39.6340   25.5410   42.4340 C   0  0  0  0  0  0  0  0  0  0  0  0
   38.8150   24.7000   41.8030 N   0  0  0  0  0  0  0  0  0  0  0  0
   35.9220   26.3040   42.2510 H   0  0  0  0  0  0  0  0  0  0  0  0
   40.7170   25.3860   42.5250 H   0  0  0  0  0  0  0  0  0  0  0  0
   36.5740   24.0360   41.0540 C   0  0  0  0  0  0  0  0  0  0  0  0
   36.3590   24.4370   39.5450 C   0  0  0  0  0  0  0  0  0  0  0  0
   36.9570   23.1730   39.9940 C   0  0  0  0  0  0  0  0  0  0  0  0
   35.5850   23.8940   41.5840 H   0  0  0  0  0  0  0  0  0  0  0  0
   36.9910   25.2230   39.1380 H   0  0  0  0  0  0  0  0  0  0  0  0
   35.3010   24.4670   39.1930 H   0  0  0  0  0  0  0  0  0  0  0  0
   38.0630   23.0090   39.8500 H   0  0  0  0  0  0  0  0  0  0  0  0
   36.3680   22.2400   39.8090 H   0  0  0  0  0  0  0  0  0  0  0  0
   38.0640   29.4610   43.1400 C   0  0  0  0  0  0  0  0  0  0  0  0
   39.0870   29.4610   43.6200 H   0  0  0  0  0  0  0  0  0  0  0  0
   37.5720   30.3460   43.5410 H   0  0  0  0  0  0  0  0  0  0  0  0
   37.2240   30.1740   40.9210 C   0  0  0  0  0  0  0  0  0  0  0  0
   36.2480   30.7890   41.4620 O   0  0  0  0  0  0  0  0  0  0  0  0
   38.2130   29.5010   41.6880 N   0  0  0  0  0  0  0  0  0  0  0  0
   39.0010   29.0600   41.1800 H   0  0  0  0  0  0  0  0  0  0  0  0
   37.7990   31.2140   38.6670 C   0  0  0  0  0  0  0  0  0  0  0  0
   37.1700   30.2660   39.4680 C   0  0  0  0  0  0  0  0  0  0  0  0
   36.4330   29.3320   38.7170 C   0  0  0  0  0  0  0  0  0  0  0  0
   35.9320   28.5660   39.3380 H   0  0  0  0  0  0  0  0  0  0  0  0
   36.2880   29.2730   37.3610 C   0  0  0  0  0  0  0  0  0  0  0  0
   35.6940   28.4880   36.9470 H   0  0  0  0  0  0  0  0  0  0  0  0
   36.9490   30.2550   36.6520 C   0  0  0  0  0  3  0  0  0  0  0  0
   37.6960   31.2110   37.3040 C   0  0  0  0  0  3  0  0  0  0  0  0
   39.1800   33.0300   39.9000 N   0  0  0  0  0  0  0  0  0  0  0  0
   38.5680   32.2150   39.3420 C   0  0  0  0  0  0  0  0  0  0  0  0
  1  2  1  0  0  0  0
  3  1  1  0  0  0  0
  4  9  2  0  0  0  0
  4  5  1  0  0  0  0
  5  6  2  0  0  0  0
  6  7  1  0  0  0  0
  6  1  1  0  0  0  0
  8 11  1  0  0  0  0
  8  7  2  0  0  0  0
  9  8  1  0  0  0  0
 10  5  1  0  0  0  0
 12 15  1  0  0  0  0
 12  4  1  0  0  0  0
 13 14  1  0  0  0  0
 13 12  1  0  0  0  0
 14 12  1  0  0  0  0
 16 13  1  0  0  0  0
 17 13  1  0  0  0  0
 18 14  1  0  0  0  0
 19 14  1  0  0  0  0
 20 22  1  0  0  0  0
 20  1  1  0  0  0  0
 20 21  1  0  0  0  0
 23 24  2  0  0  0  0
 23 25  1  0  0  0  0
 25 20  1  0  0  0  0
 26 25  1  0  0  0  0
 27 36  1  0  0  0  0
 27 28  1  0  0  0  0
 28 23  1  0  0  0  0
 29 30  1  0  0  0  0
 29 28  2  0  0  0  0
 31 29  1  0  0  0  0
 32 31  1  0  0  0  0
 33 34  1  0  0  0  0
 33 31  2  0  0  0  0
 34 27  2  0  0  0  0
 36 35  3  0  0  0  0
M  END
>  <minimizedAffinity>
-5.0946126

$$$$

 OpenBabel03242520203D

 36 38  0  0  0  0  0  0  0  0999 V2000
   37.7740   28.8820   43.4830 C   0  0  0  0  0  0  0  0  0  0  0  0
   38.6290   29.4070   43.9500 H   0  0  0  0  0  0  0  0  0  0  0  0
   36.9190   28.8680   44.2100 H   0  0  0  0  0  0  0  0  0  0  0  0
   37.7650   25.3120   42.2930 C   0  0  0  0  0  0  0  0  0  0  0  0
   37.3530   26.6260   42.5280 C   0  0  0  0  0  0  0  0  0  0  0  0
   38.1890   27.4830   43.2290 C   0  0  0  0  0  0  0  0  0  0  0  0
   39.3900   26.9860   43.6570 N   0  0  0  0  0  0  0  0  0  0  0  0
   39.7560   25.7000   43.4070 C   0  0  0  0  0  0  0  0  0  0  0  0
   38.9580   24.8710   42.7350 N   0  0  0  0  0  0  0  0  0  0  0  0
   36.3880   26.9230   42.1590 H   0  0  0  0  0  0  0  0  0  0  0  0
   40.7430   25.4160   43.7970 H   0  0  0  0  0  0  0  0  0  0  0  0
   36.8590   24.3900   41.5570 C   0  0  0  0  0  0  0  0  0  0  0  0
   37.0340   24.5330   39.9970 C   0  0  0  0  0  0  0  0  0  0  0  0
   37.3050   23.3050   40.7560 C   0  0  0  0  0  0  0  0  0  0  0  0
   35.7720   24.4760   41.8560 H   0  0  0  0  0  0  0  0  0  0  0  0
   37.8590   25.1440   39.6370 H   0  0  0  0  0  0  0  0  0  0  0  0
   36.0930   24.6360   39.4080 H   0  0  0  0  0  0  0  0  0  0  0  0
   38.3720   22.9760   40.9010 H   0  0  0  0  0  0  0  0  0  0  0  0
   36.6200   22.4390   40.5790 H   0  0  0  0  0  0  0  0  0  0  0  0
   37.3170   29.5620   42.2210 C   0  0  0  0  0  0  0  0  0  0  0  0
   36.6270   30.4140   42.4930 H   0  0  0  0  0  0  0  0  0  0  0  0
   36.6890   28.8690   41.6600 H   0  0  0  0  0  0  0  0  0  0  0  0
   38.2360   31.2490   40.6550 C   0  0  0  0  0  0  0  0  0  0  0  0
   37.1350   31.8900   40.6630 O   0  0  0  0  0  0  0  0  0  0  0  0
   38.4350   30.0790   41.4360 N   0  0  0  0  0  0  0  0  0  0  0  0
   39.3720   29.6350   41.4130 H   0  0  0  0  0  0  0  0  0  0  0  0
   39.4730   31.5250   38.4450 C   0  0  0  0  0  0  0  0  0  0  0  0
   39.2080   31.8720   39.7660 C   0  0  0  0  0  0  0  0  0  0  0  0
   39.9980   32.9480   40.2090 C   0  0  0  0  0  0  0  0  0  0  0  0
   39.7950   33.2410   41.2560 H   0  0  0  0  0  0  0  0  0  0  0  0
   40.9410   33.6420   39.5060 C   0  0  0  0  0  0  0  0  0  0  0  0
   41.4500   34.4440   39.9940 H   0  0  0  0  0  0  0  0  0  0  0  0
   41.1330   33.2260   38.2050 C   0  0  0  0  0  3  0  0  0  0  0  0
   40.4030   32.1790   37.6850 C   0  0  0  0  0  3  0  0  0  0  0  0
   38.1060   29.5550   37.4600 N   0  0  0  0  0  0  0  0  0  0  0  0
   38.7240   30.4320   37.9050 C   0  0  0  0  0  0  0  0  0  0  0  0
  1  2  1  0  0  0  0
  1  3  1  0  0  0  0
  4  5  2  0  0  0  0
  4  9  1  0  0  0  0
  5  6  1  0  0  0  0
  6  1  1  0  0  0  0
  6  7  2  0  0  0  0
  8  7  1  0  0  0  0
  8 11  1  0  0  0  0
  9  8  2  0  0  0  0
 10  5  1  0  0  0  0
 12 15  1  0  0  0  0
 12  4  1  0  0  0  0
 13 14  1  0  0  0  0
 13 12  1  0  0  0  0
 14 18  1  0  0  0  0
 14 12  1  0  0  0  0
 16 13  1  0  0  0  0
 17 13  1  0  0  0  0
 19 14  1  0  0  0  0
 20 21  1  0  0  0  0
 20  1  1  0  0  0  0
 22 20  1  0  0  0  0
 23 24  2  0  0  0  0
 23 25  1  0  0  0  0
 25 20  1  0  0  0  0
 26 25  1  0  0  0  0
 27 28  1  0  0  0  0
 28 29  2  0  0  0  0
 28 23  1  0  0  0  0
 29 30  1  0  0  0  0
 31 32  1  0  0  0  0
 31 29  1  0  0  0  0
 33 31  2  0  0  0  0
 34 33  1  0  0  0  0
 34 27  2  0  0  0  0
 35 36  3  0  0  0  0
 36 27  1  0  0  0  0
M  END
>  <minimizedAffinity>
-5.0327239

$$$$

 OpenBabel03242520203D

 36 38  0  0  0  0  0  0  0  0999 V2000
   37.3370   30.8240   36.9750 C   0  0  0  0  0  0  0  0  0  0  0  0
   38.1880   30.4720   36.3610 H   0  0  0  0  0  0  0  0  0  0  0  0
   36.6620   31.4490   36.3310 H   0  0  0  0  0  0  0  0  0  0  0  0
   39.7500   32.6870   39.1820 C   0  0  0  0  0  0  0  0  0  0  0  0
   39.2550   31.8620   38.1700 C   0  0  0  0  0  0  0  0  0  0  0  0
   37.8830   31.6890   38.0460 C   0  0  0  0  0  0  0  0  0  0  0  0
   37.0800   32.3480   38.9380 N   0  0  0  0  0  0  0  0  0  0  0  0
   37.6010   33.1440   39.9100 C   0  0  0  0  0  0  0  0  0  0  0  0
   38.9170   33.3140   40.0340 N   0  0  0  0  0  0  0  0  0  0  0  0
   39.9640   31.3800   37.5220 H   0  0  0  0  0  0  0  0  0  0  0  0
   36.8590   33.6220   40.5630 H   0  0  0  0  0  0  0  0  0  0  0  0
   41.2210   32.8560   39.3240 C   0  0  0  0  0  0  0  0  0  0  0  0
   41.7470   34.0660   38.4620 C   0  0  0  0  0  0  0  0  0  0  0  0
   41.8390   33.9840   39.9250 C   0  0  0  0  0  0  0  0  0  0  0  0
   41.8150   31.9160   39.1140 H   0  0  0  0  0  0  0  0  0  0  0  0
   41.0060   34.7140   37.9990 H   0  0  0  0  0  0  0  0  0  0  0  0
   42.6420   33.8610   37.8280 H   0  0  0  0  0  0  0  0  0  0  0  0
   41.1800   34.6460   40.5540 H   0  0  0  0  0  0  0  0  0  0  0  0
   42.8640   33.8770   40.3630 H   0  0  0  0  0  0  0  0  0  0  0  0
   36.5380   29.6810   37.5380 C   0  0  0  0  0  0  0  0  0  0  0  0
   36.4040   28.8970   36.7360 H   0  0  0  0  0  0  0  0  0  0  0  0
   35.5280   30.0330   37.7490 H   0  0  0  0  0  0  0  0  0  0  0  0
   36.4180   28.8870   39.8820 C   0  0  0  0  0  0  0  0  0  0  0  0
   35.1780   29.1730   39.9410 O   0  0  0  0  0  0  0  0  0  0  0  0
   37.1840   29.0760   38.7010 N   0  0  0  0  0  0  0  0  0  0  0  0
   38.1760   28.7790   38.7140 H   0  0  0  0  0  0  0  0  0  0  0  0
   37.1060   27.0230   41.4770 C   0  0  0  0  0  0  0  0  0  0  0  0
   36.9030   28.3600   41.1520 C   0  0  0  0  0  0  0  0  0  0  0  0
   37.2300   29.2270   42.2100 C   0  0  0  0  0  0  0  0  0  0  0  0
   37.0810   30.2960   41.9660 H   0  0  0  0  0  0  0  0  0  0  0  0
   37.7000   28.8990   43.4490 C   0  0  0  0  0  0  0  0  0  0  0  0
   37.9070   29.6870   44.1390 H   0  0  0  0  0  0  0  0  0  0  0  0
   37.8700   27.5490   43.6790 C   0  0  0  0  0  3  0  0  0  0  0  0
   37.5760   26.6260   42.6990 C   0  0  0  0  0  3  0  0  0  0  0  0
   36.5320   25.2690   39.6560 N   0  0  0  0  0  0  0  0  0  0  0  0
   36.7920   26.0600   40.4650 C   0  0  0  0  0  0  0  0  0  0  0  0
  1 20  1  0  0  0  0
  1  6  1  0  0  0  0
  2  1  1  0  0  0  0
  3  1  1  0  0  0  0
  4 12  1  0  0  0  0
  4  9  1  0  0  0  0
  5  4  2  0  0  0  0
  6  5  1  0  0  0  0
  6  7  2  0  0  0  0
  7  8  1  0  0  0  0
  8  9  2  0  0  0  0
  8 11  1  0  0  0  0
 10  5  1  0  0  0  0
 12 14  1  0  0  0  0
 13 12  1  0  0  0  0
 13 14  1  0  0  0  0
 14 19  1  0  0  0  0
 14 18  1  0  0  0  0
 15 12  1  0  0  0  0
 16 13  1  0  0  0  0
 17 13  1  0  0  0  0
 20 22  1  0  0  0  0
 20 25  1  0  0  0  0
 21 20  1  0  0  0  0
 23 24  2  0  0  0  0
 23 28  1  0  0  0  0
 25 26  1  0  0  0  0
 25 23  1  0  0  0  0
 27 34  1  0  0  0  0
 28 27  2  0  0  0  0
 28 29  1  0  0  0  0
 29 31  2  0  0  0  0
 30 29  1  0  0  0  0
 31 33  1  0  0  0  0
 31 32  1  0  0  0  0
 34 33  2  0  0  0  0
 35 36  3  0  0  0  0
 36 27  1  0  0  0  0
M  END
>  <minimizedAffinity>
-4.9910388

$$$$

 OpenBabel03242520203D

 36 38  0  0  0  0  0  0  0  0999 V2000
   37.4600   30.7830   37.0410 C   0  0  0  0  0  0  0  0  0  0  0  0
   38.3450   30.2930   36.5910 H   0  0  0  0  0  0  0  0  0  0  0  0
   36.9760   31.4340   36.2650 H   0  0  0  0  0  0  0  0  0  0  0  0
   39.7260   32.7200   39.3380 C   0  0  0  0  0  0  0  0  0  0  0  0
   39.2960   31.8920   38.2990 C   0  0  0  0  0  0  0  0  0  0  0  0
   37.9380   31.6530   38.1410 C   0  0  0  0  0  0  0  0  0  0  0  0
   37.0820   32.2530   39.0250 N   0  0  0  0  0  0  0  0  0  0  0  0
   37.5410   33.0550   40.0240 C   0  0  0  0  0  0  0  0  0  0  0  0
   38.8430   33.2880   40.1820 N   0  0  0  0  0  0  0  0  0  0  0  0
   40.0430   31.4590   37.6600 H   0  0  0  0  0  0  0  0  0  0  0  0
   36.7610   33.4830   40.6680 H   0  0  0  0  0  0  0  0  0  0  0  0
   41.1830   32.9600   39.5170 C   0  0  0  0  0  0  0  0  0  0  0  0
   41.6830   34.1610   38.6270 C   0  0  0  0  0  0  0  0  0  0  0  0
   41.7330   34.1350   40.0950 C   0  0  0  0  0  0  0  0  0  0  0  0
   41.8240   32.0410   39.3610 H   0  0  0  0  0  0  0  0  0  0  0  0
   40.9290   34.7590   38.1190 H   0  0  0  0  0  0  0  0  0  0  0  0
   42.6050   33.9740   38.0290 H   0  0  0  0  0  0  0  0  0  0  0  0
   41.0250   34.7900   40.6780 H   0  0  0  0  0  0  0  0  0  0  0  0
   42.7460   34.0900   40.5670 H   0  0  0  0  0  0  0  0  0  0  0  0
   36.4470   29.7820   37.5260 C   0  0  0  0  0  0  0  0  0  0  0  0
   36.1970   29.0760   36.6810 H   0  0  0  0  0  0  0  0  0  0  0  0
   35.5140   30.3050   37.7320 H   0  0  0  0  0  0  0  0  0  0  0  0
   36.2930   27.7870   38.9860 C   0  0  0  0  0  0  0  0  0  0  0  0
   35.3490   27.3090   38.2750 O   0  0  0  0  0  0  0  0  0  0  0  0
   36.9340   29.0140   38.6690 N   0  0  0  0  0  0  0  0  0  0  0  0
   37.7230   29.3170   39.2680 H   0  0  0  0  0  0  0  0  0  0  0  0
   36.8900   27.3170   41.4180 C   0  0  0  0  0  0  0  0  0  0  0  0
   36.5960   26.9200   40.1180 C   0  0  0  0  0  0  0  0  0  0  0  0
   36.6070   25.5220   39.9680 C   0  0  0  0  0  0  0  0  0  0  0  0
   36.3680   25.1870   38.9400 H   0  0  0  0  0  0  0  0  0  0  0  0
   36.8610   24.5770   40.9200 C   0  0  0  0  0  0  0  0  0  0  0  0
   36.8210   23.5470   40.6390 H   0  0  0  0  0  0  0  0  0  0  0  0
   37.1420   25.0670   42.1780 C   0  0  0  0  0  3  0  0  0  0  0  0
   37.1540   26.4230   42.4190 C   0  0  0  0  0  3  0  0  0  0  0  0
   36.9280   29.8720   41.8580 N   0  0  0  0  0  0  0  0  0  0  0  0
   36.9130   28.7260   41.6700 C   0  0  0  0  0  0  0  0  0  0  0  0
  1 20  1  0  0  0  0
  1  6  1  0  0  0  0
  2  1  1  0  0  0  0
  3  1  1  0  0  0  0
  4 12  1  0  0  0  0
  4  9  1  0  0  0  0
  5  4  2  0  0  0  0
  6  5  1  0  0  0  0
  6  7  2  0  0  0  0
  7  8  1  0  0  0  0
  8  9  2  0  0  0  0
  8 11  1  0  0  0  0
 10  5  1  0  0  0  0
 12 14  1  0  0  0  0
 13 12  1  0  0  0  0
 13 14  1  0  0  0  0
 14 19  1  0  0  0  0
 14 18  1  0  0  0  0
 15 12  1  0  0  0  0
 16 13  1  0  0  0  0
 17 13  1  0  0  0  0
 20 22  1  0  0  0  0
 20 25  1  0  0  0  0
 21 20  1  0  0  0  0
 23 28  1  0  0  0  0
 24 23  2  0  0  0  0
 25 23  1  0  0  0  0
 25 26  1  0  0  0  0
 27 36  1  0  0  0  0
 27 34  1  0  0  0  0
 28 27  2  0  0  0  0
 29 28  1  0  0  0  0
 29 31  2  0  0  0  0
 30 29  1  0  0  0  0
 31 33  1  0  0  0  0
 32 31  1  0  0  0  0
 33 34  2  0  0  0  0
 36 35  3  0  0  0  0
M  END
>  <minimizedAffinity>
-4.98167133

$$$$
