
 OpenBabel03242520193D

 36 38  0  0  0  0  0  0  0  0999 V2000
   40.8080   35.7920   39.6440 C   0  0  0  0  0  0  0  0  0  0  0  0
   40.5920   35.5370   38.5890 H   0  0  0  0  0  0  0  0  0  0  0  0
   40.9630   36.9010   39.7220 H   0  0  0  0  0  0  0  0  0  0  0  0
   43.8590   34.7410   41.5810 C   0  0  0  0  0  0  0  0  0  0  0  0
   42.6680   35.3880   41.2440 C   0  0  0  0  0  0  0  0  0  0  0  0
   42.0750   35.1220   40.0170 C   0  0  0  0  0  0  0  0  0  0  0  0
   42.7010   34.2240   39.1940 N   0  0  0  0  0  0  0  0  0  0  0  0
   43.8600   33.6140   39.5590 C   0  0  0  0  0  0  0  0  0  0  0  0
   44.4340   33.8650   40.7350 N   0  0  0  0  0  0  0  0  0  0  0  0
   42.2560   36.0830   41.9520 H   0  0  0  0  0  0  0  0  0  0  0  0
   44.2660   32.9120   38.8180 H   0  0  0  0  0  0  0  0  0  0  0  0
   44.5020   35.0420   42.8870 C   0  0  0  0  0  0  0  0  0  0  0  0
   46.0380   35.3550   42.7150 C   0  0  0  0  0  0  0  0  0  0  0  0
   45.0470   36.3060   43.2350 C   0  0  0  0  0  0  0  0  0  0  0  0
   44.3330   34.2510   43.6770 H   0  0  0  0  0  0  0  0  0  0  0  0
   46.4190   35.4650   41.7020 H   0  0  0  0  0  0  0  0  0  0  0  0
   46.7260   34.8210   43.4110 H   0  0  0  0  0  0  0  0  0  0  0  0
   44.7410   37.1820   42.5960 H   0  0  0  0  0  0  0  0  0  0  0  0
   45.1320   36.5860   44.3150 H   0  0  0  0  0  0  0  0  0  0  0  0
   39.6820   35.4000   40.5610 C   0  0  0  0  0  0  0  0  0  0  0  0
   38.9580   36.2630   40.6420 H   0  0  0  0  0  0  0  0  0  0  0  0
   40.0810   35.2800   41.5690 H   0  0  0  0  0  0  0  0  0  0  0  0
   39.1720   32.9840   40.7660 C   0  0  0  0  0  0  0  0  0  0  0  0
   39.9050   32.8920   41.8040 O   0  0  0  0  0  0  0  0  0  0  0  0
   38.9710   34.2150   40.0870 N   0  0  0  0  0  0  0  0  0  0  0  0
   38.3270   34.2210   39.2750 H   0  0  0  0  0  0  0  0  0  0  0  0
   38.9260   30.9190   39.2920 C   0  0  0  0  0  0  0  0  0  0  0  0
   38.6010   31.6930   40.4020 C   0  0  0  0  0  0  0  0  0  0  0  0
   37.6180   31.0910   41.2080 C   0  0  0  0  0  0  0  0  0  0  0  0
   37.3530   31.6900   42.1010 H   0  0  0  0  0  0  0  0  0  0  0  0
   36.9940   29.8920   41.0160 C   0  0  0  0  0  0  0  0  0  0  0  0
   36.2700   29.5760   41.7340 H   0  0  0  0  0  0  0  0  0  0  0  0
   37.3810   29.1980   39.8890 C   0  0  0  0  0  3  0  0  0  0  0  0
   38.3390   29.7090   39.0410 C   0  0  0  0  0  3  0  0  0  0  0  0
   40.7200   31.8710   37.6800 N   0  0  0  0  0  0  0  0  0  0  0  0
   39.9140   31.4530   38.4040 C   0  0  0  0  0  0  0  0  0  0  0  0
  1  3  1  0  0  0  0
  1  6  1  0  0  0  0
  1 20  1  0  0  0  0
  2  1  1  0  0  0  0
  4 12  1  0  0  0  0
  5  4  1  0  0  0  0
  5 10  1  0  0  0  0
  6  5  2  0  0  0  0
  7  8  2  0  0  0  0
  7  6  1  0  0  0  0
  8  9  1  0  0  0  0
  9  4  2  0  0  0  0
 11  8  1  0  0  0  0
 12 14  1  0  0  0  0
 12 15  1  0  0  0  0
 13 12  1  0  0  0  0
 13 14  1  0  0  0  0
 13 17  1  0  0  0  0
 14 19  1  0  0  0  0
 16 13  1  0  0  0  0
 18 14  1  0  0  0  0
 20 21  1  0  0  0  0
 20 22  1  0  0  0  0
 23 24  2  0  0  0  0
 25 20  1  0  0  0  0
 25 23  1  0  0  0  0
 26 25  1  0  0  0  0
 27 28  1  0  0  0  0
 28 23  1  0  0  0  0
 28 29  2  0  0  0  0
 29 30  1  0  0  0  0
 31 29  1  0  0  0  0
 31 32  1  0  0  0  0
 33 31  2  0  0  0  0
 34 27  2  0  0  0  0
 34 33  1  0  0  0  0
 35 36  3  0  0  0  0
 36 27  1  0  0  0  0
M  END
>  <minimizedAffinity>
-5.16824818

>  <minimizedRMSD>
0.689360797

$$$$
