
 OpenBabel03242520193D

 36 38  0  0  0  0  0  0  0  0999 V2000
   45.6200   32.1970   38.8070 C   0  0  0  0  0  0  0  0  0  0  0  0
   44.9730   31.3020   38.8840 H   0  0  0  0  0  0  0  0  0  0  0  0
   46.5490   31.9230   38.2390 H   0  0  0  0  0  0  0  0  0  0  0  0
   47.1160   34.0920   41.6940 C   0  0  0  0  0  0  0  0  0  0  0  0
   46.7590   33.7390   40.3900 C   0  0  0  0  0  0  0  0  0  0  0  0
   46.0160   32.5860   40.1800 C   0  0  0  0  0  0  0  0  0  0  0  0
   45.6670   31.8480   41.2800 N   0  0  0  0  0  0  0  0  0  0  0  0
   46.0340   32.2270   42.5340 C   0  0  0  0  0  0  0  0  0  0  0  0
   46.7480   33.3320   42.7420 N   0  0  0  0  0  0  0  0  0  0  0  0
   47.0850   34.3760   39.5890 H   0  0  0  0  0  0  0  0  0  0  0  0
   45.6940   31.5580   43.3360 H   0  0  0  0  0  0  0  0  0  0  0  0
   47.9290   35.3180   41.9140 C   0  0  0  0  0  0  0  0  0  0  0  0
   49.4370   34.9630   42.2100 C   0  0  0  0  0  0  0  0  0  0  0  0
   48.9760   35.7450   41.0560 C   0  0  0  0  0  0  0  0  0  0  0  0
   47.5110   36.0120   42.7030 H   0  0  0  0  0  0  0  0  0  0  0  0
   49.7460   33.9290   42.0790 H   0  0  0  0  0  0  0  0  0  0  0  0
   49.8940   35.4730   43.0900 H   0  0  0  0  0  0  0  0  0  0  0  0
   49.0100   35.2790   40.0300 H   0  0  0  0  0  0  0  0  0  0  0  0
   49.2560   36.8280   41.0330 H   0  0  0  0  0  0  0  0  0  0  0  0
   44.9350   33.3270   38.0870 C   0  0  0  0  0  0  0  0  0  0  0  0
   45.2500   33.3140   37.0020 H   0  0  0  0  0  0  0  0  0  0  0  0
   45.3210   34.2700   38.4730 H   0  0  0  0  0  0  0  0  0  0  0  0
   42.8050   33.9730   39.1750 C   0  0  0  0  0  0  0  0  0  0  0  0
   43.4210   34.7590   39.9670 O   0  0  0  0  0  0  0  0  0  0  0  0
   43.4800   33.2320   38.1690 N   0  0  0  0  0  0  0  0  0  0  0  0
   42.9070   32.6470   37.5330 H   0  0  0  0  0  0  0  0  0  0  0  0
   40.3990   34.7450   38.8440 C   0  0  0  0  0  0  0  0  0  0  0  0
   41.3740   33.9570   39.4490 C   0  0  0  0  0  0  0  0  0  0  0  0
   40.8370   33.0790   40.4070 C   0  0  0  0  0  0  0  0  0  0  0  0
   41.5980   32.4390   40.8930 H   0  0  0  0  0  0  0  0  0  0  0  0
   39.5290   32.9340   40.7740 C   0  0  0  0  0  0  0  0  0  0  0  0
   39.2880   32.2080   41.5180 H   0  0  0  0  0  0  0  0  0  0  0  0
   38.6380   33.7570   40.1190 C   0  0  0  0  0  3  0  0  0  0  0  0
   39.0730   34.6500   39.1640 C   0  0  0  0  0  3  0  0  0  0  0  0
   41.2210   36.4480   37.0710 N   0  0  0  0  0  0  0  0  0  0  0  0
   40.8500   35.6800   37.8590 C   0  0  0  0  0  0  0  0  0  0  0  0
  1  2  1  0  0  0  0
  1  6  1  0  0  0  0
  3  1  1  0  0  0  0
  4 12  1  0  0  0  0
  4  9  1  0  0  0  0
  5  4  2  0  0  0  0
  6  5  1  0  0  0  0
  6  7  2  0  0  0  0
  7  8  1  0  0  0  0
  8  9  2  0  0  0  0
  8 11  1  0  0  0  0
 10  5  1  0  0  0  0
 12 13  1  0  0  0  0
 12 15  1  0  0  0  0
 13 17  1  0  0  0  0
 14 12  1  0  0  0  0
 14 13  1  0  0  0  0
 16 13  1  0  0  0  0
 18 14  1  0  0  0  0
 19 14  1  0  0  0  0
 20 25  1  0  0  0  0
 20 22  1  0  0  0  0
 20  1  1  0  0  0  0
 21 20  1  0  0  0  0
 23 28  1  0  0  0  0
 23 24  2  0  0  0  0
 25 23  1  0  0  0  0
 26 25  1  0  0  0  0
 27 34  2  0  0  0  0
 27 28  1  0  0  0  0
 28 29  2  0  0  0  0
 29 31  1  0  0  0  0
 29 30  1  0  0  0  0
 31 32  1  0  0  0  0
 33 31  2  0  0  0  0
 34 33  1  0  0  0  0
 35 36  3  0  0  0  0
 36 27  1  0  0  0  0
M  END
>  <minimizedAffinity>
-5.13225746

>  <minimizedRMSD>
4.76720285

$$$$
