
 OpenBabel03242520193D

 36 38  0  0  0  0  0  0  0  0999 V2000
   40.8060   35.7930   39.6310 C   0  0  0  0  0  0  0  0  0  0  0  0
   40.5900   35.5310   38.5770 H   0  0  0  0  0  0  0  0  0  0  0  0
   40.9580   36.9030   39.7030 H   0  0  0  0  0  0  0  0  0  0  0  0
   43.8550   34.7550   41.5780 C   0  0  0  0  0  0  0  0  0  0  0  0
   42.6630   35.3990   41.2360 C   0  0  0  0  0  0  0  0  0  0  0  0
   42.0730   35.1270   40.0100 C   0  0  0  0  0  0  0  0  0  0  0  0
   42.7020   34.2260   39.1910 N   0  0  0  0  0  0  0  0  0  0  0  0
   43.8610   33.6200   39.5610 C   0  0  0  0  0  0  0  0  0  0  0  0
   44.4330   33.8770   40.7370 N   0  0  0  0  0  0  0  0  0  0  0  0
   42.2490   36.0960   41.9410 H   0  0  0  0  0  0  0  0  0  0  0  0
   44.2690   32.9150   38.8240 H   0  0  0  0  0  0  0  0  0  0  0  0
   44.4950   35.0630   42.8840 C   0  0  0  0  0  0  0  0  0  0  0  0
   46.0370   35.3470   42.7170 C   0  0  0  0  0  0  0  0  0  0  0  0
   45.0600   36.3230   43.2180 C   0  0  0  0  0  0  0  0  0  0  0  0
   44.3070   34.2860   43.6840 H   0  0  0  0  0  0  0  0  0  0  0  0
   46.4260   35.4370   41.7060 H   0  0  0  0  0  0  0  0  0  0  0  0
   46.7110   34.8110   43.4250 H   0  0  0  0  0  0  0  0  0  0  0  0
   44.7730   37.1940   42.5640 H   0  0  0  0  0  0  0  0  0  0  0  0
   45.1430   36.6160   44.2950 H   0  0  0  0  0  0  0  0  0  0  0  0
   39.6790   35.4040   40.5500 C   0  0  0  0  0  0  0  0  0  0  0  0
   38.9560   36.2680   40.6270 H   0  0  0  0  0  0  0  0  0  0  0  0
   40.0780   35.2880   41.5580 H   0  0  0  0  0  0  0  0  0  0  0  0
   39.1730   32.9880   40.7590 C   0  0  0  0  0  0  0  0  0  0  0  0
   39.9090   32.8990   41.7950 O   0  0  0  0  0  0  0  0  0  0  0  0
   38.9680   34.2180   40.0790 N   0  0  0  0  0  0  0  0  0  0  0  0
   38.3210   34.2220   39.2700 H   0  0  0  0  0  0  0  0  0  0  0  0
   38.9270   30.9190   39.2930 C   0  0  0  0  0  0  0  0  0  0  0  0
   38.6020   31.6960   40.4000 C   0  0  0  0  0  0  0  0  0  0  0  0
   37.6200   31.0960   41.2090 C   0  0  0  0  0  0  0  0  0  0  0  0
   37.3540   31.6990   42.0980 H   0  0  0  0  0  0  0  0  0  0  0  0
   36.9950   29.8970   41.0200 C   0  0  0  0  0  0  0  0  0  0  0  0
   36.2700   29.5830   41.7390 H   0  0  0  0  0  0  0  0  0  0  0  0
   37.3820   29.2000   39.8960 C   0  0  0  0  0  3  0  0  0  0  0  0
   38.3400   29.7070   39.0460 C   0  0  0  0  0  3  0  0  0  0  0  0
   40.7200   31.8650   37.6770 N   0  0  0  0  0  0  0  0  0  0  0  0
   39.9140   31.4500   38.4030 C   0  0  0  0  0  0  0  0  0  0  0  0
  1  3  1  0  0  0  0
  1  6  1  0  0  0  0
  1 20  1  0  0  0  0
  2  1  1  0  0  0  0
  4 12  1  0  0  0  0
  5  4  1  0  0  0  0
  5 10  1  0  0  0  0
  6  5  2  0  0  0  0
  7  8  2  0  0  0  0
  7  6  1  0  0  0  0
  8  9  1  0  0  0  0
  9  4  2  0  0  0  0
 11  8  1  0  0  0  0
 12 14  1  0  0  0  0
 12 15  1  0  0  0  0
 13 12  1  0  0  0  0
 13 14  1  0  0  0  0
 13 17  1  0  0  0  0
 14 19  1  0  0  0  0
 16 13  1  0  0  0  0
 18 14  1  0  0  0  0
 20 21  1  0  0  0  0
 20 22  1  0  0  0  0
 23 24  2  0  0  0  0
 25 20  1  0  0  0  0
 25 23  1  0  0  0  0
 26 25  1  0  0  0  0
 27 28  1  0  0  0  0
 28 23  1  0  0  0  0
 28 29  2  0  0  0  0
 29 30  1  0  0  0  0
 31 29  1  0  0  0  0
 31 32  1  0  0  0  0
 33 31  2  0  0  0  0
 34 27  2  0  0  0  0
 34 33  1  0  0  0  0
 35 36  3  0  0  0  0
 36 27  1  0  0  0  0
M  END
>  <minimizedAffinity>
-5.17111158

>  <minimizedRMSD>
0.810744524

$$$$
