
 OpenBabel03242520193D

 36 38  0  0  0  0  0  0  0  0999 V2000
   40.9630   36.0360   39.6970 C   0  0  0  0  0  0  0  0  0  0  0  0
   40.8490   35.9430   38.6000 H   0  0  0  0  0  0  0  0  0  0  0  0
   41.2310   37.0980   39.9430 H   0  0  0  0  0  0  0  0  0  0  0  0
   43.8410   34.6010   41.6520 C   0  0  0  0  0  0  0  0  0  0  0  0
   42.7850   35.4350   41.2790 C   0  0  0  0  0  0  0  0  0  0  0  0
   42.0910   35.1680   40.1070 C   0  0  0  0  0  0  0  0  0  0  0  0
   42.4870   34.0830   39.3710 N   0  0  0  0  0  0  0  0  0  0  0  0
   43.5200   33.2940   39.7690 C   0  0  0  0  0  0  0  0  0  0  0  0
   44.1910   33.5450   40.8930 N   0  0  0  0  0  0  0  0  0  0  0  0
   42.5530   36.2670   41.9170 H   0  0  0  0  0  0  0  0  0  0  0  0
   43.7430   32.4520   39.0990 H   0  0  0  0  0  0  0  0  0  0  0  0
   44.5950   34.9000   42.8980 C   0  0  0  0  0  0  0  0  0  0  0  0
   46.0820   35.3190   42.5850 C   0  0  0  0  0  0  0  0  0  0  0  0
   45.0930   36.1860   43.2390 C   0  0  0  0  0  0  0  0  0  0  0  0
   44.5570   34.0740   43.6690 H   0  0  0  0  0  0  0  0  0  0  0  0
   46.3500   35.4870   41.5440 H   0  0  0  0  0  0  0  0  0  0  0  0
   46.8700   34.8090   43.1870 H   0  0  0  0  0  0  0  0  0  0  0  0
   44.6690   37.0600   42.6680 H   0  0  0  0  0  0  0  0  0  0  0  0
   45.2710   36.4350   44.3150 H   0  0  0  0  0  0  0  0  0  0  0  0
   39.6970   35.6800   40.4270 C   0  0  0  0  0  0  0  0  0  0  0  0
   38.9450   36.5110   40.2830 H   0  0  0  0  0  0  0  0  0  0  0  0
   39.9020   35.6780   41.4970 H   0  0  0  0  0  0  0  0  0  0  0  0
   39.2100   33.2780   40.7920 C   0  0  0  0  0  0  0  0  0  0  0  0
   39.7200   33.3280   41.9590 O   0  0  0  0  0  0  0  0  0  0  0  0
   39.1220   34.4230   39.9550 N   0  0  0  0  0  0  0  0  0  0  0  0
   38.6540   34.3160   39.0370 H   0  0  0  0  0  0  0  0  0  0  0  0
   38.3410   31.4670   39.2250 C   0  0  0  0  0  0  0  0  0  0  0  0
   38.7530   31.9330   40.4690 C   0  0  0  0  0  0  0  0  0  0  0  0
   38.6980   30.9370   41.4600 C   0  0  0  0  0  0  0  0  0  0  0  0
   39.0300   31.2890   42.4560 H   0  0  0  0  0  0  0  0  0  0  0  0
   38.3060   29.6370   41.3230 C   0  0  0  0  0  0  0  0  0  0  0  0
   38.3320   29.0040   42.1840 H   0  0  0  0  0  0  0  0  0  0  0  0
   37.9150   29.2680   40.0540 C   0  0  0  0  0  3  0  0  0  0  0  0
   37.9360   30.1760   39.0180 C   0  0  0  0  0  3  0  0  0  0  0  0
   38.3650   33.1660   37.2670 N   0  0  0  0  0  0  0  0  0  0  0  0
   38.3520   32.4130   38.1490 C   0  0  0  0  0  0  0  0  0  0  0  0
  1  3  1  0  0  0  0
  1  6  1  0  0  0  0
  1 20  1  0  0  0  0
  2  1  1  0  0  0  0
  4 12  1  0  0  0  0
  5  4  1  0  0  0  0
  5 10  1  0  0  0  0
  6  5  2  0  0  0  0
  7  8  2  0  0  0  0
  7  6  1  0  0  0  0
  8  9  1  0  0  0  0
  9  4  2  0  0  0  0
 11  8  1  0  0  0  0
 12 14  1  0  0  0  0
 12 15  1  0  0  0  0
 13 12  1  0  0  0  0
 13 17  1  0  0  0  0
 13 14  1  0  0  0  0
 14 19  1  0  0  0  0
 16 13  1  0  0  0  0
 18 14  1  0  0  0  0
 20 22  1  0  0  0  0
 21 20  1  0  0  0  0
 23 24  2  0  0  0  0
 25 20  1  0  0  0  0
 25 23  1  0  0  0  0
 26 25  1  0  0  0  0
 27 28  1  0  0  0  0
 28 23  1  0  0  0  0
 28 29  2  0  0  0  0
 29 30  1  0  0  0  0
 31 29  1  0  0  0  0
 31 32  1  0  0  0  0
 33 31  2  0  0  0  0
 34 27  2  0  0  0  0
 34 33  1  0  0  0  0
 35 36  3  0  0  0  0
 36 27  1  0  0  0  0
M  END
>  <minimizedAffinity>
-5.08484173

>  <minimizedRMSD>
1.19629431

$$$$
