
 OpenBabel03252508003D

 30 32  0  0  1  0  0  0  0  0999 V2000
   45.2410   30.9760   44.2150 C   0  0  0  0  0  0  0  0  0  0  0  0
   44.4100   30.4140   43.2020 C   0  0  0  0  0  0  0  0  0  0  0  0
   44.1520   31.2300   42.1060 C   0  0  0  0  0  0  0  0  0  0  0  0
   44.6900   32.4730   42.0660 N   0  0  0  0  0  0  0  0  0  0  0  0
   45.4840   32.9510   43.0810 C   0  0  0  0  0  0  0  0  0  0  0  0
   45.7650   32.2260   44.1460 N   0  0  0  0  0  0  0  0  0  0  0  0
   44.0280   29.4100   43.3260 H   0  0  0  0  0  0  0  0  0  0  0  0
   43.5300   30.8460   41.3180 H   0  0  0  0  0  0  0  0  0  0  0  0
   46.0520   34.3250   42.9560 C   0  0  1  0  0  0  0  0  0  0  0  0
   47.5540   34.4980   43.0160 C   0  0  0  0  0  0  0  0  0  0  0  0
   46.8090   34.5670   41.7100 C   0  0  1  0  0  0  0  0  0  0  0  0
   45.4760   35.1450   43.4090 H   0  0  0  0  0  0  0  0  0  0  0  0
   47.9550   35.4470   43.4020 H   0  0  0  0  0  0  0  0  0  0  0  0
   48.0760   33.5630   43.3070 H   0  0  0  0  0  0  0  0  0  0  0  0
   46.7220   35.5330   41.1970 H   0  0  0  0  0  0  0  0  0  0  0  0
   47.1310   33.4370   40.8330 N   0  0  0  0  0  0  0  0  0  0  0  0
   47.6630   33.8150   40.0170 H   0  0  0  0  0  0  0  0  0  0  0  0
   47.7730   32.7460   41.2780 H   0  0  0  0  0  0  0  0  0  0  0  0
   45.5130   30.1120   45.3470 C   0  0  0  0  0  0  0  0  0  0  0  0
   45.2090   28.8690   45.3690 O   0  0  0  0  0  0  0  0  0  0  0  0
   47.5020   30.3140   46.8570 C   0  0  0  0  0  0  0  0  0  0  0  0
   46.1460   30.4210   46.6260 C   0  0  0  0  0  0  0  0  0  0  0  0
   45.3360   30.8480   47.6730 C   0  0  0  0  0  0  0  0  0  0  0  0
   44.2460   30.9600   47.5720 H   0  0  0  0  0  0  0  0  0  0  0  0
   45.8430   31.1640   48.9210 C   0  0  0  0  0  0  0  0  0  0  0  0
   45.2040   31.4900   49.7120 H   0  0  0  0  0  0  0  0  0  0  0  0
   47.2040   31.0520   49.1360 C   0  0  0  0  0  3  0  0  0  0  0  0
   48.0230   30.6250   48.0970 C   0  0  0  0  0  3  0  0  0  0  0  0
   49.0330   29.5270   44.9370 N   0  0  0  0  0  0  0  0  0  0  0  0
   48.3540   29.8750   45.7900 C   0  0  0  0  0  0  0  0  0  0  0  0
  1 19  1  0  0  0  0
  2  7  1  0  0  0  0
  2  1  2  0  0  0  0
  3  2  1  0  0  0  0
  4  3  2  0  0  0  0
  4  5  1  0  0  0  0
  5  6  2  0  0  0  0
  6  1  1  0  0  0  0
  8  3  1  0  0  0  0
  9 10  1  0  0  0  0
  9  5  1  0  0  0  0
  9 12  1  1  0  0  0
 10 14  1  0  0  0  0
 10 13  1  0  0  0  0
 11 15  1  6  0  0  0
 11  9  1  0  0  0  0
 11 10  1  0  0  0  0
 16 18  1  0  0  0  0
 16 11  1  0  0  0  0
 17 16  1  0  0  0  0
 19 20  2  0  0  0  0
 19 22  1  0  0  0  0
 21 28  1  0  0  0  0
 22 21  2  0  0  0  0
 22 23  1  0  0  0  0
 23 25  2  0  0  0  0
 24 23  1  0  0  0  0
 25 27  1  0  0  0  0
 25 26  1  0  0  0  0
 28 27  2  0  0  0  0
 29 30  3  0  0  0  0
 30 21  1  0  0  0  0
M  END
>  <minimizedAffinity>
-3.61498666

>  <minimizedRMSD>
7.01122522

$$$$
