
 OpenBabel03252508003D

 30 32  0  0  1  0  0  0  0  0999 V2000
   46.6320   34.6780   43.1530 C   0  0  0  0  0  0  0  0  0  0  0  0
   45.6120   35.6680   43.2670 C   0  0  0  0  0  0  0  0  0  0  0  0
   44.7680   35.5460   44.3650 C   0  0  0  0  0  0  0  0  0  0  0  0
   44.9580   34.5260   45.2360 N   0  0  0  0  0  0  0  0  0  0  0  0
   45.9640   33.6050   45.0640 C   0  0  0  0  0  0  0  0  0  0  0  0
   46.7970   33.6660   44.0420 N   0  0  0  0  0  0  0  0  0  0  0  0
   45.5410   36.4440   42.5180 H   0  0  0  0  0  0  0  0  0  0  0  0
   43.9840   36.2710   44.4900 H   0  0  0  0  0  0  0  0  0  0  0  0
   46.1200   32.5190   46.0750 C   0  0  1  0  0  0  0  0  0  0  0  0
   46.8370   32.8300   47.3700 C   0  0  0  0  0  0  0  0  0  0  0  0
   45.3370   32.7150   47.3120 C   0  0  1  0  0  0  0  0  0  0  0  0
   46.2840   31.5020   45.6910 H   0  0  0  0  0  0  0  0  0  0  0  0
   47.3710   32.0150   47.8790 H   0  0  0  0  0  0  0  0  0  0  0  0
   47.3160   33.8310   47.3580 H   0  0  0  0  0  0  0  0  0  0  0  0
   44.8500   31.8580   47.7930 H   0  0  0  0  0  0  0  0  0  0  0  0
   44.6780   34.0030   47.5510 N   0  0  0  0  0  0  0  0  0  0  0  0
   44.1840   33.9380   48.4690 H   0  0  0  0  0  0  0  0  0  0  0  0
   45.3510   34.7910   47.6610 H   0  0  0  0  0  0  0  0  0  0  0  0
   47.5130   34.8220   42.0110 C   0  0  0  0  0  0  0  0  0  0  0  0
   48.2860   35.8290   41.8440 O   0  0  0  0  0  0  0  0  0  0  0  0
   48.8370   33.1390   40.7100 C   0  0  0  0  0  0  0  0  0  0  0  0
   47.7190   33.9310   40.8720 C   0  0  0  0  0  0  0  0  0  0  0  0
   46.7310   33.8760   39.8950 C   0  0  0  0  0  0  0  0  0  0  0  0
   45.8100   34.4750   39.9470 H   0  0  0  0  0  0  0  0  0  0  0  0
   46.8360   33.0630   38.7800 C   0  0  0  0  0  0  0  0  0  0  0  0
   46.0660   33.0360   38.0400 H   0  0  0  0  0  0  0  0  0  0  0  0
   47.9630   32.2750   38.6320 C   0  0  0  0  0  3  0  0  0  0  0  0
   48.9560   32.3220   39.6040 C   0  0  0  0  0  3  0  0  0  0  0  0
   50.6850   33.2130   42.5060 N   0  0  0  0  0  0  0  0  0  0  0  0
   49.8670   33.1800   41.7080 C   0  0  0  0  0  0  0  0  0  0  0  0
  1  2  2  0  0  0  0
  1  6  1  0  0  0  0
  2  3  1  0  0  0  0
  3  8  1  0  0  0  0
  3  4  2  0  0  0  0
  5  4  1  0  0  0  0
  5  9  1  0  0  0  0
  6  5  2  0  0  0  0
  7  2  1  0  0  0  0
  9 12  1  6  0  0  0
  9 11  1  0  0  0  0
  9 10  1  0  0  0  0
 10 13  1  0  0  0  0
 11 10  1  0  0  0  0
 11 16  1  0  0  0  0
 11 15  1  1  0  0  0
 14 10  1  0  0  0  0
 16 18  1  0  0  0  0
 16 17  1  0  0  0  0
 19  1  1  0  0  0  0
 20 19  2  0  0  0  0
 21 22  1  0  0  0  0
 21 30  1  0  0  0  0
 22 19  1  0  0  0  0
 23 24  1  0  0  0  0
 23 22  2  0  0  0  0
 25 23  1  0  0  0  0
 26 25  1  0  0  0  0
 27 25  2  0  0  0  0
 27 28  1  0  0  0  0
 28 21  2  0  0  0  0
 30 29  3  0  0  0  0
M  END
>  <minimizedAffinity>
-5.56551886

>  <minimizedRMSD>
1.50557053

$$$$
