
 OpenBabel03252508003D

 30 32  0  0  1  0  0  0  0  0999 V2000
   46.5450   34.4960   43.3620 C   0  0  0  0  0  0  0  0  0  0  0  0
   45.5240   35.4580   43.6170 C   0  0  0  0  0  0  0  0  0  0  0  0
   44.8120   35.2880   44.7990 C   0  0  0  0  0  0  0  0  0  0  0  0
   45.1190   34.2490   45.6130 N   0  0  0  0  0  0  0  0  0  0  0  0
   46.1190   33.3570   45.3030 C   0  0  0  0  0  0  0  0  0  0  0  0
   46.8300   33.4650   44.1970 N   0  0  0  0  0  0  0  0  0  0  0  0
   45.3540   36.2520   42.9040 H   0  0  0  0  0  0  0  0  0  0  0  0
   44.0320   35.9900   45.0320 H   0  0  0  0  0  0  0  0  0  0  0  0
   46.4090   32.2480   46.2590 C   0  0  1  0  0  0  0  0  0  0  0  0
   47.0860   32.5790   47.5700 C   0  0  0  0  0  0  0  0  0  0  0  0
   45.6120   32.2850   47.5020 C   0  0  1  0  0  0  0  0  0  0  0  0
   46.6940   31.2800   45.8250 H   0  0  0  0  0  0  0  0  0  0  0  0
   47.7180   31.8100   48.0390 H   0  0  0  0  0  0  0  0  0  0  0  0
   47.4400   33.6300   47.6100 H   0  0  0  0  0  0  0  0  0  0  0  0
   45.2350   31.3510   47.9370 H   0  0  0  0  0  0  0  0  0  0  0  0
   44.8010   33.4680   47.8030 N   0  0  0  0  0  0  0  0  0  0  0  0
   44.3210   33.2970   48.7160 H   0  0  0  0  0  0  0  0  0  0  0  0
   45.3730   34.3260   47.9550 H   0  0  0  0  0  0  0  0  0  0  0  0
   47.2900   34.6910   42.1330 C   0  0  0  0  0  0  0  0  0  0  0  0
   47.9420   35.7600   41.8710 O   0  0  0  0  0  0  0  0  0  0  0  0
   46.4420   33.4410   40.1340 C   0  0  0  0  0  0  0  0  0  0  0  0
   47.4620   33.7930   40.9940 C   0  0  0  0  0  0  0  0  0  0  0  0
   48.7250   33.2610   40.7630 C   0  0  0  0  0  0  0  0  0  0  0  0
   49.5910   33.4900   41.4000 H   0  0  0  0  0  0  0  0  0  0  0  0
   48.9860   32.4030   39.7090 C   0  0  0  0  0  0  0  0  0  0  0  0
   49.9640   32.0050   39.5480 H   0  0  0  0  0  0  0  0  0  0  0  0
   47.9540   32.0610   38.8550 C   0  0  0  0  0  3  0  0  0  0  0  0
   46.6860   32.5860   39.0780 C   0  0  0  0  0  3  0  0  0  0  0  0
   44.0870   34.4100   40.5340 N   0  0  0  0  0  0  0  0  0  0  0  0
   45.1310   33.9800   40.3560 C   0  0  0  0  0  0  0  0  0  0  0  0
  1  2  2  0  0  0  0
  1  6  1  0  0  0  0
  2  3  1  0  0  0  0
  3  8  1  0  0  0  0
  3  4  2  0  0  0  0
  5  4  1  0  0  0  0
  5  9  1  0  0  0  0
  6  5  2  0  0  0  0
  7  2  1  0  0  0  0
  9 12  1  6  0  0  0
  9 11  1  0  0  0  0
  9 10  1  0  0  0  0
 10 14  1  0  0  0  0
 10 13  1  0  0  0  0
 11 10  1  0  0  0  0
 11 16  1  0  0  0  0
 11 15  1  1  0  0  0
 16 18  1  0  0  0  0
 16 17  1  0  0  0  0
 19  1  1  0  0  0  0
 20 19  2  0  0  0  0
 21 30  1  0  0  0  0
 21 22  1  0  0  0  0
 22 19  1  0  0  0  0
 23 22  2  0  0  0  0
 23 24  1  0  0  0  0
 25 23  1  0  0  0  0
 26 25  1  0  0  0  0
 27 28  1  0  0  0  0
 27 25  2  0  0  0  0
 28 21  2  0  0  0  0
 30 29  3  0  0  0  0
M  END
>  <minimizedAffinity>
-5.36714792

>  <minimizedRMSD>
1.46653163

$$$$
