
 OpenBabel03252508003D

 30 32  0  0  1  0  0  0  0  0999 V2000
   46.3240   34.8560   43.2310 C   0  0  0  0  0  0  0  0  0  0  0  0
   45.3750   35.8840   43.5110 C   0  0  0  0  0  0  0  0  0  0  0  0
   44.6420   35.7300   44.6830 C   0  0  0  0  0  0  0  0  0  0  0  0
   44.8650   34.6470   45.4660 N   0  0  0  0  0  0  0  0  0  0  0  0
   45.7970   33.6930   45.1330 C   0  0  0  0  0  0  0  0  0  0  0  0
   46.5240   33.7810   44.0350 N   0  0  0  0  0  0  0  0  0  0  0  0
   45.2710   36.7100   42.8220 H   0  0  0  0  0  0  0  0  0  0  0  0
   43.9160   36.4820   44.9330 H   0  0  0  0  0  0  0  0  0  0  0  0
   45.9960   32.5360   46.0550 C   0  0  1  0  0  0  0  0  0  0  0  0
   46.8120   32.7410   47.3110 C   0  0  0  0  0  0  0  0  0  0  0  0
   45.3100   32.6640   47.3570 C   0  0  1  0  0  0  0  0  0  0  0  0
   46.1040   31.5450   45.5930 H   0  0  0  0  0  0  0  0  0  0  0  0
   47.3590   31.8810   47.7240 H   0  0  0  0  0  0  0  0  0  0  0  0
   47.3160   33.7290   47.3320 H   0  0  0  0  0  0  0  0  0  0  0  0
   44.8360   31.7860   47.8140 H   0  0  0  0  0  0  0  0  0  0  0  0
   44.7040   33.9460   47.7300 N   0  0  0  0  0  0  0  0  0  0  0  0
   44.2760   33.8290   48.6750 H   0  0  0  0  0  0  0  0  0  0  0  0
   45.4050   34.7100   47.8430 H   0  0  0  0  0  0  0  0  0  0  0  0
   47.0910   35.0320   42.0140 C   0  0  0  0  0  0  0  0  0  0  0  0
   48.0250   35.8990   41.8930 O   0  0  0  0  0  0  0  0  0  0  0  0
   45.8400   33.7250   40.2820 C   0  0  0  0  0  0  0  0  0  0  0  0
   46.9950   34.3260   40.7390 C   0  0  0  0  0  0  0  0  0  0  0  0
   48.1310   34.2550   39.9420 C   0  0  0  0  0  0  0  0  0  0  0  0
   49.0900   34.7080   40.2330 H   0  0  0  0  0  0  0  0  0  0  0  0
   48.1370   33.6080   38.7180 C   0  0  0  0  0  0  0  0  0  0  0  0
   49.0200   33.5640   38.1190 H   0  0  0  0  0  0  0  0  0  0  0  0
   46.9730   33.0100   38.2730 C   0  0  0  0  0  0  0  0  0  0  0  0
   45.8310   33.0750   39.0640 C   0  0  0  0  0  0  0  0  0  0  0  0
   43.7150   33.8390   41.7370 N   0  0  0  0  0  0  0  0  0  0  0  0
   44.6570   33.7870   41.0910 C   0  0  0  0  0  0  0  0  0  0  0  0
  1  2  2  0  0  0  0
  1  6  1  0  0  0  0
  2  3  1  0  0  0  0
  3  8  1  0  0  0  0
  3  4  2  0  0  0  0
  5  4  1  0  0  0  0
  5  9  1  0  0  0  0
  6  5  2  0  0  0  0
  7  2  1  0  0  0  0
  9 12  1  6  0  0  0
  9 10  1  0  0  0  0
  9 11  1  0  0  0  0
 10 14  1  0  0  0  0
 10 11  1  0  0  0  0
 10 13  1  0  0  0  0
 11 16  1  0  0  0  0
 11 15  1  1  0  0  0
 16 18  1  0  0  0  0
 16 17  1  0  0  0  0
 19  1  1  0  0  0  0
 20 19  2  0  0  0  0
 21 22  1  0  0  0  0
 21 30  1  0  0  0  0
 22 19  1  0  0  0  0
 23 24  1  0  0  0  0
 23 22  2  0  0  0  0
 25 23  1  0  0  0  0
 26 25  1  0  0  0  0
 27 25  2  0  0  0  0
 27 28  1  0  0  0  0
 28 21  2  0  0  0  0
 30 29  3  0  0  0  0
M  END
>  <minimizedAffinity>
-5.80581808

>  <minimizedRMSD>
0.683840632

$$$$
