
 OpenBabel03252508003D

 30 32  0  0  1  0  0  0  0  0999 V2000
   46.5170   34.5180   43.3540 C   0  0  0  0  0  0  0  0  0  0  0  0
   45.5050   35.4840   43.6300 C   0  0  0  0  0  0  0  0  0  0  0  0
   44.8060   35.3080   44.8190 C   0  0  0  0  0  0  0  0  0  0  0  0
   45.1170   34.2610   45.6210 N   0  0  0  0  0  0  0  0  0  0  0  0
   46.1070   33.3650   45.2910 C   0  0  0  0  0  0  0  0  0  0  0  0
   46.8050   33.4780   44.1780 N   0  0  0  0  0  0  0  0  0  0  0  0
   45.3300   36.2850   42.9260 H   0  0  0  0  0  0  0  0  0  0  0  0
   44.0330   36.0130   45.0670 H   0  0  0  0  0  0  0  0  0  0  0  0
   46.4020   32.2470   46.2340 C   0  0  1  0  0  0  0  0  0  0  0  0
   47.0900   32.5640   47.5430 C   0  0  0  0  0  0  0  0  0  0  0  0
   45.6140   32.2730   47.4840 C   0  0  1  0  0  0  0  0  0  0  0  0
   46.6820   31.2820   45.7890 H   0  0  0  0  0  0  0  0  0  0  0  0
   47.7230   31.7890   48.0000 H   0  0  0  0  0  0  0  0  0  0  0  0
   47.4460   33.6130   47.5910 H   0  0  0  0  0  0  0  0  0  0  0  0
   45.2390   31.3360   47.9130 H   0  0  0  0  0  0  0  0  0  0  0  0
   44.8080   33.4560   47.8020 N   0  0  0  0  0  0  0  0  0  0  0  0
   44.3350   33.2770   48.7170 H   0  0  0  0  0  0  0  0  0  0  0  0
   45.3830   34.3110   47.9580 H   0  0  0  0  0  0  0  0  0  0  0  0
   47.2480   34.7180   42.1190 C   0  0  0  0  0  0  0  0  0  0  0  0
   47.9400   35.7670   41.8760 O   0  0  0  0  0  0  0  0  0  0  0  0
   46.3070   33.5440   40.1150 C   0  0  0  0  0  0  0  0  0  0  0  0
   47.3630   33.8490   40.9500 C   0  0  0  0  0  0  0  0  0  0  0  0
   48.6060   33.2980   40.6630 C   0  0  0  0  0  0  0  0  0  0  0  0
   49.4970   33.4900   41.2770 H   0  0  0  0  0  0  0  0  0  0  0  0
   48.8120   32.4630   39.5770 C   0  0  0  0  0  0  0  0  0  0  0  0
   49.7750   32.0490   39.3730 H   0  0  0  0  0  0  0  0  0  0  0  0
   47.7450   32.1670   38.7500 C   0  0  0  0  0  3  0  0  0  0  0  0
   46.4960   32.7130   39.0290 C   0  0  0  0  0  3  0  0  0  0  0  0
   43.9880   34.5520   40.6200 N   0  0  0  0  0  0  0  0  0  0  0  0
   45.0160   34.1030   40.3960 C   0  0  0  0  0  0  0  0  0  0  0  0
  1  2  2  0  0  0  0
  1  6  1  0  0  0  0
  2  3  1  0  0  0  0
  3  8  1  0  0  0  0
  3  4  2  0  0  0  0
  5  4  1  0  0  0  0
  5  9  1  0  0  0  0
  6  5  2  0  0  0  0
  7  2  1  0  0  0  0
  9 12  1  6  0  0  0
  9 11  1  0  0  0  0
  9 10  1  0  0  0  0
 10 14  1  0  0  0  0
 10 13  1  0  0  0  0
 11 10  1  0  0  0  0
 11 16  1  0  0  0  0
 11 15  1  1  0  0  0
 16 18  1  0  0  0  0
 16 17  1  0  0  0  0
 19  1  1  0  0  0  0
 20 19  2  0  0  0  0
 21 30  1  0  0  0  0
 21 22  1  0  0  0  0
 22 19  1  0  0  0  0
 23 22  2  0  0  0  0
 23 24  1  0  0  0  0
 25 23  1  0  0  0  0
 26 25  1  0  0  0  0
 27 28  1  0  0  0  0
 27 25  2  0  0  0  0
 28 21  2  0  0  0  0
 30 29  3  0  0  0  0
M  END
>  <minimizedAffinity>
-5.40748882

>  <minimizedRMSD>
1.27564168

$$$$
