
 OpenBabel03252508003D

 30 32  0  0  1  0  0  0  0  0999 V2000
   46.9370   33.0610   44.4690 C   0  0  0  0  0  0  0  0  0  0  0  0
   46.0570   33.9360   45.1710 C   0  0  0  0  0  0  0  0  0  0  0  0
   45.5420   33.4490   46.3660 C   0  0  0  0  0  0  0  0  0  0  0  0
   45.8950   32.2090   46.7820 N   0  0  0  0  0  0  0  0  0  0  0  0
   46.7500   31.4170   46.0530 C   0  0  0  0  0  0  0  0  0  0  0  0
   47.2720   31.8220   44.9110 N   0  0  0  0  0  0  0  0  0  0  0  0
   45.8350   34.9100   44.7550 H   0  0  0  0  0  0  0  0  0  0  0  0
   44.8730   34.0760   46.9290 H   0  0  0  0  0  0  0  0  0  0  0  0
   47.1040   30.0680   46.5850 C   0  0  1  0  0  0  0  0  0  0  0  0
   48.5630   29.7310   46.7950 C   0  0  0  0  0  0  0  0  0  0  0  0
   47.6640   30.0750   47.9520 C   0  0  1  0  0  0  0  0  0  0  0  0
   46.4790   29.2250   46.2580 H   0  0  0  0  0  0  0  0  0  0  0  0
   48.8720   28.6790   46.7110 H   0  0  0  0  0  0  0  0  0  0  0  0
   49.2410   30.5010   46.3720 H   0  0  0  0  0  0  0  0  0  0  0  0
   47.3850   29.2860   48.6620 H   0  0  0  0  0  0  0  0  0  0  0  0
   48.0320   31.3510   48.5730 N   0  0  0  0  0  0  0  0  0  0  0  0
   48.4050   31.1410   49.5260 H   0  0  0  0  0  0  0  0  0  0  0  0
   48.8120   31.8350   48.0790 H   0  0  0  0  0  0  0  0  0  0  0  0
   47.4780   33.5840   43.2300 C   0  0  0  0  0  0  0  0  0  0  0  0
   48.3600   34.5110   43.1860 O   0  0  0  0  0  0  0  0  0  0  0  0
   46.1400   33.7600   41.1190 C   0  0  0  0  0  0  0  0  0  0  0  0
   47.1760   33.2150   41.8500 C   0  0  0  0  0  0  0  0  0  0  0  0
   47.9780   32.2600   41.2360 C   0  0  0  0  0  0  0  0  0  0  0  0
   48.8230   31.7770   41.7470 H   0  0  0  0  0  0  0  0  0  0  0  0
   47.7690   31.8460   39.9320 C   0  0  0  0  0  0  0  0  0  0  0  0
   48.3980   31.1100   39.4780 H   0  0  0  0  0  0  0  0  0  0  0  0
   46.7280   32.4010   39.2120 C   0  0  0  0  0  3  0  0  0  0  0  0
   45.9200   33.3580   39.8170 C   0  0  0  0  0  3  0  0  0  0  0  0
   44.6360   35.5370   42.2270 N   0  0  0  0  0  0  0  0  0  0  0  0
   45.3020   34.7480   41.7340 C   0  0  0  0  0  0  0  0  0  0  0  0
  1  6  2  0  0  0  0
  1  2  1  0  0  0  0
  2  3  2  0  0  0  0
  3  4  1  0  0  0  0
  3  8  1  0  0  0  0
  5  9  1  0  0  0  0
  5  4  2  0  0  0  0
  6  5  1  0  0  0  0
  7  2  1  0  0  0  0
  9 12  1  6  0  0  0
  9 10  1  0  0  0  0
  9 11  1  0  0  0  0
 10 11  1  0  0  0  0
 11 16  1  0  0  0  0
 11 15  1  1  0  0  0
 13 10  1  0  0  0  0
 14 10  1  0  0  0  0
 16 17  1  0  0  0  0
 18 16  1  0  0  0  0
 19  1  1  0  0  0  0
 20 19  2  0  0  0  0
 21 30  1  0  0  0  0
 21 22  1  0  0  0  0
 22 19  1  0  0  0  0
 23 24  1  0  0  0  0
 23 22  2  0  0  0  0
 25 23  1  0  0  0  0
 26 25  1  0  0  0  0
 27 28  1  0  0  0  0
 27 25  2  0  0  0  0
 28 21  2  0  0  0  0
 30 29  3  0  0  0  0
M  END
>  <minimizedAffinity>
-3.93191624

>  <minimizedRMSD>
2.6154952

$$$$
