
 OpenBabel03252501323D

 25 26  0  0  0  0  0  0  0  0999 V2000
   43.4530   34.5280   41.9340 C   0  0  0  0  0  0  0  0  0  0  0  0
   43.5410   33.3360   42.3610 O   0  0  0  0  0  0  0  0  0  0  0  0
   44.4630   35.3820   42.4660 N   0  0  0  0  0  0  0  0  0  0  0  0
   44.4970   36.3620   42.1880 H   0  0  0  0  0  0  0  0  0  0  0  0
   45.2910   34.5980   43.3620 C   0  0  0  0  0  0  0  0  0  0  0  0
   45.1840   34.5820   44.7550 C   0  0  0  0  0  0  0  0  0  0  0  0
   46.0730   33.7640   45.4260 C   0  0  0  0  0  0  0  0  0  0  0  0
   46.9590   33.0560   44.7120 N   0  0  0  0  0  0  0  0  0  0  0  0
   47.0440   33.0850   43.3790 C   0  0  0  0  0  0  0  0  0  0  0  0
   46.2020   33.8650   42.6940 N   0  0  0  0  0  0  0  0  0  0  0  0
   45.9830   33.7580   46.4930 H   0  0  0  0  0  0  0  0  0  0  0  0
   47.7500   32.5240   42.7810 H   0  0  0  0  0  0  0  0  0  0  0  0
   44.1820   35.4020   45.3160 N   0  0  0  0  0  0  0  0  0  0  0  0
   43.1930   35.4550   44.9940 H   0  0  0  0  0  0  0  0  0  0  0  0
   44.5120   35.9850   46.1180 H   0  0  0  0  0  0  0  0  0  0  0  0
   42.6650   34.5600   39.7000 C   0  0  0  0  0  0  0  0  0  0  0  0
   42.4200   34.9550   40.9990 C   0  0  0  0  0  0  0  0  0  0  0  0
   41.3540   35.6680   41.4350 C   0  0  0  0  0  0  0  0  0  0  0  0
   41.1900   35.9640   42.4570 H   0  0  0  0  0  0  0  0  0  0  0  0
   40.4020   36.0460   40.4810 C   0  0  0  0  0  0  0  0  0  0  0  0
   39.5060   36.6170   40.6980 H   0  0  0  0  0  0  0  0  0  0  0  0
   40.6610   35.6430   39.1870 C   0  0  0  0  0  3  0  0  0  0  0  0
   41.7310   34.9230   38.7300 C   0  0  0  0  0  3  0  0  0  0  0  0
   44.7580   33.2030   38.9730 N   0  0  0  0  0  0  0  0  0  0  0  0
   43.8140   33.8020   39.2920 C   0  0  0  0  0  0  0  0  0  0  0  0
  1  2  2  0  0  0  0
  1  3  1  0  0  0  0
  3  5  1  0  0  0  0
  4  3  1  0  0  0  0
  5  6  1  0  0  0  0
  6 13  1  0  0  0  0
  6  7  2  0  0  0  0
  7 11  1  0  0  0  0
  8  7  1  0  0  0  0
  9  8  2  0  0  0  0
 10  5  2  0  0  0  0
 10  9  1  0  0  0  0
 12  9  1  0  0  0  0
 13 15  1  0  0  0  0
 14 13  1  0  0  0  0
 16 17  1  0  0  0  0
 17 18  2  0  0  0  0
 17  1  1  0  0  0  0
 18 19  1  0  0  0  0
 20 21  1  0  0  0  0
 20 18  1  0  0  0  0
 22 20  2  0  0  0  0
 23 22  1  0  0  0  0
 23 16  2  0  0  0  0
 24 25  3  0  0  0  0
 25 16  1  0  0  0  0
M  END
>  <minimizedAffinity>
-5.15898085

>  <minimizedRMSD>
2.07219243

$$$$
