
 OpenBabel03252508003D

 30 32  0  0  1  0  0  0  0  0999 V2000
   46.4270   34.6740   43.3300 C   0  0  0  0  0  0  0  0  0  0  0  0
   45.4540   35.6940   43.5450 C   0  0  0  0  0  0  0  0  0  0  0  0
   44.6920   35.5730   44.7020 C   0  0  0  0  0  0  0  0  0  0  0  0
   44.9120   34.5250   45.5320 N   0  0  0  0  0  0  0  0  0  0  0  0
   45.8690   33.5760   45.2620 C   0  0  0  0  0  0  0  0  0  0  0  0
   46.6230   33.6340   44.1810 N   0  0  0  0  0  0  0  0  0  0  0  0
   45.3540   36.4920   42.8220 H   0  0  0  0  0  0  0  0  0  0  0  0
   43.9460   36.3200   44.9030 H   0  0  0  0  0  0  0  0  0  0  0  0
   46.0620   32.4590   46.2320 C   0  0  1  0  0  0  0  0  0  0  0  0
   46.8420   32.7260   47.5000 C   0  0  0  0  0  0  0  0  0  0  0  0
   45.3400   32.6250   47.5110 C   0  0  1  0  0  0  0  0  0  0  0  0
   46.1970   31.4520   45.8120 H   0  0  0  0  0  0  0  0  0  0  0  0
   47.3920   31.8920   47.9600 H   0  0  0  0  0  0  0  0  0  0  0  0
   47.3300   33.7230   47.4950 H   0  0  0  0  0  0  0  0  0  0  0  0
   44.8690   31.7580   47.9900 H   0  0  0  0  0  0  0  0  0  0  0  0
   44.7050   33.9110   47.8180 N   0  0  0  0  0  0  0  0  0  0  0  0
   44.2550   33.8230   48.7560 H   0  0  0  0  0  0  0  0  0  0  0  0
   45.3900   34.6900   47.9180 H   0  0  0  0  0  0  0  0  0  0  0  0
   47.2240   34.8170   42.1280 C   0  0  0  0  0  0  0  0  0  0  0  0
   47.9550   35.8400   41.8890 O   0  0  0  0  0  0  0  0  0  0  0  0
   46.3390   33.5540   40.1540 C   0  0  0  0  0  0  0  0  0  0  0  0
   47.3740   33.9090   40.9940 C   0  0  0  0  0  0  0  0  0  0  0  0
   48.6310   33.3700   40.7470 C   0  0  0  0  0  0  0  0  0  0  0  0
   49.5090   33.6010   41.3690 H   0  0  0  0  0  0  0  0  0  0  0  0
   48.8710   32.5000   39.6970 C   0  0  0  0  0  0  0  0  0  0  0  0
   49.8460   32.0970   39.5230 H   0  0  0  0  0  0  0  0  0  0  0  0
   47.8240   32.1540   38.8640 C   0  0  0  0  0  3  0  0  0  0  0  0
   46.5620   32.6880   39.1010 C   0  0  0  0  0  3  0  0  0  0  0  0
   43.9940   34.5370   40.5840 N   0  0  0  0  0  0  0  0  0  0  0  0
   45.0340   34.1000   40.3930 C   0  0  0  0  0  0  0  0  0  0  0  0
  1  2  2  0  0  0  0
  1  6  1  0  0  0  0
  2  3  1  0  0  0  0
  3  8  1  0  0  0  0
  3  4  2  0  0  0  0
  5  4  1  0  0  0  0
  5  9  1  0  0  0  0
  6  5  2  0  0  0  0
  7  2  1  0  0  0  0
  9 12  1  6  0  0  0
  9 10  1  0  0  0  0
  9 11  1  0  0  0  0
 10 11  1  0  0  0  0
 10 13  1  0  0  0  0
 11 16  1  0  0  0  0
 11 15  1  1  0  0  0
 14 10  1  0  0  0  0
 16 18  1  0  0  0  0
 16 17  1  0  0  0  0
 19  1  1  0  0  0  0
 20 19  2  0  0  0  0
 21 30  1  0  0  0  0
 21 22  1  0  0  0  0
 22 19  1  0  0  0  0
 23 22  2  0  0  0  0
 23 24  1  0  0  0  0
 25 23  1  0  0  0  0
 26 25  1  0  0  0  0
 27 28  1  0  0  0  0
 27 25  2  0  0  0  0
 28 21  2  0  0  0  0
 30 29  3  0  0  0  0
M  END
>  <minimizedAffinity>
-5.37055206

>  <minimizedRMSD>
1.30094445

$$$$
