
 OpenBabel03242511193D

 39 42  0  0  1  0  0  0  0  0999 V2000
   47.7870   32.7280   42.7200 C   0  0  0  0  0  0  0  0  0  0  0  0
   48.6370   32.6940   43.3930 H   0  0  0  0  0  0  0  0  0  0  0  0
   47.0840   31.9200   43.0800 H   0  0  0  0  0  0  0  0  0  0  0  0
   48.0160   32.4910   41.3110 C   0  0  0  0  0  0  0  0  0  0  0  0
   49.2010   32.6020   40.8130 C   0  0  0  0  0  0  0  0  0  0  0  0
   49.4420   32.3740   39.4390 N   0  0  0  0  0  0  0  0  0  0  0  0
   50.2570   31.7340   38.4330 C   0  0  0  0  0  0  0  0  0  0  0  0
   51.4700   31.3720   38.3590 O   0  0  0  0  0  0  0  0  0  0  0  0
   49.0150   31.7230   37.5910 C   0  0  0  0  0  0  0  0  0  0  0  0
   48.5980   32.9590   38.3730 C   0  0  1  0  0  0  0  0  0  0  0  0
   46.9020   33.0130   38.9340 S   0  0  0  0  0  0  0  0  0  0  0  0
   46.8200   32.1260   40.5240 C   0  0  0  0  0  0  0  0  0  0  0  0
   49.2920   31.8770   36.5470 H   0  0  0  0  0  0  0  0  0  0  0  0
   48.3600   30.8570   37.8170 H   0  0  0  0  0  0  0  0  0  0  0  0
   49.0380   33.8880   38.0110 H   0  0  0  0  0  0  0  0  0  0  0  0
   46.8150   31.0220   40.3020 H   0  0  0  0  0  0  0  0  0  0  0  0
   45.8660   32.4490   40.9790 H   0  0  0  0  0  0  0  0  0  0  0  0
   50.3300   32.9700   41.6720 C   0  0  0  0  0  0  0  0  0  0  0  0
   51.4780   32.4120   41.6420 O   0  0  0  0  0  0  0  0  0  0  0  0
   51.1600   33.5310   42.5830 O   0  0  0  0  0  0  0  0  0  0  0  0
   50.9580   34.0780   43.3870 H   0  0  0  0  0  0  0  0  0  0  0  0
   46.8360   34.2890   42.9670 S   0  0  0  0  0  0  0  0  0  0  0  0
   44.4870   35.0220   46.1960 C   0  0  0  0  0  0  0  0  0  0  0  0
   45.1140   35.1650   44.9330 C   0  0  0  0  0  0  0  0  0  0  0  0
   46.0190   34.1650   44.5380 C   0  0  0  0  0  0  0  0  0  0  0  0
   46.2260   33.1480   45.3820 N   0  0  0  0  0  0  0  0  0  0  0  0
   45.6200   33.0290   46.5800 C   0  0  0  0  0  0  0  0  0  0  0  0
   44.7510   33.9660   46.9870 N   0  0  0  0  0  0  0  0  0  0  0  0
   43.8100   35.8470   46.4020 H   0  0  0  0  0  0  0  0  0  0  0  0
   44.9300   35.9890   44.2800 H   0  0  0  0  0  0  0  0  0  0  0  0
   48.1110   32.6730   48.4350 O   0  0  0  0  0  0  0  0  0  0  0  0
   47.0540   32.0130   48.3340 C   0  0  0  0  0  0  0  0  0  0  0  0
   45.8820   31.8940   47.4630 C   0  0  1  0  0  0  0  0  0  0  0  0
   44.7740   31.6820   48.5030 C   0  0  0  0  0  0  0  0  0  0  0  0
   44.7590   32.5700   49.1410 H   0  0  0  0  0  0  0  0  0  0  0  0
   45.4200   30.5020   49.2410 C   0  0  0  0  0  0  0  0  0  0  0  0
   44.9590   30.2930   50.2050 H   0  0  0  0  0  0  0  0  0  0  0  0
   46.7920   31.0140   49.3440 N   0  0  0  0  0  0  0  0  0  0  0  0
   47.3800   30.5990   50.1130 H   0  0  0  0  0  0  0  0  0  0  0  0
  1 22  1  0  0  0  0
  1  3  1  0  0  0  0
  1  2  1  0  0  0  0
  4  1  1  0  0  0  0
  5  4  2  0  0  0  0
  5 18  1  0  0  0  0
  6  5  1  0  0  0  0
  7  6  1  0  0  0  0
  8  7  2  0  0  0  0
  9 14  1  0  0  0  0
  9 10  1  0  0  0  0
  9  7  1  0  0  0  0
 10 15  1  6  0  0  0
 10 11  1  0  0  0  0
 10  6  1  0  0  0  0
 11 12  1  0  0  0  0
 12 17  1  0  0  0  0
 12  4  1  0  0  0  0
 13  9  1  0  0  0  0
 16 12  1  0  0  0  0
 18 20  1  0  0  0  0
 19 18  2  0  0  0  0
 20 21  1  0  0  0  0
 22 25  1  0  0  0  0
 23 29  1  0  0  0  0
 23 28  1  0  0  0  0
 24 23  2  0  0  0  0
 25 24  1  0  0  0  0
 25 26  2  0  0  0  0
 26 27  1  0  0  0  0
 27 28  2  0  0  0  0
 30 24  1  0  0  0  0
 32 31  2  0  0  0  0
 32 38  1  0  0  0  0
 33 27  1  1  0  0  0
 33 32  1  0  0  0  0
 33 34  1  0  0  0  0
 34 35  1  0  0  0  0
 34 36  1  0  0  0  0
 36 38  1  0  0  0  0
 36 37  1  0  0  0  0
 38 39  1  0  0  0  0
M  END
>  <minimizedAffinity>
-5.60650826

>  <minimizedRMSD>
1.29872513

$$$$
