
 OpenBabel03242523193D

 37 40  0  0  1  0  0  0  0  0999 V2000
   44.5420   31.7960   42.8950 Cl  0  0  0  0  0  0  0  0  0  0  0  0
   44.5770   33.5530   42.7990 C   0  0  0  0  0  0  0  0  0  0  0  0
   45.4530   34.1910   43.7030 C   0  0  0  0  0  0  0  0  0  0  0  0
   45.4140   35.5650   43.5300 C   0  0  0  0  0  0  0  0  0  0  0  0
   44.7000   36.3040   42.6690 C   0  0  0  0  0  0  0  0  0  0  0  0
   43.8820   35.6090   41.8320 C   0  0  0  0  0  0  0  0  0  0  0  0
   43.8010   34.2520   41.8760 C   0  0  0  0  0  0  0  0  0  0  0  0
   46.0210   36.2220   44.1890 H   0  0  0  0  0  0  0  0  0  0  0  0
   44.7120   37.3780   42.5750 H   0  0  0  0  0  0  0  0  0  0  0  0
   43.2280   36.0290   41.0690 H   0  0  0  0  0  0  0  0  0  0  0  0
   44.3860   33.3730   39.0080 O   0  0  0  0  0  0  0  0  0  0  0  0
   43.2620   33.6480   39.5540 C   0  0  0  0  0  0  0  0  0  0  0  0
   42.9350   33.4060   41.0060 C   0  0  2  0  0  3  0  0  0  0  0  0
   41.4950   33.7180   41.0500 C   0  0  0  0  0  3  0  0  0  0  0  0
   41.2340   34.7440   41.3750 H   0  0  0  0  0  0  0  0  0  0  0  0
   40.9670   33.6430   39.6260 C   0  0  0  0  0  3  0  0  0  0  0  0
   40.8770   32.5620   39.3290 H   0  0  0  0  0  0  0  0  0  0  0  0
   42.1090   34.2320   38.9110 N   0  0  0  0  0  0  0  0  0  0  0  0
   42.1710   34.9130   38.1200 H   0  0  0  0  0  0  0  0  0  0  0  0
   46.3220   33.5290   44.7090 C   0  0  0  0  0  0  0  0  0  0  0  0
   45.7410   33.8990   45.7000 O   0  0  0  0  0  0  0  0  0  0  0  0
   47.3890   32.8000   44.0090 C   0  0  0  0  0  0  0  0  0  0  0  0
   48.2430   33.3100   43.1120 C   0  0  0  0  0  0  0  0  0  0  0  0
   49.0790   32.3770   42.5290 C   0  0  0  0  0  0  0  0  0  0  0  0
   48.9670   31.0330   42.9180 N   0  0  0  0  0  0  0  0  0  0  0  0
   48.1050   30.6100   43.8090 C   0  0  0  0  0  0  0  0  0  0  0  0
   47.2500   31.5090   44.4130 N   0  0  0  0  0  0  0  0  0  0  0  0
   49.8300   32.6170   41.7800 H   0  0  0  0  0  0  0  0  0  0  0  0
   48.1410   29.5430   44.0050 H   0  0  0  0  0  0  0  0  0  0  0  0
   48.4370   34.6810   42.8080 C   0  0  0  0  0  0  0  0  0  0  0  0
   49.4700   35.2670   42.1430 C   0  0  0  0  0  0  0  0  0  0  0  0
   48.2420   35.1070   41.2880 C   0  0  0  0  0  0  0  0  0  0  0  0
   47.9750   35.3750   43.5360 H   0  0  0  0  0  0  0  0  0  0  0  0
   50.3340   34.6370   41.7750 H   0  0  0  0  0  0  0  0  0  0  0  0
   49.8140   36.3250   42.1540 H   0  0  0  0  0  0  0  0  0  0  0  0
   47.5380   35.9400   41.1640 H   0  0  0  0  0  0  0  0  0  0  0  0
   48.1780   34.2290   40.6060 H   0  0  0  0  0  0  0  0  0  0  0  0
  2  1  1  0  0  0  0
  2  3  1  0  0  0  0
  3 20  1  0  0  0  0
  4  3  2  0  0  0  0
  4  8  1  0  0  0  0
  5  4  1  0  0  0  0
  6  7  1  0  0  0  0
  6  5  2  0  0  0  0
  7  2  2  0  0  0  0
  9  5  1  0  0  0  0
 10  6  1  0  0  0  0
 11 12  2  0  0  0  0
 12 13  1  0  0  0  0
 13 14  1  0  0  0  0
 13  7  1  1  0  0  0
 14 15  1  0  0  0  0
 16 14  1  0  0  0  0
 17 16  1  0  0  0  0
 18 12  1  0  0  0  0
 18 16  1  0  0  0  0
 19 18  1  0  0  0  0
 20 21  2  0  0  0  0
 22 27  1  0  0  0  0
 22 20  1  0  0  0  0
 23 22  2  0  0  0  0
 24 25  2  0  0  0  0
 24 23  1  0  0  0  0
 25 26  1  0  0  0  0
 26 29  1  0  0  0  0
 26 27  2  0  0  0  0
 28 24  1  0  0  0  0
 30 23  1  0  0  0  0
 30 33  1  0  0  0  0
 31 35  1  0  0  0  0
 31 30  1  0  0  0  0
 32 31  1  0  0  0  0
 32 30  1  0  0  0  0
 34 31  1  0  0  0  0
 36 32  1  0  0  0  0
 37 32  1  0  0  0  0
M  END
>  <minimizedAffinity>
-5.70309305

>  <minimizedRMSD>
0.292923182

$$$$
