
 OpenBabel03252502463D

 45 48  0  0  1  0  0  0  0  0999 V2000
   47.5120   35.4560   41.9990 C   0  0  0  0  0  0  0  0  0  0  0  0
   47.6950   35.9510   42.9850 H   0  0  0  0  0  0  0  0  0  0  0  0
   47.1290   36.2580   41.3150 H   0  0  0  0  0  0  0  0  0  0  0  0
   48.7960   34.8480   41.5260 C   0  0  1  0  0  0  0  0  0  0  0  0
   49.9770   34.9340   42.4370 C   0  0  0  0  0  0  0  0  0  0  0  0
   49.2580   33.6500   42.2120 C   0  0  2  0  0  0  0  0  0  0  0  0
   48.9820   35.0150   40.4710 H   0  0  0  0  0  0  0  0  0  0  0  0
   49.8240   35.4880   43.3960 H   0  0  0  0  0  0  0  0  0  0  0  0
   50.9960   35.1160   42.0130 H   0  0  0  0  0  0  0  0  0  0  0  0
   48.8310   33.2180   43.1120 H   0  0  0  0  0  0  0  0  0  0  0  0
   50.0060   32.7410   41.3610 N   0  0  0  0  0  0  0  0  0  0  0  0
   49.2750   32.2470   40.2510 C   0  0  0  0  0  0  0  0  0  0  0  0
   50.2220   31.3260   39.5060 C   0  0  0  0  0  0  0  0  0  0  0  0
   50.6150   30.2030   40.3010 N   0  0  0  0  0  0  0  0  0  0  0  0
   50.5960   30.4610   41.7240 C   0  0  0  0  0  0  0  0  0  0  0  0
   50.9470   31.9220   41.9950 C   0  0  0  0  0  0  0  0  0  0  0  0
   48.3700   31.7150   40.5930 H   0  0  0  0  0  0  0  0  0  0  0  0
   48.9680   33.0390   39.5550 H   0  0  0  0  0  0  0  0  0  0  0  0
   49.6770   30.9590   38.6030 H   0  0  0  0  0  0  0  0  0  0  0  0
   51.0740   31.9210   39.1430 H   0  0  0  0  0  0  0  0  0  0  0  0
   51.4860   29.7810   39.9600 H   0  0  0  0  0  0  0  0  0  0  0  0
   51.2780   29.7780   42.2540 H   0  0  0  0  0  0  0  0  0  0  0  0
   49.5540   30.2960   42.0940 H   0  0  0  0  0  0  0  0  0  0  0  0
   51.9840   32.1300   41.6730 H   0  0  0  0  0  0  0  0  0  0  0  0
   50.8780   32.0410   43.0970 H   0  0  0  0  0  0  0  0  0  0  0  0
   46.5360   34.3310   42.1600 C   0  0  0  0  0  0  0  0  0  0  0  0
   46.8310   33.3630   41.7780 H   0  0  0  0  0  0  0  0  0  0  0  0
   45.6200   34.6090   41.5600 H   0  0  0  0  0  0  0  0  0  0  0  0
   44.6680   35.2200   45.2800 C   0  0  0  0  0  0  0  0  0  0  0  0
   45.1010   35.2450   43.9360 C   0  0  0  0  0  0  0  0  0  0  0  0
   46.0610   34.3210   43.5830 C   0  0  0  0  0  0  0  0  0  0  0  0
   46.5390   33.4510   44.5040 N   0  0  0  0  0  0  0  0  0  0  0  0
   46.1160   33.4470   45.7590 C   0  0  0  0  0  0  0  0  0  0  0  0
   45.1920   34.3190   46.1470 N   0  0  0  0  0  0  0  0  0  0  0  0
   43.9100   35.9320   45.6020 H   0  0  0  0  0  0  0  0  0  0  0  0
   44.7050   35.9480   43.2220 H   0  0  0  0  0  0  0  0  0  0  0  0
   44.6130   32.5230   48.1170 O   0  0  0  0  0  0  0  0  0  0  0  0
   45.6170   31.9120   47.6320 C   0  0  0  0  0  0  0  0  0  0  0  0
   46.6640   32.4770   46.7450 C   0  0  1  0  0  3  0  0  0  0  0  0
   47.2720   31.3110   46.0290 C   0  0  0  0  0  3  0  0  0  0  0  0
   47.1060   31.3260   44.9310 H   0  0  0  0  0  0  0  0  0  0  0  0
   46.6540   30.0940   46.6630 C   0  0  0  0  0  3  0  0  0  0  0  0
   47.4210   29.3630   46.9700 H   0  0  0  0  0  0  0  0  0  0  0  0
   45.9400   30.5510   47.8450 N   0  0  0  0  0  0  0  0  0  0  0  0
   45.7180   29.9680   48.6820 H   0  0  0  0  0  0  0  0  0  0  0  0
  1 26  1  0  0  0  0
  1  2  1  0  0  0  0
  3  1  1  0  0  0  0
  4  7  1  6  0  0  0
  4  1  1  0  0  0  0
  4  6  1  0  0  0  0
  4  5  1  0  0  0  0
  5  8  1  0  0  0  0
  6  5  1  0  0  0  0
  6 10  1  1  0  0  0
  9  5  1  0  0  0  0
 11 16  1  0  0  0  0
 11  6  1  0  0  0  0
 12 17  1  0  0  0  0
 12 11  1  0  0  0  0
 13 12  1  0  0  0  0
 13 14  1  0  0  0  0
 14 15  1  0  0  0  0
 15 16  1  0  0  0  0
 15 23  1  0  0  0  0
 15 22  1  0  0  0  0
 16 25  1  0  0  0  0
 18 12  1  0  0  0  0
 19 13  1  0  0  0  0
 20 13  1  0  0  0  0
 21 14  1  0  0  0  0
 24 16  1  0  0  0  0
 26 31  1  0  0  0  0
 27 26  1  0  0  0  0
 28 26  1  0  0  0  0
 29 35  1  0  0  0  0
 29 34  1  0  0  0  0
 30 29  2  0  0  0  0
 31 30  1  0  0  0  0
 31 32  2  0  0  0  0
 32 33  1  0  0  0  0
 33 34  2  0  0  0  0
 36 30  1  0  0  0  0
 38 44  1  0  0  0  0
 38 37  2  0  0  0  0
 39 33  1  6  0  0  0
 39 38  1  0  0  0  0
 40 42  1  0  0  0  0
 40 39  1  0  0  0  0
 41 40  1  0  0  0  0
 42 43  1  0  0  0  0
 42 44  1  0  0  0  0
 44 45  1  0  0  0  0
M  END
>  <minimizedAffinity>
-5.37819767

>  <minimizedRMSD>
1.06046379

$$$$
