
 OpenBabel03252506313D

 32 34  0  0  1  0  0  0  0  0999 V2000
   44.4940   35.7470   45.0090 C   0  0  0  0  0  0  0  0  0  0  0  0
   45.1210   35.6710   43.7540 C   0  0  0  0  0  0  0  0  0  0  0  0
   46.0150   34.6310   43.5110 C   0  0  0  0  0  0  0  0  0  0  0  0
   46.2170   33.7540   44.5190 N   0  0  0  0  0  0  0  0  0  0  0  0
   45.6140   33.8390   45.7030 C   0  0  0  0  0  0  0  0  0  0  0  0
   44.7550   34.8250   45.9600 N   0  0  0  0  0  0  0  0  0  0  0  0
   45.8860   32.8600   46.6890 N   0  0  0  0  0  0  0  0  0  0  0  0
   45.0650   32.5930   47.8620 C   0  0  0  0  0  0  0  0  0  0  0  0
   46.1280   32.2430   48.8840 C   0  0  0  0  0  0  0  0  0  0  0  0
   47.4200   32.0370   48.1500 C   0  0  0  0  0  0  0  0  0  0  0  0
   47.0170   31.9390   46.7290 C   0  0  1  0  0  0  0  0  0  0  0  0
   43.7970   36.5230   45.2550 H   0  0  0  0  0  0  0  0  0  0  0  0
   46.4590   34.6230   42.5530 H   0  0  0  0  0  0  0  0  0  0  0  0
   44.4730   33.4900   48.1430 H   0  0  0  0  0  0  0  0  0  0  0  0
   44.3400   31.7720   47.7000 H   0  0  0  0  0  0  0  0  0  0  0  0
   45.8350   31.3450   49.4880 H   0  0  0  0  0  0  0  0  0  0  0  0
   46.1950   33.0860   49.6130 H   0  0  0  0  0  0  0  0  0  0  0  0
   47.8840   31.0620   48.4810 H   0  0  0  0  0  0  0  0  0  0  0  0
   48.1600   32.8590   48.3330 H   0  0  0  0  0  0  0  0  0  0  0  0
   47.8030   32.3330   46.0540 H   0  0  0  0  0  0  0  0  0  0  0  0
   46.3730   30.6730   43.9680 O   0  0  0  0  0  0  0  0  0  0  0  0
   47.1180   30.2870   44.9150 C   0  0  0  0  0  0  0  0  0  0  0  0
   46.6360   30.5580   46.2820 C   0  0  1  0  0  0  0  0  0  0  0  0
   47.4870   29.5900   47.1090 C   0  0  0  0  0  0  0  0  0  0  0  0
   47.7250   30.0250   48.0950 H   0  0  0  0  0  0  0  0  0  0  0  0
   48.7970   29.4770   46.3440 C   0  0  0  0  0  0  0  0  0  0  0  0
   49.2980   28.5140   46.4870 H   0  0  0  0  0  0  0  0  0  0  0  0
   48.3890   29.6100   44.9550 N   0  0  0  0  0  0  0  0  0  0  0  0
   48.7670   29.3510   44.0170 H   0  0  0  0  0  0  0  0  0  0  0  0
   44.7460   36.7070   42.8380 N   0  0  0  0  0  0  0  0  0  0  0  0
   43.9340   36.2770   42.3330 H   0  0  0  0  0  0  0  0  0  0  0  0
   45.2770   37.6190   42.8180 H   0  0  0  0  0  0  0  0  0  0  0  0
  1 12  1  0  0  0  0
  1  6  1  0  0  0  0
  2  1  2  0  0  0  0
  3  2  1  0  0  0  0
  3  4  2  0  0  0  0
  4  5  1  0  0  0  0
  5  6  2  0  0  0  0
  5  7  1  0  0  0  0
  7 11  1  0  0  0  0
  7  8  1  0  0  0  0
  8 14  1  0  0  0  0
  8  9  1  0  0  0  0
  9 16  1  0  0  0  0
  9 17  1  0  0  0  0
 10 19  1  0  0  0  0
 10 18  1  0  0  0  0
 10  9  1  0  0  0  0
 11 20  1  6  0  0  0
 11 10  1  0  0  0  0
 13  3  1  0  0  0  0
 15  8  1  0  0  0  0
 21 22  2  0  0  0  0
 22 28  1  0  0  0  0
 23 22  1  6  0  0  0
 23 11  1  0  0  0  0
 23 24  1  0  0  0  0
 24 25  1  0  0  0  0
 26 27  1  0  0  0  0
 26 24  1  0  0  0  0
 28 26  1  0  0  0  0
 29 28  1  0  0  0  0
 30  2  1  0  0  0  0
 31 30  1  0  0  0  0
 32 30  1  0  0  0  0
M  END
>  <minimizedAffinity>
-5.4121213

>  <minimizedRMSD>
0.100519553

$$$$
