
 OpenBabel03252508323D

 32 34  0  0  1  0  0  0  0  0999 V2000
   45.1710   34.4690   42.3130 N   0  0  0  0  0  0  0  0  0  0  0  0
   46.3130   33.9550   41.6440 C   0  0  1  0  0  0  0  0  0  0  0  0
   46.1900   33.9100   40.1520 C   0  0  0  0  0  0  0  0  0  0  0  0
   44.9310   33.5910   39.6310 N   0  0  0  0  0  0  0  0  0  0  0  0
   43.8230   34.1440   40.2910 C   0  0  0  0  0  0  0  0  0  0  0  0
   44.1990   35.0450   41.4270 C   0  0  0  0  0  0  0  0  0  0  0  0
   46.4850   32.9180   42.0010 H   0  0  0  0  0  0  0  0  0  0  0  0
   46.4050   34.9680   39.8140 H   0  0  0  0  0  0  0  0  0  0  0  0
   46.9690   33.2360   39.7400 H   0  0  0  0  0  0  0  0  0  0  0  0
   44.9340   33.5180   38.6150 H   0  0  0  0  0  0  0  0  0  0  0  0
   43.1540   33.3410   40.6460 H   0  0  0  0  0  0  0  0  0  0  0  0
   43.2820   34.8070   39.5530 H   0  0  0  0  0  0  0  0  0  0  0  0
   43.2900   35.4510   41.8970 H   0  0  0  0  0  0  0  0  0  0  0  0
   44.6790   35.9350   40.9410 H   0  0  0  0  0  0  0  0  0  0  0  0
   44.5570   35.4990   44.3660 C   0  0  0  0  0  0  0  0  0  0  0  0
   45.1010   34.3800   43.7120 C   0  0  0  0  0  0  0  0  0  0  0  0
   45.5330   33.3160   44.4840 C   0  0  0  0  0  0  0  0  0  0  0  0
   45.4370   33.3510   45.8430 N   0  0  0  0  0  0  0  0  0  0  0  0
   44.9040   34.4530   46.4580 C   0  0  0  0  0  0  0  0  0  0  0  0
   44.4750   35.4990   45.7290 N   0  0  0  0  0  0  0  0  0  0  0  0
   44.1690   36.4170   43.9560 H   0  0  0  0  0  0  0  0  0  0  0  0
   45.9400   32.4450   43.9920 H   0  0  0  0  0  0  0  0  0  0  0  0
   44.8270   34.4810   47.5350 H   0  0  0  0  0  0  0  0  0  0  0  0
   48.5790   35.2790   39.4960 O   0  0  0  0  0  0  0  0  0  0  0  0
   48.3650   35.0980   40.7370 C   0  0  0  0  0  0  0  0  0  0  0  0
   47.5850   34.7020   41.9320 C   0  0  2  0  0  3  0  0  0  0  0  0
   48.6100   33.8590   42.6550 C   0  0  0  0  0  3  0  0  0  0  0  0
   49.0010   33.0360   42.0530 H   0  0  0  0  0  0  0  0  0  0  0  0
   49.7470   34.8930   42.7260 C   0  0  0  0  0  3  0  0  0  0  0  0
   49.5920   35.6060   43.5450 H   0  0  0  0  0  0  0  0  0  0  0  0
   49.5840   35.5170   41.4010 N   0  0  0  0  0  0  0  0  0  0  0  0
   50.4340   36.1490   41.2510 H   0  0  0  0  0  0  0  0  0  0  0  0
  1 16  1  0  0  0  0
  2 26  1  0  0  0  0
  2  7  1  1  0  0  0
  2  1  1  0  0  0  0
  3  2  1  0  0  0  0
  4  3  1  0  0  0  0
  4  5  1  0  0  0  0
  5 11  1  0  0  0  0
  5  6  1  0  0  0  0
  6 13  1  0  0  0  0
  6  1  1  0  0  0  0
  8  3  1  0  0  0  0
  9  3  1  0  0  0  0
 10  4  1  0  0  0  0
 12  5  1  0  0  0  0
 14  6  1  0  0  0  0
 15 20  1  0  0  0  0
 16 15  2  0  0  0  0
 16 17  1  0  0  0  0
 17 18  2  0  0  0  0
 18 19  1  0  0  0  0
 19 23  1  0  0  0  0
 20 19  2  0  0  0  0
 21 15  1  0  0  0  0
 22 17  1  0  0  0  0
 24 25  2  0  0  0  0
 25 31  1  0  0  0  0
 26 25  1  6  0  0  0
 26 27  1  0  0  0  0
 27 29  1  0  0  0  0
 28 27  1  0  0  0  0
 29 30  1  0  0  0  0
 31 29  1  0  0  0  0
 32 31  1  0  0  0  0
M  END
>  <minimizedAffinity>
-4.95397425

>  <minimizedRMSD>
2.28675747

$$$$
