
 OpenBabel03242523203D

 37 40  0  0  1  0  0  0  0  0999 V2000
   44.5430   31.7970   42.8960 Cl  0  0  0  0  0  0  0  0  0  0  0  0
   44.5780   33.5530   42.8000 C   0  0  0  0  0  0  0  0  0  0  0  0
   45.4530   34.1910   43.7040 C   0  0  0  0  0  0  0  0  0  0  0  0
   45.4150   35.5650   43.5310 C   0  0  0  0  0  0  0  0  0  0  0  0
   44.7000   36.3040   42.6700 C   0  0  0  0  0  0  0  0  0  0  0  0
   43.8810   35.6090   41.8340 C   0  0  0  0  0  0  0  0  0  0  0  0
   43.8010   34.2520   41.8770 C   0  0  0  0  0  0  0  0  0  0  0  0
   46.0220   36.2220   44.1900 H   0  0  0  0  0  0  0  0  0  0  0  0
   44.7120   37.3790   42.5760 H   0  0  0  0  0  0  0  0  0  0  0  0
   43.2270   36.0290   41.0700 H   0  0  0  0  0  0  0  0  0  0  0  0
   44.3890   33.3690   39.0110 O   0  0  0  0  0  0  0  0  0  0  0  0
   43.2650   33.6460   39.5550 C   0  0  0  0  0  0  0  0  0  0  0  0
   42.9350   33.4060   41.0080 C   0  0  2  0  0  3  0  0  0  0  0  0
   41.4960   33.7200   41.0490 C   0  0  0  0  0  3  0  0  0  0  0  0
   41.2360   34.7460   41.3730 H   0  0  0  0  0  0  0  0  0  0  0  0
   40.9690   33.6440   39.6240 C   0  0  0  0  0  3  0  0  0  0  0  0
   40.8790   32.5620   39.3290 H   0  0  0  0  0  0  0  0  0  0  0  0
   42.1130   34.2290   38.9110 N   0  0  0  0  0  0  0  0  0  0  0  0
   42.1760   34.9090   38.1190 H   0  0  0  0  0  0  0  0  0  0  0  0
   46.3230   33.5290   44.7100 C   0  0  0  0  0  0  0  0  0  0  0  0
   45.7430   33.8990   45.7010 O   0  0  0  0  0  0  0  0  0  0  0  0
   47.3890   32.8000   44.0090 C   0  0  0  0  0  0  0  0  0  0  0  0
   48.2440   33.3100   43.1120 C   0  0  0  0  0  0  0  0  0  0  0  0
   49.0790   32.3780   42.5290 C   0  0  0  0  0  0  0  0  0  0  0  0
   48.9680   31.0340   42.9180 N   0  0  0  0  0  0  0  0  0  0  0  0
   48.1070   30.6110   43.8090 C   0  0  0  0  0  0  0  0  0  0  0  0
   47.2510   31.5090   44.4130 N   0  0  0  0  0  0  0  0  0  0  0  0
   49.8300   32.6180   41.7790 H   0  0  0  0  0  0  0  0  0  0  0  0
   48.1430   29.5440   44.0050 H   0  0  0  0  0  0  0  0  0  0  0  0
   48.4360   34.6820   42.8070 C   0  0  0  0  0  0  0  0  0  0  0  0
   49.4690   35.2680   42.1430 C   0  0  0  0  0  0  0  0  0  0  0  0
   48.2430   35.1060   41.2860 C   0  0  0  0  0  0  0  0  0  0  0  0
   47.9730   35.3760   43.5340 H   0  0  0  0  0  0  0  0  0  0  0  0
   50.3350   34.6380   41.7770 H   0  0  0  0  0  0  0  0  0  0  0  0
   49.8130   36.3260   42.1540 H   0  0  0  0  0  0  0  0  0  0  0  0
   47.5380   35.9380   41.1610 H   0  0  0  0  0  0  0  0  0  0  0  0
   48.1810   34.2280   40.6050 H   0  0  0  0  0  0  0  0  0  0  0  0
  2  1  1  0  0  0  0
  2  3  1  0  0  0  0
  3 20  1  0  0  0  0
  4  3  2  0  0  0  0
  4  8  1  0  0  0  0
  5  4  1  0  0  0  0
  6  7  1  0  0  0  0
  6  5  2  0  0  0  0
  7  2  2  0  0  0  0
  9  5  1  0  0  0  0
 10  6  1  0  0  0  0
 11 12  2  0  0  0  0
 12 13  1  0  0  0  0
 13 14  1  0  0  0  0
 13  7  1  1  0  0  0
 14 15  1  0  0  0  0
 16 14  1  0  0  0  0
 17 16  1  0  0  0  0
 18 12  1  0  0  0  0
 18 16  1  0  0  0  0
 19 18  1  0  0  0  0
 20 21  2  0  0  0  0
 22 27  1  0  0  0  0
 22 20  1  0  0  0  0
 23 22  2  0  0  0  0
 24 25  2  0  0  0  0
 24 23  1  0  0  0  0
 25 26  1  0  0  0  0
 26 29  1  0  0  0  0
 26 27  2  0  0  0  0
 28 24  1  0  0  0  0
 30 23  1  0  0  0  0
 30 33  1  0  0  0  0
 31 35  1  0  0  0  0
 31 30  1  0  0  0  0
 32 31  1  0  0  0  0
 32 30  1  0  0  0  0
 34 31  1  0  0  0  0
 36 32  1  0  0  0  0
 37 32  1  0  0  0  0
M  END
>  <minimizedAffinity>
-5.70341682

>  <minimizedRMSD>
0.732187688

$$$$
