
 OpenBabel03242523213D

 37 40  0  0  1  0  0  0  0  0999 V2000
   35.9690   28.2440   39.4000 Cl  0  0  0  0  0  0  0  0  0  0  0  0
   36.6940   29.7260   38.7900 C   0  0  0  0  0  0  0  0  0  0  0  0
   37.1120   30.6450   39.7750 C   0  0  0  0  0  0  0  0  0  0  0  0
   37.6820   31.7630   39.1870 C   0  0  0  0  0  0  0  0  0  0  0  0
   37.8720   32.0510   37.8920 C   0  0  0  0  0  0  0  0  0  0  0  0
   37.4400   31.1100   37.0080 C   0  0  0  0  0  0  0  0  0  0  0  0
   36.8540   29.9550   37.4240 C   0  0  0  0  0  0  0  0  0  0  0  0
   38.0340   32.6040   39.8230 H   0  0  0  0  0  0  0  0  0  0  0  0
   38.3270   32.9410   37.4870 H   0  0  0  0  0  0  0  0  0  0  0  0
   37.5060   31.1620   35.9220 H   0  0  0  0  0  0  0  0  0  0  0  0
   38.5220   27.8190   36.0110 O   0  0  0  0  0  0  0  0  0  0  0  0
   37.4490   28.3940   35.6200 C   0  0  0  0  0  0  0  0  0  0  0  0
   36.3490   28.8690   36.5360 C   0  0  2  0  0  3  0  0  0  0  0  0
   35.3040   29.2700   35.5770 C   0  0  0  0  0  3  0  0  0  0  0  0
   35.2740   30.3460   35.3200 H   0  0  0  0  0  0  0  0  0  0  0  0
   35.6130   28.5890   34.2530 C   0  0  0  0  0  3  0  0  0  0  0  0
   35.3350   27.5020   34.3320 H   0  0  0  0  0  0  0  0  0  0  0  0
   37.0780   28.6990   34.2580 N   0  0  0  0  0  0  0  0  0  0  0  0
   37.7700   28.9350   33.5100 H   0  0  0  0  0  0  0  0  0  0  0  0
   36.9920   30.4810   41.2460 C   0  0  0  0  0  0  0  0  0  0  0  0
   35.8760   30.9240   41.3720 O   0  0  0  0  0  0  0  0  0  0  0  0
   38.2360   29.8940   41.7620 C   0  0  0  0  0  0  0  0  0  0  0  0
   38.3950   28.6450   42.2220 C   0  0  0  0  0  0  0  0  0  0  0  0
   39.6460   28.3870   42.7450 C   0  0  0  0  0  0  0  0  0  0  0  0
   40.6050   29.4130   42.7420 N   0  0  0  0  0  0  0  0  0  0  0  0
   40.3750   30.6120   42.2690 C   0  0  0  0  0  0  0  0  0  0  0  0
   39.1360   30.9130   41.7400 N   0  0  0  0  0  0  0  0  0  0  0  0
   39.9460   27.4290   43.1630 H   0  0  0  0  0  0  0  0  0  0  0  0
   41.2150   31.2960   42.3360 H   0  0  0  0  0  0  0  0  0  0  0  0
   37.4680   27.5770   42.1160 C   0  0  0  0  0  0  0  0  0  0  0  0
   37.4740   26.3800   42.7630 C   0  0  0  0  0  0  0  0  0  0  0  0
   36.4930   27.3570   43.3530 C   0  0  0  0  0  0  0  0  0  0  0  0
   36.9720   27.5050   41.1290 H   0  0  0  0  0  0  0  0  0  0  0  0
   38.3130   26.1280   43.4770 H   0  0  0  0  0  0  0  0  0  0  0  0
   36.9720   25.4240   42.4930 H   0  0  0  0  0  0  0  0  0  0  0  0
   35.4350   27.3260   43.0640 H   0  0  0  0  0  0  0  0  0  0  0  0
   36.8000   27.9460   44.2460 H   0  0  0  0  0  0  0  0  0  0  0  0
  2  1  1  0  0  0  0
  2  3  1  0  0  0  0
  3 20  1  0  0  0  0
  4  3  2  0  0  0  0
  4  8  1  0  0  0  0
  5  4  1  0  0  0  0
  6  7  1  0  0  0  0
  6  5  2  0  0  0  0
  7  2  2  0  0  0  0
  9  5  1  0  0  0  0
 10  6  1  0  0  0  0
 12 11  2  0  0  0  0
 12 13  1  0  0  0  0
 13  7  1  6  0  0  0
 14 13  1  0  0  0  0
 15 14  1  0  0  0  0
 16 18  1  0  0  0  0
 16 17  1  0  0  0  0
 16 14  1  0  0  0  0
 18 12  1  0  0  0  0
 19 18  1  0  0  0  0
 20 21  2  0  0  0  0
 20 22  1  0  0  0  0
 22 23  1  0  0  0  0
 23 24  2  0  0  0  0
 24 28  1  0  0  0  0
 25 24  1  0  0  0  0
 26 29  1  0  0  0  0
 26 25  2  0  0  0  0
 27 22  2  0  0  0  0
 27 26  1  0  0  0  0
 30 23  1  0  0  0  0
 30 31  1  0  0  0  0
 30 32  1  0  0  0  0
 31 32  1  0  0  0  0
 31 34  1  0  0  0  0
 32 37  1  0  0  0  0
 33 30  1  0  0  0  0
 35 31  1  0  0  0  0
 36 32  1  0  0  0  0
M  END
>  <minimizedAffinity>
-6.03403807

$$$$

 OpenBabel03242523213D

 37 40  0  0  1  0  0  0  0  0999 V2000
   37.3580   27.0210   39.4910 Cl  0  0  0  0  0  0  0  0  0  0  0  0
   37.5050   27.7210   41.0990 C   0  0  0  0  0  0  0  0  0  0  0  0
   36.7290   28.8760   41.3280 C   0  0  0  0  0  0  0  0  0  0  0  0
   36.9060   29.3320   42.6250 C   0  0  0  0  0  0  0  0  0  0  0  0
   37.6680   28.8400   43.6120 C   0  0  0  0  0  0  0  0  0  0  0  0
   38.3840   27.7240   43.3060 C   0  0  0  0  0  0  0  0  0  0  0  0
   38.3240   27.1520   42.0730 C   0  0  0  0  0  0  0  0  0  0  0  0
   36.3910   30.2570   42.9610 H   0  0  0  0  0  0  0  0  0  0  0  0
   37.7660   29.2360   44.6110 H   0  0  0  0  0  0  0  0  0  0  0  0
   39.0560   27.1820   43.9710 H   0  0  0  0  0  0  0  0  0  0  0  0
   37.3030   24.2720   42.1040 O   0  0  0  0  0  0  0  0  0  0  0  0
   38.4870   24.7100   42.3030 C   0  0  0  0  0  0  0  0  0  0  0  0
   39.0690   25.9350   41.6430 C   0  0  2  0  0  3  0  0  0  0  0  0
   40.4780   25.8710   42.0710 C   0  0  0  0  0  3  0  0  0  0  0  0
   40.7400   26.4780   42.9590 H   0  0  0  0  0  0  0  0  0  0  0  0
   40.7590   24.4430   42.5110 C   0  0  0  0  0  3  0  0  0  0  0  0
   40.8500   23.7940   41.5960 H   0  0  0  0  0  0  0  0  0  0  0  0
   39.4850   24.1380   43.1760 N   0  0  0  0  0  0  0  0  0  0  0  0
   39.2560   23.6360   44.0640 H   0  0  0  0  0  0  0  0  0  0  0  0
   35.8250   29.5420   40.3560 C   0  0  0  0  0  0  0  0  0  0  0  0
   34.8360   28.8840   40.5690 O   0  0  0  0  0  0  0  0  0  0  0  0
   36.5680   30.6080   39.6700 C   0  0  0  0  0  0  0  0  0  0  0  0
   36.9260   30.6240   38.3790 C   0  0  0  0  0  0  0  0  0  0  0  0
   37.7110   31.7020   38.0200 C   0  0  0  0  0  0  0  0  0  0  0  0
   38.0460   32.6500   38.9990 N   0  0  0  0  0  0  0  0  0  0  0  0
   37.6530   32.5680   40.2460 C   0  0  0  0  0  0  0  0  0  0  0  0
   36.8690   31.5050   40.6470 N   0  0  0  0  0  0  0  0  0  0  0  0
   38.0920   31.8690   37.0150 H   0  0  0  0  0  0  0  0  0  0  0  0
   37.9910   33.3790   40.8830 H   0  0  0  0  0  0  0  0  0  0  0  0
   36.4910   29.7320   37.3670 C   0  0  0  0  0  0  0  0  0  0  0  0
   36.6040   29.8580   36.0160 C   0  0  0  0  0  0  0  0  0  0  0  0
   37.6230   28.9170   36.6010 C   0  0  0  0  0  0  0  0  0  0  0  0
   35.6070   29.1260   37.6470 H   0  0  0  0  0  0  0  0  0  0  0  0
   37.0780   30.7840   35.5740 H   0  0  0  0  0  0  0  0  0  0  0  0
   36.0240   29.3650   35.2050 H   0  0  0  0  0  0  0  0  0  0  0  0
   37.4450   27.8350   36.6010 H   0  0  0  0  0  0  0  0  0  0  0  0
   38.6430   29.3050   36.8170 H   0  0  0  0  0  0  0  0  0  0  0  0
  1  2  1  0  0  0  0
  2  3  2  0  0  0  0
  2  7  1  0  0  0  0
  3  4  1  0  0  0  0
  4  8  1  0  0  0  0
  4  5  2  0  0  0  0
  5  9  1  0  0  0  0
  6  5  1  0  0  0  0
  6 10  1  0  0  0  0
  7  6  2  0  0  0  0
 11 12  2  0  0  0  0
 12 18  1  0  0  0  0
 13 14  1  0  0  0  0
 13  7  1  1  0  0  0
 13 12  1  0  0  0  0
 14 16  1  0  0  0  0
 14 15  1  0  0  0  0
 16 18  1  0  0  0  0
 17 16  1  0  0  0  0
 18 19  1  0  0  0  0
 20 21  2  0  0  0  0
 20  3  1  0  0  0  0
 22 20  1  0  0  0  0
 22 27  1  0  0  0  0
 23 22  2  0  0  0  0
 24 23  1  0  0  0  0
 24 25  2  0  0  0  0
 25 26  1  0  0  0  0
 26 27  2  0  0  0  0
 26 29  1  0  0  0  0
 28 24  1  0  0  0  0
 30 33  1  0  0  0  0
 30 23  1  0  0  0  0
 31 32  1  0  0  0  0
 31 30  1  0  0  0  0
 32 37  1  0  0  0  0
 32 30  1  0  0  0  0
 34 31  1  0  0  0  0
 35 31  1  0  0  0  0
 36 32  1  0  0  0  0
M  END
>  <minimizedAffinity>
-5.75722885

$$$$

 OpenBabel03242523213D

 37 40  0  0  1  0  0  0  0  0999 V2000
   36.9770   27.3950   38.6850 Cl  0  0  0  0  0  0  0  0  0  0  0  0
   36.9230   27.1520   40.4270 C   0  0  0  0  0  0  0  0  0  0  0  0
   36.5650   28.2870   41.1850 C   0  0  0  0  0  0  0  0  0  0  0  0
   36.5370   27.9800   42.5360 C   0  0  0  0  0  0  0  0  0  0  0  0
   36.7880   26.8210   43.1600 C   0  0  0  0  0  0  0  0  0  0  0  0
   37.1250   25.7770   42.3540 C   0  0  0  0  0  0  0  0  0  0  0  0
   37.2010   25.9130   41.0030 C   0  0  0  0  0  0  0  0  0  0  0  0
   36.3060   28.7750   43.2780 H   0  0  0  0  0  0  0  0  0  0  0  0
   36.7470   26.6370   44.2220 H   0  0  0  0  0  0  0  0  0  0  0  0
   37.3630   24.7630   42.6730 H   0  0  0  0  0  0  0  0  0  0  0  0
   35.4790   23.5180   40.2040 O   0  0  0  0  0  0  0  0  0  0  0  0
   36.7500   23.5950   40.3210 C   0  0  0  0  0  0  0  0  0  0  0  0
   37.5630   24.8340   40.0410 C   0  0  2  0  0  3  0  0  0  0  0  0
   38.9420   24.3250   40.1480 C   0  0  0  0  0  3  0  0  0  0  0  0
   39.4350   24.4740   41.1280 H   0  0  0  0  0  0  0  0  0  0  0  0
   38.8850   22.8140   39.9950 C   0  0  0  0  0  3  0  0  0  0  0  0
   38.7180   22.5660   38.9110 H   0  0  0  0  0  0  0  0  0  0  0  0
   37.6450   22.5400   40.7340 N   0  0  0  0  0  0  0  0  0  0  0  0
   37.3810   21.7910   41.4150 H   0  0  0  0  0  0  0  0  0  0  0  0
   36.2440   29.6380   40.6580 C   0  0  0  0  0  0  0  0  0  0  0  0
   35.0520   29.4890   40.5350 O   0  0  0  0  0  0  0  0  0  0  0  0
   37.4850   30.4180   40.5620 C   0  0  0  0  0  0  0  0  0  0  0  0
   37.9330   31.0700   39.4800 C   0  0  0  0  0  0  0  0  0  0  0  0
   39.1830   31.6360   39.6350 C   0  0  0  0  0  0  0  0  0  0  0  0
   39.8440   31.4890   40.8650 N   0  0  0  0  0  0  0  0  0  0  0  0
   39.3370   30.8380   41.8820 C   0  0  0  0  0  0  0  0  0  0  0  0
   38.0920   30.2540   41.7680 N   0  0  0  0  0  0  0  0  0  0  0  0
   39.6980   32.1970   38.8590 H   0  0  0  0  0  0  0  0  0  0  0  0
   39.9670   30.8130   42.7650 H   0  0  0  0  0  0  0  0  0  0  0  0
   37.2170   31.3190   38.2820 C   0  0  0  0  0  0  0  0  0  0  0  0
   37.6940   31.7410   37.0790 C   0  0  0  0  0  0  0  0  0  0  0  0
   37.4080   30.2640   37.1070 C   0  0  0  0  0  0  0  0  0  0  0  0
   36.1690   31.6370   38.4400 H   0  0  0  0  0  0  0  0  0  0  0  0
   38.7960   31.9640   36.9550 H   0  0  0  0  0  0  0  0  0  0  0  0
   37.1600   32.2350   36.2370 H   0  0  0  0  0  0  0  0  0  0  0  0
   36.4570   29.8730   36.7240 H   0  0  0  0  0  0  0  0  0  0  0  0
   38.2510   29.5620   37.2990 H   0  0  0  0  0  0  0  0  0  0  0  0
  1  2  1  0  0  0  0
  2  7  2  0  0  0  0
  2  3  1  0  0  0  0
  3  4  2  0  0  0  0
  4  5  1  0  0  0  0
  4  8  1  0  0  0  0
  5  9  1  0  0  0  0
  6 10  1  0  0  0  0
  6  5  2  0  0  0  0
  7  6  1  0  0  0  0
 11 12  2  0  0  0  0
 12 18  1  0  0  0  0
 13 14  1  0  0  0  0
 13 12  1  0  0  0  0
 13  7  1  1  0  0  0
 14 15  1  0  0  0  0
 16 14  1  0  0  0  0
 16 18  1  0  0  0  0
 17 16  1  0  0  0  0
 18 19  1  0  0  0  0
 20  3  1  0  0  0  0
 21 20  2  0  0  0  0
 22 20  1  0  0  0  0
 22 27  1  0  0  0  0
 23 24  1  0  0  0  0
 23 22  2  0  0  0  0
 24 25  2  0  0  0  0
 25 26  1  0  0  0  0
 26 29  1  0  0  0  0
 27 26  2  0  0  0  0
 28 24  1  0  0  0  0
 30 33  1  0  0  0  0
 30 23  1  0  0  0  0
 31 32  1  0  0  0  0
 31 30  1  0  0  0  0
 32 37  1  0  0  0  0
 32 30  1  0  0  0  0
 34 31  1  0  0  0  0
 35 31  1  0  0  0  0
 36 32  1  0  0  0  0
M  END
>  <minimizedAffinity>
-5.69083834

$$$$

 OpenBabel03242523213D

 37 40  0  0  1  0  0  0  0  0999 V2000
   36.7930   27.9780   40.3820 Cl  0  0  0  0  0  0  0  0  0  0  0  0
   37.8780   29.1900   41.0530 C   0  0  0  0  0  0  0  0  0  0  0  0
   38.3740   28.9090   42.3430 C   0  0  0  0  0  0  0  0  0  0  0  0
   39.2280   29.9160   42.7660 C   0  0  0  0  0  0  0  0  0  0  0  0
   39.6110   31.0370   42.1400 C   0  0  0  0  0  0  0  0  0  0  0  0
   39.0860   31.2300   40.8990 C   0  0  0  0  0  0  0  0  0  0  0  0
   38.2280   30.3360   40.3400 C   0  0  0  0  0  0  0  0  0  0  0  0
   39.6810   29.8670   43.7800 H   0  0  0  0  0  0  0  0  0  0  0  0
   40.2860   31.7900   42.5170 H   0  0  0  0  0  0  0  0  0  0  0  0
   39.2760   32.0760   40.2390 H   0  0  0  0  0  0  0  0  0  0  0  0
   38.9590   28.7590   37.8260 O   0  0  0  0  0  0  0  0  0  0  0  0
   38.5500   29.9660   37.9310 C   0  0  0  0  0  0  0  0  0  0  0  0
   37.6010   30.4600   38.9930 C   0  0  2  0  0  3  0  0  0  0  0  0
   37.3300   31.8370   38.5440 C   0  0  0  0  0  3  0  0  0  0  0  0
   37.9440   32.6270   39.0180 H   0  0  0  0  0  0  0  0  0  0  0  0
   37.7030   31.9210   37.0730 C   0  0  0  0  0  3  0  0  0  0  0  0
   36.9060   31.4070   36.4680 H   0  0  0  0  0  0  0  0  0  0  0  0
   38.9050   31.0750   37.0770 N   0  0  0  0  0  0  0  0  0  0  0  0
   39.8350   31.1710   36.6100 H   0  0  0  0  0  0  0  0  0  0  0  0
   38.0660   27.7140   43.1690 C   0  0  0  0  0  0  0  0  0  0  0  0
   37.0460   28.1180   43.6730 O   0  0  0  0  0  0  0  0  0  0  0  0
   39.1130   26.7060   42.9550 C   0  0  0  0  0  0  0  0  0  0  0  0
   38.9870   25.5590   42.2730 C   0  0  0  0  0  0  0  0  0  0  0  0
   40.1010   24.7450   42.3170 C   0  0  0  0  0  0  0  0  0  0  0  0
   41.2250   25.1770   43.0380 N   0  0  0  0  0  0  0  0  0  0  0  0
   41.2760   26.3180   43.6800 C   0  0  0  0  0  0  0  0  0  0  0  0
   40.1820   27.1600   43.6630 N   0  0  0  0  0  0  0  0  0  0  0  0
   40.1690   23.7790   41.8230 H   0  0  0  0  0  0  0  0  0  0  0  0
   42.2140   26.5130   44.1890 H   0  0  0  0  0  0  0  0  0  0  0  0
   37.8980   25.1790   41.4490 C   0  0  0  0  0  0  0  0  0  0  0  0
   37.5250   23.9300   41.0560 C   0  0  0  0  0  0  0  0  0  0  0  0
   36.6720   24.4690   42.1720 C   0  0  0  0  0  0  0  0  0  0  0  0
   37.6040   25.9440   40.7050 H   0  0  0  0  0  0  0  0  0  0  0  0
   38.1340   23.0320   41.3760 H   0  0  0  0  0  0  0  0  0  0  0  0
   36.9000   23.6130   40.1920 H   0  0  0  0  0  0  0  0  0  0  0  0
   35.7100   24.9500   41.9550 H   0  0  0  0  0  0  0  0  0  0  0  0
   36.9110   24.1700   43.2170 H   0  0  0  0  0  0  0  0  0  0  0  0
  1  2  1  0  0  0  0
  2  3  1  0  0  0  0
  3  4  2  0  0  0  0
  3 20  1  0  0  0  0
  4  8  1  0  0  0  0
  5  9  1  0  0  0  0
  5  4  1  0  0  0  0
  6  5  2  0  0  0  0
  7  6  1  0  0  0  0
  7  2  2  0  0  0  0
 10  6  1  0  0  0  0
 11 12  2  0  0  0  0
 12 13  1  0  0  0  0
 13  7  1  1  0  0  0
 14 13  1  0  0  0  0
 14 15  1  0  0  0  0
 16 18  1  0  0  0  0
 16 14  1  0  0  0  0
 17 16  1  0  0  0  0
 18 12  1  0  0  0  0
 19 18  1  0  0  0  0
 20 21  2  0  0  0  0
 22 20  1  0  0  0  0
 22 27  1  0  0  0  0
 23 24  1  0  0  0  0
 23 22  2  0  0  0  0
 24 25  2  0  0  0  0
 25 26  1  0  0  0  0
 26 29  1  0  0  0  0
 27 26  2  0  0  0  0
 28 24  1  0  0  0  0
 30 32  1  0  0  0  0
 30 23  1  0  0  0  0
 31 34  1  0  0  0  0
 31 30  1  0  0  0  0
 31 32  1  0  0  0  0
 32 37  1  0  0  0  0
 33 30  1  0  0  0  0
 35 31  1  0  0  0  0
 36 32  1  0  0  0  0
M  END
>  <minimizedAffinity>
-5.67229509

$$$$

 OpenBabel03242523213D

 37 40  0  0  1  0  0  0  0  0999 V2000
   37.2920   27.4870   40.5180 Cl  0  0  0  0  0  0  0  0  0  0  0  0
   38.3880   26.8320   41.7290 C   0  0  0  0  0  0  0  0  0  0  0  0
   38.7270   27.7130   42.7780 C   0  0  0  0  0  0  0  0  0  0  0  0
   39.5760   27.0910   43.6800 C   0  0  0  0  0  0  0  0  0  0  0  0
   40.0740   25.8470   43.6750 C   0  0  0  0  0  0  0  0  0  0  0  0
   39.6970   25.0640   42.6270 C   0  0  0  0  0  0  0  0  0  0  0  0
   38.8680   25.5250   41.6530 C   0  0  0  0  0  0  0  0  0  0  0  0
   39.9680   27.6590   44.5510 H   0  0  0  0  0  0  0  0  0  0  0  0
   40.7340   25.4120   44.4090 H   0  0  0  0  0  0  0  0  0  0  0  0
   39.9960   24.0310   42.4490 H   0  0  0  0  0  0  0  0  0  0  0  0
   36.2230   24.0190   41.3770 O   0  0  0  0  0  0  0  0  0  0  0  0
   37.3700   23.7310   40.8910 C   0  0  0  0  0  0  0  0  0  0  0  0
   38.4020   24.7470   40.4700 C   0  0  2  0  0  3  0  0  0  0  0  0
   39.4210   23.8980   39.8270 C   0  0  0  0  0  3  0  0  0  0  0  0
   40.2750   23.6030   40.4680 H   0  0  0  0  0  0  0  0  0  0  0  0
   38.7590   22.5770   39.4710 C   0  0  0  0  0  3  0  0  0  0  0  0
   38.1040   22.7330   38.5700 H   0  0  0  0  0  0  0  0  0  0  0  0
   37.9000   22.4090   40.6510 N   0  0  0  0  0  0  0  0  0  0  0  0
   37.6670   21.5770   41.2410 H   0  0  0  0  0  0  0  0  0  0  0  0
   38.2570   29.1120   42.9450 C   0  0  0  0  0  0  0  0  0  0  0  0
   37.3260   28.8880   43.6800 O   0  0  0  0  0  0  0  0  0  0  0  0
   39.1280   30.0010   42.1640 C   0  0  0  0  0  0  0  0  0  0  0  0
   38.7460   30.8260   41.1810 C   0  0  0  0  0  0  0  0  0  0  0  0
   39.7870   31.4720   40.5430 C   0  0  0  0  0  0  0  0  0  0  0  0
   41.1000   31.2210   40.9700 N   0  0  0  0  0  0  0  0  0  0  0  0
   41.3960   30.3990   41.9460 C   0  0  0  0  0  0  0  0  0  0  0  0
   40.3850   29.7320   42.6080 N   0  0  0  0  0  0  0  0  0  0  0  0
   39.6570   32.1730   39.7220 H   0  0  0  0  0  0  0  0  0  0  0  0
   42.4560   30.3120   42.1610 H   0  0  0  0  0  0  0  0  0  0  0  0
   37.4150   31.1690   40.8300 C   0  0  0  0  0  0  0  0  0  0  0  0
   36.9850   32.1370   39.9760 C   0  0  0  0  0  0  0  0  0  0  0  0
   36.9370   30.7610   39.3680 C   0  0  0  0  0  0  0  0  0  0  0  0
   36.6710   30.9660   41.6240 H   0  0  0  0  0  0  0  0  0  0  0  0
   37.7340   32.8090   39.4600 H   0  0  0  0  0  0  0  0  0  0  0  0
   35.9930   32.6370   39.9100 H   0  0  0  0  0  0  0  0  0  0  0  0
   36.0040   30.1840   39.3690 H   0  0  0  0  0  0  0  0  0  0  0  0
   37.7820   30.4360   38.7210 H   0  0  0  0  0  0  0  0  0  0  0  0
  1  2  1  0  0  0  0
  2  3  1  0  0  0  0
  3 20  1  0  0  0  0
  3  4  2  0  0  0  0
  4  8  1  0  0  0  0
  5  4  1  0  0  0  0
  5  9  1  0  0  0  0
  6  5  2  0  0  0  0
  7  2  2  0  0  0  0
  7  6  1  0  0  0  0
 10  6  1  0  0  0  0
 12 11  2  0  0  0  0
 13 12  1  0  0  0  0
 13  7  1  1  0  0  0
 14 15  1  0  0  0  0
 14 13  1  0  0  0  0
 16 14  1  0  0  0  0
 16 18  1  0  0  0  0
 17 16  1  0  0  0  0
 18 12  1  0  0  0  0
 18 19  1  0  0  0  0
 20 21  2  0  0  0  0
 22 27  1  0  0  0  0
 22 20  1  0  0  0  0
 23 22  2  0  0  0  0
 24 25  2  0  0  0  0
 24 23  1  0  0  0  0
 25 26  1  0  0  0  0
 26 29  1  0  0  0  0
 26 27  2  0  0  0  0
 28 24  1  0  0  0  0
 30 23  1  0  0  0  0
 30 33  1  0  0  0  0
 31 30  1  0  0  0  0
 32 36  1  0  0  0  0
 32 31  1  0  0  0  0
 32 30  1  0  0  0  0
 34 31  1  0  0  0  0
 35 31  1  0  0  0  0
 37 32  1  0  0  0  0
M  END
>  <minimizedAffinity>
-5.60738945

$$$$

 OpenBabel03242523213D

 37 40  0  0  1  0  0  0  0  0999 V2000
   35.7130   28.1950   39.3340 Cl  0  0  0  0  0  0  0  0  0  0  0  0
   36.6610   29.5930   38.8420 C   0  0  0  0  0  0  0  0  0  0  0  0
   37.1250   30.4100   39.8950 C   0  0  0  0  0  0  0  0  0  0  0  0
   37.8710   31.4670   39.3980 C   0  0  0  0  0  0  0  0  0  0  0  0
   38.1830   31.7790   38.1320 C   0  0  0  0  0  0  0  0  0  0  0  0
   37.6960   30.9380   37.1790 C   0  0  0  0  0  0  0  0  0  0  0  0
   36.9410   29.8530   37.5010 C   0  0  0  0  0  0  0  0  0  0  0  0
   38.2830   32.2290   40.0940 H   0  0  0  0  0  0  0  0  0  0  0  0
   38.7740   32.6180   37.8000 H   0  0  0  0  0  0  0  0  0  0  0  0
   37.8410   31.0250   36.1030 H   0  0  0  0  0  0  0  0  0  0  0  0
   38.4460   27.6720   35.9790 O   0  0  0  0  0  0  0  0  0  0  0  0
   37.4390   28.3670   35.6080 C   0  0  0  0  0  0  0  0  0  0  0  0
   36.3640   28.8790   36.5330 C   0  0  2  0  0  3  0  0  0  0  0  0
   35.3830   29.4350   35.5830 C   0  0  0  0  0  3  0  0  0  0  0  0
   35.4550   30.5240   35.4000 H   0  0  0  0  0  0  0  0  0  0  0  0
   35.6630   28.8170   34.2230 C   0  0  0  0  0  3  0  0  0  0  0  0
   35.2870   27.7570   34.2220 H   0  0  0  0  0  0  0  0  0  0  0  0
   37.1310   28.7930   34.2630 N   0  0  0  0  0  0  0  0  0  0  0  0
   37.8600   29.0140   33.5460 H   0  0  0  0  0  0  0  0  0  0  0  0
   36.8850   30.2050   41.3460 C   0  0  0  0  0  0  0  0  0  0  0  0
   35.9330   30.9370   41.4620 O   0  0  0  0  0  0  0  0  0  0  0  0
   37.8850   29.2600   41.8630 C   0  0  0  0  0  0  0  0  0  0  0  0
   39.1410   29.5520   42.2260 C   0  0  0  0  0  0  0  0  0  0  0  0
   39.9010   28.4540   42.5780 C   0  0  0  0  0  0  0  0  0  0  0  0
   39.3100   27.1820   42.5340 N   0  0  0  0  0  0  0  0  0  0  0  0
   38.0690   26.9760   42.1710 C   0  0  0  0  0  0  0  0  0  0  0  0
   37.2760   28.0460   41.8080 N   0  0  0  0  0  0  0  0  0  0  0  0
   40.9400   28.5090   42.8950 H   0  0  0  0  0  0  0  0  0  0  0  0
   37.7560   25.9360   42.1890 H   0  0  0  0  0  0  0  0  0  0  0  0
   39.7000   30.8460   42.3850 C   0  0  0  0  0  0  0  0  0  0  0  0
   40.9590   31.1850   42.7750 C   0  0  0  0  0  0  0  0  0  0  0  0
   40.7580   31.3030   41.2880 C   0  0  0  0  0  0  0  0  0  0  0  0
   38.9640   31.6260   42.6580 H   0  0  0  0  0  0  0  0  0  0  0  0
   41.7040   30.3780   43.0450 H   0  0  0  0  0  0  0  0  0  0  0  0
   41.3370   32.1400   43.2040 H   0  0  0  0  0  0  0  0  0  0  0  0
   40.5120   32.2720   40.8350 H   0  0  0  0  0  0  0  0  0  0  0  0
   41.0860   30.4610   40.6380 H   0  0  0  0  0  0  0  0  0  0  0  0
  2  1  1  0  0  0  0
  2  3  1  0  0  0  0
  3 20  1  0  0  0  0
  4  3  2  0  0  0  0
  4  8  1  0  0  0  0
  5  4  1  0  0  0  0
  6  7  1  0  0  0  0
  6  5  2  0  0  0  0
  7  2  2  0  0  0  0
  9  5  1  0  0  0  0
 10  6  1  0  0  0  0
 12 11  2  0  0  0  0
 12 13  1  0  0  0  0
 13  7  1  1  0  0  0
 14 13  1  0  0  0  0
 15 14  1  0  0  0  0
 16 18  1  0  0  0  0
 16 14  1  0  0  0  0
 17 16  1  0  0  0  0
 18 12  1  0  0  0  0
 19 18  1  0  0  0  0
 20 21  2  0  0  0  0
 20 22  1  0  0  0  0
 22 23  1  0  0  0  0
 23 30  1  0  0  0  0
 23 24  2  0  0  0  0
 24 28  1  0  0  0  0
 25 24  1  0  0  0  0
 26 29  1  0  0  0  0
 26 25  2  0  0  0  0
 27 22  2  0  0  0  0
 27 26  1  0  0  0  0
 30 33  1  0  0  0  0
 30 31  1  0  0  0  0
 31 34  1  0  0  0  0
 31 35  1  0  0  0  0
 32 30  1  0  0  0  0
 32 31  1  0  0  0  0
 36 32  1  0  0  0  0
 37 32  1  0  0  0  0
M  END
>  <minimizedAffinity>
-5.5974555

$$$$

 OpenBabel03242523213D

 37 40  0  0  1  0  0  0  0  0999 V2000
   40.3910   29.1270   41.3240 Cl  0  0  0  0  0  0  0  0  0  0  0  0
   38.9130   30.0020   40.9420 C   0  0  0  0  0  0  0  0  0  0  0  0
   37.7500   29.5380   41.5910 C   0  0  0  0  0  0  0  0  0  0  0  0
   36.6530   30.3060   41.2330 C   0  0  0  0  0  0  0  0  0  0  0  0
   36.5740   31.3600   40.4080 C   0  0  0  0  0  0  0  0  0  0  0  0
   37.7430   31.7430   39.8250 C   0  0  0  0  0  0  0  0  0  0  0  0
   38.9110   31.0900   40.0700 C   0  0  0  0  0  0  0  0  0  0  0  0
   35.6470   30.0520   41.6290 H   0  0  0  0  0  0  0  0  0  0  0  0
   35.6890   31.9270   40.1670 H   0  0  0  0  0  0  0  0  0  0  0  0
   37.8800   32.5710   39.1300 H   0  0  0  0  0  0  0  0  0  0  0  0
   40.2280   33.8470   39.9950 O   0  0  0  0  0  0  0  0  0  0  0  0
   40.2900   32.8990   39.1380 C   0  0  0  0  0  0  0  0  0  0  0  0
   40.2360   31.4310   39.4790 C   0  0  2  0  0  3  0  0  0  0  0  0
   40.5310   30.8050   38.1780 C   0  0  0  0  0  3  0  0  0  0  0  0
   39.6500   30.4880   37.5860 H   0  0  0  0  0  0  0  0  0  0  0  0
   41.1970   31.8560   37.3050 C   0  0  0  0  0  3  0  0  0  0  0  0
   42.2600   31.9910   37.6500 H   0  0  0  0  0  0  0  0  0  0  0  0
   40.4210   33.0360   37.7070 N   0  0  0  0  0  0  0  0  0  0  0  0
   40.0170   33.8330   37.1630 H   0  0  0  0  0  0  0  0  0  0  0  0
   37.6610   28.3990   42.5390 C   0  0  0  0  0  0  0  0  0  0  0  0
   37.6810   29.0340   43.5650 O   0  0  0  0  0  0  0  0  0  0  0  0
   37.5970   27.1460   41.7730 C   0  0  0  0  0  0  0  0  0  0  0  0
   38.3130   26.0370   42.0010 C   0  0  0  0  0  0  0  0  0  0  0  0
   38.1320   25.0410   41.0630 C   0  0  0  0  0  0  0  0  0  0  0  0
   37.2440   25.2670   39.9990 N   0  0  0  0  0  0  0  0  0  0  0  0
   36.5740   26.3810   39.8450 C   0  0  0  0  0  0  0  0  0  0  0  0
   36.7290   27.4040   40.7590 N   0  0  0  0  0  0  0  0  0  0  0  0
   38.6360   24.0770   41.0930 H   0  0  0  0  0  0  0  0  0  0  0  0
   35.9260   26.4060   38.9740 H   0  0  0  0  0  0  0  0  0  0  0  0
   39.1160   25.7640   43.1380 C   0  0  0  0  0  0  0  0  0  0  0  0
   40.0470   24.7860   43.3050 C   0  0  0  0  0  0  0  0  0  0  0  0
   40.6600   26.1310   43.0220 C   0  0  0  0  0  0  0  0  0  0  0  0
   38.6520   26.0540   44.1000 H   0  0  0  0  0  0  0  0  0  0  0  0
   40.2410   24.0420   42.4750 H   0  0  0  0  0  0  0  0  0  0  0  0
   40.4590   24.3490   44.2420 H   0  0  0  0  0  0  0  0  0  0  0  0
   41.0110   26.7670   43.8440 H   0  0  0  0  0  0  0  0  0  0  0  0
   40.9620   26.3690   41.9780 H   0  0  0  0  0  0  0  0  0  0  0  0
  2  1  1  0  0  0  0
  2  3  1  0  0  0  0
  3 20  1  0  0  0  0
  4  3  2  0  0  0  0
  4  8  1  0  0  0  0
  5  4  1  0  0  0  0
  6  7  1  0  0  0  0
  6  5  2  0  0  0  0
  7  2  2  0  0  0  0
  9  5  1  0  0  0  0
 10  6  1  0  0  0  0
 12 13  1  0  0  0  0
 12 11  2  0  0  0  0
 13  7  1  6  0  0  0
 14 13  1  0  0  0  0
 15 14  1  0  0  0  0
 16 17  1  0  0  0  0
 16 18  1  0  0  0  0
 16 14  1  0  0  0  0
 18 12  1  0  0  0  0
 19 18  1  0  0  0  0
 20 21  2  0  0  0  0
 22 23  1  0  0  0  0
 22 20  1  0  0  0  0
 23 30  1  0  0  0  0
 24 28  1  0  0  0  0
 24 23  2  0  0  0  0
 25 24  1  0  0  0  0
 26 25  2  0  0  0  0
 26 27  1  0  0  0  0
 27 22  2  0  0  0  0
 29 26  1  0  0  0  0
 30 31  1  0  0  0  0
 30 33  1  0  0  0  0
 31 35  1  0  0  0  0
 32 30  1  0  0  0  0
 32 31  1  0  0  0  0
 32 36  1  0  0  0  0
 34 31  1  0  0  0  0
 37 32  1  0  0  0  0
M  END
>  <minimizedAffinity>
-5.51816511

$$$$

 OpenBabel03242523213D

 37 40  0  0  1  0  0  0  0  0999 V2000
   38.6580   29.9500   43.0620 Cl  0  0  0  0  0  0  0  0  0  0  0  0
   38.2250   29.5370   41.4070 C   0  0  0  0  0  0  0  0  0  0  0  0
   37.6030   28.2820   41.2400 C   0  0  0  0  0  0  0  0  0  0  0  0
   37.2910   28.0680   39.9070 C   0  0  0  0  0  0  0  0  0  0  0  0
   37.4910   28.8540   38.8400 C   0  0  0  0  0  0  0  0  0  0  0  0
   38.0960   30.0480   39.0910 C   0  0  0  0  0  0  0  0  0  0  0  0
   38.4690   30.4090   40.3470 C   0  0  0  0  0  0  0  0  0  0  0  0
   36.8260   27.1080   39.5950 H   0  0  0  0  0  0  0  0  0  0  0  0
   37.2230   28.6370   37.8170 H   0  0  0  0  0  0  0  0  0  0  0  0
   38.3420   30.8160   38.3580 H   0  0  0  0  0  0  0  0  0  0  0  0
   37.3400   33.2290   40.0170 O   0  0  0  0  0  0  0  0  0  0  0  0
   38.5510   32.8300   39.9280 C   0  0  0  0  0  0  0  0  0  0  0  0
   39.1370   31.6880   40.7200 C   0  0  2  0  0  3  0  0  0  0  0  0
   40.5670   31.7810   40.3760 C   0  0  0  0  0  3  0  0  0  0  0  0
   40.9090   31.1170   39.5580 H   0  0  0  0  0  0  0  0  0  0  0  0
   40.8190   33.1800   39.8380 C   0  0  0  0  0  3  0  0  0  0  0  0
   40.8250   33.9030   40.7000 H   0  0  0  0  0  0  0  0  0  0  0  0
   39.5790   33.3740   39.0730 N   0  0  0  0  0  0  0  0  0  0  0  0
   39.3890   33.7930   38.1340 H   0  0  0  0  0  0  0  0  0  0  0  0
   37.2950   27.2980   42.3080 C   0  0  0  0  0  0  0  0  0  0  0  0
   36.2220   27.7400   42.6380 O   0  0  0  0  0  0  0  0  0  0  0  0
   38.4050   26.3400   42.4060 C   0  0  0  0  0  0  0  0  0  0  0  0
   38.5100   25.1750   41.7530 C   0  0  0  0  0  0  0  0  0  0  0  0
   39.6100   24.4200   42.1100 C   0  0  0  0  0  0  0  0  0  0  0  0
   40.4870   24.9220   43.0830 N   0  0  0  0  0  0  0  0  0  0  0  0
   40.3190   26.0770   43.6780 C   0  0  0  0  0  0  0  0  0  0  0  0
   39.2310   26.8620   43.3510 N   0  0  0  0  0  0  0  0  0  0  0  0
   39.8460   23.4480   41.6820 H   0  0  0  0  0  0  0  0  0  0  0  0
   41.0830   26.3290   44.4070 H   0  0  0  0  0  0  0  0  0  0  0  0
   37.6910   24.7230   40.6870 C   0  0  0  0  0  0  0  0  0  0  0  0
   37.4240   23.4440   40.3050 C   0  0  0  0  0  0  0  0  0  0  0  0
   36.3000   24.0650   41.0890 C   0  0  0  0  0  0  0  0  0  0  0  0
   37.6310   25.4250   39.8330 H   0  0  0  0  0  0  0  0  0  0  0  0
   37.9040   22.5790   40.8520 H   0  0  0  0  0  0  0  0  0  0  0  0
   37.0620   23.0560   39.3270 H   0  0  0  0  0  0  0  0  0  0  0  0
   35.4460   24.5210   40.5730 H   0  0  0  0  0  0  0  0  0  0  0  0
   36.2310   23.8520   42.1790 H   0  0  0  0  0  0  0  0  0  0  0  0
  2  1  1  0  0  0  0
  3  2  1  0  0  0  0
  3 20  1  0  0  0  0
  4  3  2  0  0  0  0
  5  6  2  0  0  0  0
  5  4  1  0  0  0  0
  6  7  1  0  0  0  0
  7  2  2  0  0  0  0
  8  4  1  0  0  0  0
  9  5  1  0  0  0  0
 10  6  1  0  0  0  0
 12 11  2  0  0  0  0
 12 13  1  0  0  0  0
 13  7  1  6  0  0  0
 14 13  1  0  0  0  0
 15 14  1  0  0  0  0
 16 14  1  0  0  0  0
 16 17  1  0  0  0  0
 18 16  1  0  0  0  0
 18 12  1  0  0  0  0
 19 18  1  0  0  0  0
 20 22  1  0  0  0  0
 20 21  2  0  0  0  0
 22 27  1  0  0  0  0
 23 24  1  0  0  0  0
 23 22  2  0  0  0  0
 24 25  2  0  0  0  0
 25 26  1  0  0  0  0
 26 29  1  0  0  0  0
 27 26  2  0  0  0  0
 28 24  1  0  0  0  0
 30 32  1  0  0  0  0
 30 23  1  0  0  0  0
 31 30  1  0  0  0  0
 31 34  1  0  0  0  0
 31 32  1  0  0  0  0
 32 37  1  0  0  0  0
 33 30  1  0  0  0  0
 35 31  1  0  0  0  0
 36 32  1  0  0  0  0
M  END
>  <minimizedAffinity>
-5.48751545

$$$$

 OpenBabel03242523213D

 37 40  0  0  1  0  0  0  0  0999 V2000
   39.7670   29.2970   38.8750 Cl  0  0  0  0  0  0  0  0  0  0  0  0
   38.1810   29.3460   39.6370 C   0  0  0  0  0  0  0  0  0  0  0  0
   37.5650   28.0920   39.8320 C   0  0  0  0  0  0  0  0  0  0  0  0
   36.3350   28.2450   40.4520 C   0  0  0  0  0  0  0  0  0  0  0  0
   35.7110   29.3590   40.8610 C   0  0  0  0  0  0  0  0  0  0  0  0
   36.3760   30.5250   40.6350 C   0  0  0  0  0  0  0  0  0  0  0  0
   37.5950   30.5480   40.0320 C   0  0  0  0  0  0  0  0  0  0  0  0
   35.7000   27.3550   40.6480 H   0  0  0  0  0  0  0  0  0  0  0  0
   34.7490   29.4200   41.3450 H   0  0  0  0  0  0  0  0  0  0  0  0
   36.0340   31.5270   40.8940 H   0  0  0  0  0  0  0  0  0  0  0  0
   40.0050   31.5760   41.6060 O   0  0  0  0  0  0  0  0  0  0  0  0
   39.1010   32.2380   40.9900 C   0  0  0  0  0  0  0  0  0  0  0  0
   38.3970   31.7700   39.7410 C   0  0  2  0  0  3  0  0  0  0  0  0
   37.6190   32.9640   39.3640 C   0  0  0  0  0  3  0  0  0  0  0  0
   36.5660   32.9790   39.7040 H   0  0  0  0  0  0  0  0  0  0  0  0
   38.2450   34.1580   40.0660 C   0  0  0  0  0  3  0  0  0  0  0  0
   39.2000   34.4280   39.5370 H   0  0  0  0  0  0  0  0  0  0  0  0
   38.5830   33.5360   41.3530 N   0  0  0  0  0  0  0  0  0  0  0  0
   38.5030   33.8710   42.3410 H   0  0  0  0  0  0  0  0  0  0  0  0
   38.1180   26.7660   39.4540 C   0  0  0  0  0  0  0  0  0  0  0  0
   37.9420   26.8460   38.2630 O   0  0  0  0  0  0  0  0  0  0  0  0
   38.5700   26.0760   40.6700 C   0  0  0  0  0  0  0  0  0  0  0  0
   37.8910   25.1490   41.3570 C   0  0  0  0  0  0  0  0  0  0  0  0
   38.5070   24.7410   42.5240 C   0  0  0  0  0  0  0  0  0  0  0  0
   39.7450   25.3070   42.8680 N   0  0  0  0  0  0  0  0  0  0  0  0
   40.3510   26.2110   42.1400 C   0  0  0  0  0  0  0  0  0  0  0  0
   39.7680   26.6480   40.9680 N   0  0  0  0  0  0  0  0  0  0  0  0
   38.0950   23.9980   43.2030 H   0  0  0  0  0  0  0  0  0  0  0  0
   41.3020   26.5520   42.5370 H   0  0  0  0  0  0  0  0  0  0  0  0
   36.7020   24.4910   40.9500 C   0  0  0  0  0  0  0  0  0  0  0  0
   36.1780   24.3820   39.6980 C   0  0  0  0  0  0  0  0  0  0  0  0
   36.8820   23.1300   40.1470 C   0  0  0  0  0  0  0  0  0  0  0  0
   35.9140   24.4600   41.7260 H   0  0  0  0  0  0  0  0  0  0  0  0
   36.6970   24.8770   38.8240 H   0  0  0  0  0  0  0  0  0  0  0  0
   35.1340   24.1620   39.3810 H   0  0  0  0  0  0  0  0  0  0  0  0
   36.3140   22.2980   40.5830 H   0  0  0  0  0  0  0  0  0  0  0  0
   37.9330   22.9650   39.8220 H   0  0  0  0  0  0  0  0  0  0  0  0
  1  2  1  0  0  0  0
  2  3  2  0  0  0  0
  2  7  1  0  0  0  0
  3  4  1  0  0  0  0
  4  8  1  0  0  0  0
  4  5  2  0  0  0  0
  5  9  1  0  0  0  0
  6  5  1  0  0  0  0
  6 10  1  0  0  0  0
  7  6  2  0  0  0  0
 12 18  1  0  0  0  0
 12 11  2  0  0  0  0
 13  7  1  1  0  0  0
 13 12  1  0  0  0  0
 14 15  1  0  0  0  0
 14 13  1  0  0  0  0
 14 16  1  0  0  0  0
 16 18  1  0  0  0  0
 17 16  1  0  0  0  0
 18 19  1  0  0  0  0
 20  3  1  0  0  0  0
 20 22  1  0  0  0  0
 21 20  2  0  0  0  0
 22 27  2  0  0  0  0
 22 23  1  0  0  0  0
 23 24  2  0  0  0  0
 24 25  1  0  0  0  0
 24 28  1  0  0  0  0
 26 29  1  0  0  0  0
 26 25  2  0  0  0  0
 27 26  1  0  0  0  0
 30 23  1  0  0  0  0
 30 33  1  0  0  0  0
 31 32  1  0  0  0  0
 31 30  1  0  0  0  0
 32 36  1  0  0  0  0
 32 30  1  0  0  0  0
 34 31  1  0  0  0  0
 35 31  1  0  0  0  0
 37 32  1  0  0  0  0
M  END
>  <minimizedAffinity>
-5.43097115

$$$$
