
 OpenBabel03252505533D

 33 35  0  0  1  0  0  0  0  0999 V2000
   47.1310   30.5750   47.5310 C   0  0  0  0  0  0  0  0  0  0  0  0
   47.8400   29.8440   46.5960 C   0  0  0  0  0  0  0  0  0  0  0  0
   49.0600   29.3380   46.9230 C   0  0  0  0  0  0  0  0  0  0  0  0
   49.5940   29.5250   48.1190 N   0  0  0  0  0  0  0  0  0  0  0  0
   48.9100   30.2350   49.0390 C   0  0  0  0  0  0  0  0  0  0  0  0
   47.6900   30.7630   48.7640 N   0  0  0  0  0  0  0  0  0  0  0  0
   47.3220   29.7540   45.6680 H   0  0  0  0  0  0  0  0  0  0  0  0
   49.5420   28.7810   46.1310 H   0  0  0  0  0  0  0  0  0  0  0  0
   50.6410   32.6830   49.8580 O   0  0  0  0  0  0  0  0  0  0  0  0
   50.5130   31.5520   50.3930 C   0  0  0  0  0  0  0  0  0  0  0  0
   49.5180   30.4490   50.4030 C   0  0  2  0  0  3  0  0  0  0  0  0
   50.4090   29.2650   50.7700 C   0  0  0  0  0  3  0  0  0  0  0  0
   49.8260   28.3880   51.1070 H   0  0  0  0  0  0  0  0  0  0  0  0
   51.1850   29.9200   51.9110 C   0  0  0  0  0  3  0  0  0  0  0  0
   50.4650   30.2540   52.7020 H   0  0  0  0  0  0  0  0  0  0  0  0
   51.6020   31.1480   51.2480 N   0  0  0  0  0  0  0  0  0  0  0  0
   52.5540   31.5580   51.4500 H   0  0  0  0  0  0  0  0  0  0  0  0
   45.8280   31.2190   47.4450 C   0  0  0  0  0  0  0  0  0  0  0  0
   45.2020   30.8040   46.6410 H   0  0  0  0  0  0  0  0  0  0  0  0
   45.2770   31.0180   48.4020 H   0  0  0  0  0  0  0  0  0  0  0  0
   46.0230   32.6090   47.3920 O   0  0  0  0  0  0  0  0  0  0  0  0
   44.9970   34.9430   44.9120 C   0  0  0  0  0  0  0  0  0  0  0  0
   45.8560   34.7030   43.8430 C   0  0  0  0  0  0  0  0  0  0  0  0
   46.8170   33.6940   44.0090 C   0  0  0  0  0  0  0  0  0  0  0  0
   46.8600   33.0170   45.1730 N   0  0  0  0  0  0  0  0  0  0  0  0
   46.0040   33.2900   46.1760 C   0  0  0  0  0  0  0  0  0  0  0  0
   45.0780   34.2440   46.0530 N   0  0  0  0  0  0  0  0  0  0  0  0
   44.2250   35.7130   44.8580 H   0  0  0  0  0  0  0  0  0  0  0  0
   47.4850   33.5050   43.1800 H   0  0  0  0  0  0  0  0  0  0  0  0
   45.7150   35.5180   42.5960 C   0  0  0  0  0  0  0  0  0  0  0  0
   45.3930   36.7900   43.0460 F   0  0  0  0  0  0  0  0  0  0  0  0
   44.6170   34.9840   41.9100 F   0  0  0  0  0  0  0  0  0  0  0  0
   46.8670   35.4600   41.8830 F   0  0  0  0  0  0  0  0  0  0  0  0
  1  6  1  0  0  0  0
  2  3  1  0  0  0  0
  2  1  2  0  0  0  0
  3  4  2  0  0  0  0
  4  5  1  0  0  0  0
  6  5  2  0  0  0  0
  7  2  1  0  0  0  0
  8  3  1  0  0  0  0
  9 10  2  0  0  0  0
 10 11  1  0  0  0  0
 10 16  1  0  0  0  0
 11  5  1  6  0  0  0
 11 12  1  0  0  0  0
 12 13  1  0  0  0  0
 12 14  1  0  0  0  0
 14 15  1  0  0  0  0
 16 17  1  0  0  0  0
 16 14  1  0  0  0  0
 18  1  1  0  0  0  0
 18 20  1  0  0  0  0
 19 18  1  0  0  0  0
 21 18  1  0  0  0  0
 22 27  1  0  0  0  0
 23 24  1  0  0  0  0
 23 22  2  0  0  0  0
 24 25  2  0  0  0  0
 25 26  1  0  0  0  0
 26 21  1  0  0  0  0
 27 26  2  0  0  0  0
 28 22  1  0  0  0  0
 29 24  1  0  0  0  0
 30 31  1  0  0  0  0
 30 23  1  0  0  0  0
 32 30  1  0  0  0  0
 33 30  1  0  0  0  0
M  END
>  <minimizedAffinity>
-5.70825577

>  <minimizedRMSD>
0.925451875

$$$$
