
 OpenBabel03252504203D

 19 20  0  0  1  0  0  0  0  0999 V2000
   45.6430   34.4590   44.0860 C   0  0  0  0  0  0  0  0  0  0  0  0
   46.4700   33.9090   43.0930 C   0  0  0  0  0  0  0  0  0  0  0  0
   47.3430   32.8750   43.4650 C   0  0  0  0  0  0  0  0  0  0  0  0
   47.3450   32.4630   44.7540 N   0  0  0  0  0  0  0  0  0  0  0  0
   46.5360   33.0180   45.6750 C   0  0  0  0  0  0  0  0  0  0  0  0
   45.6890   34.0080   45.3550 N   0  0  0  0  0  0  0  0  0  0  0  0
   46.4880   34.2170   42.0640 H   0  0  0  0  0  0  0  0  0  0  0  0
   47.9960   32.4270   42.7270 H   0  0  0  0  0  0  0  0  0  0  0  0
   44.7230   33.6700   47.6770 O   0  0  0  0  0  0  0  0  0  0  0  0
   45.2070   32.4920   47.6010 C   0  0  0  0  0  0  0  0  0  0  0  0
   46.5990   32.5060   47.0770 C   0  0  1  0  0  3  0  0  0  0  0  0
   46.9710   31.0550   47.1600 C   0  0  0  0  0  3  0  0  0  0  0  0
   47.6940   30.7340   46.4010 H   0  0  0  0  0  0  0  0  0  0  0  0
   45.6250   30.3720   47.0430 C   0  0  0  0  0  3  0  0  0  0  0  0
   45.3530   30.3890   45.9660 H   0  0  0  0  0  0  0  0  0  0  0  0
   44.7790   31.1660   47.8780 N   0  0  0  0  0  0  0  0  0  0  0  0
   43.9960   31.1270   48.5870 H   0  0  0  0  0  0  0  0  0  0  0  0
   44.5620   35.7730   43.5180 S   0  0  0  0  0  0  0  0  0  0  0  0
   44.1160   36.5950   44.5460 H   0  0  0  0  0  0  0  0  0  0  0  0
  1  6  1  0  0  0  0
  2  3  1  0  0  0  0
  2  1  2  0  0  0  0
  3  4  2  0  0  0  0
  4  5  1  0  0  0  0
  6  5  2  0  0  0  0
  7  2  1  0  0  0  0
  8  3  1  0  0  0  0
 10  9  2  0  0  0  0
 10 16  1  0  0  0  0
 11  5  1  6  0  0  0
 11 12  1  0  0  0  0
 11 10  1  0  0  0  0
 13 12  1  0  0  0  0
 14 12  1  0  0  0  0
 14 16  1  0  0  0  0
 15 14  1  0  0  0  0
 16 17  1  0  0  0  0
 18  1  1  0  0  0  0
 18 19  1  0  0  0  0
M  END
>  <minimizedAffinity>
-3.96114373

>  <minimizedRMSD>
1.47962904

$$$$
