
 OpenBabel03252503563D

 20 21  0  0  1  0  0  0  0  0999 V2000
   46.0350   34.7490   43.4080 C   0  0  0  0  0  0  0  0  0  0  0  0
   45.2480   35.8780   43.6920 C   0  0  0  0  0  0  0  0  0  0  0  0
   44.5770   35.8900   44.9150 C   0  0  0  0  0  0  0  0  0  0  0  0
   44.7190   34.8170   45.7540 N   0  0  0  0  0  0  0  0  0  0  0  0
   45.4880   33.7600   45.4260 C   0  0  0  0  0  0  0  0  0  0  0  0
   46.1420   33.7280   44.2610 N   0  0  0  0  0  0  0  0  0  0  0  0
   45.1180   36.7300   43.0590 H   0  0  0  0  0  0  0  0  0  0  0  0
   43.9530   36.7140   45.2140 H   0  0  0  0  0  0  0  0  0  0  0  0
   47.6990   31.6830   45.4890 O   0  0  0  0  0  0  0  0  0  0  0  0
   46.7830   31.8800   46.3510 C   0  0  0  0  0  0  0  0  0  0  0  0
   45.5370   32.6780   46.4480 C   0  0  1  0  0  3  0  0  0  0  0  0
   45.5720   33.1680   47.8550 C   0  0  0  0  0  3  0  0  0  0  0  0
   44.5200   33.3830   48.1670 H   0  0  0  0  0  0  0  0  0  0  0  0
   46.1430   31.9890   48.6100 C   0  0  0  0  0  3  0  0  0  0  0  0
   46.8130   32.3290   49.4270 H   0  0  0  0  0  0  0  0  0  0  0  0
   46.8480   31.2160   47.6080 N   0  0  0  0  0  0  0  0  0  0  0  0
   47.2920   30.3070   47.9370 H   0  0  0  0  0  0  0  0  0  0  0  0
   46.6940   34.8030   42.1430 C   0  0  0  0  0  0  0  0  0  0  0  0
   47.7980   35.3780   41.8830 O   0  0  0  0  0  0  0  0  0  0  0  0
   46.4420   34.4030   41.1680 H   0  0  0  0  0  0  0  0  0  0  0  0
  1  2  2  0  0  0  0
  1  6  1  0  0  0  0
  2  3  1  0  0  0  0
  3  8  1  0  0  0  0
  3  4  2  0  0  0  0
  5  4  1  0  0  0  0
  6  5  2  0  0  0  0
  7  2  1  0  0  0  0
  9 10  2  0  0  0  0
 10 11  1  0  0  0  0
 10 16  1  0  0  0  0
 11  5  1  6  0  0  0
 11 12  1  0  0  0  0
 12 13  1  0  0  0  0
 12 14  1  0  0  0  0
 14 15  1  0  0  0  0
 16 17  1  0  0  0  0
 16 14  1  0  0  0  0
 18  1  1  0  0  0  0
 19 18  2  0  0  0  0
 20 18  1  0  0  0  0
M  END
>  <minimizedAffinity>
-3.76397991

>  <minimizedRMSD>
1.09350157

$$$$
