
 OpenBabel03252500183D

 20 21  0  0  1  0  0  0  0  0999 V2000
   44.7810   36.0820   43.9960 C   0  0  0  0  0  0  0  0  0  0  0  0
   45.5570   35.6300   42.9290 C   0  0  0  0  0  0  0  0  0  0  0  0
   46.2690   34.4420   43.1290 C   0  0  0  0  0  0  0  0  0  0  0  0
   46.1760   33.7930   44.3300 N   0  0  0  0  0  0  0  0  0  0  0  0
   45.4080   34.2830   45.3240 C   0  0  0  0  0  0  0  0  0  0  0  0
   44.7020   35.4400   45.1560 N   0  0  0  0  0  0  0  0  0  0  0  0
   45.2960   33.6220   46.5860 N   0  0  0  0  0  0  0  0  0  0  0  0
   44.2210   37.0000   43.8640 H   0  0  0  0  0  0  0  0  0  0  0  0
   45.6420   36.1290   41.9730 H   0  0  0  0  0  0  0  0  0  0  0  0
   44.9180   32.6570   46.4310 H   0  0  0  0  0  0  0  0  0  0  0  0
   45.5440   34.0130   47.5280 H   0  0  0  0  0  0  0  0  0  0  0  0
   49.3220   34.8690   43.0340 O   0  0  0  0  0  0  0  0  0  0  0  0
   48.5080   34.3950   42.1790 C   0  0  0  0  0  0  0  0  0  0  0  0
   47.1350   33.8360   42.0910 C   0  0  2  0  0  3  0  0  0  0  0  0
   46.6940   34.1900   40.6940 C   0  0  0  0  0  3  0  0  0  0  0  0
   46.0640   35.1170   40.6900 H   0  0  0  0  0  0  0  0  0  0  0  0
   47.9370   34.3680   39.8760 C   0  0  0  0  0  3  0  0  0  0  0  0
   47.9770   35.3540   39.3560 H   0  0  0  0  0  0  0  0  0  0  0  0
   49.0320   34.3620   40.8360 N   0  0  0  0  0  0  0  0  0  0  0  0
   50.0010   34.3370   40.4140 H   0  0  0  0  0  0  0  0  0  0  0  0
  1  6  1  0  0  0  0
  2  3  1  0  0  0  0
  2  1  2  0  0  0  0
  3  4  2  0  0  0  0
  4  5  1  0  0  0  0
  5  7  1  0  0  0  0
  6  5  2  0  0  0  0
  7 11  1  0  0  0  0
  8  1  1  0  0  0  0
  9  2  1  0  0  0  0
 10  7  1  0  0  0  0
 13 12  2  0  0  0  0
 14 13  1  0  0  0  0
 14  3  1  1  0  0  0
 15 14  1  0  0  0  0
 16 15  1  0  0  0  0
 17 15  1  0  0  0  0
 17 19  1  0  0  0  0
 18 17  1  0  0  0  0
 19 13  1  0  0  0  0
 20 19  1  0  0  0  0
M  END
>  <minimizedAffinity>
-4.91018009

>  <minimizedRMSD>
1.08575666

$$$$
