
 OpenBabel03252508383D

 41 44  0  0  1  0  0  0  0  0999 V2000
   45.2080   33.9590   40.6830 C   0  0  0  0  0  0  0  0  0  0  0  0
   44.1560   33.6410   39.8720 C   0  0  0  0  0  0  0  0  0  0  0  0
   44.4570   33.1380   38.6390 C   0  0  0  0  0  0  0  0  0  0  0  0
   45.7380   32.9400   38.1780 C   0  0  0  0  0  0  0  0  0  0  0  0
   46.7680   33.2730   39.0250 C   0  0  0  0  0  0  0  0  0  0  0  0
   46.5310   33.7820   40.2790 C   0  0  0  0  0  0  0  0  0  0  0  0
   43.6390   32.8790   37.9780 H   0  0  0  0  0  0  0  0  0  0  0  0
   45.9030   32.5360   37.1860 H   0  0  0  0  0  0  0  0  0  0  0  0
   47.7740   33.1150   38.6600 H   0  0  0  0  0  0  0  0  0  0  0  0
   40.8680   35.2410   40.7850 C   0  0  0  0  0  0  0  0  0  0  0  0
   42.1700   35.0910   40.2550 C   0  0  0  0  0  0  0  0  0  0  0  0
   42.8260   33.8640   40.3910 C   0  0  0  0  0  0  0  0  0  0  0  0
   42.1260   32.8950   41.0450 N   0  0  0  0  0  0  0  0  0  0  0  0
   40.8990   33.0610   41.5360 C   0  0  0  0  0  0  0  0  0  0  0  0
   40.2760   34.2350   41.4040 N   0  0  0  0  0  0  0  0  0  0  0  0
   40.2590   36.5160   40.6110 N   0  0  0  0  0  0  0  0  0  0  0  0
   42.7210   35.8580   39.7390 H   0  0  0  0  0  0  0  0  0  0  0  0
   40.3620   32.2780   42.0520 H   0  0  0  0  0  0  0  0  0  0  0  0
   40.0510   36.7810   39.6230 H   0  0  0  0  0  0  0  0  0  0  0  0
   40.0170   37.1780   41.4020 H   0  0  0  0  0  0  0  0  0  0  0  0
   47.6850   34.1020   41.0960 C   0  0  0  0  0  0  0  0  0  0  0  0
   48.1570   35.3990   40.9730 C   0  0  0  0  0  0  0  0  0  0  0  0
   49.2540   35.8930   41.6770 C   0  0  0  0  0  0  0  0  0  0  0  0
   49.8920   35.0210   42.5420 C   0  0  0  0  0  0  0  0  0  0  0  0
   49.4340   33.7250   42.6750 C   0  0  0  0  0  0  0  0  0  0  0  0
   48.3360   33.2620   41.9590 C   0  0  0  0  0  0  0  0  0  0  0  0
   47.6950   36.1230   40.3110 H   0  0  0  0  0  0  0  0  0  0  0  0
   49.5940   36.9110   41.5560 H   0  0  0  0  0  0  0  0  0  0  0  0
   50.7490   35.3390   43.1190 H   0  0  0  0  0  0  0  0  0  0  0  0
   49.9600   33.0830   43.3580 H   0  0  0  0  0  0  0  0  0  0  0  0
   46.7630   32.4670   44.2270 O   0  0  0  0  0  0  0  0  0  0  0  0
   46.8160   31.7480   43.1720 C   0  0  0  0  0  0  0  0  0  0  0  0
   47.8380   31.8940   42.0840 C   0  0  1  0  0  3  0  0  0  0  0  0
   47.0890   31.3980   40.8820 C   0  0  0  0  0  3  0  0  0  0  0  0
   46.8660   32.2690   40.2360 H   0  0  0  0  0  0  0  0  0  0  0  0
   45.8590   30.6900   41.3730 C   0  0  0  0  0  3  0  0  0  0  0  0
   44.9840   31.3030   41.0430 H   0  0  0  0  0  0  0  0  0  0  0  0
   45.9370   30.6850   42.8220 N   0  0  0  0  0  0  0  0  0  0  0  0
   45.4640   30.0510   43.4900 H   0  0  0  0  0  0  0  0  0  0  0  0
   44.8100   34.9190   43.0950 N   0  0  0  0  0  0  0  0  0  0  0  0
   44.9840   34.4970   42.0090 C   0  0  0  0  0  0  0  0  0  0  0  0
  1 41  1  0  0  0  0
  2 12  1  0  0  0  0
  2  1  2  0  0  0  0
  3  2  1  0  0  0  0
  4  3  2  0  0  0  0
  4  5  1  0  0  0  0
  5  6  2  0  0  0  0
  6  1  1  0  0  0  0
  6 21  1  0  0  0  0
  7  3  1  0  0  0  0
  8  4  1  0  0  0  0
  9  5  1  0  0  0  0
 10 15  1  0  0  0  0
 11 12  1  0  0  0  0
 11 10  2  0  0  0  0
 12 13  2  0  0  0  0
 13 14  1  0  0  0  0
 14 18  1  0  0  0  0
 15 14  2  0  0  0  0
 16 10  1  0  0  0  0
 16 20  1  0  0  0  0
 17 11  1  0  0  0  0
 19 16  1  0  0  0  0
 21 26  1  0  0  0  0
 22 21  2  0  0  0  0
 22 23  1  0  0  0  0
 23 24  2  0  0  0  0
 24 25  1  0  0  0  0
 24 29  1  0  0  0  0
 25 30  1  0  0  0  0
 26 25  2  0  0  0  0
 27 22  1  0  0  0  0
 28 23  1  0  0  0  0
 32 31  2  0  0  0  0
 33 26  1  6  0  0  0
 33 32  1  0  0  0  0
 34 36  1  0  0  0  0
 34 33  1  0  0  0  0
 35 34  1  0  0  0  0
 36 38  1  0  0  0  0
 37 36  1  0  0  0  0
 38 32  1  0  0  0  0
 38 39  1  0  0  0  0
 41 40  3  0  0  0  0
M  END
>  <minimizedAffinity>
-6.09665298

>  <minimizedRMSD>
0.151911736

$$$$
