
 OpenBabel03252501313D

 20 21  0  0  1  0  0  0  0  0999 V2000
   46.3210   34.7140   41.9580 C   0  0  0  0  0  0  0  0  0  0  0  0
   46.2990   34.2390   40.6460 C   0  0  0  0  0  0  0  0  0  0  0  0
   47.5070   34.1310   39.9560 C   0  0  0  0  0  0  0  0  0  0  0  0
   48.6260   34.4950   40.6060 N   0  0  0  0  0  0  0  0  0  0  0  0
   48.6370   34.9560   41.8800 C   0  0  0  0  0  0  0  0  0  0  0  0
   47.4750   35.0660   42.5610 N   0  0  0  0  0  0  0  0  0  0  0  0
   47.4500   33.7640   38.9580 H   0  0  0  0  0  0  0  0  0  0  0  0
   49.5760   35.2300   42.3390 H   0  0  0  0  0  0  0  0  0  0  0  0
   45.3800   32.7540   43.7090 O   0  0  0  0  0  0  0  0  0  0  0  0
   45.1150   33.9400   43.9350 C   0  0  0  0  0  0  0  0  0  0  0  0
   45.1000   34.8690   42.7820 C   0  0  1  0  0  3  0  0  0  0  0  0
   45.0890   36.2530   43.3580 C   0  0  0  0  0  3  0  0  0  0  0  0
   46.1230   36.7080   43.3700 H   0  0  0  0  0  0  0  0  0  0  0  0
   44.5460   36.1030   44.7420 C   0  0  0  0  0  3  0  0  0  0  0  0
   45.0600   36.7700   45.4890 H   0  0  0  0  0  0  0  0  0  0  0  0
   44.7940   34.7340   45.0620 N   0  0  0  0  0  0  0  0  0  0  0  0
   44.7620   34.2890   46.0180 H   0  0  0  0  0  0  0  0  0  0  0  0
   45.0130   33.9020   40.1280 N   0  0  0  0  0  0  0  0  0  0  0  0
   44.3090   34.4890   39.6050 H   0  0  0  0  0  0  0  0  0  0  0  0
   44.9930   32.9000   40.4290 H   0  0  0  0  0  0  0  0  0  0  0  0
  1  6  1  0  0  0  0
  2  1  2  0  0  0  0
  3  4  2  0  0  0  0
  3  2  1  0  0  0  0
  4  5  1  0  0  0  0
  5  8  1  0  0  0  0
  5  6  2  0  0  0  0
  7  3  1  0  0  0  0
  9 10  2  0  0  0  0
 10 16  1  0  0  0  0
 11  1  1  6  0  0  0
 11 12  1  0  0  0  0
 11 10  1  0  0  0  0
 12 13  1  0  0  0  0
 12 14  1  0  0  0  0
 14 16  1  0  0  0  0
 14 15  1  0  0  0  0
 16 17  1  0  0  0  0
 18 20  1  0  0  0  0
 18  2  1  0  0  0  0
 19 18  1  0  0  0  0
M  END
>  <minimizedAffinity>
-4.30048037

>  <minimizedRMSD>
3.99413538

$$$$
