
 OpenBabel03252502463D

 45 48  0  0  1  0  0  0  0  0999 V2000
   47.3290   35.5240   42.0560 C   0  0  0  0  0  0  0  0  0  0  0  0
   47.5190   35.9540   43.0710 H   0  0  0  0  0  0  0  0  0  0  0  0
   46.9270   36.3640   41.4330 H   0  0  0  0  0  0  0  0  0  0  0  0
   48.6130   34.9650   41.5280 C   0  0  1  0  0  0  0  0  0  0  0  0
   49.8360   35.1310   42.3690 C   0  0  0  0  0  0  0  0  0  0  0  0
   49.1690   33.8090   42.2150 C   0  0  2  0  0  0  0  0  0  0  0  0
   48.7330   35.1130   40.4590 H   0  0  0  0  0  0  0  0  0  0  0  0
   49.7090   35.7020   43.3210 H   0  0  0  0  0  0  0  0  0  0  0  0
   50.8210   35.3500   41.8840 H   0  0  0  0  0  0  0  0  0  0  0  0
   48.8140   33.3810   43.1460 H   0  0  0  0  0  0  0  0  0  0  0  0
   49.9140   32.9140   41.3450 N   0  0  0  0  0  0  0  0  0  0  0  0
   49.1250   32.2710   40.3570 C   0  0  0  0  0  0  0  0  0  0  0  0
   50.0780   31.3920   39.5710 C   0  0  0  0  0  0  0  0  0  0  0  0
   50.6670   30.3750   40.3860 N   0  0  0  0  0  0  0  0  0  0  0  0
   50.7710   30.7350   41.7840 C   0  0  0  0  0  0  0  0  0  0  0  0
   50.9960   32.2390   41.9190 C   0  0  0  0  0  0  0  0  0  0  0  0
   48.3210   31.6820   40.8320 H   0  0  0  0  0  0  0  0  0  0  0  0
   48.6660   32.9760   39.6510 H   0  0  0  0  0  0  0  0  0  0  0  0
   49.4820   30.9080   38.7600 H   0  0  0  0  0  0  0  0  0  0  0  0
   50.8210   32.0370   39.0780 H   0  0  0  0  0  0  0  0  0  0  0  0
   51.5360   30.0140   39.9780 H   0  0  0  0  0  0  0  0  0  0  0  0
   51.5720   30.1620   42.2760 H   0  0  0  0  0  0  0  0  0  0  0  0
   49.7970   30.4990   42.2780 H   0  0  0  0  0  0  0  0  0  0  0  0
   51.9660   32.5210   41.4710 H   0  0  0  0  0  0  0  0  0  0  0  0
   51.0310   32.4330   43.0120 H   0  0  0  0  0  0  0  0  0  0  0  0
   46.3690   34.3770   42.1540 C   0  0  0  0  0  0  0  0  0  0  0  0
   46.6540   33.4520   41.6740 H   0  0  0  0  0  0  0  0  0  0  0  0
   45.4260   34.6990   41.6210 H   0  0  0  0  0  0  0  0  0  0  0  0
   44.7740   35.0700   45.4700 C   0  0  0  0  0  0  0  0  0  0  0  0
   45.1530   35.2230   44.1190 C   0  0  0  0  0  0  0  0  0  0  0  0
   45.9530   34.2340   43.5890 C   0  0  0  0  0  0  0  0  0  0  0  0
   46.3360   33.1850   44.3550 N   0  0  0  0  0  0  0  0  0  0  0  0
   45.9670   33.0630   45.6220 C   0  0  0  0  0  0  0  0  0  0  0  0
   45.1960   33.9910   46.1770 N   0  0  0  0  0  0  0  0  0  0  0  0
   44.1420   35.8270   45.9290 H   0  0  0  0  0  0  0  0  0  0  0  0
   44.8350   36.0670   43.5300 H   0  0  0  0  0  0  0  0  0  0  0  0
   45.5050   32.8550   48.5240 O   0  0  0  0  0  0  0  0  0  0  0  0
   45.7680   31.8640   47.7740 C   0  0  0  0  0  0  0  0  0  0  0  0
   46.4060   31.8970   46.4350 C   0  0  1  0  0  3  0  0  0  0  0  0
   46.0110   30.6230   45.7550 C   0  0  0  0  0  3  0  0  0  0  0  0
   45.3780   30.7760   44.8550 H   0  0  0  0  0  0  0  0  0  0  0  0
   45.2860   29.8250   46.8060 C   0  0  0  0  0  3  0  0  0  0  0  0
   45.6840   28.7990   46.8820 H   0  0  0  0  0  0  0  0  0  0  0  0
   45.5000   30.5060   48.0740 N   0  0  0  0  0  0  0  0  0  0  0  0
   45.4590   30.0580   49.0150 H   0  0  0  0  0  0  0  0  0  0  0  0
  1 26  1  0  0  0  0
  1  2  1  0  0  0  0
  3  1  1  0  0  0  0
  4  7  1  6  0  0  0
  4  1  1  0  0  0  0
  4  6  1  0  0  0  0
  4  5  1  0  0  0  0
  5  8  1  0  0  0  0
  6  5  1  0  0  0  0
  6 10  1  1  0  0  0
  9  5  1  0  0  0  0
 11 16  1  0  0  0  0
 11  6  1  0  0  0  0
 12 17  1  0  0  0  0
 12 11  1  0  0  0  0
 13 12  1  0  0  0  0
 13 14  1  0  0  0  0
 14 15  1  0  0  0  0
 15 16  1  0  0  0  0
 15 22  1  0  0  0  0
 15 23  1  0  0  0  0
 16 25  1  0  0  0  0
 18 12  1  0  0  0  0
 19 13  1  0  0  0  0
 20 13  1  0  0  0  0
 21 14  1  0  0  0  0
 24 16  1  0  0  0  0
 26 31  1  0  0  0  0
 27 26  1  0  0  0  0
 28 26  1  0  0  0  0
 29 35  1  0  0  0  0
 29 34  1  0  0  0  0
 30 29  2  0  0  0  0
 31 30  1  0  0  0  0
 31 32  2  0  0  0  0
 32 33  1  0  0  0  0
 33 34  2  0  0  0  0
 36 30  1  0  0  0  0
 38 44  1  0  0  0  0
 38 37  2  0  0  0  0
 39 33  1  6  0  0  0
 39 38  1  0  0  0  0
 40 39  1  0  0  0  0
 40 42  1  0  0  0  0
 41 40  1  0  0  0  0
 42 43  1  0  0  0  0
 42 44  1  0  0  0  0
 44 45  1  0  0  0  0
M  END
>  <minimizedAffinity>
-5.30414629

>  <minimizedRMSD>
1.09804869

$$$$
