
 OpenBabel03242515053D

 39 41  0  0  1  0  0  0  0  0999 V2000
   44.7790   34.7820   42.0600 C   0  0  0  0  0  0  0  0  0  0  0  0
   46.0710   34.5730   41.5730 C   0  0  0  0  0  0  0  0  0  0  0  0
   47.0920   34.3050   42.5000 C   0  0  0  0  0  0  0  0  0  0  0  0
   46.7570   34.2680   43.8210 N   0  0  0  0  0  0  0  0  0  0  0  0
   45.4980   34.4750   44.2620 C   0  0  0  0  0  0  0  0  0  0  0  0
   44.5390   34.7270   43.3770 N   0  0  0  0  0  0  0  0  0  0  0  0
   46.3760   34.5940   40.5330 H   0  0  0  0  0  0  0  0  0  0  0  0
   47.6610   34.2880   39.7330 O   0  0  0  0  0  0  0  0  0  0  0  0
   48.4840   33.8550   40.5850 C   0  0  0  0  0  0  0  0  0  0  0  0
   48.4670   34.0750   42.0700 C   0  0  2  0  0  0  0  0  0  0  0  0
   49.1120   32.8330   42.5800 C   0  0  0  0  0  0  0  0  0  0  0  0
   49.5350   32.9480   43.6200 H   0  0  0  0  0  0  0  0  0  0  0  0
   50.2580   32.6600   41.5890 C   0  0  0  0  0  0  0  0  0  0  0  0
   51.1210   33.3000   41.8570 H   0  0  0  0  0  0  0  0  0  0  0  0
   49.6390   33.0420   40.3350 N   0  0  0  0  0  0  0  0  0  0  0  0
   49.9490   32.7890   39.3530 H   0  0  0  0  0  0  0  0  0  0  0  0
   45.2780   34.4070   45.6890 C   0  0  0  0  0  0  0  0  0  0  0  0
   44.4030   35.1800   46.1710 O   0  0  0  0  0  0  0  0  0  0  0  0
   46.0820   33.4600   46.4320 N   0  0  0  0  0  0  0  0  0  0  0  0
   45.6040   32.5280   46.5800 H   0  0  0  0  0  0  0  0  0  0  0  0
   47.0040   33.8250   46.7110 H   0  0  0  0  0  0  0  0  0  0  0  0
   43.5340   35.1160   40.8270 S   0  0  0  0  0  0  0  0  0  0  0  0
   41.8800   35.2470   41.5370 C   0  0  0  0  0  0  0  0  0  0  0  0
   41.4410   34.2330   41.6350 H   0  0  0  0  0  0  0  0  0  0  0  0
   41.9760   35.6950   42.5550 H   0  0  0  0  0  0  0  0  0  0  0  0
   40.9500   36.1050   40.7430 C   0  0  0  0  0  0  0  0  0  0  0  0
   41.4260   36.9710   40.2530 H   0  0  0  0  0  0  0  0  0  0  0  0
   40.1900   36.5050   41.4600 H   0  0  0  0  0  0  0  0  0  0  0  0
   41.7750   36.2770   37.8190 Cl  0  0  0  0  0  0  0  0  0  0  0  0
   40.4650   35.3040   38.4110 C   0  0  0  0  0  0  0  0  0  0  0  0
   40.1710   35.2970   39.7650 C   0  0  0  0  0  0  0  0  0  0  0  0
   39.1150   34.4980   40.1580 C   0  0  0  0  0  0  0  0  0  0  0  0
   38.3270   33.7090   39.3360 C   0  0  0  0  0  0  0  0  0  0  0  0
   38.6370   33.7320   37.9990 C   0  0  0  0  0  0  0  0  0  0  0  0
   37.7060   32.7710   36.8660 Cl  0  0  0  0  0  0  0  0  0  0  0  0
   39.6870   34.5170   37.5450 C   0  0  0  0  0  0  0  0  0  0  0  0
   38.8920   34.4980   41.2210 H   0  0  0  0  0  0  0  0  0  0  0  0
   37.5230   33.1190   39.7530 H   0  0  0  0  0  0  0  0  0  0  0  0
   39.9210   34.5240   36.4840 H   0  0  0  0  0  0  0  0  0  0  0  0
  1  6  1  0  0  0  0
  2  1  2  0  0  0  0
  2  3  1  0  0  0  0
  3  4  2  0  0  0  0
  4  5  1  0  0  0  0
  5 17  1  0  0  0  0
  6  5  2  0  0  0  0
  7  2  1  0  0  0  0
  8  9  2  0  0  0  0
  9 10  1  0  0  0  0
 10  3  1  1  0  0  0
 10 11  1  0  0  0  0
 11 12  1  0  0  0  0
 13 14  1  0  0  0  0
 13 11  1  0  0  0  0
 15  9  1  0  0  0  0
 15 13  1  0  0  0  0
 16 15  1  0  0  0  0
 17 18  2  0  0  0  0
 17 19  1  0  0  0  0
 19 20  1  0  0  0  0
 19 21  1  0  0  0  0
 22 23  1  0  0  0  0
 22  1  1  0  0  0  0
 23 24  1  0  0  0  0
 23 25  1  0  0  0  0
 26 28  1  0  0  0  0
 26 23  1  0  0  0  0
 27 26  1  0  0  0  0
 29 30  1  0  0  0  0
 30 31  1  0  0  0  0
 31 32  2  0  0  0  0
 31 26  1  0  0  0  0
 32 37  1  0  0  0  0
 33 38  1  0  0  0  0
 33 32  1  0  0  0  0
 34 33  2  0  0  0  0
 35 34  1  0  0  0  0
 36 34  1  0  0  0  0
 36 30  2  0  0  0  0
 39 36  1  0  0  0  0
M  END
>  <minimizedAffinity>
-7.25426912

>  <minimizedRMSD>
0.102054186

$$$$
