
 OpenBabel03252508323D

 32 34  0  0  1  0  0  0  0  0999 V2000
   44.9970   33.8310   41.7370 N   0  0  0  0  0  0  0  0  0  0  0  0
   46.2530   33.4710   41.1830 C   0  0  1  0  0  0  0  0  0  0  0  0
   46.1790   32.8760   39.8110 C   0  0  0  0  0  0  0  0  0  0  0  0
   45.0860   32.0460   39.5400 N   0  0  0  0  0  0  0  0  0  0  0  0
   43.8490   32.4470   40.0680 C   0  0  0  0  0  0  0  0  0  0  0  0
   43.9130   33.7540   40.7970 C   0  0  0  0  0  0  0  0  0  0  0  0
   46.7240   32.7200   41.8520 H   0  0  0  0  0  0  0  0  0  0  0  0
   46.0710   33.7640   39.1180 H   0  0  0  0  0  0  0  0  0  0  0  0
   47.1330   32.3580   39.5830 H   0  0  0  0  0  0  0  0  0  0  0  0
   45.1300   31.6280   38.6120 H   0  0  0  0  0  0  0  0  0  0  0  0
   43.4470   31.6620   40.7310 H   0  0  0  0  0  0  0  0  0  0  0  0
   43.1480   32.6260   39.2010 H   0  0  0  0  0  0  0  0  0  0  0  0
   42.9150   34.0170   41.1800 H   0  0  0  0  0  0  0  0  0  0  0  0
   44.1120   34.5190   39.9990 H   0  0  0  0  0  0  0  0  0  0  0  0
   44.3840   35.4910   43.3240 C   0  0  0  0  0  0  0  0  0  0  0  0
   44.9300   34.2180   43.0840 C   0  0  0  0  0  0  0  0  0  0  0  0
   45.3660   33.4760   44.1680 C   0  0  0  0  0  0  0  0  0  0  0  0
   45.2720   33.9670   45.4370 N   0  0  0  0  0  0  0  0  0  0  0  0
   44.7380   35.2100   45.6450 C   0  0  0  0  0  0  0  0  0  0  0  0
   44.3050   35.9500   44.6080 N   0  0  0  0  0  0  0  0  0  0  0  0
   43.9930   36.2170   42.6300 H   0  0  0  0  0  0  0  0  0  0  0  0
   45.7730   32.4910   43.9970 H   0  0  0  0  0  0  0  0  0  0  0  0
   44.6630   35.5990   46.6510 H   0  0  0  0  0  0  0  0  0  0  0  0
   48.3510   34.3160   38.6560 O   0  0  0  0  0  0  0  0  0  0  0  0
   48.0310   34.6450   39.8430 C   0  0  0  0  0  0  0  0  0  0  0  0
   47.2340   34.6050   41.0890 C   0  0  2  0  0  3  0  0  0  0  0  0
   48.3410   34.5110   42.1130 C   0  0  0  0  0  3  0  0  0  0  0  0
   49.0100   33.6620   41.9550 H   0  0  0  0  0  0  0  0  0  0  0  0
   49.1460   35.7540   41.6960 C   0  0  0  0  0  3  0  0  0  0  0  0
   48.7020   36.6730   42.0970 H   0  0  0  0  0  0  0  0  0  0  0  0
   48.9990   35.6530   40.2340 N   0  0  0  0  0  0  0  0  0  0  0  0
   49.6660   36.3720   39.8060 H   0  0  0  0  0  0  0  0  0  0  0  0
  1 16  1  0  0  0  0
  2  1  1  0  0  0  0
  2  7  1  1  0  0  0
  3  2  1  0  0  0  0
  4  3  1  0  0  0  0
  4  5  1  0  0  0  0
  5 11  1  0  0  0  0
  5  6  1  0  0  0  0
  6 13  1  0  0  0  0
  6  1  1  0  0  0  0
  8  3  1  0  0  0  0
  9  3  1  0  0  0  0
 10  4  1  0  0  0  0
 12  5  1  0  0  0  0
 14  6  1  0  0  0  0
 15 20  1  0  0  0  0
 16 15  2  0  0  0  0
 16 17  1  0  0  0  0
 17 18  2  0  0  0  0
 18 19  1  0  0  0  0
 19 23  1  0  0  0  0
 20 19  2  0  0  0  0
 21 15  1  0  0  0  0
 22 17  1  0  0  0  0
 24 25  2  0  0  0  0
 25 31  1  0  0  0  0
 26 25  1  6  0  0  0
 26  2  1  0  0  0  0
 26 27  1  0  0  0  0
 28 27  1  0  0  0  0
 29 30  1  0  0  0  0
 29 27  1  0  0  0  0
 31 29  1  0  0  0  0
 32 31  1  0  0  0  0
M  END
>  <minimizedAffinity>
-5.18760824

>  <minimizedRMSD>
2.36404657

$$$$
