
 OpenBabel03242523193D

 37 40  0  0  1  0  0  0  0  0999 V2000
   44.8210   31.5320   42.9550 Cl  0  0  0  0  0  0  0  0  0  0  0  0
   44.7700   33.2900   42.8990 C   0  0  0  0  0  0  0  0  0  0  0  0
   45.7180   33.9490   43.7090 C   0  0  0  0  0  0  0  0  0  0  0  0
   45.6010   35.3240   43.5750 C   0  0  0  0  0  0  0  0  0  0  0  0
   44.7600   36.0460   42.8210 C   0  0  0  0  0  0  0  0  0  0  0  0
   43.8780   35.3310   42.0700 C   0  0  0  0  0  0  0  0  0  0  0  0
   43.8600   33.9710   42.0900 C   0  0  0  0  0  0  0  0  0  0  0  0
   46.2540   35.9950   44.1740 H   0  0  0  0  0  0  0  0  0  0  0  0
   44.7150   37.1220   42.7520 H   0  0  0  0  0  0  0  0  0  0  0  0
   43.1210   35.7360   41.3990 H   0  0  0  0  0  0  0  0  0  0  0  0
   41.6830   34.8920   40.1540 O   0  0  0  0  0  0  0  0  0  0  0  0
   41.6960   33.8750   40.9280 C   0  0  0  0  0  0  0  0  0  0  0  0
   42.9350   33.1040   41.3080 C   0  0  2  0  0  0  0  0  0  0  0  0
   42.3680   31.9580   42.0410 C   0  0  0  0  0  0  0  0  0  0  0  0
   42.3420   32.0570   43.1440 H   0  0  0  0  0  0  0  0  0  0  0  0
   40.9020   31.8460   41.6530 C   0  0  0  0  0  0  0  0  0  0  0  0
   40.8350   31.4090   40.6180 H   0  0  0  0  0  0  0  0  0  0  0  0
   40.5590   33.2720   41.5820 N   0  0  0  0  0  0  0  0  0  0  0  0
   39.7210   33.8130   41.8990 H   0  0  0  0  0  0  0  0  0  0  0  0
   46.7280   33.3080   44.5900 C   0  0  0  0  0  0  0  0  0  0  0  0
   46.2180   33.5770   45.6500 O   0  0  0  0  0  0  0  0  0  0  0  0
   47.7750   32.7070   43.7520 C   0  0  0  0  0  0  0  0  0  0  0  0
   48.5500   33.3470   42.8660 C   0  0  0  0  0  0  0  0  0  0  0  0
   49.3820   32.5210   42.1370 C   0  0  0  0  0  0  0  0  0  0  0  0
   49.3480   31.1390   42.3840 N   0  0  0  0  0  0  0  0  0  0  0  0
   48.5630   30.5850   43.2740 C   0  0  0  0  0  0  0  0  0  0  0  0
   47.7130   31.3760   44.0220 N   0  0  0  0  0  0  0  0  0  0  0  0
   50.0730   32.8720   41.3750 H   0  0  0  0  0  0  0  0  0  0  0  0
   48.6520   29.5060   43.3510 H   0  0  0  0  0  0  0  0  0  0  0  0
   48.6690   34.7500   42.7010 C   0  0  0  0  0  0  0  0  0  0  0  0
   49.6690   35.4530   42.1030 C   0  0  0  0  0  0  0  0  0  0  0  0
   48.4520   35.3140   41.2290 C   0  0  0  0  0  0  0  0  0  0  0  0
   48.1710   35.3430   43.4920 H   0  0  0  0  0  0  0  0  0  0  0  0
   50.5660   34.9100   41.6800 H   0  0  0  0  0  0  0  0  0  0  0  0
   49.9560   36.5220   42.2210 H   0  0  0  0  0  0  0  0  0  0  0  0
   47.7040   36.1160   41.1850 H   0  0  0  0  0  0  0  0  0  0  0  0
   48.4360   34.5070   40.4640 H   0  0  0  0  0  0  0  0  0  0  0  0
  2  1  1  0  0  0  0
  2  3  1  0  0  0  0
  3 20  1  0  0  0  0
  4  3  2  0  0  0  0
  4  8  1  0  0  0  0
  5  4  1  0  0  0  0
  6  7  1  0  0  0  0
  6  5  2  0  0  0  0
  7  2  2  0  0  0  0
  9  5  1  0  0  0  0
 10  6  1  0  0  0  0
 11 12  2  0  0  0  0
 12 13  1  0  0  0  0
 12 18  1  0  0  0  0
 13 14  1  0  0  0  0
 13  7  1  1  0  0  0
 14 15  1  0  0  0  0
 16 14  1  0  0  0  0
 17 16  1  0  0  0  0
 18 16  1  0  0  0  0
 18 19  1  0  0  0  0
 20 21  2  0  0  0  0
 22 27  1  0  0  0  0
 22 20  1  0  0  0  0
 23 22  2  0  0  0  0
 24 25  2  0  0  0  0
 24 23  1  0  0  0  0
 25 26  1  0  0  0  0
 26 29  1  0  0  0  0
 26 27  2  0  0  0  0
 28 24  1  0  0  0  0
 30 23  1  0  0  0  0
 30 33  1  0  0  0  0
 31 35  1  0  0  0  0
 31 30  1  0  0  0  0
 32 31  1  0  0  0  0
 32 30  1  0  0  0  0
 34 31  1  0  0  0  0
 36 32  1  0  0  0  0
 37 32  1  0  0  0  0
M  END
>  <minimizedAffinity>
-5.74695063

>  <minimizedRMSD>
0.321719319

$$$$
