
 OpenBabel03252501313D

 20 21  0  0  1  0  0  0  0  0999 V2000
   46.4640   34.5810   42.1260 C   0  0  0  0  0  0  0  0  0  0  0  0
   46.5220   34.2800   40.7650 C   0  0  0  0  0  0  0  0  0  0  0  0
   47.7740   34.1760   40.1580 C   0  0  0  0  0  0  0  0  0  0  0  0
   48.8560   34.3740   40.9310 N   0  0  0  0  0  0  0  0  0  0  0  0
   48.7890   34.6660   42.2530 C   0  0  0  0  0  0  0  0  0  0  0  0
   47.5840   34.7700   42.8550 N   0  0  0  0  0  0  0  0  0  0  0  0
   47.7790   33.9450   39.1180 H   0  0  0  0  0  0  0  0  0  0  0  0
   49.7010   34.8130   42.8130 H   0  0  0  0  0  0  0  0  0  0  0  0
   45.3680   32.5440   43.6910 O   0  0  0  0  0  0  0  0  0  0  0  0
   45.1080   33.7210   43.9660 C   0  0  0  0  0  0  0  0  0  0  0  0
   45.1900   34.7140   42.8710 C   0  0  1  0  0  3  0  0  0  0  0  0
   45.1620   36.0630   43.5240 C   0  0  0  0  0  3  0  0  0  0  0  0
   46.2000   36.4950   43.6340 H   0  0  0  0  0  0  0  0  0  0  0  0
   44.5200   35.8460   44.8550 C   0  0  0  0  0  3  0  0  0  0  0  0
   44.9910   36.4590   45.6740 H   0  0  0  0  0  0  0  0  0  0  0  0
   44.7220   34.4560   45.1120 N   0  0  0  0  0  0  0  0  0  0  0  0
   44.6150   33.9580   46.0360 H   0  0  0  0  0  0  0  0  0  0  0  0
   45.2660   34.1030   40.1120 N   0  0  0  0  0  0  0  0  0  0  0  0
   44.6440   34.8000   39.6210 H   0  0  0  0  0  0  0  0  0  0  0  0
   45.1610   33.0750   40.2750 H   0  0  0  0  0  0  0  0  0  0  0  0
  1  6  1  0  0  0  0
  2  1  2  0  0  0  0
  3  2  1  0  0  0  0
  3  4  2  0  0  0  0
  4  5  1  0  0  0  0
  5  8  1  0  0  0  0
  5  6  2  0  0  0  0
  7  3  1  0  0  0  0
  9 10  2  0  0  0  0
 10 16  1  0  0  0  0
 11  1  1  1  0  0  0
 11 12  1  0  0  0  0
 11 10  1  0  0  0  0
 12 13  1  0  0  0  0
 12 14  1  0  0  0  0
 14 16  1  0  0  0  0
 14 15  1  0  0  0  0
 16 17  1  0  0  0  0
 18 20  1  0  0  0  0
 18  2  1  0  0  0  0
 19 18  1  0  0  0  0
M  END
>  <minimizedAffinity>
-4.29785156

>  <minimizedRMSD>
4.03911972

$$$$
