
 OpenBabel03252506313D

 32 34  0  0  1  0  0  0  0  0999 V2000
   44.4890   35.6960   45.0400 C   0  0  0  0  0  0  0  0  0  0  0  0
   45.1450   35.6190   43.7990 C   0  0  0  0  0  0  0  0  0  0  0  0
   46.0550   34.5870   43.5830 C   0  0  0  0  0  0  0  0  0  0  0  0
   46.2440   33.7180   44.6010 N   0  0  0  0  0  0  0  0  0  0  0  0
   45.6140   33.8050   45.7700 C   0  0  0  0  0  0  0  0  0  0  0  0
   44.7390   34.7830   46.0020 N   0  0  0  0  0  0  0  0  0  0  0  0
   45.8750   32.8360   46.7680 N   0  0  0  0  0  0  0  0  0  0  0  0
   45.0320   32.5670   47.9250 C   0  0  0  0  0  0  0  0  0  0  0  0
   46.0760   32.2360   48.9720 C   0  0  0  0  0  0  0  0  0  0  0  0
   47.3860   32.0390   48.2680 C   0  0  0  0  0  0  0  0  0  0  0  0
   47.0150   31.9270   46.8400 C   0  0  1  0  0  0  0  0  0  0  0  0
   43.7780   36.4660   45.2640 H   0  0  0  0  0  0  0  0  0  0  0  0
   46.5200   34.5780   42.6340 H   0  0  0  0  0  0  0  0  0  0  0  0
   44.4240   33.4600   48.1870 H   0  0  0  0  0  0  0  0  0  0  0  0
   44.3190   31.7380   47.7530 H   0  0  0  0  0  0  0  0  0  0  0  0
   45.7800   31.3380   49.5760 H   0  0  0  0  0  0  0  0  0  0  0  0
   46.1180   33.0840   49.6970 H   0  0  0  0  0  0  0  0  0  0  0  0
   47.8530   31.0710   48.6160 H   0  0  0  0  0  0  0  0  0  0  0  0
   48.1130   32.8710   48.4620 H   0  0  0  0  0  0  0  0  0  0  0  0
   47.8110   32.3250   46.1800 H   0  0  0  0  0  0  0  0  0  0  0  0
   46.3550   30.6550   44.0840 O   0  0  0  0  0  0  0  0  0  0  0  0
   47.1240   30.2840   45.0190 C   0  0  0  0  0  0  0  0  0  0  0  0
   46.6590   30.5390   46.3930 C   0  0  1  0  0  3  0  0  0  0  0  0
   47.5470   29.5880   47.2040 C   0  0  0  0  0  3  0  0  0  0  0  0
   47.7900   30.0260   48.1870 H   0  0  0  0  0  0  0  0  0  0  0  0
   48.8450   29.5090   46.4160 C   0  0  0  0  0  3  0  0  0  0  0  0
   49.3710   28.5580   46.5470 H   0  0  0  0  0  0  0  0  0  0  0  0
   48.4110   29.6370   45.0350 N   0  0  0  0  0  0  0  0  0  0  0  0
   48.7810   29.3900   44.0910 H   0  0  0  0  0  0  0  0  0  0  0  0
   44.7780   36.6450   42.8680 N   0  0  0  0  0  0  0  0  0  0  0  0
   43.9820   36.2030   42.3490 H   0  0  0  0  0  0  0  0  0  0  0  0
   45.3000   37.5620   42.8540 H   0  0  0  0  0  0  0  0  0  0  0  0
  1 12  1  0  0  0  0
  1  6  1  0  0  0  0
  2  1  2  0  0  0  0
  3  2  1  0  0  0  0
  3  4  2  0  0  0  0
  4  5  1  0  0  0  0
  5  6  2  0  0  0  0
  5  7  1  0  0  0  0
  7 11  1  0  0  0  0
  7  8  1  0  0  0  0
  8 14  1  0  0  0  0
  8  9  1  0  0  0  0
  9 16  1  0  0  0  0
  9 17  1  0  0  0  0
 10 19  1  0  0  0  0
 10 18  1  0  0  0  0
 10  9  1  0  0  0  0
 11 20  1  6  0  0  0
 11 10  1  0  0  0  0
 13  3  1  0  0  0  0
 15  8  1  0  0  0  0
 21 22  2  0  0  0  0
 22 28  1  0  0  0  0
 23 22  1  6  0  0  0
 23 11  1  0  0  0  0
 23 24  1  0  0  0  0
 24 25  1  0  0  0  0
 26 27  1  0  0  0  0
 26 24  1  0  0  0  0
 28 26  1  0  0  0  0
 29 28  1  0  0  0  0
 30  2  1  0  0  0  0
 31 30  1  0  0  0  0
 32 30  1  0  0  0  0
M  END
>  <minimizedAffinity>
-5.38369846

>  <minimizedRMSD>
0.287380606

$$$$
