
 OpenBabel03242511223D

 39 42  0  0  1  0  0  0  0  0999 V2000
   38.8640   31.4080   40.4990 C   0  0  0  0  0  0  0  0  0  0  0  0
   38.1060   31.8950   41.1030 H   0  0  0  0  0  0  0  0  0  0  0  0
   39.5350   32.2370   40.1290 H   0  0  0  0  0  0  0  0  0  0  0  0
   38.4370   30.6590   39.3350 C   0  0  0  0  0  0  0  0  0  0  0  0
   37.2360   30.1960   39.2600 C   0  0  0  0  0  0  0  0  0  0  0  0
   36.8030   29.4630   38.1320 N   0  0  0  0  0  0  0  0  0  0  0  0
   35.7850   29.2550   37.1280 C   0  0  0  0  0  0  0  0  0  0  0  0
   34.5300   29.4250   37.0770 O   0  0  0  0  0  0  0  0  0  0  0  0
   36.9030   28.7730   36.2510 C   0  0  0  0  0  0  0  0  0  0  0  0
   37.6000   28.3650   37.5400 C   0  0  1  0  0  0  0  0  0  0  0  0
   39.3370   28.7680   37.6690 S   0  0  0  0  0  0  0  0  0  0  0  0
   39.4600   30.4790   38.2840 C   0  0  0  0  0  0  0  0  0  0  0  0
   36.5340   27.9640   35.6190 H   0  0  0  0  0  0  0  0  0  0  0  0
   37.4320   29.6070   35.7480 H   0  0  0  0  0  0  0  0  0  0  0  0
   37.2750   27.4050   37.9400 H   0  0  0  0  0  0  0  0  0  0  0  0
   39.2620   31.1720   37.4190 H   0  0  0  0  0  0  0  0  0  0  0  0
   40.4990   30.5750   38.6470 H   0  0  0  0  0  0  0  0  0  0  0  0
   36.2870   30.4240   40.3540 C   0  0  0  0  0  0  0  0  0  0  0  0
   35.5100   29.5350   40.8400 O   0  0  0  0  0  0  0  0  0  0  0  0
   35.5330   30.9400   41.3540 O   0  0  0  0  0  0  0  0  0  0  0  0
   35.3130   31.8840   41.5730 H   0  0  0  0  0  0  0  0  0  0  0  0
   39.9680   30.3800   41.5600 S   0  0  0  0  0  0  0  0  0  0  0  0
   37.4000   28.1630   43.7890 C   0  0  0  0  0  0  0  0  0  0  0  0
   38.1620   29.2590   43.3160 C   0  0  0  0  0  0  0  0  0  0  0  0
   38.9890   29.0450   42.1990 C   0  0  0  0  0  0  0  0  0  0  0  0
   38.9980   27.8200   41.6630 N   0  0  0  0  0  0  0  0  0  0  0  0
   38.2660   26.7880   42.1270 C   0  0  0  0  0  0  0  0  0  0  0  0
   37.4660   26.9590   43.1910 N   0  0  0  0  0  0  0  0  0  0  0  0
   36.7980   28.4370   44.6530 H   0  0  0  0  0  0  0  0  0  0  0  0
   38.1350   30.2270   43.7640 H   0  0  0  0  0  0  0  0  0  0  0  0
   39.7120   24.2590   43.2610 O   0  0  0  0  0  0  0  0  0  0  0  0
   38.9430   24.4040   42.2850 C   0  0  0  0  0  0  0  0  0  0  0  0
   38.3140   25.4680   41.5000 C   0  0  1  0  0  3  0  0  0  0  0  0
   36.9210   24.8690   41.2710 C   0  0  0  0  0  3  0  0  0  0  0  0
   36.4680   24.7240   42.2560 H   0  0  0  0  0  0  0  0  0  0  0  0
   37.3780   23.5250   40.6880 C   0  0  0  0  0  3  0  0  0  0  0  0
   36.5870   22.7770   40.6570 H   0  0  0  0  0  0  0  0  0  0  0  0
   38.4490   23.2100   41.6400 N   0  0  0  0  0  0  0  0  0  0  0  0
   38.7050   22.1920   41.7230 H   0  0  0  0  0  0  0  0  0  0  0  0
  1  2  1  0  0  0  0
  1 22  1  0  0  0  0
  3  1  1  0  0  0  0
  4  1  1  0  0  0  0
  5  4  2  0  0  0  0
  5 18  1  0  0  0  0
  6  5  1  0  0  0  0
  7  6  1  0  0  0  0
  8  7  2  0  0  0  0
  9  7  1  0  0  0  0
  9 10  1  0  0  0  0
 10 11  1  0  0  0  0
 10 15  1  1  0  0  0
 10  6  1  0  0  0  0
 11 12  1  0  0  0  0
 12 17  1  0  0  0  0
 12  4  1  0  0  0  0
 13  9  1  0  0  0  0
 14  9  1  0  0  0  0
 16 12  1  0  0  0  0
 18 19  2  0  0  0  0
 18 20  1  0  0  0  0
 20 21  1  0  0  0  0
 22 25  1  0  0  0  0
 23 29  1  0  0  0  0
 24 30  1  0  0  0  0
 24 23  1  0  0  0  0
 25 24  2  0  0  0  0
 26 27  2  0  0  0  0
 26 25  1  0  0  0  0
 27 28  1  0  0  0  0
 28 23  2  0  0  0  0
 32 31  2  0  0  0  0
 33 27  1  1  0  0  0
 33 32  1  0  0  0  0
 34 33  1  0  0  0  0
 34 35  1  0  0  0  0
 36 34  1  0  0  0  0
 36 38  1  0  0  0  0
 37 36  1  0  0  0  0
 38 39  1  0  0  0  0
 38 32  1  0  0  0  0
M  END
>  <minimizedAffinity>
-6.12067556

$$$$

 OpenBabel03242511223D

 39 42  0  0  1  0  0  0  0  0999 V2000
   38.7600   30.0100   42.6050 C   0  0  0  0  0  0  0  0  0  0  0  0
   39.1110   30.8720   43.1620 H   0  0  0  0  0  0  0  0  0  0  0  0
   37.7190   29.8030   42.9910 H   0  0  0  0  0  0  0  0  0  0  0  0
   39.5040   28.7730   42.7140 C   0  0  0  0  0  0  0  0  0  0  0  0
   38.9280   27.6980   43.1320 C   0  0  0  0  0  0  0  0  0  0  0  0
   39.6400   26.4820   43.2440 N   0  0  0  0  0  0  0  0  0  0  0  0
   39.6800   25.0620   42.9810 C   0  0  0  0  0  0  0  0  0  0  0  0
   38.8090   24.1490   42.8590 O   0  0  0  0  0  0  0  0  0  0  0  0
   41.1710   25.2240   42.9330 C   0  0  0  0  0  0  0  0  0  0  0  0
   40.9710   26.3940   43.8850 C   0  0  1  0  0  0  0  0  0  0  0  0
   41.8940   27.8810   43.5250 S   0  0  0  0  0  0  0  0  0  0  0  0
   40.9270   28.8500   42.3220 C   0  0  0  0  0  0  0  0  0  0  0  0
   41.6390   24.3300   43.3500 H   0  0  0  0  0  0  0  0  0  0  0  0
   41.5260   25.5630   41.9400 H   0  0  0  0  0  0  0  0  0  0  0  0
   40.8670   26.1070   44.9320 H   0  0  0  0  0  0  0  0  0  0  0  0
   41.0810   28.3900   41.3050 H   0  0  0  0  0  0  0  0  0  0  0  0
   41.3530   29.8680   42.3710 H   0  0  0  0  0  0  0  0  0  0  0  0
   37.5100   27.7160   43.5000 C   0  0  0  0  0  0  0  0  0  0  0  0
   36.6100   26.9860   42.9640 O   0  0  0  0  0  0  0  0  0  0  0  0
   36.2990   27.9620   44.0550 O   0  0  0  0  0  0  0  0  0  0  0  0
   35.9780   28.7420   44.5800 H   0  0  0  0  0  0  0  0  0  0  0  0
   38.4990   30.4530   40.8330 S   0  0  0  0  0  0  0  0  0  0  0  0
   39.1440   34.4420   40.4410 C   0  0  0  0  0  0  0  0  0  0  0  0
   38.4900   33.2040   40.6600 C   0  0  0  0  0  0  0  0  0  0  0  0
   39.2620   32.0330   40.5680 C   0  0  0  0  0  0  0  0  0  0  0  0
   40.5610   32.1700   40.2800 N   0  0  0  0  0  0  0  0  0  0  0  0
   41.1660   33.3570   40.0740 C   0  0  0  0  0  0  0  0  0  0  0  0
   40.4580   34.4930   40.1540 N   0  0  0  0  0  0  0  0  0  0  0  0
   38.4570   35.2800   40.5350 H   0  0  0  0  0  0  0  0  0  0  0  0
   37.4500   33.1250   40.8890 H   0  0  0  0  0  0  0  0  0  0  0  0
   42.4050   34.3720   37.3890 O   0  0  0  0  0  0  0  0  0  0  0  0
   42.9330   34.0780   38.4840 C   0  0  0  0  0  0  0  0  0  0  0  0
   42.5920   33.4470   39.7610 C   0  0  1  0  0  3  0  0  0  0  0  0
   43.3570   34.3490   40.7380 C   0  0  0  0  0  3  0  0  0  0  0  0
   42.9530   35.3590   40.6250 H   0  0  0  0  0  0  0  0  0  0  0  0
   44.7330   34.2430   40.0670 C   0  0  0  0  0  3  0  0  0  0  0  0
   45.4400   34.9960   40.4130 H   0  0  0  0  0  0  0  0  0  0  0  0
   44.3240   34.4180   38.6680 N   0  0  0  0  0  0  0  0  0  0  0  0
   45.0730   34.7550   38.0100 H   0  0  0  0  0  0  0  0  0  0  0  0
  1  4  1  0  0  0  0
  1  3  1  0  0  0  0
  1  2  1  0  0  0  0
  4  5  2  0  0  0  0
  5  6  1  0  0  0  0
  5 18  1  0  0  0  0
  6 10  1  0  0  0  0
  7  6  1  0  0  0  0
  8  7  2  0  0  0  0
  9  7  1  0  0  0  0
  9 13  1  0  0  0  0
  9 10  1  0  0  0  0
 10 15  1  1  0  0  0
 11 10  1  0  0  0  0
 12 17  1  0  0  0  0
 12  4  1  0  0  0  0
 12 11  1  0  0  0  0
 14  9  1  0  0  0  0
 16 12  1  0  0  0  0
 18 20  1  0  0  0  0
 19 18  2  0  0  0  0
 20 21  1  0  0  0  0
 22  1  1  0  0  0  0
 23 29  1  0  0  0  0
 23 24  1  0  0  0  0
 24 30  1  0  0  0  0
 25 24  2  0  0  0  0
 25 22  1  0  0  0  0
 26 25  1  0  0  0  0
 27 28  1  0  0  0  0
 27 26  2  0  0  0  0
 28 23  2  0  0  0  0
 31 32  2  0  0  0  0
 32 38  1  0  0  0  0
 32 33  1  0  0  0  0
 33 27  1  1  0  0  0
 33 34  1  0  0  0  0
 35 34  1  0  0  0  0
 36 37  1  0  0  0  0
 36 34  1  0  0  0  0
 38 36  1  0  0  0  0
 39 38  1  0  0  0  0
M  END
>  <minimizedAffinity>
-6.10230732

$$$$

 OpenBabel03242511223D

 39 42  0  0  1  0  0  0  0  0999 V2000
   35.5420   28.9600   38.4230 C   0  0  0  0  0  0  0  0  0  0  0  0
   35.1980   29.9280   38.7720 H   0  0  0  0  0  0  0  0  0  0  0  0
   34.6440   28.4770   37.9370 H   0  0  0  0  0  0  0  0  0  0  0  0
   36.0500   28.0200   39.3990 C   0  0  0  0  0  0  0  0  0  0  0  0
   36.3040   28.4020   40.6050 C   0  0  0  0  0  0  0  0  0  0  0  0
   36.8010   27.4980   41.5700 N   0  0  0  0  0  0  0  0  0  0  0  0
   36.7090   26.9730   42.9120 C   0  0  0  0  0  0  0  0  0  0  0  0
   36.3380   27.4370   44.0320 O   0  0  0  0  0  0  0  0  0  0  0  0
   37.2390   25.6940   42.3320 C   0  0  0  0  0  0  0  0  0  0  0  0
   37.9220   26.5710   41.2920 C   0  0  1  0  0  0  0  0  0  0  0  0
   37.8190   26.0210   39.5950 S   0  0  0  0  0  0  0  0  0  0  0  0
   36.2470   26.6400   38.9110 C   0  0  0  0  0  0  0  0  0  0  0  0
   37.8880   25.2130   43.0660 H   0  0  0  0  0  0  0  0  0  0  0  0
   36.4400   25.0740   41.8800 H   0  0  0  0  0  0  0  0  0  0  0  0
   38.8640   27.0080   41.6240 H   0  0  0  0  0  0  0  0  0  0  0  0
   35.4220   25.9690   39.2810 H   0  0  0  0  0  0  0  0  0  0  0  0
   36.3670   26.5630   37.8150 H   0  0  0  0  0  0  0  0  0  0  0  0
   36.0780   29.7950   41.0000 C   0  0  0  0  0  0  0  0  0  0  0  0
   36.9800   30.5790   41.4480 O   0  0  0  0  0  0  0  0  0  0  0  0
   35.5600   31.0160   41.2750 O   0  0  0  0  0  0  0  0  0  0  0  0
   34.6190   31.2970   41.4250 H   0  0  0  0  0  0  0  0  0  0  0  0
   36.7420   29.1670   37.0370 S   0  0  0  0  0  0  0  0  0  0  0  0
   40.6180   29.2220   38.2440 C   0  0  0  0  0  0  0  0  0  0  0  0
   39.4020   28.7920   37.6570 C   0  0  0  0  0  0  0  0  0  0  0  0
   38.2930   29.6500   37.7530 C   0  0  0  0  0  0  0  0  0  0  0  0
   38.4630   30.8130   38.3910 N   0  0  0  0  0  0  0  0  0  0  0  0
   39.6290   31.2050   38.9430 C   0  0  0  0  0  0  0  0  0  0  0  0
   40.7060   30.4100   38.8700 N   0  0  0  0  0  0  0  0  0  0  0  0
   41.4070   28.4850   38.1120 H   0  0  0  0  0  0  0  0  0  0  0  0
   39.2940   27.8570   37.1530 H   0  0  0  0  0  0  0  0  0  0  0  0
   41.4270   33.6020   38.0480 O   0  0  0  0  0  0  0  0  0  0  0  0
   40.5630   33.5060   38.9480 C   0  0  0  0  0  0  0  0  0  0  0  0
   39.7590   32.4890   39.6300 C   0  0  1  0  0  3  0  0  0  0  0  0
   38.4220   33.2280   39.7670 C   0  0  0  0  0  3  0  0  0  0  0  0
   38.0760   33.4550   38.7550 H   0  0  0  0  0  0  0  0  0  0  0  0
   38.9640   34.4930   40.4460 C   0  0  0  0  0  3  0  0  0  0  0  0
   38.2560   35.3200   40.4420 H   0  0  0  0  0  0  0  0  0  0  0  0
   40.1420   34.7230   39.6010 N   0  0  0  0  0  0  0  0  0  0  0  0
   40.5090   35.7100   39.5860 H   0  0  0  0  0  0  0  0  0  0  0  0
  1  2  1  0  0  0  0
  1  4  1  0  0  0  0
  3  1  1  0  0  0  0
  4  5  2  0  0  0  0
  5 18  1  0  0  0  0
  5  6  1  0  0  0  0
  6  7  1  0  0  0  0
  7  8  2  0  0  0  0
  9  7  1  0  0  0  0
  9 13  1  0  0  0  0
 10  6  1  0  0  0  0
 10 15  1  1  0  0  0
 10  9  1  0  0  0  0
 11 10  1  0  0  0  0
 12 16  1  0  0  0  0
 12  4  1  0  0  0  0
 12 11  1  0  0  0  0
 14  9  1  0  0  0  0
 17 12  1  0  0  0  0
 18 20  1  0  0  0  0
 18 19  2  0  0  0  0
 20 21  1  0  0  0  0
 22 25  1  0  0  0  0
 22  1  1  0  0  0  0
 23 28  1  0  0  0  0
 24 25  1  0  0  0  0
 24 23  2  0  0  0  0
 25 26  2  0  0  0  0
 26 27  1  0  0  0  0
 28 27  2  0  0  0  0
 29 23  1  0  0  0  0
 30 24  1  0  0  0  0
 31 32  2  0  0  0  0
 32 38  1  0  0  0  0
 32 33  1  0  0  0  0
 33 27  1  6  0  0  0
 33 34  1  0  0  0  0
 34 36  1  0  0  0  0
 35 34  1  0  0  0  0
 37 36  1  0  0  0  0
 38 36  1  0  0  0  0
 39 38  1  0  0  0  0
M  END
>  <minimizedAffinity>
-6.0913043

$$$$

 OpenBabel03242511223D

 39 42  0  0  1  0  0  0  0  0999 V2000
   38.7550   29.8000   42.6790 C   0  0  0  0  0  0  0  0  0  0  0  0
   38.4830   30.8140   42.9530 H   0  0  0  0  0  0  0  0  0  0  0  0
   39.7560   29.6140   43.1660 H   0  0  0  0  0  0  0  0  0  0  0  0
   38.9020   29.4860   41.2740 C   0  0  0  0  0  0  0  0  0  0  0  0
   38.0100   29.8640   40.4220 C   0  0  0  0  0  0  0  0  0  0  0  0
   38.1390   29.5660   39.0460 N   0  0  0  0  0  0  0  0  0  0  0  0
   38.0780   30.0400   37.6840 C   0  0  0  0  0  0  0  0  0  0  0  0
   37.4320   30.9490   37.0800 O   0  0  0  0  0  0  0  0  0  0  0  0
   39.0970   28.9800   37.3840 C   0  0  0  0  0  0  0  0  0  0  0  0
   38.4930   28.2150   38.5530 C   0  0  1  0  0  0  0  0  0  0  0  0
   39.6460   27.4600   39.6910 S   0  0  0  0  0  0  0  0  0  0  0  0
   40.1160   28.7240   40.9160 C   0  0  0  0  0  0  0  0  0  0  0  0
   38.9070   28.5770   36.3870 H   0  0  0  0  0  0  0  0  0  0  0  0
   40.1300   29.3140   37.6060 H   0  0  0  0  0  0  0  0  0  0  0  0
   37.5910   27.6560   38.3040 H   0  0  0  0  0  0  0  0  0  0  0  0
   40.8800   29.4000   40.4380 H   0  0  0  0  0  0  0  0  0  0  0  0
   40.5540   28.1540   41.7550 H   0  0  0  0  0  0  0  0  0  0  0  0
   36.8360   30.6170   40.8690 C   0  0  0  0  0  0  0  0  0  0  0  0
   36.6240   31.8500   40.6170 O   0  0  0  0  0  0  0  0  0  0  0  0
   35.6660   31.0250   41.4170 O   0  0  0  0  0  0  0  0  0  0  0  0
   35.1230   30.6250   42.1460 H   0  0  0  0  0  0  0  0  0  0  0  0
   37.6280   28.5900   43.4970 S   0  0  0  0  0  0  0  0  0  0  0  0
   39.9830   25.2830   43.5100 C   0  0  0  0  0  0  0  0  0  0  0  0
   39.5000   26.5870   43.7850 C   0  0  0  0  0  0  0  0  0  0  0  0
   38.2850   26.9700   43.1910 C   0  0  0  0  0  0  0  0  0  0  0  0
   37.6700   26.0770   42.4070 N   0  0  0  0  0  0  0  0  0  0  0  0
   38.1460   24.8410   42.1570 C   0  0  0  0  0  0  0  0  0  0  0  0
   39.3020   24.4440   42.7080 N   0  0  0  0  0  0  0  0  0  0  0  0
   40.9250   25.0910   44.0170 H   0  0  0  0  0  0  0  0  0  0  0  0
   40.0120   27.2790   44.4150 H   0  0  0  0  0  0  0  0  0  0  0  0
   36.3610   25.5910   39.7010 O   0  0  0  0  0  0  0  0  0  0  0  0
   36.7640   24.4850   40.1240 C   0  0  0  0  0  0  0  0  0  0  0  0
   37.4310   23.9040   41.2920 C   0  0  1  0  0  3  0  0  0  0  0  0
   38.3630   22.8930   40.6130 C   0  0  0  0  0  3  0  0  0  0  0  0
   39.0340   23.4610   39.9620 H   0  0  0  0  0  0  0  0  0  0  0  0
   37.2970   22.1670   39.7820 C   0  0  0  0  0  3  0  0  0  0  0  0
   37.7160   21.5410   38.9960 H   0  0  0  0  0  0  0  0  0  0  0  0
   36.5620   23.3330   39.2770 N   0  0  0  0  0  0  0  0  0  0  0  0
   36.0060   23.1780   38.3970 H   0  0  0  0  0  0  0  0  0  0  0  0
  1  2  1  0  0  0  0
  1  3  1  0  0  0  0
  1 22  1  0  0  0  0
  4  1  1  0  0  0  0
  5 18  1  0  0  0  0
  5  4  2  0  0  0  0
  6  5  1  0  0  0  0
  7  6  1  0  0  0  0
  8  7  2  0  0  0  0
  9 14  1  0  0  0  0
  9  7  1  0  0  0  0
  9 10  1  0  0  0  0
 10 15  1  6  0  0  0
 10  6  1  0  0  0  0
 10 11  1  0  0  0  0
 11 12  1  0  0  0  0
 12  4  1  0  0  0  0
 12 17  1  0  0  0  0
 13  9  1  0  0  0  0
 16 12  1  0  0  0  0
 18 20  1  0  0  0  0
 19 18  2  0  0  0  0
 20 21  1  0  0  0  0
 23 24  1  0  0  0  0
 23 29  1  0  0  0  0
 24 30  1  0  0  0  0
 25 22  1  0  0  0  0
 25 24  2  0  0  0  0
 26 25  1  0  0  0  0
 27 26  2  0  0  0  0
 27 28  1  0  0  0  0
 28 23  2  0  0  0  0
 31 32  2  0  0  0  0
 32 33  1  0  0  0  0
 33 27  1  6  0  0  0
 34 33  1  0  0  0  0
 35 34  1  0  0  0  0
 36 34  1  0  0  0  0
 37 36  1  0  0  0  0
 38 36  1  0  0  0  0
 38 32  1  0  0  0  0
 39 38  1  0  0  0  0
M  END
>  <minimizedAffinity>
-5.99975157

$$$$

 OpenBabel03242511223D

 39 42  0  0  1  0  0  0  0  0999 V2000
   40.6620   29.4880   42.8260 C   0  0  0  0  0  0  0  0  0  0  0  0
   41.3840   29.8140   43.5670 H   0  0  0  0  0  0  0  0  0  0  0  0
   39.6810   29.9550   43.1340 H   0  0  0  0  0  0  0  0  0  0  0  0
   40.4260   28.0680   42.6750 C   0  0  0  0  0  0  0  0  0  0  0  0
   39.2560   27.5730   42.8940 C   0  0  0  0  0  0  0  0  0  0  0  0
   39.0080   26.1890   42.7510 N   0  0  0  0  0  0  0  0  0  0  0  0
   38.1580   25.1490   42.2210 C   0  0  0  0  0  0  0  0  0  0  0  0
   36.9230   25.0530   41.9490 O   0  0  0  0  0  0  0  0  0  0  0  0
   39.4010   24.3120   42.1630 C   0  0  0  0  0  0  0  0  0  0  0  0
   39.8990   25.1560   43.3280 C   0  0  1  0  0  0  0  0  0  0  0  0
   41.5910   25.7240   43.2340 S   0  0  0  0  0  0  0  0  0  0  0  0
   41.5990   27.2680   42.2660 C   0  0  0  0  0  0  0  0  0  0  0  0
   39.1420   23.2750   42.3880 H   0  0  0  0  0  0  0  0  0  0  0  0
   39.9920   24.4970   41.2440 H   0  0  0  0  0  0  0  0  0  0  0  0
   39.5270   24.8380   44.3020 H   0  0  0  0  0  0  0  0  0  0  0  0
   41.5280   26.9920   41.1770 H   0  0  0  0  0  0  0  0  0  0  0  0
   42.5700   27.7410   42.4990 H   0  0  0  0  0  0  0  0  0  0  0  0
   38.1490   28.4450   43.2980 C   0  0  0  0  0  0  0  0  0  0  0  0
   37.1840   28.0920   44.0540 O   0  0  0  0  0  0  0  0  0  0  0  0
   37.2870   29.4720   43.4880 O   0  0  0  0  0  0  0  0  0  0  0  0
   37.1530   30.3050   42.9630 H   0  0  0  0  0  0  0  0  0  0  0  0
   41.0300   30.2600   41.1910 S   0  0  0  0  0  0  0  0  0  0  0  0
   38.4930   33.3400   40.4430 C   0  0  0  0  0  0  0  0  0  0  0  0
   39.6530   32.6190   40.8230 C   0  0  0  0  0  0  0  0  0  0  0  0
   39.6090   31.2170   40.7300 C   0  0  0  0  0  0  0  0  0  0  0  0
   38.4750   30.6620   40.2890 N   0  0  0  0  0  0  0  0  0  0  0  0
   37.3810   31.3640   39.9310 C   0  0  0  0  0  0  0  0  0  0  0  0
   37.3900   32.7030   40.0090 N   0  0  0  0  0  0  0  0  0  0  0  0
   38.6350   34.4120   40.5540 H   0  0  0  0  0  0  0  0  0  0  0  0
   40.5450   33.0890   41.1720 H   0  0  0  0  0  0  0  0  0  0  0  0
   37.0720   29.7790   37.2540 O   0  0  0  0  0  0  0  0  0  0  0  0
   36.3020   29.9120   38.2300 C   0  0  0  0  0  0  0  0  0  0  0  0
   36.1670   30.7040   39.4550 C   0  0  1  0  0  3  0  0  0  0  0  0
   35.6490   29.6380   40.4280 C   0  0  0  0  0  3  0  0  0  0  0  0
   36.4170   28.8610   40.4910 H   0  0  0  0  0  0  0  0  0  0  0  0
   34.4640   29.1550   39.5810 C   0  0  0  0  0  3  0  0  0  0  0  0
   34.0480   28.2090   39.9230 H   0  0  0  0  0  0  0  0  0  0  0  0
   35.1320   29.0680   38.2770 N   0  0  0  0  0  0  0  0  0  0  0  0
   34.6830   28.4230   37.5750 H   0  0  0  0  0  0  0  0  0  0  0  0
  1  3  1  0  0  0  0
  1  2  1  0  0  0  0
  4  1  1  0  0  0  0
  4  5  2  0  0  0  0
  5 18  1  0  0  0  0
  6  5  1  0  0  0  0
  6 10  1  0  0  0  0
  7  6  1  0  0  0  0
  8  7  2  0  0  0  0
  9  7  1  0  0  0  0
  9 13  1  0  0  0  0
  9 10  1  0  0  0  0
 10 15  1  1  0  0  0
 11 10  1  0  0  0  0
 12 17  1  0  0  0  0
 12  4  1  0  0  0  0
 12 11  1  0  0  0  0
 14  9  1  0  0  0  0
 16 12  1  0  0  0  0
 18 20  1  0  0  0  0
 18 19  2  0  0  0  0
 21 20  1  0  0  0  0
 22  1  1  0  0  0  0
 23 29  1  0  0  0  0
 23 24  1  0  0  0  0
 24 30  1  0  0  0  0
 25 24  2  0  0  0  0
 25 22  1  0  0  0  0
 26 25  1  0  0  0  0
 27 28  1  0  0  0  0
 27 26  2  0  0  0  0
 28 23  2  0  0  0  0
 31 32  2  0  0  0  0
 32 38  1  0  0  0  0
 32 33  1  0  0  0  0
 33 27  1  1  0  0  0
 33 34  1  0  0  0  0
 34 35  1  0  0  0  0
 36 37  1  0  0  0  0
 36 34  1  0  0  0  0
 38 36  1  0  0  0  0
 39 38  1  0  0  0  0
M  END
>  <minimizedAffinity>
-5.79391575

$$$$

 OpenBabel03242511223D

 39 42  0  0  1  0  0  0  0  0999 V2000
   35.9860   29.3510   38.3650 C   0  0  0  0  0  0  0  0  0  0  0  0
   35.3000   30.1040   38.7390 H   0  0  0  0  0  0  0  0  0  0  0  0
   35.4400   28.8360   37.5220 H   0  0  0  0  0  0  0  0  0  0  0  0
   36.4310   28.3170   39.2750 C   0  0  0  0  0  0  0  0  0  0  0  0
   36.5190   28.5520   40.5400 C   0  0  0  0  0  0  0  0  0  0  0  0
   36.9510   27.5540   41.4420 N   0  0  0  0  0  0  0  0  0  0  0  0
   36.7340   26.8580   42.6890 C   0  0  0  0  0  0  0  0  0  0  0  0
   36.2080   27.1590   43.8030 O   0  0  0  0  0  0  0  0  0  0  0  0
   37.4020   25.6890   42.0270 C   0  0  0  0  0  0  0  0  0  0  0  0
   38.1490   26.7200   41.1940 C   0  0  1  0  0  0  0  0  0  0  0  0
   38.2780   26.3870   39.4430 S   0  0  0  0  0  0  0  0  0  0  0  0
   36.7640   27.0200   38.6500 C   0  0  0  0  0  0  0  0  0  0  0  0
   37.9880   25.1460   42.7710 H   0  0  0  0  0  0  0  0  0  0  0  0
   36.6990   25.0970   41.4080 H   0  0  0  0  0  0  0  0  0  0  0  0
   39.0190   27.1510   41.6900 H   0  0  0  0  0  0  0  0  0  0  0  0
   35.9410   26.2720   38.8320 H   0  0  0  0  0  0  0  0  0  0  0  0
   37.0150   27.0890   37.5770 H   0  0  0  0  0  0  0  0  0  0  0  0
   36.1680   29.8720   41.0710 C   0  0  0  0  0  0  0  0  0  0  0  0
   36.9420   30.6020   41.7760 O   0  0  0  0  0  0  0  0  0  0  0  0
   35.5570   31.0330   41.4090 O   0  0  0  0  0  0  0  0  0  0  0  0
   34.5930   31.2730   41.4220 H   0  0  0  0  0  0  0  0  0  0  0  0
   37.4290   30.1510   37.5400 S   0  0  0  0  0  0  0  0  0  0  0  0
   37.6960   33.5950   39.6720 C   0  0  0  0  0  0  0  0  0  0  0  0
   37.2000   32.5880   38.8080 C   0  0  0  0  0  0  0  0  0  0  0  0
   37.9970   31.4460   38.6110 C   0  0  0  0  0  0  0  0  0  0  0  0
   39.1680   31.3910   39.2550 N   0  0  0  0  0  0  0  0  0  0  0  0
   39.6240   32.3600   40.0740 C   0  0  0  0  0  0  0  0  0  0  0  0
   38.8880   33.4610   40.2830 N   0  0  0  0  0  0  0  0  0  0  0  0
   37.0040   34.4300   39.7530 H   0  0  0  0  0  0  0  0  0  0  0  0
   36.2600   32.6580   38.3070 H   0  0  0  0  0  0  0  0  0  0  0  0
   40.1330   31.0250   42.8550 O   0  0  0  0  0  0  0  0  0  0  0  0
   40.9240   31.4620   41.9900 C   0  0  0  0  0  0  0  0  0  0  0  0
   40.9130   32.2460   40.7530 C   0  0  1  0  0  3  0  0  0  0  0  0
   41.9560   31.4860   39.9250 C   0  0  0  0  0  3  0  0  0  0  0  0
   41.5840   30.4640   39.8000 H   0  0  0  0  0  0  0  0  0  0  0  0
   43.0920   31.5210   40.9560 C   0  0  0  0  0  3  0  0  0  0  0  0
   43.9000   30.8270   40.7310 H   0  0  0  0  0  0  0  0  0  0  0  0
   42.3270   31.1650   42.1570 N   0  0  0  0  0  0  0  0  0  0  0  0
   42.8840   30.7550   42.9510 H   0  0  0  0  0  0  0  0  0  0  0  0
  1  2  1  0  0  0  0
  1  4  1  0  0  0  0
  3  1  1  0  0  0  0
  4  5  2  0  0  0  0
  5 18  1  0  0  0  0
  5  6  1  0  0  0  0
  6  7  1  0  0  0  0
  7  8  2  0  0  0  0
  9  7  1  0  0  0  0
  9 13  1  0  0  0  0
 10  6  1  0  0  0  0
 10 15  1  1  0  0  0
 10  9  1  0  0  0  0
 11 10  1  0  0  0  0
 12 16  1  0  0  0  0
 12  4  1  0  0  0  0
 12 11  1  0  0  0  0
 14  9  1  0  0  0  0
 17 12  1  0  0  0  0
 18 20  1  0  0  0  0
 18 19  2  0  0  0  0
 20 21  1  0  0  0  0
 22  1  1  0  0  0  0
 22 25  1  0  0  0  0
 23 29  1  0  0  0  0
 23 28  1  0  0  0  0
 24 23  2  0  0  0  0
 25 24  1  0  0  0  0
 25 26  2  0  0  0  0
 26 27  1  0  0  0  0
 27 28  2  0  0  0  0
 30 24  1  0  0  0  0
 32 38  1  0  0  0  0
 32 31  2  0  0  0  0
 33 27  1  6  0  0  0
 33 32  1  0  0  0  0
 34 33  1  0  0  0  0
 34 36  1  0  0  0  0
 35 34  1  0  0  0  0
 36 38  1  0  0  0  0
 37 36  1  0  0  0  0
 38 39  1  0  0  0  0
M  END
>  <minimizedAffinity>
-5.75986385

$$$$

 OpenBabel03242511223D

 39 42  0  0  1  0  0  0  0  0999 V2000
   37.8150   29.0960   43.2110 C   0  0  0  0  0  0  0  0  0  0  0  0
   36.7650   29.3030   43.0370 H   0  0  0  0  0  0  0  0  0  0  0  0
   38.0270   29.4670   44.2570 H   0  0  0  0  0  0  0  0  0  0  0  0
   38.7900   29.7150   42.3380 C   0  0  0  0  0  0  0  0  0  0  0  0
   38.4140   30.5260   41.4090 C   0  0  0  0  0  0  0  0  0  0  0  0
   39.3530   31.1390   40.5480 N   0  0  0  0  0  0  0  0  0  0  0  0
   39.8210   32.3500   39.9160 C   0  0  0  0  0  0  0  0  0  0  0  0
   39.2770   33.4310   39.5370 O   0  0  0  0  0  0  0  0  0  0  0  0
   41.1780   31.7100   39.9420 C   0  0  0  0  0  0  0  0  0  0  0  0
   40.4380   30.3820   39.8830 C   0  0  1  0  0  0  0  0  0  0  0  0
   41.0160   29.0980   40.9850 S   0  0  0  0  0  0  0  0  0  0  0  0
   40.1980   29.3470   42.5950 C   0  0  0  0  0  0  0  0  0  0  0  0
   41.7260   32.0030   39.0440 H   0  0  0  0  0  0  0  0  0  0  0  0
   41.6910   31.8480   40.9140 H   0  0  0  0  0  0  0  0  0  0  0  0
   40.1310   30.0840   38.8810 H   0  0  0  0  0  0  0  0  0  0  0  0
   40.7330   30.1820   43.1280 H   0  0  0  0  0  0  0  0  0  0  0  0
   40.3230   28.3860   43.1260 H   0  0  0  0  0  0  0  0  0  0  0  0
   36.9930   30.8320   41.2270 C   0  0  0  0  0  0  0  0  0  0  0  0
   36.4880   31.3450   40.1730 O   0  0  0  0  0  0  0  0  0  0  0  0
   35.6550   30.9930   41.3640 O   0  0  0  0  0  0  0  0  0  0  0  0
   35.0910   31.0240   42.1820 H   0  0  0  0  0  0  0  0  0  0  0  0
   38.1020   27.2770   43.3160 S   0  0  0  0  0  0  0  0  0  0  0  0
   36.6670   24.6250   40.5980 C   0  0  0  0  0  0  0  0  0  0  0  0
   37.2240   25.1580   41.7870 C   0  0  0  0  0  0  0  0  0  0  0  0
   37.4090   26.5500   41.8530 C   0  0  0  0  0  0  0  0  0  0  0  0
   37.0470   27.2740   40.7880 N   0  0  0  0  0  0  0  0  0  0  0  0
   36.5180   26.7490   39.6650 C   0  0  0  0  0  0  0  0  0  0  0  0
   36.3280   25.4240   39.5690 N   0  0  0  0  0  0  0  0  0  0  0  0
   36.5680   23.5430   40.6530 H   0  0  0  0  0  0  0  0  0  0  0  0
   37.5040   24.5560   42.6220 H   0  0  0  0  0  0  0  0  0  0  0  0
   34.2670   28.9190   39.6460 O   0  0  0  0  0  0  0  0  0  0  0  0
   35.1400   28.6250   38.8000 C   0  0  0  0  0  0  0  0  0  0  0  0
   36.1380   27.5880   38.5290 C   0  0  1  0  0  3  0  0  0  0  0  0
   37.3010   28.4400   38.0060 C   0  0  0  0  0  3  0  0  0  0  0  0
   37.5860   29.1240   38.8120 H   0  0  0  0  0  0  0  0  0  0  0  0
   36.5230   29.1900   36.9170 C   0  0  0  0  0  3  0  0  0  0  0  0
   37.0500   30.0610   36.5330 H   0  0  0  0  0  0  0  0  0  0  0  0
   35.3140   29.5210   37.6810 N   0  0  0  0  0  0  0  0  0  0  0  0
   34.7560   30.3400   37.3240 H   0  0  0  0  0  0  0  0  0  0  0  0
  1 22  1  0  0  0  0
  1  3  1  0  0  0  0
  2  1  1  0  0  0  0
  4 12  1  0  0  0  0
  4  1  1  0  0  0  0
  5  4  2  0  0  0  0
  6  5  1  0  0  0  0
  7  9  1  0  0  0  0
  7  6  1  0  0  0  0
  8  7  2  0  0  0  0
  9 14  1  0  0  0  0
 10 15  1  6  0  0  0
 10  9  1  0  0  0  0
 10  6  1  0  0  0  0
 10 11  1  0  0  0  0
 11 12  1  0  0  0  0
 12 17  1  0  0  0  0
 12 16  1  0  0  0  0
 13  9  1  0  0  0  0
 18 20  1  0  0  0  0
 18  5  1  0  0  0  0
 19 18  2  0  0  0  0
 20 21  1  0  0  0  0
 23 29  1  0  0  0  0
 23 24  1  0  0  0  0
 24 25  2  0  0  0  0
 24 30  1  0  0  0  0
 25 22  1  0  0  0  0
 26 25  1  0  0  0  0
 27 26  2  0  0  0  0
 28 27  1  0  0  0  0
 28 23  2  0  0  0  0
 32 31  2  0  0  0  0
 33 32  1  0  0  0  0
 33 27  1  1  0  0  0
 34 33  1  0  0  0  0
 34 35  1  0  0  0  0
 36 38  1  0  0  0  0
 36 34  1  0  0  0  0
 37 36  1  0  0  0  0
 38 32  1  0  0  0  0
 39 38  1  0  0  0  0
M  END
>  <minimizedAffinity>
-5.73731804

$$$$

 OpenBabel03242511223D

 39 42  0  0  1  0  0  0  0  0999 V2000
   39.0610   30.6000   42.7050 C   0  0  0  0  0  0  0  0  0  0  0  0
   38.7650   30.9230   43.6970 H   0  0  0  0  0  0  0  0  0  0  0  0
   38.5320   31.2960   41.9890 H   0  0  0  0  0  0  0  0  0  0  0  0
   38.7370   29.2490   42.2970 C   0  0  0  0  0  0  0  0  0  0  0  0
   37.6320   29.0000   41.6790 C   0  0  0  0  0  0  0  0  0  0  0  0
   37.3010   27.6870   41.2740 N   0  0  0  0  0  0  0  0  0  0  0  0
   36.8210   26.8180   40.2250 C   0  0  0  0  0  0  0  0  0  0  0  0
   36.0480   26.9570   39.2290 O   0  0  0  0  0  0  0  0  0  0  0  0
   37.6500   25.7520   40.8790 C   0  0  0  0  0  0  0  0  0  0  0  0
   37.4280   26.5190   42.1740 C   0  0  1  0  0  0  0  0  0  0  0  0
   38.8570   26.7410   43.2240 S   0  0  0  0  0  0  0  0  0  0  0  0
   39.7430   28.2230   42.6390 C   0  0  0  0  0  0  0  0  0  0  0  0
   37.1350   24.7940   40.7850 H   0  0  0  0  0  0  0  0  0  0  0  0
   38.7110   25.7890   40.5610 H   0  0  0  0  0  0  0  0  0  0  0  0
   36.4740   26.3110   42.6600 H   0  0  0  0  0  0  0  0  0  0  0  0
   40.3360   27.9320   41.7260 H   0  0  0  0  0  0  0  0  0  0  0  0
   40.4060   28.5040   43.4760 H   0  0  0  0  0  0  0  0  0  0  0  0
   36.6920   30.0840   41.3820 C   0  0  0  0  0  0  0  0  0  0  0  0
   36.4330   30.5210   40.2120 O   0  0  0  0  0  0  0  0  0  0  0  0
   35.7830   31.0870   41.4350 O   0  0  0  0  0  0  0  0  0  0  0  0
   35.5090   31.6680   42.1920 H   0  0  0  0  0  0  0  0  0  0  0  0
   40.8510   30.9480   42.4250 S   0  0  0  0  0  0  0  0  0  0  0  0
   40.0540   32.6830   38.8420 C   0  0  0  0  0  0  0  0  0  0  0  0
   39.8790   32.1590   40.1470 C   0  0  0  0  0  0  0  0  0  0  0  0
   41.0070   31.6200   40.7900 C   0  0  0  0  0  0  0  0  0  0  0  0
   42.1670   31.6390   40.1240 N   0  0  0  0  0  0  0  0  0  0  0  0
   42.3140   32.1420   38.8820 C   0  0  0  0  0  0  0  0  0  0  0  0
   41.2580   32.6640   38.2410 N   0  0  0  0  0  0  0  0  0  0  0  0
   39.1220   33.0730   38.4400 H   0  0  0  0  0  0  0  0  0  0  0  0
   38.9400   32.1570   40.6550 H   0  0  0  0  0  0  0  0  0  0  0  0
   42.9680   30.7210   36.1750 O   0  0  0  0  0  0  0  0  0  0  0  0
   43.6360   31.5120   36.8770 C   0  0  0  0  0  0  0  0  0  0  0  0
   43.6070   32.1380   38.2000 C   0  0  1  0  0  3  0  0  0  0  0  0
   44.1030   33.5490   37.8590 C   0  0  0  0  0  3  0  0  0  0  0  0
   43.3860   33.9790   37.1540 H   0  0  0  0  0  0  0  0  0  0  0  0
   45.3890   33.1360   37.1310 C   0  0  0  0  0  3  0  0  0  0  0  0
   45.8350   33.9430   36.5520 H   0  0  0  0  0  0  0  0  0  0  0  0
   44.8510   32.0470   36.3070 N   0  0  0  0  0  0  0  0  0  0  0  0
   45.4030   31.8110   35.4420 H   0  0  0  0  0  0  0  0  0  0  0  0
  1  2  1  0  0  0  0
  3  1  1  0  0  0  0
  4 12  1  0  0  0  0
  4  1  1  0  0  0  0
  5  4  2  0  0  0  0
  6  5  1  0  0  0  0
  6 10  1  0  0  0  0
  7  9  1  0  0  0  0
  7  6  1  0  0  0  0
  8  7  2  0  0  0  0
  9 10  1  0  0  0  0
 10 15  1  1  0  0  0
 10 11  1  0  0  0  0
 12 11  1  0  0  0  0
 12 17  1  0  0  0  0
 13  9  1  0  0  0  0
 14  9  1  0  0  0  0
 16 12  1  0  0  0  0
 18 20  1  0  0  0  0
 18  5  1  0  0  0  0
 19 18  2  0  0  0  0
 20 21  1  0  0  0  0
 22  1  1  0  0  0  0
 23 24  1  0  0  0  0
 24 30  1  0  0  0  0
 24 25  2  0  0  0  0
 25 22  1  0  0  0  0
 26 25  1  0  0  0  0
 27 26  2  0  0  0  0
 28 23  2  0  0  0  0
 28 27  1  0  0  0  0
 29 23  1  0  0  0  0
 31 32  2  0  0  0  0
 32 33  1  0  0  0  0
 33 27  1  6  0  0  0
 34 33  1  0  0  0  0
 35 34  1  0  0  0  0
 36 34  1  0  0  0  0
 37 36  1  0  0  0  0
 38 32  1  0  0  0  0
 38 36  1  0  0  0  0
 39 38  1  0  0  0  0
M  END
>  <minimizedAffinity>
-5.66936159

$$$$

 OpenBabel03242511223D

 39 42  0  0  1  0  0  0  0  0999 V2000
   38.5440   30.8410   39.3280 C   0  0  0  0  0  0  0  0  0  0  0  0
   37.5740   30.7920   38.8460 H   0  0  0  0  0  0  0  0  0  0  0  0
   39.3010   30.6860   38.5040 H   0  0  0  0  0  0  0  0  0  0  0  0
   38.8440   29.8760   40.3650 C   0  0  0  0  0  0  0  0  0  0  0  0
   37.9550   29.5650   41.2460 C   0  0  0  0  0  0  0  0  0  0  0  0
   38.2310   28.6240   42.2640 N   0  0  0  0  0  0  0  0  0  0  0  0
   37.7990   27.4590   42.9990 C   0  0  0  0  0  0  0  0  0  0  0  0
   36.6750   26.9670   43.3180 O   0  0  0  0  0  0  0  0  0  0  0  0
   39.2600   27.1600   43.1720 C   0  0  0  0  0  0  0  0  0  0  0  0
   39.4720   28.6630   43.0710 C   0  0  1  0  0  0  0  0  0  0  0  0
   40.8250   29.2090   42.0380 S   0  0  0  0  0  0  0  0  0  0  0  0
   40.2050   29.3020   40.3260 C   0  0  0  0  0  0  0  0  0  0  0  0
   39.4170   26.7110   44.1540 H   0  0  0  0  0  0  0  0  0  0  0  0
   39.6870   26.6290   42.2980 H   0  0  0  0  0  0  0  0  0  0  0  0
   39.3000   29.2040   44.0020 H   0  0  0  0  0  0  0  0  0  0  0  0
   40.1810   28.2560   39.9110 H   0  0  0  0  0  0  0  0  0  0  0  0
   40.9420   29.9290   39.7930 H   0  0  0  0  0  0  0  0  0  0  0  0
   36.6290   30.1860   41.2070 C   0  0  0  0  0  0  0  0  0  0  0  0
   35.5370   29.5580   40.9980 O   0  0  0  0  0  0  0  0  0  0  0  0
   35.5730   31.0350   41.2320 O   0  0  0  0  0  0  0  0  0  0  0  0
   35.5390   32.0230   41.1280 H   0  0  0  0  0  0  0  0  0  0  0  0
   38.8780   32.5540   39.9240 S   0  0  0  0  0  0  0  0  0  0  0  0
   42.2690   34.6200   39.0800 C   0  0  0  0  0  0  0  0  0  0  0  0
   41.0220   34.2660   39.6520 C   0  0  0  0  0  0  0  0  0  0  0  0
   40.4400   33.0530   39.2440 C   0  0  0  0  0  0  0  0  0  0  0  0
   41.1040   32.3190   38.3440 N   0  0  0  0  0  0  0  0  0  0  0  0
   42.2900   32.6740   37.8110 C   0  0  0  0  0  0  0  0  0  0  0  0
   42.8730   33.8240   38.1790 N   0  0  0  0  0  0  0  0  0  0  0  0
   42.6280   35.5730   39.4640 H   0  0  0  0  0  0  0  0  0  0  0  0
   40.5140   34.8710   40.3690 H   0  0  0  0  0  0  0  0  0  0  0  0
   45.2260   31.6180   38.0120 O   0  0  0  0  0  0  0  0  0  0  0  0
   44.3060   31.3560   37.2060 C   0  0  0  0  0  0  0  0  0  0  0  0
   42.9730   31.8320   36.8300 C   0  0  1  0  0  3  0  0  0  0  0  0
   42.2530   30.4990   36.5870 C   0  0  0  0  0  3  0  0  0  0  0  0
   42.2720   29.9480   37.5320 H   0  0  0  0  0  0  0  0  0  0  0  0
   43.2640   29.9050   35.5980 C   0  0  0  0  0  3  0  0  0  0  0  0
   43.1330   28.8360   35.4390 H   0  0  0  0  0  0  0  0  0  0  0  0
   44.5060   30.2480   36.3020 N   0  0  0  0  0  0  0  0  0  0  0  0
   45.3460   29.6610   36.0610 H   0  0  0  0  0  0  0  0  0  0  0  0
  1 22  1  0  0  0  0
  1  4  1  0  0  0  0
  2  1  1  0  0  0  0
  3  1  1  0  0  0  0
  4  5  2  0  0  0  0
  5  6  1  0  0  0  0
  6  7  1  0  0  0  0
  6 10  1  0  0  0  0
  7  9  1  0  0  0  0
  7  8  2  0  0  0  0
  9 13  1  0  0  0  0
 10  9  1  0  0  0  0
 10 15  1  1  0  0  0
 11 10  1  0  0  0  0
 12  4  1  0  0  0  0
 12 11  1  0  0  0  0
 14  9  1  0  0  0  0
 16 12  1  0  0  0  0
 17 12  1  0  0  0  0
 18 20  1  0  0  0  0
 18  5  1  0  0  0  0
 19 18  2  0  0  0  0
 21 20  1  0  0  0  0
 23 29  1  0  0  0  0
 23 24  1  0  0  0  0
 24 30  1  0  0  0  0
 25 24  2  0  0  0  0
 25 22  1  0  0  0  0
 26 25  1  0  0  0  0
 27 28  1  0  0  0  0
 27 26  2  0  0  0  0
 28 23  2  0  0  0  0
 32 31  2  0  0  0  0
 33 32  1  0  0  0  0
 33 27  1  1  0  0  0
 34 33  1  0  0  0  0
 34 35  1  0  0  0  0
 36 38  1  0  0  0  0
 36 34  1  0  0  0  0
 37 36  1  0  0  0  0
 38 32  1  0  0  0  0
 39 38  1  0  0  0  0
M  END
>  <minimizedAffinity>
-5.61203861

$$$$
