
 OpenBabel03252508323D

 32 34  0  0  1  0  0  0  0  0999 V2000
   44.6900   34.3190   41.6550 N   0  0  0  0  0  0  0  0  0  0  0  0
   45.5460   33.4090   40.9820 C   0  0  1  0  0  0  0  0  0  0  0  0
   45.2280   33.2130   39.5320 C   0  0  0  0  0  0  0  0  0  0  0  0
   43.8740   33.2170   39.1760 N   0  0  0  0  0  0  0  0  0  0  0  0
   43.0590   34.1530   39.8310 C   0  0  0  0  0  0  0  0  0  0  0  0
   43.8130   35.0390   40.7730 C   0  0  0  0  0  0  0  0  0  0  0  0
   45.4650   32.4220   41.4830 H   0  0  0  0  0  0  0  0  0  0  0  0
   45.6860   34.1070   39.0130 H   0  0  0  0  0  0  0  0  0  0  0  0
   45.7270   32.2920   39.1680 H   0  0  0  0  0  0  0  0  0  0  0  0
   43.7270   33.0170   38.1880 H   0  0  0  0  0  0  0  0  0  0  0  0
   42.2420   33.6370   40.3650 H   0  0  0  0  0  0  0  0  0  0  0  0
   42.6370   34.8470   39.0460 H   0  0  0  0  0  0  0  0  0  0  0  0
   43.1230   35.7530   41.2480 H   0  0  0  0  0  0  0  0  0  0  0  0
   44.4590   35.6780   40.1130 H   0  0  0  0  0  0  0  0  0  0  0  0
   44.4100   35.6840   43.5810 C   0  0  0  0  0  0  0  0  0  0  0  0
   44.7760   34.4340   43.0510 C   0  0  0  0  0  0  0  0  0  0  0  0
   45.2010   33.4490   43.9250 C   0  0  0  0  0  0  0  0  0  0  0  0
   45.2670   33.6840   45.2660 N   0  0  0  0  0  0  0  0  0  0  0  0
   44.9070   34.9100   45.7600 C   0  0  0  0  0  0  0  0  0  0  0  0
   44.4890   35.8830   44.9300 N   0  0  0  0  0  0  0  0  0  0  0  0
   44.0590   36.5710   43.0800 H   0  0  0  0  0  0  0  0  0  0  0  0
   45.4700   32.4810   43.5300 H   0  0  0  0  0  0  0  0  0  0  0  0
   44.9590   35.0950   46.8230 H   0  0  0  0  0  0  0  0  0  0  0  0
   47.6920   34.1520   38.4620 O   0  0  0  0  0  0  0  0  0  0  0  0
   47.6480   33.9900   39.7240 C   0  0  0  0  0  0  0  0  0  0  0  0
   47.0030   33.7760   41.0380 C   0  0  2  0  0  3  0  0  0  0  0  0
   47.8680   32.6640   41.5830 C   0  0  0  0  0  3  0  0  0  0  0  0
   47.9140   31.7870   40.9330 H   0  0  0  0  0  0  0  0  0  0  0  0
   49.2380   33.3510   41.4480 C   0  0  0  0  0  3  0  0  0  0  0  0
   49.4220   34.0490   42.2730 H   0  0  0  0  0  0  0  0  0  0  0  0
   49.0290   34.0430   40.1640 N   0  0  0  0  0  0  0  0  0  0  0  0
   49.9810   34.4280   39.8630 H   0  0  0  0  0  0  0  0  0  0  0  0
  1 16  1  0  0  0  0
  2 26  1  0  0  0  0
  2  7  1  1  0  0  0
  2  1  1  0  0  0  0
  3  2  1  0  0  0  0
  4  3  1  0  0  0  0
  4  5  1  0  0  0  0
  5 11  1  0  0  0  0
  5  6  1  0  0  0  0
  6 13  1  0  0  0  0
  6  1  1  0  0  0  0
  8  3  1  0  0  0  0
  9  3  1  0  0  0  0
 10  4  1  0  0  0  0
 12  5  1  0  0  0  0
 14  6  1  0  0  0  0
 15 20  1  0  0  0  0
 16 15  2  0  0  0  0
 16 17  1  0  0  0  0
 17 18  2  0  0  0  0
 18 19  1  0  0  0  0
 19 23  1  0  0  0  0
 20 19  2  0  0  0  0
 21 15  1  0  0  0  0
 22 17  1  0  0  0  0
 24 25  2  0  0  0  0
 25 31  1  0  0  0  0
 26 25  1  6  0  0  0
 26 27  1  0  0  0  0
 28 27  1  0  0  0  0
 29 27  1  0  0  0  0
 29 30  1  0  0  0  0
 31 29  1  0  0  0  0
 32 31  1  0  0  0  0
M  END
>  <minimizedAffinity>
-4.48658228

>  <minimizedRMSD>
1.37867391

$$$$
