
 OpenBabel03242513103D

 41 45  0  0  1  0  0  0  0  0999 V2000
   37.7800   27.3670   40.5280 C   0  0  0  0  0  0  0  0  0  0  0  0
   37.5270   27.0380   41.8640 C   0  0  0  0  0  0  0  0  0  0  0  0
   37.3580   28.0870   42.7510 C   0  0  0  0  0  0  0  0  0  0  0  0
   37.4500   29.3550   42.2690 N   0  0  0  0  0  0  0  0  0  0  0  0
   37.6940   29.6560   40.9880 C   0  0  0  0  0  0  0  0  0  0  0  0
   37.8620   28.6550   40.1030 N   0  0  0  0  0  0  0  0  0  0  0  0
   37.9230   26.6040   39.7750 H   0  0  0  0  0  0  0  0  0  0  0  0
   36.9260   31.5520   39.6380 C   0  0  0  0  0  0  0  0  0  0  0  0
   37.7740   31.0410   40.5710 C   0  0  0  0  0  0  0  0  0  0  0  0
   38.7730   31.8240   41.1830 C   0  0  0  0  0  0  0  0  0  0  0  0
   38.9220   33.1600   40.8430 C   0  0  0  0  0  0  0  0  0  0  0  0
   39.7530   34.1730   41.2230 N   0  0  0  0  0  0  0  0  0  0  0  0
   39.3750   35.2810   40.4960 C   0  0  0  0  0  0  0  0  0  0  0  0
   38.3340   34.9250   39.6990 N   0  0  0  0  0  0  0  0  0  0  0  0
   38.0410   33.6300   39.8960 C   0  0  0  0  0  0  0  0  0  0  0  0
   37.0530   32.8920   39.2780 C   0  0  0  0  0  0  0  0  0  0  0  0
   36.1670   30.9370   39.1820 H   0  0  0  0  0  0  0  0  0  0  0  0
   39.4500   31.4010   41.9320 H   0  0  0  0  0  0  0  0  0  0  0  0
   40.4950   34.0120   41.9390 H   0  0  0  0  0  0  0  0  0  0  0  0
   39.9380   36.1690   40.6830 H   0  0  0  0  0  0  0  0  0  0  0  0
   36.3860   33.3140   38.5380 H   0  0  0  0  0  0  0  0  0  0  0  0
   37.0860   27.7970   44.1790 C   0  0  0  0  0  0  0  0  0  0  0  0
   36.9260   28.9950   44.8910 F   0  0  0  0  0  0  0  0  0  0  0  0
   35.9040   27.1060   44.3100 F   0  0  0  0  0  0  0  0  0  0  0  0
   38.1400   27.0870   44.6860 F   0  0  0  0  0  0  0  0  0  0  0  0
   37.4590   25.7350   42.2190 O   0  0  0  0  0  0  0  0  0  0  0  0
   37.1790   24.7330   41.3080 C   0  0  0  0  0  0  0  0  0  0  0  0
   38.3310   23.9550   41.3300 C   0  0  0  0  0  0  0  0  0  0  0  0
   37.9670   22.6160   40.1210 S   0  0  0  0  0  0  0  0  0  0  0  0
   36.2740   23.3600   39.7870 C   0  0  0  0  0  0  0  0  0  0  0  0
   36.3280   24.2250   40.4720 N   0  0  0  0  0  0  0  0  0  0  0  0
   39.4020   23.7960   41.7770 H   0  0  0  0  0  0  0  0  0  0  0  0
   36.1760   24.2290   37.1740 O   0  0  0  0  0  0  0  0  0  0  0  0
   35.1270   23.8200   37.7740 C   0  0  0  0  0  0  0  0  0  0  0  0
   35.2410   22.8230   38.8320 C   0  0  2  0  0  3  0  0  0  0  0  0
   33.8760   22.7220   39.4530 C   0  0  0  0  0  3  0  0  0  0  0  0
   33.6180   21.6630   39.7320 H   0  0  0  0  0  0  0  0  0  0  0  0
   32.9380   23.2430   38.3820 C   0  0  0  0  0  3  0  0  0  0  0  0
   32.5140   22.4400   37.7430 H   0  0  0  0  0  0  0  0  0  0  0  0
   33.7420   24.1670   37.6120 N   0  0  0  0  0  0  0  0  0  0  0  0
   33.4470   24.9650   37.0210 H   0  0  0  0  0  0  0  0  0  0  0  0
  1  2  1  0  0  0  0
  2 26  1  0  0  0  0
  2  3  2  0  0  0  0
  3 22  1  0  0  0  0
  4  3  1  0  0  0  0
  5  4  2  0  0  0  0
  6  1  2  0  0  0  0
  6  5  1  0  0  0  0
  7  1  1  0  0  0  0
  8  9  1  0  0  0  0
  9  5  1  0  0  0  0
  9 10  2  0  0  0  0
 10 18  1  0  0  0  0
 11 10  1  0  0  0  0
 11 12  1  0  0  0  0
 12 19  1  0  0  0  0
 13 20  1  0  0  0  0
 13 12  1  0  0  0  0
 14 15  1  0  0  0  0
 14 13  2  0  0  0  0
 15 11  2  0  0  0  0
 16  8  2  0  0  0  0
 16 15  1  0  0  0  0
 17  8  1  0  0  0  0
 21 16  1  0  0  0  0
 22 24  1  0  0  0  0
 22 25  1  0  0  0  0
 22 23  1  0  0  0  0
 27 28  2  0  0  0  0
 27 26  1  0  0  0  0
 28 32  1  0  0  0  0
 29 28  1  0  0  0  0
 30 29  1  0  0  0  0
 30 31  2  0  0  0  0
 31 27  1  0  0  0  0
 33 34  2  0  0  0  0
 34 35  1  0  0  0  0
 35 36  1  0  0  0  0
 35 30  1  1  0  0  0
 36 37  1  0  0  0  0
 38 36  1  0  0  0  0
 39 38  1  0  0  0  0
 40 34  1  0  0  0  0
 40 38  1  0  0  0  0
 41 40  1  0  0  0  0
M  END
>  <minimizedAffinity>
-7.1006999

$$$$

 OpenBabel03242513103D

 41 45  0  0  1  0  0  0  0  0999 V2000
   38.5090   27.7760   40.2270 C   0  0  0  0  0  0  0  0  0  0  0  0
   38.1220   27.3070   41.4870 C   0  0  0  0  0  0  0  0  0  0  0  0
   37.7720   28.2540   42.4330 C   0  0  0  0  0  0  0  0  0  0  0  0
   37.8280   29.5650   42.0780 N   0  0  0  0  0  0  0  0  0  0  0  0
   38.2000   30.0020   40.8690 C   0  0  0  0  0  0  0  0  0  0  0  0
   38.5460   29.1020   39.9290 N   0  0  0  0  0  0  0  0  0  0  0  0
   38.7970   27.0980   39.4350 H   0  0  0  0  0  0  0  0  0  0  0  0
   37.2030   32.0370   39.9370 C   0  0  0  0  0  0  0  0  0  0  0  0
   38.2280   31.4220   40.5870 C   0  0  0  0  0  0  0  0  0  0  0  0
   39.3680   32.1260   41.0220 C   0  0  0  0  0  0  0  0  0  0  0  0
   39.4790   33.4890   40.7930 C   0  0  0  0  0  0  0  0  0  0  0  0
   40.4100   34.4480   41.0670 N   0  0  0  0  0  0  0  0  0  0  0  0
   39.9110   35.6300   40.5660 C   0  0  0  0  0  0  0  0  0  0  0  0
   38.7010   35.3710   40.0040 N   0  0  0  0  0  0  0  0  0  0  0  0
   38.4190   34.0650   40.1330 C   0  0  0  0  0  0  0  0  0  0  0  0
   37.2890   33.4070   39.6950 C   0  0  0  0  0  0  0  0  0  0  0  0
   36.3380   31.4810   39.6130 H   0  0  0  0  0  0  0  0  0  0  0  0
   40.1860   31.6200   41.5440 H   0  0  0  0  0  0  0  0  0  0  0  0
   41.2930   34.2050   41.5680 H   0  0  0  0  0  0  0  0  0  0  0  0
   40.5320   36.4880   40.7040 H   0  0  0  0  0  0  0  0  0  0  0  0
   36.4830   33.9110   39.1790 H   0  0  0  0  0  0  0  0  0  0  0  0
   37.3520   27.8140   43.7850 C   0  0  0  0  0  0  0  0  0  0  0  0
   37.0710   28.9280   44.5890 F   0  0  0  0  0  0  0  0  0  0  0  0
   36.1890   27.0830   43.7100 F   0  0  0  0  0  0  0  0  0  0  0  0
   38.3680   27.0810   44.3370 F   0  0  0  0  0  0  0  0  0  0  0  0
   38.1080   25.9740   41.7160 O   0  0  0  0  0  0  0  0  0  0  0  0
   37.4790   25.0830   40.8660 C   0  0  0  0  0  0  0  0  0  0  0  0
   38.2020   23.9090   41.0470 C   0  0  0  0  0  0  0  0  0  0  0  0
   37.3710   22.7150   39.9200 S   0  0  0  0  0  0  0  0  0  0  0  0
   36.1560   24.0460   39.3850 C   0  0  0  0  0  0  0  0  0  0  0  0
   36.5330   24.8800   40.0020 N   0  0  0  0  0  0  0  0  0  0  0  0
   39.0890   23.3750   41.5950 H   0  0  0  0  0  0  0  0  0  0  0  0
   33.7850   22.8460   40.1120 O   0  0  0  0  0  0  0  0  0  0  0  0
   34.2090   22.7970   38.9090 C   0  0  0  0  0  0  0  0  0  0  0  0
   35.0380   23.8790   38.3910 C   0  0  2  0  0  3  0  0  0  0  0  0
   35.5250   23.4170   37.0460 C   0  0  0  0  0  3  0  0  0  0  0  0
   35.5550   24.2570   36.2990 H   0  0  0  0  0  0  0  0  0  0  0  0
   34.5220   22.3580   36.6290 C   0  0  0  0  0  3  0  0  0  0  0  0
   33.7010   22.7570   35.9980 H   0  0  0  0  0  0  0  0  0  0  0  0
   34.0240   21.8180   37.8750 N   0  0  0  0  0  0  0  0  0  0  0  0
   33.5950   20.8950   38.0700 H   0  0  0  0  0  0  0  0  0  0  0  0
  1  2  1  0  0  0  0
  2 26  1  0  0  0  0
  2  3  2  0  0  0  0
  3 22  1  0  0  0  0
  4  3  1  0  0  0  0
  5  4  2  0  0  0  0
  6  1  2  0  0  0  0
  6  5  1  0  0  0  0
  7  1  1  0  0  0  0
  8  9  1  0  0  0  0
  9  5  1  0  0  0  0
  9 10  2  0  0  0  0
 10 18  1  0  0  0  0
 11 10  1  0  0  0  0
 11 12  1  0  0  0  0
 12 19  1  0  0  0  0
 13 20  1  0  0  0  0
 13 12  1  0  0  0  0
 14 15  1  0  0  0  0
 14 13  2  0  0  0  0
 15 11  2  0  0  0  0
 16  8  2  0  0  0  0
 16 15  1  0  0  0  0
 17  8  1  0  0  0  0
 21 16  1  0  0  0  0
 22 25  1  0  0  0  0
 22 23  1  0  0  0  0
 24 22  1  0  0  0  0
 27 28  2  0  0  0  0
 27 26  1  0  0  0  0
 28 32  1  0  0  0  0
 29 28  1  0  0  0  0
 30 29  1  0  0  0  0
 30 31  2  0  0  0  0
 31 27  1  0  0  0  0
 34 33  2  0  0  0  0
 35 34  1  0  0  0  0
 35 30  1  1  0  0  0
 36 35  1  0  0  0  0
 37 36  1  0  0  0  0
 38 36  1  0  0  0  0
 38 40  1  0  0  0  0
 39 38  1  0  0  0  0
 40 41  1  0  0  0  0
 40 34  1  0  0  0  0
M  END
>  <minimizedAffinity>
-7.05405235

$$$$

 OpenBabel03242513103D

 41 45  0  0  1  0  0  0  0  0999 V2000
   36.3310   28.0800   40.2990 C   0  0  0  0  0  0  0  0  0  0  0  0
   36.8390   28.5550   41.5120 C   0  0  0  0  0  0  0  0  0  0  0  0
   37.4650   27.6370   42.3380 C   0  0  0  0  0  0  0  0  0  0  0  0
   37.5410   26.3460   41.9180 N   0  0  0  0  0  0  0  0  0  0  0  0
   37.0500   25.9030   40.7560 C   0  0  0  0  0  0  0  0  0  0  0  0
   36.4360   26.7750   39.9320 N   0  0  0  0  0  0  0  0  0  0  0  0
   35.8290   28.7340   39.6000 H   0  0  0  0  0  0  0  0  0  0  0  0
   38.2760   23.7810   40.7530 C   0  0  0  0  0  0  0  0  0  0  0  0
   37.1810   24.5060   40.3970 C   0  0  0  0  0  0  0  0  0  0  0  0
   36.1170   23.9430   39.6660 C   0  0  0  0  0  0  0  0  0  0  0  0
   36.1590   22.6120   39.2800 C   0  0  0  0  0  0  0  0  0  0  0  0
   35.3340   21.7740   38.5890 N   0  0  0  0  0  0  0  0  0  0  0  0
   35.9660   20.5510   38.5480 C   0  0  0  0  0  0  0  0  0  0  0  0
   37.1480   20.6670   39.2070 N   0  0  0  0  0  0  0  0  0  0  0  0
   37.2850   21.9220   39.6630 C   0  0  0  0  0  0  0  0  0  0  0  0
   38.3440   22.4410   40.3780 C   0  0  0  0  0  0  0  0  0  0  0  0
   39.0800   24.2300   41.3140 H   0  0  0  0  0  0  0  0  0  0  0  0
   35.2410   24.5370   39.3850 H   0  0  0  0  0  0  0  0  0  0  0  0
   34.4210   22.1160   38.2130 H   0  0  0  0  0  0  0  0  0  0  0  0
   35.4390   19.7760   38.0340 H   0  0  0  0  0  0  0  0  0  0  0  0
   39.2080   21.8510   40.6530 H   0  0  0  0  0  0  0  0  0  0  0  0
   38.0240   28.0860   43.6350 C   0  0  0  0  0  0  0  0  0  0  0  0
   38.7370   27.0410   44.2400 F   0  0  0  0  0  0  0  0  0  0  0  0
   38.9210   29.1100   43.4410 F   0  0  0  0  0  0  0  0  0  0  0  0
   36.9890   28.4760   44.4420 F   0  0  0  0  0  0  0  0  0  0  0  0
   36.6990   29.8650   41.8150 O   0  0  0  0  0  0  0  0  0  0  0  0
   37.4090   30.8570   41.1630 C   0  0  0  0  0  0  0  0  0  0  0  0
   36.5080   31.3160   40.2080 C   0  0  0  0  0  0  0  0  0  0  0  0
   37.4450   32.6380   39.3350 S   0  0  0  0  0  0  0  0  0  0  0  0
   38.9320   32.3340   40.4430 C   0  0  0  0  0  0  0  0  0  0  0  0
   38.5190   31.5210   41.0660 N   0  0  0  0  0  0  0  0  0  0  0  0
   35.4400   31.2200   39.7380 H   0  0  0  0  0  0  0  0  0  0  0  0
   39.1070   34.9860   41.1650 O   0  0  0  0  0  0  0  0  0  0  0  0
   39.9060   34.4810   40.3080 C   0  0  0  0  0  0  0  0  0  0  0  0
   40.2460   33.0650   40.3850 C   0  0  2  0  0  3  0  0  0  0  0  0
   41.0230   32.7600   39.1340 C   0  0  0  0  0  3  0  0  0  0  0  0
   41.8650   32.0400   39.3280 H   0  0  0  0  0  0  0  0  0  0  0  0
   41.5560   34.1070   38.6860 C   0  0  0  0  0  3  0  0  0  0  0  0
   42.5790   34.3200   39.0590 H   0  0  0  0  0  0  0  0  0  0  0  0
   40.5950   35.0640   39.1910 N   0  0  0  0  0  0  0  0  0  0  0  0
   40.3820   36.0230   38.8600 H   0  0  0  0  0  0  0  0  0  0  0  0
  1  2  1  0  0  0  0
  2 26  1  0  0  0  0
  2  3  2  0  0  0  0
  3 22  1  0  0  0  0
  4  3  1  0  0  0  0
  5  4  2  0  0  0  0
  6  1  2  0  0  0  0
  6  5  1  0  0  0  0
  7  1  1  0  0  0  0
  8 17  1  0  0  0  0
  9  8  1  0  0  0  0
  9  5  1  0  0  0  0
 10  9  2  0  0  0  0
 11 15  2  0  0  0  0
 11 10  1  0  0  0  0
 12 11  1  0  0  0  0
 13 12  1  0  0  0  0
 13 14  2  0  0  0  0
 14 15  1  0  0  0  0
 15 16  1  0  0  0  0
 16 21  1  0  0  0  0
 16  8  2  0  0  0  0
 18 10  1  0  0  0  0
 19 12  1  0  0  0  0
 20 13  1  0  0  0  0
 22 23  1  0  0  0  0
 22 25  1  0  0  0  0
 24 22  1  0  0  0  0
 27 26  1  0  0  0  0
 28 27  2  0  0  0  0
 29 28  1  0  0  0  0
 29 30  1  0  0  0  0
 30 31  2  0  0  0  0
 31 27  1  0  0  0  0
 32 28  1  0  0  0  0
 34 35  1  0  0  0  0
 34 33  2  0  0  0  0
 35 30  1  6  0  0  0
 36 37  1  0  0  0  0
 36 35  1  0  0  0  0
 38 39  1  0  0  0  0
 38 36  1  0  0  0  0
 38 40  1  0  0  0  0
 40 34  1  0  0  0  0
 41 40  1  0  0  0  0
M  END
>  <minimizedAffinity>
-7.00133276

$$$$

 OpenBabel03242513103D

 41 45  0  0  1  0  0  0  0  0999 V2000
   37.0950   28.0620   39.8210 C   0  0  0  0  0  0  0  0  0  0  0  0
   37.0360   27.5330   41.1150 C   0  0  0  0  0  0  0  0  0  0  0  0
   37.2530   28.4080   42.1650 C   0  0  0  0  0  0  0  0  0  0  0  0
   37.5060   29.7110   41.8720 N   0  0  0  0  0  0  0  0  0  0  0  0
   37.5590   30.2050   40.6300 C   0  0  0  0  0  0  0  0  0  0  0  0
   37.3530   29.3760   39.5880 N   0  0  0  0  0  0  0  0  0  0  0  0
   36.9370   27.4430   38.9490 H   0  0  0  0  0  0  0  0  0  0  0  0
   36.9620   32.4160   39.7570 C   0  0  0  0  0  0  0  0  0  0  0  0
   37.8360   31.6110   40.4190 C   0  0  0  0  0  0  0  0  0  0  0  0
   39.0540   32.0950   40.9350 C   0  0  0  0  0  0  0  0  0  0  0  0
   39.4010   33.4280   40.7790 C   0  0  0  0  0  0  0  0  0  0  0  0
   40.4630   34.2050   41.1380 N   0  0  0  0  0  0  0  0  0  0  0  0
   40.1930   35.4740   40.6750 C   0  0  0  0  0  0  0  0  0  0  0  0
   38.9860   35.4450   40.0510 N   0  0  0  0  0  0  0  0  0  0  0  0
   38.4850   34.2010   40.1040 C   0  0  0  0  0  0  0  0  0  0  0  0
   37.2850   33.7600   39.5860 C   0  0  0  0  0  0  0  0  0  0  0  0
   36.0340   32.0270   39.3700 H   0  0  0  0  0  0  0  0  0  0  0  0
   39.7500   31.4370   41.4660 H   0  0  0  0  0  0  0  0  0  0  0  0
   41.2680   33.7960   41.6640 H   0  0  0  0  0  0  0  0  0  0  0  0
   40.9400   36.2090   40.8810 H   0  0  0  0  0  0  0  0  0  0  0  0
   36.6000   34.4130   39.0620 H   0  0  0  0  0  0  0  0  0  0  0  0
   37.2020   27.9020   43.5580 C   0  0  0  0  0  0  0  0  0  0  0  0
   37.2130   28.9750   44.4610 F   0  0  0  0  0  0  0  0  0  0  0  0
   36.0270   27.2210   43.7770 F   0  0  0  0  0  0  0  0  0  0  0  0
   38.2910   27.1000   43.7680 F   0  0  0  0  0  0  0  0  0  0  0  0
   36.7760   26.2160   41.2750 O   0  0  0  0  0  0  0  0  0  0  0  0
   37.5690   25.2300   40.7170 C   0  0  0  0  0  0  0  0  0  0  0  0
   37.0410   24.0590   41.2490 C   0  0  0  0  0  0  0  0  0  0  0  0
   38.0910   22.7410   40.5090 S   0  0  0  0  0  0  0  0  0  0  0  0
   39.0880   24.0360   39.5820 C   0  0  0  0  0  0  0  0  0  0  0  0
   38.5610   24.9420   39.9320 N   0  0  0  0  0  0  0  0  0  0  0  0
   36.2380   23.5720   41.9480 H   0  0  0  0  0  0  0  0  0  0  0  0
   41.6160   24.9450   40.1900 O   0  0  0  0  0  0  0  0  0  0  0  0
   41.2460   24.7840   38.9800 C   0  0  0  0  0  0  0  0  0  0  0  0
   40.2470   23.7710   38.6590 C   0  0  2  0  0  3  0  0  0  0  0  0
   39.8950   23.9820   37.2130 C   0  0  0  0  0  3  0  0  0  0  0  0
   39.7330   23.0090   36.6730 H   0  0  0  0  0  0  0  0  0  0  0  0
   41.0880   24.7250   36.6420 C   0  0  0  0  0  3  0  0  0  0  0  0
   41.8410   24.0540   36.1790 H   0  0  0  0  0  0  0  0  0  0  0  0
   41.6390   25.4470   37.7680 N   0  0  0  0  0  0  0  0  0  0  0  0
   42.2260   26.3010   37.7810 H   0  0  0  0  0  0  0  0  0  0  0  0
  1  2  1  0  0  0  0
  2 26  1  0  0  0  0
  2  3  2  0  0  0  0
  3 22  1  0  0  0  0
  4  3  1  0  0  0  0
  5  4  2  0  0  0  0
  6  1  2  0  0  0  0
  6  5  1  0  0  0  0
  7  1  1  0  0  0  0
  8  9  1  0  0  0  0
  9  5  1  0  0  0  0
  9 10  2  0  0  0  0
 10 18  1  0  0  0  0
 11 10  1  0  0  0  0
 11 12  1  0  0  0  0
 12 19  1  0  0  0  0
 13 20  1  0  0  0  0
 13 12  1  0  0  0  0
 14 15  1  0  0  0  0
 14 13  2  0  0  0  0
 15 11  2  0  0  0  0
 16  8  2  0  0  0  0
 16 15  1  0  0  0  0
 17  8  1  0  0  0  0
 21 16  1  0  0  0  0
 22 25  1  0  0  0  0
 22 24  1  0  0  0  0
 22 23  1  0  0  0  0
 27 28  2  0  0  0  0
 27 26  1  0  0  0  0
 28 32  1  0  0  0  0
 29 28  1  0  0  0  0
 30 31  2  0  0  0  0
 30 29  1  0  0  0  0
 31 27  1  0  0  0  0
 34 33  2  0  0  0  0
 35 34  1  0  0  0  0
 35 30  1  1  0  0  0
 36 35  1  0  0  0  0
 37 36  1  0  0  0  0
 38 36  1  0  0  0  0
 38 40  1  0  0  0  0
 39 38  1  0  0  0  0
 40 41  1  0  0  0  0
 40 34  1  0  0  0  0
M  END
>  <minimizedAffinity>
-6.94089079

$$$$

 OpenBabel03242513103D

 41 45  0  0  1  0  0  0  0  0999 V2000
   39.7210   31.4980   41.8330 C   0  0  0  0  0  0  0  0  0  0  0  0
   39.1730   32.1910   40.7490 C   0  0  0  0  0  0  0  0  0  0  0  0
   38.1950   31.5430   40.0140 C   0  0  0  0  0  0  0  0  0  0  0  0
   37.8380   30.2860   40.3920 N   0  0  0  0  0  0  0  0  0  0  0  0
   38.3710   29.6340   41.4310 C   0  0  0  0  0  0  0  0  0  0  0  0
   39.3240   30.2410   42.1630 N   0  0  0  0  0  0  0  0  0  0  0  0
   40.4890   31.9370   42.4550 H   0  0  0  0  0  0  0  0  0  0  0  0
   37.0970   28.0570   42.8080 C   0  0  0  0  0  0  0  0  0  0  0  0
   37.9230   28.2940   41.7540 C   0  0  0  0  0  0  0  0  0  0  0  0
   38.3870   27.2590   40.9190 C   0  0  0  0  0  0  0  0  0  0  0  0
   38.0080   25.9460   41.1550 C   0  0  0  0  0  0  0  0  0  0  0  0
   38.2620   24.7410   40.5690 N   0  0  0  0  0  0  0  0  0  0  0  0
   37.5710   23.7990   41.2990 C   0  0  0  0  0  0  0  0  0  0  0  0
   36.9190   24.4410   42.3020 N   0  0  0  0  0  0  0  0  0  0  0  0
   37.1740   25.7570   42.2310 C   0  0  0  0  0  0  0  0  0  0  0  0
   36.7010   26.7470   43.0680 C   0  0  0  0  0  0  0  0  0  0  0  0
   36.7520   28.8630   43.4350 H   0  0  0  0  0  0  0  0  0  0  0  0
   39.0510   27.4630   40.0730 H   0  0  0  0  0  0  0  0  0  0  0  0
   38.8800   24.6770   39.7290 H   0  0  0  0  0  0  0  0  0  0  0  0
   37.6690   22.7900   40.9600 H   0  0  0  0  0  0  0  0  0  0  0  0
   36.0440   26.5410   43.9030 H   0  0  0  0  0  0  0  0  0  0  0  0
   37.5780   32.2300   38.8550 C   0  0  0  0  0  0  0  0  0  0  0  0
   37.0800   33.4820   39.2470 F   0  0  0  0  0  0  0  0  0  0  0  0
   38.5210   32.4720   37.8850 F   0  0  0  0  0  0  0  0  0  0  0  0
   36.5600   31.4490   38.3790 F   0  0  0  0  0  0  0  0  0  0  0  0
   39.6140   33.4390   40.4750 O   0  0  0  0  0  0  0  0  0  0  0  0
   40.9590   33.7610   40.4520 C   0  0  0  0  0  0  0  0  0  0  0  0
   41.3220   33.5090   39.1330 C   0  0  0  0  0  0  0  0  0  0  0  0
   43.1120   33.9360   39.0920 S   0  0  0  0  0  0  0  0  0  0  0  0
   43.0580   34.3940   40.9140 C   0  0  0  0  0  0  0  0  0  0  0  0
   41.9920   34.1850   41.1120 N   0  0  0  0  0  0  0  0  0  0  0  0
   40.9820   33.1500   38.0710 H   0  0  0  0  0  0  0  0  0  0  0  0
   44.7830   32.6290   42.1390 O   0  0  0  0  0  0  0  0  0  0  0  0
   44.5690   33.7880   42.6250 C   0  0  0  0  0  0  0  0  0  0  0  0
   44.2150   34.8910   41.7390 C   0  0  2  0  0  3  0  0  0  0  0  0
   43.8370   36.0360   42.6360 C   0  0  0  0  0  3  0  0  0  0  0  0
   44.1930   37.0230   42.2300 H   0  0  0  0  0  0  0  0  0  0  0  0
   44.5130   35.7180   43.9550 C   0  0  0  0  0  3  0  0  0  0  0  0
   45.5100   36.1930   44.0620 H   0  0  0  0  0  0  0  0  0  0  0  0
   44.6050   34.2740   43.9770 N   0  0  0  0  0  0  0  0  0  0  0  0
   44.6880   33.6300   44.7840 H   0  0  0  0  0  0  0  0  0  0  0  0
  1  6  1  0  0  0  0
  1  7  1  0  0  0  0
  2  1  2  0  0  0  0
  3  4  2  0  0  0  0
  3  2  1  0  0  0  0
  4  5  1  0  0  0  0
  5  9  1  0  0  0  0
  5  6  2  0  0  0  0
  8 16  1  0  0  0  0
  8 17  1  0  0  0  0
  9  8  2  0  0  0  0
 10 11  2  0  0  0  0
 10  9  1  0  0  0  0
 11 15  1  0  0  0  0
 12 11  1  0  0  0  0
 12 13  1  0  0  0  0
 13 14  2  0  0  0  0
 15 14  1  0  0  0  0
 15 16  2  0  0  0  0
 16 21  1  0  0  0  0
 18 10  1  0  0  0  0
 19 12  1  0  0  0  0
 20 13  1  0  0  0  0
 22 23  1  0  0  0  0
 22  3  1  0  0  0  0
 24 22  1  0  0  0  0
 25 22  1  0  0  0  0
 26  2  1  0  0  0  0
 27 26  1  0  0  0  0
 27 31  1  0  0  0  0
 28 27  2  0  0  0  0
 29 28  1  0  0  0  0
 29 30  1  0  0  0  0
 30 31  2  0  0  0  0
 32 28  1  0  0  0  0
 33 34  2  0  0  0  0
 34 40  1  0  0  0  0
 35 30  1  6  0  0  0
 35 34  1  0  0  0  0
 35 36  1  0  0  0  0
 36 38  1  0  0  0  0
 37 36  1  0  0  0  0
 38 40  1  0  0  0  0
 38 39  1  0  0  0  0
 40 41  1  0  0  0  0
M  END
>  <minimizedAffinity>
-6.81016254

$$$$

 OpenBabel03242513103D

 41 45  0  0  1  0  0  0  0  0999 V2000
   36.7660   30.3610   37.1270 C   0  0  0  0  0  0  0  0  0  0  0  0
   36.0870   29.4990   37.9950 C   0  0  0  0  0  0  0  0  0  0  0  0
   36.1770   29.7660   39.3500 C   0  0  0  0  0  0  0  0  0  0  0  0
   36.9150   30.8390   39.7430 N   0  0  0  0  0  0  0  0  0  0  0  0
   37.5610   31.6550   38.9040 C   0  0  0  0  0  0  0  0  0  0  0  0
   37.4900   31.4190   37.5790 N   0  0  0  0  0  0  0  0  0  0  0  0
   36.7430   30.2190   36.0550 H   0  0  0  0  0  0  0  0  0  0  0  0
   37.7310   33.9630   39.7100 C   0  0  0  0  0  0  0  0  0  0  0  0
   38.3230   32.7740   39.4210 C   0  0  0  0  0  0  0  0  0  0  0  0
   39.7030   32.5600   39.6070 C   0  0  0  0  0  0  0  0  0  0  0  0
   40.5090   33.5760   40.0980 C   0  0  0  0  0  0  0  0  0  0  0  0
   41.8350   33.7100   40.3890 N   0  0  0  0  0  0  0  0  0  0  0  0
   42.0040   34.9960   40.8520 C   0  0  0  0  0  0  0  0  0  0  0  0
   40.7930   35.6120   40.8340 N   0  0  0  0  0  0  0  0  0  0  0  0
   39.8640   34.7580   40.3750 C   0  0  0  0  0  0  0  0  0  0  0  0
   38.5170   35.0020   40.2050 C   0  0  0  0  0  0  0  0  0  0  0  0
   36.6720   34.1070   39.5610 H   0  0  0  0  0  0  0  0  0  0  0  0
   40.1680   31.5970   39.3710 H   0  0  0  0  0  0  0  0  0  0  0  0
   42.4940   32.9130   40.2450 H   0  0  0  0  0  0  0  0  0  0  0  0
   43.0030   35.2600   41.1270 H   0  0  0  0  0  0  0  0  0  0  0  0
   38.0610   35.9540   40.4400 H   0  0  0  0  0  0  0  0  0  0  0  0
   35.4760   28.8860   40.3150 C   0  0  0  0  0  0  0  0  0  0  0  0
   35.8130   27.5450   40.0770 F   0  0  0  0  0  0  0  0  0  0  0  0
   35.8800   29.1670   41.5990 F   0  0  0  0  0  0  0  0  0  0  0  0
   34.1280   29.0660   40.1650 F   0  0  0  0  0  0  0  0  0  0  0  0
   35.3860   28.4650   37.4780 O   0  0  0  0  0  0  0  0  0  0  0  0
   34.1260   28.6240   36.9310 C   0  0  0  0  0  0  0  0  0  0  0  0
   34.1580   27.7950   35.8150 C   0  0  0  0  0  0  0  0  0  0  0  0
   32.4820   27.9990   35.0810 S   0  0  0  0  0  0  0  0  0  0  0  0
   32.0150   29.2020   36.4480 C   0  0  0  0  0  0  0  0  0  0  0  0
   32.9640   29.1950   37.0130 N   0  0  0  0  0  0  0  0  0  0  0  0
   34.7800   27.0470   35.1640 H   0  0  0  0  0  0  0  0  0  0  0  0
   31.2690   31.2190   34.7260 O   0  0  0  0  0  0  0  0  0  0  0  0
   30.8390   31.1820   35.9270 C   0  0  0  0  0  0  0  0  0  0  0  0
   30.6900   29.8980   36.6020 C   0  0  2  0  0  3  0  0  0  0  0  0
   30.3700   30.2210   38.0350 C   0  0  0  0  0  3  0  0  0  0  0  0
   29.6160   29.5070   38.4680 H   0  0  0  0  0  0  0  0  0  0  0  0
   29.8130   31.6310   37.9860 C   0  0  0  0  0  3  0  0  0  0  0  0
   28.7060   31.6620   37.9150 H   0  0  0  0  0  0  0  0  0  0  0  0
   30.4390   32.2280   36.8260 N   0  0  0  0  0  0  0  0  0  0  0  0
   30.6050   33.2270   36.6070 H   0  0  0  0  0  0  0  0  0  0  0  0
  1  6  2  0  0  0  0
  1  2  1  0  0  0  0
  2  3  2  0  0  0  0
  3  4  1  0  0  0  0
  3 22  1  0  0  0  0
  5  9  1  0  0  0  0
  5  4  2  0  0  0  0
  6  5  1  0  0  0  0
  7  1  1  0  0  0  0
  8 16  1  0  0  0  0
  9 10  1  0  0  0  0
  9  8  2  0  0  0  0
 10 11  2  0  0  0  0
 11 15  1  0  0  0  0
 11 12  1  0  0  0  0
 12 13  1  0  0  0  0
 13 20  1  0  0  0  0
 14 13  2  0  0  0  0
 15 14  1  0  0  0  0
 16 15  2  0  0  0  0
 16 21  1  0  0  0  0
 17  8  1  0  0  0  0
 18 10  1  0  0  0  0
 19 12  1  0  0  0  0
 22 24  1  0  0  0  0
 23 22  1  0  0  0  0
 25 22  1  0  0  0  0
 26  2  1  0  0  0  0
 27 31  1  0  0  0  0
 27 26  1  0  0  0  0
 28 27  2  0  0  0  0
 29 28  1  0  0  0  0
 29 30  1  0  0  0  0
 30 31  2  0  0  0  0
 32 28  1  0  0  0  0
 33 34  2  0  0  0  0
 34 35  1  0  0  0  0
 34 40  1  0  0  0  0
 35 30  1  1  0  0  0
 35 36  1  0  0  0  0
 36 37  1  0  0  0  0
 38 36  1  0  0  0  0
 39 38  1  0  0  0  0
 40 38  1  0  0  0  0
 41 40  1  0  0  0  0
M  END
>  <minimizedAffinity>
-6.65502834

$$$$

 OpenBabel03242513103D

 41 45  0  0  1  0  0  0  0  0999 V2000
   39.0730   30.6250   42.0350 C   0  0  0  0  0  0  0  0  0  0  0  0
   38.5910   31.3780   40.9590 C   0  0  0  0  0  0  0  0  0  0  0  0
   37.8880   30.7000   39.9780 C   0  0  0  0  0  0  0  0  0  0  0  0
   37.7160   29.3590   40.1250 N   0  0  0  0  0  0  0  0  0  0  0  0
   38.1830   28.6500   41.1580 C   0  0  0  0  0  0  0  0  0  0  0  0
   38.8710   29.2840   42.1280 N   0  0  0  0  0  0  0  0  0  0  0  0
   39.6310   31.0820   42.8400 H   0  0  0  0  0  0  0  0  0  0  0  0
   37.1110   26.6820   42.1510 C   0  0  0  0  0  0  0  0  0  0  0  0
   37.9480   27.2220   41.2240 C   0  0  0  0  0  0  0  0  0  0  0  0
   38.6300   26.4290   40.2800 C   0  0  0  0  0  0  0  0  0  0  0  0
   38.4640   25.0530   40.2710 C   0  0  0  0  0  0  0  0  0  0  0  0
   38.9530   24.0200   39.5260 N   0  0  0  0  0  0  0  0  0  0  0  0
   38.3870   22.8710   40.0340 C   0  0  0  0  0  0  0  0  0  0  0  0
   37.5750   23.2230   41.0650 N   0  0  0  0  0  0  0  0  0  0  0  0
   37.6090   24.5550   41.2260 C   0  0  0  0  0  0  0  0  0  0  0  0
   36.9260   25.3010   42.1640 C   0  0  0  0  0  0  0  0  0  0  0  0
   36.5970   27.3060   42.8650 H   0  0  0  0  0  0  0  0  0  0  0  0
   39.3010   26.8760   39.5390 H   0  0  0  0  0  0  0  0  0  0  0  0
   39.6230   24.1970   38.7450 H   0  0  0  0  0  0  0  0  0  0  0  0
   38.6740   21.9630   39.5490 H   0  0  0  0  0  0  0  0  0  0  0  0
   36.2640   24.8560   42.8940 H   0  0  0  0  0  0  0  0  0  0  0  0
   37.3530   31.4470   38.8160 C   0  0  0  0  0  0  0  0  0  0  0  0
   36.4460   30.6470   38.1040 F   0  0  0  0  0  0  0  0  0  0  0  0
   36.6490   32.5510   39.2390 F   0  0  0  0  0  0  0  0  0  0  0  0
   38.4000   31.8020   38.0080 F   0  0  0  0  0  0  0  0  0  0  0  0
   38.8290   32.7090   40.9290 O   0  0  0  0  0  0  0  0  0  0  0  0
   40.0670   33.2330   40.6070 C   0  0  0  0  0  0  0  0  0  0  0  0
   39.7510   34.4410   39.9960 C   0  0  0  0  0  0  0  0  0  0  0  0
   41.3950   35.1470   39.5660 S   0  0  0  0  0  0  0  0  0  0  0  0
   42.2490   33.6460   40.3080 C   0  0  0  0  0  0  0  0  0  0  0  0
   41.3550   33.0840   40.6330 N   0  0  0  0  0  0  0  0  0  0  0  0
   38.9080   35.1760   39.6490 H   0  0  0  0  0  0  0  0  0  0  0  0
   43.7500   34.6370   42.3940 O   0  0  0  0  0  0  0  0  0  0  0  0
   44.2620   34.4560   41.2390 C   0  0  0  0  0  0  0  0  0  0  0  0
   43.7340   33.4100   40.3710 C   0  0  2  0  0  3  0  0  0  0  0  0
   44.4070   33.6020   39.0400 C   0  0  0  0  0  3  0  0  0  0  0  0
   44.6550   32.6200   38.5490 H   0  0  0  0  0  0  0  0  0  0  0  0
   45.6680   34.3770   39.3660 C   0  0  0  0  0  3  0  0  0  0  0  0
   46.5540   33.7270   39.5220 H   0  0  0  0  0  0  0  0  0  0  0  0
   45.3370   35.1240   40.5600 N   0  0  0  0  0  0  0  0  0  0  0  0
   45.7560   35.9960   40.9310 H   0  0  0  0  0  0  0  0  0  0  0  0
  1  6  1  0  0  0  0
  1  7  1  0  0  0  0
  2  1  2  0  0  0  0
  3  4  2  0  0  0  0
  3  2  1  0  0  0  0
  4  5  1  0  0  0  0
  5  9  1  0  0  0  0
  5  6  2  0  0  0  0
  8 16  1  0  0  0  0
  8 17  1  0  0  0  0
  9  8  2  0  0  0  0
 10  9  1  0  0  0  0
 11 10  2  0  0  0  0
 11 15  1  0  0  0  0
 12 13  1  0  0  0  0
 12 11  1  0  0  0  0
 13 14  2  0  0  0  0
 14 15  1  0  0  0  0
 15 16  2  0  0  0  0
 16 21  1  0  0  0  0
 18 10  1  0  0  0  0
 19 12  1  0  0  0  0
 20 13  1  0  0  0  0
 22 24  1  0  0  0  0
 22  3  1  0  0  0  0
 23 22  1  0  0  0  0
 25 22  1  0  0  0  0
 26  2  1  0  0  0  0
 27 31  1  0  0  0  0
 27 26  1  0  0  0  0
 28 27  2  0  0  0  0
 29 28  1  0  0  0  0
 29 30  1  0  0  0  0
 30 31  2  0  0  0  0
 32 28  1  0  0  0  0
 34 33  2  0  0  0  0
 35 30  1  6  0  0  0
 35 34  1  0  0  0  0
 36 38  1  0  0  0  0
 36 35  1  0  0  0  0
 37 36  1  0  0  0  0
 38 39  1  0  0  0  0
 38 40  1  0  0  0  0
 40 41  1  0  0  0  0
 40 34  1  0  0  0  0
M  END
>  <minimizedAffinity>
-6.57416487

$$$$

 OpenBabel03242513103D

 41 45  0  0  1  0  0  0  0  0999 V2000
   39.4240   28.1750   40.4060 C   0  0  0  0  0  0  0  0  0  0  0  0
   38.6860   28.4100   41.5700 C   0  0  0  0  0  0  0  0  0  0  0  0
   37.9620   27.3480   42.0840 C   0  0  0  0  0  0  0  0  0  0  0  0
   38.0150   26.1590   41.4260 N   0  0  0  0  0  0  0  0  0  0  0  0
   38.7240   25.9470   40.3120 C   0  0  0  0  0  0  0  0  0  0  0  0
   39.4390   26.9630   39.7900 N   0  0  0  0  0  0  0  0  0  0  0  0
   40.0160   28.9530   39.9440 H   0  0  0  0  0  0  0  0  0  0  0  0
   38.9460   24.4940   38.3510 C   0  0  0  0  0  0  0  0  0  0  0  0
   38.7170   24.6420   39.6840 C   0  0  0  0  0  0  0  0  0  0  0  0
   38.4610   23.5420   40.5260 C   0  0  0  0  0  0  0  0  0  0  0  0
   38.4350   22.2550   40.0090 C   0  0  0  0  0  0  0  0  0  0  0  0
   38.2250   21.0070   40.5180 N   0  0  0  0  0  0  0  0  0  0  0  0
   38.3360   20.1310   39.4600 C   0  0  0  0  0  0  0  0  0  0  0  0
   38.6080   20.8540   38.3430 N   0  0  0  0  0  0  0  0  0  0  0  0
   38.6720   22.1580   38.6580 C   0  0  0  0  0  0  0  0  0  0  0  0
   38.9260   23.2120   37.8050 C   0  0  0  0  0  0  0  0  0  0  0  0
   39.1410   25.3490   37.7240 H   0  0  0  0  0  0  0  0  0  0  0  0
   38.2780   23.6740   41.5970 H   0  0  0  0  0  0  0  0  0  0  0  0
   38.0280   20.8730   41.5340 H   0  0  0  0  0  0  0  0  0  0  0  0
   38.1960   19.0990   39.7000 H   0  0  0  0  0  0  0  0  0  0  0  0
   39.1060   23.0780   36.7470 H   0  0  0  0  0  0  0  0  0  0  0  0
   37.1620   27.5400   43.3170 C   0  0  0  0  0  0  0  0  0  0  0  0
   36.2740   26.4670   43.4870 F   0  0  0  0  0  0  0  0  0  0  0  0
   37.9810   27.5460   44.4220 F   0  0  0  0  0  0  0  0  0  0  0  0
   36.4660   28.7130   43.2050 F   0  0  0  0  0  0  0  0  0  0  0  0
   38.7160   29.6400   42.1300 O   0  0  0  0  0  0  0  0  0  0  0  0
   38.6430   30.7980   41.3780 C   0  0  0  0  0  0  0  0  0  0  0  0
   37.3500   30.7640   40.8680 C   0  0  0  0  0  0  0  0  0  0  0  0
   37.2430   32.3040   39.8660 S   0  0  0  0  0  0  0  0  0  0  0  0
   39.0140   32.7400   40.3220 C   0  0  0  0  0  0  0  0  0  0  0  0
   39.2460   31.8680   40.9600 N   0  0  0  0  0  0  0  0  0  0  0  0
   36.3320   30.1880   40.8070 H   0  0  0  0  0  0  0  0  0  0  0  0
   41.7680   32.7570   40.2740 O   0  0  0  0  0  0  0  0  0  0  0  0
   41.1040   33.8310   40.4510 C   0  0  0  0  0  0  0  0  0  0  0  0
   39.7710   33.9610   39.8740 C   0  0  2  0  0  3  0  0  0  0  0  0
   39.2010   35.2330   40.4360 C   0  0  0  0  0  3  0  0  0  0  0  0
   38.5940   35.7950   39.6720 H   0  0  0  0  0  0  0  0  0  0  0  0
   40.4170   36.0350   40.8560 C   0  0  0  0  0  3  0  0  0  0  0  0
   40.7660   36.7430   40.0760 H   0  0  0  0  0  0  0  0  0  0  0  0
   41.4210   35.0390   41.1600 N   0  0  0  0  0  0  0  0  0  0  0  0
   42.2550   35.1080   41.7720 H   0  0  0  0  0  0  0  0  0  0  0  0
  1  2  1  0  0  0  0
  2  3  2  0  0  0  0
  2 26  1  0  0  0  0
  3 22  1  0  0  0  0
  4  3  1  0  0  0  0
  5  4  2  0  0  0  0
  6  5  1  0  0  0  0
  6  1  2  0  0  0  0
  7  1  1  0  0  0  0
  8  9  1  0  0  0  0
  9  5  1  0  0  0  0
  9 10  2  0  0  0  0
 10 18  1  0  0  0  0
 11 12  1  0  0  0  0
 11 10  1  0  0  0  0
 12 19  1  0  0  0  0
 13 20  1  0  0  0  0
 13 12  1  0  0  0  0
 14 15  1  0  0  0  0
 14 13  2  0  0  0  0
 15 11  2  0  0  0  0
 16  8  2  0  0  0  0
 16 15  1  0  0  0  0
 17  8  1  0  0  0  0
 21 16  1  0  0  0  0
 22 23  1  0  0  0  0
 22 24  1  0  0  0  0
 25 22  1  0  0  0  0
 27 26  1  0  0  0  0
 28 27  2  0  0  0  0
 29 30  1  0  0  0  0
 29 28  1  0  0  0  0
 30 31  2  0  0  0  0
 31 27  1  0  0  0  0
 32 28  1  0  0  0  0
 33 34  2  0  0  0  0
 34 40  1  0  0  0  0
 35 30  1  1  0  0  0
 35 36  1  0  0  0  0
 35 34  1  0  0  0  0
 36 38  1  0  0  0  0
 37 36  1  0  0  0  0
 38 40  1  0  0  0  0
 39 38  1  0  0  0  0
 40 41  1  0  0  0  0
M  END
>  <minimizedAffinity>
-6.46178389

$$$$

 OpenBabel03242513103D

 41 45  0  0  1  0  0  0  0  0999 V2000
   37.8480   30.4770   40.3150 C   0  0  0  0  0  0  0  0  0  0  0  0
   38.1240   29.8940   41.5570 C   0  0  0  0  0  0  0  0  0  0  0  0
   37.5160   28.6820   41.8340 C   0  0  0  0  0  0  0  0  0  0  0  0
   36.6980   28.1450   40.8900 N   0  0  0  0  0  0  0  0  0  0  0  0
   36.4420   28.7130   39.7060 C   0  0  0  0  0  0  0  0  0  0  0  0
   37.0200   29.8930   39.4090 N   0  0  0  0  0  0  0  0  0  0  0  0
   38.2850   31.4230   40.0250 H   0  0  0  0  0  0  0  0  0  0  0  0
   35.8000   26.8010   38.3140 C   0  0  0  0  0  0  0  0  0  0  0  0
   35.5550   28.0610   38.7640 C   0  0  0  0  0  0  0  0  0  0  0  0
   34.4310   28.8000   38.3460 C   0  0  0  0  0  0  0  0  0  0  0  0
   33.5290   28.2540   37.4460 C   0  0  0  0  0  0  0  0  0  0  0  0
   32.3770   28.6740   36.8490 N   0  0  0  0  0  0  0  0  0  0  0  0
   31.9550   27.6390   36.0440 C   0  0  0  0  0  0  0  0  0  0  0  0
   32.8480   26.6220   36.1650 N   0  0  0  0  0  0  0  0  0  0  0  0
   33.8190   26.9790   37.0200 C   0  0  0  0  0  0  0  0  0  0  0  0
   34.9090   26.2280   37.4090 C   0  0  0  0  0  0  0  0  0  0  0  0
   36.6650   26.2510   38.6470 H   0  0  0  0  0  0  0  0  0  0  0  0
   34.2450   29.8130   38.7170 H   0  0  0  0  0  0  0  0  0  0  0  0
   31.9900   29.6230   37.0480 H   0  0  0  0  0  0  0  0  0  0  0  0
   31.0520   27.8150   35.5010 H   0  0  0  0  0  0  0  0  0  0  0  0
   35.0890   25.2260   37.0410 H   0  0  0  0  0  0  0  0  0  0  0  0
   37.7730   28.0180   43.1340 C   0  0  0  0  0  0  0  0  0  0  0  0
   39.1460   27.7770   43.2890 F   0  0  0  0  0  0  0  0  0  0  0  0
   37.4030   28.8400   44.1720 F   0  0  0  0  0  0  0  0  0  0  0  0
   37.0820   26.8370   43.1620 F   0  0  0  0  0  0  0  0  0  0  0  0
   38.9560   30.5310   42.4110 O   0  0  0  0  0  0  0  0  0  0  0  0
   40.0900   31.1960   41.9840 C   0  0  0  0  0  0  0  0  0  0  0  0
   41.1230   30.4650   42.5600 C   0  0  0  0  0  0  0  0  0  0  0  0
   42.6380   31.3430   41.9940 S   0  0  0  0  0  0  0  0  0  0  0  0
   41.5840   32.5810   41.0500 C   0  0  0  0  0  0  0  0  0  0  0  0
   40.5850   32.1780   41.2960 N   0  0  0  0  0  0  0  0  0  0  0  0
   41.4270   29.5560   43.2320 H   0  0  0  0  0  0  0  0  0  0  0  0
   43.0820   34.5790   42.2130 O   0  0  0  0  0  0  0  0  0  0  0  0
   42.3540   34.8090   41.1910 C   0  0  0  0  0  0  0  0  0  0  0  0
   42.0920   33.7390   40.2350 C   0  0  2  0  0  3  0  0  0  0  0  0
   41.0570   34.2780   39.2870 C   0  0  0  0  0  3  0  0  0  0  0  0
   41.2410   33.9430   38.2290 H   0  0  0  0  0  0  0  0  0  0  0  0
   41.1870   35.7840   39.4080 C   0  0  0  0  0  3  0  0  0  0  0  0
   41.8600   36.2280   38.6460 H   0  0  0  0  0  0  0  0  0  0  0  0
   41.6830   35.9990   40.7500 N   0  0  0  0  0  0  0  0  0  0  0  0
   41.6090   36.8380   41.3540 H   0  0  0  0  0  0  0  0  0  0  0  0
  1  2  1  0  0  0  0
  2  3  2  0  0  0  0
  2 26  1  0  0  0  0
  3 22  1  0  0  0  0
  4  3  1  0  0  0  0
  5  4  2  0  0  0  0
  6  5  1  0  0  0  0
  6  1  2  0  0  0  0
  7  1  1  0  0  0  0
  8 17  1  0  0  0  0
  8  9  1  0  0  0  0
  9  5  1  0  0  0  0
 10 18  1  0  0  0  0
 10  9  2  0  0  0  0
 11 10  1  0  0  0  0
 12 19  1  0  0  0  0
 12 11  1  0  0  0  0
 13 14  2  0  0  0  0
 13 12  1  0  0  0  0
 14 15  1  0  0  0  0
 15 16  1  0  0  0  0
 15 11  2  0  0  0  0
 16  8  2  0  0  0  0
 20 13  1  0  0  0  0
 21 16  1  0  0  0  0
 22 25  1  0  0  0  0
 22 23  1  0  0  0  0
 22 24  1  0  0  0  0
 27 26  1  0  0  0  0
 27 28  2  0  0  0  0
 28 32  1  0  0  0  0
 29 28  1  0  0  0  0
 30 31  2  0  0  0  0
 30 29  1  0  0  0  0
 31 27  1  0  0  0  0
 34 33  2  0  0  0  0
 35 30  1  1  0  0  0
 35 34  1  0  0  0  0
 36 38  1  0  0  0  0
 36 35  1  0  0  0  0
 37 36  1  0  0  0  0
 38 40  1  0  0  0  0
 39 38  1  0  0  0  0
 40 34  1  0  0  0  0
 40 41  1  0  0  0  0
M  END
>  <minimizedAffinity>
-6.42010927

$$$$
