
 OpenBabel03242523203D

 37 40  0  0  1  0  0  0  0  0999 V2000
   44.8200   31.5320   42.9590 Cl  0  0  0  0  0  0  0  0  0  0  0  0
   44.7690   33.2900   42.9010 C   0  0  0  0  0  0  0  0  0  0  0  0
   45.7180   33.9500   43.7100 C   0  0  0  0  0  0  0  0  0  0  0  0
   45.6010   35.3240   43.5740 C   0  0  0  0  0  0  0  0  0  0  0  0
   44.7590   36.0450   42.8200 C   0  0  0  0  0  0  0  0  0  0  0  0
   43.8770   35.3290   42.0700 C   0  0  0  0  0  0  0  0  0  0  0  0
   43.8600   33.9700   42.0910 C   0  0  0  0  0  0  0  0  0  0  0  0
   46.2530   35.9960   44.1720 H   0  0  0  0  0  0  0  0  0  0  0  0
   44.7140   37.1210   42.7500 H   0  0  0  0  0  0  0  0  0  0  0  0
   43.1200   35.7340   41.3980 H   0  0  0  0  0  0  0  0  0  0  0  0
   41.6830   34.8890   40.1520 O   0  0  0  0  0  0  0  0  0  0  0  0
   41.6960   33.8720   40.9300 C   0  0  0  0  0  0  0  0  0  0  0  0
   42.9340   33.1010   41.3100 C   0  0  2  0  0  3  0  0  0  0  0  0
   42.3670   31.9560   42.0450 C   0  0  0  0  0  3  0  0  0  0  0  0
   42.3410   32.0560   43.1470 H   0  0  0  0  0  0  0  0  0  0  0  0
   40.9010   31.8430   41.6550 C   0  0  0  0  0  3  0  0  0  0  0  0
   40.8350   31.4060   40.6220 H   0  0  0  0  0  0  0  0  0  0  0  0
   40.5580   33.2690   41.5830 N   0  0  0  0  0  0  0  0  0  0  0  0
   39.7200   33.8100   41.8990 H   0  0  0  0  0  0  0  0  0  0  0  0
   46.7270   33.3100   44.5910 C   0  0  0  0  0  0  0  0  0  0  0  0
   46.2170   33.5800   45.6510 O   0  0  0  0  0  0  0  0  0  0  0  0
   47.7740   32.7080   43.7540 C   0  0  0  0  0  0  0  0  0  0  0  0
   48.5500   33.3470   42.8690 C   0  0  0  0  0  0  0  0  0  0  0  0
   49.3820   32.5200   42.1410 C   0  0  0  0  0  0  0  0  0  0  0  0
   49.3470   31.1390   42.3880 N   0  0  0  0  0  0  0  0  0  0  0  0
   48.5610   30.5850   43.2770 C   0  0  0  0  0  0  0  0  0  0  0  0
   47.7110   31.3760   44.0240 N   0  0  0  0  0  0  0  0  0  0  0  0
   50.0740   32.8710   41.3790 H   0  0  0  0  0  0  0  0  0  0  0  0
   48.6490   29.5060   43.3540 H   0  0  0  0  0  0  0  0  0  0  0  0
   48.6700   34.7500   42.7040 C   0  0  0  0  0  0  0  0  0  0  0  0
   49.6700   35.4520   42.1030 C   0  0  0  0  0  0  0  0  0  0  0  0
   48.4500   35.3150   41.2330 C   0  0  0  0  0  0  0  0  0  0  0  0
   48.1750   35.3430   43.4960 H   0  0  0  0  0  0  0  0  0  0  0  0
   50.5650   34.9080   41.6770 H   0  0  0  0  0  0  0  0  0  0  0  0
   49.9580   36.5210   42.2210 H   0  0  0  0  0  0  0  0  0  0  0  0
   47.7030   36.1170   41.1900 H   0  0  0  0  0  0  0  0  0  0  0  0
   48.4300   34.5070   40.4670 H   0  0  0  0  0  0  0  0  0  0  0  0
  2  1  1  0  0  0  0
  2  3  1  0  0  0  0
  3 20  1  0  0  0  0
  4  3  2  0  0  0  0
  4  8  1  0  0  0  0
  5  4  1  0  0  0  0
  6  7  1  0  0  0  0
  6  5  2  0  0  0  0
  7  2  2  0  0  0  0
  9  5  1  0  0  0  0
 10  6  1  0  0  0  0
 11 12  2  0  0  0  0
 12 13  1  0  0  0  0
 12 18  1  0  0  0  0
 13 14  1  0  0  0  0
 13  7  1  1  0  0  0
 14 15  1  0  0  0  0
 16 14  1  0  0  0  0
 17 16  1  0  0  0  0
 18 16  1  0  0  0  0
 18 19  1  0  0  0  0
 20 21  2  0  0  0  0
 22 27  1  0  0  0  0
 22 20  1  0  0  0  0
 23 22  2  0  0  0  0
 24 25  2  0  0  0  0
 24 23  1  0  0  0  0
 25 26  1  0  0  0  0
 26 29  1  0  0  0  0
 26 27  2  0  0  0  0
 28 24  1  0  0  0  0
 30 23  1  0  0  0  0
 30 33  1  0  0  0  0
 31 35  1  0  0  0  0
 31 30  1  0  0  0  0
 32 31  1  0  0  0  0
 32 30  1  0  0  0  0
 34 31  1  0  0  0  0
 36 32  1  0  0  0  0
 37 32  1  0  0  0  0
M  END
>  <minimizedAffinity>
-5.7454195

>  <minimizedRMSD>
0.584185123

$$$$
