
 OpenBabel03252505553D

 33 35  0  0  1  0  0  0  0  0999 V2000
   38.0540   32.1110   38.8380 C   0  0  0  0  0  0  0  0  0  0  0  0
   37.3920   33.2420   39.2800 C   0  0  0  0  0  0  0  0  0  0  0  0
   38.0340   34.1200   40.0960 C   0  0  0  0  0  0  0  0  0  0  0  0
   39.2850   33.9250   40.4850 N   0  0  0  0  0  0  0  0  0  0  0  0
   39.9390   32.8260   40.0590 C   0  0  0  0  0  0  0  0  0  0  0  0
   39.3450   31.9180   39.2440 N   0  0  0  0  0  0  0  0  0  0  0  0
   36.3940   33.3020   38.9090 H   0  0  0  0  0  0  0  0  0  0  0  0
   37.4400   34.9740   40.3910 H   0  0  0  0  0  0  0  0  0  0  0  0
   40.8040   31.0480   42.4560 O   0  0  0  0  0  0  0  0  0  0  0  0
   41.4270   31.9450   41.8320 C   0  0  0  0  0  0  0  0  0  0  0  0
   41.3640   32.6020   40.5010 C   0  0  2  0  0  3  0  0  0  0  0  0
   42.0310   33.9390   40.8120 C   0  0  0  0  0  3  0  0  0  0  0  0
   42.3420   34.4760   39.8980 H   0  0  0  0  0  0  0  0  0  0  0  0
   43.2230   33.4100   41.6070 C   0  0  0  0  0  3  0  0  0  0  0  0
   43.8120   32.7060   40.9650 H   0  0  0  0  0  0  0  0  0  0  0  0
   42.5220   32.5500   42.5510 N   0  0  0  0  0  0  0  0  0  0  0  0
   42.8620   32.4760   43.5470 H   0  0  0  0  0  0  0  0  0  0  0  0
   37.6110   31.0260   37.9740 C   0  0  0  0  0  0  0  0  0  0  0  0
   37.4890   31.3410   36.9270 H   0  0  0  0  0  0  0  0  0  0  0  0
   38.4080   30.2370   37.9700 H   0  0  0  0  0  0  0  0  0  0  0  0
   36.4770   30.4330   38.5530 O   0  0  0  0  0  0  0  0  0  0  0  0
   36.9320   27.3630   40.2910 C   0  0  0  0  0  0  0  0  0  0  0  0
   36.8520   27.7170   41.6350 C   0  0  0  0  0  0  0  0  0  0  0  0
   36.6330   29.0730   41.9260 C   0  0  0  0  0  0  0  0  0  0  0  0
   36.5120   29.9490   40.9100 N   0  0  0  0  0  0  0  0  0  0  0  0
   36.5980   29.5520   39.6270 C   0  0  0  0  0  0  0  0  0  0  0  0
   36.8060   28.2700   39.3130 N   0  0  0  0  0  0  0  0  0  0  0  0
   37.1010   26.3290   39.9860 H   0  0  0  0  0  0  0  0  0  0  0  0
   36.5710   29.3500   42.9690 H   0  0  0  0  0  0  0  0  0  0  0  0
   37.0020   26.6570   42.6800 C   0  0  0  0  0  0  0  0  0  0  0  0
   36.0870   27.0060   43.6630 F   0  0  0  0  0  0  0  0  0  0  0  0
   38.2980   26.7990   43.1900 F   0  0  0  0  0  0  0  0  0  0  0  0
   36.7790   25.4390   42.1260 F   0  0  0  0  0  0  0  0  0  0  0  0
  1  6  2  0  0  0  0
  1  2  1  0  0  0  0
  2  3  2  0  0  0  0
  3  8  1  0  0  0  0
  3  4  1  0  0  0  0
  5  4  2  0  0  0  0
  6  5  1  0  0  0  0
  7  2  1  0  0  0  0
 10  9  2  0  0  0  0
 10 16  1  0  0  0  0
 11  5  1  1  0  0  0
 11 12  1  0  0  0  0
 11 10  1  0  0  0  0
 12 14  1  0  0  0  0
 13 12  1  0  0  0  0
 14 16  1  0  0  0  0
 15 14  1  0  0  0  0
 16 17  1  0  0  0  0
 18 21  1  0  0  0  0
 18  1  1  0  0  0  0
 19 18  1  0  0  0  0
 20 18  1  0  0  0  0
 21 26  1  0  0  0  0
 22 23  1  0  0  0  0
 23 24  2  0  0  0  0
 23 30  1  0  0  0  0
 24 29  1  0  0  0  0
 25 24  1  0  0  0  0
 26 25  2  0  0  0  0
 27 26  1  0  0  0  0
 27 22  2  0  0  0  0
 28 22  1  0  0  0  0
 30 32  1  0  0  0  0
 30 31  1  0  0  0  0
 33 30  1  0  0  0  0
M  END
>  <minimizedAffinity>
-5.61766148

$$$$

 OpenBabel03252505553D

 33 35  0  0  1  0  0  0  0  0999 V2000
   39.0470   31.7860   41.0490 C   0  0  0  0  0  0  0  0  0  0  0  0
   38.9220   33.1580   40.9330 C   0  0  0  0  0  0  0  0  0  0  0  0
   38.0530   33.6780   40.0240 C   0  0  0  0  0  0  0  0  0  0  0  0
   37.3160   32.9050   39.2420 N   0  0  0  0  0  0  0  0  0  0  0  0
   37.4310   31.5650   39.3500 C   0  0  0  0  0  0  0  0  0  0  0  0
   38.2830   30.9950   40.2380 N   0  0  0  0  0  0  0  0  0  0  0  0
   39.5590   33.6860   41.6070 H   0  0  0  0  0  0  0  0  0  0  0  0
   38.0210   34.7580   40.0020 H   0  0  0  0  0  0  0  0  0  0  0  0
   35.2690   29.5680   40.3450 O   0  0  0  0  0  0  0  0  0  0  0  0
   35.8650   29.6490   39.2410 C   0  0  0  0  0  0  0  0  0  0  0  0
   36.5910   30.6830   38.4590 C   0  0  2  0  0  3  0  0  0  0  0  0
   37.4920   29.8040   37.5950 C   0  0  0  0  0  3  0  0  0  0  0  0
   37.9190   30.3560   36.7370 H   0  0  0  0  0  0  0  0  0  0  0  0
   36.4480   28.7780   37.1620 C   0  0  0  0  0  3  0  0  0  0  0  0
   35.6150   29.3020   36.6270 H   0  0  0  0  0  0  0  0  0  0  0  0
   35.8920   28.4340   38.4630 N   0  0  0  0  0  0  0  0  0  0  0  0
   35.6020   27.4390   38.6650 H   0  0  0  0  0  0  0  0  0  0  0  0
   39.8880   30.9790   41.9230 C   0  0  0  0  0  0  0  0  0  0  0  0
   40.5430   30.2920   41.3660 H   0  0  0  0  0  0  0  0  0  0  0  0
   40.5700   31.6690   42.4850 H   0  0  0  0  0  0  0  0  0  0  0  0
   39.0690   30.3690   42.8870 O   0  0  0  0  0  0  0  0  0  0  0  0
   39.1110   26.9310   41.9760 C   0  0  0  0  0  0  0  0  0  0  0  0
   37.8450   26.4690   42.3290 C   0  0  0  0  0  0  0  0  0  0  0  0
   36.9630   27.3990   42.9000 C   0  0  0  0  0  0  0  0  0  0  0  0
   37.3750   28.6690   43.0770 N   0  0  0  0  0  0  0  0  0  0  0  0
   38.6120   29.0620   42.7180 C   0  0  0  0  0  0  0  0  0  0  0  0
   39.4770   28.2050   42.1710 N   0  0  0  0  0  0  0  0  0  0  0  0
   39.8520   26.2670   41.5270 H   0  0  0  0  0  0  0  0  0  0  0  0
   35.9800   27.0430   43.1750 H   0  0  0  0  0  0  0  0  0  0  0  0
   37.4970   25.0350   42.0850 C   0  0  0  0  0  0  0  0  0  0  0  0
   38.5930   24.3260   42.5560 F   0  0  0  0  0  0  0  0  0  0  0  0
   37.4210   24.8890   40.6940 F   0  0  0  0  0  0  0  0  0  0  0  0
   36.3340   24.7370   42.7150 F   0  0  0  0  0  0  0  0  0  0  0  0
  1 18  1  0  0  0  0
  2  1  1  0  0  0  0
  2  7  1  0  0  0  0
  3  2  2  0  0  0  0
  4  5  2  0  0  0  0
  4  3  1  0  0  0  0
  5  6  1  0  0  0  0
  6  1  2  0  0  0  0
  8  3  1  0  0  0  0
 10  9  2  0  0  0  0
 11 10  1  0  0  0  0
 11  5  1  1  0  0  0
 12 11  1  0  0  0  0
 13 12  1  0  0  0  0
 14 12  1  0  0  0  0
 14 16  1  0  0  0  0
 15 14  1  0  0  0  0
 16 17  1  0  0  0  0
 16 10  1  0  0  0  0
 18 20  1  0  0  0  0
 18 21  1  0  0  0  0
 19 18  1  0  0  0  0
 22 27  2  0  0  0  0
 22 23  1  0  0  0  0
 23 24  2  0  0  0  0
 24 25  1  0  0  0  0
 24 29  1  0  0  0  0
 26 21  1  0  0  0  0
 26 25  2  0  0  0  0
 27 26  1  0  0  0  0
 28 22  1  0  0  0  0
 30 23  1  0  0  0  0
 30 31  1  0  0  0  0
 30 33  1  0  0  0  0
 32 30  1  0  0  0  0
M  END
>  <minimizedAffinity>
-5.50251055

$$$$

 OpenBabel03252505553D

 33 35  0  0  1  0  0  0  0  0999 V2000
   36.6690   30.8300   39.7950 C   0  0  0  0  0  0  0  0  0  0  0  0
   37.3550   31.9130   39.2790 C   0  0  0  0  0  0  0  0  0  0  0  0
   37.6530   31.9510   37.9530 C   0  0  0  0  0  0  0  0  0  0  0  0
   37.3030   30.9730   37.1320 N   0  0  0  0  0  0  0  0  0  0  0  0
   36.6330   29.9120   37.6240 C   0  0  0  0  0  0  0  0  0  0  0  0
   36.3110   29.8250   38.9400 N   0  0  0  0  0  0  0  0  0  0  0  0
   37.5880   32.6420   40.0240 H   0  0  0  0  0  0  0  0  0  0  0  0
   38.1910   32.8350   37.6390 H   0  0  0  0  0  0  0  0  0  0  0  0
   38.6140   28.0460   36.1250 O   0  0  0  0  0  0  0  0  0  0  0  0
   37.3960   28.2860   35.9190 C   0  0  0  0  0  0  0  0  0  0  0  0
   36.2330   28.7970   36.6900 C   0  0  2  0  0  3  0  0  0  0  0  0
   35.3650   29.3470   35.5610 C   0  0  0  0  0  3  0  0  0  0  0  0
   34.3220   29.5250   35.8820 H   0  0  0  0  0  0  0  0  0  0  0  0
   35.4820   28.1670   34.5990 C   0  0  0  0  0  3  0  0  0  0  0  0
   35.1030   27.2410   35.1030 H   0  0  0  0  0  0  0  0  0  0  0  0
   36.9300   28.0110   34.5820 N   0  0  0  0  0  0  0  0  0  0  0  0
   37.4190   27.7420   33.6860 H   0  0  0  0  0  0  0  0  0  0  0  0
   36.2300   30.5400   41.1530 C   0  0  0  0  0  0  0  0  0  0  0  0
   35.6440   31.3600   41.5930 H   0  0  0  0  0  0  0  0  0  0  0  0
   35.5430   29.6540   41.1150 H   0  0  0  0  0  0  0  0  0  0  0  0
   37.3470   30.1360   41.9030 O   0  0  0  0  0  0  0  0  0  0  0  0
   39.2800   27.1510   41.9810 C   0  0  0  0  0  0  0  0  0  0  0  0
   38.3730   26.1680   42.3640 C   0  0  0  0  0  0  0  0  0  0  0  0
   37.0510   26.5740   42.5990 C   0  0  0  0  0  0  0  0  0  0  0  0
   36.7280   27.8740   42.4450 N   0  0  0  0  0  0  0  0  0  0  0  0
   37.6470   28.7850   42.0720 C   0  0  0  0  0  0  0  0  0  0  0  0
   38.9150   28.4330   41.8400 N   0  0  0  0  0  0  0  0  0  0  0  0
   40.3270   26.9120   41.7820 H   0  0  0  0  0  0  0  0  0  0  0  0
   36.3440   25.8130   42.8960 H   0  0  0  0  0  0  0  0  0  0  0  0
   38.8440   24.7550   42.5040 C   0  0  0  0  0  0  0  0  0  0  0  0
   39.5160   24.4930   41.3180 F   0  0  0  0  0  0  0  0  0  0  0  0
   37.6870   23.9670   42.5580 F   0  0  0  0  0  0  0  0  0  0  0  0
   39.6160   24.6400   43.6130 F   0  0  0  0  0  0  0  0  0  0  0  0
  1 18  1  0  0  0  0
  2  1  1  0  0  0  0
  2  7  1  0  0  0  0
  3  2  2  0  0  0  0
  4  5  2  0  0  0  0
  4  3  1  0  0  0  0
  5  6  1  0  0  0  0
  6  1  2  0  0  0  0
  8  3  1  0  0  0  0
 10  9  2  0  0  0  0
 10 11  1  0  0  0  0
 11  5  1  1  0  0  0
 12 13  1  0  0  0  0
 12 11  1  0  0  0  0
 14 15  1  0  0  0  0
 14 12  1  0  0  0  0
 16 14  1  0  0  0  0
 16 10  1  0  0  0  0
 17 16  1  0  0  0  0
 18 19  1  0  0  0  0
 18 21  1  0  0  0  0
 20 18  1  0  0  0  0
 21 26  1  0  0  0  0
 22 23  1  0  0  0  0
 23 30  1  0  0  0  0
 23 24  2  0  0  0  0
 24 29  1  0  0  0  0
 25 24  1  0  0  0  0
 26 25  2  0  0  0  0
 27 22  2  0  0  0  0
 27 26  1  0  0  0  0
 28 22  1  0  0  0  0
 30 32  1  0  0  0  0
 30 33  1  0  0  0  0
 31 30  1  0  0  0  0
M  END
>  <minimizedAffinity>
-5.46727085

$$$$

 OpenBabel03252505553D

 33 35  0  0  1  0  0  0  0  0999 V2000
   37.0830   28.9960   42.0020 C   0  0  0  0  0  0  0  0  0  0  0  0
   35.9700   28.4780   41.3670 C   0  0  0  0  0  0  0  0  0  0  0  0
   35.3560   29.2010   40.3920 C   0  0  0  0  0  0  0  0  0  0  0  0
   35.7960   30.3950   40.0270 N   0  0  0  0  0  0  0  0  0  0  0  0
   36.8810   30.9080   40.6400 C   0  0  0  0  0  0  0  0  0  0  0  0
   37.5310   30.2300   41.6200 N   0  0  0  0  0  0  0  0  0  0  0  0
   35.7010   27.5130   41.7340 H   0  0  0  0  0  0  0  0  0  0  0  0
   34.4950   28.7180   39.9510 H   0  0  0  0  0  0  0  0  0  0  0  0
   37.4840   31.7740   37.7170 O   0  0  0  0  0  0  0  0  0  0  0  0
   37.8420   32.2770   38.8130 C   0  0  0  0  0  0  0  0  0  0  0  0
   37.3830   32.2700   40.2270 C   0  0  2  0  0  3  0  0  0  0  0  0
   38.6890   32.5880   40.9500 C   0  0  0  0  0  3  0  0  0  0  0  0
   38.5230   32.9070   41.9960 H   0  0  0  0  0  0  0  0  0  0  0  0
   39.1590   33.7370   40.0610 C   0  0  0  0  0  3  0  0  0  0  0  0
   38.3860   34.5480   40.0660 H   0  0  0  0  0  0  0  0  0  0  0  0
   39.0230   33.1050   38.7560 N   0  0  0  0  0  0  0  0  0  0  0  0
   39.7290   33.3050   37.9980 H   0  0  0  0  0  0  0  0  0  0  0  0
   37.9170   28.4440   43.0610 C   0  0  0  0  0  0  0  0  0  0  0  0
   38.1810   29.1910   43.8250 H   0  0  0  0  0  0  0  0  0  0  0  0
   37.3250   27.6530   43.5930 H   0  0  0  0  0  0  0  0  0  0  0  0
   39.0070   27.7850   42.4700 O   0  0  0  0  0  0  0  0  0  0  0  0
   39.2840   25.2510   39.9900 C   0  0  0  0  0  0  0  0  0  0  0  0
   38.6110   24.1630   40.5380 C   0  0  0  0  0  0  0  0  0  0  0  0
   38.0490   24.3350   41.8130 C   0  0  0  0  0  0  0  0  0  0  0  0
   38.1850   25.5230   42.4330 N   0  0  0  0  0  0  0  0  0  0  0  0
   38.8480   26.5440   41.8560 C   0  0  0  0  0  0  0  0  0  0  0  0
   39.3950   26.4150   40.6440 N   0  0  0  0  0  0  0  0  0  0  0  0
   39.7480   25.1920   39.0040 H   0  0  0  0  0  0  0  0  0  0  0  0
   37.5250   23.4920   42.2410 H   0  0  0  0  0  0  0  0  0  0  0  0
   38.5210   22.8900   39.7570 C   0  0  0  0  0  0  0  0  0  0  0  0
   39.6170   22.9260   38.9060 F   0  0  0  0  0  0  0  0  0  0  0  0
   37.3490   22.9860   38.9970 F   0  0  0  0  0  0  0  0  0  0  0  0
   38.5180   21.8340   40.6080 F   0  0  0  0  0  0  0  0  0  0  0  0
  1 18  1  0  0  0  0
  2  7  1  0  0  0  0
  2  1  2  0  0  0  0
  3  2  1  0  0  0  0
  4  3  2  0  0  0  0
  4  5  1  0  0  0  0
  5  6  2  0  0  0  0
  6  1  1  0  0  0  0
  8  3  1  0  0  0  0
  9 10  2  0  0  0  0
 10 11  1  0  0  0  0
 11  5  1  1  0  0  0
 11 12  1  0  0  0  0
 12 13  1  0  0  0  0
 14 15  1  0  0  0  0
 14 12  1  0  0  0  0
 16 10  1  0  0  0  0
 16 14  1  0  0  0  0
 17 16  1  0  0  0  0
 18 20  1  0  0  0  0
 18 19  1  0  0  0  0
 21 18  1  0  0  0  0
 22 23  2  0  0  0  0
 22 27  1  0  0  0  0
 23 24  1  0  0  0  0
 24 29  1  0  0  0  0
 24 25  2  0  0  0  0
 26 25  1  0  0  0  0
 26 21  1  0  0  0  0
 27 26  2  0  0  0  0
 28 22  1  0  0  0  0
 30 23  1  0  0  0  0
 30 33  1  0  0  0  0
 31 30  1  0  0  0  0
 32 30  1  0  0  0  0
M  END
>  <minimizedAffinity>
-5.29615116

$$$$

 OpenBabel03252505553D

 33 35  0  0  1  0  0  0  0  0999 V2000
   36.8910   30.9360   39.7700 C   0  0  0  0  0  0  0  0  0  0  0  0
   36.5930   30.5020   38.4920 C   0  0  0  0  0  0  0  0  0  0  0  0
   37.4170   30.8320   37.4610 C   0  0  0  0  0  0  0  0  0  0  0  0
   38.5050   31.5620   37.6450 N   0  0  0  0  0  0  0  0  0  0  0  0
   38.8050   31.9900   38.8890 C   0  0  0  0  0  0  0  0  0  0  0  0
   38.0170   31.6890   39.9520 N   0  0  0  0  0  0  0  0  0  0  0  0
   35.6970   29.9230   38.4550 H   0  0  0  0  0  0  0  0  0  0  0  0
   37.1060   30.4500   36.4990 H   0  0  0  0  0  0  0  0  0  0  0  0
   41.6640   30.8510   39.3220 O   0  0  0  0  0  0  0  0  0  0  0  0
   41.1900   31.9920   39.5590 C   0  0  0  0  0  0  0  0  0  0  0  0
   40.0460   32.8220   39.1000 C   0  0  2  0  0  3  0  0  0  0  0  0
   39.8610   33.7400   40.3050 C   0  0  0  0  0  3  0  0  0  0  0  0
   39.2420   34.6250   40.0680 H   0  0  0  0  0  0  0  0  0  0  0  0
   41.3260   34.1020   40.5330 C   0  0  0  0  0  3  0  0  0  0  0  0
   41.7360   34.5840   39.6080 H   0  0  0  0  0  0  0  0  0  0  0  0
   41.9080   32.7670   40.5420 N   0  0  0  0  0  0  0  0  0  0  0  0
   42.7040   32.5440   41.1970 H   0  0  0  0  0  0  0  0  0  0  0  0
   36.1920   30.7310   41.0320 C   0  0  0  0  0  0  0  0  0  0  0  0
   36.8020   31.0080   41.9040 H   0  0  0  0  0  0  0  0  0  0  0  0
   35.2990   31.4100   41.0490 H   0  0  0  0  0  0  0  0  0  0  0  0
   35.6860   29.4210   41.0500 O   0  0  0  0  0  0  0  0  0  0  0  0
   37.3790   26.2940   40.9630 C   0  0  0  0  0  0  0  0  0  0  0  0
   37.9880   26.2010   42.2120 C   0  0  0  0  0  0  0  0  0  0  0  0
   37.7910   27.2700   43.0990 C   0  0  0  0  0  0  0  0  0  0  0  0
   37.0370   28.3160   42.7080 N   0  0  0  0  0  0  0  0  0  0  0  0
   36.4720   28.3540   41.4860 C   0  0  0  0  0  0  0  0  0  0  0  0
   36.6370   27.3540   40.6160 N   0  0  0  0  0  0  0  0  0  0  0  0
   37.4870   25.5020   40.2190 H   0  0  0  0  0  0  0  0  0  0  0  0
   38.2630   27.2000   44.0700 H   0  0  0  0  0  0  0  0  0  0  0  0
   38.8040   24.9900   42.5380 C   0  0  0  0  0  0  0  0  0  0  0  0
   39.5100   25.3430   43.6800 F   0  0  0  0  0  0  0  0  0  0  0  0
   39.7020   24.8330   41.4750 F   0  0  0  0  0  0  0  0  0  0  0  0
   37.9860   23.9220   42.7040 F   0  0  0  0  0  0  0  0  0  0  0  0
  1  6  1  0  0  0  0
  1 18  1  0  0  0  0
  2  1  2  0  0  0  0
  3  4  2  0  0  0  0
  3  2  1  0  0  0  0
  4  5  1  0  0  0  0
  5  6  2  0  0  0  0
  7  2  1  0  0  0  0
  8  3  1  0  0  0  0
  9 10  2  0  0  0  0
 10 16  1  0  0  0  0
 11  5  1  1  0  0  0
 11 10  1  0  0  0  0
 11 12  1  0  0  0  0
 12 14  1  0  0  0  0
 13 12  1  0  0  0  0
 14 16  1  0  0  0  0
 15 14  1  0  0  0  0
 16 17  1  0  0  0  0
 18 20  1  0  0  0  0
 18 21  1  0  0  0  0
 18 19  1  0  0  0  0
 21 26  1  0  0  0  0
 22 23  1  0  0  0  0
 23 30  1  0  0  0  0
 23 24  2  0  0  0  0
 24 29  1  0  0  0  0
 25 24  1  0  0  0  0
 26 25  2  0  0  0  0
 27 22  2  0  0  0  0
 27 26  1  0  0  0  0
 28 22  1  0  0  0  0
 30 33  1  0  0  0  0
 30 31  1  0  0  0  0
 32 30  1  0  0  0  0
M  END
>  <minimizedAffinity>
-5.29109812

$$$$

 OpenBabel03252505553D

 33 35  0  0  1  0  0  0  0  0999 V2000
   37.6470   26.1520   42.4250 C   0  0  0  0  0  0  0  0  0  0  0  0
   36.9350   24.9910   42.1880 C   0  0  0  0  0  0  0  0  0  0  0  0
   37.5290   23.9630   41.5240 C   0  0  0  0  0  0  0  0  0  0  0  0
   38.7790   24.0390   41.0960 N   0  0  0  0  0  0  0  0  0  0  0  0
   39.4820   25.1680   41.3220 C   0  0  0  0  0  0  0  0  0  0  0  0
   38.9370   26.2230   41.9780 N   0  0  0  0  0  0  0  0  0  0  0  0
   35.9410   25.0340   42.5740 H   0  0  0  0  0  0  0  0  0  0  0  0
   36.8990   23.0950   41.3840 H   0  0  0  0  0  0  0  0  0  0  0  0
   42.0010   25.0060   43.1340 O   0  0  0  0  0  0  0  0  0  0  0  0
   41.8610   25.4340   41.9600 C   0  0  0  0  0  0  0  0  0  0  0  0
   40.9070   25.2570   40.8340 C   0  0  2  0  0  3  0  0  0  0  0  0
   41.1190   26.5640   40.0750 C   0  0  0  0  0  3  0  0  0  0  0  0
   40.7120   26.5240   39.0480 H   0  0  0  0  0  0  0  0  0  0  0  0
   42.6450   26.5840   40.0930 C   0  0  0  0  0  3  0  0  0  0  0  0
   43.0330   25.6590   39.5940 H   0  0  0  0  0  0  0  0  0  0  0  0
   42.8740   26.3600   41.5140 N   0  0  0  0  0  0  0  0  0  0  0  0
   43.6710   26.8490   42.0020 H   0  0  0  0  0  0  0  0  0  0  0  0
   37.2590   27.3840   43.0980 C   0  0  0  0  0  0  0  0  0  0  0  0
   36.7960   27.2030   44.0790 H   0  0  0  0  0  0  0  0  0  0  0  0
   38.1900   27.9780   43.3000 H   0  0  0  0  0  0  0  0  0  0  0  0
   36.4910   28.1530   42.2090 O   0  0  0  0  0  0  0  0  0  0  0  0
   36.4800   31.2720   40.4980 C   0  0  0  0  0  0  0  0  0  0  0  0
   37.7670   31.7690   40.6890 C   0  0  0  0  0  0  0  0  0  0  0  0
   38.6520   30.9800   41.4390 C   0  0  0  0  0  0  0  0  0  0  0  0
   38.2230   29.8010   41.9300 N   0  0  0  0  0  0  0  0  0  0  0  0
   36.9660   29.3680   41.7150 C   0  0  0  0  0  0  0  0  0  0  0  0
   36.0970   30.0920   41.0060 N   0  0  0  0  0  0  0  0  0  0  0  0
   35.7360   31.8290   39.9270 H   0  0  0  0  0  0  0  0  0  0  0  0
   39.6520   31.3640   41.5880 H   0  0  0  0  0  0  0  0  0  0  0  0
   38.1330   33.0930   40.0960 C   0  0  0  0  0  0  0  0  0  0  0  0
   36.9420   33.5850   39.5800 F   0  0  0  0  0  0  0  0  0  0  0  0
   39.0080   32.8120   39.0390 F   0  0  0  0  0  0  0  0  0  0  0  0
   38.6880   33.8810   41.0500 F   0  0  0  0  0  0  0  0  0  0  0  0
  1 18  1  0  0  0  0
  2  1  1  0  0  0  0
  2  7  1  0  0  0  0
  3  2  2  0  0  0  0
  4  5  2  0  0  0  0
  4  3  1  0  0  0  0
  5  6  1  0  0  0  0
  6  1  2  0  0  0  0
  8  3  1  0  0  0  0
 10  9  2  0  0  0  0
 11  5  1  1  0  0  0
 11 10  1  0  0  0  0
 12 14  1  0  0  0  0
 12 11  1  0  0  0  0
 13 12  1  0  0  0  0
 14 16  1  0  0  0  0
 15 14  1  0  0  0  0
 16 10  1  0  0  0  0
 16 17  1  0  0  0  0
 18 20  1  0  0  0  0
 18 19  1  0  0  0  0
 21 18  1  0  0  0  0
 22 23  2  0  0  0  0
 22 27  1  0  0  0  0
 23 24  1  0  0  0  0
 24 29  1  0  0  0  0
 24 25  2  0  0  0  0
 26 25  1  0  0  0  0
 26 21  1  0  0  0  0
 27 26  2  0  0  0  0
 28 22  1  0  0  0  0
 30 23  1  0  0  0  0
 30 33  1  0  0  0  0
 31 30  1  0  0  0  0
 32 30  1  0  0  0  0
M  END
>  <minimizedAffinity>
-5.28082657

$$$$

 OpenBabel03252505553D

 33 35  0  0  1  0  0  0  0  0999 V2000
   37.4440   31.8490   40.4460 C   0  0  0  0  0  0  0  0  0  0  0  0
   37.3600   33.1340   39.9410 C   0  0  0  0  0  0  0  0  0  0  0  0
   38.4510   33.9450   39.9820 C   0  0  0  0  0  0  0  0  0  0  0  0
   39.6020   33.5390   40.4940 N   0  0  0  0  0  0  0  0  0  0  0  0
   39.6950   32.2880   40.9880 C   0  0  0  0  0  0  0  0  0  0  0  0
   38.6370   31.4390   40.9730 N   0  0  0  0  0  0  0  0  0  0  0  0
   36.3910   33.3580   39.5530 H   0  0  0  0  0  0  0  0  0  0  0  0
   38.2930   34.9300   39.5660 H   0  0  0  0  0  0  0  0  0  0  0  0
   42.0330   31.0480   39.3600 O   0  0  0  0  0  0  0  0  0  0  0  0
   41.7900   31.0260   40.5940 C   0  0  0  0  0  0  0  0  0  0  0  0
   41.0070   31.8240   41.5730 C   0  0  2  0  0  3  0  0  0  0  0  0
   40.7560   30.7790   42.6560 C   0  0  0  0  0  3  0  0  0  0  0  0
   40.4290   31.2320   43.6100 H   0  0  0  0  0  0  0  0  0  0  0  0
   42.1690   30.2060   42.7400 C   0  0  0  0  0  3  0  0  0  0  0  0
   42.8850   31.0270   43.0060 H   0  0  0  0  0  0  0  0  0  0  0  0
   42.4120   29.9500   41.3270 N   0  0  0  0  0  0  0  0  0  0  0  0
   42.9580   29.0970   41.0330 H   0  0  0  0  0  0  0  0  0  0  0  0
   36.4460   30.7920   40.5270 C   0  0  0  0  0  0  0  0  0  0  0  0
   35.4230   31.1600   40.3620 H   0  0  0  0  0  0  0  0  0  0  0  0
   36.6490   30.0590   39.7020 H   0  0  0  0  0  0  0  0  0  0  0  0
   36.6400   30.0900   41.7280 O   0  0  0  0  0  0  0  0  0  0  0  0
   36.8730   26.7730   40.4650 C   0  0  0  0  0  0  0  0  0  0  0  0
   37.1150   25.9950   41.5940 C   0  0  0  0  0  0  0  0  0  0  0  0
   37.1960   26.6630   42.8250 C   0  0  0  0  0  0  0  0  0  0  0  0
   37.0400   28.0010   42.8550 N   0  0  0  0  0  0  0  0  0  0  0  0
   36.8070   28.7050   41.7310 C   0  0  0  0  0  0  0  0  0  0  0  0
   36.7230   28.1020   40.5430 N   0  0  0  0  0  0  0  0  0  0  0  0
   36.7970   26.3240   39.4730 H   0  0  0  0  0  0  0  0  0  0  0  0
   37.3840   26.0620   43.7030 H   0  0  0  0  0  0  0  0  0  0  0  0
   37.2720   24.5150   41.4410 C   0  0  0  0  0  0  0  0  0  0  0  0
   35.9740   24.0350   41.3480 F   0  0  0  0  0  0  0  0  0  0  0  0
   37.8430   24.0630   42.6380 F   0  0  0  0  0  0  0  0  0  0  0  0
   38.0380   24.2500   40.3540 F   0  0  0  0  0  0  0  0  0  0  0  0
  1 18  1  0  0  0  0
  1  6  1  0  0  0  0
  2  3  1  0  0  0  0
  2  1  2  0  0  0  0
  3  4  2  0  0  0  0
  4  5  1  0  0  0  0
  6  5  2  0  0  0  0
  7  2  1  0  0  0  0
  8  3  1  0  0  0  0
  9 10  2  0  0  0  0
 10 16  1  0  0  0  0
 10 11  1  0  0  0  0
 11  5  1  6  0  0  0
 11 12  1  0  0  0  0
 12 14  1  0  0  0  0
 12 13  1  0  0  0  0
 14 15  1  0  0  0  0
 16 14  1  0  0  0  0
 17 16  1  0  0  0  0
 18 21  1  0  0  0  0
 19 18  1  0  0  0  0
 20 18  1  0  0  0  0
 21 26  1  0  0  0  0
 22 27  2  0  0  0  0
 22 23  1  0  0  0  0
 23 24  2  0  0  0  0
 24 25  1  0  0  0  0
 24 29  1  0  0  0  0
 26 25  2  0  0  0  0
 27 26  1  0  0  0  0
 28 22  1  0  0  0  0
 30 23  1  0  0  0  0
 30 32  1  0  0  0  0
 31 30  1  0  0  0  0
 33 30  1  0  0  0  0
M  END
>  <minimizedAffinity>
-5.24304342

$$$$

 OpenBabel03252505553D

 33 35  0  0  1  0  0  0  0  0999 V2000
   37.4240   28.9870   41.0560 C   0  0  0  0  0  0  0  0  0  0  0  0
   37.6400   29.6130   42.2700 C   0  0  0  0  0  0  0  0  0  0  0  0
   37.7250   28.8670   43.4040 C   0  0  0  0  0  0  0  0  0  0  0  0
   37.6080   27.5490   43.3830 N   0  0  0  0  0  0  0  0  0  0  0  0
   37.3980   26.9290   42.2040 C   0  0  0  0  0  0  0  0  0  0  0  0
   37.3040   27.6250   41.0430 N   0  0  0  0  0  0  0  0  0  0  0  0
   37.7190   30.6730   42.1760 H   0  0  0  0  0  0  0  0  0  0  0  0
   37.8950   29.4400   44.3060 H   0  0  0  0  0  0  0  0  0  0  0  0
   39.5530   24.9290   43.2120 O   0  0  0  0  0  0  0  0  0  0  0  0
   38.5620   24.7570   42.4570 C   0  0  0  0  0  0  0  0  0  0  0  0
   37.2650   25.4260   42.1780 C   0  0  2  0  0  3  0  0  0  0  0  0
   37.0010   24.9490   40.7520 C   0  0  0  0  0  3  0  0  0  0  0  0
   35.9500   25.1030   40.4450 H   0  0  0  0  0  0  0  0  0  0  0  0
   37.3390   23.4740   40.9470 C   0  0  0  0  0  3  0  0  0  0  0  0
   36.6720   23.0440   41.7390 H   0  0  0  0  0  0  0  0  0  0  0  0
   38.6380   23.6050   41.5910 N   0  0  0  0  0  0  0  0  0  0  0  0
   39.4060   22.9140   41.3730 H   0  0  0  0  0  0  0  0  0  0  0  0
   37.2920   29.5350   39.7140 C   0  0  0  0  0  0  0  0  0  0  0  0
   37.9180   29.0080   38.9770 H   0  0  0  0  0  0  0  0  0  0  0  0
   36.2310   29.3890   39.3800 H   0  0  0  0  0  0  0  0  0  0  0  0
   37.4920   30.9240   39.7800 O   0  0  0  0  0  0  0  0  0  0  0  0
   40.5710   32.7040   39.8450 C   0  0  0  0  0  0  0  0  0  0  0  0
   41.0050   32.6810   38.5220 C   0  0  0  0  0  0  0  0  0  0  0  0
   40.1880   32.0210   37.5920 C   0  0  0  0  0  0  0  0  0  0  0  0
   39.0430   31.4510   38.0160 N   0  0  0  0  0  0  0  0  0  0  0  0
   38.6700   31.5030   39.3090 C   0  0  0  0  0  0  0  0  0  0  0  0
   39.4230   32.1230   40.2210 N   0  0  0  0  0  0  0  0  0  0  0  0
   41.1530   33.1980   40.6250 H   0  0  0  0  0  0  0  0  0  0  0  0
   40.5230   32.0020   36.5650 H   0  0  0  0  0  0  0  0  0  0  0  0
   42.2960   33.3490   38.1660 C   0  0  0  0  0  0  0  0  0  0  0  0
   43.2130   32.3110   38.0820 F   0  0  0  0  0  0  0  0  0  0  0  0
   42.6240   34.1610   39.2590 F   0  0  0  0  0  0  0  0  0  0  0  0
   42.1440   34.0460   37.0130 F   0  0  0  0  0  0  0  0  0  0  0  0
  1  2  1  0  0  0  0
  2  3  2  0  0  0  0
  3  8  1  0  0  0  0
  4  3  1  0  0  0  0
  5  4  2  0  0  0  0
  6  1  2  0  0  0  0
  6  5  1  0  0  0  0
  7  2  1  0  0  0  0
 10  9  2  0  0  0  0
 11  5  1  6  0  0  0
 11 10  1  0  0  0  0
 12 14  1  0  0  0  0
 12 11  1  0  0  0  0
 13 12  1  0  0  0  0
 14 16  1  0  0  0  0
 14 15  1  0  0  0  0
 16 10  1  0  0  0  0
 17 16  1  0  0  0  0
 18 21  1  0  0  0  0
 18  1  1  0  0  0  0
 19 18  1  0  0  0  0
 20 18  1  0  0  0  0
 22 27  1  0  0  0  0
 22 28  1  0  0  0  0
 23 22  2  0  0  0  0
 24 25  2  0  0  0  0
 24 23  1  0  0  0  0
 25 26  1  0  0  0  0
 26 21  1  0  0  0  0
 26 27  2  0  0  0  0
 29 24  1  0  0  0  0
 30 23  1  0  0  0  0
 30 32  1  0  0  0  0
 31 30  1  0  0  0  0
 33 30  1  0  0  0  0
M  END
>  <minimizedAffinity>
-5.19200087

$$$$

 OpenBabel03252505553D

 33 35  0  0  1  0  0  0  0  0999 V2000
   38.1030   28.7740   41.3820 C   0  0  0  0  0  0  0  0  0  0  0  0
   37.9450   29.3370   42.6350 C   0  0  0  0  0  0  0  0  0  0  0  0
   37.5630   28.5540   43.6800 C   0  0  0  0  0  0  0  0  0  0  0  0
   37.3370   27.2580   43.5340 N   0  0  0  0  0  0  0  0  0  0  0  0
   37.4890   26.6990   42.3160 C   0  0  0  0  0  0  0  0  0  0  0  0
   37.8670   27.4340   41.2400 N   0  0  0  0  0  0  0  0  0  0  0  0
   38.1510   30.3840   42.6420 H   0  0  0  0  0  0  0  0  0  0  0  0
   37.4640   29.0790   44.6200 H   0  0  0  0  0  0  0  0  0  0  0  0
   39.4440   24.4400   43.1710 O   0  0  0  0  0  0  0  0  0  0  0  0
   38.4610   24.4220   42.3860 C   0  0  0  0  0  0  0  0  0  0  0  0
   37.2320   25.2220   42.1490 C   0  0  2  0  0  3  0  0  0  0  0  0
   36.9640   24.9010   40.6810 C   0  0  0  0  0  3  0  0  0  0  0  0
   35.9370   25.1700   40.3720 H   0  0  0  0  0  0  0  0  0  0  0  0
   37.1730   23.3900   40.7440 C   0  0  0  0  0  3  0  0  0  0  0  0
   36.4550   22.9480   41.4810 H   0  0  0  0  0  0  0  0  0  0  0  0
   38.4630   23.3520   41.4190 N   0  0  0  0  0  0  0  0  0  0  0  0
   39.1760   22.6210   41.1510 H   0  0  0  0  0  0  0  0  0  0  0  0
   38.4950   29.3720   40.1130 C   0  0  0  0  0  0  0  0  0  0  0  0
   39.5030   29.8120   40.1460 H   0  0  0  0  0  0  0  0  0  0  0  0
   38.5370   28.5570   39.3430 H   0  0  0  0  0  0  0  0  0  0  0  0
   37.4760   30.2450   39.7010 O   0  0  0  0  0  0  0  0  0  0  0  0
   34.2570   29.0270   38.8020 C   0  0  0  0  0  0  0  0  0  0  0  0
   34.3120   28.9090   37.4160 C   0  0  0  0  0  0  0  0  0  0  0  0
   35.5160   29.2700   36.7910 C   0  0  0  0  0  0  0  0  0  0  0  0
   36.5420   29.7050   37.5490 N   0  0  0  0  0  0  0  0  0  0  0  0
   36.4340   29.8000   38.8880 C   0  0  0  0  0  0  0  0  0  0  0  0
   35.3040   29.4650   39.5160 N   0  0  0  0  0  0  0  0  0  0  0  0
   33.3550   28.7660   39.3580 H   0  0  0  0  0  0  0  0  0  0  0  0
   35.5610   29.1800   35.7150 H   0  0  0  0  0  0  0  0  0  0  0  0
   33.1100   28.4140   36.6770 C   0  0  0  0  0  0  0  0  0  0  0  0
   33.2990   28.8480   35.3730 F   0  0  0  0  0  0  0  0  0  0  0  0
   32.0130   29.0890   37.2290 F   0  0  0  0  0  0  0  0  0  0  0  0
   33.0220   27.0670   36.8020 F   0  0  0  0  0  0  0  0  0  0  0  0
  1  2  1  0  0  0  0
  2  7  1  0  0  0  0
  2  3  2  0  0  0  0
  3  8  1  0  0  0  0
  4  3  1  0  0  0  0
  5  4  2  0  0  0  0
  6  1  2  0  0  0  0
  6  5  1  0  0  0  0
 10  9  2  0  0  0  0
 11  5  1  6  0  0  0
 11 10  1  0  0  0  0
 12 14  1  0  0  0  0
 12 11  1  0  0  0  0
 13 12  1  0  0  0  0
 14 16  1  0  0  0  0
 14 15  1  0  0  0  0
 16 10  1  0  0  0  0
 17 16  1  0  0  0  0
 18 19  1  0  0  0  0
 18  1  1  0  0  0  0
 20 18  1  0  0  0  0
 21 18  1  0  0  0  0
 22 28  1  0  0  0  0
 22 27  1  0  0  0  0
 23 22  2  0  0  0  0
 24 23  1  0  0  0  0
 24 25  2  0  0  0  0
 25 26  1  0  0  0  0
 26 27  2  0  0  0  0
 26 21  1  0  0  0  0
 29 24  1  0  0  0  0
 30 33  1  0  0  0  0
 30 32  1  0  0  0  0
 30 23  1  0  0  0  0
 31 30  1  0  0  0  0
M  END
>  <minimizedAffinity>
-5.16938877

$$$$
