
 OpenBabel03242523193D

 37 40  0  0  1  0  0  0  0  0999 V2000
   44.5430   31.7960   42.8960 Cl  0  0  0  0  0  0  0  0  0  0  0  0
   44.5780   33.5530   42.8000 C   0  0  0  0  0  0  0  0  0  0  0  0
   45.4530   34.1910   43.7040 C   0  0  0  0  0  0  0  0  0  0  0  0
   45.4140   35.5650   43.5310 C   0  0  0  0  0  0  0  0  0  0  0  0
   44.7000   36.3040   42.6700 C   0  0  0  0  0  0  0  0  0  0  0  0
   43.8820   35.6090   41.8330 C   0  0  0  0  0  0  0  0  0  0  0  0
   43.8010   34.2520   41.8770 C   0  0  0  0  0  0  0  0  0  0  0  0
   46.0210   36.2220   44.1900 H   0  0  0  0  0  0  0  0  0  0  0  0
   44.7120   37.3780   42.5760 H   0  0  0  0  0  0  0  0  0  0  0  0
   43.2270   36.0290   41.0700 H   0  0  0  0  0  0  0  0  0  0  0  0
   44.3880   33.3700   39.0110 O   0  0  0  0  0  0  0  0  0  0  0  0
   43.2650   33.6470   39.5550 C   0  0  0  0  0  0  0  0  0  0  0  0
   42.9360   33.4050   41.0070 C   0  0  2  0  0  3  0  0  0  0  0  0
   41.4950   33.7190   41.0490 C   0  0  0  0  0  3  0  0  0  0  0  0
   41.2350   34.7460   41.3730 H   0  0  0  0  0  0  0  0  0  0  0  0
   40.9700   33.6440   39.6250 C   0  0  0  0  0  3  0  0  0  0  0  0
   40.8790   32.5620   39.3290 H   0  0  0  0  0  0  0  0  0  0  0  0
   42.1120   34.2300   38.9100 N   0  0  0  0  0  0  0  0  0  0  0  0
   42.1750   34.9100   38.1190 H   0  0  0  0  0  0  0  0  0  0  0  0
   46.3220   33.5290   44.7100 C   0  0  0  0  0  0  0  0  0  0  0  0
   45.7420   33.9000   45.7010 O   0  0  0  0  0  0  0  0  0  0  0  0
   47.3890   32.8000   44.0090 C   0  0  0  0  0  0  0  0  0  0  0  0
   48.2430   33.3100   43.1120 C   0  0  0  0  0  0  0  0  0  0  0  0
   49.0790   32.3780   42.5290 C   0  0  0  0  0  0  0  0  0  0  0  0
   48.9680   31.0340   42.9190 N   0  0  0  0  0  0  0  0  0  0  0  0
   48.1070   30.6100   43.8100 C   0  0  0  0  0  0  0  0  0  0  0  0
   47.2510   31.5090   44.4140 N   0  0  0  0  0  0  0  0  0  0  0  0
   49.8300   32.6170   41.7800 H   0  0  0  0  0  0  0  0  0  0  0  0
   48.1420   29.5440   44.0060 H   0  0  0  0  0  0  0  0  0  0  0  0
   48.4360   34.6810   42.8070 C   0  0  0  0  0  0  0  0  0  0  0  0
   49.4690   35.2670   42.1420 C   0  0  0  0  0  0  0  0  0  0  0  0
   48.2410   35.1060   41.2860 C   0  0  0  0  0  0  0  0  0  0  0  0
   47.9740   35.3760   43.5350 H   0  0  0  0  0  0  0  0  0  0  0  0
   50.3340   34.6370   41.7750 H   0  0  0  0  0  0  0  0  0  0  0  0
   49.8120   36.3250   42.1520 H   0  0  0  0  0  0  0  0  0  0  0  0
   47.5370   35.9380   41.1620 H   0  0  0  0  0  0  0  0  0  0  0  0
   48.1780   34.2280   40.6050 H   0  0  0  0  0  0  0  0  0  0  0  0
  2  1  1  0  0  0  0
  2  3  1  0  0  0  0
  3 20  1  0  0  0  0
  4  3  2  0  0  0  0
  4  8  1  0  0  0  0
  5  4  1  0  0  0  0
  6  7  1  0  0  0  0
  6  5  2  0  0  0  0
  7  2  2  0  0  0  0
  9  5  1  0  0  0  0
 10  6  1  0  0  0  0
 11 12  2  0  0  0  0
 12 13  1  0  0  0  0
 13 14  1  0  0  0  0
 13  7  1  1  0  0  0
 14 15  1  0  0  0  0
 16 14  1  0  0  0  0
 17 16  1  0  0  0  0
 18 12  1  0  0  0  0
 18 16  1  0  0  0  0
 19 18  1  0  0  0  0
 20 21  2  0  0  0  0
 22 27  1  0  0  0  0
 22 20  1  0  0  0  0
 23 22  2  0  0  0  0
 24 25  2  0  0  0  0
 24 23  1  0  0  0  0
 25 26  1  0  0  0  0
 26 29  1  0  0  0  0
 26 27  2  0  0  0  0
 28 24  1  0  0  0  0
 30 23  1  0  0  0  0
 30 33  1  0  0  0  0
 31 35  1  0  0  0  0
 31 30  1  0  0  0  0
 32 31  1  0  0  0  0
 32 30  1  0  0  0  0
 34 31  1  0  0  0  0
 36 32  1  0  0  0  0
 37 32  1  0  0  0  0
M  END
>  <minimizedAffinity>
-5.70333815

>  <minimizedRMSD>
0.227193817

$$$$
