
 OpenBabel03252504213D

 19 20  0  0  1  0  0  0  0  0999 V2000
   37.7570   29.4400   42.5000 C   0  0  0  0  0  0  0  0  0  0  0  0
   39.0580   29.9310   42.6980 C   0  0  0  0  0  0  0  0  0  0  0  0
   39.5300   30.9130   41.8130 C   0  0  0  0  0  0  0  0  0  0  0  0
   38.7130   31.3340   40.8190 N   0  0  0  0  0  0  0  0  0  0  0  0
   37.4720   30.8350   40.6640 C   0  0  0  0  0  0  0  0  0  0  0  0
   36.9900   29.8970   41.4920 N   0  0  0  0  0  0  0  0  0  0  0  0
   39.7250   29.6150   43.4780 H   0  0  0  0  0  0  0  0  0  0  0  0
   40.5270   31.3160   41.9330 H   0  0  0  0  0  0  0  0  0  0  0  0
   37.3160   33.5050   39.9130 O   0  0  0  0  0  0  0  0  0  0  0  0
   37.2960   32.5830   39.0320 C   0  0  0  0  0  0  0  0  0  0  0  0
   36.6330   31.3540   39.5420 C   0  0  1  0  0  3  0  0  0  0  0  0
   36.6570   30.4690   38.3300 C   0  0  0  0  0  3  0  0  0  0  0  0
   36.7080   29.3980   38.5590 H   0  0  0  0  0  0  0  0  0  0  0  0
   37.8640   30.9880   37.5770 C   0  0  0  0  0  3  0  0  0  0  0  0
   38.7580   30.5630   38.0810 H   0  0  0  0  0  0  0  0  0  0  0  0
   37.7390   32.4070   37.6930 N   0  0  0  0  0  0  0  0  0  0  0  0
   37.8490   33.3200   37.1730 H   0  0  0  0  0  0  0  0  0  0  0  0
   37.2410   28.1890   43.6780 S   0  0  0  0  0  0  0  0  0  0  0  0
   36.1930   27.4040   43.2160 H   0  0  0  0  0  0  0  0  0  0  0  0
  1  2  1  0  0  0  0
  1 18  1  0  0  0  0
  2  7  1  0  0  0  0
  3  8  1  0  0  0  0
  3  2  2  0  0  0  0
  4  3  1  0  0  0  0
  5  4  2  0  0  0  0
  5  6  1  0  0  0  0
  6  1  2  0  0  0  0
 10 11  1  0  0  0  0
 10  9  2  0  0  0  0
 11  5  1  1  0  0  0
 12 13  1  0  0  0  0
 12 11  1  0  0  0  0
 14 16  1  0  0  0  0
 14 15  1  0  0  0  0
 14 12  1  0  0  0  0
 16 10  1  0  0  0  0
 17 16  1  0  0  0  0
 19 18  1  0  0  0  0
M  END
>  <minimizedAffinity>
-4.26411772

$$$$

 OpenBabel03252504213D

 19 20  0  0  1  0  0  0  0  0999 V2000
   36.9570   25.4050   40.7280 C   0  0  0  0  0  0  0  0  0  0  0  0
   37.0570   25.4240   42.1280 C   0  0  0  0  0  0  0  0  0  0  0  0
   37.0070   26.6710   42.7720 C   0  0  0  0  0  0  0  0  0  0  0  0
   36.8650   27.7840   42.0150 N   0  0  0  0  0  0  0  0  0  0  0  0
   36.7730   27.7200   40.6730 C   0  0  0  0  0  0  0  0  0  0  0  0
   36.8180   26.5460   40.0260 N   0  0  0  0  0  0  0  0  0  0  0  0
   37.1700   24.5580   42.7520 H   0  0  0  0  0  0  0  0  0  0  0  0
   37.0810   26.7270   43.8500 H   0  0  0  0  0  0  0  0  0  0  0  0
   34.3540   29.0140   40.2360 O   0  0  0  0  0  0  0  0  0  0  0  0
   35.4170   29.6850   40.4510 C   0  0  0  0  0  0  0  0  0  0  0  0
   36.6180   28.9950   39.9100 C   0  0  1  0  0  3  0  0  0  0  0  0
   37.7000   29.9930   40.2020 C   0  0  0  0  0  3  0  0  0  0  0  0
   38.6860   29.5450   40.3740 H   0  0  0  0  0  0  0  0  0  0  0  0
   37.1460   30.7250   41.4050 C   0  0  0  0  0  3  0  0  0  0  0  0
   37.3190   30.0670   42.2830 H   0  0  0  0  0  0  0  0  0  0  0  0
   35.7690   30.9140   41.0700 N   0  0  0  0  0  0  0  0  0  0  0  0
   34.9660   31.5990   41.1120 H   0  0  0  0  0  0  0  0  0  0  0  0
   37.0320   23.7690   39.9940 S   0  0  0  0  0  0  0  0  0  0  0  0
   37.3950   23.7880   38.6540 H   0  0  0  0  0  0  0  0  0  0  0  0
  1  2  1  0  0  0  0
  2  7  1  0  0  0  0
  2  3  2  0  0  0  0
  3  8  1  0  0  0  0
  4  3  1  0  0  0  0
  5  4  2  0  0  0  0
  6  5  1  0  0  0  0
  6  1  2  0  0  0  0
  9 10  2  0  0  0  0
 10 16  1  0  0  0  0
 11 12  1  0  0  0  0
 11 10  1  0  0  0  0
 11  5  1  1  0  0  0
 12 13  1  0  0  0  0
 12 14  1  0  0  0  0
 14 15  1  0  0  0  0
 16 17  1  0  0  0  0
 16 14  1  0  0  0  0
 18  1  1  0  0  0  0
 19 18  1  0  0  0  0
M  END
>  <minimizedAffinity>
-4.13842916

$$$$

 OpenBabel03252504213D

 19 20  0  0  1  0  0  0  0  0999 V2000
   37.7400   26.8550   42.0900 C   0  0  0  0  0  0  0  0  0  0  0  0
   37.8650   27.3590   43.3950 C   0  0  0  0  0  0  0  0  0  0  0  0
   37.8720   28.7530   43.5610 C   0  0  0  0  0  0  0  0  0  0  0  0
   37.7590   29.5360   42.4620 N   0  0  0  0  0  0  0  0  0  0  0  0
   37.6420   29.0110   41.2290 C   0  0  0  0  0  0  0  0  0  0  0  0
   37.6320   27.6840   41.0340 N   0  0  0  0  0  0  0  0  0  0  0  0
   37.9550   26.7620   44.2820 H   0  0  0  0  0  0  0  0  0  0  0  0
   37.9660   29.1800   44.5510 H   0  0  0  0  0  0  0  0  0  0  0  0
   35.2650   30.1620   40.3680 O   0  0  0  0  0  0  0  0  0  0  0  0
   36.3550   30.8250   40.3340 C   0  0  0  0  0  0  0  0  0  0  0  0
   37.5220   29.9440   40.0680 C   0  0  1  0  0  3  0  0  0  0  0  0
   38.6440   30.9370   39.9910 C   0  0  0  0  0  3  0  0  0  0  0  0
   39.6150   30.5410   40.3080 H   0  0  0  0  0  0  0  0  0  0  0  0
   38.1340   32.0650   40.8620 C   0  0  0  0  0  3  0  0  0  0  0  0
   38.2950   31.7500   41.9150 H   0  0  0  0  0  0  0  0  0  0  0  0
   36.7600   32.1790   40.4830 N   0  0  0  0  0  0  0  0  0  0  0  0
   35.9820   32.8650   40.2840 H   0  0  0  0  0  0  0  0  0  0  0  0
   37.7410   25.0650   41.9760 S   0  0  0  0  0  0  0  0  0  0  0  0
   38.0810   24.5990   40.7120 H   0  0  0  0  0  0  0  0  0  0  0  0
  1  2  1  0  0  0  0
  2  3  2  0  0  0  0
  2  7  1  0  0  0  0
  3  8  1  0  0  0  0
  4  3  1  0  0  0  0
  5  4  2  0  0  0  0
  6  5  1  0  0  0  0
  6  1  2  0  0  0  0
 10  9  2  0  0  0  0
 10 16  1  0  0  0  0
 11 10  1  0  0  0  0
 11  5  1  1  0  0  0
 12 11  1  0  0  0  0
 12 13  1  0  0  0  0
 12 14  1  0  0  0  0
 14 15  1  0  0  0  0
 16 14  1  0  0  0  0
 17 16  1  0  0  0  0
 18  1  1  0  0  0  0
 19 18  1  0  0  0  0
M  END
>  <minimizedAffinity>
-4.0324173

$$$$

 OpenBabel03252504213D

 19 20  0  0  1  0  0  0  0  0999 V2000
   38.7850   30.8630   41.3240 C   0  0  0  0  0  0  0  0  0  0  0  0
   37.8840   31.7200   40.6710 C   0  0  0  0  0  0  0  0  0  0  0  0
   36.5500   31.3010   40.5510 C   0  0  0  0  0  0  0  0  0  0  0  0
   36.2010   30.0990   41.0670 N   0  0  0  0  0  0  0  0  0  0  0  0
   37.0970   29.3070   41.6850 C   0  0  0  0  0  0  0  0  0  0  0  0
   38.3800   29.6770   41.8170 N   0  0  0  0  0  0  0  0  0  0  0  0
   38.1340   32.6770   40.2540 H   0  0  0  0  0  0  0  0  0  0  0  0
   35.8260   31.9340   40.0550 H   0  0  0  0  0  0  0  0  0  0  0  0
   37.2740   26.8880   40.3310 O   0  0  0  0  0  0  0  0  0  0  0  0
   37.4640   26.9390   41.5920 C   0  0  0  0  0  0  0  0  0  0  0  0
   36.6320   27.9950   42.2270 C   0  0  1  0  0  3  0  0  0  0  0  0
   36.9570   27.8080   43.6800 C   0  0  0  0  0  3  0  0  0  0  0  0
   36.8950   28.7270   44.2740 H   0  0  0  0  0  0  0  0  0  0  0  0
   38.3480   27.2130   43.6230 C   0  0  0  0  0  3  0  0  0  0  0  0
   39.0450   28.0560   43.4290 H   0  0  0  0  0  0  0  0  0  0  0  0
   38.2570   26.2640   42.5580 N   0  0  0  0  0  0  0  0  0  0  0  0
   38.5480   25.2970   42.2480 H   0  0  0  0  0  0  0  0  0  0  0  0
   40.4660   31.4820   41.4290 S   0  0  0  0  0  0  0  0  0  0  0  0
   41.4040   30.4790   41.6380 H   0  0  0  0  0  0  0  0  0  0  0  0
  1 18  1  0  0  0  0
  1  6  1  0  0  0  0
  2  1  2  0  0  0  0
  3  2  1  0  0  0  0
  3  4  2  0  0  0  0
  4  5  1  0  0  0  0
  5  6  2  0  0  0  0
  7  2  1  0  0  0  0
  8  3  1  0  0  0  0
  9 10  2  0  0  0  0
 10 11  1  0  0  0  0
 10 16  1  0  0  0  0
 11  5  1  6  0  0  0
 11 12  1  0  0  0  0
 12 13  1  0  0  0  0
 14 12  1  0  0  0  0
 15 14  1  0  0  0  0
 16 14  1  0  0  0  0
 17 16  1  0  0  0  0
 18 19  1  0  0  0  0
M  END
>  <minimizedAffinity>
-4.01777649

$$$$

 OpenBabel03252504213D

 19 20  0  0  1  0  0  0  0  0999 V2000
   40.0580   26.2660   40.9830 C   0  0  0  0  0  0  0  0  0  0  0  0
   40.9600   25.5210   41.7600 C   0  0  0  0  0  0  0  0  0  0  0  0
   40.8380   25.5970   43.1570 C   0  0  0  0  0  0  0  0  0  0  0  0
   39.8650   26.3780   43.6800 N   0  0  0  0  0  0  0  0  0  0  0  0
   39.0210   27.0760   42.8970 C   0  0  0  0  0  0  0  0  0  0  0  0
   39.1090   27.0270   41.5600 N   0  0  0  0  0  0  0  0  0  0  0  0
   41.7390   24.8940   41.3710 H   0  0  0  0  0  0  0  0  0  0  0  0
   41.5150   25.0370   43.7890 H   0  0  0  0  0  0  0  0  0  0  0  0
   39.0580   29.8520   43.0000 O   0  0  0  0  0  0  0  0  0  0  0  0
   37.9570   29.2250   42.8490 C   0  0  0  0  0  0  0  0  0  0  0  0
   37.9740   27.9160   43.5540 C   0  0  1  0  0  3  0  0  0  0  0  0
   36.5800   27.4190   43.3070 C   0  0  0  0  0  3  0  0  0  0  0  0
   36.4950   26.3270   43.2660 H   0  0  0  0  0  0  0  0  0  0  0  0
   36.2190   28.1060   42.0080 C   0  0  0  0  0  3  0  0  0  0  0  0
   36.7190   27.5340   41.1970 H   0  0  0  0  0  0  0  0  0  0  0  0
   36.7180   29.4340   42.1880 N   0  0  0  0  0  0  0  0  0  0  0  0
   36.5090   30.4560   42.0190 H   0  0  0  0  0  0  0  0  0  0  0  0
   40.2890   26.1080   39.2100 S   0  0  0  0  0  0  0  0  0  0  0  0
   39.7350   27.1600   38.4920 H   0  0  0  0  0  0  0  0  0  0  0  0
  1  6  2  0  0  0  0
  1  2  1  0  0  0  0
  2  3  2  0  0  0  0
  3  4  1  0  0  0  0
  3  8  1  0  0  0  0
  5  4  2  0  0  0  0
  6  5  1  0  0  0  0
  7  2  1  0  0  0  0
 10  9  2  0  0  0  0
 10 11  1  0  0  0  0
 11  5  1  6  0  0  0
 12 11  1  0  0  0  0
 13 12  1  0  0  0  0
 14 16  1  0  0  0  0
 14 12  1  0  0  0  0
 15 14  1  0  0  0  0
 16 10  1  0  0  0  0
 17 16  1  0  0  0  0
 18  1  1  0  0  0  0
 19 18  1  0  0  0  0
M  END
>  <minimizedAffinity>
-4.01334667

$$$$

 OpenBabel03252504213D

 19 20  0  0  1  0  0  0  0  0999 V2000
   36.6800   24.8440   39.7110 C   0  0  0  0  0  0  0  0  0  0  0  0
   36.6090   24.0610   40.8750 C   0  0  0  0  0  0  0  0  0  0  0  0
   36.9100   24.6790   42.0990 C   0  0  0  0  0  0  0  0  0  0  0  0
   37.2500   25.9890   42.0960 N   0  0  0  0  0  0  0  0  0  0  0  0
   37.3060   26.7030   40.9560 C   0  0  0  0  0  0  0  0  0  0  0  0
   37.0260   26.1450   39.7690 N   0  0  0  0  0  0  0  0  0  0  0  0
   36.3420   23.0220   40.9050 H   0  0  0  0  0  0  0  0  0  0  0  0
   36.8660   24.1090   43.0180 H   0  0  0  0  0  0  0  0  0  0  0  0
   35.5030   28.8150   41.0370 O   0  0  0  0  0  0  0  0  0  0  0  0
   36.5780   28.8550   41.7230 C   0  0  0  0  0  0  0  0  0  0  0  0
   37.6900   28.1440   41.0390 C   0  0  1  0  0  3  0  0  0  0  0  0
   38.8360   28.3970   41.9740 C   0  0  0  0  0  3  0  0  0  0  0  0
   39.5910   27.6030   41.9820 H   0  0  0  0  0  0  0  0  0  0  0  0
   38.1320   28.5800   43.3020 C   0  0  0  0  0  3  0  0  0  0  0  0
   37.8730   27.5620   43.6660 H   0  0  0  0  0  0  0  0  0  0  0  0
   37.0040   29.3920   42.9680 N   0  0  0  0  0  0  0  0  0  0  0  0
   36.4080   30.2020   43.2920 H   0  0  0  0  0  0  0  0  0  0  0  0
   36.2810   23.9700   38.1950 S   0  0  0  0  0  0  0  0  0  0  0  0
   36.7890   24.5880   37.0600 H   0  0  0  0  0  0  0  0  0  0  0  0
  1  6  2  0  0  0  0
  1  2  1  0  0  0  0
  2  7  1  0  0  0  0
  2  3  2  0  0  0  0
  3  8  1  0  0  0  0
  4  3  1  0  0  0  0
  5  4  2  0  0  0  0
  6  5  1  0  0  0  0
  9 10  2  0  0  0  0
 10 16  1  0  0  0  0
 11  5  1  1  0  0  0
 11 10  1  0  0  0  0
 11 12  1  0  0  0  0
 12 13  1  0  0  0  0
 12 14  1  0  0  0  0
 14 15  1  0  0  0  0
 16 17  1  0  0  0  0
 16 14  1  0  0  0  0
 18  1  1  0  0  0  0
 19 18  1  0  0  0  0
M  END
>  <minimizedAffinity>
-3.98182893

$$$$

 OpenBabel03252504213D

 19 20  0  0  1  0  0  0  0  0999 V2000
   37.6640   31.0180   40.9040 C   0  0  0  0  0  0  0  0  0  0  0  0
   36.3810   30.9210   40.3410 C   0  0  0  0  0  0  0  0  0  0  0  0
   35.6880   29.7090   40.4950 C   0  0  0  0  0  0  0  0  0  0  0  0
   36.2880   28.7030   41.1720 N   0  0  0  0  0  0  0  0  0  0  0  0
   37.5210   28.8380   41.6950 C   0  0  0  0  0  0  0  0  0  0  0  0
   38.2110   29.9810   41.5680 N   0  0  0  0  0  0  0  0  0  0  0  0
   35.8830   31.7030   39.8010 H   0  0  0  0  0  0  0  0  0  0  0  0
   34.6970   29.5960   40.0750 H   0  0  0  0  0  0  0  0  0  0  0  0
   36.2130   27.3870   43.6700 O   0  0  0  0  0  0  0  0  0  0  0  0
   36.9850   26.8010   42.8410 C   0  0  0  0  0  0  0  0  0  0  0  0
   38.1120   27.6780   42.4290 C   0  0  1  0  0  3  0  0  0  0  0  0
   38.9050   26.7620   41.5440 C   0  0  0  0  0  3  0  0  0  0  0  0
   39.4550   27.2760   40.7470 H   0  0  0  0  0  0  0  0  0  0  0  0
   37.8440   25.8100   41.0340 C   0  0  0  0  0  3  0  0  0  0  0  0
   37.2970   26.3470   40.2300 H   0  0  0  0  0  0  0  0  0  0  0  0
   37.0610   25.5360   42.1990 N   0  0  0  0  0  0  0  0  0  0  0  0
   36.5500   24.7760   42.7250 H   0  0  0  0  0  0  0  0  0  0  0  0
   38.4720   32.6010   40.6580 S   0  0  0  0  0  0  0  0  0  0  0  0
   39.8530   32.5350   40.7920 H   0  0  0  0  0  0  0  0  0  0  0  0
  1  6  1  0  0  0  0
  2  3  1  0  0  0  0
  2  1  2  0  0  0  0
  3  4  2  0  0  0  0
  4  5  1  0  0  0  0
  6  5  2  0  0  0  0
  7  2  1  0  0  0  0
  8  3  1  0  0  0  0
 10  9  2  0  0  0  0
 11  5  1  6  0  0  0
 11 10  1  0  0  0  0
 12 11  1  0  0  0  0
 13 12  1  0  0  0  0
 14 12  1  0  0  0  0
 14 16  1  0  0  0  0
 15 14  1  0  0  0  0
 16 17  1  0  0  0  0
 16 10  1  0  0  0  0
 18 19  1  0  0  0  0
 18  1  1  0  0  0  0
M  END
>  <minimizedAffinity>
-3.87900043

$$$$

 OpenBabel03252504213D

 19 20  0  0  1  0  0  0  0  0999 V2000
   36.6870   26.1660   39.9030 C   0  0  0  0  0  0  0  0  0  0  0  0
   36.4750   24.7810   39.9990 C   0  0  0  0  0  0  0  0  0  0  0  0
   36.8230   24.1470   41.2030 C   0  0  0  0  0  0  0  0  0  0  0  0
   37.3420   24.8980   42.2020 N   0  0  0  0  0  0  0  0  0  0  0  0
   37.5290   26.2240   42.0670 C   0  0  0  0  0  0  0  0  0  0  0  0
   37.2080   26.8610   40.9320 N   0  0  0  0  0  0  0  0  0  0  0  0
   36.0650   24.1630   39.2230 H   0  0  0  0  0  0  0  0  0  0  0  0
   36.6750   23.0810   41.3150 H   0  0  0  0  0  0  0  0  0  0  0  0
   40.2110   26.9030   42.3220 O   0  0  0  0  0  0  0  0  0  0  0  0
   39.3000   27.7080   42.7090 C   0  0  0  0  0  0  0  0  0  0  0  0
   38.1070   26.9810   43.2180 C   0  0  1  0  0  3  0  0  0  0  0  0
   37.2350   28.1100   43.6800 C   0  0  0  0  0  3  0  0  0  0  0  0
   36.1610   27.9010   43.6140 H   0  0  0  0  0  0  0  0  0  0  0  0
   37.6880   29.2500   42.7920 C   0  0  0  0  0  3  0  0  0  0  0  0
   37.2060   29.0920   41.8030 H   0  0  0  0  0  0  0  0  0  0  0  0
   39.1110   29.1140   42.7830 N   0  0  0  0  0  0  0  0  0  0  0  0
   40.0210   29.6500   42.8120 H   0  0  0  0  0  0  0  0  0  0  0  0
   36.2130   26.8880   38.3300 S   0  0  0  0  0  0  0  0  0  0  0  0
   36.8340   28.1050   38.0790 H   0  0  0  0  0  0  0  0  0  0  0  0
  1  2  2  0  0  0  0
  1  6  1  0  0  0  0
  2  3  1  0  0  0  0
  3  8  1  0  0  0  0
  3  4  2  0  0  0  0
  5  4  1  0  0  0  0
  6  5  2  0  0  0  0
  7  2  1  0  0  0  0
  9 10  2  0  0  0  0
 10 16  1  0  0  0  0
 10 11  1  0  0  0  0
 11  5  1  6  0  0  0
 11 12  1  0  0  0  0
 13 12  1  0  0  0  0
 14 12  1  0  0  0  0
 15 14  1  0  0  0  0
 16 14  1  0  0  0  0
 16 17  1  0  0  0  0
 18  1  1  0  0  0  0
 19 18  1  0  0  0  0
M  END
>  <minimizedAffinity>
-3.85840344

$$$$

 OpenBabel03252504213D

 19 20  0  0  1  0  0  0  0  0999 V2000
   37.2660   26.7550   42.0880 C   0  0  0  0  0  0  0  0  0  0  0  0
   37.8390   27.3060   43.2450 C   0  0  0  0  0  0  0  0  0  0  0  0
   37.7910   28.7010   43.3980 C   0  0  0  0  0  0  0  0  0  0  0  0
   37.2000   29.4380   42.4290 N   0  0  0  0  0  0  0  0  0  0  0  0
   36.6640   28.8680   41.3350 C   0  0  0  0  0  0  0  0  0  0  0  0
   36.6910   27.5390   41.1560 N   0  0  0  0  0  0  0  0  0  0  0  0
   38.3120   26.7450   44.0280 H   0  0  0  0  0  0  0  0  0  0  0  0
   38.2220   29.1640   44.2770 H   0  0  0  0  0  0  0  0  0  0  0  0
   38.0310   30.1190   39.2650 O   0  0  0  0  0  0  0  0  0  0  0  0
   36.8550   29.6580   39.0790 C   0  0  0  0  0  0  0  0  0  0  0  0
   36.0290   29.7530   40.3110 C   0  0  1  0  0  3  0  0  0  0  0  0
   34.7030   29.2420   39.8300 C   0  0  0  0  0  3  0  0  0  0  0  0
   34.1080   28.7450   40.6040 H   0  0  0  0  0  0  0  0  0  0  0  0
   35.1050   28.3290   38.6910 C   0  0  0  0  0  3  0  0  0  0  0  0
   35.4620   27.3840   39.1550 H   0  0  0  0  0  0  0  0  0  0  0  0
   36.1190   29.0740   38.0130 N   0  0  0  0  0  0  0  0  0  0  0  0
   36.4960   29.3330   37.0610 H   0  0  0  0  0  0  0  0  0  0  0  0
   37.3740   24.9670   41.9780 S   0  0  0  0  0  0  0  0  0  0  0  0
   37.2420   24.4910   40.6800 H   0  0  0  0  0  0  0  0  0  0  0  0
  1  2  1  0  0  0  0
  2  3  2  0  0  0  0
  2  7  1  0  0  0  0
  3  8  1  0  0  0  0
  4  3  1  0  0  0  0
  5  4  2  0  0  0  0
  6  5  1  0  0  0  0
  6  1  2  0  0  0  0
 10  9  2  0  0  0  0
 10 11  1  0  0  0  0
 11  5  1  1  0  0  0
 12 11  1  0  0  0  0
 12 13  1  0  0  0  0
 14 15  1  0  0  0  0
 14 12  1  0  0  0  0
 16 14  1  0  0  0  0
 16 10  1  0  0  0  0
 17 16  1  0  0  0  0
 18  1  1  0  0  0  0
 19 18  1  0  0  0  0
M  END
>  <minimizedAffinity>
-3.84127784

$$$$
