
 OpenBabel03242511013D

 46 49  0  0  1  0  0  0  0  0999 V2000
   45.2880   27.8500   47.6010 C   0  0  0  0  0  0  0  0  0  0  0  0
   44.5290   27.0780   48.3290 C   0  0  0  0  0  0  0  0  0  0  0  0
   45.6420   31.4640   47.0570 C   0  0  0  0  0  0  0  0  0  0  0  0
   45.4800   31.9150   48.3670 C   0  0  0  0  0  0  0  0  0  0  0  0
   45.2560   31.0690   49.4340 C   0  0  0  0  0  0  0  0  0  0  0  0
   45.1930   29.7170   49.1750 C   0  0  0  0  0  0  0  0  0  0  0  0
   45.3570   29.2720   47.8600 C   0  0  0  0  0  0  0  0  0  0  0  0
   45.5700   30.1440   46.8790 N   0  0  0  0  0  0  0  0  0  0  0  0
   45.5320   32.9810   48.5550 H   0  0  0  0  0  0  0  0  0  0  0  0
   45.1400   31.5190   50.4270 H   0  0  0  0  0  0  0  0  0  0  0  0
   45.0190   29.0850   50.0190 H   0  0  0  0  0  0  0  0  0  0  0  0
   44.7810   36.5380   43.8890 C   0  0  0  0  0  0  0  0  0  0  0  0
   45.6760   36.2590   42.8480 C   0  0  0  0  0  0  0  0  0  0  0  0
   46.3230   35.0330   42.8600 C   0  0  0  0  0  0  0  0  0  0  0  0
   46.0770   34.1380   43.8690 N   0  0  0  0  0  0  0  0  0  0  0  0
   45.1960   34.4580   44.8580 C   0  0  0  0  0  0  0  0  0  0  0  0
   44.5560   35.6520   44.8610 N   0  0  0  0  0  0  0  0  0  0  0  0
   45.8760   32.4400   45.9960 C   0  0  0  0  0  0  0  0  0  0  0  0
   46.8730   32.2660   45.2420 O   0  0  0  0  0  0  0  0  0  0  0  0
   44.9540   33.5180   45.8970 N   0  0  0  0  0  0  0  0  0  0  0  0
   44.2930   37.5090   43.8450 H   0  0  0  0  0  0  0  0  0  0  0  0
   45.9240   36.8960   42.0250 H   0  0  0  0  0  0  0  0  0  0  0  0
   47.0260   34.7590   42.0840 H   0  0  0  0  0  0  0  0  0  0  0  0
   44.1370   33.6470   46.5270 H   0  0  0  0  0  0  0  0  0  0  0  0
   44.3480   25.6010   48.1940 C   0  0  0  0  0  0  0  0  0  0  0  0
   44.1660   25.1570   49.1980 H   0  0  0  0  0  0  0  0  0  0  0  0
   45.3120   25.2300   47.8630 H   0  0  0  0  0  0  0  0  0  0  0  0
   45.1130   23.5030   46.2380 Cl  0  0  0  0  0  0  0  0  0  0  0  0
   43.5430   24.3000   46.2970 C   0  0  0  0  0  0  0  0  0  0  0  0
   43.2560   25.2730   47.2410 C   0  0  0  0  0  0  0  0  0  0  0  0
   42.0260   25.8970   47.2870 C   0  0  0  0  0  0  0  0  0  0  0  0
   41.0410   25.5350   46.3520 C   0  0  0  0  0  0  0  0  0  0  0  0
   41.3460   24.5600   45.4160 C   0  0  0  0  0  0  0  0  0  0  0  0
   42.5960   23.9280   45.3720 C   0  0  0  0  0  0  0  0  0  0  0  0
   41.8520   26.6530   48.0470 H   0  0  0  0  0  0  0  0  0  0  0  0
   40.0860   26.0270   46.3960 H   0  0  0  0  0  0  0  0  0  0  0  0
   40.5930   24.2670   44.6840 H   0  0  0  0  0  0  0  0  0  0  0  0
   41.9120   21.1790   45.7180 O   0  0  0  0  0  0  0  0  0  0  0  0
   41.9630   21.7330   44.5710 C   0  0  0  0  0  0  0  0  0  0  0  0
   42.8850   22.8830   44.3480 C   0  0  1  0  0  0  0  0  0  0  0  0
   42.5600   23.3100   42.9580 C   0  0  0  0  0  0  0  0  0  0  0  0
   42.4440   24.4070   42.8430 H   0  0  0  0  0  0  0  0  0  0  0  0
   41.3470   22.5480   42.5050 C   0  0  0  0  0  0  0  0  0  0  0  0
   41.4890   22.1030   41.4850 H   0  0  0  0  0  0  0  0  0  0  0  0
   41.2340   21.4060   43.3950 N   0  0  0  0  0  0  0  0  0  0  0  0
   40.7250   20.5160   43.2260 H   0  0  0  0  0  0  0  0  0  0  0  0
  1  7  1  0  0  0  0
  1  2  2  0  0  0  0
  3  4  1  0  0  0  0
  4  9  1  0  0  0  0
  4  5  2  0  0  0  0
  5 10  1  0  0  0  0
  6  5  1  0  0  0  0
  6 11  1  0  0  0  0
  7  6  2  0  0  0  0
  8  3  2  0  0  0  0
  8  7  1  0  0  0  0
 12 17  1  0  0  0  0
 13 14  1  0  0  0  0
 13 12  2  0  0  0  0
 14 15  2  0  0  0  0
 15 16  1  0  0  0  0
 16 17  2  0  0  0  0
 16 20  1  0  0  0  0
 18  3  1  0  0  0  0
 19 18  2  0  0  0  0
 20 18  1  0  0  0  0
 20 24  1  0  0  0  0
 21 12  1  0  0  0  0
 22 13  1  0  0  0  0
 23 14  1  0  0  0  0
 25  2  1  0  0  0  0
 25 26  1  0  0  0  0
 27 25  1  0  0  0  0
 28 29  1  0  0  0  0
 29 30  1  0  0  0  0
 30 31  2  0  0  0  0
 30 25  1  0  0  0  0
 31 35  1  0  0  0  0
 32 36  1  0  0  0  0
 32 31  1  0  0  0  0
 33 32  2  0  0  0  0
 34 33  1  0  0  0  0
 34 29  2  0  0  0  0
 37 33  1  0  0  0  0
 39 38  2  0  0  0  0
 40 39  1  0  0  0  0
 40 34  1  1  0  0  0
 41 40  1  0  0  0  0
 42 41  1  0  0  0  0
 43 41  1  0  0  0  0
 43 45  1  0  0  0  0
 44 43  1  0  0  0  0
 45 39  1  0  0  0  0
 46 45  1  0  0  0  0
M  END
>  <minimizedAffinity>
-6.13051319

>  <minimizedRMSD>
0.859461188

$$$$
