
 OpenBabel03252502043D

 46 50  0  0  1  0  0  0  0  0999 V2000
   47.5330   32.0080   47.6870 C   0  0  0  0  0  0  0  0  0  0  0  0
   47.0180   30.7400   47.7710 C   0  0  0  0  0  0  0  0  0  0  0  0
   45.9790   30.4620   46.9530 C   0  0  0  0  0  0  0  0  0  0  0  0
   45.4990   31.3760   46.1140 N   0  0  0  0  0  0  0  0  0  0  0  0
   45.9900   32.6130   46.0040 C   0  0  0  0  0  0  0  0  0  0  0  0
   47.0340   32.8950   46.8400 N   0  0  0  0  0  0  0  0  0  0  0  0
   45.3790   29.1990   46.9290 N   0  0  0  0  0  0  0  0  0  0  0  0
   44.1330   28.8440   46.2490 C   0  0  0  0  0  0  0  0  0  0  0  0
   44.0860   27.3290   46.2510 C   0  0  0  0  0  0  0  0  0  0  0  0
   44.8760   26.9700   47.4780 C   0  0  0  0  0  0  0  0  0  0  0  0
   45.9110   28.0220   47.5930 C   0  0  0  0  0  0  0  0  0  0  0  0
   48.3750   32.2620   48.3510 H   0  0  0  0  0  0  0  0  0  0  0  0
   44.0840   29.2850   45.2470 H   0  0  0  0  0  0  0  0  0  0  0  0
   43.2390   29.1680   46.8530 H   0  0  0  0  0  0  0  0  0  0  0  0
   43.0660   26.9480   46.2290 H   0  0  0  0  0  0  0  0  0  0  0  0
   44.6330   27.0100   45.3240 H   0  0  0  0  0  0  0  0  0  0  0  0
   45.3230   25.9510   47.2970 H   0  0  0  0  0  0  0  0  0  0  0  0
   44.1820   26.8590   48.3220 H   0  0  0  0  0  0  0  0  0  0  0  0
   45.9060   28.2370   48.6900 H   0  0  0  0  0  0  0  0  0  0  0  0
   46.8580   27.6730   47.1890 H   0  0  0  0  0  0  0  0  0  0  0  0
   45.6400   33.7430   45.1670 C   0  0  0  0  0  0  0  0  0  0  0  0
   44.9310   34.7880   45.6570 N   0  0  0  0  0  0  0  0  0  0  0  0
   44.5960   35.8790   44.9640 C   0  0  0  0  0  0  0  0  0  0  0  0
   44.9810   35.9800   43.6770 N   0  0  0  0  0  0  0  0  0  0  0  0
   45.6950   34.9920   43.0910 C   0  0  0  0  0  0  0  0  0  0  0  0
   46.0750   35.1300   41.7930 C   0  0  0  0  0  0  0  0  0  0  0  0
   46.7950   34.1530   41.1830 C   0  0  0  0  0  0  0  0  0  0  0  0
   47.1170   33.0300   41.9280 C   0  0  0  0  0  0  0  0  0  0  0  0
   46.7180   32.9210   43.2430 C   0  0  0  0  0  0  0  0  0  0  0  0
   46.0020   33.8950   43.8610 C   0  0  0  0  0  0  0  0  0  0  0  0
   44.0350   36.6820   45.3870 H   0  0  0  0  0  0  0  0  0  0  0  0
   45.7810   36.0360   41.2810 H   0  0  0  0  0  0  0  0  0  0  0  0
   47.0620   34.3250   40.1620 H   0  0  0  0  0  0  0  0  0  0  0  0
   47.6760   32.3350   41.3010 H   0  0  0  0  0  0  0  0  0  0  0  0
   49.6060   31.7900   42.9780 O   0  0  0  0  0  0  0  0  0  0  0  0
   48.5240   31.2300   43.3290 C   0  0  0  0  0  0  0  0  0  0  0  0
   47.1010   31.6110   43.8030 C   0  0  2  0  0  3  0  0  0  0  0  0
   46.4870   30.4770   43.0300 C   0  0  0  0  0  3  0  0  0  0  0  0
   46.7580   30.6350   41.9490 H   0  0  0  0  0  0  0  0  0  0  0  0
   47.2570   29.2980   43.5160 C   0  0  0  0  0  3  0  0  0  0  0  0
   47.1370   29.2000   44.5980 H   0  0  0  0  0  0  0  0  0  0  0  0
   48.6180   29.8110   43.2870 N   0  0  0  0  0  0  0  0  0  0  0  0
   49.3610   29.1050   43.1480 H   0  0  0  0  0  0  0  0  0  0  0  0
   47.6280   29.7980   48.6060 N   0  0  0  0  0  0  0  0  0  0  0  0
   47.1760   30.0660   49.5320 H   0  0  0  0  0  0  0  0  0  0  0  0
   48.3210   29.0310   48.4770 H   0  0  0  0  0  0  0  0  0  0  0  0
  1  2  1  0  0  0  0
  1 12  1  0  0  0  0
  2 44  1  0  0  0  0
  3  2  2  0  0  0  0
  4  3  1  0  0  0  0
  5  4  2  0  0  0  0
  5  6  1  0  0  0  0
  6  1  2  0  0  0  0
  7  3  1  0  0  0  0
  7 11  1  0  0  0  0
  8  9  1  0  0  0  0
  8 14  1  0  0  0  0
  8  7  1  0  0  0  0
  9 10  1  0  0  0  0
 10 11  1  0  0  0  0
 10 18  1  0  0  0  0
 11 19  1  0  0  0  0
 13  8  1  0  0  0  0
 15  9  1  0  0  0  0
 16  9  1  0  0  0  0
 17 10  1  0  0  0  0
 20 11  1  0  0  0  0
 21 22  1  0  0  0  0
 21  5  1  0  0  0  0
 23 31  1  0  0  0  0
 23 22  2  0  0  0  0
 24 23  1  0  0  0  0
 25 24  2  0  0  0  0
 25 30  1  0  0  0  0
 26 25  1  0  0  0  0
 27 26  2  0  0  0  0
 27 28  1  0  0  0  0
 28 29  2  0  0  0  0
 29 30  1  0  0  0  0
 30 21  2  0  0  0  0
 32 26  1  0  0  0  0
 33 27  1  0  0  0  0
 34 28  1  0  0  0  0
 35 36  2  0  0  0  0
 36 37  1  0  0  0  0
 37 29  1  6  0  0  0
 38 40  1  0  0  0  0
 38 37  1  0  0  0  0
 39 38  1  0  0  0  0
 40 41  1  0  0  0  0
 42 36  1  0  0  0  0
 42 40  1  0  0  0  0
 43 42  1  0  0  0  0
 44 45  1  0  0  0  0
 46 44  1  0  0  0  0
M  END
>  <minimizedAffinity>
-6.21779919

>  <minimizedRMSD>
0.734835505

$$$$
