
 OpenBabel03252502493D

 45 48  0  0  1  0  0  0  0  0999 V2000
   39.4500   25.4490   39.3000 C   0  0  0  0  0  0  0  0  0  0  0  0
   40.3960   24.8710   39.4410 H   0  0  0  0  0  0  0  0  0  0  0  0
   38.8560   24.8910   38.5300 H   0  0  0  0  0  0  0  0  0  0  0  0
   38.7510   25.5470   40.6200 C   0  0  1  0  0  0  0  0  0  0  0  0
   39.2060   24.6330   41.7120 C   0  0  0  0  0  0  0  0  0  0  0  0
   39.5100   26.0900   41.7380 C   0  0  2  0  0  0  0  0  0  0  0  0
   37.6800   25.6960   40.5250 H   0  0  0  0  0  0  0  0  0  0  0  0
   40.0140   23.9080   41.4460 H   0  0  0  0  0  0  0  0  0  0  0  0
   38.4560   24.1790   42.4070 H   0  0  0  0  0  0  0  0  0  0  0  0
   40.5700   26.3200   41.7440 H   0  0  0  0  0  0  0  0  0  0  0  0
   38.6960   26.8050   42.7050 N   0  0  0  0  0  0  0  0  0  0  0  0
   37.3000   26.7230   42.4660 C   0  0  0  0  0  0  0  0  0  0  0  0
   36.6410   27.5290   43.5690 C   0  0  0  0  0  0  0  0  0  0  0  0
   37.0100   28.9110   43.5180 N   0  0  0  0  0  0  0  0  0  0  0  0
   38.3110   29.1460   42.9290 C   0  0  0  0  0  0  0  0  0  0  0  0
   39.2430   27.9770   43.2390 C   0  0  0  0  0  0  0  0  0  0  0  0
   37.0570   27.1230   41.4660 H   0  0  0  0  0  0  0  0  0  0  0  0
   36.9150   25.6970   42.5310 H   0  0  0  0  0  0  0  0  0  0  0  0
   35.5380   27.4420   43.4220 H   0  0  0  0  0  0  0  0  0  0  0  0
   36.8720   27.0540   44.5340 H   0  0  0  0  0  0  0  0  0  0  0  0
   36.8640   29.3780   44.4200 H   0  0  0  0  0  0  0  0  0  0  0  0
   38.7320   30.1010   43.2810 H   0  0  0  0  0  0  0  0  0  0  0  0
   38.1890   29.1880   41.8200 H   0  0  0  0  0  0  0  0  0  0  0  0
   39.4210   27.9100   44.3280 H   0  0  0  0  0  0  0  0  0  0  0  0
   40.1980   28.2200   42.7290 H   0  0  0  0  0  0  0  0  0  0  0  0
   39.7610   26.8520   38.8740 C   0  0  0  0  0  0  0  0  0  0  0  0
   40.6490   27.0000   38.2750 H   0  0  0  0  0  0  0  0  0  0  0  0
   39.9490   27.4430   39.8180 H   0  0  0  0  0  0  0  0  0  0  0  0
   36.8330   27.4730   36.6240 C   0  0  0  0  0  0  0  0  0  0  0  0
   38.0070   26.8890   37.1490 C   0  0  0  0  0  0  0  0  0  0  0  0
   38.5140   27.4560   38.2990 C   0  0  0  0  0  0  0  0  0  0  0  0
   37.8910   28.5170   38.8660 N   0  0  0  0  0  0  0  0  0  0  0  0
   36.7900   29.0470   38.3540 C   0  0  0  0  0  0  0  0  0  0  0  0
   36.2640   28.5350   37.2470 N   0  0  0  0  0  0  0  0  0  0  0  0
   36.3980   27.0560   35.7170 H   0  0  0  0  0  0  0  0  0  0  0  0
   38.4840   26.0450   36.6790 H   0  0  0  0  0  0  0  0  0  0  0  0
   35.1110   28.8130   40.7630 O   0  0  0  0  0  0  0  0  0  0  0  0
   35.6370   29.9010   40.3680 C   0  0  0  0  0  0  0  0  0  0  0  0
   36.1320   30.2120   39.0030 C   0  0  1  0  0  3  0  0  0  0  0  0
   37.1140   31.3290   39.1640 C   0  0  0  0  0  3  0  0  0  0  0  0
   38.1530   31.0530   38.8860 H   0  0  0  0  0  0  0  0  0  0  0  0
   37.0210   31.7280   40.6120 C   0  0  0  0  0  3  0  0  0  0  0  0
   36.8830   32.8180   40.7240 H   0  0  0  0  0  0  0  0  0  0  0  0
   35.8600   31.0480   41.1650 N   0  0  0  0  0  0  0  0  0  0  0  0
   35.3100   31.3650   41.9920 H   0  0  0  0  0  0  0  0  0  0  0  0
  1  2  1  0  0  0  0
  1  4  1  0  0  0  0
  3  1  1  0  0  0  0
  4  7  1  6  0  0  0
  4  5  1  0  0  0  0
  4  6  1  0  0  0  0
  5  6  1  0  0  0  0
  5  9  1  0  0  0  0
  6 10  1  6  0  0  0
  6 11  1  0  0  0  0
  8  5  1  0  0  0  0
 11 16  1  0  0  0  0
 12 18  1  0  0  0  0
 12 11  1  0  0  0  0
 12 13  1  0  0  0  0
 13 20  1  0  0  0  0
 14 13  1  0  0  0  0
 14 21  1  0  0  0  0
 15 16  1  0  0  0  0
 15 22  1  0  0  0  0
 15 14  1  0  0  0  0
 16 24  1  0  0  0  0
 17 12  1  0  0  0  0
 19 13  1  0  0  0  0
 23 15  1  0  0  0  0
 25 16  1  0  0  0  0
 26  1  1  0  0  0  0
 26 28  1  0  0  0  0
 27 26  1  0  0  0  0
 29 30  2  0  0  0  0
 29 34  1  0  0  0  0
 30 31  1  0  0  0  0
 31 32  2  0  0  0  0
 31 26  1  0  0  0  0
 33 32  1  0  0  0  0
 34 33  2  0  0  0  0
 35 29  1  0  0  0  0
 36 30  1  0  0  0  0
 38 37  2  0  0  0  0
 38 44  1  0  0  0  0
 39 33  1  1  0  0  0
 39 40  1  0  0  0  0
 39 38  1  0  0  0  0
 40 42  1  0  0  0  0
 41 40  1  0  0  0  0
 42 43  1  0  0  0  0
 42 44  1  0  0  0  0
 44 45  1  0  0  0  0
M  END
>  <minimizedAffinity>
-5.41980886

$$$$

 OpenBabel03252502493D

 45 48  0  0  1  0  0  0  0  0999 V2000
   35.2220   29.2120   40.5080 C   0  0  0  0  0  0  0  0  0  0  0  0
   35.5340   30.2780   40.3810 H   0  0  0  0  0  0  0  0  0  0  0  0
   34.2430   29.2370   41.0530 H   0  0  0  0  0  0  0  0  0  0  0  0
   35.1240   28.5800   39.1550 C   0  0  1  0  0  0  0  0  0  0  0  0
   33.8970   28.8600   38.3500 C   0  0  0  0  0  0  0  0  0  0  0  0
   35.2130   29.4610   38.0000 C   0  0  2  0  0  0  0  0  0  0  0  0
   35.4980   27.5620   39.1320 H   0  0  0  0  0  0  0  0  0  0  0  0
   33.1170   29.4930   38.8390 H   0  0  0  0  0  0  0  0  0  0  0  0
   33.4400   28.0490   37.7290 H   0  0  0  0  0  0  0  0  0  0  0  0
   35.2220   30.5460   38.0170 H   0  0  0  0  0  0  0  0  0  0  0  0
   35.8110   28.8370   36.8320 N   0  0  0  0  0  0  0  0  0  0  0  0
   37.2260   28.7600   36.8740 C   0  0  0  0  0  0  0  0  0  0  0  0
   37.6440   28.0900   35.5790 C   0  0  0  0  0  0  0  0  0  0  0  0
   37.2850   28.8660   34.4320 N   0  0  0  0  0  0  0  0  0  0  0  0
   36.1280   29.7100   34.6390 C   0  0  0  0  0  0  0  0  0  0  0  0
   35.1600   29.0400   35.6110 C   0  0  0  0  0  0  0  0  0  0  0  0
   37.6630   29.7690   36.9710 H   0  0  0  0  0  0  0  0  0  0  0  0
   37.5970   28.1410   37.7010 H   0  0  0  0  0  0  0  0  0  0  0  0
   38.7550   27.9820   35.6110 H   0  0  0  0  0  0  0  0  0  0  0  0
   37.2270   27.0720   35.5630 H   0  0  0  0  0  0  0  0  0  0  0  0
   37.2430   28.2930   33.5820 H   0  0  0  0  0  0  0  0  0  0  0  0
   35.6390   29.9430   33.6800 H   0  0  0  0  0  0  0  0  0  0  0  0
   36.4710   30.6610   35.1140 H   0  0  0  0  0  0  0  0  0  0  0  0
   34.7660   28.1050   35.1730 H   0  0  0  0  0  0  0  0  0  0  0  0
   34.3250   29.7610   35.7380 H   0  0  0  0  0  0  0  0  0  0  0  0
   36.2730   28.4540   41.2610 C   0  0  0  0  0  0  0  0  0  0  0  0
   36.5210   27.4650   40.9020 H   0  0  0  0  0  0  0  0  0  0  0  0
   35.8680   28.2880   42.3030 H   0  0  0  0  0  0  0  0  0  0  0  0
   39.1850   30.1840   42.8570 C   0  0  0  0  0  0  0  0  0  0  0  0
   38.0780   29.3240   42.6890 C   0  0  0  0  0  0  0  0  0  0  0  0
   37.4530   29.3590   41.4610 C   0  0  0  0  0  0  0  0  0  0  0  0
   37.9060   30.1880   40.4910 N   0  0  0  0  0  0  0  0  0  0  0  0
   38.9480   30.9860   40.6720 C   0  0  0  0  0  0  0  0  0  0  0  0
   39.5830   30.9870   41.8390 N   0  0  0  0  0  0  0  0  0  0  0  0
   39.7090   30.1880   43.8110 H   0  0  0  0  0  0  0  0  0  0  0  0
   37.7360   28.6730   43.4770 H   0  0  0  0  0  0  0  0  0  0  0  0
   37.7400   33.6150   40.1170 O   0  0  0  0  0  0  0  0  0  0  0  0
   38.8970   33.2670   39.7200 C   0  0  0  0  0  0  0  0  0  0  0  0
   39.4190   31.8840   39.5840 C   0  0  1  0  0  3  0  0  0  0  0  0
   40.9100   31.9980   39.6250 C   0  0  0  0  0  3  0  0  0  0  0  0
   41.3710   31.5020   40.5050 H   0  0  0  0  0  0  0  0  0  0  0  0
   41.1910   33.4780   39.6200 C   0  0  0  0  0  3  0  0  0  0  0  0
   41.9290   33.7470   38.8440 H   0  0  0  0  0  0  0  0  0  0  0  0
   39.9330   34.1450   39.3230 N   0  0  0  0  0  0  0  0  0  0  0  0
   39.8370   35.0920   38.8970 H   0  0  0  0  0  0  0  0  0  0  0  0
  1  3  1  0  0  0  0
  1 26  1  0  0  0  0
  2  1  1  0  0  0  0
  4  7  1  6  0  0  0
  4  1  1  0  0  0  0
  5  8  1  0  0  0  0
  5  4  1  0  0  0  0
  6 10  1  1  0  0  0
  6  5  1  0  0  0  0
  6  4  1  0  0  0  0
  9  5  1  0  0  0  0
 11 12  1  0  0  0  0
 11  6  1  0  0  0  0
 12 17  1  0  0  0  0
 12 18  1  0  0  0  0
 13 19  1  0  0  0  0
 13 12  1  0  0  0  0
 14 15  1  0  0  0  0
 14 13  1  0  0  0  0
 15 23  1  0  0  0  0
 15 16  1  0  0  0  0
 16 25  1  0  0  0  0
 16 11  1  0  0  0  0
 20 13  1  0  0  0  0
 21 14  1  0  0  0  0
 22 15  1  0  0  0  0
 24 16  1  0  0  0  0
 26 31  1  0  0  0  0
 26 28  1  0  0  0  0
 27 26  1  0  0  0  0
 29 35  1  0  0  0  0
 30 29  1  0  0  0  0
 30 36  1  0  0  0  0
 31 30  2  0  0  0  0
 32 33  2  0  0  0  0
 32 31  1  0  0  0  0
 33 34  1  0  0  0  0
 34 29  2  0  0  0  0
 38 37  2  0  0  0  0
 39 40  1  0  0  0  0
 39 38  1  0  0  0  0
 39 33  1  1  0  0  0
 40 41  1  0  0  0  0
 42 40  1  0  0  0  0
 43 42  1  0  0  0  0
 44 42  1  0  0  0  0
 44 38  1  0  0  0  0
 45 44  1  0  0  0  0
M  END
>  <minimizedAffinity>
-5.37087965

$$$$

 OpenBabel03252502493D

 45 48  0  0  1  0  0  0  0  0999 V2000
   36.1070   29.5180   37.1530 C   0  0  0  0  0  0  0  0  0  0  0  0
   35.5500   30.2600   36.5280 H   0  0  0  0  0  0  0  0  0  0  0  0
   36.2790   28.6260   36.4960 H   0  0  0  0  0  0  0  0  0  0  0  0
   37.3790   30.1520   37.6240 C   0  0  1  0  0  0  0  0  0  0  0  0
   37.7030   31.5170   37.1080 C   0  0  0  0  0  0  0  0  0  0  0  0
   37.2630   31.2990   38.5130 C   0  0  2  0  0  0  0  0  0  0  0  0
   38.2030   29.4500   37.6950 H   0  0  0  0  0  0  0  0  0  0  0  0
   36.9860   31.9500   36.3690 H   0  0  0  0  0  0  0  0  0  0  0  0
   38.7620   31.7820   36.8610 H   0  0  0  0  0  0  0  0  0  0  0  0
   36.3480   31.8200   38.7760 H   0  0  0  0  0  0  0  0  0  0  0  0
   38.3590   31.4190   39.4590 N   0  0  0  0  0  0  0  0  0  0  0  0
   38.0910   30.8600   40.7350 C   0  0  0  0  0  0  0  0  0  0  0  0
   39.3420   31.0920   41.5610 C   0  0  0  0  0  0  0  0  0  0  0  0
   39.6140   32.4850   41.7450 N   0  0  0  0  0  0  0  0  0  0  0  0
   39.1100   33.3230   40.6780 C   0  0  0  0  0  0  0  0  0  0  0  0
   39.1540   32.5650   39.3530 C   0  0  0  0  0  0  0  0  0  0  0  0
   37.2070   31.3420   41.1870 H   0  0  0  0  0  0  0  0  0  0  0  0
   37.9140   29.7770   40.6990 H   0  0  0  0  0  0  0  0  0  0  0  0
   39.1660   30.6210   42.5580 H   0  0  0  0  0  0  0  0  0  0  0  0
   40.1740   30.5450   41.0940 H   0  0  0  0  0  0  0  0  0  0  0  0
   40.5970   32.6530   41.9850 H   0  0  0  0  0  0  0  0  0  0  0  0
   39.6770   34.2650   40.6220 H   0  0  0  0  0  0  0  0  0  0  0  0
   38.0380   33.5530   40.8930 H   0  0  0  0  0  0  0  0  0  0  0  0
   40.2010   32.3380   39.0790 H   0  0  0  0  0  0  0  0  0  0  0  0
   38.7250   33.2610   38.6030 H   0  0  0  0  0  0  0  0  0  0  0  0
   35.3150   29.1800   38.3790 C   0  0  0  0  0  0  0  0  0  0  0  0
   34.2380   29.2120   38.2950 H   0  0  0  0  0  0  0  0  0  0  0  0
   35.5670   29.9640   39.1530 H   0  0  0  0  0  0  0  0  0  0  0  0
   36.3120   25.5870   38.7160 C   0  0  0  0  0  0  0  0  0  0  0  0
   35.7970   26.7780   38.1590 C   0  0  0  0  0  0  0  0  0  0  0  0
   35.8580   27.9040   38.9510 C   0  0  0  0  0  0  0  0  0  0  0  0
   36.3910   27.8330   40.1950 N   0  0  0  0  0  0  0  0  0  0  0  0
   36.8680   26.7030   40.6960 C   0  0  0  0  0  0  0  0  0  0  0  0
   36.8310   25.5920   39.9700 N   0  0  0  0  0  0  0  0  0  0  0  0
   36.2850   24.6740   38.1250 H   0  0  0  0  0  0  0  0  0  0  0  0
   35.3790   26.8080   37.1670 H   0  0  0  0  0  0  0  0  0  0  0  0
   39.7340   27.1010   41.2480 O   0  0  0  0  0  0  0  0  0  0  0  0
   38.8190   27.2220   42.1230 C   0  0  0  0  0  0  0  0  0  0  0  0
   37.4460   26.6610   42.0660 C   0  0  1  0  0  3  0  0  0  0  0  0
   36.6200   27.4940   42.9950 C   0  0  0  0  0  3  0  0  0  0  0  0
   35.8190   28.0690   42.4840 H   0  0  0  0  0  0  0  0  0  0  0  0
   37.6010   28.4090   43.6800 C   0  0  0  0  0  3  0  0  0  0  0  0
   37.4790   28.3850   44.7760 H   0  0  0  0  0  0  0  0  0  0  0  0
   38.9320   27.9280   43.3440 N   0  0  0  0  0  0  0  0  0  0  0  0
   39.7920   28.0850   43.9120 H   0  0  0  0  0  0  0  0  0  0  0  0
  1  4  1  0  0  0  0
  1 26  1  0  0  0  0
  2  1  1  0  0  0  0
  3  1  1  0  0  0  0
  4  7  1  1  0  0  0
  4  6  1  0  0  0  0
  5  4  1  0  0  0  0
  5  6  1  0  0  0  0
  6 10  1  1  0  0  0
  6 11  1  0  0  0  0
  8  5  1  0  0  0  0
  9  5  1  0  0  0  0
 11 12  1  0  0  0  0
 12 17  1  0  0  0  0
 12 13  1  0  0  0  0
 13 14  1  0  0  0  0
 13 19  1  0  0  0  0
 14 21  1  0  0  0  0
 15 23  1  0  0  0  0
 15 14  1  0  0  0  0
 16 11  1  0  0  0  0
 16 15  1  0  0  0  0
 18 12  1  0  0  0  0
 20 13  1  0  0  0  0
 22 15  1  0  0  0  0
 24 16  1  0  0  0  0
 25 16  1  0  0  0  0
 26 31  1  0  0  0  0
 26 28  1  0  0  0  0
 27 26  1  0  0  0  0
 29 34  1  0  0  0  0
 30 29  2  0  0  0  0
 30 31  1  0  0  0  0
 31 32  2  0  0  0  0
 32 33  1  0  0  0  0
 34 33  2  0  0  0  0
 35 29  1  0  0  0  0
 36 30  1  0  0  0  0
 37 38  2  0  0  0  0
 38 44  1  0  0  0  0
 39 33  1  6  0  0  0
 39 38  1  0  0  0  0
 39 40  1  0  0  0  0
 40 42  1  0  0  0  0
 41 40  1  0  0  0  0
 42 43  1  0  0  0  0
 44 42  1  0  0  0  0
 44 45  1  0  0  0  0
M  END
>  <minimizedAffinity>
-5.35151672

$$$$

 OpenBabel03252502493D

 45 48  0  0  1  0  0  0  0  0999 V2000
   37.3310   27.3350   37.5190 C   0  0  0  0  0  0  0  0  0  0  0  0
   37.2270   27.5030   36.4190 H   0  0  0  0  0  0  0  0  0  0  0  0
   38.1670   26.5970   37.6430 H   0  0  0  0  0  0  0  0  0  0  0  0
   37.6090   28.6500   38.1780 C   0  0  1  0  0  0  0  0  0  0  0  0
   38.6680   29.5150   37.5740 C   0  0  0  0  0  0  0  0  0  0  0  0
   37.2230   29.8520   37.4540 C   0  0  2  0  0  0  0  0  0  0  0  0
   37.5840   28.5970   39.2610 H   0  0  0  0  0  0  0  0  0  0  0  0
   39.2080   29.0930   36.6910 H   0  0  0  0  0  0  0  0  0  0  0  0
   39.3540   30.1010   38.2360 H   0  0  0  0  0  0  0  0  0  0  0  0
   36.8630   29.9010   36.4320 H   0  0  0  0  0  0  0  0  0  0  0  0
   36.8420   30.9570   38.3180 N   0  0  0  0  0  0  0  0  0  0  0  0
   37.6980   32.0850   38.2320 C   0  0  0  0  0  0  0  0  0  0  0  0
   37.1360   33.1080   39.2010 C   0  0  0  0  0  0  0  0  0  0  0  0
   37.1680   32.6410   40.5530 N   0  0  0  0  0  0  0  0  0  0  0  0
   37.0990   31.2000   40.6740 C   0  0  0  0  0  0  0  0  0  0  0  0
   36.2540   30.6210   39.5420 C   0  0  0  0  0  0  0  0  0  0  0  0
   38.7330   31.8030   38.4900 H   0  0  0  0  0  0  0  0  0  0  0  0
   37.7030   32.5430   37.2330 H   0  0  0  0  0  0  0  0  0  0  0  0
   37.7730   34.0210   39.1170 H   0  0  0  0  0  0  0  0  0  0  0  0
   36.1280   33.3910   38.8630 H   0  0  0  0  0  0  0  0  0  0  0  0
   36.5010   33.1470   41.1470 H   0  0  0  0  0  0  0  0  0  0  0  0
   36.7040   30.9100   41.6600 H   0  0  0  0  0  0  0  0  0  0  0  0
   38.1320   30.7910   40.5590 H   0  0  0  0  0  0  0  0  0  0  0  0
   35.2100   30.9730   39.6270 H   0  0  0  0  0  0  0  0  0  0  0  0
   36.2800   29.5210   39.6890 H   0  0  0  0  0  0  0  0  0  0  0  0
   36.0400   26.8330   38.0890 C   0  0  0  0  0  0  0  0  0  0  0  0
   35.3320   26.3950   37.3980 H   0  0  0  0  0  0  0  0  0  0  0  0
   35.5050   27.7310   38.5170 H   0  0  0  0  0  0  0  0  0  0  0  0
   36.4460   23.8400   40.3010 C   0  0  0  0  0  0  0  0  0  0  0  0
   36.1470   24.6230   39.1650 C   0  0  0  0  0  0  0  0  0  0  0  0
   36.3520   25.9810   39.2840 C   0  0  0  0  0  0  0  0  0  0  0  0
   36.8170   26.5000   40.4460 N   0  0  0  0  0  0  0  0  0  0  0  0
   37.0900   25.7440   41.4980 C   0  0  0  0  0  0  0  0  0  0  0  0
   36.9090   24.4300   41.4320 N   0  0  0  0  0  0  0  0  0  0  0  0
   36.3000   22.7630   40.2510 H   0  0  0  0  0  0  0  0  0  0  0  0
   35.7790   24.1870   38.2520 H   0  0  0  0  0  0  0  0  0  0  0  0
   39.8840   26.6060   41.8580 O   0  0  0  0  0  0  0  0  0  0  0  0
   38.9190   27.0040   42.5850 C   0  0  0  0  0  0  0  0  0  0  0  0
   37.5990   26.3480   42.7590 C   0  0  1  0  0  3  0  0  0  0  0  0
   36.6630   27.4160   43.2280 C   0  0  0  0  0  3  0  0  0  0  0  0
   35.8460   27.6390   42.5100 H   0  0  0  0  0  0  0  0  0  0  0  0
   37.5320   28.6240   43.4630 C   0  0  0  0  0  3  0  0  0  0  0  0
   37.3570   29.0600   44.4610 H   0  0  0  0  0  0  0  0  0  0  0  0
   38.9130   28.1730   43.3830 N   0  0  0  0  0  0  0  0  0  0  0  0
   39.7280   28.6370   43.8370 H   0  0  0  0  0  0  0  0  0  0  0  0
  1  3  1  0  0  0  0
  1 26  1  0  0  0  0
  1  4  1  0  0  0  0
  2  1  1  0  0  0  0
  4  7  1  1  0  0  0
  5  4  1  0  0  0  0
  5  9  1  0  0  0  0
  6 10  1  6  0  0  0
  6  5  1  0  0  0  0
  6  4  1  0  0  0  0
  6 11  1  0  0  0  0
  8  5  1  0  0  0  0
 11 16  1  0  0  0  0
 12 11  1  0  0  0  0
 12 17  1  0  0  0  0
 12 13  1  0  0  0  0
 13 14  1  0  0  0  0
 14 15  1  0  0  0  0
 14 21  1  0  0  0  0
 15 22  1  0  0  0  0
 16 24  1  0  0  0  0
 16 25  1  0  0  0  0
 16 15  1  0  0  0  0
 18 12  1  0  0  0  0
 19 13  1  0  0  0  0
 20 13  1  0  0  0  0
 23 15  1  0  0  0  0
 26 28  1  0  0  0  0
 26 31  1  0  0  0  0
 27 26  1  0  0  0  0
 29 34  1  0  0  0  0
 30 31  1  0  0  0  0
 30 29  2  0  0  0  0
 31 32  2  0  0  0  0
 32 33  1  0  0  0  0
 34 33  2  0  0  0  0
 35 29  1  0  0  0  0
 36 30  1  0  0  0  0
 37 38  2  0  0  0  0
 38 39  1  0  0  0  0
 38 44  1  0  0  0  0
 39 33  1  6  0  0  0
 39 40  1  0  0  0  0
 40 42  1  0  0  0  0
 41 40  1  0  0  0  0
 42 43  1  0  0  0  0
 44 42  1  0  0  0  0
 44 45  1  0  0  0  0
M  END
>  <minimizedAffinity>
-5.32480145

$$$$

 OpenBabel03252502493D

 45 48  0  0  1  0  0  0  0  0999 V2000
   36.3110   30.4070   39.4920 C   0  0  0  0  0  0  0  0  0  0  0  0
   35.4610   30.9030   38.9610 H   0  0  0  0  0  0  0  0  0  0  0  0
   36.4720   29.4260   38.9730 H   0  0  0  0  0  0  0  0  0  0  0  0
   37.5060   31.3070   39.4250 C   0  0  1  0  0  0  0  0  0  0  0  0
   37.3150   32.6630   38.8280 C   0  0  0  0  0  0  0  0  0  0  0  0
   37.5080   32.4760   40.2920 C   0  0  2  0  0  0  0  0  0  0  0  0
   38.4190   30.7830   39.1620 H   0  0  0  0  0  0  0  0  0  0  0  0
   36.2950   32.8920   38.4340 H   0  0  0  0  0  0  0  0  0  0  0  0
   38.1160   33.1060   38.1830 H   0  0  0  0  0  0  0  0  0  0  0  0
   36.6810   32.8310   40.8960 H   0  0  0  0  0  0  0  0  0  0  0  0
   38.8350   32.8770   40.7280 N   0  0  0  0  0  0  0  0  0  0  0  0
   39.4680   33.8200   39.8790 C   0  0  0  0  0  0  0  0  0  0  0  0
   40.8220   34.0970   40.5010 C   0  0  0  0  0  0  0  0  0  0  0  0
   41.6450   32.9270   40.5400 N   0  0  0  0  0  0  0  0  0  0  0  0
   40.8970   31.6900   40.6040 C   0  0  0  0  0  0  0  0  0  0  0  0
   39.6000   31.9040   41.3810 C   0  0  0  0  0  0  0  0  0  0  0  0
   39.5620   33.4130   38.8570 H   0  0  0  0  0  0  0  0  0  0  0  0
   38.9280   34.7750   39.8230 H   0  0  0  0  0  0  0  0  0  0  0  0
   41.3200   34.8710   39.8680 H   0  0  0  0  0  0  0  0  0  0  0  0
   40.6650   34.5510   41.4910 H   0  0  0  0  0  0  0  0  0  0  0  0
   42.3890   33.0070   41.2420 H   0  0  0  0  0  0  0  0  0  0  0  0
   41.5060   30.8890   41.0500 H   0  0  0  0  0  0  0  0  0  0  0  0
   40.6160   31.3990   39.5630 H   0  0  0  0  0  0  0  0  0  0  0  0
   39.8240   32.1660   42.4310 H   0  0  0  0  0  0  0  0  0  0  0  0
   39.0770   30.9250   41.3540 H   0  0  0  0  0  0  0  0  0  0  0  0
   35.9820   30.2360   40.9440 C   0  0  0  0  0  0  0  0  0  0  0  0
   34.9460   30.3440   41.2310 H   0  0  0  0  0  0  0  0  0  0  0  0
   36.5220   31.0610   41.4970 H   0  0  0  0  0  0  0  0  0  0  0  0
   37.9960   27.8570   43.0190 C   0  0  0  0  0  0  0  0  0  0  0  0
   37.3890   29.0540   42.5800 C   0  0  0  0  0  0  0  0  0  0  0  0
   36.6350   28.9750   41.4280 C   0  0  0  0  0  0  0  0  0  0  0  0
   36.5070   27.7930   40.7790 N   0  0  0  0  0  0  0  0  0  0  0  0
   37.0860   26.6830   41.2110 C   0  0  0  0  0  0  0  0  0  0  0  0
   37.8220   26.7090   42.3160 N   0  0  0  0  0  0  0  0  0  0  0  0
   38.5990   27.8730   43.9240 H   0  0  0  0  0  0  0  0  0  0  0  0
   37.5060   29.9820   43.1140 H   0  0  0  0  0  0  0  0  0  0  0  0
   38.7750   25.9170   38.9220 O   0  0  0  0  0  0  0  0  0  0  0  0
   38.0870   25.0930   39.6030 C   0  0  0  0  0  0  0  0  0  0  0  0
   36.9240   25.4020   40.4730 C   0  0  1  0  0  3  0  0  0  0  0  0
   36.8160   24.2650   41.4390 C   0  0  0  0  0  3  0  0  0  0  0  0
   36.9900   24.5600   42.4950 H   0  0  0  0  0  0  0  0  0  0  0  0
   37.8350   23.2580   40.9760 C   0  0  0  0  0  3  0  0  0  0  0  0
   37.3930   22.2510   40.8800 H   0  0  0  0  0  0  0  0  0  0  0  0
   38.2970   23.6950   39.6680 N   0  0  0  0  0  0  0  0  0  0  0  0
   38.7020   23.0780   38.9320 H   0  0  0  0  0  0  0  0  0  0  0  0
  1 26  1  0  0  0  0
  2  1  1  0  0  0  0
  3  1  1  0  0  0  0
  4  7  1  6  0  0  0
  4  1  1  0  0  0  0
  4  6  1  0  0  0  0
  5  4  1  0  0  0  0
  5  6  1  0  0  0  0
  6 11  1  0  0  0  0
  6 10  1  1  0  0  0
  8  5  1  0  0  0  0
  9  5  1  0  0  0  0
 11 16  1  0  0  0  0
 12 13  1  0  0  0  0
 12 11  1  0  0  0  0
 13 14  1  0  0  0  0
 13 20  1  0  0  0  0
 14 15  1  0  0  0  0
 14 21  1  0  0  0  0
 15 22  1  0  0  0  0
 15 16  1  0  0  0  0
 16 24  1  0  0  0  0
 17 12  1  0  0  0  0
 18 12  1  0  0  0  0
 19 13  1  0  0  0  0
 23 15  1  0  0  0  0
 25 16  1  0  0  0  0
 26 27  1  0  0  0  0
 26 31  1  0  0  0  0
 26 28  1  0  0  0  0
 29 35  1  0  0  0  0
 30 29  1  0  0  0  0
 30 36  1  0  0  0  0
 31 30  2  0  0  0  0
 32 33  2  0  0  0  0
 32 31  1  0  0  0  0
 33 34  1  0  0  0  0
 34 29  2  0  0  0  0
 37 38  2  0  0  0  0
 38 44  1  0  0  0  0
 38 39  1  0  0  0  0
 39 33  1  1  0  0  0
 39 40  1  0  0  0  0
 40 41  1  0  0  0  0
 42 40  1  0  0  0  0
 43 42  1  0  0  0  0
 44 42  1  0  0  0  0
 45 44  1  0  0  0  0
M  END
>  <minimizedAffinity>
-5.31770039

$$$$

 OpenBabel03252502493D

 45 48  0  0  1  0  0  0  0  0999 V2000
   36.0530   30.1410   39.3930 C   0  0  0  0  0  0  0  0  0  0  0  0
   36.3850   29.6620   40.3470 H   0  0  0  0  0  0  0  0  0  0  0  0
   35.0510   30.5960   39.6070 H   0  0  0  0  0  0  0  0  0  0  0  0
   37.0800   31.1510   38.9850 C   0  0  1  0  0  0  0  0  0  0  0  0
   36.9810   32.5170   39.5830 C   0  0  0  0  0  0  0  0  0  0  0  0
   38.0470   31.5620   39.9920 C   0  0  2  0  0  0  0  0  0  0  0  0
   37.3330   31.0980   37.9310 H   0  0  0  0  0  0  0  0  0  0  0  0
   36.1140   32.6970   40.2650 H   0  0  0  0  0  0  0  0  0  0  0  0
   37.2090   33.4170   38.9580 H   0  0  0  0  0  0  0  0  0  0  0  0
   38.0290   31.3040   41.0450 H   0  0  0  0  0  0  0  0  0  0  0  0
   39.3450   31.9180   39.4450 N   0  0  0  0  0  0  0  0  0  0  0  0
   39.6290   33.3080   39.4760 C   0  0  0  0  0  0  0  0  0  0  0  0
   41.0080   33.4640   38.8630 C   0  0  0  0  0  0  0  0  0  0  0  0
   41.0390   33.0440   37.4960 N   0  0  0  0  0  0  0  0  0  0  0  0
   40.0550   32.0330   37.1740 C   0  0  0  0  0  0  0  0  0  0  0  0
   39.8140   31.1350   38.3850 C   0  0  0  0  0  0  0  0  0  0  0  0
   38.8640   33.8690   38.9100 H   0  0  0  0  0  0  0  0  0  0  0  0
   39.6720   33.7130   40.4950 H   0  0  0  0  0  0  0  0  0  0  0  0
   41.2670   34.5490   38.9170 H   0  0  0  0  0  0  0  0  0  0  0  0
   41.7330   32.9320   39.4970 H   0  0  0  0  0  0  0  0  0  0  0  0
   41.9910   32.8200   37.1870 H   0  0  0  0  0  0  0  0  0  0  0  0
   40.3700   31.4490   36.2950 H   0  0  0  0  0  0  0  0  0  0  0  0
   39.0900   32.5460   36.9440 H   0  0  0  0  0  0  0  0  0  0  0  0
   40.7360   30.5790   38.6360 H   0  0  0  0  0  0  0  0  0  0  0  0
   39.0310   30.4160   38.0650 H   0  0  0  0  0  0  0  0  0  0  0  0
   35.9940   29.1210   38.2980 C   0  0  0  0  0  0  0  0  0  0  0  0
   36.5850   29.3110   37.4130 H   0  0  0  0  0  0  0  0  0  0  0  0
   34.9250   29.1020   37.9310 H   0  0  0  0  0  0  0  0  0  0  0  0
   36.1590   25.4020   38.6990 C   0  0  0  0  0  0  0  0  0  0  0  0
   35.9580   26.6680   38.1080 C   0  0  0  0  0  0  0  0  0  0  0  0
   36.2020   27.7650   38.9060 C   0  0  0  0  0  0  0  0  0  0  0  0
   36.6130   27.5970   40.1860 N   0  0  0  0  0  0  0  0  0  0  0  0
   36.7940   26.3980   40.7180 C   0  0  0  0  0  0  0  0  0  0  0  0
   36.5720   25.3110   39.9880 N   0  0  0  0  0  0  0  0  0  0  0  0
   35.9780   24.5080   38.1050 H   0  0  0  0  0  0  0  0  0  0  0  0
   35.6300   26.7760   37.0870 H   0  0  0  0  0  0  0  0  0  0  0  0
   39.5910   25.8490   41.4660 O   0  0  0  0  0  0  0  0  0  0  0  0
   38.7220   26.3220   42.2650 C   0  0  0  0  0  0  0  0  0  0  0  0
   37.2460   26.2510   42.1280 C   0  0  1  0  0  3  0  0  0  0  0  0
   36.6980   27.3670   42.9600 C   0  0  0  0  0  3  0  0  0  0  0  0
   36.1680   28.1440   42.3690 H   0  0  0  0  0  0  0  0  0  0  0  0
   37.8900   27.9420   43.6790 C   0  0  0  0  0  3  0  0  0  0  0  0
   37.7050   28.0280   44.7630 H   0  0  0  0  0  0  0  0  0  0  0  0
   38.9970   27.0250   43.4620 N   0  0  0  0  0  0  0  0  0  0  0  0
   39.8270   26.9200   44.0850 H   0  0  0  0  0  0  0  0  0  0  0  0
  1  3  1  0  0  0  0
  1  2  1  0  0  0  0
  4  7  1  6  0  0  0
  4  1  1  0  0  0  0
  4  5  1  0  0  0  0
  4  6  1  0  0  0  0
  5  6  1  0  0  0  0
  5  8  1  0  0  0  0
  6 10  1  1  0  0  0
  9  5  1  0  0  0  0
 11 12  1  0  0  0  0
 11  6  1  0  0  0  0
 12 18  1  0  0  0  0
 13 19  1  0  0  0  0
 13 12  1  0  0  0  0
 13 20  1  0  0  0  0
 14 13  1  0  0  0  0
 15 14  1  0  0  0  0
 15 16  1  0  0  0  0
 16 24  1  0  0  0  0
 16 11  1  0  0  0  0
 17 12  1  0  0  0  0
 21 14  1  0  0  0  0
 22 15  1  0  0  0  0
 23 15  1  0  0  0  0
 25 16  1  0  0  0  0
 26 31  1  0  0  0  0
 26  1  1  0  0  0  0
 27 26  1  0  0  0  0
 28 26  1  0  0  0  0
 29 34  1  0  0  0  0
 30 29  2  0  0  0  0
 30 31  1  0  0  0  0
 31 32  2  0  0  0  0
 32 33  1  0  0  0  0
 34 33  2  0  0  0  0
 35 29  1  0  0  0  0
 36 30  1  0  0  0  0
 37 38  2  0  0  0  0
 38 44  1  0  0  0  0
 39 33  1  6  0  0  0
 39 38  1  0  0  0  0
 39 40  1  0  0  0  0
 40 42  1  0  0  0  0
 41 40  1  0  0  0  0
 42 43  1  0  0  0  0
 44 42  1  0  0  0  0
 44 45  1  0  0  0  0
M  END
>  <minimizedAffinity>
-5.25379896

$$$$

 OpenBabel03252502493D

 45 48  0  0  1  0  0  0  0  0999 V2000
   38.8270   28.9700   43.0410 C   0  0  0  0  0  0  0  0  0  0  0  0
   39.1140   29.0820   44.1150 H   0  0  0  0  0  0  0  0  0  0  0  0
   39.3260   29.8130   42.4960 H   0  0  0  0  0  0  0  0  0  0  0  0
   39.2730   27.6220   42.5660 C   0  0  1  0  0  0  0  0  0  0  0  0
   39.7370   26.6460   43.5980 C   0  0  0  0  0  0  0  0  0  0  0  0
   38.4300   26.4840   42.9050 C   0  0  2  0  0  0  0  0  0  0  0  0
   39.8420   27.6620   41.6440 H   0  0  0  0  0  0  0  0  0  0  0  0
   39.7570   27.0130   44.6540 H   0  0  0  0  0  0  0  0  0  0  0  0
   40.6040   25.9730   43.3780 H   0  0  0  0  0  0  0  0  0  0  0  0
   37.5730   26.4930   43.5700 H   0  0  0  0  0  0  0  0  0  0  0  0
   38.4590   25.4200   41.9160 N   0  0  0  0  0  0  0  0  0  0  0  0
   38.6100   25.8710   40.5800 C   0  0  0  0  0  0  0  0  0  0  0  0
   38.6110   24.6240   39.7170 C   0  0  0  0  0  0  0  0  0  0  0  0
   37.3710   23.9140   39.7980 N   0  0  0  0  0  0  0  0  0  0  0  0
   36.6720   24.1030   41.0510 C   0  0  0  0  0  0  0  0  0  0  0  0
   37.6760   24.2930   42.1860 C   0  0  0  0  0  0  0  0  0  0  0  0
   37.7870   26.5550   40.3090 H   0  0  0  0  0  0  0  0  0  0  0  0
   39.5620   26.3920   40.4090 H   0  0  0  0  0  0  0  0  0  0  0  0
   38.7720   24.9550   38.6630 H   0  0  0  0  0  0  0  0  0  0  0  0
   39.4820   24.0100   39.9930 H   0  0  0  0  0  0  0  0  0  0  0  0
   37.4750   22.9330   39.5170 H   0  0  0  0  0  0  0  0  0  0  0  0
   35.9930   23.2590   41.2500 H   0  0  0  0  0  0  0  0  0  0  0  0
   36.0730   25.0440   40.9770 H   0  0  0  0  0  0  0  0  0  0  0  0
   38.2760   23.3750   42.3210 H   0  0  0  0  0  0  0  0  0  0  0  0
   37.0610   24.4630   43.0950 H   0  0  0  0  0  0  0  0  0  0  0  0
   37.3350   29.0040   42.9000 C   0  0  0  0  0  0  0  0  0  0  0  0
   36.7760   29.4840   43.6910 H   0  0  0  0  0  0  0  0  0  0  0  0
   36.9850   27.9290   42.9110 H   0  0  0  0  0  0  0  0  0  0  0  0
   35.5410   29.5000   39.6520 C   0  0  0  0  0  0  0  0  0  0  0  0
   35.8340   29.0330   40.9520 C   0  0  0  0  0  0  0  0  0  0  0  0
   37.0040   29.4890   41.5200 C   0  0  0  0  0  0  0  0  0  0  0  0
   37.8060   30.3390   40.8360 N   0  0  0  0  0  0  0  0  0  0  0  0
   37.5090   30.7640   39.6160 C   0  0  0  0  0  0  0  0  0  0  0  0
   36.3920   30.3520   39.0280 N   0  0  0  0  0  0  0  0  0  0  0  0
   34.6260   29.1660   39.1660 H   0  0  0  0  0  0  0  0  0  0  0  0
   35.1800   28.3560   41.4760 H   0  0  0  0  0  0  0  0  0  0  0  0
   37.1650   33.6890   39.6530 O   0  0  0  0  0  0  0  0  0  0  0  0
   38.2500   33.1060   39.3350 C   0  0  0  0  0  0  0  0  0  0  0  0
   38.4130   31.6980   38.8930 C   0  0  1  0  0  3  0  0  0  0  0  0
   39.8400   31.3420   39.1660 C   0  0  0  0  0  3  0  0  0  0  0  0
   39.9630   30.5440   39.9280 H   0  0  0  0  0  0  0  0  0  0  0  0
   40.4880   32.6270   39.6080 C   0  0  0  0  0  3  0  0  0  0  0  0
   41.4160   32.8270   39.0450 H   0  0  0  0  0  0  0  0  0  0  0  0
   39.5370   33.6940   39.3420 N   0  0  0  0  0  0  0  0  0  0  0  0
   39.7790   34.6960   39.1850 H   0  0  0  0  0  0  0  0  0  0  0  0
  1  2  1  0  0  0  0
  3  1  1  0  0  0  0
  4  7  1  6  0  0  0
  4  6  1  0  0  0  0
  4  1  1  0  0  0  0
  4  5  1  0  0  0  0
  5  8  1  0  0  0  0
  6 10  1  1  0  0  0
  6  5  1  0  0  0  0
  9  5  1  0  0  0  0
 11 16  1  0  0  0  0
 11  6  1  0  0  0  0
 12 11  1  0  0  0  0
 13 14  1  0  0  0  0
 13 20  1  0  0  0  0
 13 12  1  0  0  0  0
 14 15  1  0  0  0  0
 15 22  1  0  0  0  0
 15 16  1  0  0  0  0
 16 24  1  0  0  0  0
 16 25  1  0  0  0  0
 17 12  1  0  0  0  0
 18 12  1  0  0  0  0
 19 13  1  0  0  0  0
 21 14  1  0  0  0  0
 23 15  1  0  0  0  0
 26 28  1  0  0  0  0
 26  1  1  0  0  0  0
 26 27  1  0  0  0  0
 29 30  1  0  0  0  0
 30 36  1  0  0  0  0
 30 31  2  0  0  0  0
 31 26  1  0  0  0  0
 32 31  1  0  0  0  0
 33 32  2  0  0  0  0
 34 33  1  0  0  0  0
 34 29  2  0  0  0  0
 35 29  1  0  0  0  0
 38 44  1  0  0  0  0
 38 37  2  0  0  0  0
 39 40  1  0  0  0  0
 39 38  1  0  0  0  0
 39 33  1  1  0  0  0
 40 42  1  0  0  0  0
 40 41  1  0  0  0  0
 43 42  1  0  0  0  0
 44 42  1  0  0  0  0
 45 44  1  0  0  0  0
M  END
>  <minimizedAffinity>
-5.24548531

$$$$

 OpenBabel03252502493D

 45 48  0  0  1  0  0  0  0  0999 V2000
   38.6470   28.5150   43.0660 C   0  0  0  0  0  0  0  0  0  0  0  0
   39.1370   27.8970   42.2730 H   0  0  0  0  0  0  0  0  0  0  0  0
   39.0540   28.1470   44.0430 H   0  0  0  0  0  0  0  0  0  0  0  0
   38.9600   29.9560   42.8070 C   0  0  1  0  0  0  0  0  0  0  0  0
   40.3850   30.3140   42.5300 C   0  0  0  0  0  0  0  0  0  0  0  0
   39.3560   30.3190   41.4540 C   0  0  2  0  0  0  0  0  0  0  0  0
   38.4030   30.6340   43.4450 H   0  0  0  0  0  0  0  0  0  0  0  0
   41.1240   29.4780   42.5790 H   0  0  0  0  0  0  0  0  0  0  0  0
   40.8100   31.2650   42.9390 H   0  0  0  0  0  0  0  0  0  0  0  0
   39.5660   29.6350   40.6390 H   0  0  0  0  0  0  0  0  0  0  0  0
   38.9650   31.6660   41.0720 N   0  0  0  0  0  0  0  0  0  0  0  0
   37.8140   31.7260   40.2460 C   0  0  0  0  0  0  0  0  0  0  0  0
   37.5830   33.1970   39.9610 C   0  0  0  0  0  0  0  0  0  0  0  0
   38.6690   33.7820   39.2360 N   0  0  0  0  0  0  0  0  0  0  0  0
   39.9410   33.1310   39.4670 C   0  0  0  0  0  0  0  0  0  0  0  0
   39.9990   32.5910   40.8940 C   0  0  0  0  0  0  0  0  0  0  0  0
   37.9770   31.1500   39.3180 H   0  0  0  0  0  0  0  0  0  0  0  0
   36.9130   31.3380   40.7390 H   0  0  0  0  0  0  0  0  0  0  0  0
   36.6540   33.2690   39.3450 H   0  0  0  0  0  0  0  0  0  0  0  0
   37.3720   33.7070   40.9130 H   0  0  0  0  0  0  0  0  0  0  0  0
   38.6920   34.8020   39.3400 H   0  0  0  0  0  0  0  0  0  0  0  0
   40.7750   33.8210   39.2630 H   0  0  0  0  0  0  0  0  0  0  0  0
   40.0150   32.2560   38.7770 H   0  0  0  0  0  0  0  0  0  0  0  0
   39.9600   33.4240   41.6190 H   0  0  0  0  0  0  0  0  0  0  0  0
   40.9840   32.0840   40.9760 H   0  0  0  0  0  0  0  0  0  0  0  0
   37.1570   28.3770   42.9800 C   0  0  0  0  0  0  0  0  0  0  0  0
   36.5640   29.2250   43.2930 H   0  0  0  0  0  0  0  0  0  0  0  0
   36.8690   27.5460   43.6890 H   0  0  0  0  0  0  0  0  0  0  0  0
   36.7900   26.0420   40.0760 C   0  0  0  0  0  0  0  0  0  0  0  0
   37.1220   26.5250   41.3610 C   0  0  0  0  0  0  0  0  0  0  0  0
   36.8130   27.8430   41.6210 C   0  0  0  0  0  0  0  0  0  0  0  0
   36.2220   28.6040   40.6690 N   0  0  0  0  0  0  0  0  0  0  0  0
   35.9200   28.1270   39.4700 C   0  0  0  0  0  0  0  0  0  0  0  0
   36.1990   26.8630   39.1730 N   0  0  0  0  0  0  0  0  0  0  0  0
   37.0160   25.0070   39.8290 H   0  0  0  0  0  0  0  0  0  0  0  0
   37.5920   25.9000   42.1020 H   0  0  0  0  0  0  0  0  0  0  0  0
   37.4260   29.5700   37.3890 O   0  0  0  0  0  0  0  0  0  0  0  0
   36.1800   29.3240   37.3220 C   0  0  0  0  0  0  0  0  0  0  0  0
   35.2710   28.9910   38.4470 C   0  0  1  0  0  3  0  0  0  0  0  0
   34.1050   28.2770   37.8400 C   0  0  0  0  0  3  0  0  0  0  0  0
   34.0100   27.2200   38.1680 H   0  0  0  0  0  0  0  0  0  0  0  0
   34.3170   28.3730   36.3520 C   0  0  0  0  0  3  0  0  0  0  0  0
   33.4140   28.7460   35.8390 H   0  0  0  0  0  0  0  0  0  0  0  0
   35.4020   29.3190   36.1400 N   0  0  0  0  0  0  0  0  0  0  0  0
   35.5570   29.8780   35.2740 H   0  0  0  0  0  0  0  0  0  0  0  0
  1  3  1  0  0  0  0
  2  1  1  0  0  0  0
  4  1  1  0  0  0  0
  4  7  1  1  0  0  0
  5  8  1  0  0  0  0
  5  4  1  0  0  0  0
  5  9  1  0  0  0  0
  6 10  1  6  0  0  0
  6  5  1  0  0  0  0
  6  4  1  0  0  0  0
 11  6  1  0  0  0  0
 12 18  1  0  0  0  0
 12 11  1  0  0  0  0
 13 12  1  0  0  0  0
 13 20  1  0  0  0  0
 14 21  1  0  0  0  0
 14 15  1  0  0  0  0
 14 13  1  0  0  0  0
 15 16  1  0  0  0  0
 16 25  1  0  0  0  0
 16 11  1  0  0  0  0
 16 24  1  0  0  0  0
 17 12  1  0  0  0  0
 19 13  1  0  0  0  0
 22 15  1  0  0  0  0
 23 15  1  0  0  0  0
 26  1  1  0  0  0  0
 26 27  1  0  0  0  0
 26 28  1  0  0  0  0
 29 30  1  0  0  0  0
 30 31  2  0  0  0  0
 30 36  1  0  0  0  0
 31 26  1  0  0  0  0
 32 31  1  0  0  0  0
 33 32  2  0  0  0  0
 34 33  1  0  0  0  0
 34 29  2  0  0  0  0
 35 29  1  0  0  0  0
 38 37  2  0  0  0  0
 38 39  1  0  0  0  0
 39 33  1  1  0  0  0
 40 41  1  0  0  0  0
 40 39  1  0  0  0  0
 42 40  1  0  0  0  0
 43 42  1  0  0  0  0
 44 42  1  0  0  0  0
 44 38  1  0  0  0  0
 45 44  1  0  0  0  0
M  END
>  <minimizedAffinity>
-5.1964674

$$$$

 OpenBabel03252502493D

 45 48  0  0  1  0  0  0  0  0999 V2000
   38.7180   27.7800   43.2690 C   0  0  0  0  0  0  0  0  0  0  0  0
   39.2970   27.1040   42.5920 H   0  0  0  0  0  0  0  0  0  0  0  0
   39.1500   27.6380   44.2930 H   0  0  0  0  0  0  0  0  0  0  0  0
   38.8500   29.1840   42.7670 C   0  0  1  0  0  0  0  0  0  0  0  0
   40.2310   29.7250   42.5830 C   0  0  0  0  0  0  0  0  0  0  0  0
   39.3740   29.3640   41.4210 C   0  0  2  0  0  0  0  0  0  0  0  0
   38.1160   29.8590   43.1940 H   0  0  0  0  0  0  0  0  0  0  0  0
   41.0710   29.0480   42.8770 H   0  0  0  0  0  0  0  0  0  0  0  0
   40.4510   30.7920   42.8400 H   0  0  0  0  0  0  0  0  0  0  0  0
   39.7930   28.5920   40.7850 H   0  0  0  0  0  0  0  0  0  0  0  0
   38.8470   30.5350   40.7410 N   0  0  0  0  0  0  0  0  0  0  0  0
   39.1240   31.7630   41.3940 C   0  0  0  0  0  0  0  0  0  0  0  0
   38.4930   32.8420   40.5370 C   0  0  0  0  0  0  0  0  0  0  0  0
   37.0710   32.7030   40.4580 N   0  0  0  0  0  0  0  0  0  0  0  0
   36.6090   31.3420   40.6200 C   0  0  0  0  0  0  0  0  0  0  0  0
   37.6400   30.3690   40.0530 C   0  0  0  0  0  0  0  0  0  0  0  0
   38.7070   31.7560   42.4160 H   0  0  0  0  0  0  0  0  0  0  0  0
   40.1990   31.9790   41.4600 H   0  0  0  0  0  0  0  0  0  0  0  0
   38.7370   33.8220   41.0130 H   0  0  0  0  0  0  0  0  0  0  0  0
   38.9850   32.8370   39.5520 H   0  0  0  0  0  0  0  0  0  0  0  0
   36.6850   33.1860   39.6390 H   0  0  0  0  0  0  0  0  0  0  0  0
   35.6240   31.2060   40.1470 H   0  0  0  0  0  0  0  0  0  0  0  0
   36.5200   31.1310   41.7130 H   0  0  0  0  0  0  0  0  0  0  0  0
   37.7430   30.5170   38.9620 H   0  0  0  0  0  0  0  0  0  0  0  0
   37.2260   29.3570   40.2450 H   0  0  0  0  0  0  0  0  0  0  0  0
   37.2600   27.4390   43.2140 C   0  0  0  0  0  0  0  0  0  0  0  0
   36.5580   28.2560   43.3070 H   0  0  0  0  0  0  0  0  0  0  0  0
   37.0490   26.7760   44.1050 H   0  0  0  0  0  0  0  0  0  0  0  0
   36.9140   24.3720   41.0940 C   0  0  0  0  0  0  0  0  0  0  0  0
   37.1340   25.1900   42.2230 C   0  0  0  0  0  0  0  0  0  0  0  0
   37.0290   26.5510   42.0270 C   0  0  0  0  0  0  0  0  0  0  0  0
   36.7310   27.0400   40.7990 N   0  0  0  0  0  0  0  0  0  0  0  0
   36.5290   26.2510   39.7540 C   0  0  0  0  0  0  0  0  0  0  0  0
   36.6180   24.9340   39.8950 N   0  0  0  0  0  0  0  0  0  0  0  0
   36.9860   23.2920   41.2040 H   0  0  0  0  0  0  0  0  0  0  0  0
   37.3700   24.7770   43.1900 H   0  0  0  0  0  0  0  0  0  0  0  0
   38.5320   27.5390   38.0190 O   0  0  0  0  0  0  0  0  0  0  0  0
   37.4130   27.0980   37.6060 C   0  0  0  0  0  0  0  0  0  0  0  0
   36.2030   26.8230   38.4200 C   0  0  1  0  0  3  0  0  0  0  0  0
   35.3860   25.8480   37.6320 C   0  0  0  0  0  3  0  0  0  0  0  0
   35.2760   24.8590   38.1250 H   0  0  0  0  0  0  0  0  0  0  0  0
   36.0920   25.7250   36.3070 C   0  0  0  0  0  3  0  0  0  0  0  0
   35.3940   25.8640   35.4640 H   0  0  0  0  0  0  0  0  0  0  0  0
   37.0960   26.7760   36.2650 N   0  0  0  0  0  0  0  0  0  0  0  0
   37.4920   27.2000   35.3980 H   0  0  0  0  0  0  0  0  0  0  0  0
  1  3  1  0  0  0  0
  2  1  1  0  0  0  0
  4  7  1  1  0  0  0
  4  1  1  0  0  0  0
  5  4  1  0  0  0  0
  5  9  1  0  0  0  0
  5  8  1  0  0  0  0
  6 10  1  6  0  0  0
  6  5  1  0  0  0  0
  6  4  1  0  0  0  0
 11 12  1  0  0  0  0
 11  6  1  0  0  0  0
 12 18  1  0  0  0  0
 12 17  1  0  0  0  0
 13 19  1  0  0  0  0
 13 12  1  0  0  0  0
 14 13  1  0  0  0  0
 14 15  1  0  0  0  0
 15 23  1  0  0  0  0
 16 25  1  0  0  0  0
 16 15  1  0  0  0  0
 16 11  1  0  0  0  0
 20 13  1  0  0  0  0
 21 14  1  0  0  0  0
 22 15  1  0  0  0  0
 24 16  1  0  0  0  0
 26  1  1  0  0  0  0
 26 27  1  0  0  0  0
 26 28  1  0  0  0  0
 29 35  1  0  0  0  0
 29 30  1  0  0  0  0
 30 36  1  0  0  0  0
 31 30  2  0  0  0  0
 31 26  1  0  0  0  0
 32 31  1  0  0  0  0
 33 34  1  0  0  0  0
 33 32  2  0  0  0  0
 34 29  2  0  0  0  0
 38 37  2  0  0  0  0
 38 39  1  0  0  0  0
 39 33  1  1  0  0  0
 40 41  1  0  0  0  0
 40 39  1  0  0  0  0
 42 40  1  0  0  0  0
 43 42  1  0  0  0  0
 44 42  1  0  0  0  0
 44 38  1  0  0  0  0
 45 44  1  0  0  0  0
M  END
>  <minimizedAffinity>
-5.15991688

$$$$
