
 OpenBabel03252501313D

 20 21  0  0  1  0  0  0  0  0999 V2000
   37.8370   30.0650   41.3580 C   0  0  0  0  0  0  0  0  0  0  0  0
   36.9750   31.0280   40.8320 C   0  0  0  0  0  0  0  0  0  0  0  0
   37.4800   31.9370   39.9010 C   0  0  0  0  0  0  0  0  0  0  0  0
   38.7770   31.8260   39.5670 N   0  0  0  0  0  0  0  0  0  0  0  0
   39.6060   30.8870   40.0850 C   0  0  0  0  0  0  0  0  0  0  0  0
   39.1320   30.0000   40.9870 N   0  0  0  0  0  0  0  0  0  0  0  0
   36.7930   32.6570   39.5220 H   0  0  0  0  0  0  0  0  0  0  0  0
   40.6400   30.8570   39.7700 H   0  0  0  0  0  0  0  0  0  0  0  0
   36.2760   27.8400   40.7200 O   0  0  0  0  0  0  0  0  0  0  0  0
   37.0420   27.7800   41.6890 C   0  0  0  0  0  0  0  0  0  0  0  0
   37.4080   29.0520   42.3510 C   0  0  1  0  0  3  0  0  0  0  0  0
   38.5710   28.7430   43.2440 C   0  0  0  0  0  3  0  0  0  0  0  0
   39.5530   29.0210   42.7620 H   0  0  0  0  0  0  0  0  0  0  0  0
   38.4910   27.2730   43.5050 C   0  0  0  0  0  3  0  0  0  0  0  0
   39.5000   26.7760   43.5270 H   0  0  0  0  0  0  0  0  0  0  0  0
   37.7260   26.7720   42.4090 N   0  0  0  0  0  0  0  0  0  0  0  0
   37.6330   25.7650   42.1060 H   0  0  0  0  0  0  0  0  0  0  0  0
   35.6310   30.9870   41.3080 N   0  0  0  0  0  0  0  0  0  0  0  0
   35.1790   31.4710   42.1300 H   0  0  0  0  0  0  0  0  0  0  0  0
   35.2430   30.3320   40.5900 H   0  0  0  0  0  0  0  0  0  0  0  0
  2 18  1  0  0  0  0
  2  1  2  0  0  0  0
  3  2  1  0  0  0  0
  4  3  2  0  0  0  0
  4  5  1  0  0  0  0
  5  6  2  0  0  0  0
  6  1  1  0  0  0  0
  7  3  1  0  0  0  0
  8  5  1  0  0  0  0
  9 10  2  0  0  0  0
 10 11  1  0  0  0  0
 10 16  1  0  0  0  0
 11  1  1  6  0  0  0
 11 12  1  0  0  0  0
 12 14  1  0  0  0  0
 13 12  1  0  0  0  0
 14 15  1  0  0  0  0
 16 14  1  0  0  0  0
 17 16  1  0  0  0  0
 18 19  1  0  0  0  0
 20 18  1  0  0  0  0
M  END
>  <minimizedAffinity>
-4.41301441

$$$$

 OpenBabel03252501313D

 20 21  0  0  1  0  0  0  0  0999 V2000
   37.4380   30.1800   39.9320 C   0  0  0  0  0  0  0  0  0  0  0  0
   36.8490   30.2240   41.1960 C   0  0  0  0  0  0  0  0  0  0  0  0
   37.4500   29.5150   42.2370 C   0  0  0  0  0  0  0  0  0  0  0  0
   38.5690   28.8260   41.9520 N   0  0  0  0  0  0  0  0  0  0  0  0
   39.1330   28.7890   40.7200 C   0  0  0  0  0  0  0  0  0  0  0  0
   38.5630   29.4710   39.7030 N   0  0  0  0  0  0  0  0  0  0  0  0
   36.9720   29.5730   43.1860 H   0  0  0  0  0  0  0  0  0  0  0  0
   40.0340   28.2130   40.5640 H   0  0  0  0  0  0  0  0  0  0  0  0
   38.2120   32.7570   39.1860 O   0  0  0  0  0  0  0  0  0  0  0  0
   37.7920   31.9800   38.3210 C   0  0  0  0  0  0  0  0  0  0  0  0
   36.8860   30.8940   38.7570 C   0  0  1  0  0  3  0  0  0  0  0  0
   36.8030   29.9300   37.6120 C   0  0  0  0  0  3  0  0  0  0  0  0
   37.4930   29.0490   37.7580 H   0  0  0  0  0  0  0  0  0  0  0  0
   37.1780   30.7200   36.4000 C   0  0  0  0  0  3  0  0  0  0  0  0
   37.8030   30.1330   35.6710 H   0  0  0  0  0  0  0  0  0  0  0  0
   37.9350   31.8110   36.9230 N   0  0  0  0  0  0  0  0  0  0  0  0
   38.5610   32.4680   36.3820 H   0  0  0  0  0  0  0  0  0  0  0  0
   35.6630   31.0110   41.3030 N   0  0  0  0  0  0  0  0  0  0  0  0
   34.6500   30.7450   41.1750 H   0  0  0  0  0  0  0  0  0  0  0  0
   36.1160   31.9220   41.5450 H   0  0  0  0  0  0  0  0  0  0  0  0
  1  2  1  0  0  0  0
  2 18  1  0  0  0  0
  2  3  2  0  0  0  0
  3  7  1  0  0  0  0
  4  3  1  0  0  0  0
  5  4  2  0  0  0  0
  6  1  2  0  0  0  0
  6  5  1  0  0  0  0
  8  5  1  0  0  0  0
 10 11  1  0  0  0  0
 10  9  2  0  0  0  0
 11  1  1  1  0  0  0
 12 13  1  0  0  0  0
 12 11  1  0  0  0  0
 14 16  1  0  0  0  0
 14 12  1  0  0  0  0
 15 14  1  0  0  0  0
 16 10  1  0  0  0  0
 17 16  1  0  0  0  0
 18 20  1  0  0  0  0
 19 18  1  0  0  0  0
M  END
>  <minimizedAffinity>
-4.23421621

$$$$

 OpenBabel03252501313D

 20 21  0  0  1  0  0  0  0  0999 V2000
   38.0700   30.4760   40.7130 C   0  0  0  0  0  0  0  0  0  0  0  0
   37.0180   30.1750   41.5780 C   0  0  0  0  0  0  0  0  0  0  0  0
   37.2490   29.2770   42.6210 C   0  0  0  0  0  0  0  0  0  0  0  0
   38.4840   28.7560   42.7270 N   0  0  0  0  0  0  0  0  0  0  0  0
   39.4990   29.0550   41.8810 C   0  0  0  0  0  0  0  0  0  0  0  0
   39.2900   29.9220   40.8660 N   0  0  0  0  0  0  0  0  0  0  0  0
   36.4230   29.0720   43.2610 H   0  0  0  0  0  0  0  0  0  0  0  0
   40.4660   28.5970   42.0270 H   0  0  0  0  0  0  0  0  0  0  0  0
   38.5980   33.2120   40.8930 O   0  0  0  0  0  0  0  0  0  0  0  0
   38.7260   32.6450   39.8020 C   0  0  0  0  0  0  0  0  0  0  0  0
   37.9360   31.4140   39.5740 C   0  0  1  0  0  3  0  0  0  0  0  0
   38.5140   30.7630   38.3540 C   0  0  0  0  0  3  0  0  0  0  0  0
   39.2290   29.9330   38.6230 H   0  0  0  0  0  0  0  0  0  0  0  0
   39.2080   31.8580   37.6100 C   0  0  0  0  0  3  0  0  0  0  0  0
   40.1750   31.5250   37.1410 H   0  0  0  0  0  0  0  0  0  0  0  0
   39.4660   32.8420   38.6110 N   0  0  0  0  0  0  0  0  0  0  0  0
   40.1270   33.6620   38.5420 H   0  0  0  0  0  0  0  0  0  0  0  0
   35.7800   30.8290   41.3050 N   0  0  0  0  0  0  0  0  0  0  0  0
   34.9660   30.5340   40.7010 H   0  0  0  0  0  0  0  0  0  0  0  0
   35.9360   31.6840   41.8880 H   0  0  0  0  0  0  0  0  0  0  0  0
  1  6  2  0  0  0  0
  1  2  1  0  0  0  0
  2  3  2  0  0  0  0
  3  4  1  0  0  0  0
  3  7  1  0  0  0  0
  5  8  1  0  0  0  0
  5  4  2  0  0  0  0
  6  5  1  0  0  0  0
 10  9  2  0  0  0  0
 11 10  1  0  0  0  0
 11  1  1  1  0  0  0
 12 13  1  0  0  0  0
 12 11  1  0  0  0  0
 14 12  1  0  0  0  0
 14 16  1  0  0  0  0
 15 14  1  0  0  0  0
 16 10  1  0  0  0  0
 17 16  1  0  0  0  0
 18  2  1  0  0  0  0
 18 20  1  0  0  0  0
 19 18  1  0  0  0  0
M  END
>  <minimizedAffinity>
-4.16352177

$$$$

 OpenBabel03252501313D

 20 21  0  0  1  0  0  0  0  0999 V2000
   36.8870   31.0300   39.3230 C   0  0  0  0  0  0  0  0  0  0  0  0
   36.0170   29.9790   39.6110 C   0  0  0  0  0  0  0  0  0  0  0  0
   35.8380   28.9800   38.6530 C   0  0  0  0  0  0  0  0  0  0  0  0
   36.5240   29.0960   37.5020 N   0  0  0  0  0  0  0  0  0  0  0  0
   37.3670   30.1220   37.2320 C   0  0  0  0  0  0  0  0  0  0  0  0
   37.5500   31.0960   38.1490 N   0  0  0  0  0  0  0  0  0  0  0  0
   35.1670   28.1940   38.9080 H   0  0  0  0  0  0  0  0  0  0  0  0
   37.8840   30.1510   36.2840 H   0  0  0  0  0  0  0  0  0  0  0  0
   38.6010   30.8210   41.5180 O   0  0  0  0  0  0  0  0  0  0  0  0
   38.4200   31.9290   40.9980 C   0  0  0  0  0  0  0  0  0  0  0  0
   37.1510   32.1420   40.2660 C   0  0  1  0  0  3  0  0  0  0  0  0
   37.3300   33.4020   39.4740 C   0  0  0  0  0  3  0  0  0  0  0  0
   37.6020   33.1860   38.4010 H   0  0  0  0  0  0  0  0  0  0  0  0
   38.4160   34.1570   40.1690 C   0  0  0  0  0  3  0  0  0  0  0  0
   39.1120   34.6810   39.4550 H   0  0  0  0  0  0  0  0  0  0  0  0
   39.1260   33.1500   40.8890 N   0  0  0  0  0  0  0  0  0  0  0  0
   40.0840   33.2360   41.3250 H   0  0  0  0  0  0  0  0  0  0  0  0
   35.3810   30.0280   40.8870 N   0  0  0  0  0  0  0  0  0  0  0  0
   34.4650   30.4640   41.1800 H   0  0  0  0  0  0  0  0  0  0  0  0
   36.1030   29.5010   41.4300 H   0  0  0  0  0  0  0  0  0  0  0  0
  1  2  1  0  0  0  0
  2 18  1  0  0  0  0
  3  7  1  0  0  0  0
  3  2  2  0  0  0  0
  4  3  1  0  0  0  0
  5  4  2  0  0  0  0
  5  6  1  0  0  0  0
  6  1  2  0  0  0  0
  8  5  1  0  0  0  0
 10  9  2  0  0  0  0
 11  1  1  6  0  0  0
 11 10  1  0  0  0  0
 12 14  1  0  0  0  0
 12 11  1  0  0  0  0
 13 12  1  0  0  0  0
 14 16  1  0  0  0  0
 15 14  1  0  0  0  0
 16 10  1  0  0  0  0
 16 17  1  0  0  0  0
 18 19  1  0  0  0  0
 18 20  1  0  0  0  0
M  END
>  <minimizedAffinity>
-4.10818386

$$$$

 OpenBabel03252501313D

 20 21  0  0  1  0  0  0  0  0999 V2000
   39.1030   28.0490   42.7010 C   0  0  0  0  0  0  0  0  0  0  0  0
   38.3710   29.2240   42.8760 C   0  0  0  0  0  0  0  0  0  0  0  0
   38.8290   30.3920   42.2650 C   0  0  0  0  0  0  0  0  0  0  0  0
   39.9580   30.3100   41.5400 N   0  0  0  0  0  0  0  0  0  0  0  0
   40.6620   29.1630   41.3770 C   0  0  0  0  0  0  0  0  0  0  0  0
   40.2310   28.0250   41.9610 N   0  0  0  0  0  0  0  0  0  0  0  0
   38.2440   31.2680   42.4210 H   0  0  0  0  0  0  0  0  0  0  0  0
   41.5630   29.1720   40.7800 H   0  0  0  0  0  0  0  0  0  0  0  0
   37.0070   26.4740   41.7400 O   0  0  0  0  0  0  0  0  0  0  0  0
   37.9430   25.9310   42.3390 C   0  0  0  0  0  0  0  0  0  0  0  0
   38.7080   26.7530   43.3020 C   0  0  1  0  0  3  0  0  0  0  0  0
   39.9530   25.9810   43.6200 C   0  0  0  0  0  3  0  0  0  0  0  0
   40.8350   26.3450   43.0180 H   0  0  0  0  0  0  0  0  0  0  0  0
   39.6280   24.5570   43.3020 C   0  0  0  0  0  3  0  0  0  0  0  0
   40.4890   24.0050   42.8320 H   0  0  0  0  0  0  0  0  0  0  0  0
   38.5460   24.6510   42.3750 N   0  0  0  0  0  0  0  0  0  0  0  0
   38.1780   23.8860   41.7480 H   0  0  0  0  0  0  0  0  0  0  0  0
   37.1970   29.1120   43.6800 N   0  0  0  0  0  0  0  0  0  0  0  0
   37.0640   29.2340   44.7190 H   0  0  0  0  0  0  0  0  0  0  0  0
   36.5220   28.8740   42.9170 H   0  0  0  0  0  0  0  0  0  0  0  0
  1  2  1  0  0  0  0
  2 18  1  0  0  0  0
  3  7  1  0  0  0  0
  3  2  2  0  0  0  0
  4  3  1  0  0  0  0
  5  4  2  0  0  0  0
  5  6  1  0  0  0  0
  6  1  2  0  0  0  0
  8  5  1  0  0  0  0
  9 10  2  0  0  0  0
 10 16  1  0  0  0  0
 10 11  1  0  0  0  0
 11  1  1  6  0  0  0
 11 12  1  0  0  0  0
 13 12  1  0  0  0  0
 14 12  1  0  0  0  0
 15 14  1  0  0  0  0
 16 14  1  0  0  0  0
 17 16  1  0  0  0  0
 18 19  1  0  0  0  0
 20 18  1  0  0  0  0
M  END
>  <minimizedAffinity>
-4.04651737

$$$$

 OpenBabel03252501313D

 20 21  0  0  1  0  0  0  0  0999 V2000
   37.6550   26.9420   41.8400 C   0  0  0  0  0  0  0  0  0  0  0  0
   36.6970   27.8950   42.1870 C   0  0  0  0  0  0  0  0  0  0  0  0
   36.3670   28.8790   41.2530 C   0  0  0  0  0  0  0  0  0  0  0  0
   37.0000   28.8450   40.0680 N   0  0  0  0  0  0  0  0  0  0  0  0
   37.9300   27.9150   39.7410 C   0  0  0  0  0  0  0  0  0  0  0  0
   38.2600   26.9570   40.6340 N   0  0  0  0  0  0  0  0  0  0  0  0
   35.6310   29.5880   41.5530 H   0  0  0  0  0  0  0  0  0  0  0  0
   38.3990   27.9500   38.7680 H   0  0  0  0  0  0  0  0  0  0  0  0
   36.6060   24.3560   41.7580 O   0  0  0  0  0  0  0  0  0  0  0  0
   37.7530   24.5270   42.1870 C   0  0  0  0  0  0  0  0  0  0  0  0
   38.0810   25.8550   42.7520 C   0  0  1  0  0  3  0  0  0  0  0  0
   39.5740   25.9010   42.8790 C   0  0  0  0  0  3  0  0  0  0  0  0
   40.0500   26.4480   42.0150 H   0  0  0  0  0  0  0  0  0  0  0  0
   40.0120   24.4730   42.9250 C   0  0  0  0  0  3  0  0  0  0  0  0
   40.9690   24.2890   42.3620 H   0  0  0  0  0  0  0  0  0  0  0  0
   38.9390   23.7650   42.3050 N   0  0  0  0  0  0  0  0  0  0  0  0
   38.9550   22.7720   41.9460 H   0  0  0  0  0  0  0  0  0  0  0  0
   36.1350   27.7660   43.4920 N   0  0  0  0  0  0  0  0  0  0  0  0
   36.4380   28.1810   44.4130 H   0  0  0  0  0  0  0  0  0  0  0  0
   35.3360   27.1380   43.2440 H   0  0  0  0  0  0  0  0  0  0  0  0
  1  2  1  0  0  0  0
  2 18  1  0  0  0  0
  3  7  1  0  0  0  0
  3  2  2  0  0  0  0
  4  3  1  0  0  0  0
  5  4  2  0  0  0  0
  5  6  1  0  0  0  0
  6  1  2  0  0  0  0
  8  5  1  0  0  0  0
  9 10  2  0  0  0  0
 10 16  1  0  0  0  0
 10 11  1  0  0  0  0
 11  1  1  6  0  0  0
 11 12  1  0  0  0  0
 12 14  1  0  0  0  0
 13 12  1  0  0  0  0
 15 14  1  0  0  0  0
 16 14  1  0  0  0  0
 17 16  1  0  0  0  0
 18 19  1  0  0  0  0
 20 18  1  0  0  0  0
M  END
>  <minimizedAffinity>
-4.04326534

$$$$

 OpenBabel03252501313D

 20 21  0  0  1  0  0  0  0  0999 V2000
   38.3740   26.3500   42.2550 C   0  0  0  0  0  0  0  0  0  0  0  0
   38.1160   25.0760   41.7490 C   0  0  0  0  0  0  0  0  0  0  0  0
   38.9180   24.0150   42.1720 C   0  0  0  0  0  0  0  0  0  0  0  0
   39.8970   24.2920   43.0510 N   0  0  0  0  0  0  0  0  0  0  0  0
   40.1400   25.5330   43.5370 C   0  0  0  0  0  0  0  0  0  0  0  0
   39.3720   26.5700   43.1370 N   0  0  0  0  0  0  0  0  0  0  0  0
   38.6920   23.0580   41.7640 H   0  0  0  0  0  0  0  0  0  0  0  0
   40.9450   25.6820   44.2420 H   0  0  0  0  0  0  0  0  0  0  0  0
   36.1480   27.2520   43.6800 O   0  0  0  0  0  0  0  0  0  0  0  0
   36.8140   28.0630   43.0270 C   0  0  0  0  0  0  0  0  0  0  0  0
   37.5860   27.5460   41.8750 C   0  0  1  0  0  3  0  0  0  0  0  0
   38.5390   28.6350   41.4830 C   0  0  0  0  0  3  0  0  0  0  0  0
   39.5690   28.4610   41.9080 H   0  0  0  0  0  0  0  0  0  0  0  0
   37.9370   29.8970   42.0120 C   0  0  0  0  0  3  0  0  0  0  0  0
   38.7060   30.6100   42.4200 H   0  0  0  0  0  0  0  0  0  0  0  0
   37.0780   29.4530   43.0610 N   0  0  0  0  0  0  0  0  0  0  0  0
   36.6440   30.0450   43.8210 H   0  0  0  0  0  0  0  0  0  0  0  0
   37.0320   24.9800   40.8260 N   0  0  0  0  0  0  0  0  0  0  0  0
   37.0170   25.0690   39.7740 H   0  0  0  0  0  0  0  0  0  0  0  0
   36.2690   24.7950   41.5170 H   0  0  0  0  0  0  0  0  0  0  0  0
  1  6  1  0  0  0  0
  2  3  1  0  0  0  0
  2  1  2  0  0  0  0
  3  4  2  0  0  0  0
  4  5  1  0  0  0  0
  5  8  1  0  0  0  0
  6  5  2  0  0  0  0
  7  3  1  0  0  0  0
 10 16  1  0  0  0  0
 10  9  2  0  0  0  0
 11  1  1  1  0  0  0
 11 10  1  0  0  0  0
 12 11  1  0  0  0  0
 12 13  1  0  0  0  0
 12 14  1  0  0  0  0
 14 15  1  0  0  0  0
 14 16  1  0  0  0  0
 16 17  1  0  0  0  0
 18 20  1  0  0  0  0
 18  2  1  0  0  0  0
 19 18  1  0  0  0  0
M  END
>  <minimizedAffinity>
-4.03745413

$$$$

 OpenBabel03252501313D

 20 21  0  0  1  0  0  0  0  0999 V2000
   37.5840   29.0430   41.4360 C   0  0  0  0  0  0  0  0  0  0  0  0
   37.3430   27.7240   41.0510 C   0  0  0  0  0  0  0  0  0  0  0  0
   37.2720   26.7420   42.0410 C   0  0  0  0  0  0  0  0  0  0  0  0
   37.4420   27.1350   43.3160 N   0  0  0  0  0  0  0  0  0  0  0  0
   37.6770   28.4190   43.6790 C   0  0  0  0  0  0  0  0  0  0  0  0
   37.7490   29.3800   42.7320 N   0  0  0  0  0  0  0  0  0  0  0  0
   37.0860   25.7480   41.7090 H   0  0  0  0  0  0  0  0  0  0  0  0
   37.8050   28.6620   44.7240 H   0  0  0  0  0  0  0  0  0  0  0  0
   35.3650   30.2460   40.2430 O   0  0  0  0  0  0  0  0  0  0  0  0
   36.4010   30.9050   40.3900 C   0  0  0  0  0  0  0  0  0  0  0  0
   37.6790   30.1620   40.4710 C   0  0  1  0  0  3  0  0  0  0  0  0
   38.7010   31.1360   40.9740 C   0  0  0  0  0  3  0  0  0  0  0  0
   38.8750   31.0230   42.0830 H   0  0  0  0  0  0  0  0  0  0  0  0
   38.1570   32.4890   40.6440 C   0  0  0  0  0  3  0  0  0  0  0  0
   38.3550   33.2490   41.4500 H   0  0  0  0  0  0  0  0  0  0  0  0
   36.7520   32.2710   40.5150 N   0  0  0  0  0  0  0  0  0  0  0  0
   35.9930   33.0040   40.5050 H   0  0  0  0  0  0  0  0  0  0  0  0
   37.1870   27.5030   39.6500 N   0  0  0  0  0  0  0  0  0  0  0  0
   37.9010   27.2670   38.9100 H   0  0  0  0  0  0  0  0  0  0  0  0
   36.1520   27.6470   39.5950 H   0  0  0  0  0  0  0  0  0  0  0  0
  1  6  1  0  0  0  0
  2  1  2  0  0  0  0
  2  3  1  0  0  0  0
  3  4  2  0  0  0  0
  4  5  1  0  0  0  0
  5  8  1  0  0  0  0
  6  5  2  0  0  0  0
  7  3  1  0  0  0  0
  9 10  2  0  0  0  0
 10 11  1  0  0  0  0
 10 16  1  0  0  0  0
 11 12  1  0  0  0  0
 11  1  1  1  0  0  0
 12 13  1  0  0  0  0
 14 12  1  0  0  0  0
 14 15  1  0  0  0  0
 16 14  1  0  0  0  0
 17 16  1  0  0  0  0
 18  2  1  0  0  0  0
 19 18  1  0  0  0  0
 20 18  1  0  0  0  0
M  END
>  <minimizedAffinity>
-4.0336566

$$$$

 OpenBabel03252501313D

 20 21  0  0  1  0  0  0  0  0999 V2000
   37.6010   29.5030   40.6560 C   0  0  0  0  0  0  0  0  0  0  0  0
   36.5220   30.2960   40.2640 C   0  0  0  0  0  0  0  0  0  0  0  0
   36.2500   30.4250   38.9010 C   0  0  0  0  0  0  0  0  0  0  0  0
   37.0530   29.7700   38.0450 N   0  0  0  0  0  0  0  0  0  0  0  0
   38.0990   29.0020   38.4360 C   0  0  0  0  0  0  0  0  0  0  0  0
   38.3740   28.8670   39.7520 N   0  0  0  0  0  0  0  0  0  0  0  0
   35.4190   31.0380   38.6400 H   0  0  0  0  0  0  0  0  0  0  0  0
   38.7020   28.5040   37.6910 H   0  0  0  0  0  0  0  0  0  0  0  0
   36.2070   27.8240   42.3990 O   0  0  0  0  0  0  0  0  0  0  0  0
   37.4090   28.0350   42.5980 C   0  0  0  0  0  0  0  0  0  0  0  0
   37.9790   29.2960   42.0740 C   0  0  1  0  0  3  0  0  0  0  0  0
   39.4690   29.1480   42.1490 C   0  0  0  0  0  3  0  0  0  0  0  0
   39.9090   28.8490   41.1550 H   0  0  0  0  0  0  0  0  0  0  0  0
   39.7110   28.1020   43.1890 C   0  0  0  0  0  3  0  0  0  0  0  0
   40.5610   27.4130   42.9260 H   0  0  0  0  0  0  0  0  0  0  0  0
   38.4870   27.3700   43.2310 N   0  0  0  0  0  0  0  0  0  0  0  0
   38.3260   26.4250   43.6710 H   0  0  0  0  0  0  0  0  0  0  0  0
   35.7850   30.9120   41.3200 N   0  0  0  0  0  0  0  0  0  0  0  0
   35.9120   31.8480   41.7890 H   0  0  0  0  0  0  0  0  0  0  0  0
   35.0900   30.1460   41.4760 H   0  0  0  0  0  0  0  0  0  0  0  0
  2  1  1  0  0  0  0
  2 18  1  0  0  0  0
  3  2  2  0  0  0  0
  4  5  2  0  0  0  0
  4  3  1  0  0  0  0
  5  6  1  0  0  0  0
  6  1  2  0  0  0  0
  7  3  1  0  0  0  0
  8  5  1  0  0  0  0
  9 10  2  0  0  0  0
 10 16  1  0  0  0  0
 11  1  1  6  0  0  0
 11 12  1  0  0  0  0
 11 10  1  0  0  0  0
 12 14  1  0  0  0  0
 13 12  1  0  0  0  0
 14 16  1  0  0  0  0
 15 14  1  0  0  0  0
 16 17  1  0  0  0  0
 18 20  1  0  0  0  0
 18 19  1  0  0  0  0
M  END
>  <minimizedAffinity>
-3.96149039

$$$$
