
 OpenBabel03252500173D

 20 21  0  0  1  0  0  0  0  0999 V2000
   44.6570   36.0280   44.1910 C   0  0  0  0  0  0  0  0  0  0  0  0
   45.5630   35.6430   43.2030 C   0  0  0  0  0  0  0  0  0  0  0  0
   46.3600   34.5270   43.4830 C   0  0  0  0  0  0  0  0  0  0  0  0
   46.2190   33.8800   44.6810 N   0  0  0  0  0  0  0  0  0  0  0  0
   45.3240   34.3030   45.5960 C   0  0  0  0  0  0  0  0  0  0  0  0
   44.5320   35.3890   45.3480 N   0  0  0  0  0  0  0  0  0  0  0  0
   45.1590   33.6420   46.8520 N   0  0  0  0  0  0  0  0  0  0  0  0
   44.0290   36.8900   43.9960 H   0  0  0  0  0  0  0  0  0  0  0  0
   45.6880   36.1420   42.2510 H   0  0  0  0  0  0  0  0  0  0  0  0
   44.8870   32.6460   46.6770 H   0  0  0  0  0  0  0  0  0  0  0  0
   45.2840   34.0600   47.8060 H   0  0  0  0  0  0  0  0  0  0  0  0
   47.8190   31.8440   43.9140 O   0  0  0  0  0  0  0  0  0  0  0  0
   48.0450   32.8090   43.1180 C   0  0  0  0  0  0  0  0  0  0  0  0
   47.3680   33.9970   42.5350 C   0  0  2  0  0  3  0  0  0  0  0  0
   48.4950   34.9660   42.2910 C   0  0  0  0  0  3  0  0  0  0  0  0
   48.5760   35.7120   43.1230 H   0  0  0  0  0  0  0  0  0  0  0  0
   49.7470   34.1530   42.1590 C   0  0  0  0  0  3  0  0  0  0  0  0
   50.5540   34.4830   42.8560 H   0  0  0  0  0  0  0  0  0  0  0  0
   49.3750   32.8050   42.5650 N   0  0  0  0  0  0  0  0  0  0  0  0
   50.1120   32.0650   42.3970 H   0  0  0  0  0  0  0  0  0  0  0  0
  1  6  1  0  0  0  0
  2  3  1  0  0  0  0
  2  1  2  0  0  0  0
  3  4  2  0  0  0  0
  4  5  1  0  0  0  0
  5  7  1  0  0  0  0
  6  5  2  0  0  0  0
  7 11  1  0  0  0  0
  8  1  1  0  0  0  0
  9  2  1  0  0  0  0
 10  7  1  0  0  0  0
 13 12  2  0  0  0  0
 14 13  1  0  0  0  0
 14  3  1  1  0  0  0
 15 14  1  0  0  0  0
 15 16  1  0  0  0  0
 17 15  1  0  0  0  0
 17 19  1  0  0  0  0
 17 18  1  0  0  0  0
 19 13  1  0  0  0  0
 20 19  1  0  0  0  0
M  END
>  <minimizedAffinity>
-4.69911766

>  <minimizedRMSD>
0.329365343

$$$$
