
 OpenBabel03252500243D

 37 39  0  0  1  0  0  0  0  0999 V2000
   47.5380   30.0270   47.2050 C   0  0  2  0  0  0  0  0  0  0  0  0
   46.6770   30.7560   48.1640 C   0  0  2  0  0  0  0  0  0  0  0  0
   45.3760   30.0470   48.0790 C   0  0  0  0  0  0  0  0  0  0  0  0
   45.6340   28.7310   47.7460 O   0  0  0  0  0  0  0  0  0  0  0  0
   46.9450   28.6090   47.4170 C   0  0  0  0  0  0  0  0  0  0  0  0
   47.5120   30.1040   46.1600 H   0  0  0  0  0  0  0  0  0  0  0  0
   47.1500   30.5780   49.1640 H   0  0  0  0  0  0  0  0  0  0  0  0
   44.9800   29.9660   49.1390 H   0  0  0  0  0  0  0  0  0  0  0  0
   44.5500   30.5300   47.5650 H   0  0  0  0  0  0  0  0  0  0  0  0
   47.1780   27.9340   46.5980 H   0  0  0  0  0  0  0  0  0  0  0  0
   47.4730   28.1870   48.3160 H   0  0  0  0  0  0  0  0  0  0  0  0
   46.5840   32.1030   47.8980 O   0  0  0  0  0  0  0  0  0  0  0  0
   47.4340   32.3430   45.4870 O   0  0  0  0  0  0  0  0  0  0  0  0
   46.1710   32.3450   46.3070 P   0  0  1  0  0  0  0  0  0  0  0  0
   45.1870   31.0730   45.7740 O   0  0  0  0  0  0  0  0  0  0  0  0
   45.1790   30.9880   44.7990 H   0  0  0  0  0  0  0  0  0  0  0  0
   45.4060   33.8480   46.0450 O   0  0  0  0  0  0  0  0  0  0  0  0
   44.9230   36.2460   43.4420 C   0  0  0  0  0  0  0  0  0  0  0  0
   44.6750   35.4580   42.2860 C   0  0  0  0  0  0  0  0  0  0  0  0
   44.6870   34.0630   42.4620 C   0  0  0  0  0  0  0  0  0  0  0  0
   44.9270   33.5710   43.6990 N   0  0  0  0  0  0  0  0  0  0  0  0
   45.1570   34.3540   44.7670 C   0  0  0  0  0  0  0  0  0  0  0  0
   45.1520   35.6860   44.6300 N   0  0  0  0  0  0  0  0  0  0  0  0
   44.4880   35.9120   41.3170 H   0  0  0  0  0  0  0  0  0  0  0  0
   44.5040   33.4120   41.6140 H   0  0  0  0  0  0  0  0  0  0  0  0
   44.9110   37.6070   43.2720 O   0  0  0  0  0  0  0  0  0  0  0  0
   44.2380   38.0050   42.6260 H   0  0  0  0  0  0  0  0  0  0  0  0
   48.8760   30.0510   47.4860 O   0  0  0  0  0  0  0  0  0  0  0  0
   49.4410   30.3060   50.5250 O   0  0  0  0  0  0  0  0  0  0  0  0
   50.1090   29.8950   49.5160 C   0  0  0  0  0  0  0  0  0  0  0  0
   49.4550   29.2110   48.3430 C   0  0  2  0  0  3  0  0  0  0  0  0
   50.6990   28.6600   47.6780 C   0  0  0  0  0  3  0  0  0  0  0  0
   51.0010   27.6710   48.0500 H   0  0  0  0  0  0  0  0  0  0  0  0
   51.7540   29.7240   47.9750 C   0  0  0  0  0  3  0  0  0  0  0  0
   52.7420   29.2240   47.9040 H   0  0  0  0  0  0  0  0  0  0  0  0
   51.5210   30.0270   49.3760 N   0  0  0  0  0  0  0  0  0  0  0  0
   52.1400   30.2890   50.1750 H   0  0  0  0  0  0  0  0  0  0  0  0
  1  6  1  6  0  0  0
  1  5  1  0  0  0  0
  1 28  1  0  0  0  0
  1  2  1  0  0  0  0
  2  7  1  1  0  0  0
  3  2  1  0  0  0  0
  3  8  1  0  0  0  0
  4  3  1  0  0  0  0
  5  4  1  0  0  0  0
  5 11  1  0  0  0  0
  9  3  1  0  0  0  0
 10  5  1  0  0  0  0
 12  2  1  0  0  0  0
 14 13  2  6  0  0  0
 14 12  1  0  0  0  0
 15 14  1  0  0  0  0
 16 15  1  0  0  0  0
 17 14  1  0  0  0  0
 18 23  1  0  0  0  0
 19 20  1  0  0  0  0
 19 18  2  0  0  0  0
 20 21  2  0  0  0  0
 21 22  1  0  0  0  0
 22 17  1  0  0  0  0
 23 22  2  0  0  0  0
 24 19  1  0  0  0  0
 25 20  1  0  0  0  0
 26 18  1  0  0  0  0
 27 26  1  0  0  0  0
 30 29  2  0  0  0  0
 31 28  1  6  0  0  0
 31 30  1  0  0  0  0
 32 34  1  0  0  0  0
 32 33  1  0  0  0  0
 32 31  1  0  0  0  0
 34 36  1  0  0  0  0
 35 34  1  0  0  0  0
 36 30  1  0  0  0  0
 36 37  1  0  0  0  0
M  END
>  <minimizedAffinity>
-4.98747349

>  <minimizedRMSD>
1.77970088

$$$$
