
 OpenBabel03242515063D

 39 41  0  0  1  0  0  0  0  0999 V2000
   40.1450   30.8100   41.3880 C   0  0  0  0  0  0  0  0  0  0  0  0
   40.7800   31.7290   40.5510 C   0  0  0  0  0  0  0  0  0  0  0  0
   40.0110   32.3690   39.5650 C   0  0  0  0  0  0  0  0  0  0  0  0
   38.6880   32.0500   39.4860 N   0  0  0  0  0  0  0  0  0  0  0  0
   38.1000   31.1560   40.3100 C   0  0  0  0  0  0  0  0  0  0  0  0
   38.8370   30.5570   41.2400 N   0  0  0  0  0  0  0  0  0  0  0  0
   41.8270   32.0090   40.5820 H   0  0  0  0  0  0  0  0  0  0  0  0
   40.9170   31.4820   37.0410 O   0  0  0  0  0  0  0  0  0  0  0  0
   41.2330   32.6120   37.5020 C   0  0  0  0  0  0  0  0  0  0  0  0
   40.6020   33.3420   38.6530 C   0  0  2  0  0  3  0  0  0  0  0  0
   41.7440   34.1330   39.1890 C   0  0  0  0  0  3  0  0  0  0  0  0
   41.4170   35.0200   39.8060 H   0  0  0  0  0  0  0  0  0  0  0  0
   42.3970   34.6290   37.9040 C   0  0  0  0  0  3  0  0  0  0  0  0
   41.8760   35.5220   37.5070 H   0  0  0  0  0  0  0  0  0  0  0  0
   42.2800   33.4740   37.0350 N   0  0  0  0  0  0  0  0  0  0  0  0
   42.8540   33.2480   36.1720 H   0  0  0  0  0  0  0  0  0  0  0  0
   36.6890   30.9100   40.1190 C   0  0  0  0  0  0  0  0  0  0  0  0
   36.3080   30.6390   38.9450 O   0  0  0  0  0  0  0  0  0  0  0  0
   35.8440   30.9960   41.2910 N   0  0  0  0  0  0  0  0  0  0  0  0
   35.6750   30.0620   41.7570 H   0  0  0  0  0  0  0  0  0  0  0  0
   35.5280   31.9530   41.5070 H   0  0  0  0  0  0  0  0  0  0  0  0
   41.1820   30.0380   42.6170 S   0  0  0  0  0  0  0  0  0  0  0  0
   41.2190   28.2410   42.4560 C   0  0  0  0  0  0  0  0  0  0  0  0
   40.8380   27.9540   41.4540 H   0  0  0  0  0  0  0  0  0  0  0  0
   42.2810   27.9080   42.5430 H   0  0  0  0  0  0  0  0  0  0  0  0
   40.4250   27.5260   43.5010 C   0  0  0  0  0  0  0  0  0  0  0  0
   39.9970   28.1780   44.2810 H   0  0  0  0  0  0  0  0  0  0  0  0
   41.1260   26.8170   44.0080 H   0  0  0  0  0  0  0  0  0  0  0  0
   37.5350   28.4430   43.7570 Cl  0  0  0  0  0  0  0  0  0  0  0  0
   38.0330   26.9900   42.9490 C   0  0  0  0  0  0  0  0  0  0  0  0
   39.3790   26.6630   42.8890 C   0  0  0  0  0  0  0  0  0  0  0  0
   39.6950   25.4920   42.2290 C   0  0  0  0  0  0  0  0  0  0  0  0
   38.8040   24.6180   41.6260 C   0  0  0  0  0  0  0  0  0  0  0  0
   37.4780   24.9630   41.6980 C   0  0  0  0  0  0  0  0  0  0  0  0
   36.2630   23.9300   40.9690 Cl  0  0  0  0  0  0  0  0  0  0  0  0
   37.1000   26.1280   42.3490 C   0  0  0  0  0  0  0  0  0  0  0  0
   40.7510   25.2430   42.1870 H   0  0  0  0  0  0  0  0  0  0  0  0
   39.1640   23.7250   41.1340 H   0  0  0  0  0  0  0  0  0  0  0  0
   36.0460   26.3870   42.3970 H   0  0  0  0  0  0  0  0  0  0  0  0
  1 22  1  0  0  0  0
  2  7  1  0  0  0  0
  2  1  2  0  0  0  0
  3  2  1  0  0  0  0
  4  3  2  0  0  0  0
  4  5  1  0  0  0  0
  5  6  2  0  0  0  0
  6  1  1  0  0  0  0
  8  9  2  0  0  0  0
  9 10  1  0  0  0  0
 10 11  1  0  0  0  0
 10  3  1  1  0  0  0
 11 12  1  0  0  0  0
 13 11  1  0  0  0  0
 14 13  1  0  0  0  0
 15  9  1  0  0  0  0
 15 13  1  0  0  0  0
 16 15  1  0  0  0  0
 17  5  1  0  0  0  0
 17 19  1  0  0  0  0
 18 17  2  0  0  0  0
 19 21  1  0  0  0  0
 19 20  1  0  0  0  0
 23 25  1  0  0  0  0
 23 22  1  0  0  0  0
 23 26  1  0  0  0  0
 24 23  1  0  0  0  0
 26 28  1  0  0  0  0
 26 27  1  0  0  0  0
 30 29  1  0  0  0  0
 31 30  1  0  0  0  0
 31 26  1  0  0  0  0
 32 31  2  0  0  0  0
 33 34  2  0  0  0  0
 33 32  1  0  0  0  0
 34 36  1  0  0  0  0
 35 34  1  0  0  0  0
 36 39  1  0  0  0  0
 36 30  2  0  0  0  0
 37 32  1  0  0  0  0
 38 33  1  0  0  0  0
M  END
>  <minimizedAffinity>
-6.29901361

$$$$

 OpenBabel03242515063D

 39 41  0  0  1  0  0  0  0  0999 V2000
   40.0840   31.2420   41.6120 C   0  0  0  0  0  0  0  0  0  0  0  0
   41.3690   31.4270   41.1000 C   0  0  0  0  0  0  0  0  0  0  0  0
   41.5910   32.5200   40.2460 C   0  0  0  0  0  0  0  0  0  0  0  0
   40.5320   33.3340   39.9700 N   0  0  0  0  0  0  0  0  0  0  0  0
   39.2990   33.1300   40.4800 C   0  0  0  0  0  0  0  0  0  0  0  0
   39.1010   32.0920   41.2870 N   0  0  0  0  0  0  0  0  0  0  0  0
   42.2350   30.8040   41.2950 H   0  0  0  0  0  0  0  0  0  0  0  0
   43.3090   34.3320   41.5660 O   0  0  0  0  0  0  0  0  0  0  0  0
   43.5280   33.9470   40.3850 C   0  0  0  0  0  0  0  0  0  0  0  0
   42.9050   32.7820   39.6710 C   0  0  2  0  0  3  0  0  0  0  0  0
   42.9210   33.2360   38.2530 C   0  0  0  0  0  3  0  0  0  0  0  0
   42.8490   32.3870   37.5150 H   0  0  0  0  0  0  0  0  0  0  0  0
   44.3040   33.8710   38.1550 C   0  0  0  0  0  3  0  0  0  0  0  0
   45.0860   33.1050   37.9890 H   0  0  0  0  0  0  0  0  0  0  0  0
   44.4270   34.5370   39.4370 N   0  0  0  0  0  0  0  0  0  0  0  0
   45.0680   35.3420   39.6930 H   0  0  0  0  0  0  0  0  0  0  0  0
   38.2650   34.0680   40.1070 C   0  0  0  0  0  0  0  0  0  0  0  0
   38.5990   35.2840   40.0230 O   0  0  0  0  0  0  0  0  0  0  0  0
   36.9450   33.5270   39.8650 N   0  0  0  0  0  0  0  0  0  0  0  0
   36.7570   33.3190   38.8460 H   0  0  0  0  0  0  0  0  0  0  0  0
   36.3760   33.4210   40.7180 H   0  0  0  0  0  0  0  0  0  0  0  0
   39.8770   29.8340   42.6890 S   0  0  0  0  0  0  0  0  0  0  0  0
   38.2190   29.1290   42.5880 C   0  0  0  0  0  0  0  0  0  0  0  0
   37.4700   29.9240   42.7800 H   0  0  0  0  0  0  0  0  0  0  0  0
   38.0720   28.7400   41.5520 H   0  0  0  0  0  0  0  0  0  0  0  0
   37.9860   28.0010   43.5400 C   0  0  0  0  0  0  0  0  0  0  0  0
   37.0570   28.0790   44.1290 H   0  0  0  0  0  0  0  0  0  0  0  0
   38.8400   28.0080   44.2620 H   0  0  0  0  0  0  0  0  0  0  0  0
   40.4980   26.3480   44.0060 Cl  0  0  0  0  0  0  0  0  0  0  0  0
   39.1760   25.8550   42.9950 C   0  0  0  0  0  0  0  0  0  0  0  0
   38.0750   26.6850   42.8500 C   0  0  0  0  0  0  0  0  0  0  0  0
   37.0650   26.2230   42.0290 C   0  0  0  0  0  0  0  0  0  0  0  0
   37.0460   25.0200   41.3410 C   0  0  0  0  0  0  0  0  0  0  0  0
   38.1460   24.2160   41.5010 C   0  0  0  0  0  0  0  0  0  0  0  0
   38.2290   22.6700   40.6780 Cl  0  0  0  0  0  0  0  0  0  0  0  0
   39.1930   24.6270   42.3120 C   0  0  0  0  0  0  0  0  0  0  0  0
   36.2060   26.8790   41.9210 H   0  0  0  0  0  0  0  0  0  0  0  0
   36.1980   24.7580   40.7240 H   0  0  0  0  0  0  0  0  0  0  0  0
   40.0570   23.9790   42.4290 H   0  0  0  0  0  0  0  0  0  0  0  0
  1 22  1  0  0  0  0
  2  7  1  0  0  0  0
  2  1  2  0  0  0  0
  3  2  1  0  0  0  0
  4  3  2  0  0  0  0
  4  5  1  0  0  0  0
  5  6  2  0  0  0  0
  6  1  1  0  0  0  0
  9  8  2  0  0  0  0
 10  3  1  1  0  0  0
 10  9  1  0  0  0  0
 11 10  1  0  0  0  0
 12 11  1  0  0  0  0
 13 11  1  0  0  0  0
 13 15  1  0  0  0  0
 14 13  1  0  0  0  0
 15 16  1  0  0  0  0
 15  9  1  0  0  0  0
 17  5  1  0  0  0  0
 18 17  2  0  0  0  0
 19 17  1  0  0  0  0
 19 21  1  0  0  0  0
 20 19  1  0  0  0  0
 23 22  1  0  0  0  0
 23 24  1  0  0  0  0
 23 26  1  0  0  0  0
 25 23  1  0  0  0  0
 26 27  1  0  0  0  0
 26 28  1  0  0  0  0
 30 29  1  0  0  0  0
 31 30  1  0  0  0  0
 31 26  1  0  0  0  0
 32 31  2  0  0  0  0
 33 34  2  0  0  0  0
 33 32  1  0  0  0  0
 34 36  1  0  0  0  0
 35 34  1  0  0  0  0
 36 39  1  0  0  0  0
 36 30  2  0  0  0  0
 37 32  1  0  0  0  0
 38 33  1  0  0  0  0
M  END
>  <minimizedAffinity>
-6.28649282

$$$$

 OpenBabel03242515063D

 39 41  0  0  1  0  0  0  0  0999 V2000
   37.1720   27.0030   38.9860 C   0  0  0  0  0  0  0  0  0  0  0  0
   37.7280   28.2390   39.3210 C   0  0  0  0  0  0  0  0  0  0  0  0
   36.9770   29.3960   39.0550 C   0  0  0  0  0  0  0  0  0  0  0  0
   35.7490   29.2380   38.4830 N   0  0  0  0  0  0  0  0  0  0  0  0
   35.2380   28.0290   38.1700 C   0  0  0  0  0  0  0  0  0  0  0  0
   35.9570   26.9410   38.4270 N   0  0  0  0  0  0  0  0  0  0  0  0
   38.6980   28.4050   39.7760 H   0  0  0  0  0  0  0  0  0  0  0  0
   36.1840   30.6000   41.4840 O   0  0  0  0  0  0  0  0  0  0  0  0
   36.7430   31.2590   40.5660 C   0  0  0  0  0  0  0  0  0  0  0  0
   37.4870   30.7240   39.3760 C   0  0  2  0  0  3  0  0  0  0  0  0
   37.2510   31.7810   38.3540 C   0  0  0  0  0  3  0  0  0  0  0  0
   38.0120   31.7710   37.5220 H   0  0  0  0  0  0  0  0  0  0  0  0
   37.4310   33.0480   39.1840 C   0  0  0  0  0  3  0  0  0  0  0  0
   38.5020   33.3040   39.2990 H   0  0  0  0  0  0  0  0  0  0  0  0
   36.7980   32.6860   40.4380 N   0  0  0  0  0  0  0  0  0  0  0  0
   36.4150   33.3350   41.1840 H   0  0  0  0  0  0  0  0  0  0  0  0
   33.9240   28.0020   37.5680 C   0  0  0  0  0  0  0  0  0  0  0  0
   33.2990   29.0990   37.5090 O   0  0  0  0  0  0  0  0  0  0  0  0
   33.4480   26.7220   37.0890 N   0  0  0  0  0  0  0  0  0  0  0  0
   33.6340   26.5620   36.0610 H   0  0  0  0  0  0  0  0  0  0  0  0
   32.9970   26.1480   37.8160 H   0  0  0  0  0  0  0  0  0  0  0  0
   38.1810   25.5780   39.3530 S   0  0  0  0  0  0  0  0  0  0  0  0
   37.2760   24.3080   40.2610 C   0  0  0  0  0  0  0  0  0  0  0  0
   36.3580   24.0390   39.6990 H   0  0  0  0  0  0  0  0  0  0  0  0
   37.9280   23.4050   40.3350 H   0  0  0  0  0  0  0  0  0  0  0  0
   36.8950   24.7150   41.6480 C   0  0  0  0  0  0  0  0  0  0  0  0
   36.3990   23.9280   42.2400 H   0  0  0  0  0  0  0  0  0  0  0  0
   36.1730   25.5630   41.5470 H   0  0  0  0  0  0  0  0  0  0  0  0
   36.6070   27.5400   42.7410 Cl  0  0  0  0  0  0  0  0  0  0  0  0
   38.0300   26.5630   42.9180 C   0  0  0  0  0  0  0  0  0  0  0  0
   38.0590   25.2850   42.3810 C   0  0  0  0  0  0  0  0  0  0  0  0
   39.2260   24.5700   42.5640 C   0  0  0  0  0  0  0  0  0  0  0  0
   40.3630   25.0030   43.2270 C   0  0  0  0  0  0  0  0  0  0  0  0
   40.3120   26.2700   43.7500 C   0  0  0  0  0  0  0  0  0  0  0  0
   41.6940   26.9200   44.6100 Cl  0  0  0  0  0  0  0  0  0  0  0  0
   39.1660   27.0360   43.5970 C   0  0  0  0  0  0  0  0  0  0  0  0
   39.2400   23.5700   42.1400 H   0  0  0  0  0  0  0  0  0  0  0  0
   41.2250   24.3550   43.3110 H   0  0  0  0  0  0  0  0  0  0  0  0
   39.1400   28.0380   44.0180 H   0  0  0  0  0  0  0  0  0  0  0  0
  1  2  1  0  0  0  0
  1 22  1  0  0  0  0
  2  7  1  0  0  0  0
  3  2  2  0  0  0  0
  4  3  1  0  0  0  0
  5  6  1  0  0  0  0
  5  4  2  0  0  0  0
  6  1  2  0  0  0  0
  9  8  2  0  0  0  0
 10  3  1  6  0  0  0
 10  9  1  0  0  0  0
 11 13  1  0  0  0  0
 11 10  1  0  0  0  0
 12 11  1  0  0  0  0
 13 14  1  0  0  0  0
 13 15  1  0  0  0  0
 15  9  1  0  0  0  0
 15 16  1  0  0  0  0
 17  5  1  0  0  0  0
 18 17  2  0  0  0  0
 19 17  1  0  0  0  0
 19 21  1  0  0  0  0
 20 19  1  0  0  0  0
 22 23  1  0  0  0  0
 23 25  1  0  0  0  0
 23 26  1  0  0  0  0
 24 23  1  0  0  0  0
 26 27  1  0  0  0  0
 26 31  1  0  0  0  0
 28 26  1  0  0  0  0
 29 30  1  0  0  0  0
 30 36  1  0  0  0  0
 31 32  1  0  0  0  0
 31 30  2  0  0  0  0
 32 33  2  0  0  0  0
 33 38  1  0  0  0  0
 33 34  1  0  0  0  0
 34 35  1  0  0  0  0
 36 34  2  0  0  0  0
 36 39  1  0  0  0  0
 37 32  1  0  0  0  0
M  END
>  <minimizedAffinity>
-6.27479649

$$$$

 OpenBabel03242515063D

 39 41  0  0  1  0  0  0  0  0999 V2000
   36.6530   28.6690   38.8450 C   0  0  0  0  0  0  0  0  0  0  0  0
   37.0910   29.9400   39.2220 C   0  0  0  0  0  0  0  0  0  0  0  0
   37.1820   30.9300   38.2310 C   0  0  0  0  0  0  0  0  0  0  0  0
   36.8370   30.5870   36.9570 N   0  0  0  0  0  0  0  0  0  0  0  0
   36.4170   29.3490   36.6210 C   0  0  0  0  0  0  0  0  0  0  0  0
   36.3340   28.4190   37.5680 N   0  0  0  0  0  0  0  0  0  0  0  0
   37.3730   30.2510   40.2220 H   0  0  0  0  0  0  0  0  0  0  0  0
   39.8970   31.5880   37.8150 O   0  0  0  0  0  0  0  0  0  0  0  0
   39.1300   32.3250   38.4930 C   0  0  0  0  0  0  0  0  0  0  0  0
   37.6300   32.2820   38.5460 C   0  0  2  0  0  3  0  0  0  0  0  0
   37.3500   32.7590   39.9290 C   0  0  0  0  0  3  0  0  0  0  0  0
   36.3020   33.1560   40.0570 H   0  0  0  0  0  0  0  0  0  0  0  0
   38.3420   33.9100   40.0570 C   0  0  0  0  0  3  0  0  0  0  0  0
   37.9500   34.8320   39.5870 H   0  0  0  0  0  0  0  0  0  0  0  0
   39.5120   33.3840   39.3810 N   0  0  0  0  0  0  0  0  0  0  0  0
   40.5200   33.6950   39.4870 H   0  0  0  0  0  0  0  0  0  0  0  0
   36.0820   29.1180   35.2340 C   0  0  0  0  0  0  0  0  0  0  0  0
   34.8580   29.1730   34.9240 O   0  0  0  0  0  0  0  0  0  0  0  0
   37.1790   28.8450   34.3310 N   0  0  0  0  0  0  0  0  0  0  0  0
   37.5330   29.7060   33.8290 H   0  0  0  0  0  0  0  0  0  0  0  0
   37.4610   27.8550   34.3060 H   0  0  0  0  0  0  0  0  0  0  0  0
   36.5610   27.4620   40.1550 S   0  0  0  0  0  0  0  0  0  0  0  0
   36.5630   28.2210   41.7920 C   0  0  0  0  0  0  0  0  0  0  0  0
   37.3850   28.9650   41.8510 H   0  0  0  0  0  0  0  0  0  0  0  0
   35.5900   28.7520   41.9270 H   0  0  0  0  0  0  0  0  0  0  0  0
   36.7120   27.2420   42.9100 C   0  0  0  0  0  0  0  0  0  0  0  0
   35.9880   26.4100   42.8940 H   0  0  0  0  0  0  0  0  0  0  0  0
   36.5460   27.8100   43.8590 H   0  0  0  0  0  0  0  0  0  0  0  0
   37.2080   24.3560   42.0840 Cl  0  0  0  0  0  0  0  0  0  0  0  0
   38.4410   25.4370   42.6500 C   0  0  0  0  0  0  0  0  0  0  0  0
   38.1090   26.7360   43.0030 C   0  0  0  0  0  0  0  0  0  0  0  0
   39.1460   27.5340   43.4440 C   0  0  0  0  0  0  0  0  0  0  0  0
   40.4760   27.1660   43.5680 C   0  0  0  0  0  0  0  0  0  0  0  0
   40.7810   25.8760   43.2130 C   0  0  0  0  0  0  0  0  0  0  0  0
   42.4330   25.3020   43.3300 Cl  0  0  0  0  0  0  0  0  0  0  0  0
   39.7810   25.0270   42.7640 C   0  0  0  0  0  0  0  0  0  0  0  0
   38.8770   28.5500   43.7180 H   0  0  0  0  0  0  0  0  0  0  0  0
   41.2080   27.8770   43.9250 H   0  0  0  0  0  0  0  0  0  0  0  0
   40.0380   24.0080   42.4860 H   0  0  0  0  0  0  0  0  0  0  0  0
  1  2  1  0  0  0  0
  1 22  1  0  0  0  0
  2  7  1  0  0  0  0
  3  2  2  0  0  0  0
  4  3  1  0  0  0  0
  5  4  2  0  0  0  0
  5  6  1  0  0  0  0
  6  1  2  0  0  0  0
  8  9  2  0  0  0  0
  9 10  1  0  0  0  0
  9 15  1  0  0  0  0
 10  3  1  1  0  0  0
 10 11  1  0  0  0  0
 11 13  1  0  0  0  0
 11 12  1  0  0  0  0
 14 13  1  0  0  0  0
 15 16  1  0  0  0  0
 15 13  1  0  0  0  0
 17  5  1  0  0  0  0
 18 17  2  0  0  0  0
 19 17  1  0  0  0  0
 20 19  1  0  0  0  0
 21 19  1  0  0  0  0
 22 23  1  0  0  0  0
 23 24  1  0  0  0  0
 23 25  1  0  0  0  0
 23 26  1  0  0  0  0
 26 31  1  0  0  0  0
 26 28  1  0  0  0  0
 27 26  1  0  0  0  0
 29 30  1  0  0  0  0
 30 36  2  0  0  0  0
 30 31  1  0  0  0  0
 31 32  2  0  0  0  0
 32 33  1  0  0  0  0
 32 37  1  0  0  0  0
 33 38  1  0  0  0  0
 34 35  1  0  0  0  0
 34 33  2  0  0  0  0
 36 34  1  0  0  0  0
 39 36  1  0  0  0  0
M  END
>  <minimizedAffinity>
-6.22890139

$$$$

 OpenBabel03242515063D

 39 41  0  0  1  0  0  0  0  0999 V2000
   40.2740   30.7230   39.2270 C   0  0  0  0  0  0  0  0  0  0  0  0
   38.9830   30.2270   39.0320 C   0  0  0  0  0  0  0  0  0  0  0  0
   37.9020   31.1010   39.2290 C   0  0  0  0  0  0  0  0  0  0  0  0
   38.1810   32.3820   39.6020 N   0  0  0  0  0  0  0  0  0  0  0  0
   39.4400   32.8340   39.7830 C   0  0  0  0  0  0  0  0  0  0  0  0
   40.4560   31.9980   39.5930 N   0  0  0  0  0  0  0  0  0  0  0  0
   38.7210   29.2180   38.7360 H   0  0  0  0  0  0  0  0  0  0  0  0
   36.2020   30.9870   41.4830 O   0  0  0  0  0  0  0  0  0  0  0  0
   35.8980   30.4350   40.3910 C   0  0  0  0  0  0  0  0  0  0  0  0
   36.5240   30.6590   39.0450 C   0  0  2  0  0  3  0  0  0  0  0  0
   36.3440   29.3340   38.3880 C   0  0  0  0  0  3  0  0  0  0  0  0
   36.4000   29.3850   37.2630 H   0  0  0  0  0  0  0  0  0  0  0  0
   34.9190   28.9830   38.8040 C   0  0  0  0  0  3  0  0  0  0  0  0
   34.1760   29.4820   38.1530 H   0  0  0  0  0  0  0  0  0  0  0  0
   34.8750   29.4530   40.1760 N   0  0  0  0  0  0  0  0  0  0  0  0
   34.2110   29.1520   40.9450 H   0  0  0  0  0  0  0  0  0  0  0  0
   39.5960   34.2150   40.1780 C   0  0  0  0  0  0  0  0  0  0  0  0
   40.4060   34.9150   39.5060 O   0  0  0  0  0  0  0  0  0  0  0  0
   38.8120   34.6680   41.3070 N   0  0  0  0  0  0  0  0  0  0  0  0
   37.9000   35.1250   41.0290 H   0  0  0  0  0  0  0  0  0  0  0  0
   39.2500   34.4800   42.2210 H   0  0  0  0  0  0  0  0  0  0  0  0
   41.5980   29.5580   38.9570 S   0  0  0  0  0  0  0  0  0  0  0  0
   41.6560   28.2760   40.2250 C   0  0  0  0  0  0  0  0  0  0  0  0
   40.8480   27.5390   40.0400 H   0  0  0  0  0  0  0  0  0  0  0  0
   42.6410   27.7550   40.1450 H   0  0  0  0  0  0  0  0  0  0  0  0
   41.5260   28.8010   41.6190 C   0  0  0  0  0  0  0  0  0  0  0  0
   41.7490   29.8750   41.7300 H   0  0  0  0  0  0  0  0  0  0  0  0
   42.2650   28.2410   42.2430 H   0  0  0  0  0  0  0  0  0  0  0  0
   39.9210   31.0810   42.8370 Cl  0  0  0  0  0  0  0  0  0  0  0  0
   39.3870   29.4300   42.7790 C   0  0  0  0  0  0  0  0  0  0  0  0
   40.1970   28.4650   42.2000 C   0  0  0  0  0  0  0  0  0  0  0  0
   39.7030   27.1760   42.1920 C   0  0  0  0  0  0  0  0  0  0  0  0
   38.4860   26.7550   42.7040 C   0  0  0  0  0  0  0  0  0  0  0  0
   37.7010   27.7280   43.2720 C   0  0  0  0  0  0  0  0  0  0  0  0
   36.1400   27.3090   43.9500 Cl  0  0  0  0  0  0  0  0  0  0  0  0
   38.1460   29.0410   43.3090 C   0  0  0  0  0  0  0  0  0  0  0  0
   40.3440   26.4260   41.7370 H   0  0  0  0  0  0  0  0  0  0  0  0
   38.1980   25.7150   42.6430 H   0  0  0  0  0  0  0  0  0  0  0  0
   37.5130   29.8000   43.7610 H   0  0  0  0  0  0  0  0  0  0  0  0
  1  6  1  0  0  0  0
  2  1  2  0  0  0  0
  2  3  1  0  0  0  0
  3  4  2  0  0  0  0
  4  5  1  0  0  0  0
  5 17  1  0  0  0  0
  6  5  2  0  0  0  0
  7  2  1  0  0  0  0
  9  8  2  0  0  0  0
 10  3  1  1  0  0  0
 10  9  1  0  0  0  0
 11 13  1  0  0  0  0
 11 10  1  0  0  0  0
 12 11  1  0  0  0  0
 13 15  1  0  0  0  0
 14 13  1  0  0  0  0
 15  9  1  0  0  0  0
 15 16  1  0  0  0  0
 17 19  1  0  0  0  0
 18 17  2  0  0  0  0
 19 21  1  0  0  0  0
 20 19  1  0  0  0  0
 22  1  1  0  0  0  0
 22 23  1  0  0  0  0
 23 26  1  0  0  0  0
 24 23  1  0  0  0  0
 25 23  1  0  0  0  0
 26 27  1  0  0  0  0
 26 31  1  0  0  0  0
 26 28  1  0  0  0  0
 30 29  1  0  0  0  0
 30 36  1  0  0  0  0
 31 30  2  0  0  0  0
 32 31  1  0  0  0  0
 32 33  2  0  0  0  0
 33 34  1  0  0  0  0
 34 36  2  0  0  0  0
 34 35  1  0  0  0  0
 36 39  1  0  0  0  0
 37 32  1  0  0  0  0
 38 33  1  0  0  0  0
M  END
>  <minimizedAffinity>
-6.19511318

$$$$

 OpenBabel03242515063D

 39 41  0  0  1  0  0  0  0  0999 V2000
   39.1290   30.4420   40.7650 C   0  0  0  0  0  0  0  0  0  0  0  0
   38.3720   29.6730   39.8790 C   0  0  0  0  0  0  0  0  0  0  0  0
   38.3900   30.0200   38.5190 C   0  0  0  0  0  0  0  0  0  0  0  0
   39.1480   31.0910   38.1460 N   0  0  0  0  0  0  0  0  0  0  0  0
   39.8700   31.8160   39.0260 C   0  0  0  0  0  0  0  0  0  0  0  0
   39.8460   31.4790   40.3110 N   0  0  0  0  0  0  0  0  0  0  0  0
   37.7590   28.8170   40.1360 H   0  0  0  0  0  0  0  0  0  0  0  0
   39.7170   28.0390   37.0060 O   0  0  0  0  0  0  0  0  0  0  0  0
   38.5750   28.4660   36.6860 C   0  0  0  0  0  0  0  0  0  0  0  0
   37.6260   29.2650   37.5310 C   0  0  2  0  0  3  0  0  0  0  0  0
   36.8970   30.0710   36.5120 C   0  0  0  0  0  3  0  0  0  0  0  0
   35.9020   30.4540   36.8800 H   0  0  0  0  0  0  0  0  0  0  0  0
   36.6620   29.0330   35.4200 C   0  0  0  0  0  3  0  0  0  0  0  0
   35.7820   28.4010   35.6490 H   0  0  0  0  0  0  0  0  0  0  0  0
   37.9090   28.2910   35.4280 N   0  0  0  0  0  0  0  0  0  0  0  0
   38.3160   27.6940   34.6520 H   0  0  0  0  0  0  0  0  0  0  0  0
   40.6310   32.9270   38.4990 C   0  0  0  0  0  0  0  0  0  0  0  0
   40.9670   33.8300   39.3170 O   0  0  0  0  0  0  0  0  0  0  0  0
   40.9360   32.9010   37.0850 N   0  0  0  0  0  0  0  0  0  0  0  0
   41.8850   32.4890   36.8670 H   0  0  0  0  0  0  0  0  0  0  0  0
   40.1870   33.2850   36.4910 H   0  0  0  0  0  0  0  0  0  0  0  0
   39.0600   29.9440   42.4760 S   0  0  0  0  0  0  0  0  0  0  0  0
   37.5450   29.0460   42.8710 C   0  0  0  0  0  0  0  0  0  0  0  0
   36.8180   29.7410   43.3390 H   0  0  0  0  0  0  0  0  0  0  0  0
   37.1110   28.6640   41.9150 H   0  0  0  0  0  0  0  0  0  0  0  0
   37.7560   27.8780   43.7790 C   0  0  0  0  0  0  0  0  0  0  0  0
   36.9820   27.7510   44.5540 H   0  0  0  0  0  0  0  0  0  0  0  0
   38.7290   28.0510   44.3030 H   0  0  0  0  0  0  0  0  0  0  0  0
   40.4500   26.4870   44.0380 Cl  0  0  0  0  0  0  0  0  0  0  0  0
   39.1410   25.9110   43.0530 C   0  0  0  0  0  0  0  0  0  0  0  0
   37.9520   26.6220   43.0050 C   0  0  0  0  0  0  0  0  0  0  0  0
   36.9600   26.0990   42.2000 C   0  0  0  0  0  0  0  0  0  0  0  0
   37.0360   24.9430   41.4400 C   0  0  0  0  0  0  0  0  0  0  0  0
   38.2230   24.2560   41.5040 C   0  0  0  0  0  0  0  0  0  0  0  0
   38.4310   22.7780   40.5850 Cl  0  0  0  0  0  0  0  0  0  0  0  0
   39.2570   24.7330   42.2960 C   0  0  0  0  0  0  0  0  0  0  0  0
   36.0310   26.6620   42.1670 H   0  0  0  0  0  0  0  0  0  0  0  0
   36.1930   24.6250   40.8430 H   0  0  0  0  0  0  0  0  0  0  0  0
   40.1900   24.1780   42.3370 H   0  0  0  0  0  0  0  0  0  0  0  0
  1 22  1  0  0  0  0
  2  7  1  0  0  0  0
  2  1  2  0  0  0  0
  3  2  1  0  0  0  0
  4  3  2  0  0  0  0
  4  5  1  0  0  0  0
  5  6  2  0  0  0  0
  6  1  1  0  0  0  0
  9  8  2  0  0  0  0
  9 10  1  0  0  0  0
 10  3  1  1  0  0  0
 11 12  1  0  0  0  0
 11 10  1  0  0  0  0
 13 15  1  0  0  0  0
 13 14  1  0  0  0  0
 13 11  1  0  0  0  0
 15  9  1  0  0  0  0
 16 15  1  0  0  0  0
 17  5  1  0  0  0  0
 17 18  2  0  0  0  0
 19 17  1  0  0  0  0
 20 19  1  0  0  0  0
 21 19  1  0  0  0  0
 22 23  1  0  0  0  0
 23 24  1  0  0  0  0
 23 26  1  0  0  0  0
 25 23  1  0  0  0  0
 26 28  1  0  0  0  0
 26 27  1  0  0  0  0
 30 29  1  0  0  0  0
 31 30  1  0  0  0  0
 31 26  1  0  0  0  0
 32 31  2  0  0  0  0
 33 34  2  0  0  0  0
 33 32  1  0  0  0  0
 34 36  1  0  0  0  0
 35 34  1  0  0  0  0
 36 39  1  0  0  0  0
 36 30  2  0  0  0  0
 37 32  1  0  0  0  0
 38 33  1  0  0  0  0
M  END
>  <minimizedAffinity>
-6.06139469

$$$$

 OpenBabel03242515063D

 39 41  0  0  1  0  0  0  0  0999 V2000
   36.8860   27.0330   39.2270 C   0  0  0  0  0  0  0  0  0  0  0  0
   37.4970   28.2500   39.5330 C   0  0  0  0  0  0  0  0  0  0  0  0
   36.8700   29.4320   39.1060 C   0  0  0  0  0  0  0  0  0  0  0  0
   35.7000   29.3160   38.4160 N   0  0  0  0  0  0  0  0  0  0  0  0
   35.1320   28.1240   38.1340 C   0  0  0  0  0  0  0  0  0  0  0  0
   35.7340   27.0120   38.5440 N   0  0  0  0  0  0  0  0  0  0  0  0
   38.4250   28.3840   40.0790 H   0  0  0  0  0  0  0  0  0  0  0  0
   36.0260   30.8130   41.4210 O   0  0  0  0  0  0  0  0  0  0  0  0
   36.6740   31.3860   40.5030 C   0  0  0  0  0  0  0  0  0  0  0  0
   37.4460   30.7430   39.3870 C   0  0  2  0  0  3  0  0  0  0  0  0
   37.3320   31.7550   38.3010 C   0  0  0  0  0  3  0  0  0  0  0  0
   38.1340   31.6530   37.5150 H   0  0  0  0  0  0  0  0  0  0  0  0
   37.5470   33.0520   39.0730 C   0  0  0  0  0  3  0  0  0  0  0  0
   38.6240   33.2480   39.2360 H   0  0  0  0  0  0  0  0  0  0  0  0
   36.8260   32.7980   40.3060 N   0  0  0  0  0  0  0  0  0  0  0  0
   36.4460   33.5080   40.9950 H   0  0  0  0  0  0  0  0  0  0  0  0
   33.8900   28.1420   37.3950 C   0  0  0  0  0  0  0  0  0  0  0  0
   33.4170   29.2750   37.0990 O   0  0  0  0  0  0  0  0  0  0  0  0
   33.3050   26.8600   37.0650 N   0  0  0  0  0  0  0  0  0  0  0  0
   33.5680   26.5140   36.1010 H   0  0  0  0  0  0  0  0  0  0  0  0
   32.7170   26.4660   37.8140 H   0  0  0  0  0  0  0  0  0  0  0  0
   37.7370   25.5740   39.8020 S   0  0  0  0  0  0  0  0  0  0  0  0
   37.2100   25.0750   41.4530 C   0  0  0  0  0  0  0  0  0  0  0  0
   36.2870   25.6260   41.7270 H   0  0  0  0  0  0  0  0  0  0  0  0
   36.9800   23.9820   41.4270 H   0  0  0  0  0  0  0  0  0  0  0  0
   38.2430   25.3010   42.5090 C   0  0  0  0  0  0  0  0  0  0  0  0
   39.1330   24.6540   42.4310 H   0  0  0  0  0  0  0  0  0  0  0  0
   37.7540   25.0780   43.4900 H   0  0  0  0  0  0  0  0  0  0  0  0
   36.2460   27.2140   43.7790 Cl  0  0  0  0  0  0  0  0  0  0  0  0
   37.7910   27.6900   43.1480 C   0  0  0  0  0  0  0  0  0  0  0  0
   38.6290   26.7370   42.5880 C   0  0  0  0  0  0  0  0  0  0  0  0
   39.8400   27.1940   42.1080 C   0  0  0  0  0  0  0  0  0  0  0  0
   40.2970   28.5020   42.1310 C   0  0  0  0  0  0  0  0  0  0  0  0
   39.4510   29.4270   42.6900 C   0  0  0  0  0  0  0  0  0  0  0  0
   39.9270   31.1120   42.7720 Cl  0  0  0  0  0  0  0  0  0  0  0  0
   38.2200   29.0270   43.1880 C   0  0  0  0  0  0  0  0  0  0  0  0
   40.4900   26.4410   41.6720 H   0  0  0  0  0  0  0  0  0  0  0  0
   41.2680   28.7480   41.7250 H   0  0  0  0  0  0  0  0  0  0  0  0
   37.5620   29.7710   43.6280 H   0  0  0  0  0  0  0  0  0  0  0  0
  1  2  1  0  0  0  0
  1 22  1  0  0  0  0
  2  7  1  0  0  0  0
  3  2  2  0  0  0  0
  4  3  1  0  0  0  0
  5  4  2  0  0  0  0
  5  6  1  0  0  0  0
  6  1  2  0  0  0  0
  9  8  2  0  0  0  0
 10  3  1  6  0  0  0
 10  9  1  0  0  0  0
 11 13  1  0  0  0  0
 11 10  1  0  0  0  0
 12 11  1  0  0  0  0
 13 14  1  0  0  0  0
 13 15  1  0  0  0  0
 15  9  1  0  0  0  0
 15 16  1  0  0  0  0
 17  5  1  0  0  0  0
 18 17  2  0  0  0  0
 19 17  1  0  0  0  0
 19 21  1  0  0  0  0
 20 19  1  0  0  0  0
 22 23  1  0  0  0  0
 23 24  1  0  0  0  0
 23 26  1  0  0  0  0
 25 23  1  0  0  0  0
 26 31  1  0  0  0  0
 26 28  1  0  0  0  0
 27 26  1  0  0  0  0
 30 36  1  0  0  0  0
 30 29  1  0  0  0  0
 31 30  2  0  0  0  0
 32 33  2  0  0  0  0
 32 31  1  0  0  0  0
 33 34  1  0  0  0  0
 34 35  1  0  0  0  0
 34 36  2  0  0  0  0
 36 39  1  0  0  0  0
 37 32  1  0  0  0  0
 38 33  1  0  0  0  0
M  END
>  <minimizedAffinity>
-6.05200386

$$$$

 OpenBabel03242515063D

 39 41  0  0  1  0  0  0  0  0999 V2000
   38.2240   27.7050   38.8800 C   0  0  0  0  0  0  0  0  0  0  0  0
   39.1570   28.6910   38.5540 C   0  0  0  0  0  0  0  0  0  0  0  0
   38.8760   30.0160   38.9260 C   0  0  0  0  0  0  0  0  0  0  0  0
   37.7050   30.2570   39.5830 N   0  0  0  0  0  0  0  0  0  0  0  0
   36.8220   29.2810   39.8840 C   0  0  0  0  0  0  0  0  0  0  0  0
   37.0980   28.0310   39.5280 N   0  0  0  0  0  0  0  0  0  0  0  0
   40.0960   28.5400   38.0340 H   0  0  0  0  0  0  0  0  0  0  0  0
   38.1050   31.9590   37.0260 O   0  0  0  0  0  0  0  0  0  0  0  0
   39.2970   31.8520   37.4220 C   0  0  0  0  0  0  0  0  0  0  0  0
   39.8000   31.1030   38.6220 C   0  0  2  0  0  3  0  0  0  0  0  0
   41.1680   30.6990   38.1920 C   0  0  0  0  0  3  0  0  0  0  0  0
   41.8510   30.4580   39.0560 H   0  0  0  0  0  0  0  0  0  0  0  0
   41.6560   31.9700   37.5060 C   0  0  0  0  0  3  0  0  0  0  0  0
   42.0320   32.7050   38.2430 H   0  0  0  0  0  0  0  0  0  0  0  0
   40.4640   32.4220   36.8140 N   0  0  0  0  0  0  0  0  0  0  0  0
   40.4040   33.0740   35.9790 H   0  0  0  0  0  0  0  0  0  0  0  0
   35.6190   29.6720   40.5830 C   0  0  0  0  0  0  0  0  0  0  0  0
   34.6020   28.9390   40.4270 O   0  0  0  0  0  0  0  0  0  0  0  0
   35.6920   30.8670   41.3970 N   0  0  0  0  0  0  0  0  0  0  0  0
   35.9050   30.6710   42.4140 H   0  0  0  0  0  0  0  0  0  0  0  0
   35.5290   31.7380   40.8720 H   0  0  0  0  0  0  0  0  0  0  0  0
   38.6470   26.0460   38.3780 S   0  0  0  0  0  0  0  0  0  0  0  0
   39.9740   25.3410   39.3760 C   0  0  0  0  0  0  0  0  0  0  0  0
   40.5880   24.6640   38.7470 H   0  0  0  0  0  0  0  0  0  0  0  0
   40.6190   26.1800   39.7350 H   0  0  0  0  0  0  0  0  0  0  0  0
   39.4920   24.5880   40.5740 C   0  0  0  0  0  0  0  0  0  0  0  0
   40.2580   23.9660   41.0670 H   0  0  0  0  0  0  0  0  0  0  0  0
   38.6840   23.9010   40.2180 H   0  0  0  0  0  0  0  0  0  0  0  0
   36.5350   24.1190   41.1180 Cl  0  0  0  0  0  0  0  0  0  0  0  0
   37.4830   25.3650   41.8680 C   0  0  0  0  0  0  0  0  0  0  0  0
   38.8260   25.4940   41.5490 C   0  0  0  0  0  0  0  0  0  0  0  0
   39.5110   26.5090   42.1870 C   0  0  0  0  0  0  0  0  0  0  0  0
   38.9910   27.4050   43.1070 C   0  0  0  0  0  0  0  0  0  0  0  0
   37.6600   27.2580   43.4070 C   0  0  0  0  0  0  0  0  0  0  0  0
   36.8970   28.3370   44.5590 Cl  0  0  0  0  0  0  0  0  0  0  0  0
   36.9190   26.2570   42.7970 C   0  0  0  0  0  0  0  0  0  0  0  0
   40.5630   26.6030   41.9310 H   0  0  0  0  0  0  0  0  0  0  0  0
   39.6230   28.1640   43.5470 H   0  0  0  0  0  0  0  0  0  0  0  0
   35.8670   26.1530   43.0450 H   0  0  0  0  0  0  0  0  0  0  0  0
  1  6  1  0  0  0  0
  2  1  2  0  0  0  0
  2  3  1  0  0  0  0
  3  4  2  0  0  0  0
  4  5  1  0  0  0  0
  5 17  1  0  0  0  0
  6  5  2  0  0  0  0
  7  2  1  0  0  0  0
  8  9  2  0  0  0  0
  9 10  1  0  0  0  0
 10  3  1  6  0  0  0
 11 10  1  0  0  0  0
 11 12  1  0  0  0  0
 13 11  1  0  0  0  0
 13 14  1  0  0  0  0
 15  9  1  0  0  0  0
 15 13  1  0  0  0  0
 16 15  1  0  0  0  0
 17 19  1  0  0  0  0
 18 17  2  0  0  0  0
 19 20  1  0  0  0  0
 21 19  1  0  0  0  0
 22  1  1  0  0  0  0
 22 23  1  0  0  0  0
 23 25  1  0  0  0  0
 23 26  1  0  0  0  0
 24 23  1  0  0  0  0
 26 27  1  0  0  0  0
 26 31  1  0  0  0  0
 28 26  1  0  0  0  0
 29 30  1  0  0  0  0
 30 36  1  0  0  0  0
 31 30  2  0  0  0  0
 31 32  1  0  0  0  0
 32 33  2  0  0  0  0
 33 34  1  0  0  0  0
 33 38  1  0  0  0  0
 34 35  1  0  0  0  0
 36 39  1  0  0  0  0
 36 34  2  0  0  0  0
 37 32  1  0  0  0  0
M  END
>  <minimizedAffinity>
-5.98700714

$$$$

 OpenBabel03242515063D

 39 41  0  0  1  0  0  0  0  0999 V2000
   42.2920   31.7580   40.6920 C   0  0  0  0  0  0  0  0  0  0  0  0
   40.9110   31.7300   40.4910 C   0  0  0  0  0  0  0  0  0  0  0  0
   40.3830   32.4630   39.4150 C   0  0  0  0  0  0  0  0  0  0  0  0
   41.2560   33.1580   38.6320 N   0  0  0  0  0  0  0  0  0  0  0  0
   42.5890   33.1670   38.8510 C   0  0  0  0  0  0  0  0  0  0  0  0
   43.0770   32.4700   39.8720 N   0  0  0  0  0  0  0  0  0  0  0  0
   40.1860   31.1910   41.0900 H   0  0  0  0  0  0  0  0  0  0  0  0
   38.7550   34.2750   40.8430 O   0  0  0  0  0  0  0  0  0  0  0  0
   38.2650   33.3230   40.1780 C   0  0  0  0  0  0  0  0  0  0  0  0
   38.9510   32.4830   39.1390 C   0  0  2  0  0  3  0  0  0  0  0  0
   38.2410   31.1800   39.2670 C   0  0  0  0  0  3  0  0  0  0  0  0
   38.3340   30.5330   38.3480 H   0  0  0  0  0  0  0  0  0  0  0  0
   36.7940   31.6390   39.4140 C   0  0  0  0  0  3  0  0  0  0  0  0
   36.3430   31.8660   38.4280 H   0  0  0  0  0  0  0  0  0  0  0  0
   36.9280   32.8120   40.2570 N   0  0  0  0  0  0  0  0  0  0  0  0
   36.1850   33.2660   40.8620 H   0  0  0  0  0  0  0  0  0  0  0  0
   43.4020   33.9460   37.9450 C   0  0  0  0  0  0  0  0  0  0  0  0
   44.6200   34.0900   38.2500 O   0  0  0  0  0  0  0  0  0  0  0  0
   42.7460   34.4870   36.7740 N   0  0  0  0  0  0  0  0  0  0  0  0
   42.8430   33.8760   35.9180 H   0  0  0  0  0  0  0  0  0  0  0  0
   42.2760   35.3900   36.9410 H   0  0  0  0  0  0  0  0  0  0  0  0
   42.8910   30.8050   42.0760 S   0  0  0  0  0  0  0  0  0  0  0  0
   42.5130   29.0480   41.9170 C   0  0  0  0  0  0  0  0  0  0  0  0
   42.0360   28.8630   40.9330 H   0  0  0  0  0  0  0  0  0  0  0  0
   43.4740   28.4830   41.9610 H   0  0  0  0  0  0  0  0  0  0  0  0
   41.6210   28.5240   42.9960 C   0  0  0  0  0  0  0  0  0  0  0  0
   41.7300   29.0310   43.9700 H   0  0  0  0  0  0  0  0  0  0  0  0
   41.8950   27.4510   43.1470 H   0  0  0  0  0  0  0  0  0  0  0  0
   40.6870   26.1000   41.4130 Cl  0  0  0  0  0  0  0  0  0  0  0  0
   39.6730   27.4450   41.8320 C   0  0  0  0  0  0  0  0  0  0  0  0
   40.1990   28.5020   42.5580 C   0  0  0  0  0  0  0  0  0  0  0  0
   39.3300   29.5340   42.8530 C   0  0  0  0  0  0  0  0  0  0  0  0
   37.9930   29.6150   42.4950 C   0  0  0  0  0  0  0  0  0  0  0  0
   37.4950   28.5560   41.7770 C   0  0  0  0  0  0  0  0  0  0  0  0
   35.8170   28.5520   41.2720 Cl  0  0  0  0  0  0  0  0  0  0  0  0
   38.3220   27.4910   41.4510 C   0  0  0  0  0  0  0  0  0  0  0  0
   39.7490   30.3590   43.4220 H   0  0  0  0  0  0  0  0  0  0  0  0
   37.4030   30.4740   42.7810 H   0  0  0  0  0  0  0  0  0  0  0  0
   37.9130   26.6600   40.8830 H   0  0  0  0  0  0  0  0  0  0  0  0
  1 22  1  0  0  0  0
  2  1  1  0  0  0  0
  2  7  1  0  0  0  0
  3  2  2  0  0  0  0
  4  5  2  0  0  0  0
  4  3  1  0  0  0  0
  5  6  1  0  0  0  0
  6  1  2  0  0  0  0
  9 15  1  0  0  0  0
  9  8  2  0  0  0  0
 10 11  1  0  0  0  0
 10  3  1  1  0  0  0
 10  9  1  0  0  0  0
 11 13  1  0  0  0  0
 12 11  1  0  0  0  0
 13 15  1  0  0  0  0
 14 13  1  0  0  0  0
 15 16  1  0  0  0  0
 17 18  2  0  0  0  0
 17  5  1  0  0  0  0
 19 21  1  0  0  0  0
 19 17  1  0  0  0  0
 20 19  1  0  0  0  0
 23 25  1  0  0  0  0
 23 22  1  0  0  0  0
 23 26  1  0  0  0  0
 24 23  1  0  0  0  0
 26 28  1  0  0  0  0
 26 27  1  0  0  0  0
 29 30  1  0  0  0  0
 30 31  1  0  0  0  0
 31 32  2  0  0  0  0
 31 26  1  0  0  0  0
 32 37  1  0  0  0  0
 33 38  1  0  0  0  0
 33 32  1  0  0  0  0
 34 33  2  0  0  0  0
 35 34  1  0  0  0  0
 36 34  1  0  0  0  0
 36 30  2  0  0  0  0
 39 36  1  0  0  0  0
M  END
>  <minimizedAffinity>
-5.98128605

$$$$
