
 OpenBabel03252504203D

 19 20  0  0  1  0  0  0  0  0999 V2000
   46.1670   33.7220   44.9870 C   0  0  0  0  0  0  0  0  0  0  0  0
   45.1710   34.6530   44.6480 C   0  0  0  0  0  0  0  0  0  0  0  0
   45.3340   35.3830   43.4610 C   0  0  0  0  0  0  0  0  0  0  0  0
   46.4350   35.1560   42.7070 N   0  0  0  0  0  0  0  0  0  0  0  0
   47.3660   34.2540   43.0700 C   0  0  0  0  0  0  0  0  0  0  0  0
   47.2430   33.5390   44.1980 N   0  0  0  0  0  0  0  0  0  0  0  0
   44.2890   34.8520   45.2270 H   0  0  0  0  0  0  0  0  0  0  0  0
   44.5880   36.1100   43.1660 H   0  0  0  0  0  0  0  0  0  0  0  0
   47.2310   33.6750   40.3560 O   0  0  0  0  0  0  0  0  0  0  0  0
   48.1390   34.4490   40.8080 C   0  0  0  0  0  0  0  0  0  0  0  0
   48.5530   34.0620   42.1820 C   0  0  1  0  0  0  0  0  0  0  0  0
   49.6580   35.0400   42.4550 C   0  0  0  0  0  0  0  0  0  0  0  0
   49.7720   35.3030   43.5130 H   0  0  0  0  0  0  0  0  0  0  0  0
   49.2750   36.2100   41.5750 C   0  0  0  0  0  0  0  0  0  0  0  0
   48.4670   36.7560   42.1080 H   0  0  0  0  0  0  0  0  0  0  0  0
   48.8620   35.5860   40.3570 N   0  0  0  0  0  0  0  0  0  0  0  0
   48.8990   35.6590   39.3040 H   0  0  0  0  0  0  0  0  0  0  0  0
   45.8740   32.8370   46.5200 S   0  0  0  0  0  0  0  0  0  0  0  0
   47.0310   32.2950   47.0660 H   0  0  0  0  0  0  0  0  0  0  0  0
  1 18  1  0  0  0  0
  2  1  1  0  0  0  0
  2  7  1  0  0  0  0
  3  2  2  0  0  0  0
  4  5  2  0  0  0  0
  4  3  1  0  0  0  0
  5  6  1  0  0  0  0
  6  1  2  0  0  0  0
  8  3  1  0  0  0  0
  9 10  2  0  0  0  0
 10 11  1  0  0  0  0
 11 12  1  0  0  0  0
 11  5  1  1  0  0  0
 12 13  1  0  0  0  0
 14 15  1  0  0  0  0
 14 12  1  0  0  0  0
 16 10  1  0  0  0  0
 16 14  1  0  0  0  0
 17 16  1  0  0  0  0
 18 19  1  0  0  0  0
M  END
>  <minimizedAffinity>
-4.79782915

>  <minimizedRMSD>
6.01335144

$$$$
