
 OpenBabel03252500183D

 20 21  0  0  1  0  0  0  0  0999 V2000
   44.5070   36.1590   44.3960 C   0  0  0  0  0  0  0  0  0  0  0  0
   45.2900   36.0320   43.2490 C   0  0  0  0  0  0  0  0  0  0  0  0
   46.1790   34.9520   43.2100 C   0  0  0  0  0  0  0  0  0  0  0  0
   46.2390   34.0900   44.2710 N   0  0  0  0  0  0  0  0  0  0  0  0
   45.4560   34.2670   45.3540 C   0  0  0  0  0  0  0  0  0  0  0  0
   44.5780   35.3130   45.4170 N   0  0  0  0  0  0  0  0  0  0  0  0
   45.5020   33.3790   46.4720 N   0  0  0  0  0  0  0  0  0  0  0  0
   43.8120   36.9880   44.4480 H   0  0  0  0  0  0  0  0  0  0  0  0
   45.2550   36.7040   42.4010 H   0  0  0  0  0  0  0  0  0  0  0  0
   45.2640   32.4120   46.1470 H   0  0  0  0  0  0  0  0  0  0  0  0
   45.7330   33.6270   47.4650 H   0  0  0  0  0  0  0  0  0  0  0  0
   45.8280   32.5250   41.3400 O   0  0  0  0  0  0  0  0  0  0  0  0
   46.7890   33.3420   41.4900 C   0  0  0  0  0  0  0  0  0  0  0  0
   47.0750   34.6850   42.0610 C   0  0  2  0  0  3  0  0  0  0  0  0
   48.5230   34.5980   42.4680 C   0  0  0  0  0  3  0  0  0  0  0  0
   48.6250   34.3700   43.5610 H   0  0  0  0  0  0  0  0  0  0  0  0
   49.1500   33.5320   41.6240 C   0  0  0  0  0  3  0  0  0  0  0  0
   49.6660   32.7470   42.2270 H   0  0  0  0  0  0  0  0  0  0  0  0
   48.0410   32.8720   40.9500 N   0  0  0  0  0  0  0  0  0  0  0  0
   48.3160   32.1780   40.2010 H   0  0  0  0  0  0  0  0  0  0  0  0
  1  8  1  0  0  0  0
  1  6  1  0  0  0  0
  2  1  2  0  0  0  0
  3  2  1  0  0  0  0
  3  4  2  0  0  0  0
  4  5  1  0  0  0  0
  5  6  2  0  0  0  0
  5  7  1  0  0  0  0
  7 11  1  0  0  0  0
  9  2  1  0  0  0  0
 10  7  1  0  0  0  0
 12 13  2  0  0  0  0
 13 14  1  0  0  0  0
 14 15  1  0  0  0  0
 14  3  1  1  0  0  0
 15 16  1  0  0  0  0
 17 18  1  0  0  0  0
 17 15  1  0  0  0  0
 19 13  1  0  0  0  0
 19 17  1  0  0  0  0
 20 19  1  0  0  0  0
M  END
>  <minimizedAffinity>
-4.45387506

>  <minimizedRMSD>
0.993463159

$$$$
