
 OpenBabel03252500183D

 20 21  0  0  1  0  0  0  0  0999 V2000
   44.6570   36.1680   44.1310 C   0  0  0  0  0  0  0  0  0  0  0  0
   45.3780   35.7030   43.0320 C   0  0  0  0  0  0  0  0  0  0  0  0
   46.0730   34.5000   43.2000 C   0  0  0  0  0  0  0  0  0  0  0  0
   46.0160   33.8500   44.4030 N   0  0  0  0  0  0  0  0  0  0  0  0
   45.3010   34.3530   45.4290 C   0  0  0  0  0  0  0  0  0  0  0  0
   44.6120   35.5250   45.2920 N   0  0  0  0  0  0  0  0  0  0  0  0
   45.2280   33.6910   46.6930 N   0  0  0  0  0  0  0  0  0  0  0  0
   44.1100   37.0980   44.0240 H   0  0  0  0  0  0  0  0  0  0  0  0
   45.4330   36.2030   42.0740 H   0  0  0  0  0  0  0  0  0  0  0  0
   44.8240   32.7340   46.5520 H   0  0  0  0  0  0  0  0  0  0  0  0
   45.5220   34.0740   47.6250 H   0  0  0  0  0  0  0  0  0  0  0  0
   48.5370   35.8710   41.9520 O   0  0  0  0  0  0  0  0  0  0  0  0
   47.8580   34.8620   41.5860 C   0  0  0  0  0  0  0  0  0  0  0  0
   46.8830   33.8790   42.1260 C   0  0  2  0  0  3  0  0  0  0  0  0
   46.0540   33.5010   40.9260 C   0  0  0  0  0  3  0  0  0  0  0  0
   45.0960   34.0810   40.8940 H   0  0  0  0  0  0  0  0  0  0  0  0
   46.8960   33.7660   39.7150 C   0  0  0  0  0  3  0  0  0  0  0  0
   46.3900   34.4290   38.9730 H   0  0  0  0  0  0  0  0  0  0  0  0
   48.0530   34.5010   40.2050 N   0  0  0  0  0  0  0  0  0  0  0  0
   48.8260   34.6490   39.4970 H   0  0  0  0  0  0  0  0  0  0  0  0
  1  6  1  0  0  0  0
  2  3  1  0  0  0  0
  2  1  2  0  0  0  0
  3  4  2  0  0  0  0
  4  5  1  0  0  0  0
  5  7  1  0  0  0  0
  6  5  2  0  0  0  0
  7 11  1  0  0  0  0
  8  1  1  0  0  0  0
  9  2  1  0  0  0  0
 10  7  1  0  0  0  0
 13 12  2  0  0  0  0
 13 14  1  0  0  0  0
 14  3  1  1  0  0  0
 15 14  1  0  0  0  0
 16 15  1  0  0  0  0
 17 19  1  0  0  0  0
 17 15  1  0  0  0  0
 18 17  1  0  0  0  0
 19 13  1  0  0  0  0
 20 19  1  0  0  0  0
M  END
>  <minimizedAffinity>
-4.70401049

>  <minimizedRMSD>
0.381493598

$$$$
