
 OpenBabel03252508323D

 32 34  0  0  1  0  0  0  0  0999 V2000
   45.0810   34.2100   41.7590 N   0  0  0  0  0  0  0  0  0  0  0  0
   45.9970   33.5970   40.8650 C   0  0  1  0  0  0  0  0  0  0  0  0
   45.6160   33.6960   39.4200 C   0  0  0  0  0  0  0  0  0  0  0  0
   44.2520   33.6040   39.1190 N   0  0  0  0  0  0  0  0  0  0  0  0
   43.3720   34.2510   40.0000 C   0  0  0  0  0  0  0  0  0  0  0  0
   44.0720   34.9900   41.0990 C   0  0  0  0  0  0  0  0  0  0  0  0
   46.0660   32.5200   41.1240 H   0  0  0  0  0  0  0  0  0  0  0  0
   45.9310   34.7370   39.1100 H   0  0  0  0  0  0  0  0  0  0  0  0
   46.1990   32.9550   38.8350 H   0  0  0  0  0  0  0  0  0  0  0  0
   44.0700   33.6160   38.1170 H   0  0  0  0  0  0  0  0  0  0  0  0
   42.6580   33.5250   40.4250 H   0  0  0  0  0  0  0  0  0  0  0  0
   42.8230   35.0440   39.4120 H   0  0  0  0  0  0  0  0  0  0  0  0
   43.3310   35.4810   41.7480 H   0  0  0  0  0  0  0  0  0  0  0  0
   44.5940   35.8410   40.5850 H   0  0  0  0  0  0  0  0  0  0  0  0
   44.8650   35.0990   43.9530 C   0  0  0  0  0  0  0  0  0  0  0  0
   45.2380   34.0140   43.1400 C   0  0  0  0  0  0  0  0  0  0  0  0
   45.7390   32.8780   43.7500 C   0  0  0  0  0  0  0  0  0  0  0  0
   45.8700   32.8110   45.1060 N   0  0  0  0  0  0  0  0  0  0  0  0
   45.5010   33.8800   45.8770 C   0  0  0  0  0  0  0  0  0  0  0  0
   45.0100   34.9960   45.3070 N   0  0  0  0  0  0  0  0  0  0  0  0
   44.4610   36.0600   43.6800 H   0  0  0  0  0  0  0  0  0  0  0  0
   46.0140   32.0340   43.1360 H   0  0  0  0  0  0  0  0  0  0  0  0
   45.6040   33.8260   46.9510 H   0  0  0  0  0  0  0  0  0  0  0  0
   48.8060   32.1040   42.0420 O   0  0  0  0  0  0  0  0  0  0  0  0
   48.3800   33.2100   41.5780 C   0  0  0  0  0  0  0  0  0  0  0  0
   47.4000   34.1290   40.9590 C   0  0  2  0  0  3  0  0  0  0  0  0
   47.5180   35.3140   41.8880 C   0  0  0  0  0  3  0  0  0  0  0  0
   47.3340   35.0670   42.9360 H   0  0  0  0  0  0  0  0  0  0  0  0
   49.0350   35.5410   41.7780 C   0  0  0  0  0  3  0  0  0  0  0  0
   49.2940   36.0920   40.8650 H   0  0  0  0  0  0  0  0  0  0  0  0
   49.4840   34.1390   41.7340 N   0  0  0  0  0  0  0  0  0  0  0  0
   50.5490   34.1520   41.8310 H   0  0  0  0  0  0  0  0  0  0  0  0
  1 16  1  0  0  0  0
  2 26  1  0  0  0  0
  2  7  1  1  0  0  0
  2  1  1  0  0  0  0
  3  2  1  0  0  0  0
  4  3  1  0  0  0  0
  4  5  1  0  0  0  0
  5 11  1  0  0  0  0
  5  6  1  0  0  0  0
  6 13  1  0  0  0  0
  6  1  1  0  0  0  0
  8  3  1  0  0  0  0
  9  3  1  0  0  0  0
 10  4  1  0  0  0  0
 12  5  1  0  0  0  0
 14  6  1  0  0  0  0
 15 20  1  0  0  0  0
 16 17  1  0  0  0  0
 16 15  2  0  0  0  0
 17 18  2  0  0  0  0
 18 19  1  0  0  0  0
 19 23  1  0  0  0  0
 20 19  2  0  0  0  0
 21 15  1  0  0  0  0
 22 17  1  0  0  0  0
 25 31  1  0  0  0  0
 25 24  2  0  0  0  0
 26 25  1  1  0  0  0
 26 27  1  0  0  0  0
 27 28  1  0  0  0  0
 29 27  1  0  0  0  0
 30 29  1  0  0  0  0
 31 29  1  0  0  0  0
 31 32  1  0  0  0  0
M  END
>  <minimizedAffinity>
-4.65921545

>  <minimizedRMSD>
1.48355806

$$$$
