
 OpenBabel03252505533D

 33 35  0  0  1  0  0  0  0  0999 V2000
   50.6040   28.2890   43.2190 C   0  0  0  0  0  0  0  0  0  0  0  0
   49.8780   27.1430   43.4840 C   0  0  0  0  0  0  0  0  0  0  0  0
   50.0280   26.0530   42.6840 C   0  0  0  0  0  0  0  0  0  0  0  0
   50.8570   26.0540   41.6510 N   0  0  0  0  0  0  0  0  0  0  0  0
   51.5700   27.1670   41.3850 C   0  0  0  0  0  0  0  0  0  0  0  0
   51.4570   28.2820   42.1500 N   0  0  0  0  0  0  0  0  0  0  0  0
   49.2430   27.2480   44.3350 H   0  0  0  0  0  0  0  0  0  0  0  0
   49.4220   25.2030   42.9660 H   0  0  0  0  0  0  0  0  0  0  0  0
   50.9170   28.3290   38.5780 O   0  0  0  0  0  0  0  0  0  0  0  0
   51.8150   27.5300   38.9460 C   0  0  0  0  0  0  0  0  0  0  0  0
   52.5140   27.1700   40.2080 C   0  0  2  0  0  3  0  0  0  0  0  0
   52.9590   25.7450   39.8900 C   0  0  0  0  0  3  0  0  0  0  0  0
   53.7400   25.3840   40.5850 H   0  0  0  0  0  0  0  0  0  0  0  0
   53.5020   25.9930   38.4850 C   0  0  0  0  0  3  0  0  0  0  0  0
   54.3170   26.7620   38.5350 H   0  0  0  0  0  0  0  0  0  0  0  0
   52.3660   26.6980   37.9060 N   0  0  0  0  0  0  0  0  0  0  0  0
   52.1060   26.5330   36.8960 H   0  0  0  0  0  0  0  0  0  0  0  0
   50.6340   29.5750   43.9020 C   0  0  0  0  0  0  0  0  0  0  0  0
   49.6660   29.8380   44.3530 H   0  0  0  0  0  0  0  0  0  0  0  0
   51.3630   29.5010   44.7510 H   0  0  0  0  0  0  0  0  0  0  0  0
   51.1590   30.5340   43.0200 O   0  0  0  0  0  0  0  0  0  0  0  0
   50.3460   33.8980   42.2000 C   0  0  0  0  0  0  0  0  0  0  0  0
   49.0100   33.8410   41.8130 C   0  0  0  0  0  0  0  0  0  0  0  0
   48.3890   32.5830   41.8440 C   0  0  0  0  0  0  0  0  0  0  0  0
   49.1020   31.5110   42.2400 N   0  0  0  0  0  0  0  0  0  0  0  0
   50.3940   31.6230   42.6050 C   0  0  0  0  0  0  0  0  0  0  0  0
   51.0170   32.8040   42.5870 N   0  0  0  0  0  0  0  0  0  0  0  0
   50.8970   34.8410   42.2020 H   0  0  0  0  0  0  0  0  0  0  0  0
   47.3520   32.5360   41.5440 H   0  0  0  0  0  0  0  0  0  0  0  0
   48.3180   35.0980   41.3910 C   0  0  0  0  0  0  0  0  0  0  0  0
   49.2290   36.1070   41.6700 F   0  0  0  0  0  0  0  0  0  0  0  0
   47.2130   35.2330   42.2410 F   0  0  0  0  0  0  0  0  0  0  0  0
   47.9740   35.0110   40.0830 F   0  0  0  0  0  0  0  0  0  0  0  0
  1  2  1  0  0  0  0
  1 18  1  0  0  0  0
  2  7  1  0  0  0  0
  3  8  1  0  0  0  0
  3  2  2  0  0  0  0
  4  3  1  0  0  0  0
  5  4  2  0  0  0  0
  5  6  1  0  0  0  0
  6  1  2  0  0  0  0
  9 10  2  0  0  0  0
 10 11  1  0  0  0  0
 11  5  1  1  0  0  0
 12 11  1  0  0  0  0
 12 13  1  0  0  0  0
 14 15  1  0  0  0  0
 14 12  1  0  0  0  0
 16 14  1  0  0  0  0
 16 10  1  0  0  0  0
 17 16  1  0  0  0  0
 18 19  1  0  0  0  0
 18 20  1  0  0  0  0
 21 18  1  0  0  0  0
 22 28  1  0  0  0  0
 22 27  1  0  0  0  0
 23 24  1  0  0  0  0
 23 22  2  0  0  0  0
 24 25  2  0  0  0  0
 25 26  1  0  0  0  0
 26 21  1  0  0  0  0
 27 26  2  0  0  0  0
 29 24  1  0  0  0  0
 30 31  1  0  0  0  0
 30 23  1  0  0  0  0
 30 32  1  0  0  0  0
 33 30  1  0  0  0  0
M  END
>  <minimizedAffinity>
-2.99808693

>  <minimizedRMSD>
8.40889835

$$$$
