
 OpenBabel03252503563D

 20 21  0  0  1  0  0  0  0  0999 V2000
   46.4040   34.6870   43.2340 C   0  0  0  0  0  0  0  0  0  0  0  0
   45.3030   35.5030   43.5460 C   0  0  0  0  0  0  0  0  0  0  0  0
   44.7120   35.3170   44.7960 C   0  0  0  0  0  0  0  0  0  0  0  0
   45.2280   34.3640   45.6330 N   0  0  0  0  0  0  0  0  0  0  0  0
   46.2870   33.6100   45.2780 C   0  0  0  0  0  0  0  0  0  0  0  0
   46.8700   33.7710   44.0860 N   0  0  0  0  0  0  0  0  0  0  0  0
   44.8780   36.2530   42.9150 H   0  0  0  0  0  0  0  0  0  0  0  0
   43.8660   35.8980   45.1170 H   0  0  0  0  0  0  0  0  0  0  0  0
   44.7580   33.1560   47.8590 O   0  0  0  0  0  0  0  0  0  0  0  0
   45.7400   32.4870   47.4010 C   0  0  0  0  0  0  0  0  0  0  0  0
   46.7260   32.6220   46.3020 C   0  0  1  0  0  3  0  0  0  0  0  0
   46.8400   31.2260   45.7920 C   0  0  0  0  0  3  0  0  0  0  0  0
   47.8380   31.1240   45.2990 H   0  0  0  0  0  0  0  0  0  0  0  0
   46.7580   30.3970   47.0540 C   0  0  0  0  0  3  0  0  0  0  0  0
   46.1950   29.4580   46.8750 H   0  0  0  0  0  0  0  0  0  0  0  0
   46.0990   31.2560   48.0170 N   0  0  0  0  0  0  0  0  0  0  0  0
   45.9820   30.8640   49.0000 H   0  0  0  0  0  0  0  0  0  0  0  0
   46.9600   34.9290   41.9420 C   0  0  0  0  0  0  0  0  0  0  0  0
   48.1080   35.4120   41.6850 O   0  0  0  0  0  0  0  0  0  0  0  0
   46.5780   34.7770   40.9390 H   0  0  0  0  0  0  0  0  0  0  0  0
  1  2  2  0  0  0  0
  1  6  1  0  0  0  0
  2  3  1  0  0  0  0
  3  8  1  0  0  0  0
  3  4  2  0  0  0  0
  5  4  1  0  0  0  0
  6  5  2  0  0  0  0
  7  2  1  0  0  0  0
 10  9  2  0  0  0  0
 10 16  1  0  0  0  0
 11  5  1  6  0  0  0
 11 10  1  0  0  0  0
 12 11  1  0  0  0  0
 12 14  1  0  0  0  0
 13 12  1  0  0  0  0
 14 16  1  0  0  0  0
 15 14  1  0  0  0  0
 16 17  1  0  0  0  0
 18  1  1  0  0  0  0
 19 18  2  0  0  0  0
 20 18  1  0  0  0  0
M  END
>  <minimizedAffinity>
-4.31371212

>  <minimizedRMSD>
1.0147289

$$$$
