
 OpenBabel03252502463D

 45 48  0  0  1  0  0  0  0  0999 V2000
   46.6040   35.2960   42.2180 C   0  0  0  0  0  0  0  0  0  0  0  0
   46.9000   35.8160   43.1630 H   0  0  0  0  0  0  0  0  0  0  0  0
   45.9590   36.0200   41.6540 H   0  0  0  0  0  0  0  0  0  0  0  0
   47.8450   34.9150   41.4750 C   0  0  1  0  0  0  0  0  0  0  0  0
   49.0220   35.8290   41.5810 C   0  0  0  0  0  0  0  0  0  0  0  0
   48.9980   34.5080   42.2660 C   0  0  2  0  0  0  0  0  0  0  0  0
   47.6420   34.4940   40.4950 H   0  0  0  0  0  0  0  0  0  0  0  0
   48.8730   36.7610   42.1790 H   0  0  0  0  0  0  0  0  0  0  0  0
   49.6680   36.0130   40.6850 H   0  0  0  0  0  0  0  0  0  0  0  0
   49.0910   34.5680   43.3450 H   0  0  0  0  0  0  0  0  0  0  0  0
   49.8440   33.5290   41.6060 N   0  0  0  0  0  0  0  0  0  0  0  0
   49.1460   32.6310   40.7590 C   0  0  0  0  0  0  0  0  0  0  0  0
   50.1960   31.7030   40.1800 C   0  0  0  0  0  0  0  0  0  0  0  0
   50.8450   30.9290   41.1930 N   0  0  0  0  0  0  0  0  0  0  0  0
   50.8730   31.5710   42.4890 C   0  0  0  0  0  0  0  0  0  0  0  0
   50.9620   33.0850   42.3200 C   0  0  0  0  0  0  0  0  0  0  0  0
   48.3820   32.0780   41.3320 H   0  0  0  0  0  0  0  0  0  0  0  0
   48.6500   33.1350   39.9180 H   0  0  0  0  0  0  0  0  0  0  0  0
   49.6700   31.0140   39.4760 H   0  0  0  0  0  0  0  0  0  0  0  0
   50.8950   32.3010   39.5760 H   0  0  0  0  0  0  0  0  0  0  0  0
   51.7550   30.5740   40.8770 H   0  0  0  0  0  0  0  0  0  0  0  0
   51.7050   31.1840   43.0980 H   0  0  0  0  0  0  0  0  0  0  0  0
   49.9080   31.3510   43.0080 H   0  0  0  0  0  0  0  0  0  0  0  0
   51.9180   33.3590   41.8360 H   0  0  0  0  0  0  0  0  0  0  0  0
   50.9460   33.4970   43.3510 H   0  0  0  0  0  0  0  0  0  0  0  0
   45.8840   34.0210   42.5370 C   0  0  0  0  0  0  0  0  0  0  0  0
   46.3150   33.1030   42.1610 H   0  0  0  0  0  0  0  0  0  0  0  0
   44.8720   34.0880   42.0380 H   0  0  0  0  0  0  0  0  0  0  0  0
   44.6480   35.0800   45.9090 C   0  0  0  0  0  0  0  0  0  0  0  0
   44.9290   35.1100   44.5250 C   0  0  0  0  0  0  0  0  0  0  0  0
   45.5750   34.0090   44.0050 C   0  0  0  0  0  0  0  0  0  0  0  0
   45.9090   32.9730   44.8100 N   0  0  0  0  0  0  0  0  0  0  0  0
   45.6350   32.9680   46.1060 C   0  0  0  0  0  0  0  0  0  0  0  0
   45.0120   34.0060   46.6530 N   0  0  0  0  0  0  0  0  0  0  0  0
   44.1380   35.9280   46.3610 H   0  0  0  0  0  0  0  0  0  0  0  0
   44.6530   35.9470   43.9050 H   0  0  0  0  0  0  0  0  0  0  0  0
   47.6050   30.9380   45.2860 O   0  0  0  0  0  0  0  0  0  0  0  0
   47.2510   31.1380   46.4900 C   0  0  0  0  0  0  0  0  0  0  0  0
   46.0150   31.8120   46.9620 C   0  0  1  0  0  3  0  0  0  0  0  0
   46.3030   32.2780   48.3530 C   0  0  0  0  0  3  0  0  0  0  0  0
   46.2950   33.3850   48.4640 H   0  0  0  0  0  0  0  0  0  0  0  0
   47.6540   31.7040   48.6890 C   0  0  0  0  0  3  0  0  0  0  0  0
   47.6380   31.1760   49.6590 H   0  0  0  0  0  0  0  0  0  0  0  0
   47.9790   30.7500   47.6410 N   0  0  0  0  0  0  0  0  0  0  0  0
   48.6290   29.9400   47.7390 H   0  0  0  0  0  0  0  0  0  0  0  0
  1 26  1  0  0  0  0
  1  2  1  0  0  0  0
  3  1  1  0  0  0  0
  4  7  1  6  0  0  0
  4  5  1  0  0  0  0
  4  1  1  0  0  0  0
  4  6  1  0  0  0  0
  5  8  1  0  0  0  0
  5  6  1  0  0  0  0
  6 10  1  1  0  0  0
  9  5  1  0  0  0  0
 11  6  1  0  0  0  0
 11 16  1  0  0  0  0
 12 17  1  0  0  0  0
 12 11  1  0  0  0  0
 13 12  1  0  0  0  0
 13 14  1  0  0  0  0
 14 15  1  0  0  0  0
 15 23  1  0  0  0  0
 15 22  1  0  0  0  0
 16 15  1  0  0  0  0
 16 25  1  0  0  0  0
 18 12  1  0  0  0  0
 19 13  1  0  0  0  0
 20 13  1  0  0  0  0
 21 14  1  0  0  0  0
 24 16  1  0  0  0  0
 26 31  1  0  0  0  0
 27 26  1  0  0  0  0
 28 26  1  0  0  0  0
 29 35  1  0  0  0  0
 29 34  1  0  0  0  0
 30 29  2  0  0  0  0
 31 30  1  0  0  0  0
 31 32  2  0  0  0  0
 32 33  1  0  0  0  0
 33 34  2  0  0  0  0
 36 30  1  0  0  0  0
 37 38  2  0  0  0  0
 38 39  1  0  0  0  0
 38 44  1  0  0  0  0
 39 33  1  6  0  0  0
 39 40  1  0  0  0  0
 40 41  1  0  0  0  0
 40 42  1  0  0  0  0
 42 43  1  0  0  0  0
 44 45  1  0  0  0  0
 44 42  1  0  0  0  0
M  END
>  <minimizedAffinity>
-5.45607424

>  <minimizedRMSD>
1.66505992

$$$$
