
 OpenBabel03252508323D

 32 34  0  0  1  0  0  0  0  0999 V2000
   44.7800   34.4660   41.8630 N   0  0  0  0  0  0  0  0  0  0  0  0
   45.6340   33.7280   41.0020 C   0  0  1  0  0  0  0  0  0  0  0  0
   45.2570   33.7850   39.5540 C   0  0  0  0  0  0  0  0  0  0  0  0
   43.8890   33.8000   39.2580 N   0  0  0  0  0  0  0  0  0  0  0  0
   43.0750   34.5690   40.1030 C   0  0  0  0  0  0  0  0  0  0  0  0
   43.8420   35.2990   41.1620 C   0  0  0  0  0  0  0  0  0  0  0  0
   45.6070   32.6630   41.3180 H   0  0  0  0  0  0  0  0  0  0  0  0
   45.6620   34.7760   39.1900 H   0  0  0  0  0  0  0  0  0  0  0  0
   45.7680   32.9660   39.0090 H   0  0  0  0  0  0  0  0  0  0  0  0
   43.7040   33.7770   38.2570 H   0  0  0  0  0  0  0  0  0  0  0  0
   42.3000   33.9330   40.5650 H   0  0  0  0  0  0  0  0  0  0  0  0
   42.5960   35.3770   39.4760 H   0  0  0  0  0  0  0  0  0  0  0  0
   43.1510   35.8870   41.7860 H   0  0  0  0  0  0  0  0  0  0  0  0
   44.4370   36.0710   40.6050 H   0  0  0  0  0  0  0  0  0  0  0  0
   44.5560   35.4510   44.0150 C   0  0  0  0  0  0  0  0  0  0  0  0
   44.9250   34.3290   43.2520 C   0  0  0  0  0  0  0  0  0  0  0  0
   45.4110   33.2160   43.9150 C   0  0  0  0  0  0  0  0  0  0  0  0
   45.5310   33.2060   45.2730 N   0  0  0  0  0  0  0  0  0  0  0  0
   45.1660   34.3110   45.9950 C   0  0  0  0  0  0  0  0  0  0  0  0
   44.6900   35.4050   45.3730 N   0  0  0  0  0  0  0  0  0  0  0  0
   44.1630   36.4030   43.6970 H   0  0  0  0  0  0  0  0  0  0  0  0
   45.6830   32.3440   43.3410 H   0  0  0  0  0  0  0  0  0  0  0  0
   45.2610   34.3030   47.0710 H   0  0  0  0  0  0  0  0  0  0  0  0
   48.3100   32.0300   42.2120 O   0  0  0  0  0  0  0  0  0  0  0  0
   47.9800   33.1540   41.7130 C   0  0  0  0  0  0  0  0  0  0  0  0
   47.0790   34.1350   41.0690 C   0  0  2  0  0  3  0  0  0  0  0  0
   47.3110   35.3360   41.9560 C   0  0  0  0  0  3  0  0  0  0  0  0
   47.1160   35.1410   43.0130 H   0  0  0  0  0  0  0  0  0  0  0  0
   48.8400   35.4230   41.8290 C   0  0  0  0  0  3  0  0  0  0  0  0
   49.1400   35.9170   40.8950 H   0  0  0  0  0  0  0  0  0  0  0  0
   49.1620   33.9860   41.8300 N   0  0  0  0  0  0  0  0  0  0  0  0
   50.2260   33.9070   41.9200 H   0  0  0  0  0  0  0  0  0  0  0  0
  1 16  1  0  0  0  0
  2 26  1  0  0  0  0
  2  7  1  1  0  0  0
  2  1  1  0  0  0  0
  3  2  1  0  0  0  0
  4  3  1  0  0  0  0
  4  5  1  0  0  0  0
  5 11  1  0  0  0  0
  5  6  1  0  0  0  0
  6 13  1  0  0  0  0
  6  1  1  0  0  0  0
  8  3  1  0  0  0  0
  9  3  1  0  0  0  0
 10  4  1  0  0  0  0
 12  5  1  0  0  0  0
 14  6  1  0  0  0  0
 15 20  1  0  0  0  0
 16 17  1  0  0  0  0
 16 15  2  0  0  0  0
 17 18  2  0  0  0  0
 18 19  1  0  0  0  0
 19 23  1  0  0  0  0
 20 19  2  0  0  0  0
 21 15  1  0  0  0  0
 22 17  1  0  0  0  0
 25 31  1  0  0  0  0
 25 24  2  0  0  0  0
 26 25  1  1  0  0  0
 26 27  1  0  0  0  0
 27 28  1  0  0  0  0
 29 31  1  0  0  0  0
 29 27  1  0  0  0  0
 30 29  1  0  0  0  0
 31 32  1  0  0  0  0
M  END
>  <minimizedAffinity>
-4.60238457

>  <minimizedRMSD>
1.5014466

$$$$
