
 OpenBabel03242523023D

 32 34  0  0  1  0  0  0  0  0999 V2000
   45.3160   36.0550   43.3110 C   0  0  0  0  0  0  0  0  0  0  0  0
   46.1200   34.8870   43.2320 C   0  0  0  0  0  0  0  0  0  0  0  0
   46.1450   33.9660   44.2680 C   0  0  0  0  0  0  0  0  0  0  0  0
   45.3750   34.2310   45.3540 N   0  0  0  0  0  0  0  0  0  0  0  0
   44.5970   35.3590   45.4330 C   0  0  0  0  0  0  0  0  0  0  0  0
   44.5660   36.2620   44.4240 N   0  0  0  0  0  0  0  0  0  0  0  0
   45.2690   36.7930   42.5270 H   0  0  0  0  0  0  0  0  0  0  0  0
   43.9960   35.5300   46.3230 H   0  0  0  0  0  0  0  0  0  0  0  0
   46.9060   34.7850   42.0680 N   0  0  0  0  0  0  0  0  0  0  0  0
   48.2220   35.3020   42.0250 C   0  0  0  0  0  0  0  0  0  0  0  0
   48.7170   35.4050   40.6070 C   0  0  0  0  0  0  0  0  0  0  0  0
   48.5940   34.1930   39.9040 N   0  0  0  0  0  0  0  0  0  0  0  0
   47.3760   33.5050   40.0470 C   0  0  0  0  0  0  0  0  0  0  0  0
   46.3920   34.2070   40.8510 C   0  0  0  0  0  0  0  0  0  0  0  0
   48.9760   34.6170   42.4320 H   0  0  0  0  0  0  0  0  0  0  0  0
   48.2790   36.3620   42.3940 H   0  0  0  0  0  0  0  0  0  0  0  0
   49.7740   35.7320   40.5990 H   0  0  0  0  0  0  0  0  0  0  0  0
   48.1310   36.2090   40.0930 H   0  0  0  0  0  0  0  0  0  0  0  0
   49.1230   34.0990   39.0380 H   0  0  0  0  0  0  0  0  0  0  0  0
   46.9660   33.3490   39.0050 H   0  0  0  0  0  0  0  0  0  0  0  0
   47.4800   32.4560   40.4320 H   0  0  0  0  0  0  0  0  0  0  0  0
   45.9270   35.0330   40.2360 H   0  0  0  0  0  0  0  0  0  0  0  0
   45.5760   33.4580   41.1170 H   0  0  0  0  0  0  0  0  0  0  0  0
   45.1010   31.4580   42.9590 O   0  0  0  0  0  0  0  0  0  0  0  0
   46.1190   31.5710   43.6960 C   0  0  0  0  0  0  0  0  0  0  0  0
   46.8800   32.7150   44.2830 C   0  0  2  0  0  0  0  0  0  0  0  0
   46.8590   32.1580   45.7450 C   0  0  0  0  0  0  0  0  0  0  0  0
   47.5060   32.7600   46.3980 H   0  0  0  0  0  0  0  0  0  0  0  0
   47.4260   30.7720   45.4570 C   0  0  0  0  0  0  0  0  0  0  0  0
   48.5150   30.8270   45.2850 H   0  0  0  0  0  0  0  0  0  0  0  0
   46.8220   30.4260   44.1620 N   0  0  0  0  0  0  0  0  0  0  0  0
   46.9590   29.4590   43.7510 H   0  0  0  0  0  0  0  0  0  0  0  0
  1  6  1  0  0  0  0
  2  1  2  0  0  0  0
  2  3  1  0  0  0  0
  3  4  2  0  0  0  0
  4  5  1  0  0  0  0
  5  8  1  0  0  0  0
  6  5  2  0  0  0  0
  7  1  1  0  0  0  0
  9  2  1  0  0  0  0
 10  9  1  0  0  0  0
 10 16  1  0  0  0  0
 10 15  1  0  0  0  0
 11 10  1  0  0  0  0
 12 13  1  0  0  0  0
 12 11  1  0  0  0  0
 13 21  1  0  0  0  0
 13 14  1  0  0  0  0
 14 23  1  0  0  0  0
 14  9  1  0  0  0  0
 17 11  1  0  0  0  0
 18 11  1  0  0  0  0
 19 12  1  0  0  0  0
 20 13  1  0  0  0  0
 22 14  1  0  0  0  0
 24 25  2  0  0  0  0
 25 31  1  0  0  0  0
 25 26  1  0  0  0  0
 26  3  1  1  0  0  0
 26 27  1  0  0  0  0
 27 28  1  0  0  0  0
 29 27  1  0  0  0  0
 30 29  1  0  0  0  0
 31 29  1  0  0  0  0
 32 31  1  0  0  0  0
M  END
>  <minimizedAffinity>
-4.92890072

>  <minimizedRMSD>
3.34609437

$$$$
