
 OpenBabel03252508233D

 48 51  0  0  1  0  0  0  0  0999 V2000
   45.8940   33.5600   40.3400 C   0  0  0  0  0  0  0  0  0  0  0  0
   46.9820   34.0940   40.9980 C   0  0  0  0  0  0  0  0  0  0  0  0
   46.9030   35.0240   42.0030 C   0  0  0  0  0  0  0  0  0  0  0  0
   45.6100   35.4330   42.3530 C   0  0  0  0  0  0  0  0  0  0  0  0
   44.4940   34.9360   41.7330 C   0  0  0  0  0  0  0  0  0  0  0  0
   44.6220   34.0110   40.7390 C   0  0  0  0  0  0  0  0  0  0  0  0
   48.0060   33.8210   40.7950 H   0  0  0  0  0  0  0  0  0  0  0  0
   47.7340   35.4560   42.5310 H   0  0  0  0  0  0  0  0  0  0  0  0
   45.4850   36.1770   43.1500 H   0  0  0  0  0  0  0  0  0  0  0  0
   43.5280   35.3070   42.0670 H   0  0  0  0  0  0  0  0  0  0  0  0
   43.4180   33.5540   40.1680 N   0  0  0  0  0  0  0  0  0  0  0  0
   42.8900   34.0140   38.9190 C   0  0  0  0  0  0  0  0  0  0  0  0
   41.8870   33.0280   38.3510 C   0  0  0  0  0  0  0  0  0  0  0  0
   42.2180   31.6570   38.5530 N   0  0  0  0  0  0  0  0  0  0  0  0
   42.4880   31.3070   39.9000 C   0  0  0  0  0  0  0  0  0  0  0  0
   42.5270   32.5450   40.7630 C   0  0  0  0  0  0  0  0  0  0  0  0
   43.5910   34.4020   38.1890 H   0  0  0  0  0  0  0  0  0  0  0  0
   42.2550   34.9090   39.1970 H   0  0  0  0  0  0  0  0  0  0  0  0
   41.8780   33.1960   37.2470 H   0  0  0  0  0  0  0  0  0  0  0  0
   40.8510   33.2040   38.7400 H   0  0  0  0  0  0  0  0  0  0  0  0
   41.5060   31.0970   38.0780 H   0  0  0  0  0  0  0  0  0  0  0  0
   41.7800   30.6020   40.3520 H   0  0  0  0  0  0  0  0  0  0  0  0
   43.5180   30.8590   39.9340 H   0  0  0  0  0  0  0  0  0  0  0  0
   41.5140   32.9660   40.8270 H   0  0  0  0  0  0  0  0  0  0  0  0
   42.8800   32.2840   41.7700 H   0  0  0  0  0  0  0  0  0  0  0  0
   45.9840   32.5670   39.2660 C   0  0  0  0  0  0  0  0  0  0  0  0
   45.5620   32.8890   38.3120 H   0  0  0  0  0  0  0  0  0  0  0  0
   45.3180   31.7160   39.5960 H   0  0  0  0  0  0  0  0  0  0  0  0
   47.4070   32.0910   39.0680 C   0  0  0  0  0  0  0  0  0  0  0  0
   48.1710   32.6640   39.5680 H   0  0  0  0  0  0  0  0  0  0  0  0
   47.4410   31.0010   39.3670 H   0  0  0  0  0  0  0  0  0  0  0  0
   48.4760   33.2110   35.6240 C   0  0  0  0  0  0  0  0  0  0  0  0
   48.1780   33.2500   37.0050 C   0  0  0  0  0  0  0  0  0  0  0  0
   47.7210   32.0830   37.6190 C   0  0  0  0  0  0  0  0  0  0  0  0
   47.5860   30.9600   36.8470 N   0  0  0  0  0  0  0  0  0  0  0  0
   47.8800   30.9630   35.5370 C   0  0  0  0  0  0  0  0  0  0  0  0
   48.3220   32.0810   34.9270 N   0  0  0  0  0  0  0  0  0  0  0  0
   48.8260   34.1400   35.1930 H   0  0  0  0  0  0  0  0  0  0  0  0
   48.3090   34.1660   37.5450 H   0  0  0  0  0  0  0  0  0  0  0  0
   48.5650   27.8540   36.0350 O   0  0  0  0  0  0  0  0  0  0  0  0
   47.6300   28.4980   35.4670 C   0  0  0  0  0  0  0  0  0  0  0  0
   47.7320   29.7390   34.6970 C   0  0  1  0  0  3  0  0  0  0  0  0
   46.4440   29.7860   33.8930 C   0  0  0  0  0  3  0  0  0  0  0  0
   46.1680   30.8690   33.7560 H   0  0  0  0  0  0  0  0  0  0  0  0
   45.4280   29.0190   34.7010 C   0  0  0  0  0  3  0  0  0  0  0  0
   44.9560   29.7350   35.4080 H   0  0  0  0  0  0  0  0  0  0  0  0
   46.2580   28.1160   35.4750 N   0  0  0  0  0  0  0  0  0  0  0  0
   45.8480   27.2760   35.9770 H   0  0  0  0  0  0  0  0  0  0  0  0
  1  6  2  0  0  0  0
  1  2  1  0  0  0  0
  2  3  2  0  0  0  0
  3  4  1  0  0  0  0
  3  8  1  0  0  0  0
  4  9  1  0  0  0  0
  5 10  1  0  0  0  0
  5  4  2  0  0  0  0
  6  5  1  0  0  0  0
  7  2  1  0  0  0  0
 11  6  1  0  0  0  0
 11 16  1  0  0  0  0
 12 18  1  0  0  0  0
 12 11  1  0  0  0  0
 13 14  1  0  0  0  0
 13 20  1  0  0  0  0
 13 12  1  0  0  0  0
 14 15  1  0  0  0  0
 15 23  1  0  0  0  0
 15 22  1  0  0  0  0
 15 16  1  0  0  0  0
 16 24  1  0  0  0  0
 16 25  1  0  0  0  0
 17 12  1  0  0  0  0
 19 13  1  0  0  0  0
 21 14  1  0  0  0  0
 26 28  1  0  0  0  0
 26  1  1  0  0  0  0
 27 26  1  0  0  0  0
 29 26  1  0  0  0  0
 29 31  1  0  0  0  0
 29 30  1  0  0  0  0
 32 33  1  0  0  0  0
 33 39  1  0  0  0  0
 33 34  2  0  0  0  0
 34 29  1  0  0  0  0
 35 34  1  0  0  0  0
 36 35  2  0  0  0  0
 37 36  1  0  0  0  0
 37 32  2  0  0  0  0
 38 32  1  0  0  0  0
 41 47  1  0  0  0  0
 41 40  2  0  0  0  0
 42 41  1  0  0  0  0
 42 36  1  1  0  0  0
 43 42  1  0  0  0  0
 43 45  1  0  0  0  0
 44 43  1  0  0  0  0
 45 46  1  0  0  0  0
 45 47  1  0  0  0  0
 47 48  1  0  0  0  0
M  END
>  <minimizedAffinity>
-3.76838374

>  <minimizedRMSD>
8.02314949

$$$$
