
 OpenBabel03252508323D

 32 34  0  0  1  0  0  0  0  0999 V2000
   46.3290   34.0730   43.1670 N   0  0  0  0  0  0  0  0  0  0  0  0
   47.2470   33.5240   42.2340 C   0  0  1  0  0  0  0  0  0  0  0  0
   47.0890   34.0320   40.8340 C   0  0  0  0  0  0  0  0  0  0  0  0
   45.7830   34.2770   40.3950 N   0  0  0  0  0  0  0  0  0  0  0  0
   44.9080   34.8550   41.3280 C   0  0  0  0  0  0  0  0  0  0  0  0
   45.5610   35.1660   42.6390 C   0  0  0  0  0  0  0  0  0  0  0  0
   47.1030   32.4240   42.2130 H   0  0  0  0  0  0  0  0  0  0  0  0
   47.6080   35.0370   40.8320 H   0  0  0  0  0  0  0  0  0  0  0  0
   47.6170   33.3530   40.1350 H   0  0  0  0  0  0  0  0  0  0  0  0
   45.7430   34.5600   39.4180 H   0  0  0  0  0  0  0  0  0  0  0  0
   44.0330   34.2000   41.4840 H   0  0  0  0  0  0  0  0  0  0  0  0
   44.5800   35.8540   40.9160 H   0  0  0  0  0  0  0  0  0  0  0  0
   44.8280   35.6220   43.3220 H   0  0  0  0  0  0  0  0  0  0  0  0
   46.2800   35.9980   42.4120 H   0  0  0  0  0  0  0  0  0  0  0  0
   45.3800   34.1760   45.3440 C   0  0  0  0  0  0  0  0  0  0  0  0
   46.2620   33.5310   44.4600 C   0  0  0  0  0  0  0  0  0  0  0  0
   46.9910   32.4530   44.9310 C   0  0  0  0  0  0  0  0  0  0  0  0
   46.8600   32.0280   46.2200 N   0  0  0  0  0  0  0  0  0  0  0  0
   45.9950   32.6740   47.0630 C   0  0  0  0  0  0  0  0  0  0  0  0
   45.2740   33.7230   46.6270 N   0  0  0  0  0  0  0  0  0  0  0  0
   44.7310   35.0210   45.1780 H   0  0  0  0  0  0  0  0  0  0  0  0
   47.6600   31.9410   44.2560 H   0  0  0  0  0  0  0  0  0  0  0  0
   45.8910   32.3360   48.0840 H   0  0  0  0  0  0  0  0  0  0  0  0
   49.1950   36.2690   41.8140 O   0  0  0  0  0  0  0  0  0  0  0  0
   49.2410   35.0610   42.2150 C   0  0  0  0  0  0  0  0  0  0  0  0
   48.6920   33.7400   42.5900 C   0  0  2  0  0  3  0  0  0  0  0  0
   49.6270   32.8330   41.8230 C   0  0  0  0  0  3  0  0  0  0  0  0
   49.6580   33.0440   40.7520 H   0  0  0  0  0  0  0  0  0  0  0  0
   50.9610   33.3540   42.3840 C   0  0  0  0  0  3  0  0  0  0  0  0
   51.1770   32.9260   43.3710 H   0  0  0  0  0  0  0  0  0  0  0  0
   50.6460   34.7910   42.4530 N   0  0  0  0  0  0  0  0  0  0  0  0
   51.5620   35.2990   42.6700 H   0  0  0  0  0  0  0  0  0  0  0  0
  1 16  1  0  0  0  0
  2  7  1  6  0  0  0
  2 26  1  0  0  0  0
  2  1  1  0  0  0  0
  3  2  1  0  0  0  0
  4  3  1  0  0  0  0
  4  5  1  0  0  0  0
  5 11  1  0  0  0  0
  5  6  1  0  0  0  0
  6  1  1  0  0  0  0
  6 13  1  0  0  0  0
  8  3  1  0  0  0  0
  9  3  1  0  0  0  0
 10  4  1  0  0  0  0
 12  5  1  0  0  0  0
 14  6  1  0  0  0  0
 15 20  1  0  0  0  0
 16 17  1  0  0  0  0
 16 15  2  0  0  0  0
 17 18  2  0  0  0  0
 18 19  1  0  0  0  0
 19 23  1  0  0  0  0
 20 19  2  0  0  0  0
 21 15  1  0  0  0  0
 22 17  1  0  0  0  0
 24 25  2  0  0  0  0
 25 31  1  0  0  0  0
 25 26  1  0  0  0  0
 26 27  1  6  0  0  0
 27 29  1  0  0  0  0
 28 27  1  0  0  0  0
 29 31  1  0  0  0  0
 29 30  1  0  0  0  0
 31 32  1  0  0  0  0
M  END
>  <minimizedAffinity>
-5.50853014

>  <minimizedRMSD>
2.86711097

$$$$
