
 OpenBabel03252503553D

 20 21  0  0  1  0  0  0  0  0999 V2000
   48.8850   31.0470   42.5900 C   0  0  0  0  0  0  0  0  0  0  0  0
   48.4270   30.5200   41.3700 C   0  0  0  0  0  0  0  0  0  0  0  0
   47.2880   31.1070   40.8160 C   0  0  0  0  0  0  0  0  0  0  0  0
   46.6910   32.1430   41.4830 N   0  0  0  0  0  0  0  0  0  0  0  0
   47.1770   32.6050   42.6510 C   0  0  0  0  0  0  0  0  0  0  0  0
   48.2670   32.0600   43.2010 N   0  0  0  0  0  0  0  0  0  0  0  0
   48.8710   29.7140   40.8270 H   0  0  0  0  0  0  0  0  0  0  0  0
   46.8700   30.7670   39.8850 H   0  0  0  0  0  0  0  0  0  0  0  0
   47.6860   35.4960   41.8790 O   0  0  0  0  0  0  0  0  0  0  0  0
   46.7490   35.0300   42.6060 C   0  0  0  0  0  0  0  0  0  0  0  0
   46.4120   33.7360   43.2460 C   0  0  1  0  0  3  0  0  0  0  0  0
   44.9390   33.6480   43.0470 C   0  0  0  0  0  3  0  0  0  0  0  0
   44.5250   32.9800   43.8440 H   0  0  0  0  0  0  0  0  0  0  0  0
   44.4840   35.0770   43.2330 C   0  0  0  0  0  3  0  0  0  0  0  0
   43.6550   35.3240   42.5380 H   0  0  0  0  0  0  0  0  0  0  0  0
   45.6670   35.8760   42.9800 N   0  0  0  0  0  0  0  0  0  0  0  0
   45.5640   36.9270   43.1050 H   0  0  0  0  0  0  0  0  0  0  0  0
   50.0520   30.4030   43.1000 C   0  0  0  0  0  0  0  0  0  0  0  0
   51.2530   30.8080   42.9970 O   0  0  0  0  0  0  0  0  0  0  0  0
   50.1980   29.4840   43.6560 H   0  0  0  0  0  0  0  0  0  0  0  0
  1 18  1  0  0  0  0
  1  6  1  0  0  0  0
  2  1  2  0  0  0  0
  3  2  1  0  0  0  0
  3  4  2  0  0  0  0
  4  5  1  0  0  0  0
  5  6  2  0  0  0  0
  7  2  1  0  0  0  0
  8  3  1  0  0  0  0
  9 10  2  0  0  0  0
 10 16  1  0  0  0  0
 10 11  1  0  0  0  0
 11  5  1  6  0  0  0
 12 14  1  0  0  0  0
 12 11  1  0  0  0  0
 12 13  1  0  0  0  0
 15 14  1  0  0  0  0
 16 17  1  0  0  0  0
 16 14  1  0  0  0  0
 18 20  1  0  0  0  0
 19 18  2  0  0  0  0
M  END
>  <minimizedAffinity>
-2.66190243

>  <minimizedRMSD>
5.24938774

$$$$
