
 OpenBabel03252508383D

 41 44  0  0  1  0  0  0  0  0999 V2000
   45.0980   33.9880   40.7350 C   0  0  0  0  0  0  0  0  0  0  0  0
   44.0540   33.6400   39.9260 C   0  0  0  0  0  0  0  0  0  0  0  0
   44.3670   33.1030   38.7110 C   0  0  0  0  0  0  0  0  0  0  0  0
   45.6530   32.8960   38.2660 C   0  0  0  0  0  0  0  0  0  0  0  0
   46.6740   33.2590   39.1110 C   0  0  0  0  0  0  0  0  0  0  0  0
   46.4250   33.8050   40.3470 C   0  0  0  0  0  0  0  0  0  0  0  0
   43.5550   32.8200   38.0510 H   0  0  0  0  0  0  0  0  0  0  0  0
   45.8280   32.4640   37.2880 H   0  0  0  0  0  0  0  0  0  0  0  0
   47.6840   33.0950   38.7590 H   0  0  0  0  0  0  0  0  0  0  0  0
   40.7710   35.2680   40.8070 C   0  0  0  0  0  0  0  0  0  0  0  0
   42.0790   35.1090   40.2940 C   0  0  0  0  0  0  0  0  0  0  0  0
   42.7190   33.8730   40.4270 C   0  0  0  0  0  0  0  0  0  0  0  0
   41.9990   32.9050   41.0590 N   0  0  0  0  0  0  0  0  0  0  0  0
   40.7660   33.0790   41.5340 C   0  0  0  0  0  0  0  0  0  0  0  0
   40.1580   34.2620   41.4060 N   0  0  0  0  0  0  0  0  0  0  0  0
   40.1780   36.5510   40.6380 N   0  0  0  0  0  0  0  0  0  0  0  0
   42.6460   35.8750   39.7950 H   0  0  0  0  0  0  0  0  0  0  0  0
   40.2120   32.2970   42.0330 H   0  0  0  0  0  0  0  0  0  0  0  0
   39.9880   36.8290   39.6490 H   0  0  0  0  0  0  0  0  0  0  0  0
   39.9320   37.2070   41.4310 H   0  0  0  0  0  0  0  0  0  0  0  0
   47.5710   34.1550   41.1640 C   0  0  0  0  0  0  0  0  0  0  0  0
   48.1590   35.3740   40.8670 C   0  0  0  0  0  0  0  0  0  0  0  0
   49.2680   35.8810   41.5420 C   0  0  0  0  0  0  0  0  0  0  0  0
   49.7940   35.1080   42.5620 C   0  0  0  0  0  0  0  0  0  0  0  0
   49.2180   33.8910   42.8690 C   0  0  0  0  0  0  0  0  0  0  0  0
   48.1120   33.4110   42.1780 C   0  0  0  0  0  0  0  0  0  0  0  0
   47.7890   36.0200   40.0790 H   0  0  0  0  0  0  0  0  0  0  0  0
   49.7010   36.8370   41.2840 H   0  0  0  0  0  0  0  0  0  0  0  0
   50.6530   35.4420   43.1270 H   0  0  0  0  0  0  0  0  0  0  0  0
   49.6590   33.3240   43.6680 H   0  0  0  0  0  0  0  0  0  0  0  0
   49.1330   30.9710   41.0580 O   0  0  0  0  0  0  0  0  0  0  0  0
   48.3210   30.9590   42.0450 C   0  0  0  0  0  0  0  0  0  0  0  0
   47.4900   32.1250   42.4860 C   0  0  1  0  0  3  0  0  0  0  0  0
   47.3250   31.8570   43.9530 C   0  0  0  0  0  3  0  0  0  0  0  0
   47.9330   32.5980   44.5060 H   0  0  0  0  0  0  0  0  0  0  0  0
   47.7440   30.4360   44.2050 C   0  0  0  0  0  3  0  0  0  0  0  0
   48.6710   30.4830   44.8270 H   0  0  0  0  0  0  0  0  0  0  0  0
   48.0480   29.8610   42.9080 N   0  0  0  0  0  0  0  0  0  0  0  0
   48.0690   28.8620   42.6360 H   0  0  0  0  0  0  0  0  0  0  0  0
   44.6760   35.0180   43.1140 N   0  0  0  0  0  0  0  0  0  0  0  0
   44.8600   34.5650   42.0420 C   0  0  0  0  0  0  0  0  0  0  0  0
  1 41  1  0  0  0  0
  2 12  1  0  0  0  0
  2  1  2  0  0  0  0
  3  2  1  0  0  0  0
  4  3  2  0  0  0  0
  4  5  1  0  0  0  0
  5  6  2  0  0  0  0
  6  1  1  0  0  0  0
  6 21  1  0  0  0  0
  7  3  1  0  0  0  0
  8  4  1  0  0  0  0
  9  5  1  0  0  0  0
 10 15  1  0  0  0  0
 11 12  1  0  0  0  0
 11 10  2  0  0  0  0
 12 13  2  0  0  0  0
 13 14  1  0  0  0  0
 14 18  1  0  0  0  0
 15 14  2  0  0  0  0
 16 10  1  0  0  0  0
 16 20  1  0  0  0  0
 17 11  1  0  0  0  0
 19 16  1  0  0  0  0
 21 26  1  0  0  0  0
 22 21  2  0  0  0  0
 22 23  1  0  0  0  0
 23 24  2  0  0  0  0
 24 25  1  0  0  0  0
 24 29  1  0  0  0  0
 25 30  1  0  0  0  0
 26 25  2  0  0  0  0
 27 22  1  0  0  0  0
 28 23  1  0  0  0  0
 31 32  2  0  0  0  0
 32 33  1  0  0  0  0
 32 38  1  0  0  0  0
 33 26  1  1  0  0  0
 33 34  1  0  0  0  0
 34 36  1  0  0  0  0
 34 35  1  0  0  0  0
 36 37  1  0  0  0  0
 38 36  1  0  0  0  0
 39 38  1  0  0  0  0
 41 40  3  0  0  0  0
M  END
>  <minimizedAffinity>
-6.18736792

>  <minimizedRMSD>
0.768393934

$$$$
