
 OpenBabel03242518273D

 45 49  0  0  1  0  0  0  0  0999 V2000
   36.1920   25.1400   39.2180 C   0  0  0  0  0  0  0  0  0  0  0  0
   36.2350   24.0020   40.0180 C   0  0  0  0  0  0  0  0  0  0  0  0
   36.8670   24.1090   41.2630 C   0  0  0  0  0  0  0  0  0  0  0  0
   37.4030   25.2910   41.6360 N   0  0  0  0  0  0  0  0  0  0  0  0
   37.3420   26.3790   40.8300 C   0  0  0  0  0  0  0  0  0  0  0  0
   36.7400   26.3080   39.6270 N   0  0  0  0  0  0  0  0  0  0  0  0
   35.7360   25.2050   38.2310 H   0  0  0  0  0  0  0  0  0  0  0  0
   36.8870   23.2230   41.8570 H   0  0  0  0  0  0  0  0  0  0  0  0
   35.6310   22.8370   39.4920 N   0  0  0  0  0  0  0  0  0  0  0  0
   34.1940   22.8100   39.4250 C   0  0  0  0  0  0  0  0  0  0  0  0
   33.6420   21.5060   38.9800 C   0  0  0  0  0  0  0  0  0  0  0  0
   34.2820   21.0460   37.7830 N   0  0  0  0  0  0  0  0  0  0  0  0
   35.6690   21.2380   37.6710 C   0  0  0  0  0  0  0  0  0  0  0  0
   36.2710   21.6640   39.0110 C   0  0  0  0  0  0  0  0  0  0  0  0
   33.7530   23.1440   40.3800 H   0  0  0  0  0  0  0  0  0  0  0  0
   33.8940   23.5890   38.6720 H   0  0  0  0  0  0  0  0  0  0  0  0
   33.8480   20.7440   39.7830 H   0  0  0  0  0  0  0  0  0  0  0  0
   32.5650   21.6040   38.8140 H   0  0  0  0  0  0  0  0  0  0  0  0
   33.9160   20.1340   37.4520 H   0  0  0  0  0  0  0  0  0  0  0  0
   35.9890   21.9450   36.9030 H   0  0  0  0  0  0  0  0  0  0  0  0
   36.1520   20.2440   37.4470 H   0  0  0  0  0  0  0  0  0  0  0  0
   36.2480   20.8000   39.6990 H   0  0  0  0  0  0  0  0  0  0  0  0
   37.3520   21.9030   38.7840 H   0  0  0  0  0  0  0  0  0  0  0  0
   38.0570   27.9160   42.6210 C   0  0  0  0  0  0  0  0  0  0  0  0
   37.9480   27.6380   41.3010 C   0  0  0  0  0  0  0  0  0  0  0  0
   38.4180   28.5640   40.3890 C   0  0  0  0  0  0  0  0  0  0  0  0
   38.9870   29.7460   40.8370 C   0  0  0  0  0  0  0  0  0  0  0  0
   39.0910   30.0140   42.2010 C   0  0  0  0  0  0  0  0  0  0  0  0
   38.6150   29.0790   43.1110 C   0  0  0  0  0  0  0  0  0  0  0  0
   39.7000   31.2690   42.3360 O   0  0  0  0  0  0  0  0  0  0  0  0
   39.7100   31.8930   41.0620 C   0  0  1  0  0  0  0  0  0  0  0  0
   39.5320   30.8350   40.1630 O   0  0  0  0  0  0  0  0  0  0  0  0
   37.6930   27.1990   43.3510 H   0  0  0  0  0  0  0  0  0  0  0  0
   38.3640   28.4100   39.3270 H   0  0  0  0  0  0  0  0  0  0  0  0
   38.6830   29.2590   44.1790 H   0  0  0  0  0  0  0  0  0  0  0  0
   40.6840   32.3670   40.8930 H   0  0  0  0  0  0  0  0  0  0  0  0
   40.1110   34.9210   40.8190 O   0  0  0  0  0  0  0  0  0  0  0  0
   39.0850   34.2290   40.5160 C   0  0  0  0  0  0  0  0  0  0  0  0
   38.5820   32.8970   40.9310 C   0  0  1  0  0  3  0  0  0  0  0  0
   37.7490   32.4880   39.7400 C   0  0  0  0  0  3  0  0  0  0  0  0
   37.0140   31.7260   40.0350 H   0  0  0  0  0  0  0  0  0  0  0  0
   37.0870   33.7860   39.3180 C   0  0  0  0  0  3  0  0  0  0  0  0
   36.8540   33.8150   38.2360 H   0  0  0  0  0  0  0  0  0  0  0  0
   38.1370   34.7600   39.5760 N   0  0  0  0  0  0  0  0  0  0  0  0
   38.1430   35.7100   39.1050 H   0  0  0  0  0  0  0  0  0  0  0  0
  1  6  2  0  0  0  0
  1  2  1  0  0  0  0
  2  3  2  0  0  0  0
  3  4  1  0  0  0  0
  3  8  1  0  0  0  0
  5 25  1  0  0  0  0
  5  4  2  0  0  0  0
  6  5  1  0  0  0  0
  7  1  1  0  0  0  0
  9  2  1  0  0  0  0
 10  9  1  0  0  0  0
 10 15  1  0  0  0  0
 11 10  1  0  0  0  0
 11 17  1  0  0  0  0
 12 11  1  0  0  0  0
 13 12  1  0  0  0  0
 13 14  1  0  0  0  0
 14  9  1  0  0  0  0
 14 22  1  0  0  0  0
 16 10  1  0  0  0  0
 18 11  1  0  0  0  0
 19 12  1  0  0  0  0
 20 13  1  0  0  0  0
 21 13  1  0  0  0  0
 23 14  1  0  0  0  0
 24 29  1  0  0  0  0
 24 33  1  0  0  0  0
 25 24  2  0  0  0  0
 26 27  2  0  0  0  0
 26 25  1  0  0  0  0
 27 28  1  0  0  0  0
 28 30  1  0  0  0  0
 28 29  2  0  0  0  0
 29 35  1  0  0  0  0
 31 36  1  6  0  0  0
 31 30  1  0  0  0  0
 32 27  1  0  0  0  0
 32 31  1  0  0  0  0
 34 26  1  0  0  0  0
 38 37  2  0  0  0  0
 38 39  1  0  0  0  0
 39 40  1  6  0  0  0
 39 31  1  0  0  0  0
 40 41  1  0  0  0  0
 42 44  1  0  0  0  0
 42 40  1  0  0  0  0
 43 42  1  0  0  0  0
 44 38  1  0  0  0  0
 45 44  1  0  0  0  0
M  END
>  <minimizedAffinity>
-5.94750261

$$$$

 OpenBabel03242518273D

 45 49  0  0  1  0  0  0  0  0999 V2000
   32.4260   29.9670   34.8270 C   0  0  0  0  0  0  0  0  0  0  0  0
   31.2850   30.3540   35.5240 C   0  0  0  0  0  0  0  0  0  0  0  0
   31.2060   30.0090   36.8790 C   0  0  0  0  0  0  0  0  0  0  0  0
   32.2200   29.3260   37.4500 N   0  0  0  0  0  0  0  0  0  0  0  0
   33.3170   28.9650   36.7400 C   0  0  0  0  0  0  0  0  0  0  0  0
   33.4230   29.2830   35.4350 N   0  0  0  0  0  0  0  0  0  0  0  0
   32.6240   30.1650   33.7740 H   0  0  0  0  0  0  0  0  0  0  0  0
   30.3210   30.3170   37.3900 H   0  0  0  0  0  0  0  0  0  0  0  0
   30.3070   31.0640   34.7900 N   0  0  0  0  0  0  0  0  0  0  0  0
   29.8090   32.2870   35.3640 C   0  0  0  0  0  0  0  0  0  0  0  0
   28.7000   32.8980   34.5900 C   0  0  0  0  0  0  0  0  0  0  0  0
   29.0250   33.0060   33.1990 N   0  0  0  0  0  0  0  0  0  0  0  0
   29.7190   31.9370   32.6080 C   0  0  0  0  0  0  0  0  0  0  0  0
   29.7400   30.7200   33.5350 C   0  0  0  0  0  0  0  0  0  0  0  0
   29.5460   32.1400   36.4240 H   0  0  0  0  0  0  0  0  0  0  0  0
   30.6690   33.0110   35.3690 H   0  0  0  0  0  0  0  0  0  0  0  0
   27.8010   32.2250   34.6710 H   0  0  0  0  0  0  0  0  0  0  0  0
   28.4740   33.8880   34.9990 H   0  0  0  0  0  0  0  0  0  0  0  0
   28.2650   33.4300   32.6350 H   0  0  0  0  0  0  0  0  0  0  0  0
   30.7400   32.1520   32.2900 H   0  0  0  0  0  0  0  0  0  0  0  0
   29.1410   31.5930   31.7020 H   0  0  0  0  0  0  0  0  0  0  0  0
   28.7220   30.2930   33.5800 H   0  0  0  0  0  0  0  0  0  0  0  0
   30.4110   29.9720   33.0210 H   0  0  0  0  0  0  0  0  0  0  0  0
   34.5020   26.8770   37.3000 C   0  0  0  0  0  0  0  0  0  0  0  0
   34.3880   28.2200   37.4270 C   0  0  0  0  0  0  0  0  0  0  0  0
   35.2990   28.8900   38.2210 C   0  0  0  0  0  0  0  0  0  0  0  0
   36.3030   28.1840   38.8640 C   0  0  0  0  0  0  0  0  0  0  0  0
   36.4060   26.8010   38.7220 C   0  0  0  0  0  0  0  0  0  0  0  0
   35.4850   26.1350   37.9220 C   0  0  0  0  0  0  0  0  0  0  0  0
   37.5050   26.3810   39.4820 O   0  0  0  0  0  0  0  0  0  0  0  0
   37.9010   27.4600   40.3160 C   0  0  1  0  0  0  0  0  0  0  0  0
   37.3370   28.5860   39.7060 O   0  0  0  0  0  0  0  0  0  0  0  0
   33.7940   26.3350   36.6810 H   0  0  0  0  0  0  0  0  0  0  0  0
   35.2680   29.9540   38.3660 H   0  0  0  0  0  0  0  0  0  0  0  0
   35.5400   25.0580   37.7920 H   0  0  0  0  0  0  0  0  0  0  0  0
   38.9940   27.5420   40.3140 H   0  0  0  0  0  0  0  0  0  0  0  0
   39.1800   25.6720   42.4500 O   0  0  0  0  0  0  0  0  0  0  0  0
   38.3560   26.6310   42.6070 C   0  0  0  0  0  0  0  0  0  0  0  0
   37.3660   27.2940   41.7240 C   0  0  1  0  0  3  0  0  0  0  0  0
   37.2680   28.6710   42.3350 C   0  0  0  0  0  3  0  0  0  0  0  0
   36.3190   29.1460   42.0500 H   0  0  0  0  0  0  0  0  0  0  0  0
   37.3420   28.3950   43.8250 C   0  0  0  0  0  3  0  0  0  0  0  0
   37.7710   29.2400   44.3960 H   0  0  0  0  0  0  0  0  0  0  0  0
   38.2860   27.2890   43.8830 N   0  0  0  0  0  0  0  0  0  0  0  0
   38.8140   27.0530   44.7710 H   0  0  0  0  0  0  0  0  0  0  0  0
  1  6  2  0  0  0  0
  1  2  1  0  0  0  0
  2  3  2  0  0  0  0
  3  8  1  0  0  0  0
  3  4  1  0  0  0  0
  5 25  1  0  0  0  0
  5  4  2  0  0  0  0
  6  5  1  0  0  0  0
  7  1  1  0  0  0  0
  9 10  1  0  0  0  0
  9  2  1  0  0  0  0
 10 16  1  0  0  0  0
 10 15  1  0  0  0  0
 11 17  1  0  0  0  0
 11 18  1  0  0  0  0
 11 10  1  0  0  0  0
 12 11  1  0  0  0  0
 13 12  1  0  0  0  0
 13 14  1  0  0  0  0
 14 22  1  0  0  0  0
 14  9  1  0  0  0  0
 19 12  1  0  0  0  0
 20 13  1  0  0  0  0
 21 13  1  0  0  0  0
 23 14  1  0  0  0  0
 24 25  2  0  0  0  0
 24 29  1  0  0  0  0
 25 26  1  0  0  0  0
 26 34  1  0  0  0  0
 26 27  2  0  0  0  0
 27 32  1  0  0  0  0
 28 27  1  0  0  0  0
 28 30  1  0  0  0  0
 29 28  2  0  0  0  0
 30 31  1  0  0  0  0
 31 36  1  1  0  0  0
 31 39  1  0  0  0  0
 32 31  1  0  0  0  0
 33 24  1  0  0  0  0
 35 29  1  0  0  0  0
 37 38  2  0  0  0  0
 38 44  1  0  0  0  0
 39 40  1  1  0  0  0
 39 38  1  0  0  0  0
 40 42  1  0  0  0  0
 41 40  1  0  0  0  0
 42 44  1  0  0  0  0
 42 43  1  0  0  0  0
 44 45  1  0  0  0  0
M  END
>  <minimizedAffinity>
-5.77327633

$$$$

 OpenBabel03242518273D

 45 49  0  0  1  0  0  0  0  0999 V2000
   37.7210   26.4090   39.8900 C   0  0  0  0  0  0  0  0  0  0  0  0
   37.5430   26.9980   41.1380 C   0  0  0  0  0  0  0  0  0  0  0  0
   36.5980   28.0280   41.2380 C   0  0  0  0  0  0  0  0  0  0  0  0
   35.9090   28.4060   40.1410 N   0  0  0  0  0  0  0  0  0  0  0  0
   36.1100   27.8090   38.9410 C   0  0  0  0  0  0  0  0  0  0  0  0
   37.0100   26.8150   38.8120 N   0  0  0  0  0  0  0  0  0  0  0  0
   38.4160   25.6010   39.6630 H   0  0  0  0  0  0  0  0  0  0  0  0
   36.4810   28.4630   42.2060 H   0  0  0  0  0  0  0  0  0  0  0  0
   38.3380   26.4950   42.1930 N   0  0  0  0  0  0  0  0  0  0  0  0
   38.9510   25.2070   42.0030 C   0  0  0  0  0  0  0  0  0  0  0  0
   39.6610   24.7030   43.2050 C   0  0  0  0  0  0  0  0  0  0  0  0
   40.5490   25.6890   43.7440 N   0  0  0  0  0  0  0  0  0  0  0  0
   40.1080   27.0230   43.7610 C   0  0  0  0  0  0  0  0  0  0  0  0
   38.6150   27.1080   43.4440 C   0  0  0  0  0  0  0  0  0  0  0  0
   38.2180   24.4800   41.6170 H   0  0  0  0  0  0  0  0  0  0  0  0
   39.7070   25.3310   41.1810 H   0  0  0  0  0  0  0  0  0  0  0  0
   38.8940   24.4760   43.9980 H   0  0  0  0  0  0  0  0  0  0  0  0
   40.2190   23.7980   42.9450 H   0  0  0  0  0  0  0  0  0  0  0  0
   41.0570   25.3620   44.5870 H   0  0  0  0  0  0  0  0  0  0  0  0
   40.6460   27.7080   43.1020 H   0  0  0  0  0  0  0  0  0  0  0  0
   40.1980   27.4170   44.8130 H   0  0  0  0  0  0  0  0  0  0  0  0
   38.0480   26.7040   44.3020 H   0  0  0  0  0  0  0  0  0  0  0  0
   38.3940   28.2130   43.3680 H   0  0  0  0  0  0  0  0  0  0  0  0
   35.9250   28.7060   36.6520 C   0  0  0  0  0  0  0  0  0  0  0  0
   35.3220   28.2720   37.7830 C   0  0  0  0  0  0  0  0  0  0  0  0
   33.9420   28.2700   37.8400 C   0  0  0  0  0  0  0  0  0  0  0  0
   33.2070   28.7060   36.7490 C   0  0  0  0  0  0  0  0  0  0  0  0
   33.8440   29.1490   35.5910 C   0  0  0  0  0  0  0  0  0  0  0  0
   35.2330   29.1490   35.5430 C   0  0  0  0  0  0  0  0  0  0  0  0
   32.8480   29.5200   34.6780 O   0  0  0  0  0  0  0  0  0  0  0  0
   31.6120   29.5750   35.3750 C   0  0  1  0  0  0  0  0  0  0  0  0
   31.8370   28.8130   36.5260 O   0  0  0  0  0  0  0  0  0  0  0  0
   37.0090   28.7140   36.5910 H   0  0  0  0  0  0  0  0  0  0  0  0
   33.3980   27.9390   38.7050 H   0  0  0  0  0  0  0  0  0  0  0  0
   35.7580   29.4880   34.6550 H   0  0  0  0  0  0  0  0  0  0  0  0
   30.8270   29.1110   34.7660 H   0  0  0  0  0  0  0  0  0  0  0  0
   30.1510   31.5220   33.5150 O   0  0  0  0  0  0  0  0  0  0  0  0
   30.2830   31.5810   34.7800 C   0  0  0  0  0  0  0  0  0  0  0  0
   31.2500   30.9990   35.7430 C   0  0  1  0  0  3  0  0  0  0  0  0
   30.4360   30.9450   37.0140 C   0  0  0  0  0  3  0  0  0  0  0  0
   31.1010   30.9060   37.8880 H   0  0  0  0  0  0  0  0  0  0  0  0
   29.6310   32.2290   36.9660 C   0  0  0  0  0  3  0  0  0  0  0  0
   28.6660   32.1490   37.5030 H   0  0  0  0  0  0  0  0  0  0  0  0
   29.3450   32.3550   35.5450 N   0  0  0  0  0  0  0  0  0  0  0  0
   28.5430   32.9500   35.1890 H   0  0  0  0  0  0  0  0  0  0  0  0
  1  2  1  0  0  0  0
  2  3  2  0  0  0  0
  2  9  1  0  0  0  0
  3  8  1  0  0  0  0
  4  3  1  0  0  0  0
  5  4  2  0  0  0  0
  6  5  1  0  0  0  0
  6  1  2  0  0  0  0
  7  1  1  0  0  0  0
  9 14  1  0  0  0  0
 10  9  1  0  0  0  0
 10 11  1  0  0  0  0
 11 12  1  0  0  0  0
 11 17  1  0  0  0  0
 12 13  1  0  0  0  0
 12 19  1  0  0  0  0
 13 21  1  0  0  0  0
 14 13  1  0  0  0  0
 14 22  1  0  0  0  0
 15 10  1  0  0  0  0
 16 10  1  0  0  0  0
 18 11  1  0  0  0  0
 20 13  1  0  0  0  0
 23 14  1  0  0  0  0
 24 25  1  0  0  0  0
 25 26  2  0  0  0  0
 25  5  1  0  0  0  0
 26 34  1  0  0  0  0
 27 26  1  0  0  0  0
 28 27  2  0  0  0  0
 29 28  1  0  0  0  0
 29 24  2  0  0  0  0
 30 31  1  0  0  0  0
 30 28  1  0  0  0  0
 31 36  1  6  0  0  0
 31 39  1  0  0  0  0
 31 32  1  0  0  0  0
 32 27  1  0  0  0  0
 33 24  1  0  0  0  0
 35 29  1  0  0  0  0
 37 38  2  0  0  0  0
 38 44  1  0  0  0  0
 39 38  1  6  0  0  0
 39 40  1  0  0  0  0
 40 41  1  0  0  0  0
 42 40  1  0  0  0  0
 42 43  1  0  0  0  0
 44 42  1  0  0  0  0
 45 44  1  0  0  0  0
M  END
>  <minimizedAffinity>
-5.60722685

$$$$

 OpenBabel03242518273D

 45 49  0  0  1  0  0  0  0  0999 V2000
   36.2890   27.0550   38.6880 C   0  0  0  0  0  0  0  0  0  0  0  0
   36.6690   26.2510   39.7580 C   0  0  0  0  0  0  0  0  0  0  0  0
   37.3560   26.8620   40.8150 C   0  0  0  0  0  0  0  0  0  0  0  0
   37.6200   28.1840   40.7590 N   0  0  0  0  0  0  0  0  0  0  0  0
   37.2340   28.9370   39.7000 C   0  0  0  0  0  0  0  0  0  0  0  0
   36.5710   28.3790   38.6680 N   0  0  0  0  0  0  0  0  0  0  0  0
   35.7520   26.7200   37.8010 H   0  0  0  0  0  0  0  0  0  0  0  0
   37.6360   26.2230   41.6230 H   0  0  0  0  0  0  0  0  0  0  0  0
   36.3220   24.8830   39.6750 N   0  0  0  0  0  0  0  0  0  0  0  0
   35.6140   24.4510   38.4990 C   0  0  0  0  0  0  0  0  0  0  0  0
   35.1810   23.0320   38.5520 C   0  0  0  0  0  0  0  0  0  0  0  0
   36.2610   22.1660   38.9240 N   0  0  0  0  0  0  0  0  0  0  0  0
   37.1420   22.6160   39.9220 C   0  0  0  0  0  0  0  0  0  0  0  0
   36.5870   23.8580   40.6210 C   0  0  0  0  0  0  0  0  0  0  0  0
   34.7770   25.1330   38.2750 H   0  0  0  0  0  0  0  0  0  0  0  0
   36.3270   24.5630   37.6370 H   0  0  0  0  0  0  0  0  0  0  0  0
   34.3880   22.9360   39.3450 H   0  0  0  0  0  0  0  0  0  0  0  0
   34.7840   22.7360   37.5760 H   0  0  0  0  0  0  0  0  0  0  0  0
   35.9840   21.1680   38.9700 H   0  0  0  0  0  0  0  0  0  0  0  0
   38.1610   22.8250   39.5940 H   0  0  0  0  0  0  0  0  0  0  0  0
   37.1940   21.8340   40.7330 H   0  0  0  0  0  0  0  0  0  0  0  0
   35.7240   23.5570   41.2420 H   0  0  0  0  0  0  0  0  0  0  0  0
   37.4130   24.1990   41.3110 H   0  0  0  0  0  0  0  0  0  0  0  0
   36.8770   31.2490   38.9220 C   0  0  0  0  0  0  0  0  0  0  0  0
   37.5550   30.3760   39.7040 C   0  0  0  0  0  0  0  0  0  0  0  0
   38.5650   30.8580   40.5140 C   0  0  0  0  0  0  0  0  0  0  0  0
   38.8620   32.2120   40.5130 C   0  0  0  0  0  0  0  0  0  0  0  0
   38.1530   33.0970   39.7020 C   0  0  0  0  0  0  0  0  0  0  0  0
   37.1390   32.6040   38.8900 C   0  0  0  0  0  0  0  0  0  0  0  0
   38.6780   34.3780   39.9190 O   0  0  0  0  0  0  0  0  0  0  0  0
   39.8910   34.2390   40.6430 C   0  0  1  0  0  0  0  0  0  0  0  0
   39.8050   32.9630   41.2100 O   0  0  0  0  0  0  0  0  0  0  0  0
   36.0810   30.8870   38.2790 H   0  0  0  0  0  0  0  0  0  0  0  0
   39.1430   30.2230   41.1580 H   0  0  0  0  0  0  0  0  0  0  0  0
   36.5700   33.2680   38.2470 H   0  0  0  0  0  0  0  0  0  0  0  0
   39.9340   34.9970   41.4340 H   0  0  0  0  0  0  0  0  0  0  0  0
   42.6400   35.2810   41.5040 O   0  0  0  0  0  0  0  0  0  0  0  0
   42.3430   34.5680   40.4920 C   0  0  0  0  0  0  0  0  0  0  0  0
   41.0940   34.3340   39.7270 C   0  0  1  0  0  3  0  0  0  0  0  0
   41.3300   32.9590   39.1480 C   0  0  0  0  0  3  0  0  0  0  0  0
   40.6920   32.8050   38.2660 H   0  0  0  0  0  0  0  0  0  0  0  0
   42.8030   32.9830   38.7890 C   0  0  0  0  0  3  0  0  0  0  0  0
   43.2680   31.9780   38.8210 H   0  0  0  0  0  0  0  0  0  0  0  0
   43.3680   33.7720   39.8730 N   0  0  0  0  0  0  0  0  0  0  0  0
   44.3980   33.7230   40.1200 H   0  0  0  0  0  0  0  0  0  0  0  0
  1  2  1  0  0  0  0
  2  3  2  0  0  0  0
  3  8  1  0  0  0  0
  4  3  1  0  0  0  0
  5 25  1  0  0  0  0
  5  4  2  0  0  0  0
  6  1  2  0  0  0  0
  6  5  1  0  0  0  0
  7  1  1  0  0  0  0
  9  2  1  0  0  0  0
  9 14  1  0  0  0  0
 10 11  1  0  0  0  0
 10  9  1  0  0  0  0
 11 12  1  0  0  0  0
 11 17  1  0  0  0  0
 12 19  1  0  0  0  0
 12 13  1  0  0  0  0
 13 14  1  0  0  0  0
 13 21  1  0  0  0  0
 14 22  1  0  0  0  0
 14 23  1  0  0  0  0
 15 10  1  0  0  0  0
 16 10  1  0  0  0  0
 18 11  1  0  0  0  0
 20 13  1  0  0  0  0
 24 25  1  0  0  0  0
 25 26  2  0  0  0  0
 26 34  1  0  0  0  0
 27 26  1  0  0  0  0
 27 32  1  0  0  0  0
 28 30  1  0  0  0  0
 28 27  2  0  0  0  0
 29 24  2  0  0  0  0
 29 28  1  0  0  0  0
 30 31  1  0  0  0  0
 31 32  1  0  0  0  0
 31 36  1  1  0  0  0
 33 24  1  0  0  0  0
 35 29  1  0  0  0  0
 38 37  2  0  0  0  0
 39 40  1  1  0  0  0
 39 38  1  0  0  0  0
 39 31  1  0  0  0  0
 41 40  1  0  0  0  0
 42 43  1  0  0  0  0
 42 40  1  0  0  0  0
 42 44  1  0  0  0  0
 44 45  1  0  0  0  0
 44 38  1  0  0  0  0
M  END
>  <minimizedAffinity>
-5.52019596

$$$$

 OpenBabel03242518273D

 45 49  0  0  1  0  0  0  0  0999 V2000
   39.5370   31.2920   41.9730 C   0  0  0  0  0  0  0  0  0  0  0  0
   40.1580   31.6510   40.7810 C   0  0  0  0  0  0  0  0  0  0  0  0
   40.1530   30.7140   39.7410 C   0  0  0  0  0  0  0  0  0  0  0  0
   39.5590   29.5170   39.9280 N   0  0  0  0  0  0  0  0  0  0  0  0
   38.9630   29.2010   41.1040 C   0  0  0  0  0  0  0  0  0  0  0  0
   38.9500   30.0810   42.1240 N   0  0  0  0  0  0  0  0  0  0  0  0
   39.4630   31.9150   42.8640 H   0  0  0  0  0  0  0  0  0  0  0  0
   40.6360   31.0140   38.8370 H   0  0  0  0  0  0  0  0  0  0  0  0
   40.7380   32.9400   40.7350 N   0  0  0  0  0  0  0  0  0  0  0  0
   42.1040   33.0660   41.1690 C   0  0  0  0  0  0  0  0  0  0  0  0
   42.5900   34.4680   41.2060 C   0  0  0  0  0  0  0  0  0  0  0  0
   42.3100   35.1550   39.9800 N   0  0  0  0  0  0  0  0  0  0  0  0
   41.0700   34.9120   39.3660 C   0  0  0  0  0  0  0  0  0  0  0  0
   40.1340   34.1520   40.3080 C   0  0  0  0  0  0  0  0  0  0  0  0
   42.2580   32.5470   42.1300 H   0  0  0  0  0  0  0  0  0  0  0  0
   42.7300   32.5020   40.4240 H   0  0  0  0  0  0  0  0  0  0  0  0
   42.0400   35.0100   42.0250 H   0  0  0  0  0  0  0  0  0  0  0  0
   43.6670   34.4750   41.4010 H   0  0  0  0  0  0  0  0  0  0  0  0
   42.6390   36.1380   39.9810 H   0  0  0  0  0  0  0  0  0  0  0  0
   41.1090   34.3850   38.4110 H   0  0  0  0  0  0  0  0  0  0  0  0
   40.5560   35.9000   39.1930 H   0  0  0  0  0  0  0  0  0  0  0  0
   39.8220   34.8330   41.1190 H   0  0  0  0  0  0  0  0  0  0  0  0
   39.2250   33.9100   39.6850 H   0  0  0  0  0  0  0  0  0  0  0  0
   38.0150   27.3700   42.4540 C   0  0  0  0  0  0  0  0  0  0  0  0
   38.3320   27.8750   41.2400 C   0  0  0  0  0  0  0  0  0  0  0  0
   38.0550   27.1210   40.1160 C   0  0  0  0  0  0  0  0  0  0  0  0
   37.4620   25.8760   40.2500 C   0  0  0  0  0  0  0  0  0  0  0  0
   37.1410   25.3710   41.5090 C   0  0  0  0  0  0  0  0  0  0  0  0
   37.4240   26.1360   42.6350 C   0  0  0  0  0  0  0  0  0  0  0  0
   36.5620   24.1090   41.3210 O   0  0  0  0  0  0  0  0  0  0  0  0
   36.7890   23.7180   39.9760 C   0  0  1  0  0  0  0  0  0  0  0  0
   37.0770   24.9180   39.3160 O   0  0  0  0  0  0  0  0  0  0  0  0
   38.2250   27.9490   43.3480 H   0  0  0  0  0  0  0  0  0  0  0  0
   38.2810   27.4600   39.1220 H   0  0  0  0  0  0  0  0  0  0  0  0
   37.1850   25.7700   43.6290 H   0  0  0  0  0  0  0  0  0  0  0  0
   35.8740   23.2750   39.5640 H   0  0  0  0  0  0  0  0  0  0  0  0
   36.5210   20.7280   39.3640 O   0  0  0  0  0  0  0  0  0  0  0  0
   37.5500   21.4700   39.2590 C   0  0  0  0  0  0  0  0  0  0  0  0
   37.9570   22.7600   39.8690 C   0  0  1  0  0  3  0  0  0  0  0  0
   38.9050   23.3150   38.8330 C   0  0  0  0  0  3  0  0  0  0  0  0
   39.5760   24.0550   39.2910 H   0  0  0  0  0  0  0  0  0  0  0  0
   39.6540   22.0870   38.3530 C   0  0  0  0  0  3  0  0  0  0  0  0
   40.0080   22.1820   37.3090 H   0  0  0  0  0  0  0  0  0  0  0  0
   38.6160   21.0680   38.3820 N   0  0  0  0  0  0  0  0  0  0  0  0
   38.6940   20.1750   37.8150 H   0  0  0  0  0  0  0  0  0  0  0  0
  1  6  1  0  0  0  0
  1  7  1  0  0  0  0
  2  1  2  0  0  0  0
  3  4  2  0  0  0  0
  3  2  1  0  0  0  0
  4  5  1  0  0  0  0
  5 25  1  0  0  0  0
  5  6  2  0  0  0  0
  8  3  1  0  0  0  0
  9  2  1  0  0  0  0
  9 10  1  0  0  0  0
 10 11  1  0  0  0  0
 10 15  1  0  0  0  0
 11 18  1  0  0  0  0
 11 17  1  0  0  0  0
 12 19  1  0  0  0  0
 12 11  1  0  0  0  0
 13 12  1  0  0  0  0
 13 14  1  0  0  0  0
 14  9  1  0  0  0  0
 14 22  1  0  0  0  0
 16 10  1  0  0  0  0
 20 13  1  0  0  0  0
 21 13  1  0  0  0  0
 23 14  1  0  0  0  0
 24 29  1  0  0  0  0
 24 33  1  0  0  0  0
 25 24  2  0  0  0  0
 26 27  2  0  0  0  0
 26 25  1  0  0  0  0
 27 28  1  0  0  0  0
 28 29  2  0  0  0  0
 29 35  1  0  0  0  0
 30 28  1  0  0  0  0
 31 36  1  6  0  0  0
 31 30  1  0  0  0  0
 32 31  1  0  0  0  0
 32 27  1  0  0  0  0
 34 26  1  0  0  0  0
 38 37  2  0  0  0  0
 38 39  1  0  0  0  0
 39 40  1  6  0  0  0
 39 31  1  0  0  0  0
 40 41  1  0  0  0  0
 42 44  1  0  0  0  0
 42 40  1  0  0  0  0
 43 42  1  0  0  0  0
 44 38  1  0  0  0  0
 45 44  1  0  0  0  0
M  END
>  <minimizedAffinity>
-5.46688366

$$$$

 OpenBabel03242518273D

 45 49  0  0  1  0  0  0  0  0999 V2000
   40.5060   31.1820   38.8690 C   0  0  0  0  0  0  0  0  0  0  0  0
   40.2500   32.1980   39.7850 C   0  0  0  0  0  0  0  0  0  0  0  0
   38.9130   32.5610   39.9910 C   0  0  0  0  0  0  0  0  0  0  0  0
   37.9390   31.9270   39.3060 N   0  0  0  0  0  0  0  0  0  0  0  0
   38.2260   30.9410   38.4200 C   0  0  0  0  0  0  0  0  0  0  0  0
   39.5020   30.5680   38.2000 N   0  0  0  0  0  0  0  0  0  0  0  0
   41.4910   30.7960   38.6080 H   0  0  0  0  0  0  0  0  0  0  0  0
   38.7440   33.3420   40.6980 H   0  0  0  0  0  0  0  0  0  0  0  0
   41.3740   32.7690   40.4260 N   0  0  0  0  0  0  0  0  0  0  0  0
   41.3460   34.1870   40.6690 C   0  0  0  0  0  0  0  0  0  0  0  0
   42.6140   34.7190   41.2280 C   0  0  0  0  0  0  0  0  0  0  0  0
   43.0550   33.9510   42.3550 N   0  0  0  0  0  0  0  0  0  0  0  0
   42.9080   32.5560   42.2890 C   0  0  0  0  0  0  0  0  0  0  0  0
   42.5510   32.1110   40.8700 C   0  0  0  0  0  0  0  0  0  0  0  0
   41.0310   34.7310   39.7630 H   0  0  0  0  0  0  0  0  0  0  0  0
   40.5320   34.3670   41.4220 H   0  0  0  0  0  0  0  0  0  0  0  0
   43.4100   34.6380   40.4370 H   0  0  0  0  0  0  0  0  0  0  0  0
   42.4720   35.7640   41.5210 H   0  0  0  0  0  0  0  0  0  0  0  0
   43.9410   34.3030   42.7640 H   0  0  0  0  0  0  0  0  0  0  0  0
   42.1880   32.1220   42.9840 H   0  0  0  0  0  0  0  0  0  0  0  0
   43.9110   32.0800   42.4910 H   0  0  0  0  0  0  0  0  0  0  0  0
   43.4370   32.2450   40.2240 H   0  0  0  0  0  0  0  0  0  0  0  0
   42.3440   31.0040   40.9540 H   0  0  0  0  0  0  0  0  0  0  0  0
   37.1590   30.0890   36.3680 C   0  0  0  0  0  0  0  0  0  0  0  0
   37.1130   30.2900   37.7050 C   0  0  0  0  0  0  0  0  0  0  0  0
   35.9940   29.8720   38.4000 C   0  0  0  0  0  0  0  0  0  0  0  0
   34.9510   29.2600   37.7230 C   0  0  0  0  0  0  0  0  0  0  0  0
   35.0160   29.0610   36.3450 C   0  0  0  0  0  0  0  0  0  0  0  0
   36.1450   29.4850   35.6540 C   0  0  0  0  0  0  0  0  0  0  0  0
   33.8280   28.4290   35.9550 O   0  0  0  0  0  0  0  0  0  0  0  0
   32.9170   28.4990   37.0420 C   0  0  1  0  0  0  0  0  0  0  0  0
   33.7300   28.7490   38.1520 O   0  0  0  0  0  0  0  0  0  0  0  0
   38.0310   30.4110   35.8070 H   0  0  0  0  0  0  0  0  0  0  0  0
   35.8910   30.0000   39.4610 H   0  0  0  0  0  0  0  0  0  0  0  0
   36.2240   29.3430   34.5800 H   0  0  0  0  0  0  0  0  0  0  0  0
   32.4110   27.5330   37.1580 H   0  0  0  0  0  0  0  0  0  0  0  0
   30.6250   28.4430   35.0090 O   0  0  0  0  0  0  0  0  0  0  0  0
   30.7550   29.1820   36.0380 C   0  0  0  0  0  0  0  0  0  0  0  0
   31.9160   29.6200   36.8510 C   0  0  1  0  0  3  0  0  0  0  0  0
   31.2790   29.8900   38.1930 C   0  0  0  0  0  3  0  0  0  0  0  0
   31.9080   30.5740   38.7810 H   0  0  0  0  0  0  0  0  0  0  0  0
   29.9470   30.5150   37.8260 C   0  0  0  0  0  3  0  0  0  0  0  0
   29.1640   30.3330   38.5870 H   0  0  0  0  0  0  0  0  0  0  0  0
   29.5860   29.7760   36.6260 N   0  0  0  0  0  0  0  0  0  0  0  0
   28.5830   29.7220   36.2850 H   0  0  0  0  0  0  0  0  0  0  0  0
  1  2  1  0  0  0  0
  2  3  2  0  0  0  0
  2  9  1  0  0  0  0
  3  8  1  0  0  0  0
  4  3  1  0  0  0  0
  5  4  2  0  0  0  0
  6  5  1  0  0  0  0
  6  1  2  0  0  0  0
  7  1  1  0  0  0  0
  9 10  1  0  0  0  0
  9 14  1  0  0  0  0
 10 11  1  0  0  0  0
 10 16  1  0  0  0  0
 11 18  1  0  0  0  0
 11 12  1  0  0  0  0
 12 19  1  0  0  0  0
 13 12  1  0  0  0  0
 13 21  1  0  0  0  0
 13 20  1  0  0  0  0
 14 23  1  0  0  0  0
 14 13  1  0  0  0  0
 15 10  1  0  0  0  0
 17 11  1  0  0  0  0
 22 14  1  0  0  0  0
 24 25  1  0  0  0  0
 25 26  2  0  0  0  0
 25  5  1  0  0  0  0
 26 34  1  0  0  0  0
 27 32  1  0  0  0  0
 27 26  1  0  0  0  0
 28 27  2  0  0  0  0
 29 28  1  0  0  0  0
 29 24  2  0  0  0  0
 30 28  1  0  0  0  0
 30 31  1  0  0  0  0
 31 36  1  1  0  0  0
 31 32  1  0  0  0  0
 33 24  1  0  0  0  0
 35 29  1  0  0  0  0
 37 38  2  0  0  0  0
 38 44  1  0  0  0  0
 39 38  1  6  0  0  0
 39 31  1  0  0  0  0
 39 40  1  0  0  0  0
 40 41  1  0  0  0  0
 42 40  1  0  0  0  0
 42 43  1  0  0  0  0
 44 42  1  0  0  0  0
 45 44  1  0  0  0  0
M  END
>  <minimizedAffinity>
-5.42487526

$$$$

 OpenBabel03242518273D

 45 49  0  0  1  0  0  0  0  0999 V2000
   34.6780   29.0700   36.4880 C   0  0  0  0  0  0  0  0  0  0  0  0
   33.2920   29.1260   36.6020 C   0  0  0  0  0  0  0  0  0  0  0  0
   32.7530   29.2390   37.8900 C   0  0  0  0  0  0  0  0  0  0  0  0
   33.5800   29.2860   38.9550 N   0  0  0  0  0  0  0  0  0  0  0  0
   34.9270   29.2290   38.8050 C   0  0  0  0  0  0  0  0  0  0  0  0
   35.4760   29.1220   37.5800 N   0  0  0  0  0  0  0  0  0  0  0  0
   35.2350   28.9840   35.5560 H   0  0  0  0  0  0  0  0  0  0  0  0
   31.6880   29.2790   37.9500 H   0  0  0  0  0  0  0  0  0  0  0  0
   32.5560   29.0650   35.3960 N   0  0  0  0  0  0  0  0  0  0  0  0
   32.0250   27.7840   35.0100 C   0  0  0  0  0  0  0  0  0  0  0  0
   31.3780   27.7860   33.6750 C   0  0  0  0  0  0  0  0  0  0  0  0
   30.4380   28.8600   33.5480 N   0  0  0  0  0  0  0  0  0  0  0  0
   30.7890   30.1020   34.1030 C   0  0  0  0  0  0  0  0  0  0  0  0
   32.2670   30.1250   34.4970 C   0  0  0  0  0  0  0  0  0  0  0  0
   32.7970   27.0000   35.0970 H   0  0  0  0  0  0  0  0  0  0  0  0
   31.2450   27.5180   35.7740 H   0  0  0  0  0  0  0  0  0  0  0  0
   32.1750   27.9470   32.8970 H   0  0  0  0  0  0  0  0  0  0  0  0
   30.8750   26.8270   33.5130 H   0  0  0  0  0  0  0  0  0  0  0  0
   29.9720   28.8850   32.6220 H   0  0  0  0  0  0  0  0  0  0  0  0
   30.1930   30.4250   34.9580 H   0  0  0  0  0  0  0  0  0  0  0  0
   30.6980   30.8910   33.3020 H   0  0  0  0  0  0  0  0  0  0  0  0
   32.8780   30.1410   33.5770 H   0  0  0  0  0  0  0  0  0  0  0  0
   32.4120   31.1090   35.0310 H   0  0  0  0  0  0  0  0  0  0  0  0
   36.5370   30.3700   40.2830 C   0  0  0  0  0  0  0  0  0  0  0  0
   35.7720   29.2870   40.0120 C   0  0  0  0  0  0  0  0  0  0  0  0
   35.7970   28.2220   40.8920 C   0  0  0  0  0  0  0  0  0  0  0  0
   36.5940   28.2820   42.0240 C   0  0  0  0  0  0  0  0  0  0  0  0
   37.3750   29.4060   42.2880 C   0  0  0  0  0  0  0  0  0  0  0  0
   37.3440   30.4730   41.3970 C   0  0  0  0  0  0  0  0  0  0  0  0
   38.0590   29.1710   43.4870 O   0  0  0  0  0  0  0  0  0  0  0  0
   37.9210   27.7960   43.8100 C   0  0  1  0  0  0  0  0  0  0  0  0
   36.8130   27.3810   43.0630 O   0  0  0  0  0  0  0  0  0  0  0  0
   36.5290   31.2160   39.6020 H   0  0  0  0  0  0  0  0  0  0  0  0
   35.2170   27.3310   40.7390 H   0  0  0  0  0  0  0  0  0  0  0  0
   37.9410   31.3620   41.5760 H   0  0  0  0  0  0  0  0  0  0  0  0
   37.7110   27.6890   44.8810 H   0  0  0  0  0  0  0  0  0  0  0  0
   37.8570   25.0920   42.3700 O   0  0  0  0  0  0  0  0  0  0  0  0
   38.8220   25.9180   42.4650 C   0  0  0  0  0  0  0  0  0  0  0  0
   39.1540   27.0100   43.4130 C   0  0  1  0  0  3  0  0  0  0  0  0
   40.0140   27.9150   42.5650 C   0  0  0  0  0  3  0  0  0  0  0  0
   40.6440   28.5480   43.2050 H   0  0  0  0  0  0  0  0  0  0  0  0
   40.8350   26.9420   41.7400 C   0  0  0  0  0  3  0  0  0  0  0  0
   41.1390   27.3610   40.7620 H   0  0  0  0  0  0  0  0  0  0  0  0
   39.8790   25.8730   41.4920 N   0  0  0  0  0  0  0  0  0  0  0  0
   40.0030   25.1900   40.6910 H   0  0  0  0  0  0  0  0  0  0  0  0
  1  2  2  0  0  0  0
  1  6  1  0  0  0  0
  2  3  1  0  0  0  0
  3  8  1  0  0  0  0
  3  4  2  0  0  0  0
  5  4  1  0  0  0  0
  5 25  1  0  0  0  0
  6  5  2  0  0  0  0
  7  1  1  0  0  0  0
  9  2  1  0  0  0  0
 10 15  1  0  0  0  0
 10  9  1  0  0  0  0
 10 16  1  0  0  0  0
 11 10  1  0  0  0  0
 12 11  1  0  0  0  0
 12 13  1  0  0  0  0
 13 14  1  0  0  0  0
 13 20  1  0  0  0  0
 14 23  1  0  0  0  0
 14  9  1  0  0  0  0
 17 11  1  0  0  0  0
 18 11  1  0  0  0  0
 19 12  1  0  0  0  0
 21 13  1  0  0  0  0
 22 14  1  0  0  0  0
 24 29  1  0  0  0  0
 25 24  2  0  0  0  0
 25 26  1  0  0  0  0
 26 27  2  0  0  0  0
 27 28  1  0  0  0  0
 27 32  1  0  0  0  0
 28 30  1  0  0  0  0
 29 35  1  0  0  0  0
 29 28  2  0  0  0  0
 30 31  1  0  0  0  0
 31 36  1  1  0  0  0
 32 31  1  0  0  0  0
 33 24  1  0  0  0  0
 34 26  1  0  0  0  0
 37 38  2  0  0  0  0
 39 38  1  6  0  0  0
 39 31  1  0  0  0  0
 40 41  1  0  0  0  0
 40 39  1  0  0  0  0
 42 40  1  0  0  0  0
 43 42  1  0  0  0  0
 44 42  1  0  0  0  0
 44 38  1  0  0  0  0
 45 44  1  0  0  0  0
M  END
>  <minimizedAffinity>
-5.36715603

$$$$

 OpenBabel03242518273D

 45 49  0  0  1  0  0  0  0  0999 V2000
   36.4750   27.3390   39.4410 C   0  0  0  0  0  0  0  0  0  0  0  0
   36.2240   28.2800   40.4350 C   0  0  0  0  0  0  0  0  0  0  0  0
   35.1410   29.1470   40.2470 C   0  0  0  0  0  0  0  0  0  0  0  0
   34.3920   29.0420   39.1290 N   0  0  0  0  0  0  0  0  0  0  0  0
   34.6660   28.1120   38.1810 C   0  0  0  0  0  0  0  0  0  0  0  0
   35.7010   27.2630   38.3330 N   0  0  0  0  0  0  0  0  0  0  0  0
   37.2780   26.6030   39.4510 H   0  0  0  0  0  0  0  0  0  0  0  0
   34.9710   29.8600   41.0230 H   0  0  0  0  0  0  0  0  0  0  0  0
   37.0950   28.2700   41.5480 N   0  0  0  0  0  0  0  0  0  0  0  0
   36.6040   27.6830   42.7670 C   0  0  0  0  0  0  0  0  0  0  0  0
   37.5330   27.8280   43.9150 C   0  0  0  0  0  0  0  0  0  0  0  0
   38.8610   27.4130   43.5720 N   0  0  0  0  0  0  0  0  0  0  0  0
   39.3420   27.7580   42.2980 C   0  0  0  0  0  0  0  0  0  0  0  0
   38.4210   28.7750   41.6230 C   0  0  0  0  0  0  0  0  0  0  0  0
   35.5930   28.0580   43.0000 H   0  0  0  0  0  0  0  0  0  0  0  0
   36.4730   26.5850   42.5630 H   0  0  0  0  0  0  0  0  0  0  0  0
   37.5850   28.9180   44.1910 H   0  0  0  0  0  0  0  0  0  0  0  0
   37.1630   27.2380   44.7590 H   0  0  0  0  0  0  0  0  0  0  0  0
   39.5310   27.5060   44.3580 H   0  0  0  0  0  0  0  0  0  0  0  0
   39.5060   26.9250   41.6120 H   0  0  0  0  0  0  0  0  0  0  0  0
   40.3230   28.3010   42.4200 H   0  0  0  0  0  0  0  0  0  0  0  0
   38.5260   29.7450   42.1410 H   0  0  0  0  0  0  0  0  0  0  0  0
   38.8290   28.8910   40.5760 H   0  0  0  0  0  0  0  0  0  0  0  0
   34.1630   27.3260   35.8990 C   0  0  0  0  0  0  0  0  0  0  0  0
   33.8070   28.0520   36.9840 C   0  0  0  0  0  0  0  0  0  0  0  0
   32.6130   28.7460   36.9530 C   0  0  0  0  0  0  0  0  0  0  0  0
   31.8090   28.6860   35.8250 C   0  0  0  0  0  0  0  0  0  0  0  0
   32.1930   27.9320   34.7170 C   0  0  0  0  0  0  0  0  0  0  0  0
   33.3950   27.2370   34.7560 C   0  0  0  0  0  0  0  0  0  0  0  0
   31.1890   28.0680   33.7490 O   0  0  0  0  0  0  0  0  0  0  0  0
   30.3330   29.1280   34.1490 C   0  0  1  0  0  0  0  0  0  0  0  0
   30.5830   29.2680   35.5180 O   0  0  0  0  0  0  0  0  0  0  0  0
   35.0990   26.7740   35.9070 H   0  0  0  0  0  0  0  0  0  0  0  0
   32.2680   29.3420   37.7770 H   0  0  0  0  0  0  0  0  0  0  0  0
   33.7200   26.6410   33.9090 H   0  0  0  0  0  0  0  0  0  0  0  0
   29.2880   28.8360   33.9870 H   0  0  0  0  0  0  0  0  0  0  0  0
   29.5390   29.7100   31.2480 O   0  0  0  0  0  0  0  0  0  0  0  0
   29.8870   30.5330   32.1560 C   0  0  0  0  0  0  0  0  0  0  0  0
   30.6640   30.4100   33.4140 C   0  0  1  0  0  3  0  0  0  0  0  0
   30.1190   31.5550   34.2340 C   0  0  0  0  0  3  0  0  0  0  0  0
   30.8390   31.8370   35.0160 H   0  0  0  0  0  0  0  0  0  0  0  0
   29.9280   32.6570   33.2100 C   0  0  0  0  0  3  0  0  0  0  0  0
   29.1190   33.3610   33.4840 H   0  0  0  0  0  0  0  0  0  0  0  0
   29.4950   31.9100   32.0380 N   0  0  0  0  0  0  0  0  0  0  0  0
   28.9700   32.3760   31.2440 H   0  0  0  0  0  0  0  0  0  0  0  0
  1  7  1  0  0  0  0
  1  2  1  0  0  0  0
  2  9  1  0  0  0  0
  3  2  2  0  0  0  0
  3  8  1  0  0  0  0
  4  3  1  0  0  0  0
  5  6  1  0  0  0  0
  5  4  2  0  0  0  0
  6  1  2  0  0  0  0
  9 14  1  0  0  0  0
  9 10  1  0  0  0  0
 10 15  1  0  0  0  0
 10 11  1  0  0  0  0
 11 17  1  0  0  0  0
 11 18  1  0  0  0  0
 12 11  1  0  0  0  0
 12 19  1  0  0  0  0
 13 21  1  0  0  0  0
 13 12  1  0  0  0  0
 14 22  1  0  0  0  0
 14 13  1  0  0  0  0
 16 10  1  0  0  0  0
 20 13  1  0  0  0  0
 23 14  1  0  0  0  0
 24 33  1  0  0  0  0
 24 25  1  0  0  0  0
 25  5  1  0  0  0  0
 26 25  2  0  0  0  0
 26 34  1  0  0  0  0
 27 26  1  0  0  0  0
 28 29  1  0  0  0  0
 28 27  2  0  0  0  0
 29 24  2  0  0  0  0
 30 31  1  0  0  0  0
 30 28  1  0  0  0  0
 31 36  1  6  0  0  0
 31 32  1  0  0  0  0
 32 27  1  0  0  0  0
 35 29  1  0  0  0  0
 37 38  2  0  0  0  0
 39 38  1  6  0  0  0
 39 31  1  0  0  0  0
 39 40  1  0  0  0  0
 40 41  1  0  0  0  0
 42 43  1  0  0  0  0
 42 40  1  0  0  0  0
 44 38  1  0  0  0  0
 44 42  1  0  0  0  0
 45 44  1  0  0  0  0
M  END
>  <minimizedAffinity>
-5.29034472

$$$$

 OpenBabel03242518273D

 45 49  0  0  1  0  0  0  0  0999 V2000
   37.9790   31.4600   37.7420 C   0  0  0  0  0  0  0  0  0  0  0  0
   37.8610   31.9380   39.0440 C   0  0  0  0  0  0  0  0  0  0  0  0
   36.8790   31.3620   39.8590 C   0  0  0  0  0  0  0  0  0  0  0  0
   36.0940   30.3830   39.3620 N   0  0  0  0  0  0  0  0  0  0  0  0
   36.2370   29.9420   38.0880 C   0  0  0  0  0  0  0  0  0  0  0  0
   37.1740   30.4750   37.2790 N   0  0  0  0  0  0  0  0  0  0  0  0
   38.6940   31.8110   36.9990 H   0  0  0  0  0  0  0  0  0  0  0  0
   36.8090   31.7470   40.8520 H   0  0  0  0  0  0  0  0  0  0  0  0
   38.7540   32.9680   39.4210 N   0  0  0  0  0  0  0  0  0  0  0  0
   38.1990   34.1040   40.1080 C   0  0  0  0  0  0  0  0  0  0  0  0
   39.1820   35.1890   40.3530 C   0  0  0  0  0  0  0  0  0  0  0  0
   40.3830   34.6850   40.9510 N   0  0  0  0  0  0  0  0  0  0  0  0
   40.8750   33.4540   40.4870 C   0  0  0  0  0  0  0  0  0  0  0  0
   40.1560   33.0270   39.2060 C   0  0  0  0  0  0  0  0  0  0  0  0
   37.2970   34.4700   39.5900 H   0  0  0  0  0  0  0  0  0  0  0  0
   37.8380   33.7310   41.1050 H   0  0  0  0  0  0  0  0  0  0  0  0
   39.4670   35.6380   39.3610 H   0  0  0  0  0  0  0  0  0  0  0  0
   38.7320   35.9480   41.0000 H   0  0  0  0  0  0  0  0  0  0  0  0
   41.0880   35.4240   41.1320 H   0  0  0  0  0  0  0  0  0  0  0  0
   40.8380   32.6300   41.2010 H   0  0  0  0  0  0  0  0  0  0  0  0
   41.9500   33.5930   40.1760 H   0  0  0  0  0  0  0  0  0  0  0  0
   40.4780   33.6900   38.3830 H   0  0  0  0  0  0  0  0  0  0  0  0
   40.5390   31.9880   38.9880 H   0  0  0  0  0  0  0  0  0  0  0  0
   34.0450   29.1100   37.3260 C   0  0  0  0  0  0  0  0  0  0  0  0
   35.3460   28.8690   37.6090 C   0  0  0  0  0  0  0  0  0  0  0  0
   35.8330   27.5860   37.4430 C   0  0  0  0  0  0  0  0  0  0  0  0
   34.9910   26.5820   36.9940 C   0  0  0  0  0  0  0  0  0  0  0  0
   33.6540   26.8490   36.7060 C   0  0  0  0  0  0  0  0  0  0  0  0
   33.1710   28.1410   36.8760 C   0  0  0  0  0  0  0  0  0  0  0  0
   33.0680   25.6500   36.2790 O   0  0  0  0  0  0  0  0  0  0  0  0
   33.9670   24.5920   36.5770 C   0  0  1  0  0  0  0  0  0  0  0  0
   35.2010   25.2300   36.7390 O   0  0  0  0  0  0  0  0  0  0  0  0
   33.6460   30.1120   37.4510 H   0  0  0  0  0  0  0  0  0  0  0  0
   36.8540   27.3240   37.6490 H   0  0  0  0  0  0  0  0  0  0  0  0
   32.1340   28.3790   36.6600 H   0  0  0  0  0  0  0  0  0  0  0  0
   34.0120   23.9000   35.7270 H   0  0  0  0  0  0  0  0  0  0  0  0
   31.5620   22.7080   36.8160 O   0  0  0  0  0  0  0  0  0  0  0  0
   32.5760   22.8020   37.5820 C   0  0  0  0  0  0  0  0  0  0  0  0
   33.5690   23.8720   37.8490 C   0  0  1  0  0  3  0  0  0  0  0  0
   34.7680   23.0800   38.3140 C   0  0  0  0  0  3  0  0  0  0  0  0
   35.4380   23.7200   38.9060 H   0  0  0  0  0  0  0  0  0  0  0  0
   34.1510   21.9740   39.1490 C   0  0  0  0  0  3  0  0  0  0  0  0
   34.7660   21.0540   39.1610 H   0  0  0  0  0  0  0  0  0  0  0  0
   32.9280   21.6860   38.4150 N   0  0  0  0  0  0  0  0  0  0  0  0
   32.4160   20.7640   38.5250 H   0  0  0  0  0  0  0  0  0  0  0  0
  1  2  1  0  0  0  0
  2  9  1  0  0  0  0
  2  3  2  0  0  0  0
  3  8  1  0  0  0  0
  4  3  1  0  0  0  0
  5  4  2  0  0  0  0
  6  1  2  0  0  0  0
  6  5  1  0  0  0  0
  7  1  1  0  0  0  0
  9 10  1  0  0  0  0
 10 11  1  0  0  0  0
 10 16  1  0  0  0  0
 11 12  1  0  0  0  0
 11 18  1  0  0  0  0
 12 19  1  0  0  0  0
 13 12  1  0  0  0  0
 13 20  1  0  0  0  0
 14  9  1  0  0  0  0
 14 13  1  0  0  0  0
 15 10  1  0  0  0  0
 17 11  1  0  0  0  0
 21 13  1  0  0  0  0
 22 14  1  0  0  0  0
 23 14  1  0  0  0  0
 24 33  1  0  0  0  0
 24 25  1  0  0  0  0
 25  5  1  0  0  0  0
 26 25  2  0  0  0  0
 26 34  1  0  0  0  0
 27 26  1  0  0  0  0
 28 29  1  0  0  0  0
 28 27  2  0  0  0  0
 29 24  2  0  0  0  0
 30 31  1  0  0  0  0
 30 28  1  0  0  0  0
 31 36  1  6  0  0  0
 31 32  1  0  0  0  0
 31 39  1  0  0  0  0
 32 27  1  0  0  0  0
 35 29  1  0  0  0  0
 37 38  2  0  0  0  0
 38 44  1  0  0  0  0
 39 38  1  6  0  0  0
 39 40  1  0  0  0  0
 40 41  1  0  0  0  0
 40 42  1  0  0  0  0
 42 43  1  0  0  0  0
 44 45  1  0  0  0  0
 44 42  1  0  0  0  0
M  END
>  <minimizedAffinity>
-5.21845913

$$$$
