
 OpenBabel03252503053D

 20 21  0  0  1  0  0  0  0  0999 V2000
   45.3810   36.0770   43.2070 C   0  0  0  0  0  0  0  0  0  0  0  0
   46.0900   34.8640   43.0790 C   0  0  0  0  0  0  0  0  0  0  0  0
   46.0100   33.9630   44.1450 C   0  0  0  0  0  0  0  0  0  0  0  0
   45.2750   34.2860   45.2280 N   0  0  0  0  0  0  0  0  0  0  0  0
   44.6050   35.4660   45.3160 C   0  0  0  0  0  0  0  0  0  0  0  0
   44.6640   36.3530   44.3020 N   0  0  0  0  0  0  0  0  0  0  0  0
   45.4380   36.7810   42.3820 H   0  0  0  0  0  0  0  0  0  0  0  0
   44.0200   35.7020   46.1990 H   0  0  0  0  0  0  0  0  0  0  0  0
   45.0850   31.5380   42.4200 O   0  0  0  0  0  0  0  0  0  0  0  0
   46.1510   31.7580   43.0300 C   0  0  0  0  0  0  0  0  0  0  0  0
   46.7490   32.6870   44.0230 C   0  0  1  0  0  3  0  0  0  0  0  0
   48.1540   32.8760   43.4870 C   0  0  0  0  0  3  0  0  0  0  0  0
   48.8070   33.2380   44.3150 H   0  0  0  0  0  0  0  0  0  0  0  0
   48.5170   31.5010   43.0220 C   0  0  0  0  0  3  0  0  0  0  0  0
   49.1450   31.5940   42.1070 H   0  0  0  0  0  0  0  0  0  0  0  0
   47.2510   30.8690   42.7580 N   0  0  0  0  0  0  0  0  0  0  0  0
   47.3860   29.8720   42.4150 H   0  0  0  0  0  0  0  0  0  0  0  0
   46.8520   34.5760   41.9080 C   0  0  0  0  0  0  0  0  0  0  0  0
   47.7290   35.4060   41.5650 O   0  0  0  0  0  0  0  0  0  0  0  0
   46.8450   33.7460   41.1990 H   0  0  0  0  0  0  0  0  0  0  0  0
  1  6  1  0  0  0  0
  2  1  2  0  0  0  0
  2  3  1  0  0  0  0
  3  4  2  0  0  0  0
  4  5  1  0  0  0  0
  5  8  1  0  0  0  0
  6  5  2  0  0  0  0
  7  1  1  0  0  0  0
  9 10  2  0  0  0  0
 10 11  1  0  0  0  0
 11  3  1  6  0  0  0
 12 11  1  0  0  0  0
 12 13  1  0  0  0  0
 14 12  1  0  0  0  0
 15 14  1  0  0  0  0
 16 14  1  0  0  0  0
 16 10  1  0  0  0  0
 17 16  1  0  0  0  0
 18  2  1  0  0  0  0
 19 18  2  0  0  0  0
 20 18  1  0  0  0  0
M  END
>  <minimizedAffinity>
-3.65700221

>  <minimizedRMSD>
0.434488565

$$$$
