
 OpenBabel03242523203D

 37 40  0  0  1  0  0  0  0  0999 V2000
   44.5260   31.7940   42.9040 Cl  0  0  0  0  0  0  0  0  0  0  0  0
   44.5680   33.5500   42.8020 C   0  0  0  0  0  0  0  0  0  0  0  0
   45.4520   34.1870   43.6980 C   0  0  0  0  0  0  0  0  0  0  0  0
   45.4170   35.5610   43.5200 C   0  0  0  0  0  0  0  0  0  0  0  0
   44.7000   36.3000   42.6620 C   0  0  0  0  0  0  0  0  0  0  0  0
   43.8740   35.6050   41.8330 C   0  0  0  0  0  0  0  0  0  0  0  0
   43.7880   34.2490   41.8820 C   0  0  0  0  0  0  0  0  0  0  0  0
   46.0310   36.2180   44.1730 H   0  0  0  0  0  0  0  0  0  0  0  0
   44.7160   37.3740   42.5640 H   0  0  0  0  0  0  0  0  0  0  0  0
   43.2160   36.0250   41.0720 H   0  0  0  0  0  0  0  0  0  0  0  0
   44.3150   33.4210   38.9870 O   0  0  0  0  0  0  0  0  0  0  0  0
   43.2020   33.6710   39.5650 C   0  0  0  0  0  0  0  0  0  0  0  0
   42.9130   33.4030   41.0210 C   0  0  2  0  0  3  0  0  0  0  0  0
   41.4710   33.6930   41.1040 C   0  0  0  0  0  3  0  0  0  0  0  0
   41.2030   34.7110   41.4510 H   0  0  0  0  0  0  0  0  0  0  0  0
   40.9090   33.6320   39.6920 C   0  0  0  0  0  3  0  0  0  0  0  0
   40.8270   32.5540   39.3820 H   0  0  0  0  0  0  0  0  0  0  0  0
   42.0250   34.2470   38.9590 N   0  0  0  0  0  0  0  0  0  0  0  0
   42.0580   34.9410   38.1770 H   0  0  0  0  0  0  0  0  0  0  0  0
   46.3250   33.5250   44.7010 C   0  0  0  0  0  0  0  0  0  0  0  0
   45.7480   33.8950   45.6940 O   0  0  0  0  0  0  0  0  0  0  0  0
   47.3900   32.7980   43.9960 C   0  0  0  0  0  0  0  0  0  0  0  0
   48.2480   33.3110   43.1040 C   0  0  0  0  0  0  0  0  0  0  0  0
   49.0800   32.3800   42.5150 C   0  0  0  0  0  0  0  0  0  0  0  0
   48.9630   31.0340   42.8930 N   0  0  0  0  0  0  0  0  0  0  0  0
   48.0980   30.6070   43.7790 C   0  0  0  0  0  0  0  0  0  0  0  0
   47.2450   31.5040   44.3890 N   0  0  0  0  0  0  0  0  0  0  0  0
   49.8340   32.6230   41.7690 H   0  0  0  0  0  0  0  0  0  0  0  0
   48.1280   29.5380   43.9670 H   0  0  0  0  0  0  0  0  0  0  0  0
   48.4470   34.6840   42.8110 C   0  0  0  0  0  0  0  0  0  0  0  0
   49.4840   35.2710   42.1540 C   0  0  0  0  0  0  0  0  0  0  0  0
   48.2590   35.1220   41.2930 C   0  0  0  0  0  0  0  0  0  0  0  0
   47.9850   35.3750   43.5430 H   0  0  0  0  0  0  0  0  0  0  0  0
   50.3480   34.6410   41.7860 H   0  0  0  0  0  0  0  0  0  0  0  0
   49.8330   36.3280   42.1750 H   0  0  0  0  0  0  0  0  0  0  0  0
   47.5590   35.9580   41.1730 H   0  0  0  0  0  0  0  0  0  0  0  0
   48.1950   34.2500   40.6050 H   0  0  0  0  0  0  0  0  0  0  0  0
  2  1  1  0  0  0  0
  2  3  1  0  0  0  0
  3 20  1  0  0  0  0
  4  3  2  0  0  0  0
  4  8  1  0  0  0  0
  5  4  1  0  0  0  0
  6  7  1  0  0  0  0
  6  5  2  0  0  0  0
  7  2  2  0  0  0  0
  9  5  1  0  0  0  0
 10  6  1  0  0  0  0
 11 12  2  0  0  0  0
 12 13  1  0  0  0  0
 13 14  1  0  0  0  0
 13  7  1  1  0  0  0
 14 15  1  0  0  0  0
 16 14  1  0  0  0  0
 17 16  1  0  0  0  0
 18 12  1  0  0  0  0
 18 16  1  0  0  0  0
 19 18  1  0  0  0  0
 20 21  2  0  0  0  0
 22 27  1  0  0  0  0
 22 20  1  0  0  0  0
 23 22  2  0  0  0  0
 24 25  2  0  0  0  0
 24 23  1  0  0  0  0
 25 26  1  0  0  0  0
 26 29  1  0  0  0  0
 26 27  2  0  0  0  0
 28 24  1  0  0  0  0
 30 23  1  0  0  0  0
 30 33  1  0  0  0  0
 31 35  1  0  0  0  0
 31 30  1  0  0  0  0
 32 31  1  0  0  0  0
 32 30  1  0  0  0  0
 34 31  1  0  0  0  0
 36 32  1  0  0  0  0
 37 32  1  0  0  0  0
M  END
>  <minimizedAffinity>
-5.70136786

>  <minimizedRMSD>
0.31641385

$$$$
