
 OpenBabel03252508383D

 41 44  0  0  1  0  0  0  0  0999 V2000
   45.1460   33.9750   40.7150 C   0  0  0  0  0  0  0  0  0  0  0  0
   44.1010   33.6380   39.9030 C   0  0  0  0  0  0  0  0  0  0  0  0
   44.4110   33.1190   38.6790 C   0  0  0  0  0  0  0  0  0  0  0  0
   45.6960   32.9200   38.2280 C   0  0  0  0  0  0  0  0  0  0  0  0
   46.7190   33.2720   39.0750 C   0  0  0  0  0  0  0  0  0  0  0  0
   46.4730   33.7990   40.3200 C   0  0  0  0  0  0  0  0  0  0  0  0
   43.5980   32.8450   38.0180 H   0  0  0  0  0  0  0  0  0  0  0  0
   45.8680   32.5020   37.2430 H   0  0  0  0  0  0  0  0  0  0  0  0
   47.7280   33.1140   38.7180 H   0  0  0  0  0  0  0  0  0  0  0  0
   40.8110   35.2430   40.8000 C   0  0  0  0  0  0  0  0  0  0  0  0
   42.1170   35.0920   40.2810 C   0  0  0  0  0  0  0  0  0  0  0  0
   42.7660   33.8620   40.4110 C   0  0  0  0  0  0  0  0  0  0  0  0
   42.0560   32.8890   41.0480 N   0  0  0  0  0  0  0  0  0  0  0  0
   40.8250   33.0550   41.5290 C   0  0  0  0  0  0  0  0  0  0  0  0
   40.2070   34.2330   41.4030 N   0  0  0  0  0  0  0  0  0  0  0  0
   40.2080   36.5220   40.6340 N   0  0  0  0  0  0  0  0  0  0  0  0
   42.6760   35.8620   39.7780 H   0  0  0  0  0  0  0  0  0  0  0  0
   40.2790   32.2690   42.0310 H   0  0  0  0  0  0  0  0  0  0  0  0
   40.0110   36.7980   39.6460 H   0  0  0  0  0  0  0  0  0  0  0  0
   39.9620   37.1770   41.4280 H   0  0  0  0  0  0  0  0  0  0  0  0
   47.6200   34.1380   41.1390 C   0  0  0  0  0  0  0  0  0  0  0  0
   48.1660   35.3890   40.9030 C   0  0  0  0  0  0  0  0  0  0  0  0
   49.2700   35.8920   41.5900 C   0  0  0  0  0  0  0  0  0  0  0  0
   49.8350   35.0790   42.5570 C   0  0  0  0  0  0  0  0  0  0  0  0
   49.3010   33.8300   42.8030 C   0  0  0  0  0  0  0  0  0  0  0  0
   48.1990   33.3550   42.1010 C   0  0  0  0  0  0  0  0  0  0  0  0
   47.7650   36.0670   40.1580 H   0  0  0  0  0  0  0  0  0  0  0  0
   49.6700   36.8740   41.3800 H   0  0  0  0  0  0  0  0  0  0  0  0
   50.6930   35.4080   43.1280 H   0  0  0  0  0  0  0  0  0  0  0  0
   49.7720   33.2330   43.5630 H   0  0  0  0  0  0  0  0  0  0  0  0
   49.1750   31.0370   40.7140 O   0  0  0  0  0  0  0  0  0  0  0  0
   48.4360   30.9280   41.7520 C   0  0  0  0  0  0  0  0  0  0  0  0
   47.6220   32.0360   42.3450 C   0  0  1  0  0  3  0  0  0  0  0  0
   47.5660   31.6450   43.7930 C   0  0  0  0  0  3  0  0  0  0  0  0
   48.2010   32.3520   44.3610 H   0  0  0  0  0  0  0  0  0  0  0  0
   48.0230   30.2170   43.8950 C   0  0  0  0  0  3  0  0  0  0  0  0
   48.9930   30.2320   44.4520 H   0  0  0  0  0  0  0  0  0  0  0  0
   48.2420   29.7570   42.5380 N   0  0  0  0  0  0  0  0  0  0  0  0
   48.2600   28.7840   42.1820 H   0  0  0  0  0  0  0  0  0  0  0  0
   44.7290   34.9690   43.1090 N   0  0  0  0  0  0  0  0  0  0  0  0
   44.9110   34.5320   42.0300 C   0  0  0  0  0  0  0  0  0  0  0  0
  1 41  1  0  0  0  0
  2 12  1  0  0  0  0
  2  1  2  0  0  0  0
  3  2  1  0  0  0  0
  4  3  2  0  0  0  0
  4  5  1  0  0  0  0
  5  6  2  0  0  0  0
  6  1  1  0  0  0  0
  6 21  1  0  0  0  0
  7  3  1  0  0  0  0
  8  4  1  0  0  0  0
  9  5  1  0  0  0  0
 10 15  1  0  0  0  0
 11 12  1  0  0  0  0
 11 10  2  0  0  0  0
 12 13  2  0  0  0  0
 13 14  1  0  0  0  0
 14 18  1  0  0  0  0
 15 14  2  0  0  0  0
 16 10  1  0  0  0  0
 16 20  1  0  0  0  0
 17 11  1  0  0  0  0
 19 16  1  0  0  0  0
 21 26  1  0  0  0  0
 22 21  2  0  0  0  0
 22 23  1  0  0  0  0
 23 24  2  0  0  0  0
 24 25  1  0  0  0  0
 24 29  1  0  0  0  0
 25 30  1  0  0  0  0
 26 25  2  0  0  0  0
 27 22  1  0  0  0  0
 28 23  1  0  0  0  0
 31 32  2  0  0  0  0
 32 33  1  0  0  0  0
 32 38  1  0  0  0  0
 33 26  1  1  0  0  0
 33 34  1  0  0  0  0
 34 36  1  0  0  0  0
 34 35  1  0  0  0  0
 36 37  1  0  0  0  0
 38 36  1  0  0  0  0
 39 38  1  0  0  0  0
 41 40  3  0  0  0  0
M  END
>  <minimizedAffinity>
-6.16378641

>  <minimizedRMSD>
0.127958819

$$$$
