
 OpenBabel03252503053D

 20 21  0  0  1  0  0  0  0  0999 V2000
   45.3790   36.0800   43.2120 C   0  0  0  0  0  0  0  0  0  0  0  0
   46.0920   34.8720   43.0670 C   0  0  0  0  0  0  0  0  0  0  0  0
   46.0200   33.9580   44.1230 C   0  0  0  0  0  0  0  0  0  0  0  0
   45.2880   34.2670   45.2130 N   0  0  0  0  0  0  0  0  0  0  0  0
   44.6140   35.4420   45.3170 C   0  0  0  0  0  0  0  0  0  0  0  0
   44.6650   36.3410   44.3130 N   0  0  0  0  0  0  0  0  0  0  0  0
   45.4300   36.7940   42.3950 H   0  0  0  0  0  0  0  0  0  0  0  0
   44.0320   35.6660   46.2050 H   0  0  0  0  0  0  0  0  0  0  0  0
   45.1070   31.5570   42.3580 O   0  0  0  0  0  0  0  0  0  0  0  0
   46.1700   31.7710   42.9750 C   0  0  0  0  0  0  0  0  0  0  0  0
   46.7630   32.6870   43.9840 C   0  0  1  0  0  3  0  0  0  0  0  0
   48.1670   32.8880   43.4540 C   0  0  0  0  0  3  0  0  0  0  0  0
   48.8190   33.2390   44.2900 H   0  0  0  0  0  0  0  0  0  0  0  0
   48.5370   31.5200   42.9680 C   0  0  0  0  0  3  0  0  0  0  0  0
   49.1670   31.6290   42.0570 H   0  0  0  0  0  0  0  0  0  0  0  0
   47.2740   30.8900   42.6920 N   0  0  0  0  0  0  0  0  0  0  0  0
   47.4120   29.8980   42.3340 H   0  0  0  0  0  0  0  0  0  0  0  0
   46.8500   34.5990   41.8890 C   0  0  0  0  0  0  0  0  0  0  0  0
   47.7420   35.4220   41.5690 O   0  0  0  0  0  0  0  0  0  0  0  0
   46.8280   33.7880   41.1590 H   0  0  0  0  0  0  0  0  0  0  0  0
  1  6  1  0  0  0  0
  2  1  2  0  0  0  0
  2  3  1  0  0  0  0
  3  4  2  0  0  0  0
  4  5  1  0  0  0  0
  5  8  1  0  0  0  0
  6  5  2  0  0  0  0
  7  1  1  0  0  0  0
  9 10  2  0  0  0  0
 10 11  1  0  0  0  0
 11  3  1  6  0  0  0
 12 11  1  0  0  0  0
 12 13  1  0  0  0  0
 14 12  1  0  0  0  0
 15 14  1  0  0  0  0
 16 14  1  0  0  0  0
 16 10  1  0  0  0  0
 17 16  1  0  0  0  0
 18  2  1  0  0  0  0
 19 18  2  0  0  0  0
 20 18  1  0  0  0  0
M  END
>  <minimizedAffinity>
-3.66306114

>  <minimizedRMSD>
0.579417944

$$$$
