
 OpenBabel03252500263D

 37 39  0  0  1  0  0  0  0  0999 V2000
   38.5540   27.4100   43.1330 C   0  0  2  0  0  0  0  0  0  0  0  0
   38.5480   28.6820   42.3760 C   0  0  2  0  0  0  0  0  0  0  0  0
   39.8120   29.3430   42.7870 C   0  0  0  0  0  0  0  0  0  0  0  0
   40.7230   28.3520   43.0980 O   0  0  0  0  0  0  0  0  0  0  0  0
   40.0840   27.1550   43.1160 C   0  0  0  0  0  0  0  0  0  0  0  0
   38.3380   27.2890   44.1520 H   0  0  0  0  0  0  0  0  0  0  0  0
   38.6050   28.3730   41.3000 H   0  0  0  0  0  0  0  0  0  0  0  0
   40.2540   29.8090   41.8520 H   0  0  0  0  0  0  0  0  0  0  0  0
   39.7620   30.1930   43.4620 H   0  0  0  0  0  0  0  0  0  0  0  0
   40.3970   26.4510   43.8830 H   0  0  0  0  0  0  0  0  0  0  0  0
   40.3000   26.6500   42.1360 H   0  0  0  0  0  0  0  0  0  0  0  0
   37.4290   29.4490   42.6070 O   0  0  0  0  0  0  0  0  0  0  0  0
   35.8310   28.6070   40.7810 O   0  0  0  0  0  0  0  0  0  0  0  0
   36.6680   29.7970   41.1710 P   0  0  1  0  0  0  0  0  0  0  0  0
   35.6390   31.1270   41.3800 O   0  0  0  0  0  0  0  0  0  0  0  0
   34.9460   31.1770   40.6910 H   0  0  0  0  0  0  0  0  0  0  0  0
   37.7640   30.0790   39.8940 O   0  0  0  0  0  0  0  0  0  0  0  0
   38.9210   33.3740   40.6450 C   0  0  0  0  0  0  0  0  0  0  0  0
   39.9010   33.6330   39.6500 C   0  0  0  0  0  0  0  0  0  0  0  0
   40.1340   32.6090   38.7150 C   0  0  0  0  0  0  0  0  0  0  0  0
   39.4210   31.4640   38.8220 N   0  0  0  0  0  0  0  0  0  0  0  0
   38.5010   31.2600   39.7810 C   0  0  0  0  0  0  0  0  0  0  0  0
   38.2580   32.2180   40.6860 N   0  0  0  0  0  0  0  0  0  0  0  0
   40.4420   34.5740   39.6160 H   0  0  0  0  0  0  0  0  0  0  0  0
   40.8710   32.7510   37.9330 H   0  0  0  0  0  0  0  0  0  0  0  0
   38.6920   34.3720   41.5580 O   0  0  0  0  0  0  0  0  0  0  0  0
   38.7230   35.3340   41.2360 H   0  0  0  0  0  0  0  0  0  0  0  0
   37.8740   26.3780   42.5480 O   0  0  0  0  0  0  0  0  0  0  0  0
   38.3080   26.6800   39.4910 O   0  0  0  0  0  0  0  0  0  0  0  0
   37.9020   25.7390   40.2550 C   0  0  0  0  0  0  0  0  0  0  0  0
   38.4260   25.5560   41.6560 C   0  0  2  0  0  3  0  0  0  0  0  0
   37.8900   24.1640   41.9190 C   0  0  0  0  0  3  0  0  0  0  0  0
   38.5650   23.3590   41.5920 H   0  0  0  0  0  0  0  0  0  0  0  0
   36.5710   24.1460   41.1510 C   0  0  0  0  0  3  0  0  0  0  0  0
   36.3380   23.0810   40.9420 H   0  0  0  0  0  0  0  0  0  0  0  0
   36.9250   24.7680   39.8870 N   0  0  0  0  0  0  0  0  0  0  0  0
   36.6180   24.6310   38.8990 H   0  0  0  0  0  0  0  0  0  0  0  0
  1  6  1  1  0  0  0
  2  7  1  6  0  0  0
  2 12  1  0  0  0  0
  2  3  1  0  0  0  0
  2  1  1  0  0  0  0
  3  4  1  0  0  0  0
  3  9  1  0  0  0  0
  4  5  1  0  0  0  0
  5  1  1  0  0  0  0
  5 10  1  0  0  0  0
  8  3  1  0  0  0  0
 11  5  1  0  0  0  0
 14 13  2  6  0  0  0
 14 15  1  0  0  0  0
 14 12  1  0  0  0  0
 16 15  1  0  0  0  0
 17 14  1  0  0  0  0
 18 23  1  0  0  0  0
 18 26  1  0  0  0  0
 19 18  2  0  0  0  0
 20 21  2  0  0  0  0
 20 19  1  0  0  0  0
 21 22  1  0  0  0  0
 22 17  1  0  0  0  0
 22 23  2  0  0  0  0
 24 19  1  0  0  0  0
 25 20  1  0  0  0  0
 27 26  1  0  0  0  0
 28  1  1  0  0  0  0
 29 30  2  0  0  0  0
 30 31  1  0  0  0  0
 31 32  1  0  0  0  0
 31 28  1  1  0  0  0
 33 32  1  0  0  0  0
 34 32  1  0  0  0  0
 35 34  1  0  0  0  0
 36 30  1  0  0  0  0
 36 34  1  0  0  0  0
 37 36  1  0  0  0  0
M  END
>  <minimizedAffinity>
-5.82796907

$$$$

 OpenBabel03252500263D

 37 39  0  0  1  0  0  0  0  0999 V2000
   37.2910   26.6710   42.7560 C   0  0  2  0  0  0  0  0  0  0  0  0
   37.1940   27.9540   42.0240 C   0  0  2  0  0  0  0  0  0  0  0  0
   37.9580   28.9020   42.8720 C   0  0  0  0  0  0  0  0  0  0  0  0
   38.9360   28.1830   43.5330 O   0  0  0  0  0  0  0  0  0  0  0  0
   38.7190   26.8580   43.3330 C   0  0  0  0  0  0  0  0  0  0  0  0
   36.7560   26.4020   43.6170 H   0  0  0  0  0  0  0  0  0  0  0  0
   37.7370   27.7730   41.0600 H   0  0  0  0  0  0  0  0  0  0  0  0
   38.5590   29.5570   42.1670 H   0  0  0  0  0  0  0  0  0  0  0  0
   37.4130   29.6390   43.4550 H   0  0  0  0  0  0  0  0  0  0  0  0
   38.9150   26.2030   44.1780 H   0  0  0  0  0  0  0  0  0  0  0  0
   39.4230   26.5260   42.5230 H   0  0  0  0  0  0  0  0  0  0  0  0
   35.8980   28.3520   41.7900 O   0  0  0  0  0  0  0  0  0  0  0  0
   34.6720   29.2500   39.7190 O   0  0  0  0  0  0  0  0  0  0  0  0
   35.8620   29.5150   40.6030 P   0  0  1  0  0  0  0  0  0  0  0  0
   35.6720   31.0430   41.3100 O   0  0  0  0  0  0  0  0  0  0  0  0
   35.3290   31.7080   40.6790 H   0  0  0  0  0  0  0  0  0  0  0  0
   37.2450   29.4820   39.6040 O   0  0  0  0  0  0  0  0  0  0  0  0
   39.2820   31.9270   37.9820 C   0  0  0  0  0  0  0  0  0  0  0  0
   39.7650   32.7360   39.0440 C   0  0  0  0  0  0  0  0  0  0  0  0
   39.3470   32.3880   40.3410 C   0  0  0  0  0  0  0  0  0  0  0  0
   38.5270   31.3220   40.4890 N   0  0  0  0  0  0  0  0  0  0  0  0
   38.0930   30.5820   39.4540 C   0  0  0  0  0  0  0  0  0  0  0  0
   38.4740   30.8900   38.2070 N   0  0  0  0  0  0  0  0  0  0  0  0
   40.4230   33.5810   38.8620 H   0  0  0  0  0  0  0  0  0  0  0  0
   39.6840   32.9710   41.1890 H   0  0  0  0  0  0  0  0  0  0  0  0
   39.6890   32.2650   36.7160 O   0  0  0  0  0  0  0  0  0  0  0  0
   40.6370   32.6040   36.5910 H   0  0  0  0  0  0  0  0  0  0  0  0
   37.2140   25.5480   41.9800 O   0  0  0  0  0  0  0  0  0  0  0  0
   36.1600   26.1110   39.1170 O   0  0  0  0  0  0  0  0  0  0  0  0
   36.8520   25.1800   39.6560 C   0  0  0  0  0  0  0  0  0  0  0  0
   37.8080   25.4430   40.7910 C   0  0  2  0  0  3  0  0  0  0  0  0
   38.5570   24.1270   40.7660 C   0  0  0  0  0  3  0  0  0  0  0  0
   39.4180   24.1190   40.0810 H   0  0  0  0  0  0  0  0  0  0  0  0
   37.4870   23.1230   40.3440 C   0  0  0  0  0  3  0  0  0  0  0  0
   38.0200   22.2550   39.9020 H   0  0  0  0  0  0  0  0  0  0  0  0
   36.8080   23.8110   39.2610 N   0  0  0  0  0  0  0  0  0  0  0  0
   36.3590   23.5010   38.3710 H   0  0  0  0  0  0  0  0  0  0  0  0
  1  5  1  0  0  0  0
  1  6  1  1  0  0  0
  2  7  1  6  0  0  0
  2  1  1  0  0  0  0
  2  3  1  0  0  0  0
  3  9  1  0  0  0  0
  3  4  1  0  0  0  0
  5  4  1  0  0  0  0
  5 10  1  0  0  0  0
  8  3  1  0  0  0  0
 11  5  1  0  0  0  0
 12  2  1  0  0  0  0
 14 13  2  6  0  0  0
 14 15  1  0  0  0  0
 14 12  1  0  0  0  0
 16 15  1  0  0  0  0
 17 14  1  0  0  0  0
 18 23  2  0  0  0  0
 18 19  1  0  0  0  0
 19 20  2  0  0  0  0
 20 21  1  0  0  0  0
 20 25  1  0  0  0  0
 22 17  1  0  0  0  0
 22 21  2  0  0  0  0
 23 22  1  0  0  0  0
 24 19  1  0  0  0  0
 26 18  1  0  0  0  0
 27 26  1  0  0  0  0
 28  1  1  0  0  0  0
 29 30  2  0  0  0  0
 30 31  1  0  0  0  0
 31 28  1  1  0  0  0
 32 31  1  0  0  0  0
 33 32  1  0  0  0  0
 34 32  1  0  0  0  0
 35 34  1  0  0  0  0
 36 30  1  0  0  0  0
 36 34  1  0  0  0  0
 37 36  1  0  0  0  0
M  END
>  <minimizedAffinity>
-5.72523451

$$$$

 OpenBabel03252500263D

 37 39  0  0  1  0  0  0  0  0999 V2000
   37.5630   29.9980   37.8700 C   0  0  2  0  0  0  0  0  0  0  0  0
   37.6350   30.2580   39.3260 C   0  0  2  0  0  0  0  0  0  0  0  0
   38.7350   31.2460   39.4530 C   0  0  0  0  0  0  0  0  0  0  0  0
   38.7720   31.9880   38.2870 O   0  0  0  0  0  0  0  0  0  0  0  0
   37.9410   31.4190   37.3770 C   0  0  0  0  0  0  0  0  0  0  0  0
   38.2210   29.4050   37.3090 H   0  0  0  0  0  0  0  0  0  0  0  0
   36.6530   30.7360   39.5790 H   0  0  0  0  0  0  0  0  0  0  0  0
   38.4000   32.0070   40.2260 H   0  0  0  0  0  0  0  0  0  0  0  0
   39.6890   30.9180   39.8560 H   0  0  0  0  0  0  0  0  0  0  0  0
   38.2780   31.4250   36.3440 H   0  0  0  0  0  0  0  0  0  0  0  0
   36.9860   32.0110   37.3870 H   0  0  0  0  0  0  0  0  0  0  0  0
   37.8330   29.1200   40.0740 O   0  0  0  0  0  0  0  0  0  0  0  0
   37.9310   29.9140   42.5140 O   0  0  0  0  0  0  0  0  0  0  0  0
   37.0240   29.2390   41.5210 P   0  0  1  0  0  0  0  0  0  0  0  0
   35.6420   30.1980   41.3230 O   0  0  0  0  0  0  0  0  0  0  0  0
   35.3130   30.5630   42.1700 H   0  0  0  0  0  0  0  0  0  0  0  0
   36.6110   27.7160   42.1730 O   0  0  0  0  0  0  0  0  0  0  0  0
   38.1780   24.5070   42.1270 C   0  0  0  0  0  0  0  0  0  0  0  0
   39.3710   24.6920   42.8750 C   0  0  0  0  0  0  0  0  0  0  0  0
   39.5960   25.9820   43.3900 C   0  0  0  0  0  0  0  0  0  0  0  0
   38.6780   26.9440   43.1430 N   0  0  0  0  0  0  0  0  0  0  0  0
   37.5600   26.7240   42.4290 C   0  0  0  0  0  0  0  0  0  0  0  0
   37.3190   25.5070   41.9260 N   0  0  0  0  0  0  0  0  0  0  0  0
   40.0720   23.8790   43.0390 H   0  0  0  0  0  0  0  0  0  0  0  0
   40.4910   26.1810   43.9680 H   0  0  0  0  0  0  0  0  0  0  0  0
   37.9570   23.2500   41.6240 O   0  0  0  0  0  0  0  0  0  0  0  0
   38.2300   22.4520   42.1880 H   0  0  0  0  0  0  0  0  0  0  0  0
   36.3340   29.6230   37.4030 O   0  0  0  0  0  0  0  0  0  0  0  0
   38.3770   27.7840   35.9650 O   0  0  0  0  0  0  0  0  0  0  0  0
   37.3190   28.4080   35.6090 C   0  0  0  0  0  0  0  0  0  0  0  0
   36.1560   28.6200   36.5430 C   0  0  2  0  0  3  0  0  0  0  0  0
   35.1260   29.0640   35.5260 C   0  0  0  0  0  3  0  0  0  0  0  0
   34.5690   28.2330   35.0670 H   0  0  0  0  0  0  0  0  0  0  0  0
   35.9560   29.8270   34.4970 C   0  0  0  0  0  3  0  0  0  0  0  0
   35.3800   29.8130   33.5480 H   0  0  0  0  0  0  0  0  0  0  0  0
   37.1130   28.9690   34.3150 N   0  0  0  0  0  0  0  0  0  0  0  0
   37.7240   28.7370   33.5010 H   0  0  0  0  0  0  0  0  0  0  0  0
  1  6  1  6  0  0  0
  1  2  1  0  0  0  0
  2  3  1  0  0  0  0
  2  7  1  1  0  0  0
  2 12  1  0  0  0  0
  3  9  1  0  0  0  0
  3  8  1  0  0  0  0
  4  3  1  0  0  0  0
  5 11  1  0  0  0  0
  5  1  1  0  0  0  0
  5  4  1  0  0  0  0
 10  5  1  0  0  0  0
 12 14  1  0  0  0  0
 14 17  1  0  0  0  0
 14 13  2  1  0  0  0
 15 14  1  0  0  0  0
 15 16  1  0  0  0  0
 17 22  1  0  0  0  0
 18 19  1  0  0  0  0
 19 24  1  0  0  0  0
 19 20  2  0  0  0  0
 20 25  1  0  0  0  0
 21 20  1  0  0  0  0
 22 21  2  0  0  0  0
 23 18  2  0  0  0  0
 23 22  1  0  0  0  0
 26 18  1  0  0  0  0
 26 27  1  0  0  0  0
 28  1  1  0  0  0  0
 30 29  2  0  0  0  0
 30 31  1  0  0  0  0
 31 28  1  1  0  0  0
 32 31  1  0  0  0  0
 33 32  1  0  0  0  0
 34 32  1  0  0  0  0
 35 34  1  0  0  0  0
 36 34  1  0  0  0  0
 36 30  1  0  0  0  0
 37 36  1  0  0  0  0
M  END
>  <minimizedAffinity>
-5.66841841

$$$$

 OpenBabel03252500263D

 37 39  0  0  1  0  0  0  0  0999 V2000
   39.7510   29.9860   39.3820 C   0  0  2  0  0  0  0  0  0  0  0  0
   39.2310   28.9610   40.3140 C   0  0  2  0  0  0  0  0  0  0  0  0
   39.9490   27.7250   39.9140 C   0  0  0  0  0  0  0  0  0  0  0  0
   41.1750   28.0970   39.3990 O   0  0  0  0  0  0  0  0  0  0  0  0
   41.2000   29.4460   39.2530 C   0  0  0  0  0  0  0  0  0  0  0  0
   39.4870   30.1050   38.3740 H   0  0  0  0  0  0  0  0  0  0  0  0
   39.5740   29.2960   41.3270 H   0  0  0  0  0  0  0  0  0  0  0  0
   40.2300   27.1870   40.8730 H   0  0  0  0  0  0  0  0  0  0  0  0
   39.4040   26.9550   39.3750 H   0  0  0  0  0  0  0  0  0  0  0  0
   41.7090   29.8290   38.3720 H   0  0  0  0  0  0  0  0  0  0  0  0
   41.7620   29.8640   40.1320 H   0  0  0  0  0  0  0  0  0  0  0  0
   37.8610   28.8340   40.2770 O   0  0  0  0  0  0  0  0  0  0  0  0
   38.2160   29.9790   42.5480 O   0  0  0  0  0  0  0  0  0  0  0  0
   37.2150   29.1650   41.7720 P   0  0  1  0  0  0  0  0  0  0  0  0
   35.8040   30.0850   41.5910 O   0  0  0  0  0  0  0  0  0  0  0  0
   35.5660   30.5710   42.4070 H   0  0  0  0  0  0  0  0  0  0  0  0
   36.9020   27.7560   42.6820 O   0  0  0  0  0  0  0  0  0  0  0  0
   38.4200   24.5400   42.3440 C   0  0  0  0  0  0  0  0  0  0  0  0
   39.6320   24.6500   43.0760 C   0  0  0  0  0  0  0  0  0  0  0  0
   39.8880   25.8910   43.6860 C   0  0  0  0  0  0  0  0  0  0  0  0
   38.9790   26.8810   43.5390 N   0  0  0  0  0  0  0  0  0  0  0  0
   37.8420   26.7340   42.8360 C   0  0  0  0  0  0  0  0  0  0  0  0
   37.5710   25.5640   42.2440 N   0  0  0  0  0  0  0  0  0  0  0  0
   40.3240   23.8170   43.1580 H   0  0  0  0  0  0  0  0  0  0  0  0
   40.7990   26.0320   44.2570 H   0  0  0  0  0  0  0  0  0  0  0  0
   38.1680   23.3300   41.7480 O   0  0  0  0  0  0  0  0  0  0  0  0
   38.4420   22.4870   42.2400 H   0  0  0  0  0  0  0  0  0  0  0  0
   39.7410   31.2680   39.8580 O   0  0  0  0  0  0  0  0  0  0  0  0
   40.2450   34.3040   40.2510 O   0  0  0  0  0  0  0  0  0  0  0  0
   39.2400   33.5950   39.9000 C   0  0  0  0  0  0  0  0  0  0  0  0
   39.3920   32.3170   39.1140 C   0  0  2  0  0  3  0  0  0  0  0  0
   37.9460   32.1300   38.7050 C   0  0  0  0  0  3  0  0  0  0  0  0
   37.6800   32.6410   37.7680 H   0  0  0  0  0  0  0  0  0  0  0  0
   37.1700   32.6880   39.8950 C   0  0  0  0  0  3  0  0  0  0  0  0
   36.1660   32.9750   39.5160 H   0  0  0  0  0  0  0  0  0  0  0  0
   37.8840   33.9150   40.2000 N   0  0  0  0  0  0  0  0  0  0  0  0
   37.5970   34.8540   40.5520 H   0  0  0  0  0  0  0  0  0  0  0  0
  1  6  1  6  0  0  0
  1 28  1  0  0  0  0
  1  2  1  0  0  0  0
  2  7  1  1  0  0  0
  3  2  1  0  0  0  0
  3  8  1  0  0  0  0
  4  3  1  0  0  0  0
  5  1  1  0  0  0  0
  5  4  1  0  0  0  0
  5 11  1  0  0  0  0
  9  3  1  0  0  0  0
 10  5  1  0  0  0  0
 12  2  1  0  0  0  0
 12 14  1  0  0  0  0
 14 13  2  1  0  0  0
 14 17  1  0  0  0  0
 15 14  1  0  0  0  0
 15 16  1  0  0  0  0
 17 22  1  0  0  0  0
 18 19  1  0  0  0  0
 19 24  1  0  0  0  0
 19 20  2  0  0  0  0
 20 25  1  0  0  0  0
 21 20  1  0  0  0  0
 22 21  2  0  0  0  0
 23 18  2  0  0  0  0
 23 22  1  0  0  0  0
 26 27  1  0  0  0  0
 26 18  1  0  0  0  0
 30 36  1  0  0  0  0
 30 29  2  0  0  0  0
 31 28  1  1  0  0  0
 31 30  1  0  0  0  0
 32 31  1  0  0  0  0
 32 34  1  0  0  0  0
 33 32  1  0  0  0  0
 34 36  1  0  0  0  0
 35 34  1  0  0  0  0
 36 37  1  0  0  0  0
M  END
>  <minimizedAffinity>
-5.51145029

$$$$

 OpenBabel03252500263D

 37 39  0  0  1  0  0  0  0  0999 V2000
   37.7380   27.0720   39.5180 C   0  0  2  0  0  0  0  0  0  0  0  0
   37.4970   28.0860   38.4680 C   0  0  2  0  0  0  0  0  0  0  0  0
   36.7500   27.3410   37.4240 C   0  0  0  0  0  0  0  0  0  0  0  0
   36.0320   26.3410   38.0510 O   0  0  0  0  0  0  0  0  0  0  0  0
   36.4210   26.2680   39.3490 C   0  0  0  0  0  0  0  0  0  0  0  0
   38.4510   26.3030   39.4930 H   0  0  0  0  0  0  0  0  0  0  0  0
   36.8300   28.8460   38.9520 H   0  0  0  0  0  0  0  0  0  0  0  0
   35.9370   28.0370   37.0460 H   0  0  0  0  0  0  0  0  0  0  0  0
   37.2630   27.0730   36.5040 H   0  0  0  0  0  0  0  0  0  0  0  0
   36.4840   25.2720   39.7800 H   0  0  0  0  0  0  0  0  0  0  0  0
   35.6490   26.8120   39.9570 H   0  0  0  0  0  0  0  0  0  0  0  0
   38.6500   28.6730   38.0010 O   0  0  0  0  0  0  0  0  0  0  0  0
   37.3290   30.8450   38.3610 O   0  0  0  0  0  0  0  0  0  0  0  0
   38.7140   30.2650   38.4730 P   0  0  1  0  0  0  0  0  0  0  0  0
   39.2020   30.3600   40.0930 O   0  0  0  0  0  0  0  0  0  0  0  0
   38.9540   31.2090   40.5100 H   0  0  0  0  0  0  0  0  0  0  0  0
   39.7340   31.2080   37.4810 O   0  0  0  0  0  0  0  0  0  0  0  0
   42.1110   33.8720   37.5700 C   0  0  0  0  0  0  0  0  0  0  0  0
   41.8480   34.5320   38.8000 C   0  0  0  0  0  0  0  0  0  0  0  0
   40.8080   34.0030   39.5870 C   0  0  0  0  0  0  0  0  0  0  0  0
   40.1400   32.9200   39.1290 N   0  0  0  0  0  0  0  0  0  0  0  0
   40.4230   32.3260   37.9560 C   0  0  0  0  0  0  0  0  0  0  0  0
   41.4070   32.8060   37.1850 N   0  0  0  0  0  0  0  0  0  0  0  0
   42.4200   35.3990   39.1140 H   0  0  0  0  0  0  0  0  0  0  0  0
   40.5630   34.4670   40.5350 H   0  0  0  0  0  0  0  0  0  0  0  0
   43.1250   34.3860   36.8010 O   0  0  0  0  0  0  0  0  0  0  0  0
   43.9480   34.7470   37.2710 H   0  0  0  0  0  0  0  0  0  0  0  0
   37.8570   27.5630   40.7890 O   0  0  0  0  0  0  0  0  0  0  0  0
   36.6060   30.2950   41.5620 O   0  0  0  0  0  0  0  0  0  0  0  0
   36.8920   29.2220   42.1970 C   0  0  0  0  0  0  0  0  0  0  0  0
   36.8080   27.8610   41.5550 C   0  0  2  0  0  3  0  0  0  0  0  0
   36.8980   27.0140   42.8080 C   0  0  0  0  0  3  0  0  0  0  0  0
   35.9250   26.8190   43.2830 H   0  0  0  0  0  0  0  0  0  0  0  0
   37.8190   27.8270   43.7140 C   0  0  0  0  0  3  0  0  0  0  0  0
   37.6010   27.5120   44.7560 H   0  0  0  0  0  0  0  0  0  0  0  0
   37.3140   29.1800   43.5580 N   0  0  0  0  0  0  0  0  0  0  0  0
   37.2280   30.0020   44.1950 H   0  0  0  0  0  0  0  0  0  0  0  0
  1  6  1  6  0  0  0
  1 28  1  0  0  0  0
  2  7  1  1  0  0  0
  2  1  1  0  0  0  0
  3  4  1  0  0  0  0
  3  2  1  0  0  0  0
  4  5  1  0  0  0  0
  5  1  1  0  0  0  0
  5 10  1  0  0  0  0
  5 11  1  0  0  0  0
  8  3  1  0  0  0  0
  9  3  1  0  0  0  0
 12  2  1  0  0  0  0
 12 14  1  0  0  0  0
 14 13  2  6  0  0  0
 14 15  1  0  0  0  0
 15 16  1  0  0  0  0
 17 22  1  0  0  0  0
 17 14  1  0  0  0  0
 18 19  1  0  0  0  0
 19 24  1  0  0  0  0
 19 20  2  0  0  0  0
 20 25  1  0  0  0  0
 21 20  1  0  0  0  0
 22 21  2  0  0  0  0
 23 18  2  0  0  0  0
 23 22  1  0  0  0  0
 26 27  1  0  0  0  0
 26 18  1  0  0  0  0
 29 30  2  0  0  0  0
 30 36  1  0  0  0  0
 31 28  1  6  0  0  0
 31 30  1  0  0  0  0
 31 32  1  0  0  0  0
 32 33  1  0  0  0  0
 32 34  1  0  0  0  0
 34 35  1  0  0  0  0
 36 34  1  0  0  0  0
 36 37  1  0  0  0  0
M  END
>  <minimizedAffinity>
-5.50018787

$$$$

 OpenBabel03252500263D

 37 39  0  0  1  0  0  0  0  0999 V2000
   36.9640   29.6400   37.9910 C   0  0  2  0  0  0  0  0  0  0  0  0
   37.4920   30.0150   39.3220 C   0  0  2  0  0  0  0  0  0  0  0  0
   38.7330   30.7670   39.0100 C   0  0  0  0  0  0  0  0  0  0  0  0
   38.5610   31.3720   37.7800 O   0  0  0  0  0  0  0  0  0  0  0  0
   37.4210   30.9020   37.2130 C   0  0  0  0  0  0  0  0  0  0  0  0
   37.3240   28.8750   37.3700 H   0  0  0  0  0  0  0  0  0  0  0  0
   36.7190   30.7060   39.7510 H   0  0  0  0  0  0  0  0  0  0  0  0
   38.7680   31.6490   39.7230 H   0  0  0  0  0  0  0  0  0  0  0  0
   39.6920   30.2910   39.1930 H   0  0  0  0  0  0  0  0  0  0  0  0
   37.4450   30.7420   36.1380 H   0  0  0  0  0  0  0  0  0  0  0  0
   36.6230   31.6740   37.3860 H   0  0  0  0  0  0  0  0  0  0  0  0
   37.6990   28.9370   40.1510 O   0  0  0  0  0  0  0  0  0  0  0  0
   38.3110   30.0210   42.3970 O   0  0  0  0  0  0  0  0  0  0  0  0
   37.1950   29.2950   41.6940 P   0  0  1  0  0  0  0  0  0  0  0  0
   35.8490   30.3210   41.6290 O   0  0  0  0  0  0  0  0  0  0  0  0
   35.7100   30.8120   42.4640 H   0  0  0  0  0  0  0  0  0  0  0  0
   36.8460   27.9010   42.6150 O   0  0  0  0  0  0  0  0  0  0  0  0
   38.2960   24.6490   42.3260 C   0  0  0  0  0  0  0  0  0  0  0  0
   39.5080   24.7430   43.0590 C   0  0  0  0  0  0  0  0  0  0  0  0
   39.7900   25.9880   43.6530 C   0  0  0  0  0  0  0  0  0  0  0  0
   38.9020   26.9950   43.4890 N   0  0  0  0  0  0  0  0  0  0  0  0
   37.7640   26.8620   42.7850 C   0  0  0  0  0  0  0  0  0  0  0  0
   37.4690   25.6900   42.2090 N   0  0  0  0  0  0  0  0  0  0  0  0
   40.1820   23.8980   43.1560 H   0  0  0  0  0  0  0  0  0  0  0  0
   40.7020   26.1170   44.2240 H   0  0  0  0  0  0  0  0  0  0  0  0
   38.0190   23.4360   41.7480 O   0  0  0  0  0  0  0  0  0  0  0  0
   38.2740   22.5950   42.2520 H   0  0  0  0  0  0  0  0  0  0  0  0
   35.6080   29.4810   37.9230 O   0  0  0  0  0  0  0  0  0  0  0  0
   32.5970   29.4170   37.1760 O   0  0  0  0  0  0  0  0  0  0  0  0
   33.5630   28.5820   37.1010 C   0  0  0  0  0  0  0  0  0  0  0  0
   34.9830   29.0150   36.8420 C   0  0  2  0  0  3  0  0  0  0  0  0
   35.5770   27.6600   36.5160 C   0  0  0  0  0  3  0  0  0  0  0  0
   35.4970   27.3850   35.4540 H   0  0  0  0  0  0  0  0  0  0  0  0
   34.7870   26.7080   37.4090 C   0  0  0  0  0  3  0  0  0  0  0  0
   34.8520   25.7030   36.9420 H   0  0  0  0  0  0  0  0  0  0  0  0
   33.4200   27.1710   37.2480 N   0  0  0  0  0  0  0  0  0  0  0  0
   32.4900   26.6990   37.2270 H   0  0  0  0  0  0  0  0  0  0  0  0
  1  6  1  6  0  0  0
  1  2  1  0  0  0  0
  2  7  1  1  0  0  0
  2 12  1  0  0  0  0
  3  9  1  0  0  0  0
  3  2  1  0  0  0  0
  3  8  1  0  0  0  0
  4  3  1  0  0  0  0
  5 11  1  0  0  0  0
  5  4  1  0  0  0  0
  5  1  1  0  0  0  0
 10  5  1  0  0  0  0
 12 14  1  0  0  0  0
 14 13  2  1  0  0  0
 14 17  1  0  0  0  0
 15 14  1  0  0  0  0
 15 16  1  0  0  0  0
 17 22  1  0  0  0  0
 18 19  1  0  0  0  0
 19 24  1  0  0  0  0
 19 20  2  0  0  0  0
 20 25  1  0  0  0  0
 21 20  1  0  0  0  0
 22 21  2  0  0  0  0
 23 18  2  0  0  0  0
 23 22  1  0  0  0  0
 26 27  1  0  0  0  0
 26 18  1  0  0  0  0
 28  1  1  0  0  0  0
 30 29  2  0  0  0  0
 30 36  1  0  0  0  0
 31 30  1  0  0  0  0
 31 28  1  1  0  0  0
 32 31  1  0  0  0  0
 32 34  1  0  0  0  0
 33 32  1  0  0  0  0
 35 34  1  0  0  0  0
 36 34  1  0  0  0  0
 37 36  1  0  0  0  0
M  END
>  <minimizedAffinity>
-5.32840443

$$$$

 OpenBabel03252500263D

 37 39  0  0  1  0  0  0  0  0999 V2000
   39.2350   30.3210   38.6030 C   0  0  2  0  0  0  0  0  0  0  0  0
   40.1360   30.9560   39.5910 C   0  0  2  0  0  0  0  0  0  0  0  0
   40.9640   31.8760   38.7730 C   0  0  0  0  0  0  0  0  0  0  0  0
   40.2060   32.2750   37.6900 O   0  0  0  0  0  0  0  0  0  0  0  0
   39.0690   31.5340   37.6510 C   0  0  0  0  0  0  0  0  0  0  0  0
   39.4890   29.5620   37.9250 H   0  0  0  0  0  0  0  0  0  0  0  0
   39.4550   31.5410   40.2630 H   0  0  0  0  0  0  0  0  0  0  0  0
   41.0740   32.8330   39.3720 H   0  0  0  0  0  0  0  0  0  0  0  0
   42.0000   31.6120   38.5770 H   0  0  0  0  0  0  0  0  0  0  0  0
   38.7140   31.2440   36.6650 H   0  0  0  0  0  0  0  0  0  0  0  0
   38.2500   32.1620   38.0940 H   0  0  0  0  0  0  0  0  0  0  0  0
   40.8770   30.0490   40.3150 O   0  0  0  0  0  0  0  0  0  0  0  0
   40.6600   31.4920   42.4290 O   0  0  0  0  0  0  0  0  0  0  0  0
   40.4320   30.0950   41.9160 P   0  0  1  0  0  0  0  0  0  0  0  0
   38.7830   29.7360   42.0580 O   0  0  0  0  0  0  0  0  0  0  0  0
   38.4010   30.0540   42.9020 H   0  0  0  0  0  0  0  0  0  0  0  0
   41.3620   29.0460   42.8890 O   0  0  0  0  0  0  0  0  0  0  0  0
   41.9010   25.5390   43.2970 C   0  0  0  0  0  0  0  0  0  0  0  0
   40.5930   24.9860   43.3150 C   0  0  0  0  0  0  0  0  0  0  0  0
   39.5260   25.8920   43.1790 C   0  0  0  0  0  0  0  0  0  0  0  0
   39.8110   27.2080   43.0410 N   0  0  0  0  0  0  0  0  0  0  0  0
   41.0660   27.6880   43.0300 C   0  0  0  0  0  0  0  0  0  0  0  0
   42.1030   26.8500   43.1580 N   0  0  0  0  0  0  0  0  0  0  0  0
   40.4280   23.9190   43.4280 H   0  0  0  0  0  0  0  0  0  0  0  0
   38.5060   25.5260   43.1860 H   0  0  0  0  0  0  0  0  0  0  0  0
   42.9440   24.6560   43.4300 O   0  0  0  0  0  0  0  0  0  0  0  0
   42.8630   23.7480   42.9860 H   0  0  0  0  0  0  0  0  0  0  0  0
   38.0280   29.9080   39.0930 O   0  0  0  0  0  0  0  0  0  0  0  0
   37.3140   32.5450   40.5640 O   0  0  0  0  0  0  0  0  0  0  0  0
   36.6930   31.4550   40.3150 C   0  0  0  0  0  0  0  0  0  0  0  0
   36.9300   30.6630   39.0550 C   0  0  2  0  0  3  0  0  0  0  0  0
   35.7330   29.7400   39.1390 C   0  0  0  0  0  3  0  0  0  0  0  0
   34.8220   30.1500   38.6770 H   0  0  0  0  0  0  0  0  0  0  0  0
   35.5600   29.5270   40.6410 C   0  0  0  0  0  3  0  0  0  0  0  0
   34.5020   29.2330   40.8030 H   0  0  0  0  0  0  0  0  0  0  0  0
   35.7230   30.8660   41.1780 N   0  0  0  0  0  0  0  0  0  0  0  0
   35.3010   31.3840   41.9790 H   0  0  0  0  0  0  0  0  0  0  0  0
  1  6  1  6  0  0  0
  1 28  1  0  0  0  0
  1  2  1  0  0  0  0
  2  7  1  1  0  0  0
  2 12  1  0  0  0  0
  3  8  1  0  0  0  0
  3  2  1  0  0  0  0
  4  3  1  0  0  0  0
  5  4  1  0  0  0  0
  5 11  1  0  0  0  0
  5  1  1  0  0  0  0
  9  3  1  0  0  0  0
 10  5  1  0  0  0  0
 12 14  1  0  0  0  0
 14 15  1  0  0  0  0
 14 13  2  1  0  0  0
 14 17  1  0  0  0  0
 15 16  1  0  0  0  0
 17 22  1  0  0  0  0
 18 19  1  0  0  0  0
 18 26  1  0  0  0  0
 19 24  1  0  0  0  0
 20 25  1  0  0  0  0
 20 19  2  0  0  0  0
 21 20  1  0  0  0  0
 22 21  2  0  0  0  0
 22 23  1  0  0  0  0
 23 18  2  0  0  0  0
 27 26  1  0  0  0  0
 30 29  2  0  0  0  0
 30 36  1  0  0  0  0
 31 28  1  1  0  0  0
 31 32  1  0  0  0  0
 31 30  1  0  0  0  0
 32 34  1  0  0  0  0
 33 32  1  0  0  0  0
 34 35  1  0  0  0  0
 34 36  1  0  0  0  0
 36 37  1  0  0  0  0
M  END
>  <minimizedAffinity>
-5.30541277

$$$$

 OpenBabel03252500263D

 37 39  0  0  1  0  0  0  0  0999 V2000
   37.5240   26.4090   42.0290 C   0  0  2  0  0  0  0  0  0  0  0  0
   37.4260   27.8760   41.8620 C   0  0  2  0  0  0  0  0  0  0  0  0
   37.7570   28.4070   43.2080 C   0  0  0  0  0  0  0  0  0  0  0  0
   38.6150   27.5100   43.8150 O   0  0  0  0  0  0  0  0  0  0  0  0
   38.6820   26.3850   43.0600 C   0  0  0  0  0  0  0  0  0  0  0  0
   36.8210   25.7860   42.4960 H   0  0  0  0  0  0  0  0  0  0  0  0
   38.2390   28.1350   41.1340 H   0  0  0  0  0  0  0  0  0  0  0  0
   38.4150   29.3170   43.0460 H   0  0  0  0  0  0  0  0  0  0  0  0
   36.9570   28.8130   43.8210 H   0  0  0  0  0  0  0  0  0  0  0  0
   38.7400   25.4430   43.5990 H   0  0  0  0  0  0  0  0  0  0  0  0
   39.6300   26.4470   42.4590 H   0  0  0  0  0  0  0  0  0  0  0  0
   36.2000   28.2920   41.3960 O   0  0  0  0  0  0  0  0  0  0  0  0
   35.6990   29.6110   39.2500 O   0  0  0  0  0  0  0  0  0  0  0  0
   36.3530   29.7430   40.6000 P   0  0  1  0  0  0  0  0  0  0  0  0
   35.5480   30.9560   41.4670 O   0  0  0  0  0  0  0  0  0  0  0  0
   35.3290   31.7320   40.9120 H   0  0  0  0  0  0  0  0  0  0  0  0
   37.9810   30.1780   40.3270 O   0  0  0  0  0  0  0  0  0  0  0  0
   40.1480   32.9770   40.8060 C   0  0  0  0  0  0  0  0  0  0  0  0
   39.3770   34.0910   40.3780 C   0  0  0  0  0  0  0  0  0  0  0  0
   38.0750   33.8150   39.9190 C   0  0  0  0  0  0  0  0  0  0  0  0
   37.6520   32.5310   39.9160 N   0  0  0  0  0  0  0  0  0  0  0  0
   38.4160   31.5050   40.3300 C   0  0  0  0  0  0  0  0  0  0  0  0
   39.6590   31.7370   40.7730 N   0  0  0  0  0  0  0  0  0  0  0  0
   39.7730   35.1010   40.4050 H   0  0  0  0  0  0  0  0  0  0  0  0
   37.4420   34.6270   39.5800 H   0  0  0  0  0  0  0  0  0  0  0  0
   41.4170   33.2440   41.2540 O   0  0  0  0  0  0  0  0  0  0  0  0
   41.5690   34.0930   41.7880 H   0  0  0  0  0  0  0  0  0  0  0  0
   37.8520   25.7120   40.8990 O   0  0  0  0  0  0  0  0  0  0  0  0
   40.6990   25.0230   39.8760 O   0  0  0  0  0  0  0  0  0  0  0  0
   39.5570   24.4510   39.8180 C   0  0  0  0  0  0  0  0  0  0  0  0
   38.5390   24.5700   40.9230 C   0  0  2  0  0  3  0  0  0  0  0  0
   37.6030   23.4610   40.4900 C   0  0  0  0  0  3  0  0  0  0  0  0
   37.8740   22.4710   40.8850 H   0  0  0  0  0  0  0  0  0  0  0  0
   37.6890   23.5060   38.9660 C   0  0  0  0  0  3  0  0  0  0  0  0
   37.3900   22.5020   38.5990 H   0  0  0  0  0  0  0  0  0  0  0  0
   39.1140   23.6470   38.7270 N   0  0  0  0  0  0  0  0  0  0  0  0
   39.7640   23.3020   37.9870 H   0  0  0  0  0  0  0  0  0  0  0  0
  1  6  1  1  0  0  0
  1  5  1  0  0  0  0
  2  7  1  6  0  0  0
  2  1  1  0  0  0  0
  2  3  1  0  0  0  0
  3  4  1  0  0  0  0
  3  9  1  0  0  0  0
  5 10  1  0  0  0  0
  5  4  1  0  0  0  0
  8  3  1  0  0  0  0
 11  5  1  0  0  0  0
 12  2  1  0  0  0  0
 14 13  2  6  0  0  0
 14 12  1  0  0  0  0
 14 15  1  0  0  0  0
 16 15  1  0  0  0  0
 17 22  1  0  0  0  0
 17 14  1  0  0  0  0
 18 26  1  0  0  0  0
 19 24  1  0  0  0  0
 19 18  2  0  0  0  0
 20 19  1  0  0  0  0
 21 20  2  0  0  0  0
 21 22  1  0  0  0  0
 22 23  2  0  0  0  0
 23 18  1  0  0  0  0
 25 20  1  0  0  0  0
 26 27  1  0  0  0  0
 28  1  1  0  0  0  0
 30 29  2  0  0  0  0
 30 31  1  0  0  0  0
 31 28  1  6  0  0  0
 32 33  1  0  0  0  0
 32 31  1  0  0  0  0
 34 32  1  0  0  0  0
 35 34  1  0  0  0  0
 36 34  1  0  0  0  0
 36 30  1  0  0  0  0
 37 36  1  0  0  0  0
M  END
>  <minimizedAffinity>
-5.2536397

$$$$

 OpenBabel03252500263D

 37 39  0  0  1  0  0  0  0  0999 V2000
   37.1930   31.6310   39.4030 C   0  0  2  0  0  0  0  0  0  0  0  0
   37.2080   30.2310   39.8830 C   0  0  2  0  0  0  0  0  0  0  0  0
   36.4470   29.4930   38.8440 C   0  0  0  0  0  0  0  0  0  0  0  0
   36.6210   30.1560   37.6440 O   0  0  0  0  0  0  0  0  0  0  0  0
   37.2440   31.3380   37.8800 C   0  0  0  0  0  0  0  0  0  0  0  0
   36.3870   32.2990   39.4550 H   0  0  0  0  0  0  0  0  0  0  0  0
   38.2890   29.9320   39.8550 H   0  0  0  0  0  0  0  0  0  0  0  0
   36.9930   28.5140   38.6740 H   0  0  0  0  0  0  0  0  0  0  0  0
   35.4410   29.1540   39.0750 H   0  0  0  0  0  0  0  0  0  0  0  0
   36.9180   32.1850   37.2820 H   0  0  0  0  0  0  0  0  0  0  0  0
   38.3310   31.1940   37.6320 H   0  0  0  0  0  0  0  0  0  0  0  0
   36.6910   30.0820   41.1490 O   0  0  0  0  0  0  0  0  0  0  0  0
   38.7900   28.6040   41.2020 O   0  0  0  0  0  0  0  0  0  0  0  0
   37.5460   28.9280   41.9860 P   0  0  1  0  0  0  0  0  0  0  0  0
   38.0110   29.5460   43.4930 O   0  0  0  0  0  0  0  0  0  0  0  0
   38.7640   29.0570   43.8830 H   0  0  0  0  0  0  0  0  0  0  0  0
   36.6780   27.4710   42.1740 O   0  0  0  0  0  0  0  0  0  0  0  0
   38.5350   24.4230   42.3180 C   0  0  0  0  0  0  0  0  0  0  0  0
   38.2500   23.7840   41.0820 C   0  0  0  0  0  0  0  0  0  0  0  0
   37.3840   24.4650   40.2070 C   0  0  0  0  0  0  0  0  0  0  0  0
   36.8900   25.6640   40.5920 N   0  0  0  0  0  0  0  0  0  0  0  0
   37.1870   26.2340   41.7730 C   0  0  0  0  0  0  0  0  0  0  0  0
   38.0080   25.6090   42.6270 N   0  0  0  0  0  0  0  0  0  0  0  0
   38.6780   22.8190   40.8280 H   0  0  0  0  0  0  0  0  0  0  0  0
   37.1310   24.0240   39.2500 H   0  0  0  0  0  0  0  0  0  0  0  0
   39.3790   23.7600   43.1720 O   0  0  0  0  0  0  0  0  0  0  0  0
   40.1560   23.2430   42.7750 H   0  0  0  0  0  0  0  0  0  0  0  0
   38.2560   32.3950   39.7960 O   0  0  0  0  0  0  0  0  0  0  0  0
   40.0020   31.4840   42.1930 O   0  0  0  0  0  0  0  0  0  0  0  0
   40.2010   32.2020   41.1540 C   0  0  0  0  0  0  0  0  0  0  0  0
   39.5050   31.9340   39.8450 C   0  0  2  0  0  3  0  0  0  0  0  0
   40.3560   32.8140   38.9520 C   0  0  0  0  0  3  0  0  0  0  0  0
   41.2460   32.3080   38.5490 H   0  0  0  0  0  0  0  0  0  0  0  0
   40.7280   33.9800   39.8620 C   0  0  0  0  0  3  0  0  0  0  0  0
   41.6560   34.4270   39.4470 H   0  0  0  0  0  0  0  0  0  0  0  0
   41.0860   33.3190   41.1050 N   0  0  0  0  0  0  0  0  0  0  0  0
   41.7860   33.5110   41.8540 H   0  0  0  0  0  0  0  0  0  0  0  0
  1  6  1  1  0  0  0
  1 28  1  0  0  0  0
  1  2  1  0  0  0  0
  2  7  1  6  0  0  0
  2 12  1  0  0  0  0
  3  9  1  0  0  0  0
  3  2  1  0  0  0  0
  4  5  1  0  0  0  0
  4  3  1  0  0  0  0
  5  1  1  0  0  0  0
  8  3  1  0  0  0  0
 10  5  1  0  0  0  0
 11  5  1  0  0  0  0
 12 14  1  0  0  0  0
 14 13  2  6  0  0  0
 14 17  1  0  0  0  0
 14 15  1  0  0  0  0
 15 16  1  0  0  0  0
 18 23  1  0  0  0  0
 18 26  1  0  0  0  0
 19 18  2  0  0  0  0
 20 21  2  0  0  0  0
 20 19  1  0  0  0  0
 21 22  1  0  0  0  0
 22 17  1  0  0  0  0
 22 23  2  0  0  0  0
 24 19  1  0  0  0  0
 25 20  1  0  0  0  0
 27 26  1  0  0  0  0
 30 29  2  0  0  0  0
 31 28  1  1  0  0  0
 31 30  1  0  0  0  0
 32 31  1  0  0  0  0
 32 34  1  0  0  0  0
 33 32  1  0  0  0  0
 34 36  1  0  0  0  0
 35 34  1  0  0  0  0
 36 30  1  0  0  0  0
 36 37  1  0  0  0  0
M  END
>  <minimizedAffinity>
-5.23418951

$$$$
