
 OpenBabel03252508323D

 32 34  0  0  1  0  0  0  0  0999 V2000
   45.5870   33.9340   43.2070 N   0  0  0  0  0  0  0  0  0  0  0  0
   46.0670   33.4420   41.9650 C   0  0  1  0  0  0  0  0  0  0  0  0
   45.7130   34.2900   40.7830 C   0  0  0  0  0  0  0  0  0  0  0  0
   44.4540   34.9010   40.7980 N   0  0  0  0  0  0  0  0  0  0  0  0
   44.0210   35.4110   42.0320 C   0  0  0  0  0  0  0  0  0  0  0  0
   45.0340   35.2570   43.1250 C   0  0  0  0  0  0  0  0  0  0  0  0
   45.6340   32.4340   41.8010 H   0  0  0  0  0  0  0  0  0  0  0  0
   46.4660   35.1350   40.7980 H   0  0  0  0  0  0  0  0  0  0  0  0
   45.8530   33.7010   39.8540 H   0  0  0  0  0  0  0  0  0  0  0  0
   44.2540   35.4110   39.9390 H   0  0  0  0  0  0  0  0  0  0  0  0
   43.0690   34.9360   42.3260 H   0  0  0  0  0  0  0  0  0  0  0  0
   43.8830   36.5250   41.9120 H   0  0  0  0  0  0  0  0  0  0  0  0
   44.6400   35.6810   44.0610 H   0  0  0  0  0  0  0  0  0  0  0  0
   45.8720   35.9490   42.8400 H   0  0  0  0  0  0  0  0  0  0  0  0
   45.7020   33.8100   45.5780 C   0  0  0  0  0  0  0  0  0  0  0  0
   45.6960   33.1260   44.3500 C   0  0  0  0  0  0  0  0  0  0  0  0
   45.8160   31.7480   44.3660 C   0  0  0  0  0  0  0  0  0  0  0  0
   45.9400   31.0680   45.5410 N   0  0  0  0  0  0  0  0  0  0  0  0
   45.9450   31.7560   46.7250 C   0  0  0  0  0  0  0  0  0  0  0  0
   45.8280   33.0970   46.7360 N   0  0  0  0  0  0  0  0  0  0  0  0
   45.6230   34.8650   45.7820 H   0  0  0  0  0  0  0  0  0  0  0  0
   45.7970   31.2110   43.4290 H   0  0  0  0  0  0  0  0  0  0  0  0
   46.0430   31.2180   47.6570 H   0  0  0  0  0  0  0  0  0  0  0  0
   48.5260   35.7630   41.7040 O   0  0  0  0  0  0  0  0  0  0  0  0
   48.3390   34.5050   41.7430 C   0  0  0  0  0  0  0  0  0  0  0  0
   47.5580   33.2590   41.9090 C   0  0  2  0  0  3  0  0  0  0  0  0
   48.0100   32.4930   40.6880 C   0  0  0  0  0  3  0  0  0  0  0  0
   47.8460   33.0310   39.7510 H   0  0  0  0  0  0  0  0  0  0  0  0
   49.5280   32.5470   40.9320 C   0  0  0  0  0  3  0  0  0  0  0  0
   49.8460   31.7910   41.6600 H   0  0  0  0  0  0  0  0  0  0  0  0
   49.6350   33.9160   41.4650 N   0  0  0  0  0  0  0  0  0  0  0  0
   50.6780   34.1470   41.5180 H   0  0  0  0  0  0  0  0  0  0  0  0
  1 16  1  0  0  0  0
  2  7  1  6  0  0  0
  2  1  1  0  0  0  0
  3  4  1  0  0  0  0
  3  8  1  0  0  0  0
  3  2  1  0  0  0  0
  4  5  1  0  0  0  0
  5 11  1  0  0  0  0
  5  6  1  0  0  0  0
  6  1  1  0  0  0  0
  6 13  1  0  0  0  0
  9  3  1  0  0  0  0
 10  4  1  0  0  0  0
 12  5  1  0  0  0  0
 14  6  1  0  0  0  0
 15 21  1  0  0  0  0
 15 20  1  0  0  0  0
 16 17  1  0  0  0  0
 16 15  2  0  0  0  0
 17 18  2  0  0  0  0
 18 19  1  0  0  0  0
 19 20  2  0  0  0  0
 19 23  1  0  0  0  0
 22 17  1  0  0  0  0
 24 25  2  0  0  0  0
 25 26  1  0  0  0  0
 26 27  1  6  0  0  0
 26  2  1  0  0  0  0
 27 29  1  0  0  0  0
 28 27  1  0  0  0  0
 29 31  1  0  0  0  0
 29 30  1  0  0  0  0
 31 32  1  0  0  0  0
 31 25  1  0  0  0  0
M  END
>  <minimizedAffinity>
-4.60785913

>  <minimizedRMSD>
2.19785213

$$$$
