
 OpenBabel03242523063D

 45 49  0  0  1  0  0  0  0  0999 V2000
   45.0810   36.0230   43.5230 C   0  0  0  0  0  0  0  0  0  0  0  0
   45.8820   34.9180   43.2870 C   0  0  0  0  0  0  0  0  0  0  0  0
   46.0130   33.9930   44.2910 C   0  0  0  0  0  0  0  0  0  0  0  0
   45.3540   34.2020   45.4730 N   0  0  0  0  0  0  0  0  0  0  0  0
   44.5840   35.2880   45.6710 C   0  0  0  0  0  0  0  0  0  0  0  0
   44.4530   36.1800   44.7090 N   0  0  0  0  0  0  0  0  0  0  0  0
   44.9630   36.7680   42.7430 H   0  0  0  0  0  0  0  0  0  0  0  0
   44.0350   35.5260   46.5700 H   0  0  0  0  0  0  0  0  0  0  0  0
   46.5270   34.8190   42.0520 N   0  0  0  0  0  0  0  0  0  0  0  0
   47.8510   35.2680   41.8410 C   0  0  0  0  0  0  0  0  0  0  0  0
   48.4290   34.9370   40.4910 C   0  0  0  0  0  0  0  0  0  0  0  0
   48.1000   33.6650   39.9810 N   0  0  0  0  0  0  0  0  0  0  0  0
   46.7900   33.2210   40.1960 C   0  0  0  0  0  0  0  0  0  0  0  0
   45.9370   34.2710   40.8810 C   0  0  0  0  0  0  0  0  0  0  0  0
   47.8340   36.3950   41.8910 H   0  0  0  0  0  0  0  0  0  0  0  0
   48.5740   34.9630   42.6310 H   0  0  0  0  0  0  0  0  0  0  0  0
   48.1210   35.7140   39.7510 H   0  0  0  0  0  0  0  0  0  0  0  0
   49.5430   35.0250   40.5840 H   0  0  0  0  0  0  0  0  0  0  0  0
   48.4900   33.5590   39.0440 H   0  0  0  0  0  0  0  0  0  0  0  0
   46.6420   32.2580   40.7010 H   0  0  0  0  0  0  0  0  0  0  0  0
   46.3070   33.0820   39.1820 H   0  0  0  0  0  0  0  0  0  0  0  0
   45.7100   35.1130   40.1750 H   0  0  0  0  0  0  0  0  0  0  0  0
   44.9620   33.7820   41.0980 H   0  0  0  0  0  0  0  0  0  0  0  0
   46.5340   32.1120   45.6070 C   0  0  0  0  0  0  0  0  0  0  0  0
   46.7250   32.7840   44.3800 C   0  0  0  0  0  0  0  0  0  0  0  0
   47.6330   32.0990   43.5910 C   0  0  0  0  0  0  0  0  0  0  0  0
   48.2770   30.9450   43.9110 C   0  0  0  0  0  0  0  0  0  0  0  0
   48.0390   30.3590   45.1330 C   0  0  0  0  0  0  0  0  0  0  0  0
   47.1540   30.9430   46.0000 C   0  0  0  0  0  0  0  0  0  0  0  0
   48.8340   29.2410   45.1630 O   0  0  0  0  0  0  0  0  0  0  0  0
   49.6410   29.1840   43.9920 C   0  0  1  0  0  0  0  0  0  0  0  0
   49.1820   30.2310   43.1440 O   0  0  0  0  0  0  0  0  0  0  0  0
   45.8730   32.3700   46.4600 H   0  0  0  0  0  0  0  0  0  0  0  0
   47.7820   32.5930   42.6860 H   0  0  0  0  0  0  0  0  0  0  0  0
   47.0380   30.4140   46.9050 H   0  0  0  0  0  0  0  0  0  0  0  0
   49.4640   28.2160   43.5100 H   0  0  0  0  0  0  0  0  0  0  0  0
   51.4860   31.1690   42.4170 O   0  0  0  0  0  0  0  0  0  0  0  0
   51.7880   30.2250   43.2250 C   0  0  0  0  0  0  0  0  0  0  0  0
   51.0810   29.4790   44.2720 C   0  0  2  0  0  0  0  0  0  0  0  0
   51.8240   28.1380   44.2810 C   0  0  0  0  0  0  0  0  0  0  0  0
   51.6400   27.5840   45.2150 H   0  0  0  0  0  0  0  0  0  0  0  0
   53.2600   28.6440   44.1970 C   0  0  0  0  0  0  0  0  0  0  0  0
   53.9430   27.8360   43.9290 H   0  0  0  0  0  0  0  0  0  0  0  0
   53.1230   29.6790   43.1900 N   0  0  0  0  0  0  0  0  0  0  0  0
   53.9210   29.9370   42.5650 H   0  0  0  0  0  0  0  0  0  0  0  0
  1  6  1  0  0  0  0
  2  1  2  0  0  0  0
  2  3  1  0  0  0  0
  3 25  1  0  0  0  0
  3  4  2  0  0  0  0
  4  5  1  0  0  0  0
  5  8  1  0  0  0  0
  6  5  2  0  0  0  0
  7  1  1  0  0  0  0
  9  2  1  0  0  0  0
 10 15  1  0  0  0  0
 10  9  1  0  0  0  0
 10 16  1  0  0  0  0
 11 18  1  0  0  0  0
 11 10  1  0  0  0  0
 12 13  1  0  0  0  0
 12 11  1  0  0  0  0
 13 20  1  0  0  0  0
 13 14  1  0  0  0  0
 14 23  1  0  0  0  0
 14  9  1  0  0  0  0
 17 11  1  0  0  0  0
 19 12  1  0  0  0  0
 21 13  1  0  0  0  0
 22 14  1  0  0  0  0
 24 29  1  0  0  0  0
 24 33  1  0  0  0  0
 25 24  2  0  0  0  0
 26 27  2  0  0  0  0
 26 25  1  0  0  0  0
 27 28  1  0  0  0  0
 28 30  1  0  0  0  0
 28 29  2  0  0  0  0
 29 35  1  0  0  0  0
 31 36  1  6  0  0  0
 31 39  1  0  0  0  0
 31 30  1  0  0  0  0
 32 27  1  0  0  0  0
 32 31  1  0  0  0  0
 34 26  1  0  0  0  0
 37 38  2  0  0  0  0
 39 38  1  6  0  0  0
 39 40  1  0  0  0  0
 40 41  1  0  0  0  0
 42 40  1  0  0  0  0
 43 42  1  0  0  0  0
 44 38  1  0  0  0  0
 44 42  1  0  0  0  0
 45 44  1  0  0  0  0
M  END
>  <minimizedAffinity>
-5.52899647

>  <minimizedRMSD>
0.318159759

$$$$
