
 OpenBabel03252505533D

 33 35  0  0  1  0  0  0  0  0999 V2000
   47.2260   30.4800   47.5890 C   0  0  0  0  0  0  0  0  0  0  0  0
   47.9590   29.7600   46.6640 C   0  0  0  0  0  0  0  0  0  0  0  0
   49.1890   29.2890   47.0020 C   0  0  0  0  0  0  0  0  0  0  0  0
   49.7120   29.4990   48.2000 N   0  0  0  0  0  0  0  0  0  0  0  0
   49.0050   30.2000   49.1090 C   0  0  0  0  0  0  0  0  0  0  0  0
   47.7730   30.6930   48.8230 N   0  0  0  0  0  0  0  0  0  0  0  0
   47.4480   29.6480   45.7340 H   0  0  0  0  0  0  0  0  0  0  0  0
   49.6900   28.7370   46.2170 H   0  0  0  0  0  0  0  0  0  0  0  0
   50.7280   32.6640   49.8940 O   0  0  0  0  0  0  0  0  0  0  0  0
   50.5950   31.5440   50.4510 C   0  0  0  0  0  0  0  0  0  0  0  0
   49.5990   30.4420   50.4750 C   0  0  2  0  0  0  0  0  0  0  0  0
   50.4870   29.2660   50.8740 C   0  0  0  0  0  0  0  0  0  0  0  0
   49.9010   28.3960   51.2230 H   0  0  0  0  0  0  0  0  0  0  0  0
   51.2510   29.9430   52.0080 C   0  0  0  0  0  0  0  0  0  0  0  0
   50.5240   30.2940   52.7860 H   0  0  0  0  0  0  0  0  0  0  0  0
   51.6760   31.1570   51.3250 N   0  0  0  0  0  0  0  0  0  0  0  0
   52.6250   31.5710   51.5280 H   0  0  0  0  0  0  0  0  0  0  0  0
   45.9070   31.0900   47.4900 C   0  0  0  0  0  0  0  0  0  0  0  0
   45.3100   30.6770   46.6640 H   0  0  0  0  0  0  0  0  0  0  0  0
   45.3430   30.8510   48.4300 H   0  0  0  0  0  0  0  0  0  0  0  0
   46.0640   32.4860   47.4730 O   0  0  0  0  0  0  0  0  0  0  0  0
   44.9970   34.8860   45.0740 C   0  0  0  0  0  0  0  0  0  0  0  0
   45.8320   34.6690   43.9810 C   0  0  0  0  0  0  0  0  0  0  0  0
   46.7910   33.6510   44.1010 C   0  0  0  0  0  0  0  0  0  0  0  0
   46.8560   32.9450   45.2470 N   0  0  0  0  0  0  0  0  0  0  0  0
   46.0230   33.1970   46.2740 C   0  0  0  0  0  0  0  0  0  0  0  0
   45.0980   34.1580   46.1950 N   0  0  0  0  0  0  0  0  0  0  0  0
   44.2280   35.6600   45.0550 H   0  0  0  0  0  0  0  0  0  0  0  0
   47.4410   33.4810   43.2550 H   0  0  0  0  0  0  0  0  0  0  0  0
   45.6690   35.5150   42.7590 C   0  0  0  0  0  0  0  0  0  0  0  0
   45.2540   36.7480   43.2410 F   0  0  0  0  0  0  0  0  0  0  0  0
   44.6250   34.9360   42.0260 F   0  0  0  0  0  0  0  0  0  0  0  0
   46.8390   35.5560   42.0740 F   0  0  0  0  0  0  0  0  0  0  0  0
  1  6  1  0  0  0  0
  2  3  1  0  0  0  0
  2  1  2  0  0  0  0
  3  4  2  0  0  0  0
  4  5  1  0  0  0  0
  6  5  2  0  0  0  0
  7  2  1  0  0  0  0
  8  3  1  0  0  0  0
  9 10  2  0  0  0  0
 10 11  1  0  0  0  0
 10 16  1  0  0  0  0
 11  5  1  6  0  0  0
 11 12  1  0  0  0  0
 12 13  1  0  0  0  0
 12 14  1  0  0  0  0
 14 15  1  0  0  0  0
 16 17  1  0  0  0  0
 16 14  1  0  0  0  0
 18  1  1  0  0  0  0
 18 20  1  0  0  0  0
 19 18  1  0  0  0  0
 21 18  1  0  0  0  0
 22 27  1  0  0  0  0
 23 24  1  0  0  0  0
 23 22  2  0  0  0  0
 24 25  2  0  0  0  0
 25 26  1  0  0  0  0
 26 21  1  0  0  0  0
 27 26  2  0  0  0  0
 28 22  1  0  0  0  0
 29 24  1  0  0  0  0
 30 31  1  0  0  0  0
 30 23  1  0  0  0  0
 32 30  1  0  0  0  0
 33 30  1  0  0  0  0
M  END
>  <minimizedAffinity>
-5.71195221

>  <minimizedRMSD>
0.894531429

$$$$
