
 OpenBabel03242521303D

 47 50  0  0  1  0  0  0  0  0999 V2000
   47.9840   33.3580   42.3980 C   0  0  1  0  0  0  0  0  0  0  0  0
   46.5230   33.7160   42.1360 C   0  0  2  0  0  0  0  0  0  0  0  0
   46.3960   34.6350   41.1350 O   0  0  0  0  0  0  0  0  0  0  0  0
   46.7220   34.0190   39.9620 C   0  0  0  0  0  0  0  0  0  0  0  0
   48.1990   33.7650   39.9270 C   0  0  2  0  0  0  0  0  0  0  0  0
   48.7900   33.1600   41.1860 C   0  0  2  0  0  0  0  0  0  0  0  0
   47.9460   32.3640   42.9390 H   0  0  0  0  0  0  0  0  0  0  0  0
   46.0010   32.7480   41.9060 H   0  0  0  0  0  0  0  0  0  0  0  0
   46.4680   34.6440   39.1020 H   0  0  0  0  0  0  0  0  0  0  0  0
   46.1570   33.0670   39.8860 H   0  0  0  0  0  0  0  0  0  0  0  0
   48.3090   33.0970   39.0490 H   0  0  0  0  0  0  0  0  0  0  0  0
   49.7660   33.6740   41.2980 H   0  0  0  0  0  0  0  0  0  0  0  0
   44.6170   35.9280   44.5530 C   0  0  0  0  0  0  0  0  0  0  0  0
   45.1870   35.4710   43.3610 C   0  0  0  0  0  0  0  0  0  0  0  0
   45.8990   34.2230   43.3650 C   0  0  0  0  0  0  0  0  0  0  0  0
   45.9920   33.5350   44.5200 N   0  0  0  0  0  0  0  0  0  0  0  0
   45.4160   34.0220   45.6680 C   0  0  0  0  0  0  0  0  0  0  0  0
   44.7350   35.2050   45.6840 N   0  0  0  0  0  0  0  0  0  0  0  0
   44.0760   36.8540   44.5950 H   0  0  0  0  0  0  0  0  0  0  0  0
   45.0980   36.0410   42.4470 H   0  0  0  0  0  0  0  0  0  0  0  0
   45.4770   33.4940   46.5930 H   0  0  0  0  0  0  0  0  0  0  0  0
   48.5760   34.2250   43.3040 O   0  0  0  0  0  0  0  0  0  0  0  0
   48.8150   33.8450   44.1630 H   0  0  0  0  0  0  0  0  0  0  0  0
   48.7730   35.0220   39.6810 O   0  0  0  0  0  0  0  0  0  0  0  0
   49.5180   35.1690   40.3190 H   0  0  0  0  0  0  0  0  0  0  0  0
   49.1220   31.8260   40.9230 O   0  0  0  0  0  0  0  0  0  0  0  0
   51.3740   32.3060   41.4270 N   0  0  0  0  0  0  0  0  0  0  0  0
   51.2390   31.4920   42.6500 C   0  0  0  0  0  0  0  0  0  0  0  0
   51.6210   30.1430   42.0950 C   0  0  0  0  0  0  0  0  0  0  0  0
   50.8310   30.1500   40.7950 C   0  0  0  0  0  0  0  0  0  0  0  0
   50.4270   31.6250   40.5770 C   0  0  1  0  0  0  0  0  0  0  0  0
   51.0740   33.2540   41.6920 H   0  0  0  0  0  0  0  0  0  0  0  0
   50.2160   31.4740   43.0310 H   0  0  0  0  0  0  0  0  0  0  0  0
   51.9790   31.8350   43.4070 H   0  0  0  0  0  0  0  0  0  0  0  0
   51.2010   29.3870   42.7930 H   0  0  0  0  0  0  0  0  0  0  0  0
   52.7060   30.0440   41.9570 H   0  0  0  0  0  0  0  0  0  0  0  0
   51.5320   29.7800   40.0460 H   0  0  0  0  0  0  0  0  0  0  0  0
   49.9520   29.5030   40.9090 H   0  0  0  0  0  0  0  0  0  0  0  0
   53.1130   31.6520   39.9780 O   0  0  0  0  0  0  0  0  0  0  0  0
   52.2640   31.3170   39.0880 C   0  0  0  0  0  0  0  0  0  0  0  0
   50.8440   31.8610   39.1620 C   0  0  1  0  0  0  0  0  0  0  0  0
   50.2330   31.0300   38.1050 C   0  0  0  0  0  0  0  0  0  0  0  0
   49.9160   30.0230   38.3410 H   0  0  0  0  0  0  0  0  0  0  0  0
   51.4010   30.8980   37.1150 C   0  0  0  0  0  0  0  0  0  0  0  0
   51.1650   30.1780   36.3170 H   0  0  0  0  0  0  0  0  0  0  0  0
   52.4800   30.4540   37.9760 N   0  0  0  0  0  0  0  0  0  0  0  0
   53.2550   29.7510   37.9580 H   0  0  0  0  0  0  0  0  0  0  0  0
  1  7  1  1  0  0  0
  1 22  1  0  0  0  0
  2  8  1  6  0  0  0
  2  1  1  0  0  0  0
  2 15  1  0  0  0  0
  3  2  1  0  0  0  0
  4  3  1  0  0  0  0
  5 11  1  6  0  0  0
  5  4  1  0  0  0  0
  5  6  1  0  0  0  0
  6 12  1  1  0  0  0
  6  1  1  0  0  0  0
  9  4  1  0  0  0  0
 10  4  1  0  0  0  0
 13 19  1  0  0  0  0
 13 18  1  0  0  0  0
 14 15  1  0  0  0  0
 14 13  2  0  0  0  0
 15 16  2  0  0  0  0
 16 17  1  0  0  0  0
 17 18  2  0  0  0  0
 17 21  1  0  0  0  0
 20 14  1  0  0  0  0
 22 23  1  0  0  0  0
 24  5  1  0  0  0  0
 24 25  1  0  0  0  0
 26  6  1  0  0  0  0
 27 32  1  0  0  0  0
 27 28  1  0  0  0  0
 28 33  1  0  0  0  0
 28 34  1  0  0  0  0
 29 28  1  0  0  0  0
 29 35  1  0  0  0  0
 30 38  1  0  0  0  0
 30 29  1  0  0  0  0
 31 30  1  0  0  0  0
 31 26  1  1  0  0  0
 31 27  1  0  0  0  0
 36 29  1  0  0  0  0
 37 30  1  0  0  0  0
 40 41  1  0  0  0  0
 40 39  2  0  0  0  0
 41 42  1  6  0  0  0
 41 31  1  0  0  0  0
 42 43  1  0  0  0  0
 44 46  1  0  0  0  0
 44 42  1  0  0  0  0
 45 44  1  0  0  0  0
 46 40  1  0  0  0  0
 47 46  1  0  0  0  0
M  END
>  <minimizedAffinity>
-5.73880863

>  <minimizedRMSD>
0.859037042

$$$$
