
 OpenBabel03252500173D

 20 21  0  0  1  0  0  0  0  0999 V2000
   44.5070   36.1560   44.4020 C   0  0  0  0  0  0  0  0  0  0  0  0
   45.2880   36.0310   43.2530 C   0  0  0  0  0  0  0  0  0  0  0  0
   46.1780   34.9510   43.2130 C   0  0  0  0  0  0  0  0  0  0  0  0
   46.2400   34.0880   44.2730 N   0  0  0  0  0  0  0  0  0  0  0  0
   45.4570   34.2640   45.3570 C   0  0  0  0  0  0  0  0  0  0  0  0
   44.5790   35.3090   45.4210 N   0  0  0  0  0  0  0  0  0  0  0  0
   45.5050   33.3750   46.4740 N   0  0  0  0  0  0  0  0  0  0  0  0
   43.8110   36.9850   44.4550 H   0  0  0  0  0  0  0  0  0  0  0  0
   45.2520   36.7030   42.4060 H   0  0  0  0  0  0  0  0  0  0  0  0
   45.2680   32.4080   46.1490 H   0  0  0  0  0  0  0  0  0  0  0  0
   45.7370   33.6220   47.4670 H   0  0  0  0  0  0  0  0  0  0  0  0
   45.8240   32.5260   41.3400 O   0  0  0  0  0  0  0  0  0  0  0  0
   46.7860   33.3430   41.4900 C   0  0  0  0  0  0  0  0  0  0  0  0
   47.0730   34.6850   42.0630 C   0  0  2  0  0  3  0  0  0  0  0  0
   48.5210   34.5980   42.4680 C   0  0  0  0  0  3  0  0  0  0  0  0
   48.6240   34.3690   43.5600 H   0  0  0  0  0  0  0  0  0  0  0  0
   49.1470   33.5330   41.6210 C   0  0  0  0  0  3  0  0  0  0  0  0
   49.6630   32.7470   42.2240 H   0  0  0  0  0  0  0  0  0  0  0  0
   48.0370   32.8730   40.9490 N   0  0  0  0  0  0  0  0  0  0  0  0
   48.3120   32.1810   40.1980 H   0  0  0  0  0  0  0  0  0  0  0  0
  1  8  1  0  0  0  0
  1  6  1  0  0  0  0
  2  1  2  0  0  0  0
  3  2  1  0  0  0  0
  3  4  2  0  0  0  0
  4  5  1  0  0  0  0
  5  6  2  0  0  0  0
  5  7  1  0  0  0  0
  7 11  1  0  0  0  0
  9  2  1  0  0  0  0
 10  7  1  0  0  0  0
 12 13  2  0  0  0  0
 13 14  1  0  0  0  0
 14 15  1  0  0  0  0
 14  3  1  1  0  0  0
 15 16  1  0  0  0  0
 17 18  1  0  0  0  0
 17 15  1  0  0  0  0
 19 13  1  0  0  0  0
 19 17  1  0  0  0  0
 20 19  1  0  0  0  0
M  END
>  <minimizedAffinity>
-4.45387316

>  <minimizedRMSD>
0.961289406

$$$$
