
 OpenBabel03252506243D

 45 49  0  0  1  0  0  0  0  0999 V2000
   45.1670   28.1850   48.6120 C   0  0  0  0  0  0  0  0  0  0  0  0
   45.0410   29.5140   48.2830 C   0  0  0  0  0  0  0  0  0  0  0  0
   44.4120   29.7850   47.0750 C   0  0  0  0  0  0  0  0  0  0  0  0
   43.9420   28.7860   46.2500 C   0  0  0  0  0  0  0  0  0  0  0  0
   43.3150   28.7470   45.0600 N   0  0  0  0  0  0  0  0  0  0  0  0
   43.0710   27.4940   44.6770 C   0  0  0  0  0  0  0  0  0  0  0  0
   43.5450   26.6230   45.6360 C   0  0  0  0  0  0  0  0  0  0  0  0
   44.0800   27.4550   46.6010 C   0  0  0  0  0  0  0  0  0  0  0  0
   44.6980   27.1750   47.7910 C   0  0  0  0  0  0  0  0  0  0  0  0
   45.6650   28.0150   49.5680 H   0  0  0  0  0  0  0  0  0  0  0  0
   44.2390   30.7780   46.6820 H   0  0  0  0  0  0  0  0  0  0  0  0
   43.0460   29.5840   44.4940 H   0  0  0  0  0  0  0  0  0  0  0  0
   42.5810   27.1550   43.7680 H   0  0  0  0  0  0  0  0  0  0  0  0
   43.5080   25.5440   45.6310 H   0  0  0  0  0  0  0  0  0  0  0  0
   46.7810   25.5820   46.9510 O   0  0  0  0  0  0  0  0  0  0  0  0
   46.3050   25.3560   48.1000 C   0  0  0  0  0  0  0  0  0  0  0  0
   44.9160   25.8020   48.3140 C   0  0  1  0  0  0  0  0  0  0  0  0
   44.6080   25.6600   49.7810 C   0  0  0  0  0  0  0  0  0  0  0  0
   43.5850   25.2580   49.9330 H   0  0  0  0  0  0  0  0  0  0  0  0
   45.5910   24.5970   50.2140 C   0  0  0  0  0  0  0  0  0  0  0  0
   45.8970   24.7280   51.2850 H   0  0  0  0  0  0  0  0  0  0  0  0
   46.7480   24.7530   49.3340 N   0  0  0  0  0  0  0  0  0  0  0  0
   47.7640   24.5340   49.4050 H   0  0  0  0  0  0  0  0  0  0  0  0
   45.4620   30.6990   49.0040 C   0  0  0  0  0  0  0  0  0  0  0  0
   45.4730   30.4340   50.0960 H   0  0  0  0  0  0  0  0  0  0  0  0
   44.7130   31.5190   48.9290 H   0  0  0  0  0  0  0  0  0  0  0  0
   46.8090   31.2430   48.6780 C   0  0  0  0  0  0  0  0  0  0  0  0
   47.0380   32.0300   49.4390 H   0  0  0  0  0  0  0  0  0  0  0  0
   47.5480   30.4570   48.8060 H   0  0  0  0  0  0  0  0  0  0  0  0
   46.3970   33.0980   45.6560 C   0  0  0  0  0  0  0  0  0  0  0  0
   47.2450   32.0410   45.2430 C   0  0  0  0  0  0  0  0  0  0  0  0
   47.4960   31.2360   46.3070 C   0  0  0  0  0  0  0  0  0  0  0  0
   46.8310   31.7700   47.3340 N   0  0  0  0  0  0  0  0  0  0  0  0
   46.1750   32.8800   46.9510 N   0  0  0  0  0  0  0  0  0  0  0  0
   47.6440   31.8830   44.2380 H   0  0  0  0  0  0  0  0  0  0  0  0
   48.0980   30.3350   46.3770 H   0  0  0  0  0  0  0  0  0  0  0  0
   44.4740   35.9270   44.4120 C   0  0  0  0  0  0  0  0  0  0  0  0
   45.0020   36.1450   43.1420 C   0  0  0  0  0  0  0  0  0  0  0  0
   46.0300   35.3030   42.7190 C   0  0  0  0  0  0  0  0  0  0  0  0
   46.4480   34.3330   43.5650 N   0  0  0  0  0  0  0  0  0  0  0  0
   45.9280   34.1420   44.7790 C   0  0  0  0  0  0  0  0  0  0  0  0
   44.9310   34.9490   45.2020 N   0  0  0  0  0  0  0  0  0  0  0  0
   43.6780   36.6010   44.7010 H   0  0  0  0  0  0  0  0  0  0  0  0
   44.6770   36.9190   42.4530 H   0  0  0  0  0  0  0  0  0  0  0  0
   46.4930   35.4050   41.7500 H   0  0  0  0  0  0  0  0  0  0  0  0
  1 10  1  0  0  0  0
  2  1  1  0  0  0  0
  2 24  1  0  0  0  0
  3  2  2  0  0  0  0
  4  8  2  0  0  0  0
  4  3  1  0  0  0  0
  5  4  1  0  0  0  0
  6  5  1  0  0  0  0
  6  7  2  0  0  0  0
  7  8  1  0  0  0  0
  8  9  1  0  0  0  0
  9  1  2  0  0  0  0
 11  3  1  0  0  0  0
 12  5  1  0  0  0  0
 13  6  1  0  0  0  0
 14  7  1  0  0  0  0
 15 16  2  0  0  0  0
 16 17  1  0  0  0  0
 16 22  1  0  0  0  0
 17  9  1  1  0  0  0
 17 18  1  0  0  0  0
 18 19  1  0  0  0  0
 18 20  1  0  0  0  0
 20 21  1  0  0  0  0
 22 23  1  0  0  0  0
 22 20  1  0  0  0  0
 24 25  1  0  0  0  0
 26 24  1  0  0  0  0
 27 29  1  0  0  0  0
 27 24  1  0  0  0  0
 27 28  1  0  0  0  0
 30 34  2  0  0  0  0
 31 30  1  0  0  0  0
 31 32  2  0  0  0  0
 32 36  1  0  0  0  0
 32 33  1  0  0  0  0
 33 27  1  0  0  0  0
 34 33  1  0  0  0  0
 35 31  1  0  0  0  0
 37 43  1  0  0  0  0
 37 42  1  0  0  0  0
 38 37  2  0  0  0  0
 39 38  1  0  0  0  0
 39 40  2  0  0  0  0
 40 41  1  0  0  0  0
 41 42  2  0  0  0  0
 41 30  1  0  0  0  0
 44 38  1  0  0  0  0
 45 39  1  0  0  0  0
M  END
>  <minimizedAffinity>
-5.86486149

>  <minimizedRMSD>
1.03045213

$$$$
