
 OpenBabel03252500183D

 20 21  0  0  1  0  0  0  0  0999 V2000
   44.4800   36.2080   44.4270 C   0  0  0  0  0  0  0  0  0  0  0  0
   45.2540   36.1380   43.2690 C   0  0  0  0  0  0  0  0  0  0  0  0
   46.1590   35.0740   43.1820 C   0  0  0  0  0  0  0  0  0  0  0  0
   46.2420   34.1720   44.2080 N   0  0  0  0  0  0  0  0  0  0  0  0
   45.4660   34.2960   45.3030 C   0  0  0  0  0  0  0  0  0  0  0  0
   44.5730   35.3250   45.4140 N   0  0  0  0  0  0  0  0  0  0  0  0
   45.5350   33.3670   46.3860 N   0  0  0  0  0  0  0  0  0  0  0  0
   43.7730   37.0240   44.5170 H   0  0  0  0  0  0  0  0  0  0  0  0
   45.2010   36.8410   42.4480 H   0  0  0  0  0  0  0  0  0  0  0  0
   45.3090   32.4090   46.0260 H   0  0  0  0  0  0  0  0  0  0  0  0
   45.7720   33.5790   47.3860 H   0  0  0  0  0  0  0  0  0  0  0  0
   45.1420   34.0350   40.4630 O   0  0  0  0  0  0  0  0  0  0  0  0
   46.3150   34.1590   40.9320 C   0  0  0  0  0  0  0  0  0  0  0  0
   47.0490   34.8650   42.0160 C   0  0  2  0  0  3  0  0  0  0  0  0
   48.1990   33.9430   42.3270 C   0  0  0  0  0  3  0  0  0  0  0  0
   47.9760   33.3000   43.2180 H   0  0  0  0  0  0  0  0  0  0  0  0
   48.4410   33.1170   41.1010 C   0  0  0  0  0  3  0  0  0  0  0  0
   48.4280   32.0200   41.3070 H   0  0  0  0  0  0  0  0  0  0  0  0
   47.3080   33.3860   40.2270 N   0  0  0  0  0  0  0  0  0  0  0  0
   47.3880   32.9900   39.2490 H   0  0  0  0  0  0  0  0  0  0  0  0
  1  8  1  0  0  0  0
  1  6  1  0  0  0  0
  2  1  2  0  0  0  0
  3  2  1  0  0  0  0
  3  4  2  0  0  0  0
  4  5  1  0  0  0  0
  5  6  2  0  0  0  0
  5  7  1  0  0  0  0
  7 11  1  0  0  0  0
  9  2  1  0  0  0  0
 10  7  1  0  0  0  0
 12 13  2  0  0  0  0
 13 14  1  0  0  0  0
 14 15  1  0  0  0  0
 14  3  1  1  0  0  0
 15 16  1  0  0  0  0
 17 18  1  0  0  0  0
 17 15  1  0  0  0  0
 19 13  1  0  0  0  0
 19 17  1  0  0  0  0
 20 19  1  0  0  0  0
M  END
>  <minimizedAffinity>
-4.47255659

>  <minimizedRMSD>
1.00159729

$$$$
