
 OpenBabel03242522413D

 47 50  0  0  1  0  0  0  0  0999 V2000
   46.7910   32.7610   44.2990 C   0  0  0  0  0  0  0  0  0  0  0  0
   47.7920   33.0330   44.6620 H   0  0  0  0  0  0  0  0  0  0  0  0
   46.7540   32.2890   43.3280 H   0  0  0  0  0  0  0  0  0  0  0  0
   46.3800   34.7750   43.0190 C   0  0  0  0  0  0  0  0  0  0  0  0
   46.0780   34.0400   44.1420 C   0  0  0  0  0  0  0  0  0  0  0  0
   45.1940   34.3880   45.0870 C   0  0  0  0  0  0  0  0  0  0  0  0
   44.5250   35.5720   44.9450 C   0  0  0  0  0  0  0  0  0  0  0  0
   44.7370   36.3840   43.8780 C   0  0  0  0  0  0  0  0  0  0  0  0
   45.6620   35.9570   42.9440 C   0  0  0  0  0  0  0  0  0  0  0  0
   44.8860   33.8890   45.9640 H   0  0  0  0  0  0  0  0  0  0  0  0
   43.7850   35.9690   45.6440 H   0  0  0  0  0  0  0  0  0  0  0  0
   44.2340   37.3300   43.7170 H   0  0  0  0  0  0  0  0  0  0  0  0
   45.8240   36.6270   42.0790 H   0  0  0  0  0  0  0  0  0  0  0  0
   47.5570   34.4830   41.8170 S   0  0  0  0  0  0  0  0  0  0  0  0
   48.4540   35.6490   41.5320 O   0  0  0  0  0  0  0  0  0  0  0  0
   46.7530   34.3040   40.4950 O   0  0  0  0  0  0  0  0  0  0  0  0
   50.8930   33.8590   42.5130 O   0  0  0  0  0  0  0  0  0  0  0  0
   49.9570   33.2230   41.9650 C   0  0  0  0  0  0  0  0  0  0  0  0
   48.5050   33.0940   41.6730 C   0  0  2  0  0  3  0  0  0  0  0  0
   48.6690   32.8630   40.1610 C   0  0  0  0  0  3  0  0  0  0  0  0
   49.1590   33.7070   39.6590 H   0  0  0  0  0  0  0  0  0  0  0  0
   49.5640   31.6270   40.2130 C   0  0  0  0  0  3  0  0  0  0  0  0
   50.0490   31.5010   39.2490 H   0  0  0  0  0  0  0  0  0  0  0  0
   50.4780   32.0600   41.2820 N   0  0  0  0  0  0  0  0  0  0  0  0
   51.3310   31.4250   41.3250 H   0  0  0  0  0  0  0  0  0  0  0  0
   46.1300   31.7550   45.1870 C   0  0  0  0  0  0  0  0  0  0  0  0
   45.9840   30.7430   44.7200 H   0  0  0  0  0  0  0  0  0  0  0  0
   45.0800   32.0050   45.4760 H   0  0  0  0  0  0  0  0  0  0  0  0
   47.0750   32.4940   47.3450 C   0  0  0  0  0  0  0  0  0  0  0  0
   47.0070   31.5150   46.3270 C   0  0  0  0  0  0  0  0  0  0  0  0
   47.7550   30.3650   46.4910 C   0  0  0  0  0  0  0  0  0  0  0  0
   48.5050   30.2390   47.6090 N   0  0  0  0  0  0  0  0  0  0  0  0
   48.5490   31.1750   48.5510 C   0  0  0  0  0  0  0  0  0  0  0  0
   47.8360   32.3210   48.4390 N   0  0  0  0  0  0  0  0  0  0  0  0
   46.5940   33.4500   47.4220 H   0  0  0  0  0  0  0  0  0  0  0  0
   47.7030   29.6220   45.7160 H   0  0  0  0  0  0  0  0  0  0  0  0
   49.4040   30.9370   49.7630 C   0  0  0  0  0  0  0  0  0  0  0  0
   48.8140   31.3430   50.6330 H   0  0  0  0  0  0  0  0  0  0  0  0
   49.5090   29.8420   49.9430 H   0  0  0  0  0  0  0  0  0  0  0  0
   50.6840   31.6300   49.7150 C   0  0  0  0  0  0  0  0  0  0  0  0
   51.8710   31.0920   49.2320 C   0  0  0  0  0  0  0  0  0  0  0  0
   52.8550   32.0380   49.3480 C   0  0  0  0  0  0  0  0  0  0  0  0
   52.2360   33.1280   49.9020 N   0  0  0  0  0  0  0  0  0  0  0  0
   50.9440   32.8860   50.1200 N   0  0  0  0  0  0  0  0  0  0  0  0
   52.0050   30.1010   48.8320 H   0  0  0  0  0  0  0  0  0  0  0  0
   53.9080   32.0090   49.0880 H   0  0  0  0  0  0  0  0  0  0  0  0
   52.7190   34.0340   50.1230 H   0  0  0  0  0  0  0  0  0  0  0  0
  1  2  1  0  0  0  0
  1 26  1  0  0  0  0
  3  1  1  0  0  0  0
  4  5  1  0  0  0  0
  5  1  1  0  0  0  0
  5  6  2  0  0  0  0
  6 10  1  0  0  0  0
  7  6  1  0  0  0  0
  7 11  1  0  0  0  0
  8  7  2  0  0  0  0
  9  4  2  0  0  0  0
  9  8  1  0  0  0  0
 12  8  1  0  0  0  0
 13  9  1  0  0  0  0
 14  4  1  0  0  0  0
 15 14  2  0  0  0  0
 16 14  2  0  0  0  0
 18 17  2  0  0  0  0
 19 14  1  6  0  0  0
 19 18  1  0  0  0  0
 20 22  1  0  0  0  0
 20 19  1  0  0  0  0
 21 20  1  0  0  0  0
 22 24  1  0  0  0  0
 23 22  1  0  0  0  0
 24 25  1  0  0  0  0
 24 18  1  0  0  0  0
 26 28  1  0  0  0  0
 26 30  1  0  0  0  0
 27 26  1  0  0  0  0
 29 35  1  0  0  0  0
 29 34  1  0  0  0  0
 30 31  1  0  0  0  0
 30 29  2  0  0  0  0
 31 32  2  0  0  0  0
 32 33  1  0  0  0  0
 33 37  1  0  0  0  0
 34 33  2  0  0  0  0
 36 31  1  0  0  0  0
 37 39  1  0  0  0  0
 37 38  1  0  0  0  0
 40 37  1  0  0  0  0
 40 44  2  0  0  0  0
 41 42  2  0  0  0  0
 41 40  1  0  0  0  0
 42 43  1  0  0  0  0
 43 44  1  0  0  0  0
 43 47  1  0  0  0  0
 45 41  1  0  0  0  0
 46 42  1  0  0  0  0
M  END
>  <minimizedAffinity>
-6.59876108

>  <minimizedRMSD>
0.27885735

$$$$
