
 OpenBabel03242522413D

 47 50  0  0  1  0  0  0  0  0999 V2000
   47.2310   32.7420   44.4520 C   0  0  0  0  0  0  0  0  0  0  0  0
   48.0750   33.1300   45.0400 H   0  0  0  0  0  0  0  0  0  0  0  0
   47.4890   32.2390   43.5320 H   0  0  0  0  0  0  0  0  0  0  0  0
   46.9740   34.6590   42.9950 C   0  0  0  0  0  0  0  0  0  0  0  0
   46.4660   33.9330   44.0470 C   0  0  0  0  0  0  0  0  0  0  0  0
   45.3410   34.2170   44.7190 C   0  0  0  0  0  0  0  0  0  0  0  0
   44.6220   35.3180   44.3450 C   0  0  0  0  0  0  0  0  0  0  0  0
   45.0230   36.1130   43.3190 C   0  0  0  0  0  0  0  0  0  0  0  0
   46.1910   35.7550   42.6730 C   0  0  0  0  0  0  0  0  0  0  0  0
   44.8670   33.7170   45.5180 H   0  0  0  0  0  0  0  0  0  0  0  0
   43.6950   35.6570   44.8110 H   0  0  0  0  0  0  0  0  0  0  0  0
   44.4910   36.9940   42.9830 H   0  0  0  0  0  0  0  0  0  0  0  0
   46.5050   36.4100   41.8390 H   0  0  0  0  0  0  0  0  0  0  0  0
   48.4410   34.4540   42.1460 S   0  0  0  0  0  0  0  0  0  0  0  0
   49.6640   34.4660   43.0110 O   0  0  0  0  0  0  0  0  0  0  0  0
   48.5910   35.7370   41.2760 O   0  0  0  0  0  0  0  0  0  0  0  0
   46.7020   31.6410   41.1080 O   0  0  0  0  0  0  0  0  0  0  0  0
   47.8100   32.1640   40.8280 C   0  0  0  0  0  0  0  0  0  0  0  0
   48.7260   33.3340   40.9160 C   0  0  2  0  0  3  0  0  0  0  0  0
   49.9590   32.5320   41.3670 C   0  0  0  0  0  3  0  0  0  0  0  0
   49.7950   32.0140   42.3200 H   0  0  0  0  0  0  0  0  0  0  0  0
   50.0470   31.5630   40.1910 C   0  0  0  0  0  3  0  0  0  0  0  0
   50.6610   30.7140   40.4780 H   0  0  0  0  0  0  0  0  0  0  0  0
   48.6160   31.2420   40.0610 N   0  0  0  0  0  0  0  0  0  0  0  0
   48.4790   30.3970   39.4290 H   0  0  0  0  0  0  0  0  0  0  0  0
   46.4630   31.7000   45.2020 C   0  0  0  0  0  0  0  0  0  0  0  0
   46.3310   30.7290   44.6510 H   0  0  0  0  0  0  0  0  0  0  0  0
   45.3980   31.9670   45.4120 H   0  0  0  0  0  0  0  0  0  0  0  0
   47.2340   32.2580   47.4800 C   0  0  0  0  0  0  0  0  0  0  0  0
   47.2230   31.3510   46.3950 C   0  0  0  0  0  0  0  0  0  0  0  0
   47.9120   30.1630   46.5460 C   0  0  0  0  0  0  0  0  0  0  0  0
   48.5530   29.9330   47.7140 N   0  0  0  0  0  0  0  0  0  0  0  0
   48.5440   30.8040   48.7190 C   0  0  0  0  0  0  0  0  0  0  0  0
   47.8850   31.9830   48.6230 N   0  0  0  0  0  0  0  0  0  0  0  0
   46.7820   33.2260   47.5800 H   0  0  0  0  0  0  0  0  0  0  0  0
   47.9050   29.4740   45.7200 H   0  0  0  0  0  0  0  0  0  0  0  0
   49.2760   30.4510   49.9820 C   0  0  0  0  0  0  0  0  0  0  0  0
   48.5340   30.6080   50.8150 H   0  0  0  0  0  0  0  0  0  0  0  0
   49.5230   29.3650   49.9870 H   0  0  0  0  0  0  0  0  0  0  0  0
   50.4340   31.2980   50.2370 C   0  0  0  0  0  0  0  0  0  0  0  0
   51.4280   31.5990   49.3130 C   0  0  0  0  0  0  0  0  0  0  0  0
   52.3460   32.4190   49.9130 C   0  0  0  0  0  0  0  0  0  0  0  0
   51.8820   32.5930   51.1910 N   0  0  0  0  0  0  0  0  0  0  0  0
   50.7450   31.9270   51.3840 N   0  0  0  0  0  0  0  0  0  0  0  0
   51.4770   31.2510   48.2940 H   0  0  0  0  0  0  0  0  0  0  0  0
   53.2570   32.8690   49.5350 H   0  0  0  0  0  0  0  0  0  0  0  0
   52.3620   33.1770   51.9200 H   0  0  0  0  0  0  0  0  0  0  0  0
  1  2  1  0  0  0  0
  1 26  1  0  0  0  0
  3  1  1  0  0  0  0
  4  5  1  0  0  0  0
  5  1  1  0  0  0  0
  5  6  2  0  0  0  0
  6 10  1  0  0  0  0
  7  6  1  0  0  0  0
  7 11  1  0  0  0  0
  8  7  2  0  0  0  0
  9  4  2  0  0  0  0
  9  8  1  0  0  0  0
 12  8  1  0  0  0  0
 13  9  1  0  0  0  0
 14  4  1  0  0  0  0
 14 15  2  0  0  0  0
 16 14  2  0  0  0  0
 18 19  1  0  0  0  0
 18 17  2  0  0  0  0
 19 20  1  0  0  0  0
 19 14  1  1  0  0  0
 20 21  1  0  0  0  0
 22 23  1  0  0  0  0
 22 20  1  0  0  0  0
 24 22  1  0  0  0  0
 24 18  1  0  0  0  0
 25 24  1  0  0  0  0
 26 28  1  0  0  0  0
 26 30  1  0  0  0  0
 27 26  1  0  0  0  0
 29 35  1  0  0  0  0
 29 34  1  0  0  0  0
 30 31  1  0  0  0  0
 30 29  2  0  0  0  0
 31 32  2  0  0  0  0
 32 33  1  0  0  0  0
 33 37  1  0  0  0  0
 34 33  2  0  0  0  0
 36 31  1  0  0  0  0
 37 39  1  0  0  0  0
 37 40  1  0  0  0  0
 37 38  1  0  0  0  0
 40 44  2  0  0  0  0
 41 42  2  0  0  0  0
 41 40  1  0  0  0  0
 42 43  1  0  0  0  0
 43 44  1  0  0  0  0
 43 47  1  0  0  0  0
 45 41  1  0  0  0  0
 46 42  1  0  0  0  0
M  END
>  <minimizedAffinity>
-6.01016235

>  <minimizedRMSD>
1.21229863

$$$$
