
 OpenBabel03242519243D

 40 43  0  0  1  0  0  0  0  0999 V2000
   47.8980   33.7460   42.8760 C   0  0  0  0  0  0  0  0  0  0  0  0
   48.5880   34.9560   42.6970 C   0  0  0  0  0  0  0  0  0  0  0  0
   49.9600   34.9400   42.3740 C   0  0  0  0  0  0  0  0  0  0  0  0
   50.5370   33.6990   42.2570 N   0  0  0  0  0  0  0  0  0  0  0  0
   49.8280   32.5420   42.4400 C   0  0  0  0  0  0  0  0  0  0  0  0
   48.5400   32.5860   42.7420 N   0  0  0  0  0  0  0  0  0  0  0  0
   48.2130   35.9670   42.7700 H   0  0  0  0  0  0  0  0  0  0  0  0
   50.5450   35.8290   42.2230 H   0  0  0  0  0  0  0  0  0  0  0  0
   46.4670   33.8880   43.2160 C   0  0  0  0  0  0  0  0  0  0  0  0
   45.7660   34.8940   42.4180 C   0  0  0  0  0  0  0  0  0  0  0  0
   45.3290   36.0890   43.1830 C   0  0  0  0  0  0  0  0  0  0  0  0
   44.5370   35.7510   44.4330 C   0  0  0  0  0  0  0  0  0  0  0  0
   44.9870   34.4880   45.1260 C   0  0  0  0  0  0  0  0  0  0  0  0
   46.4160   34.1550   44.7310 C   0  0  0  0  0  0  0  0  0  0  0  0
   45.9820   32.8710   43.1290 H   0  0  0  0  0  0  0  0  0  0  0  0
   46.4750   35.2700   41.6320 H   0  0  0  0  0  0  0  0  0  0  0  0
   44.9000   34.4550   41.8790 H   0  0  0  0  0  0  0  0  0  0  0  0
   46.0790   36.8410   43.4150 H   0  0  0  0  0  0  0  0  0  0  0  0
   44.5790   36.6220   42.5260 H   0  0  0  0  0  0  0  0  0  0  0  0
   43.4360   35.7090   44.2390 H   0  0  0  0  0  0  0  0  0  0  0  0
   44.6820   36.5740   45.1640 H   0  0  0  0  0  0  0  0  0  0  0  0
   44.8950   34.5150   46.2100 H   0  0  0  0  0  0  0  0  0  0  0  0
   44.3470   33.6710   44.7020 H   0  0  0  0  0  0  0  0  0  0  0  0
   47.0170   35.0430   44.9960 H   0  0  0  0  0  0  0  0  0  0  0  0
   46.7180   33.2270   45.2550 H   0  0  0  0  0  0  0  0  0  0  0  0
   50.5980   31.3200   42.2860 C   0  0  0  0  0  0  0  0  0  0  0  0
   51.5820   31.3090   41.3600 N   0  0  0  0  0  0  0  0  0  0  0  0
   52.1920   30.1150   41.3490 C   0  0  0  0  0  0  0  0  0  0  0  0
   51.5710   29.3670   42.2940 N   0  0  0  0  0  0  0  0  0  0  0  0
   50.5960   30.0980   42.8680 N   0  0  0  0  0  0  0  0  0  0  0  0
   53.0110   29.7630   40.7420 H   0  0  0  0  0  0  0  0  0  0  0  0
   50.4060   27.1210   41.1710 O   0  0  0  0  0  0  0  0  0  0  0  0
   51.5960   27.0390   41.5810 C   0  0  0  0  0  0  0  0  0  0  0  0
   51.8430   28.0090   42.6820 C   0  0  1  0  0  3  0  0  0  0  0  0
   53.3410   27.8560   42.8630 C   0  0  0  0  0  3  0  0  0  0  0  0
   53.5650   28.0370   43.9430 H   0  0  0  0  0  0  0  0  0  0  0  0
   53.5830   26.4060   42.4900 C   0  0  0  0  0  3  0  0  0  0  0  0
   53.1270   25.7560   43.2580 H   0  0  0  0  0  0  0  0  0  0  0  0
   52.7810   26.2800   41.2890 N   0  0  0  0  0  0  0  0  0  0  0  0
   52.7520   25.8560   40.3270 H   0  0  0  0  0  0  0  0  0  0  0  0
  1  9  1  0  0  0  0
  2  7  1  0  0  0  0
  2  1  2  0  0  0  0
  3  2  1  0  0  0  0
  4  3  2  0  0  0  0
  4  5  1  0  0  0  0
  5  6  2  0  0  0  0
  6  1  1  0  0  0  0
  8  3  1  0  0  0  0
  9 14  1  0  0  0  0
 10 11  1  0  0  0  0
 10  9  1  0  0  0  0
 11 18  1  0  0  0  0
 11 12  1  0  0  0  0
 12 13  1  0  0  0  0
 12 21  1  0  0  0  0
 13 22  1  0  0  0  0
 14 24  1  0  0  0  0
 14 13  1  0  0  0  0
 14 25  1  0  0  0  0
 15  9  1  0  0  0  0
 16 10  1  0  0  0  0
 17 10  1  0  0  0  0
 19 11  1  0  0  0  0
 20 12  1  0  0  0  0
 23 13  1  0  0  0  0
 26  5  1  0  0  0  0
 26 30  2  0  0  0  0
 27 26  1  0  0  0  0
 28 27  2  0  0  0  0
 28 29  1  0  0  0  0
 29 30  1  0  0  0  0
 31 28  1  0  0  0  0
 32 33  2  0  0  0  0
 33 34  1  0  0  0  0
 34 29  1  6  0  0  0
 34 35  1  0  0  0  0
 35 36  1  0  0  0  0
 37 35  1  0  0  0  0
 37 38  1  0  0  0  0
 39 33  1  0  0  0  0
 39 37  1  0  0  0  0
 40 39  1  0  0  0  0
M  END
>  <minimizedAffinity>
-4.18139124

>  <minimizedRMSD>
0.225807622

$$$$
