
 OpenBabel03242522413D

 47 50  0  0  1  0  0  0  0  0999 V2000
   46.7550   32.4860   44.4580 C   0  0  0  0  0  0  0  0  0  0  0  0
   47.7890   32.7290   44.7420 H   0  0  0  0  0  0  0  0  0  0  0  0
   46.6400   31.8710   43.5780 H   0  0  0  0  0  0  0  0  0  0  0  0
   46.4780   34.3180   42.8990 C   0  0  0  0  0  0  0  0  0  0  0  0
   46.1360   33.7780   44.1170 C   0  0  0  0  0  0  0  0  0  0  0  0
   45.2910   34.3240   45.0030 C   0  0  0  0  0  0  0  0  0  0  0  0
   44.7090   35.5210   44.6920 C   0  0  0  0  0  0  0  0  0  0  0  0
   44.9670   36.1520   43.5170 C   0  0  0  0  0  0  0  0  0  0  0  0
   45.8470   35.5260   42.6540 C   0  0  0  0  0  0  0  0  0  0  0  0
   44.9580   33.9810   45.9430 H   0  0  0  0  0  0  0  0  0  0  0  0
   44.0080   36.0680   45.3260 H   0  0  0  0  0  0  0  0  0  0  0  0
   44.5320   37.0990   43.2210 H   0  0  0  0  0  0  0  0  0  0  0  0
   46.0470   36.0500   41.7010 H   0  0  0  0  0  0  0  0  0  0  0  0
   47.6160   33.7680   41.7510 S   0  0  0  0  0  0  0  0  0  0  0  0
   49.0280   34.1840   42.0320 O   0  0  0  0  0  0  0  0  0  0  0  0
   47.2630   34.5230   40.4350 O   0  0  0  0  0  0  0  0  0  0  0  0
   49.3210   32.4780   39.0240 O   0  0  0  0  0  0  0  0  0  0  0  0
   48.4490   32.0480   39.8220 C   0  0  0  0  0  0  0  0  0  0  0  0
   47.6870   32.2180   41.0900 C   0  0  2  0  0  3  0  0  0  0  0  0
   46.3010   31.9690   40.4700 C   0  0  0  0  0  3  0  0  0  0  0  0
   46.0530   32.7010   39.6920 H   0  0  0  0  0  0  0  0  0  0  0  0
   46.5520   30.5780   39.8950 C   0  0  0  0  0  3  0  0  0  0  0  0
   45.7930   30.3640   39.1460 H   0  0  0  0  0  0  0  0  0  0  0  0
   47.8910   30.8100   39.3290 N   0  0  0  0  0  0  0  0  0  0  0  0
   48.1640   30.0160   38.6770 H   0  0  0  0  0  0  0  0  0  0  0  0
   46.0590   31.6920   45.5170 C   0  0  0  0  0  0  0  0  0  0  0  0
   45.7390   30.6630   45.1970 H   0  0  0  0  0  0  0  0  0  0  0  0
   45.0830   32.1190   45.8550 H   0  0  0  0  0  0  0  0  0  0  0  0
   47.1870   32.4860   47.5650 C   0  0  0  0  0  0  0  0  0  0  0  0
   47.0030   31.4650   46.6050 C   0  0  0  0  0  0  0  0  0  0  0  0
   47.7110   30.2900   46.7740 C   0  0  0  0  0  0  0  0  0  0  0  0
   48.5330   30.1820   47.8420 N   0  0  0  0  0  0  0  0  0  0  0  0
   48.6840   31.1580   48.7310 C   0  0  0  0  0  0  0  0  0  0  0  0
   48.0150   32.3290   48.6120 N   0  0  0  0  0  0  0  0  0  0  0  0
   46.7540   33.4660   47.6280 H   0  0  0  0  0  0  0  0  0  0  0  0
   47.5720   29.5150   46.0420 H   0  0  0  0  0  0  0  0  0  0  0  0
   49.6120   30.9360   49.8910 C   0  0  0  0  0  0  0  0  0  0  0  0
   49.0710   31.3420   50.7930 H   0  0  0  0  0  0  0  0  0  0  0  0
   49.7390   29.8440   50.0720 H   0  0  0  0  0  0  0  0  0  0  0  0
   50.8800   31.6430   49.7630 C   0  0  0  0  0  0  0  0  0  0  0  0
   52.0410   31.1130   49.2140 C   0  0  0  0  0  0  0  0  0  0  0  0
   53.0210   32.0690   49.2650 C   0  0  0  0  0  0  0  0  0  0  0  0
   52.4250   33.1570   49.8480 N   0  0  0  0  0  0  0  0  0  0  0  0
   51.1500   32.9040   50.1440 N   0  0  0  0  0  0  0  0  0  0  0  0
   52.1620   30.1210   48.8120 H   0  0  0  0  0  0  0  0  0  0  0  0
   54.0560   32.0500   48.9420 H   0  0  0  0  0  0  0  0  0  0  0  0
   52.9100   34.0690   50.0340 H   0  0  0  0  0  0  0  0  0  0  0  0
  1  2  1  0  0  0  0
  1 26  1  0  0  0  0
  3  1  1  0  0  0  0
  4  5  1  0  0  0  0
  5  1  1  0  0  0  0
  5  6  2  0  0  0  0
  6 10  1  0  0  0  0
  7  6  1  0  0  0  0
  7 11  1  0  0  0  0
  8  7  2  0  0  0  0
  9  4  2  0  0  0  0
  9  8  1  0  0  0  0
 12  8  1  0  0  0  0
 13  9  1  0  0  0  0
 14 15  2  0  0  0  0
 14  4  1  0  0  0  0
 16 14  2  0  0  0  0
 17 18  2  0  0  0  0
 18 19  1  0  0  0  0
 19 14  1  6  0  0  0
 20 19  1  0  0  0  0
 21 20  1  0  0  0  0
 22 20  1  0  0  0  0
 23 22  1  0  0  0  0
 24 18  1  0  0  0  0
 24 22  1  0  0  0  0
 25 24  1  0  0  0  0
 26 28  1  0  0  0  0
 26 30  1  0  0  0  0
 27 26  1  0  0  0  0
 29 35  1  0  0  0  0
 29 34  1  0  0  0  0
 30 31  1  0  0  0  0
 30 29  2  0  0  0  0
 31 32  2  0  0  0  0
 32 33  1  0  0  0  0
 33 37  1  0  0  0  0
 34 33  2  0  0  0  0
 36 31  1  0  0  0  0
 37 39  1  0  0  0  0
 37 38  1  0  0  0  0
 40 37  1  0  0  0  0
 40 44  2  0  0  0  0
 41 42  2  0  0  0  0
 41 40  1  0  0  0  0
 42 43  1  0  0  0  0
 43 47  1  0  0  0  0
 43 44  1  0  0  0  0
 45 41  1  0  0  0  0
 46 42  1  0  0  0  0
M  END
>  <minimizedAffinity>
-5.81276703

>  <minimizedRMSD>
0.975503743

$$$$
