
 OpenBabel03242522413D

 47 50  0  0  1  0  0  0  0  0999 V2000
   46.9250   32.5710   44.2200 C   0  0  0  0  0  0  0  0  0  0  0  0
   47.9310   32.8250   44.5850 H   0  0  0  0  0  0  0  0  0  0  0  0
   46.8860   32.0050   43.3010 H   0  0  0  0  0  0  0  0  0  0  0  0
   46.8750   34.6100   42.9150 C   0  0  0  0  0  0  0  0  0  0  0  0
   46.2910   33.8630   43.9110 C   0  0  0  0  0  0  0  0  0  0  0  0
   45.2000   34.2120   44.6090 C   0  0  0  0  0  0  0  0  0  0  0  0
   44.6020   35.4080   44.3240 C   0  0  0  0  0  0  0  0  0  0  0  0
   45.0870   36.2320   43.3600 C   0  0  0  0  0  0  0  0  0  0  0  0
   46.2130   35.8040   42.6820 C   0  0  0  0  0  0  0  0  0  0  0  0
   44.6740   33.7040   45.3690 H   0  0  0  0  0  0  0  0  0  0  0  0
   43.7140   35.8050   44.8190 H   0  0  0  0  0  0  0  0  0  0  0  0
   44.6520   37.1880   43.0950 H   0  0  0  0  0  0  0  0  0  0  0  0
   46.5970   36.4850   41.8990 H   0  0  0  0  0  0  0  0  0  0  0  0
   48.3150   34.3180   42.0440 S   0  0  0  0  0  0  0  0  0  0  0  0
   49.5380   34.1820   42.8990 O   0  0  0  0  0  0  0  0  0  0  0  0
   48.5730   35.6230   41.2340 O   0  0  0  0  0  0  0  0  0  0  0  0
   46.2300   31.8700   40.7520 O   0  0  0  0  0  0  0  0  0  0  0  0
   47.4190   32.2290   40.5580 C   0  0  0  0  0  0  0  0  0  0  0  0
   48.4960   33.2360   40.7620 C   0  0  2  0  0  3  0  0  0  0  0  0
   49.5660   32.2310   41.2190 C   0  0  0  0  0  3  0  0  0  0  0  0
   49.2710   31.6920   42.1290 H   0  0  0  0  0  0  0  0  0  0  0  0
   49.5710   31.3260   39.9890 C   0  0  0  0  0  3  0  0  0  0  0  0
   50.0320   30.3760   40.2510 H   0  0  0  0  0  0  0  0  0  0  0  0
   48.1180   31.2360   39.7730 N   0  0  0  0  0  0  0  0  0  0  0  0
   47.8890   30.4600   39.0830 H   0  0  0  0  0  0  0  0  0  0  0  0
   46.1860   31.6990   45.1850 C   0  0  0  0  0  0  0  0  0  0  0  0
   45.9560   30.6680   44.8020 H   0  0  0  0  0  0  0  0  0  0  0  0
   45.1610   32.0580   45.4480 H   0  0  0  0  0  0  0  0  0  0  0  0
   47.1120   32.4900   47.3330 C   0  0  0  0  0  0  0  0  0  0  0  0
   47.0440   31.4820   46.3440 C   0  0  0  0  0  0  0  0  0  0  0  0
   47.7730   30.3270   46.5530 C   0  0  0  0  0  0  0  0  0  0  0  0
   48.5060   30.2250   47.6850 N   0  0  0  0  0  0  0  0  0  0  0  0
   48.5500   31.1880   48.5990 C   0  0  0  0  0  0  0  0  0  0  0  0
   47.8550   32.3400   48.4430 N   0  0  0  0  0  0  0  0  0  0  0  0
   46.6430   33.4550   47.3750 H   0  0  0  0  0  0  0  0  0  0  0  0
   47.7220   29.5620   45.7990 H   0  0  0  0  0  0  0  0  0  0  0  0
   49.3840   30.9750   49.8290 C   0  0  0  0  0  0  0  0  0  0  0  0
   48.7840   31.4040   50.6800 H   0  0  0  0  0  0  0  0  0  0  0  0
   49.4810   29.8840   50.0370 H   0  0  0  0  0  0  0  0  0  0  0  0
   50.6690   31.6610   49.7860 C   0  0  0  0  0  0  0  0  0  0  0  0
   51.8650   31.1000   49.3550 C   0  0  0  0  0  0  0  0  0  0  0  0
   52.8510   32.0450   49.4570 C   0  0  0  0  0  0  0  0  0  0  0  0
   52.2230   33.1590   49.9500 N   0  0  0  0  0  0  0  0  0  0  0  0
   50.9250   32.9320   50.1450 N   0  0  0  0  0  0  0  0  0  0  0  0
   52.0050   30.0920   48.9990 H   0  0  0  0  0  0  0  0  0  0  0  0
   53.9090   32.0020   49.2240 H   0  0  0  0  0  0  0  0  0  0  0  0
   52.7040   34.0720   50.1460 H   0  0  0  0  0  0  0  0  0  0  0  0
  1  2  1  0  0  0  0
  1 26  1  0  0  0  0
  3  1  1  0  0  0  0
  4  5  1  0  0  0  0
  5  1  1  0  0  0  0
  5  6  2  0  0  0  0
  6 10  1  0  0  0  0
  7  6  1  0  0  0  0
  7 11  1  0  0  0  0
  8  7  2  0  0  0  0
  9  4  2  0  0  0  0
  9  8  1  0  0  0  0
 12  8  1  0  0  0  0
 13  9  1  0  0  0  0
 14 15  2  0  0  0  0
 14  4  1  0  0  0  0
 16 14  2  0  0  0  0
 18 17  2  0  0  0  0
 18 19  1  0  0  0  0
 19 20  1  0  0  0  0
 19 14  1  1  0  0  0
 20 21  1  0  0  0  0
 22 23  1  0  0  0  0
 22 20  1  0  0  0  0
 24 22  1  0  0  0  0
 24 18  1  0  0  0  0
 25 24  1  0  0  0  0
 26 28  1  0  0  0  0
 26 30  1  0  0  0  0
 27 26  1  0  0  0  0
 29 35  1  0  0  0  0
 29 34  1  0  0  0  0
 30 31  1  0  0  0  0
 30 29  2  0  0  0  0
 31 32  2  0  0  0  0
 32 33  1  0  0  0  0
 33 37  1  0  0  0  0
 34 33  2  0  0  0  0
 36 31  1  0  0  0  0
 37 39  1  0  0  0  0
 37 38  1  0  0  0  0
 40 37  1  0  0  0  0
 40 44  2  0  0  0  0
 41 42  2  0  0  0  0
 41 40  1  0  0  0  0
 42 43  1  0  0  0  0
 43 44  1  0  0  0  0
 43 47  1  0  0  0  0
 45 41  1  0  0  0  0
 46 42  1  0  0  0  0
M  END
>  <minimizedAffinity>
-5.95738077

>  <minimizedRMSD>
1.06619704

$$$$
