
 OpenBabel03242522413D

 47 50  0  0  1  0  0  0  0  0999 V2000
   46.9050   32.5600   44.2520 C   0  0  0  0  0  0  0  0  0  0  0  0
   47.9160   32.8060   44.6060 H   0  0  0  0  0  0  0  0  0  0  0  0
   46.8520   31.9790   43.3430 H   0  0  0  0  0  0  0  0  0  0  0  0
   46.8710   34.5780   42.9140 C   0  0  0  0  0  0  0  0  0  0  0  0
   46.2850   33.8550   43.9270 C   0  0  0  0  0  0  0  0  0  0  0  0
   45.2050   34.2300   44.6280 C   0  0  0  0  0  0  0  0  0  0  0  0
   44.6220   35.4290   44.3280 C   0  0  0  0  0  0  0  0  0  0  0  0
   45.1090   36.2310   43.3470 C   0  0  0  0  0  0  0  0  0  0  0  0
   46.2230   35.7760   42.6670 C   0  0  0  0  0  0  0  0  0  0  0  0
   44.6790   33.7430   45.4010 H   0  0  0  0  0  0  0  0  0  0  0  0
   43.7430   35.8470   44.8250 H   0  0  0  0  0  0  0  0  0  0  0  0
   44.6840   37.1880   43.0690 H   0  0  0  0  0  0  0  0  0  0  0  0
   46.6090   36.4390   41.8700 H   0  0  0  0  0  0  0  0  0  0  0  0
   48.2990   34.2510   42.0370 S   0  0  0  0  0  0  0  0  0  0  0  0
   49.5480   34.2460   42.8660 O   0  0  0  0  0  0  0  0  0  0  0  0
   48.4870   35.4770   41.0940 O   0  0  0  0  0  0  0  0  0  0  0  0
   46.0750   32.0000   40.6250 O   0  0  0  0  0  0  0  0  0  0  0  0
   47.3190   32.1830   40.5760 C   0  0  0  0  0  0  0  0  0  0  0  0
   48.4900   33.0540   40.8630 C   0  0  2  0  0  3  0  0  0  0  0  0
   49.3400   31.9570   41.5270 C   0  0  0  0  0  3  0  0  0  0  0  0
   48.8590   31.5380   42.4190 H   0  0  0  0  0  0  0  0  0  0  0  0
   49.3760   30.9610   40.3710 C   0  0  0  0  0  3  0  0  0  0  0  0
   49.6610   29.9850   40.7530 H   0  0  0  0  0  0  0  0  0  0  0  0
   47.9650   31.0470   39.9600 N   0  0  0  0  0  0  0  0  0  0  0  0
   47.7210   30.2530   39.2960 H   0  0  0  0  0  0  0  0  0  0  0  0
   46.1620   31.7130   45.2360 C   0  0  0  0  0  0  0  0  0  0  0  0
   45.9050   30.6830   44.8680 H   0  0  0  0  0  0  0  0  0  0  0  0
   45.1480   32.0960   45.5090 H   0  0  0  0  0  0  0  0  0  0  0  0
   47.1230   32.5020   47.3690 C   0  0  0  0  0  0  0  0  0  0  0  0
   47.0300   31.4910   46.3860 C   0  0  0  0  0  0  0  0  0  0  0  0
   47.7480   30.3280   46.5920 C   0  0  0  0  0  0  0  0  0  0  0  0
   48.4930   30.2220   47.7160 N   0  0  0  0  0  0  0  0  0  0  0  0
   48.5590   31.1890   48.6250 C   0  0  0  0  0  0  0  0  0  0  0  0
   47.8770   32.3480   48.4710 N   0  0  0  0  0  0  0  0  0  0  0  0
   46.6660   33.4730   47.4130 H   0  0  0  0  0  0  0  0  0  0  0  0
   47.6780   29.5600   45.8430 H   0  0  0  0  0  0  0  0  0  0  0  0
   49.4060   30.9700   49.8460 C   0  0  0  0  0  0  0  0  0  0  0  0
   48.8100   31.3900   50.7060 H   0  0  0  0  0  0  0  0  0  0  0  0
   49.5100   29.8790   50.0450 H   0  0  0  0  0  0  0  0  0  0  0  0
   50.6860   31.6640   49.7960 C   0  0  0  0  0  0  0  0  0  0  0  0
   51.8830   31.1110   49.3560 C   0  0  0  0  0  0  0  0  0  0  0  0
   52.8630   32.0610   49.4550 C   0  0  0  0  0  0  0  0  0  0  0  0
   52.2330   33.1700   49.9560 N   0  0  0  0  0  0  0  0  0  0  0  0
   50.9370   32.9350   50.1580 N   0  0  0  0  0  0  0  0  0  0  0  0
   52.0250   30.1050   48.9950 H   0  0  0  0  0  0  0  0  0  0  0  0
   53.9200   32.0250   49.2150 H   0  0  0  0  0  0  0  0  0  0  0  0
   52.7100   34.0850   50.1520 H   0  0  0  0  0  0  0  0  0  0  0  0
  1  2  1  0  0  0  0
  1 26  1  0  0  0  0
  3  1  1  0  0  0  0
  4  5  1  0  0  0  0
  5  1  1  0  0  0  0
  5  6  2  0  0  0  0
  6 10  1  0  0  0  0
  7  6  1  0  0  0  0
  7 11  1  0  0  0  0
  8  7  2  0  0  0  0
  9  4  2  0  0  0  0
  9  8  1  0  0  0  0
 12  8  1  0  0  0  0
 13  9  1  0  0  0  0
 14 15  2  0  0  0  0
 14  4  1  0  0  0  0
 16 14  2  0  0  0  0
 18 17  2  0  0  0  0
 18 19  1  0  0  0  0
 19 20  1  0  0  0  0
 19 14  1  1  0  0  0
 20 21  1  0  0  0  0
 22 23  1  0  0  0  0
 22 20  1  0  0  0  0
 24 22  1  0  0  0  0
 24 18  1  0  0  0  0
 25 24  1  0  0  0  0
 26 28  1  0  0  0  0
 26 30  1  0  0  0  0
 27 26  1  0  0  0  0
 29 35  1  0  0  0  0
 29 34  1  0  0  0  0
 30 31  1  0  0  0  0
 30 29  2  0  0  0  0
 31 32  2  0  0  0  0
 32 33  1  0  0  0  0
 33 37  1  0  0  0  0
 34 33  2  0  0  0  0
 36 31  1  0  0  0  0
 37 39  1  0  0  0  0
 37 38  1  0  0  0  0
 40 37  1  0  0  0  0
 40 44  2  0  0  0  0
 41 42  2  0  0  0  0
 41 40  1  0  0  0  0
 42 43  1  0  0  0  0
 43 47  1  0  0  0  0
 43 44  1  0  0  0  0
 45 41  1  0  0  0  0
 46 42  1  0  0  0  0
M  END
>  <minimizedAffinity>
-5.89551401

>  <minimizedRMSD>
1.08670795

$$$$
