
 OpenBabel03242522413D

 47 50  0  0  1  0  0  0  0  0999 V2000
   46.9270   32.5710   44.2190 C   0  0  0  0  0  0  0  0  0  0  0  0
   47.9320   32.8250   44.5840 H   0  0  0  0  0  0  0  0  0  0  0  0
   46.8890   32.0050   43.3000 H   0  0  0  0  0  0  0  0  0  0  0  0
   46.8760   34.6110   42.9140 C   0  0  0  0  0  0  0  0  0  0  0  0
   46.2920   33.8630   43.9100 C   0  0  0  0  0  0  0  0  0  0  0  0
   45.2010   34.2110   44.6080 C   0  0  0  0  0  0  0  0  0  0  0  0
   44.6030   35.4070   44.3230 C   0  0  0  0  0  0  0  0  0  0  0  0
   45.0870   36.2320   43.3590 C   0  0  0  0  0  0  0  0  0  0  0  0
   46.2140   35.8040   42.6820 C   0  0  0  0  0  0  0  0  0  0  0  0
   44.6750   33.7030   45.3680 H   0  0  0  0  0  0  0  0  0  0  0  0
   43.7140   35.8040   44.8180 H   0  0  0  0  0  0  0  0  0  0  0  0
   44.6520   37.1880   43.0940 H   0  0  0  0  0  0  0  0  0  0  0  0
   46.5970   36.4850   41.8990 H   0  0  0  0  0  0  0  0  0  0  0  0
   48.3160   34.3190   42.0440 S   0  0  0  0  0  0  0  0  0  0  0  0
   49.5400   34.1850   42.8990 O   0  0  0  0  0  0  0  0  0  0  0  0
   48.5730   35.6240   41.2330 O   0  0  0  0  0  0  0  0  0  0  0  0
   46.2330   31.8700   40.7510 O   0  0  0  0  0  0  0  0  0  0  0  0
   47.4220   32.2300   40.5570 C   0  0  0  0  0  0  0  0  0  0  0  0
   48.4980   33.2370   40.7620 C   0  0  2  0  0  3  0  0  0  0  0  0
   49.5680   32.2310   41.2200 C   0  0  0  0  0  3  0  0  0  0  0  0
   49.2730   31.6930   42.1300 H   0  0  0  0  0  0  0  0  0  0  0  0
   49.5740   31.3250   39.9910 C   0  0  0  0  0  3  0  0  0  0  0  0
   50.0350   30.3770   40.2550 H   0  0  0  0  0  0  0  0  0  0  0  0
   48.1220   31.2380   39.7730 N   0  0  0  0  0  0  0  0  0  0  0  0
   47.8930   30.4590   39.0840 H   0  0  0  0  0  0  0  0  0  0  0  0
   46.1870   31.6980   45.1830 C   0  0  0  0  0  0  0  0  0  0  0  0
   45.9580   30.6670   44.8000 H   0  0  0  0  0  0  0  0  0  0  0  0
   45.1620   32.0570   45.4460 H   0  0  0  0  0  0  0  0  0  0  0  0
   47.1120   32.4890   47.3320 C   0  0  0  0  0  0  0  0  0  0  0  0
   47.0440   31.4810   46.3430 C   0  0  0  0  0  0  0  0  0  0  0  0
   47.7740   30.3270   46.5520 C   0  0  0  0  0  0  0  0  0  0  0  0
   48.5070   30.2240   47.6840 N   0  0  0  0  0  0  0  0  0  0  0  0
   48.5490   31.1880   48.5990 C   0  0  0  0  0  0  0  0  0  0  0  0
   47.8540   32.3390   48.4420 N   0  0  0  0  0  0  0  0  0  0  0  0
   46.6430   33.4540   47.3730 H   0  0  0  0  0  0  0  0  0  0  0  0
   47.7230   29.5620   45.7980 H   0  0  0  0  0  0  0  0  0  0  0  0
   49.3830   30.9740   49.8290 C   0  0  0  0  0  0  0  0  0  0  0  0
   48.7820   31.4030   50.6800 H   0  0  0  0  0  0  0  0  0  0  0  0
   49.4800   29.8840   50.0380 H   0  0  0  0  0  0  0  0  0  0  0  0
   50.6680   31.6600   49.7860 C   0  0  0  0  0  0  0  0  0  0  0  0
   51.8650   31.0970   49.3590 C   0  0  0  0  0  0  0  0  0  0  0  0
   52.8500   32.0430   49.4600 C   0  0  0  0  0  0  0  0  0  0  0  0
   52.2220   33.1580   49.9490 N   0  0  0  0  0  0  0  0  0  0  0  0
   50.9240   32.9310   50.1430 N   0  0  0  0  0  0  0  0  0  0  0  0
   52.0050   30.0890   49.0060 H   0  0  0  0  0  0  0  0  0  0  0  0
   53.9090   31.9990   49.2290 H   0  0  0  0  0  0  0  0  0  0  0  0
   52.7030   34.0710   50.1440 H   0  0  0  0  0  0  0  0  0  0  0  0
  1  2  1  0  0  0  0
  1 26  1  0  0  0  0
  3  1  1  0  0  0  0
  4  5  1  0  0  0  0
  5  1  1  0  0  0  0
  5  6  2  0  0  0  0
  6 10  1  0  0  0  0
  7  6  1  0  0  0  0
  7 11  1  0  0  0  0
  8  7  2  0  0  0  0
  9  4  2  0  0  0  0
  9  8  1  0  0  0  0
 12  8  1  0  0  0  0
 13  9  1  0  0  0  0
 14 15  2  0  0  0  0
 14  4  1  0  0  0  0
 16 14  2  0  0  0  0
 18 17  2  0  0  0  0
 18 19  1  0  0  0  0
 19 20  1  0  0  0  0
 19 14  1  1  0  0  0
 20 21  1  0  0  0  0
 22 23  1  0  0  0  0
 22 20  1  0  0  0  0
 24 22  1  0  0  0  0
 24 18  1  0  0  0  0
 25 24  1  0  0  0  0
 26 28  1  0  0  0  0
 26 30  1  0  0  0  0
 27 26  1  0  0  0  0
 29 35  1  0  0  0  0
 29 34  1  0  0  0  0
 30 31  1  0  0  0  0
 30 29  2  0  0  0  0
 31 32  2  0  0  0  0
 32 33  1  0  0  0  0
 33 37  1  0  0  0  0
 34 33  2  0  0  0  0
 36 31  1  0  0  0  0
 37 39  1  0  0  0  0
 37 38  1  0  0  0  0
 40 37  1  0  0  0  0
 40 44  2  0  0  0  0
 41 42  2  0  0  0  0
 41 40  1  0  0  0  0
 42 43  1  0  0  0  0
 43 44  1  0  0  0  0
 43 47  1  0  0  0  0
 45 41  1  0  0  0  0
 46 42  1  0  0  0  0
M  END
>  <minimizedAffinity>
-5.95943546

>  <minimizedRMSD>
1.17338526

$$$$
