
 OpenBabel03242522413D

 47 50  0  0  1  0  0  0  0  0999 V2000
   46.9650   32.5860   44.2000 C   0  0  0  0  0  0  0  0  0  0  0  0
   47.9590   32.8570   44.5820 H   0  0  0  0  0  0  0  0  0  0  0  0
   46.9510   32.0190   43.2810 H   0  0  0  0  0  0  0  0  0  0  0  0
   46.9100   34.6290   42.9020 C   0  0  0  0  0  0  0  0  0  0  0  0
   46.3140   33.8670   43.8790 C   0  0  0  0  0  0  0  0  0  0  0  0
   45.1990   34.1920   44.5500 C   0  0  0  0  0  0  0  0  0  0  0  0
   44.5870   35.3780   44.2540 C   0  0  0  0  0  0  0  0  0  0  0  0
   45.0810   36.2150   43.3070 C   0  0  0  0  0  0  0  0  0  0  0  0
   46.2320   35.8120   42.6570 C   0  0  0  0  0  0  0  0  0  0  0  0
   44.6630   33.6710   45.2940 H   0  0  0  0  0  0  0  0  0  0  0  0
   43.6790   35.7560   44.7280 H   0  0  0  0  0  0  0  0  0  0  0  0
   44.6350   37.1640   43.0340 H   0  0  0  0  0  0  0  0  0  0  0  0
   46.6230   36.5030   41.8870 H   0  0  0  0  0  0  0  0  0  0  0  0
   48.3770   34.3680   42.0680 S   0  0  0  0  0  0  0  0  0  0  0  0
   49.5850   34.2850   42.9520 O   0  0  0  0  0  0  0  0  0  0  0  0
   48.6130   35.6660   41.2410 O   0  0  0  0  0  0  0  0  0  0  0  0
   46.3770   31.8720   40.7360 O   0  0  0  0  0  0  0  0  0  0  0  0
   47.5680   32.2470   40.5800 C   0  0  0  0  0  0  0  0  0  0  0  0
   48.6210   33.2710   40.8090 C   0  0  2  0  0  3  0  0  0  0  0  0
   49.6880   32.2880   41.3200 C   0  0  0  0  0  3  0  0  0  0  0  0
   49.3670   31.7580   42.2260 H   0  0  0  0  0  0  0  0  0  0  0  0
   49.7510   31.3650   40.1050 C   0  0  0  0  0  3  0  0  0  0  0  0
   50.2150   30.4280   40.3980 H   0  0  0  0  0  0  0  0  0  0  0  0
   48.3080   31.2530   39.8360 N   0  0  0  0  0  0  0  0  0  0  0  0
   48.1160   30.4630   39.1500 H   0  0  0  0  0  0  0  0  0  0  0  0
   46.2240   31.7010   45.1520 C   0  0  0  0  0  0  0  0  0  0  0  0
   46.0060   30.6700   44.7610 H   0  0  0  0  0  0  0  0  0  0  0  0
   45.1930   32.0500   45.4070 H   0  0  0  0  0  0  0  0  0  0  0  0
   47.1190   32.4860   47.3150 C   0  0  0  0  0  0  0  0  0  0  0  0
   47.0710   31.4850   46.3180 C   0  0  0  0  0  0  0  0  0  0  0  0
   47.8110   30.3370   46.5270 C   0  0  0  0  0  0  0  0  0  0  0  0
   48.5340   30.2340   47.6650 N   0  0  0  0  0  0  0  0  0  0  0  0
   48.5570   31.1910   48.5870 C   0  0  0  0  0  0  0  0  0  0  0  0
   47.8520   32.3360   48.4320 N   0  0  0  0  0  0  0  0  0  0  0  0
   46.6390   33.4460   47.3590 H   0  0  0  0  0  0  0  0  0  0  0  0
   47.7760   29.5760   45.7670 H   0  0  0  0  0  0  0  0  0  0  0  0
   49.3810   30.9770   49.8240 C   0  0  0  0  0  0  0  0  0  0  0  0
   48.7740   31.4080   50.6700 H   0  0  0  0  0  0  0  0  0  0  0  0
   49.4740   29.8860   50.0350 H   0  0  0  0  0  0  0  0  0  0  0  0
   50.6680   31.6610   49.7910 C   0  0  0  0  0  0  0  0  0  0  0  0
   51.8670   31.0940   49.3770 C   0  0  0  0  0  0  0  0  0  0  0  0
   52.8530   32.0390   49.4840 C   0  0  0  0  0  0  0  0  0  0  0  0
   52.2220   33.1570   49.9620 N   0  0  0  0  0  0  0  0  0  0  0  0
   50.9220   32.9330   50.1440 N   0  0  0  0  0  0  0  0  0  0  0  0
   52.0090   30.0840   49.0290 H   0  0  0  0  0  0  0  0  0  0  0  0
   53.9140   31.9920   49.2630 H   0  0  0  0  0  0  0  0  0  0  0  0
   52.7030   34.0700   50.1570 H   0  0  0  0  0  0  0  0  0  0  0  0
  1  2  1  0  0  0  0
  1 26  1  0  0  0  0
  3  1  1  0  0  0  0
  4  5  1  0  0  0  0
  5  1  1  0  0  0  0
  5  6  2  0  0  0  0
  6 10  1  0  0  0  0
  7  6  1  0  0  0  0
  7 11  1  0  0  0  0
  8  7  2  0  0  0  0
  9  4  2  0  0  0  0
  9  8  1  0  0  0  0
 12  8  1  0  0  0  0
 13  9  1  0  0  0  0
 14  4  1  0  0  0  0
 14 15  2  0  0  0  0
 16 14  2  0  0  0  0
 18 17  2  0  0  0  0
 18 19  1  0  0  0  0
 19 20  1  0  0  0  0
 19 14  1  1  0  0  0
 20 21  1  0  0  0  0
 22 23  1  0  0  0  0
 22 20  1  0  0  0  0
 24 22  1  0  0  0  0
 24 18  1  0  0  0  0
 25 24  1  0  0  0  0
 26 28  1  0  0  0  0
 26 30  1  0  0  0  0
 27 26  1  0  0  0  0
 29 35  1  0  0  0  0
 29 34  1  0  0  0  0
 30 31  1  0  0  0  0
 30 29  2  0  0  0  0
 31 32  2  0  0  0  0
 32 33  1  0  0  0  0
 33 37  1  0  0  0  0
 34 33  2  0  0  0  0
 36 31  1  0  0  0  0
 37 39  1  0  0  0  0
 37 38  1  0  0  0  0
 40 37  1  0  0  0  0
 40 44  2  0  0  0  0
 41 42  2  0  0  0  0
 41 40  1  0  0  0  0
 42 43  1  0  0  0  0
 43 44  1  0  0  0  0
 43 47  1  0  0  0  0
 45 41  1  0  0  0  0
 46 42  1  0  0  0  0
M  END
>  <minimizedAffinity>
-5.97125673

>  <minimizedRMSD>
1.20379758

$$$$
