
 OpenBabel03252509073D

 41 44  0  0  1  0  0  0  0  0999 V2000
   47.6260   31.8230   38.9770 C   0  0  0  0  0  0  0  0  0  0  0  0
   47.1610   33.1030   38.9530 C   0  0  0  0  0  0  0  0  0  0  0  0
   47.7870   34.0230   38.1340 C   0  0  0  0  0  0  0  0  0  0  0  0
   48.8600   33.6500   37.3590 C   0  0  0  0  0  0  0  0  0  0  0  0
   49.3500   32.3480   37.3690 C   0  0  0  0  0  0  0  0  0  0  0  0
   48.7130   31.4300   38.1960 C   0  0  0  0  0  0  0  0  0  0  0  0
   47.4470   35.0550   38.0860 H   0  0  0  0  0  0  0  0  0  0  0  0
   49.3300   34.3910   36.7300 H   0  0  0  0  0  0  0  0  0  0  0  0
   50.1900   32.0230   36.7700 H   0  0  0  0  0  0  0  0  0  0  0  0
   49.0850   30.4190   38.2090 H   0  0  0  0  0  0  0  0  0  0  0  0
   45.3680   35.3950   43.1990 Cl  0  0  0  0  0  0  0  0  0  0  0  0
   45.1990   34.6210   41.6510 C   0  0  0  0  0  0  0  0  0  0  0  0
   46.2780   34.2000   40.9610 C   0  0  0  0  0  0  0  0  0  0  0  0
   46.0330   33.5920   39.7340 C   0  0  0  0  0  0  0  0  0  0  0  0
   44.7660   33.4220   39.2390 C   0  0  0  0  0  0  0  0  0  0  0  0
   43.6930   33.8530   39.9540 C   0  0  0  0  0  0  0  0  0  0  0  0
   43.9210   34.4560   41.1700 C   0  0  0  0  0  0  0  0  0  0  0  0
   44.5910   32.9450   38.2770 H   0  0  0  0  0  0  0  0  0  0  0  0
   42.6630   33.7460   39.6150 H   0  0  0  0  0  0  0  0  0  0  0  0
   43.0540   34.8030   41.7450 H   0  0  0  0  0  0  0  0  0  0  0  0
   49.5850   35.7380   41.9280 C   0  0  0  0  0  0  0  0  0  0  0  0
   48.3110   35.5670   41.3810 C   0  0  0  0  0  0  0  0  0  0  0  0
   47.5950   34.3900   41.5160 C   0  0  0  0  0  0  0  0  0  0  0  0
   48.2230   33.4120   42.2220 N   0  0  0  0  0  0  0  0  0  0  0  0
   49.4500   33.5780   42.7480 C   0  0  0  0  0  0  0  0  0  0  0  0
   50.1190   34.7260   42.6010 N   0  0  0  0  0  0  0  0  0  0  0  0
   50.0680   36.6890   41.7720 H   0  0  0  0  0  0  0  0  0  0  0  0
   47.8340   36.3660   40.8210 H   0  0  0  0  0  0  0  0  0  0  0  0
   49.9580   32.8010   43.3130 H   0  0  0  0  0  0  0  0  0  0  0  0
   46.8900   30.6370   39.9330 S   0  0  0  0  0  0  0  0  0  0  0  0
   46.7930   29.3020   39.2300 O   0  0  0  0  0  0  0  0  0  0  0  0
   47.9360   30.3780   41.0600 O   0  0  0  0  0  0  0  0  0  0  0  0
   44.7240   28.2330   40.8460 O   0  0  0  0  0  0  0  0  0  0  0  0
   44.7730   29.4430   41.1900 C   0  0  0  0  0  0  0  0  0  0  0  0
   45.4780   30.7350   40.8280 C   0  0  1  0  0  3  0  0  0  0  0  0
   45.9660   30.8770   42.3190 C   0  0  0  0  0  3  0  0  0  0  0  0
   46.5450   31.8070   42.4090 H   0  0  0  0  0  0  0  0  0  0  0  0
   44.6360   30.9230   43.0140 C   0  0  0  0  0  3  0  0  0  0  0  0
   44.7210   30.6730   44.0870 H   0  0  0  0  0  0  0  0  0  0  0  0
   43.9220   29.8640   42.2810 N   0  0  0  0  0  0  0  0  0  0  0  0
   42.9620   29.5780   42.6240 H   0  0  0  0  0  0  0  0  0  0  0  0
  1 30  1  0  0  0  0
  2  1  1  0  0  0  0
  2 14  1  0  0  0  0
  3  2  2  0  0  0  0
  4  5  2  0  0  0  0
  4  3  1  0  0  0  0
  5  6  1  0  0  0  0
  6 10  1  0  0  0  0
  6  1  2  0  0  0  0
  7  3  1  0  0  0  0
  8  4  1  0  0  0  0
  9  5  1  0  0  0  0
 12 11  1  0  0  0  0
 13 23  1  0  0  0  0
 13 12  2  0  0  0  0
 14 13  1  0  0  0  0
 15 14  2  0  0  0  0
 15 16  1  0  0  0  0
 16 17  2  0  0  0  0
 17 12  1  0  0  0  0
 17 20  1  0  0  0  0
 18 15  1  0  0  0  0
 19 16  1  0  0  0  0
 21 26  1  0  0  0  0
 22 23  1  0  0  0  0
 22 21  2  0  0  0  0
 23 24  2  0  0  0  0
 24 25  1  0  0  0  0
 25 29  1  0  0  0  0
 26 25  2  0  0  0  0
 27 21  1  0  0  0  0
 28 22  1  0  0  0  0
 30 32  2  0  0  0  0
 31 30  2  0  0  0  0
 33 34  2  0  0  0  0
 34 40  1  0  0  0  0
 35 30  1  6  0  0  0
 35 34  1  0  0  0  0
 35 36  1  0  0  0  0
 36 37  1  0  0  0  0
 36 38  1  0  0  0  0
 38 39  1  0  0  0  0
 40 41  1  0  0  0  0
 40 38  1  0  0  0  0
M  END
>  <minimizedAffinity>
-4.60625267

>  <minimizedRMSD>
0.536875963

$$$$
