
 OpenBabel03252506363D

 44 47  0  0  1  0  0  0  0  0999 V2000
   44.4990   35.5420   45.1320 C   0  0  0  0  0  0  0  0  0  0  0  0
   45.1620   35.5300   43.8860 C   0  0  0  0  0  0  0  0  0  0  0  0
   46.0850   34.5680   43.6390 C   0  0  0  0  0  0  0  0  0  0  0  0
   46.3130   33.6660   44.6230 N   0  0  0  0  0  0  0  0  0  0  0  0
   45.6880   33.6820   45.7910 C   0  0  0  0  0  0  0  0  0  0  0  0
   44.7770   34.6140   46.0640 N   0  0  0  0  0  0  0  0  0  0  0  0
   46.0150   32.6730   46.7630 N   0  0  0  0  0  0  0  0  0  0  0  0
   45.2710   32.4280   47.9460 C   0  0  0  0  0  0  0  0  0  0  0  0
   46.3440   32.0860   48.9650 C   0  0  0  0  0  0  0  0  0  0  0  0
   47.6270   31.9900   48.2040 C   0  0  0  0  0  0  0  0  0  0  0  0
   47.1410   31.7690   46.7710 C   0  0  1  0  0  0  0  0  0  0  0  0
   43.7690   36.3020   45.3300 H   0  0  0  0  0  0  0  0  0  0  0  0
   46.5970   34.5420   42.7050 H   0  0  0  0  0  0  0  0  0  0  0  0
   44.4460   31.7980   48.0320 H   0  0  0  0  0  0  0  0  0  0  0  0
   44.9110   33.4480   48.3000 H   0  0  0  0  0  0  0  0  0  0  0  0
   46.3490   32.7100   49.8530 H   0  0  0  0  0  0  0  0  0  0  0  0
   46.1260   31.0390   49.3310 H   0  0  0  0  0  0  0  0  0  0  0  0
   48.2160   31.1090   48.4860 H   0  0  0  0  0  0  0  0  0  0  0  0
   48.1740   32.9540   48.2800 H   0  0  0  0  0  0  0  0  0  0  0  0
   47.9300   32.0940   46.0780 H   0  0  0  0  0  0  0  0  0  0  0  0
   44.8080   36.5580   42.9460 N   0  0  0  0  0  0  0  0  0  0  0  0
   43.8230   36.8900   42.8970 H   0  0  0  0  0  0  0  0  0  0  0  0
   45.5430   36.9660   42.3160 H   0  0  0  0  0  0  0  0  0  0  0  0
   46.6390   30.0740   46.5890 S   0  0  0  0  0  0  0  0  0  0  0  0
   45.7560   30.6140   43.4150 O   0  0  0  0  0  0  0  0  0  0  0  0
   45.0940   30.0420   44.2950 C   0  0  0  0  0  0  0  0  0  0  0  0
   45.1320   29.7780   45.7570 C   0  0  1  0  0  0  0  0  0  0  0  0
   44.6210   28.3610   45.8190 C   0  0  0  0  0  0  0  0  0  0  0  0
   43.3350   28.5690   45.0110 C   0  0  0  0  0  0  0  0  0  0  0  0
   43.8720   29.3770   43.9220 N   0  0  0  0  0  0  0  0  0  0  0  0
   44.2230   30.3460   46.0870 H   0  0  0  0  0  0  0  0  0  0  0  0
   44.4100   28.0540   46.8570 H   0  0  0  0  0  0  0  0  0  0  0  0
   45.2740   27.6540   45.2750 H   0  0  0  0  0  0  0  0  0  0  0  0
   42.5820   29.1020   45.6120 H   0  0  0  0  0  0  0  0  0  0  0  0
   42.9870   27.5850   44.6350 H   0  0  0  0  0  0  0  0  0  0  0  0
   42.7890   31.7990   42.1140 O   0  0  0  0  0  0  0  0  0  0  0  0
   43.3360   30.6850   41.9260 C   0  0  0  0  0  0  0  0  0  0  0  0
   43.1540   29.4230   42.6460 C   0  0  1  0  0  3  0  0  0  0  0  0
   43.7260   28.3550   41.7110 C   0  0  0  0  0  3  0  0  0  0  0  0
   44.2670   27.5720   42.3000 H   0  0  0  0  0  0  0  0  0  0  0  0
   44.6350   29.0790   40.7680 C   0  0  0  0  0  3  0  0  0  0  0  0
   45.6760   28.9010   41.1160 H   0  0  0  0  0  0  0  0  0  0  0  0
   44.2880   30.5000   40.8910 N   0  0  0  0  0  0  0  0  0  0  0  0
   44.7680   31.1730   40.2250 H   0  0  0  0  0  0  0  0  0  0  0  0
  1 12  1  0  0  0  0
  1  6  1  0  0  0  0
  2  1  2  0  0  0  0
  3  2  1  0  0  0  0
  3  4  2  0  0  0  0
  4  5  1  0  0  0  0
  5  6  2  0  0  0  0
  5  7  1  0  0  0  0
  7 11  1  0  0  0  0
  7  8  1  0  0  0  0
  8 14  1  0  0  0  0
  8 15  1  0  0  0  0
  8  9  1  0  0  0  0
  9 17  1  0  0  0  0
  9 16  1  0  0  0  0
 10 19  1  0  0  0  0
 10 18  1  0  0  0  0
 10  9  1  0  0  0  0
 11 20  1  6  0  0  0
 11 10  1  0  0  0  0
 13  3  1  0  0  0  0
 21  2  1  0  0  0  0
 22 21  1  0  0  0  0
 23 21  1  0  0  0  0
 24 11  1  0  0  0  0
 25 26  2  0  0  0  0
 26 27  1  0  0  0  0
 27 28  1  0  0  0  0
 27 31  1  1  0  0  0
 27 24  1  0  0  0  0
 28 32  1  0  0  0  0
 29 34  1  0  0  0  0
 29 28  1  0  0  0  0
 30 26  1  0  0  0  0
 30 29  1  0  0  0  0
 33 28  1  0  0  0  0
 35 29  1  0  0  0  0
 37 36  2  0  0  0  0
 37 38  1  0  0  0  0
 38 30  1  1  0  0  0
 39 40  1  0  0  0  0
 39 38  1  0  0  0  0
 41 43  1  0  0  0  0
 41 42  1  0  0  0  0
 41 39  1  0  0  0  0
 43 37  1  0  0  0  0
 44 43  1  0  0  0  0
M  END
>  <minimizedAffinity>
-5.23804045

>  <minimizedRMSD>
0.664381862

$$$$
