
 OpenBabel03252509073D

 41 44  0  0  1  0  0  0  0  0999 V2000
   47.6250   31.8300   38.8790 C   0  0  0  0  0  0  0  0  0  0  0  0
   47.1740   33.1150   38.9210 C   0  0  0  0  0  0  0  0  0  0  0  0
   47.8170   34.0710   38.1600 C   0  0  0  0  0  0  0  0  0  0  0  0
   48.8920   33.7290   37.3740 C   0  0  0  0  0  0  0  0  0  0  0  0
   49.3680   32.4230   37.3150 C   0  0  0  0  0  0  0  0  0  0  0  0
   48.7140   31.4680   38.0850 C   0  0  0  0  0  0  0  0  0  0  0  0
   47.4900   35.1090   38.1660 H   0  0  0  0  0  0  0  0  0  0  0  0
   49.3760   34.4990   36.7900 H   0  0  0  0  0  0  0  0  0  0  0  0
   50.2090   32.1220   36.7060 H   0  0  0  0  0  0  0  0  0  0  0  0
   49.0750   30.4540   38.0460 H   0  0  0  0  0  0  0  0  0  0  0  0
   45.3820   35.3090   43.2190 Cl  0  0  0  0  0  0  0  0  0  0  0  0
   45.2120   34.5570   41.6600 C   0  0  0  0  0  0  0  0  0  0  0  0
   46.2920   34.1660   40.9540 C   0  0  0  0  0  0  0  0  0  0  0  0
   46.0460   33.5730   39.7200 C   0  0  0  0  0  0  0  0  0  0  0  0
   44.7770   33.3920   39.2330 C   0  0  0  0  0  0  0  0  0  0  0  0
   43.7040   33.7940   39.9630 C   0  0  0  0  0  0  0  0  0  0  0  0
   43.9330   34.3810   41.1870 C   0  0  0  0  0  0  0  0  0  0  0  0
   44.6020   32.9270   38.2640 H   0  0  0  0  0  0  0  0  0  0  0  0
   42.6730   33.6760   39.6310 H   0  0  0  0  0  0  0  0  0  0  0  0
   43.0650   34.7040   41.7750 H   0  0  0  0  0  0  0  0  0  0  0  0
   49.5820   35.7400   41.9200 C   0  0  0  0  0  0  0  0  0  0  0  0
   48.3060   35.5570   41.3800 C   0  0  0  0  0  0  0  0  0  0  0  0
   47.6100   34.3670   41.5020 C   0  0  0  0  0  0  0  0  0  0  0  0
   48.2600   33.3880   42.1850 N   0  0  0  0  0  0  0  0  0  0  0  0
   49.4880   33.5640   42.7040 C   0  0  0  0  0  0  0  0  0  0  0  0
   50.1380   34.7250   42.5720 N   0  0  0  0  0  0  0  0  0  0  0  0
   50.0480   36.7010   41.7760 H   0  0  0  0  0  0  0  0  0  0  0  0
   47.8120   36.3580   40.8380 H   0  0  0  0  0  0  0  0  0  0  0  0
   50.0130   32.7870   43.2520 H   0  0  0  0  0  0  0  0  0  0  0  0
   46.8680   30.6020   39.7630 S   0  0  0  0  0  0  0  0  0  0  0  0
   45.5280   30.2110   39.1810 O   0  0  0  0  0  0  0  0  0  0  0  0
   47.7610   29.3540   39.4880 O   0  0  0  0  0  0  0  0  0  0  0  0
   45.2990   28.2490   41.5800 O   0  0  0  0  0  0  0  0  0  0  0  0
   46.0020   29.2200   41.9590 C   0  0  0  0  0  0  0  0  0  0  0  0
   46.6500   30.4800   41.4180 C   0  0  1  0  0  3  0  0  0  0  0  0
   48.0440   29.9870   41.9630 C   0  0  0  0  0  3  0  0  0  0  0  0
   48.8000   30.7510   41.7280 H   0  0  0  0  0  0  0  0  0  0  0  0
   47.7190   29.8850   43.4250 C   0  0  0  0  0  3  0  0  0  0  0  0
   48.4310   29.2320   43.9620 H   0  0  0  0  0  0  0  0  0  0  0  0
   46.3860   29.2640   43.3530 N   0  0  0  0  0  0  0  0  0  0  0  0
   45.9270   28.9600   44.2570 H   0  0  0  0  0  0  0  0  0  0  0  0
  1  2  1  0  0  0  0
  1 30  1  0  0  0  0
  2 14  1  0  0  0  0
  3  7  1  0  0  0  0
  3  2  2  0  0  0  0
  4  3  1  0  0  0  0
  5  4  2  0  0  0  0
  5  6  1  0  0  0  0
  6  1  2  0  0  0  0
  8  4  1  0  0  0  0
  9  5  1  0  0  0  0
 10  6  1  0  0  0  0
 12 11  1  0  0  0  0
 13 23  1  0  0  0  0
 13 12  2  0  0  0  0
 14 13  1  0  0  0  0
 15 14  2  0  0  0  0
 15 16  1  0  0  0  0
 16 17  2  0  0  0  0
 17 12  1  0  0  0  0
 17 20  1  0  0  0  0
 18 15  1  0  0  0  0
 19 16  1  0  0  0  0
 21 26  1  0  0  0  0
 22 23  1  0  0  0  0
 22 21  2  0  0  0  0
 23 24  2  0  0  0  0
 24 25  1  0  0  0  0
 25 29  1  0  0  0  0
 26 25  2  0  0  0  0
 27 21  1  0  0  0  0
 28 22  1  0  0  0  0
 31 30  2  0  0  0  0
 32 30  2  0  0  0  0
 33 34  2  0  0  0  0
 34 40  1  0  0  0  0
 35 30  1  6  0  0  0
 35 34  1  0  0  0  0
 35 36  1  0  0  0  0
 36 38  1  0  0  0  0
 37 36  1  0  0  0  0
 38 39  1  0  0  0  0
 40 38  1  0  0  0  0
 40 41  1  0  0  0  0
M  END
>  <minimizedAffinity>
-4.54179478

>  <minimizedRMSD>
1.47374749

$$$$
