
 OpenBabel03252506393D

 44 47  0  0  1  0  0  0  0  0999 V2000
   37.0330   30.2340   36.6230 C   0  0  0  0  0  0  0  0  0  0  0  0
   37.7480   29.0630   36.2930 C   0  0  0  0  0  0  0  0  0  0  0  0
   38.6930   28.6030   37.1500 C   0  0  0  0  0  0  0  0  0  0  0  0
   38.8900   29.3120   38.2860 N   0  0  0  0  0  0  0  0  0  0  0  0
   38.2170   30.4110   38.5910 C   0  0  0  0  0  0  0  0  0  0  0  0
   37.2830   30.8880   37.7710 N   0  0  0  0  0  0  0  0  0  0  0  0
   38.5150   31.0840   39.8280 N   0  0  0  0  0  0  0  0  0  0  0  0
   37.7250   32.1200   40.3880 C   0  0  0  0  0  0  0  0  0  0  0  0
   38.7590   33.0530   40.9950 C   0  0  0  0  0  0  0  0  0  0  0  0
   40.0740   32.3530   40.8780 C   0  0  0  0  0  0  0  0  0  0  0  0
   39.6520   30.8940   40.6980 C   0  0  1  0  0  0  0  0  0  0  0  0
   36.2850   30.6000   35.9470 H   0  0  0  0  0  0  0  0  0  0  0  0
   39.2440   27.7210   36.9190 H   0  0  0  0  0  0  0  0  0  0  0  0
   36.9060   31.9950   41.0180 H   0  0  0  0  0  0  0  0  0  0  0  0
   37.3380   32.7240   39.5040 H   0  0  0  0  0  0  0  0  0  0  0  0
   38.7190   34.0770   40.6370 H   0  0  0  0  0  0  0  0  0  0  0  0
   38.5390   33.1090   42.1020 H   0  0  0  0  0  0  0  0  0  0  0  0
   40.6620   32.4090   41.8010 H   0  0  0  0  0  0  0  0  0  0  0  0
   40.6050   32.7130   39.9710 H   0  0  0  0  0  0  0  0  0  0  0  0
   40.4650   30.3510   40.1960 H   0  0  0  0  0  0  0  0  0  0  0  0
   37.4210   28.4250   35.0480 N   0  0  0  0  0  0  0  0  0  0  0  0
   36.4340   28.4250   34.7160 H   0  0  0  0  0  0  0  0  0  0  0  0
   38.1750   27.9630   34.4820 H   0  0  0  0  0  0  0  0  0  0  0  0
   39.1800   30.2330   42.2800 S   0  0  0  0  0  0  0  0  0  0  0  0
   39.1990   27.2600   40.7610 O   0  0  0  0  0  0  0  0  0  0  0  0
   38.3620   27.6880   41.5720 C   0  0  0  0  0  0  0  0  0  0  0  0
   38.0020   28.9440   42.2810 C   0  0  1  0  0  0  0  0  0  0  0  0
   37.6110   28.4190   43.6390 C   0  0  0  0  0  0  0  0  0  0  0  0
   36.5970   27.3690   43.1720 C   0  0  0  0  0  0  0  0  0  0  0  0
   37.3550   26.7870   42.0710 N   0  0  0  0  0  0  0  0  0  0  0  0
   36.9940   29.1450   41.8330 H   0  0  0  0  0  0  0  0  0  0  0  0
   37.1390   29.2040   44.2520 H   0  0  0  0  0  0  0  0  0  0  0  0
   38.4470   27.9070   44.1480 H   0  0  0  0  0  0  0  0  0  0  0  0
   35.6630   27.8520   42.8440 H   0  0  0  0  0  0  0  0  0  0  0  0
   36.4520   26.6280   43.9840 H   0  0  0  0  0  0  0  0  0  0  0  0
   36.5340   25.5820   39.2110 O   0  0  0  0  0  0  0  0  0  0  0  0
   37.2470   25.2340   40.1840 C   0  0  0  0  0  0  0  0  0  0  0  0
   37.0300   25.4320   41.6180 C   0  0  1  0  0  3  0  0  0  0  0  0
   37.9720   24.4360   42.2960 C   0  0  0  0  0  3  0  0  0  0  0  0
   38.4190   24.8890   43.2170 H   0  0  0  0  0  0  0  0  0  0  0  0
   39.0140   24.0950   41.2750 C   0  0  0  0  0  3  0  0  0  0  0  0
   39.9260   24.6740   41.5340 H   0  0  0  0  0  0  0  0  0  0  0  0
   38.4690   24.5410   39.9870 N   0  0  0  0  0  0  0  0  0  0  0  0
   39.0290   24.3010   39.1190 H   0  0  0  0  0  0  0  0  0  0  0  0
  1  6  1  0  0  0  0
  2  1  2  0  0  0  0
  2  3  1  0  0  0  0
  3  4  2  0  0  0  0
  4  5  1  0  0  0  0
  5  7  1  0  0  0  0
  6  5  2  0  0  0  0
  7  8  1  0  0  0  0
  7 11  1  0  0  0  0
  8  9  1  0  0  0  0
  8 14  1  0  0  0  0
  9 17  1  0  0  0  0
 10  9  1  0  0  0  0
 10 18  1  0  0  0  0
 11 20  1  6  0  0  0
 11 10  1  0  0  0  0
 11 24  1  0  0  0  0
 12  1  1  0  0  0  0
 13  3  1  0  0  0  0
 15  8  1  0  0  0  0
 16  9  1  0  0  0  0
 19 10  1  0  0  0  0
 21  2  1  0  0  0  0
 22 21  1  0  0  0  0
 23 21  1  0  0  0  0
 24 27  1  0  0  0  0
 25 26  2  0  0  0  0
 26 30  1  0  0  0  0
 26 27  1  0  0  0  0
 27 31  1  6  0  0  0
 27 28  1  0  0  0  0
 28 33  1  0  0  0  0
 28 32  1  0  0  0  0
 29 28  1  0  0  0  0
 29 35  1  0  0  0  0
 30 29  1  0  0  0  0
 34 29  1  0  0  0  0
 36 37  2  0  0  0  0
 37 38  1  0  0  0  0
 38 30  1  1  0  0  0
 38 39  1  0  0  0  0
 39 40  1  0  0  0  0
 41 42  1  0  0  0  0
 41 39  1  0  0  0  0
 43 37  1  0  0  0  0
 43 41  1  0  0  0  0
 44 43  1  0  0  0  0
M  END
>  <minimizedAffinity>
-5.81363249

$$$$

 OpenBabel03252506393D

 44 47  0  0  1  0  0  0  0  0999 V2000
   37.8710   32.6950   38.8100 C   0  0  0  0  0  0  0  0  0  0  0  0
   37.7420   32.6990   40.2150 C   0  0  0  0  0  0  0  0  0  0  0  0
   37.0720   31.6860   40.8190 C   0  0  0  0  0  0  0  0  0  0  0  0
   36.5630   30.7210   40.0180 N   0  0  0  0  0  0  0  0  0  0  0  0
   36.6860   30.7220   38.6990 C   0  0  0  0  0  0  0  0  0  0  0  0
   37.3380   31.7020   38.0760 N   0  0  0  0  0  0  0  0  0  0  0  0
   36.0990   29.6440   37.9490 N   0  0  0  0  0  0  0  0  0  0  0  0
   36.3490   29.3920   36.5750 C   0  0  0  0  0  0  0  0  0  0  0  0
   35.0010   28.9210   36.0590 C   0  0  0  0  0  0  0  0  0  0  0  0
   34.1220   28.7720   37.2590 C   0  0  0  0  0  0  0  0  0  0  0  0
   35.1400   28.6610   38.3950 C   0  0  1  0  0  0  0  0  0  0  0  0
   38.4000   33.4950   38.3290 H   0  0  0  0  0  0  0  0  0  0  0  0
   36.9640   31.6700   41.8790 H   0  0  0  0  0  0  0  0  0  0  0  0
   37.1280   28.8200   36.1880 H   0  0  0  0  0  0  0  0  0  0  0  0
   36.4550   30.4170   36.0900 H   0  0  0  0  0  0  0  0  0  0  0  0
   34.6000   29.4980   35.2310 H   0  0  0  0  0  0  0  0  0  0  0  0
   35.1510   27.8760   35.6570 H   0  0  0  0  0  0  0  0  0  0  0  0
   33.5500   27.8380   37.2440 H   0  0  0  0  0  0  0  0  0  0  0  0
   33.5070   29.6880   37.3820 H   0  0  0  0  0  0  0  0  0  0  0  0
   34.6530   28.9620   39.3340 H   0  0  0  0  0  0  0  0  0  0  0  0
   38.3400   33.7960   40.9240 N   0  0  0  0  0  0  0  0  0  0  0  0
   39.2350   34.2000   40.5810 H   0  0  0  0  0  0  0  0  0  0  0  0
   37.8720   34.1820   41.7820 H   0  0  0  0  0  0  0  0  0  0  0  0
   35.8180   27.0180   38.4010 S   0  0  0  0  0  0  0  0  0  0  0  0
   36.2350   27.7500   41.6310 O   0  0  0  0  0  0  0  0  0  0  0  0
   36.9920   27.0870   40.9040 C   0  0  0  0  0  0  0  0  0  0  0  0
   37.1630   26.7190   39.4750 C   0  0  1  0  0  0  0  0  0  0  0  0
   37.6010   25.2810   39.5870 C   0  0  0  0  0  0  0  0  0  0  0  0
   38.7570   25.4920   40.5690 C   0  0  0  0  0  0  0  0  0  0  0  0
   38.1050   26.3990   41.5060 N   0  0  0  0  0  0  0  0  0  0  0  0
   38.1410   27.2220   39.2540 H   0  0  0  0  0  0  0  0  0  0  0  0
   37.9500   24.8910   38.6170 H   0  0  0  0  0  0  0  0  0  0  0  0
   36.8360   24.6440   40.0670 H   0  0  0  0  0  0  0  0  0  0  0  0
   39.6210   25.9460   40.0590 H   0  0  0  0  0  0  0  0  0  0  0  0
   38.9910   24.5240   41.0580 H   0  0  0  0  0  0  0  0  0  0  0  0
   39.6320   24.3330   43.4310 O   0  0  0  0  0  0  0  0  0  0  0  0
   39.6970   25.5570   43.1610 C   0  0  0  0  0  0  0  0  0  0  0  0
   38.6230   26.5080   42.8720 C   0  0  1  0  0  3  0  0  0  0  0  0
   39.2600   27.8860   43.0600 C   0  0  0  0  0  3  0  0  0  0  0  0
   38.8770   28.6000   42.2870 H   0  0  0  0  0  0  0  0  0  0  0  0
   40.7390   27.6730   42.9450 C   0  0  0  0  0  3  0  0  0  0  0  0
   41.0390   28.0060   41.9280 H   0  0  0  0  0  0  0  0  0  0  0  0
   40.9450   26.2280   43.0960 N   0  0  0  0  0  0  0  0  0  0  0  0
   41.9500   25.8880   43.1360 H   0  0  0  0  0  0  0  0  0  0  0  0
  1  2  1  0  0  0  0
  2  3  2  0  0  0  0
  2 21  1  0  0  0  0
  3 13  1  0  0  0  0
  4  3  1  0  0  0  0
  5  4  2  0  0  0  0
  6  5  1  0  0  0  0
  6  1  2  0  0  0  0
  7 11  1  0  0  0  0
  7  5  1  0  0  0  0
  8  7  1  0  0  0  0
  9  8  1  0  0  0  0
  9 10  1  0  0  0  0
 10 19  1  0  0  0  0
 10 11  1  0  0  0  0
 11 24  1  0  0  0  0
 11 20  1  1  0  0  0
 12  1  1  0  0  0  0
 14  8  1  0  0  0  0
 15  8  1  0  0  0  0
 16  9  1  0  0  0  0
 17  9  1  0  0  0  0
 18 10  1  0  0  0  0
 21 23  1  0  0  0  0
 22 21  1  0  0  0  0
 24 27  1  0  0  0  0
 26 30  1  0  0  0  0
 26 25  2  0  0  0  0
 27 31  1  6  0  0  0
 27 28  1  0  0  0  0
 27 26  1  0  0  0  0
 28 33  1  0  0  0  0
 28 29  1  0  0  0  0
 29 35  1  0  0  0  0
 29 30  1  0  0  0  0
 32 28  1  0  0  0  0
 34 29  1  0  0  0  0
 37 36  2  0  0  0  0
 38 30  1  6  0  0  0
 38 39  1  0  0  0  0
 38 37  1  0  0  0  0
 40 39  1  0  0  0  0
 41 39  1  0  0  0  0
 41 43  1  0  0  0  0
 42 41  1  0  0  0  0
 43 44  1  0  0  0  0
 43 37  1  0  0  0  0
M  END
>  <minimizedAffinity>
-5.79297495

$$$$

 OpenBabel03252506393D

 44 47  0  0  1  0  0  0  0  0999 V2000
   40.0100   32.7260   38.9890 C   0  0  0  0  0  0  0  0  0  0  0  0
   39.8160   33.0820   40.3410 C   0  0  0  0  0  0  0  0  0  0  0  0
   38.8810   32.4240   41.0690 C   0  0  0  0  0  0  0  0  0  0  0  0
   38.1830   31.4500   40.4390 N   0  0  0  0  0  0  0  0  0  0  0  0
   38.3680   31.1190   39.1690 C   0  0  0  0  0  0  0  0  0  0  0  0
   39.2790   31.7470   38.4280 N   0  0  0  0  0  0  0  0  0  0  0  0
   37.5640   30.0690   38.6030 N   0  0  0  0  0  0  0  0  0  0  0  0
   37.8110   29.4570   37.3480 C   0  0  0  0  0  0  0  0  0  0  0  0
   36.4140   29.2150   36.8010 C   0  0  0  0  0  0  0  0  0  0  0  0
   35.4680   29.5580   37.9060 C   0  0  0  0  0  0  0  0  0  0  0  0
   36.3640   29.4720   39.1420 C   0  0  1  0  0  0  0  0  0  0  0  0
   40.7500   33.2450   38.4110 H   0  0  0  0  0  0  0  0  0  0  0  0
   38.7180   32.6780   42.0910 H   0  0  0  0  0  0  0  0  0  0  0  0
   38.4360   28.6440   37.1740 H   0  0  0  0  0  0  0  0  0  0  0  0
   38.1980   30.2880   36.6720 H   0  0  0  0  0  0  0  0  0  0  0  0
   36.2160   29.6640   35.8330 H   0  0  0  0  0  0  0  0  0  0  0  0
   36.3130   28.1000   36.6450 H   0  0  0  0  0  0  0  0  0  0  0  0
   34.6770   28.8090   38.0260 H   0  0  0  0  0  0  0  0  0  0  0  0
   35.1020   30.5970   37.7690 H   0  0  0  0  0  0  0  0  0  0  0  0
   35.9240   30.0870   39.9400 H   0  0  0  0  0  0  0  0  0  0  0  0
   40.6370   34.1380   40.8640 N   0  0  0  0  0  0  0  0  0  0  0  0
   41.6220   34.2290   40.5410 H   0  0  0  0  0  0  0  0  0  0  0  0
   40.2410   34.8100   41.5670 H   0  0  0  0  0  0  0  0  0  0  0  0
   36.6000   27.7610   39.5640 S   0  0  0  0  0  0  0  0  0  0  0  0
   39.3590   26.2950   40.7390 O   0  0  0  0  0  0  0  0  0  0  0  0
   38.4500   26.8280   41.3950 C   0  0  0  0  0  0  0  0  0  0  0  0
   37.0970   27.4090   41.2010 C   0  0  1  0  0  0  0  0  0  0  0  0
   37.1410   28.5910   42.1360 C   0  0  0  0  0  0  0  0  0  0  0  0
   37.5880   27.8410   43.3960 C   0  0  0  0  0  0  0  0  0  0  0  0
   38.6300   27.0050   42.8130 N   0  0  0  0  0  0  0  0  0  0  0  0
   36.4810   26.6880   41.8000 H   0  0  0  0  0  0  0  0  0  0  0  0
   36.1440   29.0450   42.2590 H   0  0  0  0  0  0  0  0  0  0  0  0
   37.9240   29.3190   41.8580 H   0  0  0  0  0  0  0  0  0  0  0  0
   36.7530   27.2580   43.8160 H   0  0  0  0  0  0  0  0  0  0  0  0
   38.0220   28.5700   44.1100 H   0  0  0  0  0  0  0  0  0  0  0  0
   39.7330   24.0330   43.3180 O   0  0  0  0  0  0  0  0  0  0  0  0
   40.2160   25.1870   43.2140 C   0  0  0  0  0  0  0  0  0  0  0  0
   39.6830   26.4680   43.6790 C   0  0  1  0  0  3  0  0  0  0  0  0
   40.8810   27.4190   43.6630 C   0  0  0  0  0  3  0  0  0  0  0  0
   40.5650   28.4370   43.3200 H   0  0  0  0  0  0  0  0  0  0  0  0
   41.8830   26.8000   42.7370 C   0  0  0  0  0  3  0  0  0  0  0  0
   41.8180   27.3480   41.7720 H   0  0  0  0  0  0  0  0  0  0  0  0
   41.4590   25.4050   42.5670 N   0  0  0  0  0  0  0  0  0  0  0  0
   42.1040   24.7710   42.0110 H   0  0  0  0  0  0  0  0  0  0  0  0
  1  2  1  0  0  0  0
  2 21  1  0  0  0  0
  2  3  2  0  0  0  0
  3 13  1  0  0  0  0
  4  3  1  0  0  0  0
  5  4  2  0  0  0  0
  6  1  2  0  0  0  0
  6  5  1  0  0  0  0
  7 11  1  0  0  0  0
  7  5  1  0  0  0  0
  8  7  1  0  0  0  0
  9  8  1  0  0  0  0
  9 10  1  0  0  0  0
 10 18  1  0  0  0  0
 10 11  1  0  0  0  0
 11 24  1  0  0  0  0
 11 20  1  1  0  0  0
 12  1  1  0  0  0  0
 14  8  1  0  0  0  0
 15  8  1  0  0  0  0
 16  9  1  0  0  0  0
 17  9  1  0  0  0  0
 19 10  1  0  0  0  0
 21 23  1  0  0  0  0
 22 21  1  0  0  0  0
 24 27  1  0  0  0  0
 25 26  2  0  0  0  0
 26 30  1  0  0  0  0
 27 26  1  0  0  0  0
 27 31  1  1  0  0  0
 27 28  1  0  0  0  0
 28 32  1  0  0  0  0
 28 29  1  0  0  0  0
 29 34  1  0  0  0  0
 29 35  1  0  0  0  0
 30 29  1  0  0  0  0
 33 28  1  0  0  0  0
 37 36  2  0  0  0  0
 37 38  1  0  0  0  0
 38 30  1  6  0  0  0
 39 38  1  0  0  0  0
 40 39  1  0  0  0  0
 41 39  1  0  0  0  0
 42 41  1  0  0  0  0
 43 41  1  0  0  0  0
 43 37  1  0  0  0  0
 44 43  1  0  0  0  0
M  END
>  <minimizedAffinity>
-5.76278639

$$$$

 OpenBabel03252506393D

 44 47  0  0  1  0  0  0  0  0999 V2000
   37.9810   25.6760   36.6920 C   0  0  0  0  0  0  0  0  0  0  0  0
   36.8900   26.5120   36.3730 C   0  0  0  0  0  0  0  0  0  0  0  0
   36.1500   27.0440   37.3770 C   0  0  0  0  0  0  0  0  0  0  0  0
   36.5160   26.7310   38.6430 N   0  0  0  0  0  0  0  0  0  0  0  0
   37.5410   25.9460   38.9370 C   0  0  0  0  0  0  0  0  0  0  0  0
   38.2860   25.4080   37.9730 N   0  0  0  0  0  0  0  0  0  0  0  0
   37.8340   25.6800   40.3200 N   0  0  0  0  0  0  0  0  0  0  0  0
   39.0220   25.0600   40.7840 C   0  0  0  0  0  0  0  0  0  0  0  0
   38.5370   24.2050   41.9420 C   0  0  0  0  0  0  0  0  0  0  0  0
   37.1010   24.5630   42.1530 C   0  0  0  0  0  0  0  0  0  0  0  0
   37.0030   25.9300   41.4750 C   0  0  1  0  0  0  0  0  0  0  0  0
   38.5680   25.2550   35.8990 H   0  0  0  0  0  0  0  0  0  0  0  0
   35.3210   27.6770   37.1580 H   0  0  0  0  0  0  0  0  0  0  0  0
   39.9160   25.5420   41.0130 H   0  0  0  0  0  0  0  0  0  0  0  0
   39.2890   24.2810   39.9990 H   0  0  0  0  0  0  0  0  0  0  0  0
   38.7680   23.1470   41.8600 H   0  0  0  0  0  0  0  0  0  0  0  0
   39.0810   24.5640   42.8650 H   0  0  0  0  0  0  0  0  0  0  0  0
   36.8570   24.7080   43.2120 H   0  0  0  0  0  0  0  0  0  0  0  0
   36.4560   23.8270   41.6280 H   0  0  0  0  0  0  0  0  0  0  0  0
   35.9550   26.1090   41.1940 H   0  0  0  0  0  0  0  0  0  0  0  0
   36.6310   26.7480   34.9800 N   0  0  0  0  0  0  0  0  0  0  0  0
   37.4290   26.8240   34.3160 H   0  0  0  0  0  0  0  0  0  0  0  0
   35.6420   26.8420   34.6390 H   0  0  0  0  0  0  0  0  0  0  0  0
   37.7060   27.1580   42.5520 S   0  0  0  0  0  0  0  0  0  0  0  0
   35.9070   29.4160   40.8770 O   0  0  0  0  0  0  0  0  0  0  0  0
   37.0930   29.5080   41.2290 C   0  0  0  0  0  0  0  0  0  0  0  0
   38.1710   28.6770   41.8260 C   0  0  1  0  0  0  0  0  0  0  0  0
   38.8340   29.6650   42.7510 C   0  0  0  0  0  0  0  0  0  0  0  0
   39.0690   30.7820   41.7270 C   0  0  0  0  0  0  0  0  0  0  0  0
   37.7700   30.7690   41.0660 N   0  0  0  0  0  0  0  0  0  0  0  0
   38.9030   28.6580   40.9760 H   0  0  0  0  0  0  0  0  0  0  0  0
   39.7820   29.2680   43.1510 H   0  0  0  0  0  0  0  0  0  0  0  0
   38.1470   30.0360   43.5320 H   0  0  0  0  0  0  0  0  0  0  0  0
   39.8990   30.5190   41.0520 H   0  0  0  0  0  0  0  0  0  0  0  0
   39.2250   31.7360   42.2700 H   0  0  0  0  0  0  0  0  0  0  0  0
   38.7590   33.8230   41.0880 O   0  0  0  0  0  0  0  0  0  0  0  0
   38.3580   32.9930   40.2360 C   0  0  0  0  0  0  0  0  0  0  0  0
   37.3220   31.9650   40.3490 C   0  0  1  0  0  3  0  0  0  0  0  0
   36.9860   31.5890   38.9050 C   0  0  0  0  0  3  0  0  0  0  0  0
   36.8030   30.4880   38.8230 H   0  0  0  0  0  0  0  0  0  0  0  0
   38.1610   32.0250   38.0830 C   0  0  0  0  0  3  0  0  0  0  0  0
   38.7610   31.1160   37.8620 H   0  0  0  0  0  0  0  0  0  0  0  0
   38.9200   32.9500   38.9340 N   0  0  0  0  0  0  0  0  0  0  0  0
   39.7480   33.4420   38.4890 H   0  0  0  0  0  0  0  0  0  0  0  0
  1  6  1  0  0  0  0
  2  1  2  0  0  0  0
  2  3  1  0  0  0  0
  3  4  2  0  0  0  0
  4  5  1  0  0  0  0
  5  7  1  0  0  0  0
  6  5  2  0  0  0  0
  7  8  1  0  0  0  0
  7 11  1  0  0  0  0
  8 14  1  0  0  0  0
  8  9  1  0  0  0  0
  9 10  1  0  0  0  0
  9 17  1  0  0  0  0
 10 18  1  0  0  0  0
 11 20  1  6  0  0  0
 11 10  1  0  0  0  0
 11 24  1  0  0  0  0
 12  1  1  0  0  0  0
 13  3  1  0  0  0  0
 15  8  1  0  0  0  0
 16  9  1  0  0  0  0
 19 10  1  0  0  0  0
 21  2  1  0  0  0  0
 22 21  1  0  0  0  0
 23 21  1  0  0  0  0
 25 26  2  0  0  0  0
 26 27  1  0  0  0  0
 27 31  1  6  0  0  0
 27 24  1  0  0  0  0
 27 28  1  0  0  0  0
 28 32  1  0  0  0  0
 28 33  1  0  0  0  0
 29 35  1  0  0  0  0
 29 28  1  0  0  0  0
 30 26  1  0  0  0  0
 30 29  1  0  0  0  0
 34 29  1  0  0  0  0
 37 38  1  0  0  0  0
 37 36  2  0  0  0  0
 38 30  1  1  0  0  0
 39 38  1  0  0  0  0
 40 39  1  0  0  0  0
 41 39  1  0  0  0  0
 41 43  1  0  0  0  0
 42 41  1  0  0  0  0
 43 37  1  0  0  0  0
 44 43  1  0  0  0  0
M  END
>  <minimizedAffinity>
-5.69316053

$$$$

 OpenBabel03252506393D

 44 47  0  0  1  0  0  0  0  0999 V2000
   34.8690   27.2220   37.6130 C   0  0  0  0  0  0  0  0  0  0  0  0
   34.3820   28.4750   38.0420 C   0  0  0  0  0  0  0  0  0  0  0  0
   34.8500   29.0040   39.2000 C   0  0  0  0  0  0  0  0  0  0  0  0
   35.7710   28.2800   39.8780 N   0  0  0  0  0  0  0  0  0  0  0  0
   36.2250   27.1040   39.4710 C   0  0  0  0  0  0  0  0  0  0  0  0
   35.7850   26.5580   38.3390 N   0  0  0  0  0  0  0  0  0  0  0  0
   37.2030   26.4220   40.2780 N   0  0  0  0  0  0  0  0  0  0  0  0
   37.9410   25.2870   39.8560 C   0  0  0  0  0  0  0  0  0  0  0  0
   38.0410   24.4510   41.1190 C   0  0  0  0  0  0  0  0  0  0  0  0
   37.4880   25.2930   42.2230 C   0  0  0  0  0  0  0  0  0  0  0  0
   37.5910   26.7030   41.6400 C   0  0  1  0  0  0  0  0  0  0  0  0
   34.5000   26.8020   36.6970 H   0  0  0  0  0  0  0  0  0  0  0  0
   34.4950   29.9480   39.5420 H   0  0  0  0  0  0  0  0  0  0  0  0
   38.8420   25.3010   39.3330 H   0  0  0  0  0  0  0  0  0  0  0  0
   37.2260   24.6780   39.2130 H   0  0  0  0  0  0  0  0  0  0  0  0
   37.6500   23.4420   41.0340 H   0  0  0  0  0  0  0  0  0  0  0  0
   39.1420   24.3310   41.3470 H   0  0  0  0  0  0  0  0  0  0  0  0
   38.1150   25.2680   43.1220 H   0  0  0  0  0  0  0  0  0  0  0  0
   36.4240   25.0250   42.3950 H   0  0  0  0  0  0  0  0  0  0  0  0
   36.8610   27.3490   42.1490 H   0  0  0  0  0  0  0  0  0  0  0  0
   33.4040   29.1180   37.2090 N   0  0  0  0  0  0  0  0  0  0  0  0
   33.4700   29.0230   36.1750 H   0  0  0  0  0  0  0  0  0  0  0  0
   32.6310   29.6790   37.6460 H   0  0  0  0  0  0  0  0  0  0  0  0
   39.2780   27.2520   41.7550 S   0  0  0  0  0  0  0  0  0  0  0  0
   38.8990   29.2160   39.0830 O   0  0  0  0  0  0  0  0  0  0  0  0
   39.2030   29.5610   40.2360 C   0  0  0  0  0  0  0  0  0  0  0  0
   39.5730   28.9600   41.5430 C   0  0  1  0  0  0  0  0  0  0  0  0
   38.8520   29.8700   42.5060 C   0  0  0  0  0  0  0  0  0  0  0  0
   39.3990   31.2020   41.9810 C   0  0  0  0  0  0  0  0  0  0  0  0
   39.2530   30.9660   40.5500 N   0  0  0  0  0  0  0  0  0  0  0  0
   40.6250   29.3350   41.6460 H   0  0  0  0  0  0  0  0  0  0  0  0
   39.1610   29.6790   43.5470 H   0  0  0  0  0  0  0  0  0  0  0  0
   37.7570   29.8520   42.3610 H   0  0  0  0  0  0  0  0  0  0  0  0
   40.4470   31.3390   42.2900 H   0  0  0  0  0  0  0  0  0  0  0  0
   38.7280   32.0200   42.3150 H   0  0  0  0  0  0  0  0  0  0  0  0
   36.9780   32.0130   38.5410 O   0  0  0  0  0  0  0  0  0  0  0  0
   37.8060   32.5210   39.3360 C   0  0  0  0  0  0  0  0  0  0  0  0
   39.1790   32.1130   39.6410 C   0  0  1  0  0  3  0  0  0  0  0  0
   39.8070   33.3320   40.3190 C   0  0  0  0  0  3  0  0  0  0  0  0
   40.4820   33.0090   41.1510 H   0  0  0  0  0  0  0  0  0  0  0  0
   38.6610   34.1610   40.8150 C   0  0  0  0  0  3  0  0  0  0  0  0
   38.5730   33.9760   41.9070 H   0  0  0  0  0  0  0  0  0  0  0  0
   37.4750   33.6620   40.1100 N   0  0  0  0  0  0  0  0  0  0  0  0
   36.5680   34.1920   40.2610 H   0  0  0  0  0  0  0  0  0  0  0  0
  1  2  2  0  0  0  0
  1  6  1  0  0  0  0
  2  3  1  0  0  0  0
  3 13  1  0  0  0  0
  3  4  2  0  0  0  0
  5  4  1  0  0  0  0
  5  7  1  0  0  0  0
  6  5  2  0  0  0  0
  7 11  1  0  0  0  0
  8  7  1  0  0  0  0
  8  9  1  0  0  0  0
  9 17  1  0  0  0  0
  9 10  1  0  0  0  0
 10 19  1  0  0  0  0
 10 18  1  0  0  0  0
 11 24  1  0  0  0  0
 11 20  1  1  0  0  0
 11 10  1  0  0  0  0
 12  1  1  0  0  0  0
 14  8  1  0  0  0  0
 15  8  1  0  0  0  0
 16  9  1  0  0  0  0
 21 23  1  0  0  0  0
 21  2  1  0  0  0  0
 22 21  1  0  0  0  0
 25 26  2  0  0  0  0
 26 30  1  0  0  0  0
 26 27  1  0  0  0  0
 27 31  1  1  0  0  0
 27 24  1  0  0  0  0
 27 28  1  0  0  0  0
 28 32  1  0  0  0  0
 29 34  1  0  0  0  0
 29 35  1  0  0  0  0
 29 28  1  0  0  0  0
 30 29  1  0  0  0  0
 33 28  1  0  0  0  0
 36 37  2  0  0  0  0
 37 38  1  0  0  0  0
 37 43  1  0  0  0  0
 38 39  1  0  0  0  0
 38 30  1  1  0  0  0
 39 41  1  0  0  0  0
 39 40  1  0  0  0  0
 41 42  1  0  0  0  0
 43 44  1  0  0  0  0
 43 41  1  0  0  0  0
M  END
>  <minimizedAffinity>
-5.63426876

$$$$

 OpenBabel03252506393D

 44 47  0  0  1  0  0  0  0  0999 V2000
   38.3140   26.1380   36.7440 C   0  0  0  0  0  0  0  0  0  0  0  0
   37.1410   26.8350   36.3830 C   0  0  0  0  0  0  0  0  0  0  0  0
   36.2620   27.1930   37.3510 C   0  0  0  0  0  0  0  0  0  0  0  0
   36.5740   26.8510   38.6240 N   0  0  0  0  0  0  0  0  0  0  0  0
   37.6760   26.1960   38.9570 C   0  0  0  0  0  0  0  0  0  0  0  0
   38.5590   25.8300   38.0300 N   0  0  0  0  0  0  0  0  0  0  0  0
   37.9020   25.8830   40.3430 N   0  0  0  0  0  0  0  0  0  0  0  0
   39.1290   25.4020   40.8680 C   0  0  0  0  0  0  0  0  0  0  0  0
   38.6860   24.4150   41.9340 C   0  0  0  0  0  0  0  0  0  0  0  0
   37.2030   24.5580   42.0460 C   0  0  0  0  0  0  0  0  0  0  0  0
   36.9620   25.9410   41.4380 C   0  0  1  0  0  0  0  0  0  0  0  0
   39.0110   25.8530   35.9800 H   0  0  0  0  0  0  0  0  0  0  0  0
   35.3700   27.7200   37.1000 H   0  0  0  0  0  0  0  0  0  0  0  0
   39.9270   25.9860   41.1950 H   0  0  0  0  0  0  0  0  0  0  0  0
   39.5610   24.7200   40.0650 H   0  0  0  0  0  0  0  0  0  0  0  0
   39.0700   23.4070   41.8130 H   0  0  0  0  0  0  0  0  0  0  0  0
   39.1050   24.7840   42.9170 H   0  0  0  0  0  0  0  0  0  0  0  0
   36.8640   24.5990   43.0880 H   0  0  0  0  0  0  0  0  0  0  0  0
   36.7090   23.7770   41.4310 H   0  0  0  0  0  0  0  0  0  0  0  0
   35.9230   25.9930   41.0830 H   0  0  0  0  0  0  0  0  0  0  0  0
   36.9540   27.1240   34.9890 N   0  0  0  0  0  0  0  0  0  0  0  0
   37.7790   27.3520   34.3970 H   0  0  0  0  0  0  0  0  0  0  0  0
   35.9890   27.1040   34.5740 H   0  0  0  0  0  0  0  0  0  0  0  0
   37.4030   27.1800   42.6340 S   0  0  0  0  0  0  0  0  0  0  0  0
   39.6590   28.9530   40.9270 O   0  0  0  0  0  0  0  0  0  0  0  0
   38.5170   29.3060   41.2610 C   0  0  0  0  0  0  0  0  0  0  0  0
   37.3810   28.8420   42.0990 C   0  0  1  0  0  0  0  0  0  0  0  0
   36.2000   29.2370   41.2480 C   0  0  0  0  0  0  0  0  0  0  0  0
   36.5770   30.7080   41.0410 C   0  0  0  0  0  0  0  0  0  0  0  0
   37.9950   30.5460   40.7450 N   0  0  0  0  0  0  0  0  0  0  0  0
   37.3610   29.6500   42.8760 H   0  0  0  0  0  0  0  0  0  0  0  0
   35.2520   29.1280   41.8010 H   0  0  0  0  0  0  0  0  0  0  0  0
   36.1990   28.7270   40.2680 H   0  0  0  0  0  0  0  0  0  0  0  0
   36.3920   31.2880   41.9580 H   0  0  0  0  0  0  0  0  0  0  0  0
   36.0320   31.0940   40.1550 H   0  0  0  0  0  0  0  0  0  0  0  0
   38.8620   30.8330   37.6670 O   0  0  0  0  0  0  0  0  0  0  0  0
   38.4060   31.5800   38.5660 C   0  0  0  0  0  0  0  0  0  0  0  0
   38.6940   31.5970   40.0010 C   0  0  1  0  0  3  0  0  0  0  0  0
   38.2020   32.9640   40.4820 C   0  0  0  0  0  3  0  0  0  0  0  0
   37.7300   32.8730   41.4930 H   0  0  0  0  0  0  0  0  0  0  0  0
   37.2270   33.4360   39.4470 C   0  0  0  0  0  3  0  0  0  0  0  0
   36.2080   33.2620   39.8540 H   0  0  0  0  0  0  0  0  0  0  0  0
   37.4610   32.5950   38.2670 N   0  0  0  0  0  0  0  0  0  0  0  0
   36.9230   32.8420   37.3860 H   0  0  0  0  0  0  0  0  0  0  0  0
  1  6  1  0  0  0  0
  2  1  2  0  0  0  0
  2  3  1  0  0  0  0
  3  4  2  0  0  0  0
  4  5  1  0  0  0  0
  5  7  1  0  0  0  0
  6  5  2  0  0  0  0
  7  8  1  0  0  0  0
  7 11  1  0  0  0  0
  8 14  1  0  0  0  0
  8  9  1  0  0  0  0
  9 10  1  0  0  0  0
  9 17  1  0  0  0  0
 10 18  1  0  0  0  0
 11 20  1  6  0  0  0
 11 10  1  0  0  0  0
 11 24  1  0  0  0  0
 12  1  1  0  0  0  0
 13  3  1  0  0  0  0
 15  8  1  0  0  0  0
 16  9  1  0  0  0  0
 19 10  1  0  0  0  0
 21  2  1  0  0  0  0
 22 21  1  0  0  0  0
 23 21  1  0  0  0  0
 25 26  2  0  0  0  0
 26 27  1  0  0  0  0
 27 24  1  0  0  0  0
 27 31  1  1  0  0  0
 28 32  1  0  0  0  0
 28 27  1  0  0  0  0
 29 28  1  0  0  0  0
 29 34  1  0  0  0  0
 30 29  1  0  0  0  0
 30 26  1  0  0  0  0
 33 28  1  0  0  0  0
 35 29  1  0  0  0  0
 36 37  2  0  0  0  0
 37 38  1  0  0  0  0
 38 39  1  0  0  0  0
 38 30  1  1  0  0  0
 39 40  1  0  0  0  0
 41 42  1  0  0  0  0
 41 39  1  0  0  0  0
 43 37  1  0  0  0  0
 43 41  1  0  0  0  0
 44 43  1  0  0  0  0
M  END
>  <minimizedAffinity>
-5.47145081

$$$$

 OpenBabel03252506393D

 44 47  0  0  1  0  0  0  0  0999 V2000
   38.1330   27.2230   37.1270 C   0  0  0  0  0  0  0  0  0  0  0  0
   37.7260   28.4510   36.5640 C   0  0  0  0  0  0  0  0  0  0  0  0
   37.3850   29.4740   37.3870 C   0  0  0  0  0  0  0  0  0  0  0  0
   37.4600   29.2430   38.7190 N   0  0  0  0  0  0  0  0  0  0  0  0
   37.8420   28.0880   39.2430 C   0  0  0  0  0  0  0  0  0  0  0  0
   38.1830   27.0650   38.4610 N   0  0  0  0  0  0  0  0  0  0  0  0
   37.8800   27.9560   40.6750 N   0  0  0  0  0  0  0  0  0  0  0  0
   38.4850   26.8750   41.3660 C   0  0  0  0  0  0  0  0  0  0  0  0
   37.5560   26.6580   42.5490 C   0  0  0  0  0  0  0  0  0  0  0  0
   36.5740   27.7850   42.5210 C   0  0  0  0  0  0  0  0  0  0  0  0
   37.2990   28.8280   41.6690 C   0  0  1  0  0  0  0  0  0  0  0  0
   38.4040   26.4120   36.4790 H   0  0  0  0  0  0  0  0  0  0  0  0
   37.0750   30.4090   36.9820 H   0  0  0  0  0  0  0  0  0  0  0  0
   39.4850   26.8100   41.6480 H   0  0  0  0  0  0  0  0  0  0  0  0
   38.2880   25.9540   40.7270 H   0  0  0  0  0  0  0  0  0  0  0  0
   37.1460   25.6570   42.6320 H   0  0  0  0  0  0  0  0  0  0  0  0
   38.1730   26.8120   43.4820 H   0  0  0  0  0  0  0  0  0  0  0  0
   36.4180   28.2280   43.5120 H   0  0  0  0  0  0  0  0  0  0  0  0
   35.6450   27.4530   42.0130 H   0  0  0  0  0  0  0  0  0  0  0  0
   36.5520   29.5060   41.2320 H   0  0  0  0  0  0  0  0  0  0  0  0
   37.6990   28.5370   35.1300 N   0  0  0  0  0  0  0  0  0  0  0  0
   38.4220   28.0360   34.5740 H   0  0  0  0  0  0  0  0  0  0  0  0
   36.9540   29.1030   34.6530 H   0  0  0  0  0  0  0  0  0  0  0  0
   38.5360   29.6260   42.6650 S   0  0  0  0  0  0  0  0  0  0  0  0
   41.0130   29.3380   40.4460 O   0  0  0  0  0  0  0  0  0  0  0  0
   40.4860   30.3840   40.8570 C   0  0  0  0  0  0  0  0  0  0  0  0
   39.5180   30.8420   41.8870 C   0  0  1  0  0  0  0  0  0  0  0  0
   38.7610   31.9070   41.1340 C   0  0  0  0  0  0  0  0  0  0  0  0
   39.9680   32.7220   40.6580 C   0  0  0  0  0  0  0  0  0  0  0  0
   40.8300   31.6300   40.2210 N   0  0  0  0  0  0  0  0  0  0  0  0
   40.1900   31.4730   42.5260 H   0  0  0  0  0  0  0  0  0  0  0  0
   38.1100   32.4890   41.8070 H   0  0  0  0  0  0  0  0  0  0  0  0
   38.2330   31.5030   40.2510 H   0  0  0  0  0  0  0  0  0  0  0  0
   40.3960   33.3020   41.4900 H   0  0  0  0  0  0  0  0  0  0  0  0
   39.6590   33.3470   39.7950 H   0  0  0  0  0  0  0  0  0  0  0  0
   41.2800   30.7110   37.1790 O   0  0  0  0  0  0  0  0  0  0  0  0
   41.4480   31.7530   37.8580 C   0  0  0  0  0  0  0  0  0  0  0  0
   41.8890   31.9020   39.2460 C   0  0  1  0  0  3  0  0  0  0  0  0
   42.3170   33.3660   39.3650 C   0  0  0  0  0  3  0  0  0  0  0  0
   42.0180   33.7780   40.3610 H   0  0  0  0  0  0  0  0  0  0  0  0
   41.6440   34.0830   38.2350 C   0  0  0  0  0  3  0  0  0  0  0  0
   40.7690   34.6180   38.6620 H   0  0  0  0  0  0  0  0  0  0  0  0
   41.2040   33.0360   37.3050 N   0  0  0  0  0  0  0  0  0  0  0  0
   40.7820   33.3560   36.3850 H   0  0  0  0  0  0  0  0  0  0  0  0
  1  6  1  0  0  0  0
  2  1  2  0  0  0  0
  2  3  1  0  0  0  0
  3  4  2  0  0  0  0
  4  5  1  0  0  0  0
  5  7  1  0  0  0  0
  6  5  2  0  0  0  0
  7  8  1  0  0  0  0
  7 11  1  0  0  0  0
  8 14  1  0  0  0  0
  8  9  1  0  0  0  0
  9 16  1  0  0  0  0
  9 17  1  0  0  0  0
 10  9  1  0  0  0  0
 10 18  1  0  0  0  0
 11 20  1  6  0  0  0
 11 10  1  0  0  0  0
 11 24  1  0  0  0  0
 12  1  1  0  0  0  0
 13  3  1  0  0  0  0
 15  8  1  0  0  0  0
 19 10  1  0  0  0  0
 21  2  1  0  0  0  0
 22 21  1  0  0  0  0
 23 21  1  0  0  0  0
 25 26  2  0  0  0  0
 26 27  1  0  0  0  0
 27 31  1  1  0  0  0
 27 24  1  0  0  0  0
 28 32  1  0  0  0  0
 28 27  1  0  0  0  0
 29 28  1  0  0  0  0
 29 34  1  0  0  0  0
 30 29  1  0  0  0  0
 30 26  1  0  0  0  0
 33 28  1  0  0  0  0
 35 29  1  0  0  0  0
 36 37  2  0  0  0  0
 37 38  1  0  0  0  0
 38 39  1  0  0  0  0
 38 30  1  1  0  0  0
 39 40  1  0  0  0  0
 41 42  1  0  0  0  0
 41 39  1  0  0  0  0
 43 37  1  0  0  0  0
 43 41  1  0  0  0  0
 44 43  1  0  0  0  0
M  END
>  <minimizedAffinity>
-5.45922279

$$$$

 OpenBabel03252506393D

 44 47  0  0  1  0  0  0  0  0999 V2000
   43.8770   25.8580   43.6800 C   0  0  0  0  0  0  0  0  0  0  0  0
   44.5230   27.0220   43.2100 C   0  0  0  0  0  0  0  0  0  0  0  0
   43.7830   27.9990   42.6300 C   0  0  0  0  0  0  0  0  0  0  0  0
   42.4480   27.7890   42.5400 N   0  0  0  0  0  0  0  0  0  0  0  0
   41.8470   26.6940   42.9820 C   0  0  0  0  0  0  0  0  0  0  0  0
   42.5460   25.7170   43.5560 N   0  0  0  0  0  0  0  0  0  0  0  0
   40.4210   26.5790   42.8280 N   0  0  0  0  0  0  0  0  0  0  0  0
   39.6240   25.5870   43.4550 C   0  0  0  0  0  0  0  0  0  0  0  0
   38.5810   25.2630   42.4000 C   0  0  0  0  0  0  0  0  0  0  0  0
   38.7760   26.2570   41.3010 C   0  0  0  0  0  0  0  0  0  0  0  0
   39.5410   27.3770   42.0060 C   0  0  1  0  0  0  0  0  0  0  0  0
   44.4600   25.0840   44.1390 H   0  0  0  0  0  0  0  0  0  0  0  0
   44.2510   28.8850   42.2680 H   0  0  0  0  0  0  0  0  0  0  0  0
   39.2010   25.6500   44.4040 H   0  0  0  0  0  0  0  0  0  0  0  0
   40.2610   24.6440   43.4690 H   0  0  0  0  0  0  0  0  0  0  0  0
   38.5320   24.2190   42.1080 H   0  0  0  0  0  0  0  0  0  0  0  0
   37.5730   25.5000   42.8520 H   0  0  0  0  0  0  0  0  0  0  0  0
   37.8290   26.6840   40.9490 H   0  0  0  0  0  0  0  0  0  0  0  0
   39.4030   25.8070   40.5030 H   0  0  0  0  0  0  0  0  0  0  0  0
   40.0980   27.9530   41.2520 H   0  0  0  0  0  0  0  0  0  0  0  0
   45.9470   27.0940   43.3800 N   0  0  0  0  0  0  0  0  0  0  0  0
   46.3830   26.6850   44.2320 H   0  0  0  0  0  0  0  0  0  0  0  0
   46.5400   27.5590   42.6470 H   0  0  0  0  0  0  0  0  0  0  0  0
   38.3990   28.3310   42.9790 S   0  0  0  0  0  0  0  0  0  0  0  0
   39.4570   30.7280   40.9100 O   0  0  0  0  0  0  0  0  0  0  0  0
   38.2840   30.4560   41.2130 C   0  0  0  0  0  0  0  0  0  0  0  0
   37.5230   29.5980   42.1570 C   0  0  1  0  0  0  0  0  0  0  0  0
   36.3780   29.1400   41.2880 C   0  0  0  0  0  0  0  0  0  0  0  0
   35.9160   30.5200   40.8090 C   0  0  0  0  0  0  0  0  0  0  0  0
   37.2150   31.1070   40.5010 N   0  0  0  0  0  0  0  0  0  0  0  0
   37.0160   30.3830   42.7770 H   0  0  0  0  0  0  0  0  0  0  0  0
   35.6020   28.6290   41.8820 H   0  0  0  0  0  0  0  0  0  0  0  0
   36.7200   28.5550   40.4150 H   0  0  0  0  0  0  0  0  0  0  0  0
   35.3840   31.0510   41.6140 H   0  0  0  0  0  0  0  0  0  0  0  0
   35.3130   30.3950   39.8870 H   0  0  0  0  0  0  0  0  0  0  0  0
   38.6560   33.9730   40.6280 O   0  0  0  0  0  0  0  0  0  0  0  0
   38.4580   33.0820   39.7660 C   0  0  0  0  0  0  0  0  0  0  0  0
   37.2870   32.2270   39.5590 C   0  0  1  0  0  3  0  0  0  0  0  0
   37.4490   31.6800   38.1400 C   0  0  0  0  0  3  0  0  0  0  0  0
   37.1150   30.6130   38.0940 H   0  0  0  0  0  0  0  0  0  0  0  0
   38.9030   31.8280   37.8060 C   0  0  0  0  0  3  0  0  0  0  0  0
   39.3680   30.8260   37.9220 H   0  0  0  0  0  0  0  0  0  0  0  0
   39.4440   32.7660   38.7970 N   0  0  0  0  0  0  0  0  0  0  0  0
   40.4520   33.0720   38.6680 H   0  0  0  0  0  0  0  0  0  0  0  0
  1 12  1  0  0  0  0
  2 21  1  0  0  0  0
  2  1  2  0  0  0  0
  3  2  1  0  0  0  0
  4  3  2  0  0  0  0
  4  5  1  0  0  0  0
  5  6  2  0  0  0  0
  6  1  1  0  0  0  0
  7  5  1  0  0  0  0
  7  8  1  0  0  0  0
  8 15  1  0  0  0  0
  8 14  1  0  0  0  0
  9 17  1  0  0  0  0
  9  8  1  0  0  0  0
 10 11  1  0  0  0  0
 10  9  1  0  0  0  0
 11 20  1  6  0  0  0
 11  7  1  0  0  0  0
 11 24  1  0  0  0  0
 13  3  1  0  0  0  0
 16  9  1  0  0  0  0
 18 10  1  0  0  0  0
 19 10  1  0  0  0  0
 21 22  1  0  0  0  0
 23 21  1  0  0  0  0
 25 26  2  0  0  0  0
 26 27  1  0  0  0  0
 27 31  1  1  0  0  0
 27 24  1  0  0  0  0
 28 32  1  0  0  0  0
 28 27  1  0  0  0  0
 29 28  1  0  0  0  0
 29 34  1  0  0  0  0
 30 29  1  0  0  0  0
 30 26  1  0  0  0  0
 33 28  1  0  0  0  0
 35 29  1  0  0  0  0
 37 36  2  0  0  0  0
 38 37  1  0  0  0  0
 38 30  1  1  0  0  0
 39 38  1  0  0  0  0
 40 39  1  0  0  0  0
 41 42  1  0  0  0  0
 41 39  1  0  0  0  0
 41 43  1  0  0  0  0
 43 37  1  0  0  0  0
 44 43  1  0  0  0  0
M  END
>  <minimizedAffinity>
-5.44865751

$$$$

 OpenBabel03252506393D

 44 47  0  0  1  0  0  0  0  0999 V2000
   37.5820   25.2140   42.4880 C   0  0  0  0  0  0  0  0  0  0  0  0
   38.9890   25.1220   42.4220 C   0  0  0  0  0  0  0  0  0  0  0  0
   39.6890   26.1220   41.8320 C   0  0  0  0  0  0  0  0  0  0  0  0
   38.9770   27.1620   41.3360 N   0  0  0  0  0  0  0  0  0  0  0  0
   37.6560   27.2430   41.4010 C   0  0  0  0  0  0  0  0  0  0  0  0
   36.9410   26.2780   41.9740 N   0  0  0  0  0  0  0  0  0  0  0  0
   37.0060   28.3960   40.8360 N   0  0  0  0  0  0  0  0  0  0  0  0
   35.6420   28.7270   41.0370 C   0  0  0  0  0  0  0  0  0  0  0  0
   35.2210   29.2940   39.6920 C   0  0  0  0  0  0  0  0  0  0  0  0
   36.4690   29.4040   38.8770 C   0  0  0  0  0  0  0  0  0  0  0  0
   37.5610   29.3910   39.9470 C   0  0  1  0  0  0  0  0  0  0  0  0
   37.0260   24.4240   42.9550 H   0  0  0  0  0  0  0  0  0  0  0  0
   40.7510   26.0720   41.7710 H   0  0  0  0  0  0  0  0  0  0  0  0
   35.2560   29.2860   41.8260 H   0  0  0  0  0  0  0  0  0  0  0  0
   35.0860   27.7340   41.0690 H   0  0  0  0  0  0  0  0  0  0  0  0
   34.3780   28.7950   39.2270 H   0  0  0  0  0  0  0  0  0  0  0  0
   34.8820   30.3560   39.8770 H   0  0  0  0  0  0  0  0  0  0  0  0
   36.5420   30.3630   38.3510 H   0  0  0  0  0  0  0  0  0  0  0  0
   36.5620   28.5110   38.2220 H   0  0  0  0  0  0  0  0  0  0  0  0
   38.5000   29.0500   39.4880 H   0  0  0  0  0  0  0  0  0  0  0  0
   39.5960   23.9530   42.9950 N   0  0  0  0  0  0  0  0  0  0  0  0
   39.1860   23.5300   43.8530 H   0  0  0  0  0  0  0  0  0  0  0  0
   40.4480   23.5320   42.5470 H   0  0  0  0  0  0  0  0  0  0  0  0
   37.6410   30.9960   40.7070 S   0  0  0  0  0  0  0  0  0  0  0  0
   40.7070   30.0520   39.7810 O   0  0  0  0  0  0  0  0  0  0  0  0
   40.2840   31.2110   39.9210 C   0  0  0  0  0  0  0  0  0  0  0  0
   39.0890   31.9330   40.4290 C   0  0  1  0  0  0  0  0  0  0  0  0
   38.9610   33.0470   39.4220 C   0  0  0  0  0  0  0  0  0  0  0  0
   40.3950   33.5770   39.5150 C   0  0  0  0  0  0  0  0  0  0  0  0
   41.1150   32.3090   39.4970 N   0  0  0  0  0  0  0  0  0  0  0  0
   39.5400   32.4830   41.2960 H   0  0  0  0  0  0  0  0  0  0  0  0
   38.2220   33.7980   39.7450 H   0  0  0  0  0  0  0  0  0  0  0  0
   38.7850   32.6700   38.3980 H   0  0  0  0  0  0  0  0  0  0  0  0
   40.5400   34.1400   40.4500 H   0  0  0  0  0  0  0  0  0  0  0  0
   40.6180   34.1680   38.6030 H   0  0  0  0  0  0  0  0  0  0  0  0
   42.6950   30.6490   37.2490 O   0  0  0  0  0  0  0  0  0  0  0  0
   42.7030   31.8190   37.7020 C   0  0  0  0  0  0  0  0  0  0  0  0
   42.5180   32.2890   39.0760 C   0  0  1  0  0  3  0  0  0  0  0  0
   43.0620   33.7190   39.0760 C   0  0  0  0  0  3  0  0  0  0  0  0
   42.4250   34.3770   39.7210 H   0  0  0  0  0  0  0  0  0  0  0  0
   43.0560   34.1610   37.6450 C   0  0  0  0  0  3  0  0  0  0  0  0
   42.1700   34.8190   37.5100 H   0  0  0  0  0  0  0  0  0  0  0  0
   42.9130   32.9350   36.8510 N   0  0  0  0  0  0  0  0  0  0  0  0
   42.9810   33.0330   35.7970 H   0  0  0  0  0  0  0  0  0  0  0  0
  1 12  1  0  0  0  0
  2  1  1  0  0  0  0
  2 21  1  0  0  0  0
  3  2  2  0  0  0  0
  4  5  2  0  0  0  0
  4  3  1  0  0  0  0
  5  6  1  0  0  0  0
  6  1  2  0  0  0  0
  7  8  1  0  0  0  0
  7  5  1  0  0  0  0
  8 15  1  0  0  0  0
  8 14  1  0  0  0  0
  9 17  1  0  0  0  0
  9  8  1  0  0  0  0
 10  9  1  0  0  0  0
 10 11  1  0  0  0  0
 11 20  1  6  0  0  0
 11 24  1  0  0  0  0
 11  7  1  0  0  0  0
 13  3  1  0  0  0  0
 16  9  1  0  0  0  0
 18 10  1  0  0  0  0
 19 10  1  0  0  0  0
 21 22  1  0  0  0  0
 23 21  1  0  0  0  0
 25 26  2  0  0  0  0
 26 27  1  0  0  0  0
 27 24  1  0  0  0  0
 27 31  1  1  0  0  0
 28 29  1  0  0  0  0
 28 32  1  0  0  0  0
 28 27  1  0  0  0  0
 29 34  1  0  0  0  0
 30 29  1  0  0  0  0
 30 26  1  0  0  0  0
 33 28  1  0  0  0  0
 35 29  1  0  0  0  0
 36 37  2  0  0  0  0
 37 38  1  0  0  0  0
 38 30  1  6  0  0  0
 39 38  1  0  0  0  0
 39 40  1  0  0  0  0
 41 39  1  0  0  0  0
 42 41  1  0  0  0  0
 43 41  1  0  0  0  0
 43 37  1  0  0  0  0
 44 43  1  0  0  0  0
M  END
>  <minimizedAffinity>
-5.43784046

$$$$
