
 OpenBabel03252509073D

 41 44  0  0  1  0  0  0  0  0999 V2000
   47.5900   31.7200   39.1850 C   0  0  0  0  0  0  0  0  0  0  0  0
   47.1330   32.9970   39.0560 C   0  0  0  0  0  0  0  0  0  0  0  0
   47.7700   33.8440   38.1690 C   0  0  0  0  0  0  0  0  0  0  0  0
   48.8440   33.4030   37.4320 C   0  0  0  0  0  0  0  0  0  0  0  0
   49.3240   32.1020   37.5480 C   0  0  0  0  0  0  0  0  0  0  0  0
   48.6770   31.2580   38.4430 C   0  0  0  0  0  0  0  0  0  0  0  0
   47.4380   34.8720   38.0370 H   0  0  0  0  0  0  0  0  0  0  0  0
   49.3220   34.0880   36.7480 H   0  0  0  0  0  0  0  0  0  0  0  0
   50.1640   31.7240   36.9820 H   0  0  0  0  0  0  0  0  0  0  0  0
   49.0410   30.2490   38.5390 H   0  0  0  0  0  0  0  0  0  0  0  0
   45.3330   35.5770   43.1300 Cl  0  0  0  0  0  0  0  0  0  0  0  0
   45.1690   34.7150   41.6290 C   0  0  0  0  0  0  0  0  0  0  0  0
   46.2480   34.2320   40.9810 C   0  0  0  0  0  0  0  0  0  0  0  0
   46.0060   33.5550   39.7900 C   0  0  0  0  0  0  0  0  0  0  0  0
   44.7420   33.3810   39.2880 C   0  0  0  0  0  0  0  0  0  0  0  0
   43.6700   33.8770   39.9600 C   0  0  0  0  0  0  0  0  0  0  0  0
   43.8940   34.5480   41.1410 C   0  0  0  0  0  0  0  0  0  0  0  0
   44.5700   32.8500   38.3540 H   0  0  0  0  0  0  0  0  0  0  0  0
   42.6420   33.7700   39.6120 H   0  0  0  0  0  0  0  0  0  0  0  0
   43.0260   34.9460   41.6810 H   0  0  0  0  0  0  0  0  0  0  0  0
   49.5740   35.7580   41.9010 C   0  0  0  0  0  0  0  0  0  0  0  0
   48.3040   35.5790   41.3470 C   0  0  0  0  0  0  0  0  0  0  0  0
   47.5610   34.4280   41.5430 C   0  0  0  0  0  0  0  0  0  0  0  0
   48.1580   33.4830   42.3160 N   0  0  0  0  0  0  0  0  0  0  0  0
   49.3810   33.6550   42.8490 C   0  0  0  0  0  0  0  0  0  0  0  0
   50.0770   34.7770   42.6430 N   0  0  0  0  0  0  0  0  0  0  0  0
   50.0790   36.6870   41.6950 H   0  0  0  0  0  0  0  0  0  0  0  0
   47.8510   36.3520   40.7320 H   0  0  0  0  0  0  0  0  0  0  0  0
   49.8650   32.9040   43.4680 H   0  0  0  0  0  0  0  0  0  0  0  0
   46.8400   30.6200   40.2300 S   0  0  0  0  0  0  0  0  0  0  0  0
   45.5170   30.1200   39.6940 O   0  0  0  0  0  0  0  0  0  0  0  0
   47.7600   29.3630   40.1530 O   0  0  0  0  0  0  0  0  0  0  0  0
   44.0210   31.1540   41.9810 O   0  0  0  0  0  0  0  0  0  0  0  0
   45.1730   30.8550   42.3870 C   0  0  0  0  0  0  0  0  0  0  0  0
   46.5980   30.7370   41.8820 C   0  0  1  0  0  3  0  0  0  0  0  0
   46.6480   29.2480   42.3940 C   0  0  0  0  0  3  0  0  0  0  0  0
   47.6440   28.8380   42.1790 H   0  0  0  0  0  0  0  0  0  0  0  0
   46.3900   29.4770   43.8560 C   0  0  0  0  0  3  0  0  0  0  0  0
   46.0350   28.5610   44.3620 H   0  0  0  0  0  0  0  0  0  0  0  0
   45.3190   30.4840   43.7770 N   0  0  0  0  0  0  0  0  0  0  0  0
   44.8390   30.7750   44.6740 H   0  0  0  0  0  0  0  0  0  0  0  0
  1 30  1  0  0  0  0
  2  1  1  0  0  0  0
  2 14  1  0  0  0  0
  3  2  2  0  0  0  0
  4  5  2  0  0  0  0
  4  3  1  0  0  0  0
  5  6  1  0  0  0  0
  6 10  1  0  0  0  0
  6  1  2  0  0  0  0
  7  3  1  0  0  0  0
  8  4  1  0  0  0  0
  9  5  1  0  0  0  0
 12 11  1  0  0  0  0
 13 23  1  0  0  0  0
 13 12  2  0  0  0  0
 14 13  1  0  0  0  0
 15 14  2  0  0  0  0
 15 16  1  0  0  0  0
 16 17  2  0  0  0  0
 17 12  1  0  0  0  0
 17 20  1  0  0  0  0
 18 15  1  0  0  0  0
 19 16  1  0  0  0  0
 21 26  1  0  0  0  0
 22 23  1  0  0  0  0
 22 21  2  0  0  0  0
 23 24  2  0  0  0  0
 24 25  1  0  0  0  0
 25 29  1  0  0  0  0
 26 25  2  0  0  0  0
 27 21  1  0  0  0  0
 28 22  1  0  0  0  0
 31 30  2  0  0  0  0
 32 30  2  0  0  0  0
 33 34  2  0  0  0  0
 34 40  1  0  0  0  0
 35 30  1  6  0  0  0
 35 34  1  0  0  0  0
 35 36  1  0  0  0  0
 36 38  1  0  0  0  0
 37 36  1  0  0  0  0
 38 39  1  0  0  0  0
 40 38  1  0  0  0  0
 40 41  1  0  0  0  0
M  END
>  <minimizedAffinity>
-4.64417696

>  <minimizedRMSD>
0.900462747

$$$$
