
 OpenBabel03252509073D

 41 44  0  0  1  0  0  0  0  0999 V2000
   47.0500   31.6370   39.5860 C   0  0  0  0  0  0  0  0  0  0  0  0
   46.7010   32.9310   39.3410 C   0  0  0  0  0  0  0  0  0  0  0  0
   47.3680   33.6230   38.3480 C   0  0  0  0  0  0  0  0  0  0  0  0
   48.3640   33.0140   37.6220 C   0  0  0  0  0  0  0  0  0  0  0  0
   48.7350   31.6930   37.8560 C   0  0  0  0  0  0  0  0  0  0  0  0
   48.0580   31.0060   38.8570 C   0  0  0  0  0  0  0  0  0  0  0  0
   47.1210   34.6580   38.1220 H   0  0  0  0  0  0  0  0  0  0  0  0
   48.8690   33.5810   36.8530 H   0  0  0  0  0  0  0  0  0  0  0  0
   49.5130   31.1860   37.3020 H   0  0  0  0  0  0  0  0  0  0  0  0
   48.3380   29.9830   39.0440 H   0  0  0  0  0  0  0  0  0  0  0  0
   45.3110   36.0200   43.2160 Cl  0  0  0  0  0  0  0  0  0  0  0  0
   45.0080   35.0520   41.8040 C   0  0  0  0  0  0  0  0  0  0  0  0
   46.0110   34.4100   41.1720 C   0  0  0  0  0  0  0  0  0  0  0  0
   45.6610   33.6600   40.0530 C   0  0  0  0  0  0  0  0  0  0  0  0
   44.3690   33.5720   39.6040 C   0  0  0  0  0  0  0  0  0  0  0  0
   43.3750   34.2280   40.2590 C   0  0  0  0  0  0  0  0  0  0  0  0
   43.7060   34.9720   41.3680 C   0  0  0  0  0  0  0  0  0  0  0  0
   44.1120   32.9820   38.7260 H   0  0  0  0  0  0  0  0  0  0  0  0
   42.3300   34.1950   39.9510 H   0  0  0  0  0  0  0  0  0  0  0  0
   42.9020   35.5000   41.8950 H   0  0  0  0  0  0  0  0  0  0  0  0
   49.5090   35.6570   41.8410 C   0  0  0  0  0  0  0  0  0  0  0  0
   48.2080   35.5590   41.3410 C   0  0  0  0  0  0  0  0  0  0  0  0
   47.3570   34.5200   41.6770 C   0  0  0  0  0  0  0  0  0  0  0  0
   47.8790   33.6020   42.5320 N   0  0  0  0  0  0  0  0  0  0  0  0
   49.1320   33.6970   43.0130 C   0  0  0  0  0  0  0  0  0  0  0  0
   49.9330   34.7100   42.6720 N   0  0  0  0  0  0  0  0  0  0  0  0
   50.1000   36.5000   41.5250 H   0  0  0  0  0  0  0  0  0  0  0  0
   47.8170   36.3080   40.6580 H   0  0  0  0  0  0  0  0  0  0  0  0
   49.5570   32.9660   43.6980 H   0  0  0  0  0  0  0  0  0  0  0  0
   46.2570   30.7210   40.7660 S   0  0  0  0  0  0  0  0  0  0  0  0
   44.8640   30.3100   40.3420 O   0  0  0  0  0  0  0  0  0  0  0  0
   47.0460   29.3760   40.7720 O   0  0  0  0  0  0  0  0  0  0  0  0
   43.6020   31.7030   42.5800 O   0  0  0  0  0  0  0  0  0  0  0  0
   44.7400   31.3270   42.9620 C   0  0  0  0  0  0  0  0  0  0  0  0
   46.1170   31.0160   42.4080 C   0  0  1  0  0  3  0  0  0  0  0  0
   46.0480   29.5830   43.0600 C   0  0  0  0  0  3  0  0  0  0  0  0
   46.9860   29.0540   42.8420 H   0  0  0  0  0  0  0  0  0  0  0  0
   45.8940   29.9730   44.5030 C   0  0  0  0  0  3  0  0  0  0  0  0
   45.4790   29.1500   45.1120 H   0  0  0  0  0  0  0  0  0  0  0  0
   44.9230   31.0730   44.3730 N   0  0  0  0  0  0  0  0  0  0  0  0
   44.5240   31.4930   45.2590 H   0  0  0  0  0  0  0  0  0  0  0  0
  1 30  1  0  0  0  0
  2  1  1  0  0  0  0
  2 14  1  0  0  0  0
  3  2  2  0  0  0  0
  4  5  2  0  0  0  0
  4  3  1  0  0  0  0
  5  6  1  0  0  0  0
  6 10  1  0  0  0  0
  6  1  2  0  0  0  0
  7  3  1  0  0  0  0
  8  4  1  0  0  0  0
  9  5  1  0  0  0  0
 12 11  1  0  0  0  0
 13 23  1  0  0  0  0
 13 12  2  0  0  0  0
 14 13  1  0  0  0  0
 15 14  2  0  0  0  0
 15 16  1  0  0  0  0
 16 17  2  0  0  0  0
 17 12  1  0  0  0  0
 17 20  1  0  0  0  0
 18 15  1  0  0  0  0
 19 16  1  0  0  0  0
 21 26  1  0  0  0  0
 22 23  1  0  0  0  0
 22 21  2  0  0  0  0
 23 24  2  0  0  0  0
 24 25  1  0  0  0  0
 25 29  1  0  0  0  0
 26 25  2  0  0  0  0
 27 21  1  0  0  0  0
 28 22  1  0  0  0  0
 30 32  2  0  0  0  0
 31 30  2  0  0  0  0
 33 34  2  0  0  0  0
 34 40  1  0  0  0  0
 35 30  1  6  0  0  0
 35 34  1  0  0  0  0
 35 36  1  0  0  0  0
 36 38  1  0  0  0  0
 37 36  1  0  0  0  0
 38 39  1  0  0  0  0
 40 38  1  0  0  0  0
 40 41  1  0  0  0  0
M  END
>  <minimizedAffinity>
-4.98516226

>  <minimizedRMSD>
1.23939621

$$$$
