
 OpenBabel03252509073D

 41 44  0  0  1  0  0  0  0  0999 V2000
   47.5570   31.8130   38.8660 C   0  0  0  0  0  0  0  0  0  0  0  0
   47.1410   33.1080   38.9410 C   0  0  0  0  0  0  0  0  0  0  0  0
   47.8200   34.0680   38.2160 C   0  0  0  0  0  0  0  0  0  0  0  0
   48.8950   33.7190   37.4320 C   0  0  0  0  0  0  0  0  0  0  0  0
   49.3350   32.4010   37.3410 C   0  0  0  0  0  0  0  0  0  0  0  0
   48.6450   31.4440   38.0750 C   0  0  0  0  0  0  0  0  0  0  0  0
   47.5210   35.1130   38.2490 H   0  0  0  0  0  0  0  0  0  0  0  0
   49.4080   34.4910   36.8770 H   0  0  0  0  0  0  0  0  0  0  0  0
   50.1750   32.0950   36.7330 H   0  0  0  0  0  0  0  0  0  0  0  0
   48.9780   30.4220   38.0100 H   0  0  0  0  0  0  0  0  0  0  0  0
   45.3670   35.3510   43.2210 Cl  0  0  0  0  0  0  0  0  0  0  0  0
   45.1900   34.5810   41.6720 C   0  0  0  0  0  0  0  0  0  0  0  0
   46.2670   34.1820   40.9660 C   0  0  0  0  0  0  0  0  0  0  0  0
   46.0160   33.5750   39.7390 C   0  0  0  0  0  0  0  0  0  0  0  0
   44.7450   33.3860   39.2600 C   0  0  0  0  0  0  0  0  0  0  0  0
   43.6760   33.7960   39.9920 C   0  0  0  0  0  0  0  0  0  0  0  0
   43.9090   34.3980   41.2070 C   0  0  0  0  0  0  0  0  0  0  0  0
   44.5660   32.9100   38.2990 H   0  0  0  0  0  0  0  0  0  0  0  0
   42.6430   33.6730   39.6650 H   0  0  0  0  0  0  0  0  0  0  0  0
   43.0440   34.7270   41.7950 H   0  0  0  0  0  0  0  0  0  0  0  0
   49.5660   35.7670   41.8850 C   0  0  0  0  0  0  0  0  0  0  0  0
   48.2880   35.5760   41.3540 C   0  0  0  0  0  0  0  0  0  0  0  0
   47.5880   34.3910   41.5040 C   0  0  0  0  0  0  0  0  0  0  0  0
   48.2360   33.4260   42.2090 N   0  0  0  0  0  0  0  0  0  0  0  0
   49.4660   33.6100   42.7200 C   0  0  0  0  0  0  0  0  0  0  0  0
   50.1200   34.7650   42.5590 N   0  0  0  0  0  0  0  0  0  0  0  0
   50.0350   36.7220   41.7180 H   0  0  0  0  0  0  0  0  0  0  0  0
   47.7950   36.3660   40.7940 H   0  0  0  0  0  0  0  0  0  0  0  0
   49.9910   32.8430   43.2840 H   0  0  0  0  0  0  0  0  0  0  0  0
   46.7550   30.5820   39.7050 S   0  0  0  0  0  0  0  0  0  0  0  0
   45.2700   30.8410   39.8350 O   0  0  0  0  0  0  0  0  0  0  0  0
   46.8270   29.3700   38.7260 O   0  0  0  0  0  0  0  0  0  0  0  0
   49.7120   30.4490   41.2970 O   0  0  0  0  0  0  0  0  0  0  0  0
   48.5750   30.0730   41.6830 C   0  0  0  0  0  0  0  0  0  0  0  0
   47.1730   29.8490   41.1510 C   0  0  1  0  0  3  0  0  0  0  0  0
   46.6070   30.8150   42.2590 C   0  0  0  0  0  3  0  0  0  0  0  0
   45.5130   30.8630   42.1540 H   0  0  0  0  0  0  0  0  0  0  0  0
   47.0640   30.0820   43.4880 C   0  0  0  0  0  3  0  0  0  0  0  0
   47.0880   30.7370   44.3760 H   0  0  0  0  0  0  0  0  0  0  0  0
   48.4280   29.7070   43.0740 N   0  0  0  0  0  0  0  0  0  0  0  0
   49.0610   29.2570   43.7920 H   0  0  0  0  0  0  0  0  0  0  0  0
  1  2  1  0  0  0  0
  1 30  1  0  0  0  0
  2 14  1  0  0  0  0
  3  7  1  0  0  0  0
  3  2  2  0  0  0  0
  4  3  1  0  0  0  0
  5  4  2  0  0  0  0
  5  6  1  0  0  0  0
  6  1  2  0  0  0  0
  8  4  1  0  0  0  0
  9  5  1  0  0  0  0
 10  6  1  0  0  0  0
 12 11  1  0  0  0  0
 13 23  1  0  0  0  0
 13 12  2  0  0  0  0
 14 13  1  0  0  0  0
 15 14  2  0  0  0  0
 15 16  1  0  0  0  0
 16 17  2  0  0  0  0
 17 12  1  0  0  0  0
 17 20  1  0  0  0  0
 18 15  1  0  0  0  0
 19 16  1  0  0  0  0
 21 26  1  0  0  0  0
 22 23  1  0  0  0  0
 22 21  2  0  0  0  0
 23 24  2  0  0  0  0
 24 25  1  0  0  0  0
 25 29  1  0  0  0  0
 26 25  2  0  0  0  0
 27 21  1  0  0  0  0
 28 22  1  0  0  0  0
 30 31  2  0  0  0  0
 32 30  2  0  0  0  0
 33 34  2  0  0  0  0
 34 40  1  0  0  0  0
 35 30  1  6  0  0  0
 35 34  1  0  0  0  0
 35 36  1  0  0  0  0
 36 38  1  0  0  0  0
 37 36  1  0  0  0  0
 38 39  1  0  0  0  0
 40 38  1  0  0  0  0
 40 41  1  0  0  0  0
M  END
>  <minimizedAffinity>
-4.65477037

>  <minimizedRMSD>
1.74423516

$$$$
