
 OpenBabel03252506363D

 44 47  0  0  1  0  0  0  0  0999 V2000
   44.5330   35.4720   45.1580 C   0  0  0  0  0  0  0  0  0  0  0  0
   45.1900   35.4640   43.9090 C   0  0  0  0  0  0  0  0  0  0  0  0
   46.1150   34.5060   43.6560 C   0  0  0  0  0  0  0  0  0  0  0  0
   46.3510   33.6040   44.6380 N   0  0  0  0  0  0  0  0  0  0  0  0
   45.7310   33.6160   45.8090 C   0  0  0  0  0  0  0  0  0  0  0  0
   44.8180   34.5440   46.0870 N   0  0  0  0  0  0  0  0  0  0  0  0
   46.0660   32.6080   46.7790 N   0  0  0  0  0  0  0  0  0  0  0  0
   45.3290   32.3580   47.9650 C   0  0  0  0  0  0  0  0  0  0  0  0
   46.4080   32.0190   48.9790 C   0  0  0  0  0  0  0  0  0  0  0  0
   47.6880   31.9290   48.2120 C   0  0  0  0  0  0  0  0  0  0  0  0
   47.1960   31.7080   46.7810 C   0  0  1  0  0  0  0  0  0  0  0  0
   43.8000   36.2290   45.3600 H   0  0  0  0  0  0  0  0  0  0  0  0
   46.6230   34.4820   42.7200 H   0  0  0  0  0  0  0  0  0  0  0  0
   44.5070   31.7250   48.0540 H   0  0  0  0  0  0  0  0  0  0  0  0
   44.9670   33.3760   48.3220 H   0  0  0  0  0  0  0  0  0  0  0  0
   46.4150   32.6420   49.8670 H   0  0  0  0  0  0  0  0  0  0  0  0
   46.1960   30.9710   49.3450 H   0  0  0  0  0  0  0  0  0  0  0  0
   48.2810   31.0500   48.4910 H   0  0  0  0  0  0  0  0  0  0  0  0
   48.2310   32.8950   48.2860 H   0  0  0  0  0  0  0  0  0  0  0  0
   47.9810   32.0360   46.0850 H   0  0  0  0  0  0  0  0  0  0  0  0
   44.8280   36.4910   42.9720 N   0  0  0  0  0  0  0  0  0  0  0  0
   43.8410   36.8190   42.9270 H   0  0  0  0  0  0  0  0  0  0  0  0
   45.5570   36.9030   42.3380 H   0  0  0  0  0  0  0  0  0  0  0  0
   46.7000   30.0100   46.5990 S   0  0  0  0  0  0  0  0  0  0  0  0
   45.5380   30.4040   43.4950 O   0  0  0  0  0  0  0  0  0  0  0  0
   44.9470   29.9010   44.4630 C   0  0  0  0  0  0  0  0  0  0  0  0
   45.1150   29.7150   45.9280 C   0  0  1  0  0  0  0  0  0  0  0  0
   44.5770   28.3190   46.1170 C   0  0  0  0  0  0  0  0  0  0  0  0
   43.2270   28.5210   45.4200 C   0  0  0  0  0  0  0  0  0  0  0  0
   43.6800   29.2530   44.2420 N   0  0  0  0  0  0  0  0  0  0  0  0
   44.2550   30.3270   46.3070 H   0  0  0  0  0  0  0  0  0  0  0  0
   44.4570   28.0760   47.1850 H   0  0  0  0  0  0  0  0  0  0  0  0
   45.1590   27.5650   45.5560 H   0  0  0  0  0  0  0  0  0  0  0  0
   42.5470   29.1090   46.0560 H   0  0  0  0  0  0  0  0  0  0  0  0
   42.8210   27.5300   45.1340 H   0  0  0  0  0  0  0  0  0  0  0  0
   40.5090   29.0550   43.7830 O   0  0  0  0  0  0  0  0  0  0  0  0
   41.4720   29.6880   43.2840 C   0  0  0  0  0  0  0  0  0  0  0  0
   42.8470   29.2520   43.0370 C   0  0  1  0  0  0  0  0  0  0  0  0
   43.4050   30.2680   42.0400 C   0  0  0  0  0  0  0  0  0  0  0  0
   44.4750   30.4970   42.2760 H   0  0  0  0  0  0  0  0  0  0  0  0
   42.5320   31.4800   42.1570 C   0  0  0  0  0  0  0  0  0  0  0  0
   43.0870   32.2250   42.7670 H   0  0  0  0  0  0  0  0  0  0  0  0
   41.3250   31.0340   42.8620 N   0  0  0  0  0  0  0  0  0  0  0  0
   40.5370   31.7380   42.9600 H   0  0  0  0  0  0  0  0  0  0  0  0
  1 12  1  0  0  0  0
  1  6  1  0  0  0  0
  2  1  2  0  0  0  0
  3  2  1  0  0  0  0
  3  4  2  0  0  0  0
  4  5  1  0  0  0  0
  5  6  2  0  0  0  0
  5  7  1  0  0  0  0
  7 11  1  0  0  0  0
  7  8  1  0  0  0  0
  8 14  1  0  0  0  0
  8 15  1  0  0  0  0
  8  9  1  0  0  0  0
  9 17  1  0  0  0  0
  9 16  1  0  0  0  0
 10 19  1  0  0  0  0
 10 18  1  0  0  0  0
 10  9  1  0  0  0  0
 11 20  1  6  0  0  0
 11 10  1  0  0  0  0
 13  3  1  0  0  0  0
 21  2  1  0  0  0  0
 22 21  1  0  0  0  0
 23 21  1  0  0  0  0
 24 11  1  0  0  0  0
 25 26  2  0  0  0  0
 26 27  1  0  0  0  0
 27 28  1  0  0  0  0
 27 31  1  1  0  0  0
 27 24  1  0  0  0  0
 28 32  1  0  0  0  0
 29 34  1  0  0  0  0
 29 28  1  0  0  0  0
 30 26  1  0  0  0  0
 30 29  1  0  0  0  0
 33 28  1  0  0  0  0
 35 29  1  0  0  0  0
 37 36  2  0  0  0  0
 38 37  1  0  0  0  0
 38 30  1  1  0  0  0
 39 41  1  0  0  0  0
 39 40  1  0  0  0  0
 39 38  1  0  0  0  0
 41 42  1  0  0  0  0
 41 43  1  0  0  0  0
 43 44  1  0  0  0  0
 43 37  1  0  0  0  0
M  END
>  <minimizedAffinity>
-5.91936922

>  <minimizedRMSD>
0.210391417

$$$$
