
 OpenBabel03252509073D

 41 44  0  0  1  0  0  0  0  0999 V2000
   47.6690   31.8270   38.9720 C   0  0  0  0  0  0  0  0  0  0  0  0
   47.1830   33.1000   38.9540 C   0  0  0  0  0  0  0  0  0  0  0  0
   47.7960   34.0350   38.1430 C   0  0  0  0  0  0  0  0  0  0  0  0
   48.8760   33.6830   37.3670 C   0  0  0  0  0  0  0  0  0  0  0  0
   49.3860   32.3890   37.3700 C   0  0  0  0  0  0  0  0  0  0  0  0
   48.7630   31.4560   38.1900 C   0  0  0  0  0  0  0  0  0  0  0  0
   47.4400   35.0620   38.1000 H   0  0  0  0  0  0  0  0  0  0  0  0
   49.3360   34.4360   36.7430 H   0  0  0  0  0  0  0  0  0  0  0  0
   50.2320   32.0810   36.7710 H   0  0  0  0  0  0  0  0  0  0  0  0
   49.1500   30.4510   38.1980 H   0  0  0  0  0  0  0  0  0  0  0  0
   45.3510   35.3810   43.1900 Cl  0  0  0  0  0  0  0  0  0  0  0  0
   45.1950   34.5900   41.6490 C   0  0  0  0  0  0  0  0  0  0  0  0
   46.2820   34.1910   40.9570 C   0  0  0  0  0  0  0  0  0  0  0  0
   46.0470   33.5660   39.7370 C   0  0  0  0  0  0  0  0  0  0  0  0
   44.7820   33.3610   39.2490 C   0  0  0  0  0  0  0  0  0  0  0  0
   43.7020   33.7710   39.9650 C   0  0  0  0  0  0  0  0  0  0  0  0
   43.9200   34.3890   41.1760 C   0  0  0  0  0  0  0  0  0  0  0  0
   44.6150   32.8710   38.2920 H   0  0  0  0  0  0  0  0  0  0  0  0
   42.6730   33.6340   39.6310 H   0  0  0  0  0  0  0  0  0  0  0  0
   43.0460   34.7180   41.7520 H   0  0  0  0  0  0  0  0  0  0  0  0
   49.5660   35.8090   41.8700 C   0  0  0  0  0  0  0  0  0  0  0  0
   48.2950   35.6000   41.3300 C   0  0  0  0  0  0  0  0  0  0  0  0
   47.5960   34.4190   41.5050 C   0  0  0  0  0  0  0  0  0  0  0  0
   48.2380   33.4750   42.2430 N   0  0  0  0  0  0  0  0  0  0  0  0
   49.4620   33.6760   42.7630 C   0  0  0  0  0  0  0  0  0  0  0  0
   50.1150   34.8280   42.5770 N   0  0  0  0  0  0  0  0  0  0  0  0
   50.0350   36.7610   41.6820 H   0  0  0  0  0  0  0  0  0  0  0  0
   47.8060   36.3730   40.7430 H   0  0  0  0  0  0  0  0  0  0  0  0
   49.9820   32.9270   43.3540 H   0  0  0  0  0  0  0  0  0  0  0  0
   46.9500   30.6250   39.9200 S   0  0  0  0  0  0  0  0  0  0  0  0
   45.5800   30.2280   39.4140 O   0  0  0  0  0  0  0  0  0  0  0  0
   47.8210   29.3650   39.6310 O   0  0  0  0  0  0  0  0  0  0  0  0
   45.5570   28.2670   41.8710 O   0  0  0  0  0  0  0  0  0  0  0  0
   46.2390   29.2740   42.1910 C   0  0  0  0  0  0  0  0  0  0  0  0
   46.8130   30.5410   41.5870 C   0  0  1  0  0  3  0  0  0  0  0  0
   48.2480   30.1150   42.0770 C   0  0  0  0  0  3  0  0  0  0  0  0
   48.9630   30.8990   41.7880 H   0  0  0  0  0  0  0  0  0  0  0  0
   47.9960   30.0430   43.5570 C   0  0  0  0  0  3  0  0  0  0  0  0
   48.7560   29.4320   44.0770 H   0  0  0  0  0  0  0  0  0  0  0  0
   46.6840   29.3710   43.5640 N   0  0  0  0  0  0  0  0  0  0  0  0
   46.2810   29.0760   44.4970 H   0  0  0  0  0  0  0  0  0  0  0  0
  1 30  1  0  0  0  0
  2  1  1  0  0  0  0
  2 14  1  0  0  0  0
  3  2  2  0  0  0  0
  4  5  2  0  0  0  0
  4  3  1  0  0  0  0
  5  6  1  0  0  0  0
  6 10  1  0  0  0  0
  6  1  2  0  0  0  0
  7  3  1  0  0  0  0
  8  4  1  0  0  0  0
  9  5  1  0  0  0  0
 12 11  1  0  0  0  0
 13 23  1  0  0  0  0
 13 12  2  0  0  0  0
 14 13  1  0  0  0  0
 15 14  2  0  0  0  0
 15 16  1  0  0  0  0
 16 17  2  0  0  0  0
 17 12  1  0  0  0  0
 17 20  1  0  0  0  0
 18 15  1  0  0  0  0
 19 16  1  0  0  0  0
 21 26  1  0  0  0  0
 22 23  1  0  0  0  0
 22 21  2  0  0  0  0
 23 24  2  0  0  0  0
 24 25  1  0  0  0  0
 25 29  1  0  0  0  0
 26 25  2  0  0  0  0
 27 21  1  0  0  0  0
 28 22  1  0  0  0  0
 31 30  2  0  0  0  0
 32 30  2  0  0  0  0
 33 34  2  0  0  0  0
 34 40  1  0  0  0  0
 35 30  1  6  0  0  0
 35 36  1  0  0  0  0
 35 34  1  0  0  0  0
 36 38  1  0  0  0  0
 37 36  1  0  0  0  0
 38 40  1  0  0  0  0
 38 39  1  0  0  0  0
 40 41  1  0  0  0  0
M  END
>  <minimizedAffinity>
-4.58549261

>  <minimizedRMSD>
1.57326365

$$$$
