
 OpenBabel03252506363D

 44 47  0  0  1  0  0  0  0  0999 V2000
   44.5130   35.5140   45.1280 C   0  0  0  0  0  0  0  0  0  0  0  0
   45.1720   35.4850   43.8800 C   0  0  0  0  0  0  0  0  0  0  0  0
   46.0900   34.5160   43.6410 C   0  0  0  0  0  0  0  0  0  0  0  0
   46.3170   33.6250   44.6360 N   0  0  0  0  0  0  0  0  0  0  0  0
   45.6960   33.6570   45.8050 C   0  0  0  0  0  0  0  0  0  0  0  0
   44.7900   34.5960   46.0700 N   0  0  0  0  0  0  0  0  0  0  0  0
   46.0220   32.6590   46.7890 N   0  0  0  0  0  0  0  0  0  0  0  0
   45.2800   32.4310   47.9770 C   0  0  0  0  0  0  0  0  0  0  0  0
   46.3550   32.0960   48.9970 C   0  0  0  0  0  0  0  0  0  0  0  0
   47.6360   31.9860   48.2330 C   0  0  0  0  0  0  0  0  0  0  0  0
   47.1440   31.7500   46.8050 C   0  0  1  0  0  0  0  0  0  0  0  0
   43.7860   36.2800   45.3190 H   0  0  0  0  0  0  0  0  0  0  0  0
   46.5990   34.4760   42.7060 H   0  0  0  0  0  0  0  0  0  0  0  0
   44.4540   31.8050   48.0730 H   0  0  0  0  0  0  0  0  0  0  0  0
   44.9270   33.4570   48.3200 H   0  0  0  0  0  0  0  0  0  0  0  0
   46.3660   32.7320   49.8770 H   0  0  0  0  0  0  0  0  0  0  0  0
   46.1340   31.0550   49.3760 H   0  0  0  0  0  0  0  0  0  0  0  0
   48.2220   31.1070   48.5240 H   0  0  0  0  0  0  0  0  0  0  0  0
   48.1870   32.9490   48.2960 H   0  0  0  0  0  0  0  0  0  0  0  0
   47.9330   32.0630   46.1050 H   0  0  0  0  0  0  0  0  0  0  0  0
   44.8200   36.5020   42.9290 N   0  0  0  0  0  0  0  0  0  0  0  0
   43.8360   36.8370   42.8790 H   0  0  0  0  0  0  0  0  0  0  0  0
   45.5540   36.9000   42.2920 H   0  0  0  0  0  0  0  0  0  0  0  0
   46.6350   30.0550   46.6440 S   0  0  0  0  0  0  0  0  0  0  0  0
   45.7340   30.3380   43.4420 O   0  0  0  0  0  0  0  0  0  0  0  0
   45.0580   29.8850   44.3790 C   0  0  0  0  0  0  0  0  0  0  0  0
   45.1040   29.7580   45.8580 C   0  0  1  0  0  0  0  0  0  0  0  0
   44.5250   28.3800   46.0590 C   0  0  0  0  0  0  0  0  0  0  0  0
   43.2390   28.5750   45.2470 C   0  0  0  0  0  0  0  0  0  0  0  0
   43.7990   29.2490   44.0820 N   0  0  0  0  0  0  0  0  0  0  0  0
   44.2280   30.3990   46.1420 H   0  0  0  0  0  0  0  0  0  0  0  0
   44.3140   28.1840   47.1230 H   0  0  0  0  0  0  0  0  0  0  0  0
   45.1340   27.5940   45.5790 H   0  0  0  0  0  0  0  0  0  0  0  0
   42.5220   29.1990   45.8020 H   0  0  0  0  0  0  0  0  0  0  0  0
   42.8380   27.5790   44.9700 H   0  0  0  0  0  0  0  0  0  0  0  0
   44.5180   28.0810   41.1790 O   0  0  0  0  0  0  0  0  0  0  0  0
   43.5090   28.1370   41.9230 C   0  0  0  0  0  0  0  0  0  0  0  0
   43.0660   29.2120   42.8140 C   0  0  1  0  0  3  0  0  0  0  0  0
   41.5940   28.9020   43.0960 C   0  0  0  0  0  3  0  0  0  0  0  0
   41.3450   29.1370   44.1630 H   0  0  0  0  0  0  0  0  0  0  0  0
   41.4130   27.4480   42.7840 C   0  0  0  0  0  3  0  0  0  0  0  0
   41.4000   26.9050   43.7540 H   0  0  0  0  0  0  0  0  0  0  0  0
   42.5870   27.0620   41.9920 N   0  0  0  0  0  0  0  0  0  0  0  0
   42.5960   26.0780   41.5930 H   0  0  0  0  0  0  0  0  0  0  0  0
  1 12  1  0  0  0  0
  1  6  1  0  0  0  0
  2  1  2  0  0  0  0
  3  2  1  0  0  0  0
  3  4  2  0  0  0  0
  4  5  1  0  0  0  0
  5  6  2  0  0  0  0
  5  7  1  0  0  0  0
  7 11  1  0  0  0  0
  7  8  1  0  0  0  0
  8 14  1  0  0  0  0
  8 15  1  0  0  0  0
  8  9  1  0  0  0  0
  9 17  1  0  0  0  0
  9 16  1  0  0  0  0
 10 19  1  0  0  0  0
 10 18  1  0  0  0  0
 10  9  1  0  0  0  0
 11 20  1  6  0  0  0
 11 10  1  0  0  0  0
 13  3  1  0  0  0  0
 21  2  1  0  0  0  0
 22 21  1  0  0  0  0
 23 21  1  0  0  0  0
 24 11  1  0  0  0  0
 25 26  2  0  0  0  0
 26 27  1  0  0  0  0
 27 28  1  0  0  0  0
 27 31  1  1  0  0  0
 27 24  1  0  0  0  0
 28 32  1  0  0  0  0
 29 34  1  0  0  0  0
 29 28  1  0  0  0  0
 30 26  1  0  0  0  0
 30 29  1  0  0  0  0
 33 28  1  0  0  0  0
 35 29  1  0  0  0  0
 36 37  2  0  0  0  0
 37 43  1  0  0  0  0
 37 38  1  0  0  0  0
 38 39  1  0  0  0  0
 38 30  1  1  0  0  0
 39 40  1  0  0  0  0
 41 39  1  0  0  0  0
 41 42  1  0  0  0  0
 43 41  1  0  0  0  0
 44 43  1  0  0  0  0
M  END
>  <minimizedAffinity>
-5.18855715

>  <minimizedRMSD>
0.694764197

$$$$
