
 OpenBabel03252506333D

 33 35  0  0  1  0  0  0  0  0999 V2000
   44.4780   35.7230   45.0270 C   0  0  0  0  0  0  0  0  0  0  0  0
   45.1090   35.6750   43.7680 C   0  0  0  0  0  0  0  0  0  0  0  0
   46.0000   34.6780   43.5070 C   0  0  0  0  0  0  0  0  0  0  0  0
   46.2280   33.7790   44.4970 N   0  0  0  0  0  0  0  0  0  0  0  0
   45.6230   33.8360   45.6900 C   0  0  0  0  0  0  0  0  0  0  0  0
   44.7520   34.7980   45.9600 N   0  0  0  0  0  0  0  0  0  0  0  0
   45.9490   32.8300   46.6410 N   0  0  0  0  0  0  0  0  0  0  0  0
   45.1700   32.5710   47.8570 C   0  0  0  0  0  0  0  0  0  0  0  0
   46.2600   32.2600   48.8590 C   0  0  0  0  0  0  0  0  0  0  0  0
   47.5280   32.0770   48.0850 C   0  0  0  0  0  0  0  0  0  0  0  0
   47.0320   31.8820   46.6590 C   0  0  1  0  0  0  0  0  0  0  0  0
   43.7510   36.4760   45.3370 H   0  0  0  0  0  0  0  0  0  0  0  0
   46.4810   34.6430   42.5440 H   0  0  0  0  0  0  0  0  0  0  0  0
   44.6140   31.6270   47.6590 H   0  0  0  0  0  0  0  0  0  0  0  0
   44.5240   33.4070   48.1310 H   0  0  0  0  0  0  0  0  0  0  0  0
   46.2920   33.0800   49.6100 H   0  0  0  0  0  0  0  0  0  0  0  0
   46.0050   31.3320   49.4470 H   0  0  0  0  0  0  0  0  0  0  0  0
   48.0180   31.1320   48.4020 H   0  0  0  0  0  0  0  0  0  0  0  0
   48.1670   32.9540   48.1880 H   0  0  0  0  0  0  0  0  0  0  0  0
   47.8470   32.1610   45.9610 H   0  0  0  0  0  0  0  0  0  0  0  0
   44.7510   36.7030   42.8300 N   0  0  0  0  0  0  0  0  0  0  0  0
   44.0470   36.5480   42.0590 H   0  0  0  0  0  0  0  0  0  0  0  0
   45.1940   37.6460   42.9000 H   0  0  0  0  0  0  0  0  0  0  0  0
   46.4840   30.1950   46.4790 S   0  0  0  0  0  0  0  0  0  0  0  0
   43.7780   28.9350   44.9700 O   0  0  0  0  0  0  0  0  0  0  0  0
   44.8960   29.1910   44.4590 C   0  0  0  0  0  0  0  0  0  0  0  0
   46.2630   29.5910   44.8430 C   0  0  1  0  0  3  0  0  0  0  0  0
   46.6530   30.5050   43.7160 C   0  0  0  0  0  3  0  0  0  0  0  0
   47.7440   30.6700   43.6280 H   0  0  0  0  0  0  0  0  0  0  0  0
   46.2940   29.5860   42.5380 C   0  0  0  0  0  3  0  0  0  0  0  0
   46.2380   30.1060   41.5850 H   0  0  0  0  0  0  0  0  0  0  0  0
   44.9990   29.0930   43.0220 N   0  0  0  0  0  0  0  0  0  0  0  0
   44.3210   28.7390   42.3120 H   0  0  0  0  0  0  0  0  0  0  0  0
  1 12  1  0  0  0  0
  1  6  1  0  0  0  0
  2  1  2  0  0  0  0
  3  2  1  0  0  0  0
  3  4  2  0  0  0  0
  4  5  1  0  0  0  0
  5  6  2  0  0  0  0
  5  7  1  0  0  0  0
  7 11  1  0  0  0  0
  7  8  1  0  0  0  0
  8 15  1  0  0  0  0
  8  9  1  0  0  0  0
  9 17  1  0  0  0  0
  9 16  1  0  0  0  0
 10 19  1  0  0  0  0
 10 18  1  0  0  0  0
 10  9  1  0  0  0  0
 11 20  1  6  0  0  0
 11 10  1  0  0  0  0
 13  3  1  0  0  0  0
 14  8  1  0  0  0  0
 21 23  1  0  0  0  0
 21  2  1  0  0  0  0
 22 21  1  0  0  0  0
 24 11  1  0  0  0  0
 26 27  1  0  0  0  0
 26 25  2  0  0  0  0
 27 24  1  1  0  0  0
 28 27  1  0  0  0  0
 29 28  1  0  0  0  0
 30 32  1  0  0  0  0
 30 28  1  0  0  0  0
 31 30  1  0  0  0  0
 32 26  1  0  0  0  0
 33 32  1  0  0  0  0
M  END
>  <minimizedAffinity>
-4.89709568

>  <minimizedRMSD>
0.522249639

$$$$
