
 OpenBabel03252506333D

 33 35  0  0  1  0  0  0  0  0999 V2000
   44.4610   35.7290   45.0080 C   0  0  0  0  0  0  0  0  0  0  0  0
   45.1240   35.7130   43.7650 C   0  0  0  0  0  0  0  0  0  0  0  0
   46.0470   34.7430   43.5140 C   0  0  0  0  0  0  0  0  0  0  0  0
   46.2730   33.8370   44.4980 N   0  0  0  0  0  0  0  0  0  0  0  0
   45.6370   33.8630   45.6760 C   0  0  0  0  0  0  0  0  0  0  0  0
   44.7360   34.8000   45.9360 N   0  0  0  0  0  0  0  0  0  0  0  0
   45.9640   32.8540   46.6220 N   0  0  0  0  0  0  0  0  0  0  0  0
   45.1630   32.5590   47.8150 C   0  0  0  0  0  0  0  0  0  0  0  0
   46.2350   32.2630   48.8410 C   0  0  0  0  0  0  0  0  0  0  0  0
   47.5260   32.1220   48.0960 C   0  0  0  0  0  0  0  0  0  0  0  0
   47.0700   31.9330   46.6560 C   0  0  1  0  0  0  0  0  0  0  0  0
   43.7080   36.4590   45.3090 H   0  0  0  0  0  0  0  0  0  0  0  0
   46.5530   34.7330   42.5630 H   0  0  0  0  0  0  0  0  0  0  0  0
   44.6360   31.6040   47.5920 H   0  0  0  0  0  0  0  0  0  0  0  0
   44.4890   33.3750   48.0830 H   0  0  0  0  0  0  0  0  0  0  0  0
   46.2270   33.0730   49.6020 H   0  0  0  0  0  0  0  0  0  0  0  0
   45.9890   31.3210   49.4100 H   0  0  0  0  0  0  0  0  0  0  0  0
   48.0320   31.1850   48.4130 H   0  0  0  0  0  0  0  0  0  0  0  0
   48.1400   33.0130   48.2260 H   0  0  0  0  0  0  0  0  0  0  0  0
   47.8960   32.2410   45.9830 H   0  0  0  0  0  0  0  0  0  0  0  0
   44.7640   36.7450   42.8310 N   0  0  0  0  0  0  0  0  0  0  0  0
   44.0830   36.5820   42.0400 H   0  0  0  0  0  0  0  0  0  0  0  0
   45.1800   37.6970   42.9240 H   0  0  0  0  0  0  0  0  0  0  0  0
   46.5700   30.2350   46.4410 S   0  0  0  0  0  0  0  0  0  0  0  0
   44.1000   29.2230   44.4260 O   0  0  0  0  0  0  0  0  0  0  0  0
   45.3230   29.3240   44.1550 C   0  0  0  0  0  0  0  0  0  0  0  0
   46.6200   29.5820   44.8090 C   0  0  1  0  0  3  0  0  0  0  0  0
   47.3420   30.3900   43.7690 C   0  0  0  0  0  3  0  0  0  0  0  0
   48.4390   30.4240   43.9090 H   0  0  0  0  0  0  0  0  0  0  0  0
   47.1240   29.4630   42.5640 C   0  0  0  0  0  3  0  0  0  0  0  0
   47.3300   29.9380   41.6090 H   0  0  0  0  0  0  0  0  0  0  0  0
   45.7070   29.1460   42.7750 N   0  0  0  0  0  0  0  0  0  0  0  0
   45.1520   28.8380   41.9470 H   0  0  0  0  0  0  0  0  0  0  0  0
  1 12  1  0  0  0  0
  1  6  1  0  0  0  0
  2  1  2  0  0  0  0
  3  2  1  0  0  0  0
  3  4  2  0  0  0  0
  4  5  1  0  0  0  0
  5  6  2  0  0  0  0
  5  7  1  0  0  0  0
  7 11  1  0  0  0  0
  7  8  1  0  0  0  0
  8 15  1  0  0  0  0
  8  9  1  0  0  0  0
  9 17  1  0  0  0  0
  9 16  1  0  0  0  0
 10 19  1  0  0  0  0
 10 18  1  0  0  0  0
 10  9  1  0  0  0  0
 11 20  1  6  0  0  0
 11 10  1  0  0  0  0
 13  3  1  0  0  0  0
 14  8  1  0  0  0  0
 21 23  1  0  0  0  0
 21  2  1  0  0  0  0
 22 21  1  0  0  0  0
 24 11  1  0  0  0  0
 26 25  2  0  0  0  0
 26 27  1  0  0  0  0
 27 24  1  1  0  0  0
 28 29  1  0  0  0  0
 28 27  1  0  0  0  0
 30 32  1  0  0  0  0
 30 28  1  0  0  0  0
 31 30  1  0  0  0  0
 32 26  1  0  0  0  0
 33 32  1  0  0  0  0
M  END
>  <minimizedAffinity>
-4.8571682

>  <minimizedRMSD>
0.807992399

$$$$
