
 OpenBabel03252506333D

 33 35  0  0  1  0  0  0  0  0999 V2000
   44.5060   35.5370   45.1210 C   0  0  0  0  0  0  0  0  0  0  0  0
   45.1630   35.5080   43.8760 C   0  0  0  0  0  0  0  0  0  0  0  0
   46.0910   34.5410   43.6350 C   0  0  0  0  0  0  0  0  0  0  0  0
   46.3270   33.6500   44.6310 N   0  0  0  0  0  0  0  0  0  0  0  0
   45.6960   33.6880   45.8100 C   0  0  0  0  0  0  0  0  0  0  0  0
   44.7900   34.6230   46.0610 N   0  0  0  0  0  0  0  0  0  0  0  0
   46.0340   32.6940   46.7690 N   0  0  0  0  0  0  0  0  0  0  0  0
   45.2400   32.4120   47.9700 C   0  0  0  0  0  0  0  0  0  0  0  0
   46.3180   32.1370   48.9950 C   0  0  0  0  0  0  0  0  0  0  0  0
   47.6070   31.9940   48.2470 C   0  0  0  0  0  0  0  0  0  0  0  0
   47.1460   31.7810   46.8110 C   0  0  1  0  0  0  0  0  0  0  0  0
   43.7490   36.2670   45.4150 H   0  0  0  0  0  0  0  0  0  0  0  0
   46.5930   34.5200   42.6820 H   0  0  0  0  0  0  0  0  0  0  0  0
   44.7180   31.4500   47.7620 H   0  0  0  0  0  0  0  0  0  0  0  0
   44.5610   33.2270   48.2290 H   0  0  0  0  0  0  0  0  0  0  0  0
   46.3080   32.9570   49.7450 H   0  0  0  0  0  0  0  0  0  0  0  0
   46.0800   31.2010   49.5790 H   0  0  0  0  0  0  0  0  0  0  0  0
   48.1200   31.0640   48.5750 H   0  0  0  0  0  0  0  0  0  0  0  0
   48.2160   32.8900   48.3620 H   0  0  0  0  0  0  0  0  0  0  0  0
   47.9670   32.0850   46.1300 H   0  0  0  0  0  0  0  0  0  0  0  0
   44.7930   36.5240   42.9290 N   0  0  0  0  0  0  0  0  0  0  0  0
   44.1100   36.3450   42.1430 H   0  0  0  0  0  0  0  0  0  0  0  0
   45.2030   37.4800   43.0070 H   0  0  0  0  0  0  0  0  0  0  0  0
   46.6560   30.0780   46.6220 S   0  0  0  0  0  0  0  0  0  0  0  0
   45.6000   30.5170   43.4800 O   0  0  0  0  0  0  0  0  0  0  0  0
   44.9810   29.9810   44.4320 C   0  0  0  0  0  0  0  0  0  0  0  0
   45.0890   29.7680   45.8880 C   0  0  1  0  0  3  0  0  0  0  0  0
   44.5190   28.3870   46.0490 C   0  0  0  0  0  3  0  0  0  0  0  0
   44.2060   28.1470   47.0830 H   0  0  0  0  0  0  0  0  0  0  0  0
   43.2060   28.5870   45.2740 C   0  0  0  0  0  3  0  0  0  0  0  0
   42.7110   27.6580   45.0140 H   0  0  0  0  0  0  0  0  0  0  0  0
   43.7340   29.3220   44.1200 N   0  0  0  0  0  0  0  0  0  0  0  0
   43.1820   29.2950   43.2340 H   0  0  0  0  0  0  0  0  0  0  0  0
  1 12  1  0  0  0  0
  1  6  1  0  0  0  0
  2  1  2  0  0  0  0
  3  2  1  0  0  0  0
  3  4  2  0  0  0  0
  4  5  1  0  0  0  0
  5  6  2  0  0  0  0
  5  7  1  0  0  0  0
  7 11  1  0  0  0  0
  7  8  1  0  0  0  0
  8 15  1  0  0  0  0
  8  9  1  0  0  0  0
  9 17  1  0  0  0  0
  9 16  1  0  0  0  0
 10 19  1  0  0  0  0
 10 18  1  0  0  0  0
 10  9  1  0  0  0  0
 11 20  1  6  0  0  0
 11 10  1  0  0  0  0
 13  3  1  0  0  0  0
 14  8  1  0  0  0  0
 21 23  1  0  0  0  0
 21  2  1  0  0  0  0
 22 21  1  0  0  0  0
 24 11  1  0  0  0  0
 25 26  2  0  0  0  0
 26 27  1  0  0  0  0
 27 28  1  0  0  0  0
 27 24  1  6  0  0  0
 28 29  1  0  0  0  0
 30 28  1  0  0  0  0
 31 30  1  0  0  0  0
 32 26  1  0  0  0  0
 32 30  1  0  0  0  0
 33 32  1  0  0  0  0
M  END
>  <minimizedAffinity>
-5.2104516

>  <minimizedRMSD>
1.16570771

$$$$
