
 OpenBabel03252506333D

 33 35  0  0  1  0  0  0  0  0999 V2000
   44.4790   35.7410   45.0140 C   0  0  0  0  0  0  0  0  0  0  0  0
   45.1140   35.7000   43.7570 C   0  0  0  0  0  0  0  0  0  0  0  0
   46.0070   34.7050   43.4940 C   0  0  0  0  0  0  0  0  0  0  0  0
   46.2310   33.8000   44.4800 N   0  0  0  0  0  0  0  0  0  0  0  0
   45.6220   33.8500   45.6700 C   0  0  0  0  0  0  0  0  0  0  0  0
   44.7500   34.8100   45.9430 N   0  0  0  0  0  0  0  0  0  0  0  0
   45.9440   32.8390   46.6170 N   0  0  0  0  0  0  0  0  0  0  0  0
   45.1610   32.5730   47.8280 C   0  0  0  0  0  0  0  0  0  0  0  0
   46.2470   32.2570   48.8330 C   0  0  0  0  0  0  0  0  0  0  0  0
   47.5180   32.0780   48.0630 C   0  0  0  0  0  0  0  0  0  0  0  0
   47.0270   31.8910   46.6340 C   0  0  1  0  0  0  0  0  0  0  0  0
   43.7510   36.4910   45.3260 H   0  0  0  0  0  0  0  0  0  0  0  0
   46.4910   34.6750   42.5320 H   0  0  0  0  0  0  0  0  0  0  0  0
   44.6060   31.6300   47.6230 H   0  0  0  0  0  0  0  0  0  0  0  0
   44.5140   33.4070   48.1050 H   0  0  0  0  0  0  0  0  0  0  0  0
   46.2760   33.0720   49.5890 H   0  0  0  0  0  0  0  0  0  0  0  0
   45.9900   31.3250   49.4150 H   0  0  0  0  0  0  0  0  0  0  0  0
   48.0080   31.1310   48.3750 H   0  0  0  0  0  0  0  0  0  0  0  0
   48.1570   32.9540   48.1730 H   0  0  0  0  0  0  0  0  0  0  0  0
   47.8460   32.1740   45.9410 H   0  0  0  0  0  0  0  0  0  0  0  0
   44.7600   36.7340   42.8240 N   0  0  0  0  0  0  0  0  0  0  0  0
   44.0580   36.5820   42.0490 H   0  0  0  0  0  0  0  0  0  0  0  0
   45.2020   37.6760   42.9010 H   0  0  0  0  0  0  0  0  0  0  0  0
   46.4810   30.2050   46.4420 S   0  0  0  0  0  0  0  0  0  0  0  0
   45.5520   27.1950   45.3200 O   0  0  0  0  0  0  0  0  0  0  0  0
   45.7040   28.2500   44.6560 C   0  0  0  0  0  0  0  0  0  0  0  0
   46.2120   29.6280   44.8030 C   0  0  1  0  0  3  0  0  0  0  0  0
   45.2550   30.4090   43.9490 C   0  0  0  0  0  3  0  0  0  0  0  0
   45.6280   31.4080   43.6550 H   0  0  0  0  0  0  0  0  0  0  0  0
   45.3410   29.5610   42.6700 C   0  0  0  0  0  3  0  0  0  0  0  0
   44.5400   29.7620   41.9640 H   0  0  0  0  0  0  0  0  0  0  0  0
   45.2780   28.2270   43.2780 N   0  0  0  0  0  0  0  0  0  0  0  0
   44.9460   27.4390   42.6790 H   0  0  0  0  0  0  0  0  0  0  0  0
  1 12  1  0  0  0  0
  1  6  1  0  0  0  0
  2  1  2  0  0  0  0
  3  2  1  0  0  0  0
  3  4  2  0  0  0  0
  4  5  1  0  0  0  0
  5  6  2  0  0  0  0
  5  7  1  0  0  0  0
  7 11  1  0  0  0  0
  7  8  1  0  0  0  0
  8 15  1  0  0  0  0
  8  9  1  0  0  0  0
  9 17  1  0  0  0  0
  9 16  1  0  0  0  0
 10 19  1  0  0  0  0
 10 18  1  0  0  0  0
 10  9  1  0  0  0  0
 11 20  1  6  0  0  0
 11 10  1  0  0  0  0
 13  3  1  0  0  0  0
 14  8  1  0  0  0  0
 21 23  1  0  0  0  0
 21  2  1  0  0  0  0
 22 21  1  0  0  0  0
 24 11  1  0  0  0  0
 26 27  1  0  0  0  0
 26 25  2  0  0  0  0
 27 24  1  1  0  0  0
 28 27  1  0  0  0  0
 29 28  1  0  0  0  0
 30 32  1  0  0  0  0
 30 28  1  0  0  0  0
 31 30  1  0  0  0  0
 32 26  1  0  0  0  0
 33 32  1  0  0  0  0
M  END
>  <minimizedAffinity>
-4.83199883

>  <minimizedRMSD>
0.476470143

$$$$
