
 OpenBabel03242515093D

 36 38  0  0  1  0  0  0  0  0999 V2000
   46.2420   33.8420   44.7130 C   0  0  0  0  0  0  0  0  0  0  0  0
   45.1410   34.5920   45.0300 C   0  0  0  0  0  0  0  0  0  0  0  0
   44.6500   35.6190   44.2700 C   0  0  0  0  0  0  0  0  0  0  0  0
   45.2900   35.9330   43.1090 C   0  0  0  0  0  0  0  0  0  0  0  0
   46.3910   35.2150   42.7480 C   0  0  0  0  0  0  0  0  0  0  0  0
   46.8640   34.1820   43.5390 C   0  0  0  0  0  0  0  0  0  0  0  0
   44.6160   34.3480   45.9650 H   0  0  0  0  0  0  0  0  0  0  0  0
   43.7630   36.1500   44.6220 H   0  0  0  0  0  0  0  0  0  0  0  0
   44.8760   36.7500   42.5300 H   0  0  0  0  0  0  0  0  0  0  0  0
   46.8640   35.5050   41.8130 H   0  0  0  0  0  0  0  0  0  0  0  0
   47.4860   30.5380   45.6890 C   0  0  0  0  0  0  0  0  0  0  0  0
   47.6310   30.6470   47.0760 C   0  0  0  0  0  0  0  0  0  0  0  0
   47.3010   31.8650   47.6780 C   0  0  0  0  0  0  0  0  0  0  0  0
   46.8440   32.9200   46.9220 N   0  0  0  0  0  0  0  0  0  0  0  0
   46.7180   32.7620   45.5600 C   0  0  0  0  0  0  0  0  0  0  0  0
   47.0420   31.5830   44.9950 N   0  0  0  0  0  0  0  0  0  0  0  0
   47.7560   29.5860   45.3020 H   0  0  0  0  0  0  0  0  0  0  0  0
   47.9790   29.8680   47.7110 H   0  0  0  0  0  0  0  0  0  0  0  0
   47.4110   31.9560   48.7570 H   0  0  0  0  0  0  0  0  0  0  0  0
   48.0180   33.5330   43.0280 N   0  0  0  0  0  0  0  0  0  0  0  0
   47.8790   32.4830   43.0280 H   0  0  0  0  0  0  0  0  0  0  0  0
   49.5170   34.1360   42.4420 S   0  0  0  0  0  0  0  0  0  0  0  0
   49.2740   34.6710   41.0310 O   0  0  0  0  0  0  0  0  0  0  0  0
   49.8710   35.3980   40.7020 H   0  0  0  0  0  0  0  0  0  0  0  0
   50.1230   35.2160   43.2520 O   0  0  0  0  0  0  0  0  0  0  0  0
   50.0130   36.1820   43.0240 H   0  0  0  0  0  0  0  0  0  0  0  0
   50.5210   32.8070   42.2510 O   0  0  0  0  0  0  0  0  0  0  0  0
   52.8390   31.6610   40.3190 O   0  0  0  0  0  0  0  0  0  0  0  0
   51.6880   31.4270   40.8140 C   0  0  0  0  0  0  0  0  0  0  0  0
   50.4240   32.1810   41.0370 C   0  0  1  0  0  0  0  0  0  0  0  0
   49.4180   31.0630   41.0020 C   0  0  0  0  0  0  0  0  0  0  0  0
   49.1770   30.8630   39.9390 H   0  0  0  0  0  0  0  0  0  0  0  0
   50.1100   29.8730   41.6360 C   0  0  0  0  0  0  0  0  0  0  0  0
   49.9140   29.8130   42.7250 H   0  0  0  0  0  0  0  0  0  0  0  0
   51.5010   30.0830   41.3030 N   0  0  0  0  0  0  0  0  0  0  0  0
   52.1710   29.2780   41.4500 H   0  0  0  0  0  0  0  0  0  0  0  0
  1  2  1  0  0  0  0
  1 15  1  0  0  0  0
  2  7  1  0  0  0  0
  3  8  1  0  0  0  0
  3  2  2  0  0  0  0
  4  3  1  0  0  0  0
  5  4  2  0  0  0  0
  5  6  1  0  0  0  0
  6  1  2  0  0  0  0
  9  4  1  0  0  0  0
 10  5  1  0  0  0  0
 11 12  1  0  0  0  0
 12 13  2  0  0  0  0
 12 18  1  0  0  0  0
 13 19  1  0  0  0  0
 14 13  1  0  0  0  0
 15 14  2  0  0  0  0
 16 15  1  0  0  0  0
 16 11  2  0  0  0  0
 17 11  1  0  0  0  0
 20 21  1  0  0  0  0
 20  6  1  0  0  0  0
 22 20  1  0  0  0  0
 22 25  1  0  0  0  0
 23 22  1  0  0  0  0
 24 23  1  0  0  0  0
 26 25  1  0  0  0  0
 27 22  1  0  0  0  0
 28 29  2  0  0  0  0
 29 30  1  0  0  0  0
 29 35  1  0  0  0  0
 30 27  1  1  0  0  0
 31 30  1  0  0  0  0
 31 33  1  0  0  0  0
 32 31  1  0  0  0  0
 33 34  1  0  0  0  0
 35 36  1  0  0  0  0
 35 33  1  0  0  0  0
M  END
>  <minimizedAffinity>
-6.09446621

>  <minimizedRMSD>
2.38546109

$$$$
