
 OpenBabel03252506333D

 33 35  0  0  1  0  0  0  0  0999 V2000
   44.4770   35.7120   45.0140 C   0  0  0  0  0  0  0  0  0  0  0  0
   45.1240   35.6800   43.7630 C   0  0  0  0  0  0  0  0  0  0  0  0
   46.0310   34.6960   43.5060 C   0  0  0  0  0  0  0  0  0  0  0  0
   46.2570   33.7930   44.4930 N   0  0  0  0  0  0  0  0  0  0  0  0
   45.6360   33.8340   45.6780 C   0  0  0  0  0  0  0  0  0  0  0  0
   44.7510   34.7840   45.9440 N   0  0  0  0  0  0  0  0  0  0  0  0
   45.9620   32.8260   46.6260 N   0  0  0  0  0  0  0  0  0  0  0  0
   45.1710   32.5490   47.8310 C   0  0  0  0  0  0  0  0  0  0  0  0
   46.2520   32.2440   48.8450 C   0  0  0  0  0  0  0  0  0  0  0  0
   47.5310   32.0810   48.0860 C   0  0  0  0  0  0  0  0  0  0  0  0
   47.0550   31.8900   46.6520 C   0  0  1  0  0  0  0  0  0  0  0  0
   43.7380   36.4540   45.3200 H   0  0  0  0  0  0  0  0  0  0  0  0
   46.5250   34.6730   42.5490 H   0  0  0  0  0  0  0  0  0  0  0  0
   44.6290   31.6000   47.6200 H   0  0  0  0  0  0  0  0  0  0  0  0
   44.5110   33.3750   48.1020 H   0  0  0  0  0  0  0  0  0  0  0  0
   46.2640   33.0580   49.6020 H   0  0  0  0  0  0  0  0  0  0  0  0
   46.0000   31.3080   49.4230 H   0  0  0  0  0  0  0  0  0  0  0  0
   48.0290   31.1390   48.4020 H   0  0  0  0  0  0  0  0  0  0  0  0
   48.1590   32.9650   48.2030 H   0  0  0  0  0  0  0  0  0  0  0  0
   47.8770   32.1830   45.9670 H   0  0  0  0  0  0  0  0  0  0  0  0
   44.7660   36.7110   42.8270 N   0  0  0  0  0  0  0  0  0  0  0  0
   44.0740   36.5520   42.0460 H   0  0  0  0  0  0  0  0  0  0  0  0
   45.1970   37.6580   42.9100 H   0  0  0  0  0  0  0  0  0  0  0  0
   46.5300   30.1980   46.4530 S   0  0  0  0  0  0  0  0  0  0  0  0
   47.4570   27.4080   44.8600 O   0  0  0  0  0  0  0  0  0  0  0  0
   46.6740   28.3020   44.4540 C   0  0  0  0  0  0  0  0  0  0  0  0
   46.1910   29.6480   44.8190 C   0  0  1  0  0  3  0  0  0  0  0  0
   44.7480   29.5880   44.4010 C   0  0  0  0  0  3  0  0  0  0  0  0
   44.2740   30.5800   44.2850 H   0  0  0  0  0  0  0  0  0  0  0  0
   44.9440   29.0720   42.9670 C   0  0  0  0  0  3  0  0  0  0  0  0
   44.0330   28.6920   42.5150 H   0  0  0  0  0  0  0  0  0  0  0  0
   45.9500   28.0380   43.2330 N   0  0  0  0  0  0  0  0  0  0  0  0
   46.0350   27.2570   42.5470 H   0  0  0  0  0  0  0  0  0  0  0  0
  1 12  1  0  0  0  0
  1  6  1  0  0  0  0
  2  1  2  0  0  0  0
  3  2  1  0  0  0  0
  3  4  2  0  0  0  0
  4  5  1  0  0  0  0
  5  6  2  0  0  0  0
  5  7  1  0  0  0  0
  7 11  1  0  0  0  0
  7  8  1  0  0  0  0
  8 15  1  0  0  0  0
  8  9  1  0  0  0  0
  9 17  1  0  0  0  0
  9 16  1  0  0  0  0
 10 19  1  0  0  0  0
 10 18  1  0  0  0  0
 10  9  1  0  0  0  0
 11 20  1  6  0  0  0
 11 10  1  0  0  0  0
 13  3  1  0  0  0  0
 14  8  1  0  0  0  0
 21 23  1  0  0  0  0
 21  2  1  0  0  0  0
 22 21  1  0  0  0  0
 24 11  1  0  0  0  0
 26 27  1  0  0  0  0
 26 25  2  0  0  0  0
 27 24  1  1  0  0  0
 28 27  1  0  0  0  0
 29 28  1  0  0  0  0
 30 32  1  0  0  0  0
 30 28  1  0  0  0  0
 31 30  1  0  0  0  0
 32 26  1  0  0  0  0
 33 32  1  0  0  0  0
M  END
>  <minimizedAffinity>
-4.7686305

>  <minimizedRMSD>
0.412216038

$$$$
