
 OpenBabel03252506333D

 33 35  0  0  1  0  0  0  0  0999 V2000
   44.4460   35.7360   44.9940 C   0  0  0  0  0  0  0  0  0  0  0  0
   45.1220   35.7410   43.7580 C   0  0  0  0  0  0  0  0  0  0  0  0
   46.0630   34.7870   43.5100 C   0  0  0  0  0  0  0  0  0  0  0  0
   46.2930   33.8780   44.4900 N   0  0  0  0  0  0  0  0  0  0  0  0
   45.6440   33.8840   45.6610 C   0  0  0  0  0  0  0  0  0  0  0  0
   44.7250   34.8040   45.9180 N   0  0  0  0  0  0  0  0  0  0  0  0
   45.9780   32.8730   46.6030 N   0  0  0  0  0  0  0  0  0  0  0  0
   45.1690   32.5570   47.7850 C   0  0  0  0  0  0  0  0  0  0  0  0
   46.2340   32.2700   48.8200 C   0  0  0  0  0  0  0  0  0  0  0  0
   47.5350   32.1560   48.0890 C   0  0  0  0  0  0  0  0  0  0  0  0
   47.0980   31.9700   46.6420 C   0  0  1  0  0  0  0  0  0  0  0  0
   43.6780   36.4520   45.2930 H   0  0  0  0  0  0  0  0  0  0  0  0
   46.5790   34.7920   42.5650 H   0  0  0  0  0  0  0  0  0  0  0  0
   44.6600   31.5950   47.5490 H   0  0  0  0  0  0  0  0  0  0  0  0
   44.4780   33.3600   48.0520 H   0  0  0  0  0  0  0  0  0  0  0  0
   46.2050   33.0740   49.5870 H   0  0  0  0  0  0  0  0  0  0  0  0
   45.9970   31.3200   49.3800 H   0  0  0  0  0  0  0  0  0  0  0  0
   48.0530   31.2240   48.4040 H   0  0  0  0  0  0  0  0  0  0  0  0
   48.1330   33.0550   48.2320 H   0  0  0  0  0  0  0  0  0  0  0  0
   47.9260   32.2970   45.9800 H   0  0  0  0  0  0  0  0  0  0  0  0
   44.7550   36.7730   42.8280 N   0  0  0  0  0  0  0  0  0  0  0  0
   44.0860   36.6050   42.0290 H   0  0  0  0  0  0  0  0  0  0  0  0
   45.1550   37.7310   42.9330 H   0  0  0  0  0  0  0  0  0  0  0  0
   46.6280   30.2670   46.4090 S   0  0  0  0  0  0  0  0  0  0  0  0
   44.9060   30.9280   43.6190 O   0  0  0  0  0  0  0  0  0  0  0  0
   45.9170   30.1920   43.7450 C   0  0  0  0  0  0  0  0  0  0  0  0
   46.7790   29.6040   44.7880 C   0  0  1  0  0  3  0  0  0  0  0  0
   48.1360   29.6640   44.1470 C   0  0  0  0  0  3  0  0  0  0  0  0
   48.8830   28.9930   44.6110 H   0  0  0  0  0  0  0  0  0  0  0  0
   47.7870   29.0020   42.8050 C   0  0  0  0  0  3  0  0  0  0  0  0
   48.5430   29.1510   42.0390 H   0  0  0  0  0  0  0  0  0  0  0  0
   46.5220   29.6940   42.5320 N   0  0  0  0  0  0  0  0  0  0  0  0
   46.2060   29.7510   41.5390 H   0  0  0  0  0  0  0  0  0  0  0  0
  1 12  1  0  0  0  0
  1  6  1  0  0  0  0
  2  1  2  0  0  0  0
  3  2  1  0  0  0  0
  3  4  2  0  0  0  0
  4  5  1  0  0  0  0
  5  6  2  0  0  0  0
  5  7  1  0  0  0  0
  7 11  1  0  0  0  0
  7  8  1  0  0  0  0
  8 15  1  0  0  0  0
  8  9  1  0  0  0  0
  9 17  1  0  0  0  0
  9 16  1  0  0  0  0
 10 19  1  0  0  0  0
 10 18  1  0  0  0  0
 10  9  1  0  0  0  0
 11 20  1  6  0  0  0
 11 10  1  0  0  0  0
 13  3  1  0  0  0  0
 14  8  1  0  0  0  0
 21 23  1  0  0  0  0
 21  2  1  0  0  0  0
 22 21  1  0  0  0  0
 24 11  1  0  0  0  0
 25 26  2  0  0  0  0
 26 27  1  0  0  0  0
 27 24  1  1  0  0  0
 28 29  1  0  0  0  0
 28 27  1  0  0  0  0
 30 28  1  0  0  0  0
 31 30  1  0  0  0  0
 32 30  1  0  0  0  0
 32 26  1  0  0  0  0
 33 32  1  0  0  0  0
M  END
>  <minimizedAffinity>
-4.84516287

>  <minimizedRMSD>
0.950722933

$$$$
