
 OpenBabel03242520263D

 38 40  0  0  1  0  0  0  0  0999 V2000
   45.0970   35.5970   43.4910 C   0  0  0  0  0  0  0  0  0  0  0  0
   46.0220   34.5230   43.4890 C   0  0  0  0  0  0  0  0  0  0  0  0
   46.1890   33.8070   44.6630 C   0  0  0  0  0  0  0  0  0  0  0  0
   45.4660   34.1600   45.7590 N   0  0  0  0  0  0  0  0  0  0  0  0
   44.5900   35.1840   45.7430 C   0  0  0  0  0  0  0  0  0  0  0  0
   44.4110   35.8910   44.6190 N   0  0  0  0  0  0  0  0  0  0  0  0
   44.9550   36.1710   42.5720 H   0  0  0  0  0  0  0  0  0  0  0  0
   44.0260   35.4440   46.6300 H   0  0  0  0  0  0  0  0  0  0  0  0
   46.6980   34.2830   42.2630 N   0  0  0  0  0  0  0  0  0  0  0  0
   47.8480   35.0400   41.8240 C   0  0  0  0  0  0  0  0  0  0  0  0
   48.3840   34.4580   40.5470 C   0  0  0  0  0  0  0  0  0  0  0  0
   47.3840   34.2930   39.5390 N   0  0  0  0  0  0  0  0  0  0  0  0
   46.2020   33.6120   39.9670 C   0  0  0  0  0  0  0  0  0  0  0  0
   46.1890   33.2040   41.4080 C   0  0  0  0  0  0  0  0  0  0  0  0
   48.6480   34.9510   42.5880 H   0  0  0  0  0  0  0  0  0  0  0  0
   47.5300   36.0720   41.6440 H   0  0  0  0  0  0  0  0  0  0  0  0
   49.1680   35.1300   40.1360 H   0  0  0  0  0  0  0  0  0  0  0  0
   48.8350   33.4720   40.8330 H   0  0  0  0  0  0  0  0  0  0  0  0
   47.1030   35.2390   39.1970 H   0  0  0  0  0  0  0  0  0  0  0  0
   46.0800   32.7030   39.3420 H   0  0  0  0  0  0  0  0  0  0  0  0
   45.2670   34.2100   39.7560 H   0  0  0  0  0  0  0  0  0  0  0  0
   45.1440   32.9590   41.6730 H   0  0  0  0  0  0  0  0  0  0  0  0
   46.8010   32.2970   41.6070 H   0  0  0  0  0  0  0  0  0  0  0  0
   47.1060   32.7580   44.6280 O   0  0  0  0  0  0  0  0  0  0  0  0
   45.2220   30.9760   44.0730 O   0  0  0  0  0  0  0  0  0  0  0  0
   46.5280   31.1540   44.8390 P   0  0  1  0  0  0  0  0  0  0  0  0
   47.7110   30.0970   44.3040 O   0  0  0  0  0  0  0  0  0  0  0  0
   48.2560   29.8030   45.0770 H   0  0  0  0  0  0  0  0  0  0  0  0
   46.2110   30.9430   46.4970 O   0  0  0  0  0  0  0  0  0  0  0  0
   48.0030   28.5880   47.1580 O   0  0  0  0  0  0  0  0  0  0  0  0
   47.9260   29.7430   47.6810 C   0  0  0  0  0  0  0  0  0  0  0  0
   47.4460   31.0310   47.1350 C   0  0  2  0  0  3  0  0  0  0  0  0
   47.3310   31.8760   48.4060 C   0  0  0  0  0  3  0  0  0  0  0  0
   46.4500   31.5370   48.9610 H   0  0  0  0  0  0  0  0  0  0  0  0
   48.5710   31.3800   49.1610 C   0  0  0  0  0  3  0  0  0  0  0  0
   48.5950   31.7400   50.1940 H   0  0  0  0  0  0  0  0  0  0  0  0
   48.3590   29.9380   49.0430 N   0  0  0  0  0  0  0  0  0  0  0  0
   48.5230   29.2820   49.8620 H   0  0  0  0  0  0  0  0  0  0  0  0
  1  6  1  0  0  0  0
  2  1  2  0  0  0  0
  2  3  1  0  0  0  0
  3  4  2  0  0  0  0
  5  4  1  0  0  0  0
  5  8  1  0  0  0  0
  6  5  2  0  0  0  0
  7  1  1  0  0  0  0
  9  2  1  0  0  0  0
 10  9  1  0  0  0  0
 10 15  1  0  0  0  0
 11 18  1  0  0  0  0
 11 10  1  0  0  0  0
 12 13  1  0  0  0  0
 12 11  1  0  0  0  0
 13 14  1  0  0  0  0
 14 23  1  0  0  0  0
 14 22  1  0  0  0  0
 14  9  1  0  0  0  0
 16 10  1  0  0  0  0
 17 11  1  0  0  0  0
 19 12  1  0  0  0  0
 20 13  1  0  0  0  0
 21 13  1  0  0  0  0
 24  3  1  0  0  0  0
 24 26  1  0  0  0  0
 26 25  2  6  0  0  0
 26 29  1  0  0  0  0
 27 26  1  0  0  0  0
 27 28  1  0  0  0  0
 30 31  2  0  0  0  0
 31 37  1  0  0  0  0
 32 29  1  1  0  0  0
 32 31  1  0  0  0  0
 32 33  1  0  0  0  0
 33 34  1  0  0  0  0
 33 35  1  0  0  0  0
 35 36  1  0  0  0  0
 37 35  1  0  0  0  0
 37 38  1  0  0  0  0
M  END
>  <minimizedAffinity>
-5.2420435

>  <minimizedRMSD>
2.09476161

$$$$
