
 OpenBabel03242520263D

 38 40  0  0  1  0  0  0  0  0999 V2000
   45.1700   35.7760   43.3250 C   0  0  0  0  0  0  0  0  0  0  0  0
   45.9550   34.5970   43.3640 C   0  0  0  0  0  0  0  0  0  0  0  0
   45.9910   33.8790   44.5470 C   0  0  0  0  0  0  0  0  0  0  0  0
   45.2790   34.3310   45.6140 N   0  0  0  0  0  0  0  0  0  0  0  0
   44.5370   35.4540   45.5600 C   0  0  0  0  0  0  0  0  0  0  0  0
   44.4860   36.1650   44.4260 N   0  0  0  0  0  0  0  0  0  0  0  0
   45.1320   36.3530   42.3970 H   0  0  0  0  0  0  0  0  0  0  0  0
   43.9790   35.7920   46.4240 H   0  0  0  0  0  0  0  0  0  0  0  0
   46.6390   34.2620   42.1640 N   0  0  0  0  0  0  0  0  0  0  0  0
   47.8620   34.9020   41.7380 C   0  0  0  0  0  0  0  0  0  0  0  0
   48.3770   34.2370   40.4930 C   0  0  0  0  0  0  0  0  0  0  0  0
   47.3930   34.1310   39.4620 N   0  0  0  0  0  0  0  0  0  0  0  0
   46.1440   33.5690   39.8740 C   0  0  0  0  0  0  0  0  0  0  0  0
   46.0580   33.2080   41.3250 C   0  0  0  0  0  0  0  0  0  0  0  0
   48.6310   34.7660   42.5260 H   0  0  0  0  0  0  0  0  0  0  0  0
   47.6420   35.9520   41.5200 H   0  0  0  0  0  0  0  0  0  0  0  0
   49.2290   34.8250   40.0870 H   0  0  0  0  0  0  0  0  0  0  0  0
   48.7320   33.2240   40.8180 H   0  0  0  0  0  0  0  0  0  0  0  0
   47.2060   35.0880   39.0860 H   0  0  0  0  0  0  0  0  0  0  0  0
   45.9590   32.6560   39.2710 H   0  0  0  0  0  0  0  0  0  0  0  0
   45.2730   34.2400   39.6210 H   0  0  0  0  0  0  0  0  0  0  0  0
   44.9890   33.0630   41.5670 H   0  0  0  0  0  0  0  0  0  0  0  0
   46.5820   32.2560   41.5660 H   0  0  0  0  0  0  0  0  0  0  0  0
   46.7720   32.7240   44.5520 O   0  0  0  0  0  0  0  0  0  0  0  0
   45.4230   31.2570   46.3010 O   0  0  0  0  0  0  0  0  0  0  0  0
   46.8230   31.7730   45.9810 P   0  0  0  0  0  4  0  0  0  0  0  0
   47.9050   30.5190   45.7370 O   0  0  0  0  0  0  0  0  0  0  0  0
   48.7890   30.7790   46.1020 H   0  0  0  0  0  0  0  0  0  0  0  0
   47.3240   32.7870   47.2510 O   0  0  0  0  0  0  0  0  0  0  0  0
   48.4540   30.3830   48.7100 O   0  0  0  0  0  0  0  0  0  0  0  0
   47.2800   30.8680   48.6970 C   0  0  0  0  0  0  0  0  0  0  0  0
   46.7920   32.2350   48.4130 C   0  0  2  0  0  3  0  0  0  0  0  0
   45.2890   31.9930   48.2500 C   0  0  0  0  0  2  0  0  0  0  0  0
   45.1260   31.5030   47.2840 H   0  0  0  0  0  0  0  0  0  0  0  0
   45.0740   30.9410   49.3450 C   0  0  0  0  0  3  0  0  0  0  0  0
   44.0770   30.4930   49.2940 H   0  0  0  0  0  0  0  0  0  0  0  0
   46.1540   30.0170   48.9990 N   0  0  0  0  0  0  0  0  0  0  0  0
   46.0110   28.9640   49.0070 H   0  0  0  0  0  0  0  0  0  0  0  0
  1  2  2  0  0  0  0
  1  6  1  0  0  0  0
  2  3  1  0  0  0  0
  3 24  1  0  0  0  0
  3  4  2  0  0  0  0
  5  4  1  0  0  0  0
  5  8  1  0  0  0  0
  6  5  2  0  0  0  0
  7  1  1  0  0  0  0
  9  2  1  0  0  0  0
 10  9  1  0  0  0  0
 10 15  1  0  0  0  0
 11 18  1  0  0  0  0
 11 10  1  0  0  0  0
 12 13  1  0  0  0  0
 12 11  1  0  0  0  0
 13 14  1  0  0  0  0
 14 23  1  0  0  0  0
 14 22  1  0  0  0  0
 14  9  1  0  0  0  0
 16 10  1  0  0  0  0
 17 11  1  0  0  0  0
 19 12  1  0  0  0  0
 20 13  1  0  0  0  0
 21 13  1  0  0  0  0
 24 26  1  0  0  0  0
 25 34  1  0  0  0  0
 26 25  1  0  0  0  0
 26 29  1  0  0  0  0
 27 26  1  0  0  0  0
 27 28  1  0  0  0  0
 31 30  2  0  0  0  0
 31 37  1  0  0  0  0
 32 29  1  6  0  0  0
 32 31  1  0  0  0  0
 33 32  1  0  0  0  0
 33 35  1  0  0  0  0
 36 35  1  0  0  0  0
 37 38  1  0  0  0  0
 37 35  1  0  0  0  0
M  END
>  <minimizedAffinity>
-5.7153039

>  <minimizedRMSD>
0.883455455

$$$$
