
 OpenBabel03252507103D

 36 38  0  0  1  0  0  0  0  0999 V2000
   44.4720   35.6600   45.2540 C   0  0  0  0  0  0  0  0  0  0  0  0
   44.4900   35.5800   43.8490 C   0  0  0  0  0  0  0  0  0  0  0  0
   45.0840   34.4640   43.2870 C   0  0  0  0  0  0  0  0  0  0  0  0
   45.6090   33.5170   44.0880 N   0  0  0  0  0  0  0  0  0  0  0  0
   45.5850   33.6050   45.4220 C   0  0  0  0  0  0  0  0  0  0  0  0
   45.0100   34.6880   46.0090 N   0  0  0  0  0  0  0  0  0  0  0  0
   44.0070   36.5360   45.6850 H   0  0  0  0  0  0  0  0  0  0  0  0
   44.0450   36.3870   43.2730 H   0  0  0  0  0  0  0  0  0  0  0  0
   45.3480   32.3630   47.5890 C   0  0  1  0  0  0  0  0  0  0  0  0
   46.1530   32.6080   46.3470 C   0  0  1  0  0  0  0  0  0  0  0  0
   46.0440   31.2020   45.7170 C   0  0  0  0  0  0  0  0  0  0  0  0
   45.9370   30.3130   46.7390 O   0  0  0  0  0  0  0  0  0  0  0  0
   45.9040   30.9900   47.9550 C   0  0  0  0  0  0  0  0  0  0  0  0
   44.2760   32.2350   47.3280 H   0  0  0  0  0  0  0  0  0  0  0  0
   47.2020   32.8320   46.5660 H   0  0  0  0  0  0  0  0  0  0  0  0
   47.0140   31.0440   45.2000 H   0  0  0  0  0  0  0  0  0  0  0  0
   45.2430   31.1780   44.9600 H   0  0  0  0  0  0  0  0  0  0  0  0
   45.2010   30.4530   48.6230 H   0  0  0  0  0  0  0  0  0  0  0  0
   46.8930   31.0660   48.4290 H   0  0  0  0  0  0  0  0  0  0  0  0
   45.4860   33.3110   48.5580 O   0  0  0  0  0  0  0  0  0  0  0  0
   44.7490   33.2740   49.1940 H   0  0  0  0  0  0  0  0  0  0  0  0
   45.0950   34.3960   41.9000 O   0  0  0  0  0  0  0  0  0  0  0  0
   45.8350   31.9750   41.0780 O   0  0  0  0  0  0  0  0  0  0  0  0
   46.2580   33.4330   41.0950 P   0  0  1  0  0  0  0  0  0  0  0  0
   46.4780   34.0440   39.5550 O   0  0  0  0  0  0  0  0  0  0  0  0
   47.4060   34.3630   39.3690 H   0  0  0  0  0  0  0  0  0  0  0  0
   47.6910   33.5640   42.0040 O   0  0  0  0  0  0  0  0  0  0  0  0
   49.2860   32.3930   39.3700 O   0  0  0  0  0  0  0  0  0  0  0  0
   49.3530   32.9210   40.5230 C   0  0  0  0  0  0  0  0  0  0  0  0
   48.7470   34.0660   41.2790 C   0  0  2  0  0  3  0  0  0  0  0  0
   49.8830   34.5050   42.1810 C   0  0  0  0  0  3  0  0  0  0  0  0
   50.5450   35.1800   41.6120 H   0  0  0  0  0  0  0  0  0  0  0  0
   50.6330   33.2130   42.5190 C   0  0  0  0  0  3  0  0  0  0  0  0
   50.2890   32.8110   43.4840 H   0  0  0  0  0  0  0  0  0  0  0  0
   50.2450   32.3120   41.4510 N   0  0  0  0  0  0  0  0  0  0  0  0
   50.6630   31.3490   41.5000 H   0  0  0  0  0  0  0  0  0  0  0  0
  1  7  1  0  0  0  0
  1  6  1  0  0  0  0
  2  1  2  0  0  0  0
  3  2  1  0  0  0  0
  3  4  2  0  0  0  0
  4  5  1  0  0  0  0
  5  6  2  0  0  0  0
  5 10  1  0  0  0  0
  8  2  1  0  0  0  0
  9 14  1  6  0  0  0
  9 13  1  0  0  0  0
  9 20  1  0  0  0  0
 10 15  1  1  0  0  0
 10  9  1  0  0  0  0
 11 10  1  0  0  0  0
 11 12  1  0  0  0  0
 12 13  1  0  0  0  0
 13 19  1  0  0  0  0
 13 18  1  0  0  0  0
 16 11  1  0  0  0  0
 17 11  1  0  0  0  0
 20 21  1  0  0  0  0
 22  3  1  0  0  0  0
 24 23  2  6  0  0  0
 24 22  1  0  0  0  0
 24 27  1  0  0  0  0
 25 24  1  0  0  0  0
 26 25  1  0  0  0  0
 28 29  2  0  0  0  0
 29 30  1  0  0  0  0
 29 35  1  0  0  0  0
 30 27  1  1  0  0  0
 30 31  1  0  0  0  0
 31 33  1  0  0  0  0
 32 31  1  0  0  0  0
 33 34  1  0  0  0  0
 35 36  1  0  0  0  0
 35 33  1  0  0  0  0
M  END
>  <minimizedAffinity>
-5.53965044

>  <minimizedRMSD>
1.71867526

$$$$
