
 OpenBabel03242520263D

 38 40  0  0  1  0  0  0  0  0999 V2000
   45.1370   35.7060   43.2520 C   0  0  0  0  0  0  0  0  0  0  0  0
   46.0230   34.6000   43.2770 C   0  0  0  0  0  0  0  0  0  0  0  0
   46.1590   33.9040   44.4660 C   0  0  0  0  0  0  0  0  0  0  0  0
   45.4450   34.3060   45.5510 N   0  0  0  0  0  0  0  0  0  0  0  0
   44.6070   35.3600   45.5100 C   0  0  0  0  0  0  0  0  0  0  0  0
   44.4580   36.0490   44.3700 N   0  0  0  0  0  0  0  0  0  0  0  0
   45.0200   36.2650   42.3200 H   0  0  0  0  0  0  0  0  0  0  0  0
   44.0490   35.6600   46.3880 H   0  0  0  0  0  0  0  0  0  0  0  0
   46.6950   34.3090   42.0590 N   0  0  0  0  0  0  0  0  0  0  0  0
   47.8630   35.0270   41.6020 C   0  0  0  0  0  0  0  0  0  0  0  0
   48.3870   34.3960   40.3430 C   0  0  0  0  0  0  0  0  0  0  0  0
   47.3840   34.2270   39.3380 N   0  0  0  0  0  0  0  0  0  0  0  0
   46.1860   33.5850   39.7820 C   0  0  0  0  0  0  0  0  0  0  0  0
   46.1610   33.2190   41.2350 C   0  0  0  0  0  0  0  0  0  0  0  0
   48.6600   34.9400   42.3690 H   0  0  0  0  0  0  0  0  0  0  0  0
   47.5700   36.0600   41.3910 H   0  0  0  0  0  0  0  0  0  0  0  0
   49.1870   35.0380   39.9150 H   0  0  0  0  0  0  0  0  0  0  0  0
   48.8140   33.4080   40.6570 H   0  0  0  0  0  0  0  0  0  0  0  0
   47.1260   35.1690   38.9680 H   0  0  0  0  0  0  0  0  0  0  0  0
   46.0440   32.6620   39.1830 H   0  0  0  0  0  0  0  0  0  0  0  0
   45.2660   34.1990   39.5530 H   0  0  0  0  0  0  0  0  0  0  0  0
   45.1110   33.0060   41.5040 H   0  0  0  0  0  0  0  0  0  0  0  0
   46.7520   32.3040   41.4600 H   0  0  0  0  0  0  0  0  0  0  0  0
   47.0380   32.8220   44.4580 O   0  0  0  0  0  0  0  0  0  0  0  0
   45.3740   30.9060   43.6890 O   0  0  0  0  0  0  0  0  0  0  0  0
   46.4100   31.2510   44.7540 P   0  0  1  0  0  0  0  0  0  0  0  0
   47.6870   30.1670   44.7520 O   0  0  0  0  0  0  0  0  0  0  0  0
   47.9870   30.0200   45.6840 H   0  0  0  0  0  0  0  0  0  0  0  0
   45.6330   31.2900   46.2670 O   0  0  0  0  0  0  0  0  0  0  0  0
   45.0090   29.4330   48.5800 O   0  0  0  0  0  0  0  0  0  0  0  0
   45.9590   30.2600   48.4140 C   0  0  0  0  0  0  0  0  0  0  0  0
   46.5650   30.8160   47.1860 C   0  0  2  0  0  3  0  0  0  0  0  0
   47.3940   31.9720   47.7520 C   0  0  0  0  0  3  0  0  0  0  0  0
   46.7070   32.7770   48.0340 H   0  0  0  0  0  0  0  0  0  0  0  0
   47.8990   31.3200   49.0460 C   0  0  0  0  0  3  0  0  0  0  0  0
   48.3880   32.0430   49.7060 H   0  0  0  0  0  0  0  0  0  0  0  0
   46.6300   30.8130   49.5660 N   0  0  0  0  0  0  0  0  0  0  0  0
   46.3750   30.8960   50.5940 H   0  0  0  0  0  0  0  0  0  0  0  0
  1  2  2  0  0  0  0
  1  6  1  0  0  0  0
  2  3  1  0  0  0  0
  3  4  2  0  0  0  0
  5  4  1  0  0  0  0
  5  8  1  0  0  0  0
  6  5  2  0  0  0  0
  7  1  1  0  0  0  0
  9  2  1  0  0  0  0
 10  9  1  0  0  0  0
 10 15  1  0  0  0  0
 11 18  1  0  0  0  0
 11 10  1  0  0  0  0
 12 13  1  0  0  0  0
 12 11  1  0  0  0  0
 13 14  1  0  0  0  0
 14 23  1  0  0  0  0
 14 22  1  0  0  0  0
 14  9  1  0  0  0  0
 16 10  1  0  0  0  0
 17 11  1  0  0  0  0
 19 12  1  0  0  0  0
 20 13  1  0  0  0  0
 21 13  1  0  0  0  0
 24  3  1  0  0  0  0
 24 26  1  0  0  0  0
 26 25  2  6  0  0  0
 26 29  1  0  0  0  0
 27 26  1  0  0  0  0
 27 28  1  0  0  0  0
 31 30  2  0  0  0  0
 31 37  1  0  0  0  0
 32 29  1  6  0  0  0
 32 33  1  0  0  0  0
 32 31  1  0  0  0  0
 33 34  1  0  0  0  0
 33 35  1  0  0  0  0
 35 37  1  0  0  0  0
 35 36  1  0  0  0  0
 37 38  1  0  0  0  0
M  END
>  <minimizedAffinity>
-5.55987263

>  <minimizedRMSD>
1.57750487

$$$$
