
 OpenBabel03252507103D

 36 38  0  0  1  0  0  0  0  0999 V2000
   44.6570   35.2630   45.4320 C   0  0  0  0  0  0  0  0  0  0  0  0
   44.6000   35.4430   44.0380 C   0  0  0  0  0  0  0  0  0  0  0  0
   45.2650   34.5180   43.2530 C   0  0  0  0  0  0  0  0  0  0  0  0
   45.9280   33.5020   43.8410 N   0  0  0  0  0  0  0  0  0  0  0  0
   45.9730   33.3430   45.1680 C   0  0  0  0  0  0  0  0  0  0  0  0
   45.3310   34.2340   45.9700 N   0  0  0  0  0  0  0  0  0  0  0  0
   44.1340   35.9920   46.0380 H   0  0  0  0  0  0  0  0  0  0  0  0
   44.0450   36.2900   43.6410 H   0  0  0  0  0  0  0  0  0  0  0  0
   46.6650   32.3460   47.3640 C   0  0  1  0  0  0  0  0  0  0  0  0
   46.6900   32.2610   45.8660 C   0  0  1  0  0  0  0  0  0  0  0  0
   45.9140   30.9360   45.6950 C   0  0  0  0  0  0  0  0  0  0  0  0
   46.1700   30.1780   46.7930 O   0  0  0  0  0  0  0  0  0  0  0  0
   46.9740   30.8860   47.6810 C   0  0  0  0  0  0  0  0  0  0  0  0
   45.6330   32.5570   47.7150 H   0  0  0  0  0  0  0  0  0  0  0  0
   47.7050   32.1470   45.4710 H   0  0  0  0  0  0  0  0  0  0  0  0
   46.3700   30.4520   44.8060 H   0  0  0  0  0  0  0  0  0  0  0  0
   44.8530   31.1360   45.4730 H   0  0  0  0  0  0  0  0  0  0  0  0
   46.6450   30.6360   48.7100 H   0  0  0  0  0  0  0  0  0  0  0  0
   48.0440   30.6620   47.5610 H   0  0  0  0  0  0  0  0  0  0  0  0
   47.5370   33.2440   47.9020 O   0  0  0  0  0  0  0  0  0  0  0  0
   47.2850   33.4760   48.8140 H   0  0  0  0  0  0  0  0  0  0  0  0
   45.2010   34.7060   41.8790 O   0  0  0  0  0  0  0  0  0  0  0  0
   44.7050   32.2260   41.0460 O   0  0  0  0  0  0  0  0  0  0  0  0
   45.6060   33.4270   40.8170 P   0  0  1  0  0  0  0  0  0  0  0  0
   45.5150   33.9940   39.2460 O   0  0  0  0  0  0  0  0  0  0  0  0
   46.3790   33.9610   38.7480 H   0  0  0  0  0  0  0  0  0  0  0  0
   47.2020   32.9790   41.2010 O   0  0  0  0  0  0  0  0  0  0  0  0
   50.1260   31.9710   40.0690 O   0  0  0  0  0  0  0  0  0  0  0  0
   49.4450   32.8860   40.6230 C   0  0  0  0  0  0  0  0  0  0  0  0
   48.1440   33.6080   40.4200 C   0  0  2  0  0  3  0  0  0  0  0  0
   48.4540   35.0000   40.9330 C   0  0  0  0  0  3  0  0  0  0  0  0
   48.9420   35.5740   40.1250 H   0  0  0  0  0  0  0  0  0  0  0  0
   49.4450   34.7810   42.0790 C   0  0  0  0  0  3  0  0  0  0  0  0
   48.9160   34.7610   43.0440 H   0  0  0  0  0  0  0  0  0  0  0  0
   49.9950   33.4690   41.8000 N   0  0  0  0  0  0  0  0  0  0  0  0
   50.7110   33.1250   42.4880 H   0  0  0  0  0  0  0  0  0  0  0  0
  1  6  1  0  0  0  0
  1  7  1  0  0  0  0
  2  1  2  0  0  0  0
  3  4  2  0  0  0  0
  3  2  1  0  0  0  0
  4  5  1  0  0  0  0
  5 10  1  0  0  0  0
  5  6  2  0  0  0  0
  8  2  1  0  0  0  0
  9 13  1  0  0  0  0
  9 14  1  1  0  0  0
  9 20  1  0  0  0  0
 10 15  1  6  0  0  0
 10  9  1  0  0  0  0
 11 10  1  0  0  0  0
 11 12  1  0  0  0  0
 12 13  1  0  0  0  0
 13 18  1  0  0  0  0
 16 11  1  0  0  0  0
 17 11  1  0  0  0  0
 19 13  1  0  0  0  0
 20 21  1  0  0  0  0
 22  3  1  0  0  0  0
 24 23  2  1  0  0  0
 24 27  1  0  0  0  0
 24 22  1  0  0  0  0
 25 24  1  0  0  0  0
 26 25  1  0  0  0  0
 28 29  2  0  0  0  0
 29 35  1  0  0  0  0
 30 29  1  0  0  0  0
 30 31  1  0  0  0  0
 30 27  1  1  0  0  0
 31 33  1  0  0  0  0
 32 31  1  0  0  0  0
 33 34  1  0  0  0  0
 35 33  1  0  0  0  0
 35 36  1  0  0  0  0
M  END
>  <minimizedAffinity>
-5.6691761

>  <minimizedRMSD>
2.31661129

$$$$
