
 OpenBabel03252507103D

 36 38  0  0  1  0  0  0  0  0999 V2000
   44.4510   35.4120   44.3300 C   0  0  0  0  0  0  0  0  0  0  0  0
   45.1640   35.9280   43.2330 C   0  0  0  0  0  0  0  0  0  0  0  0
   46.3020   35.2460   42.8400 C   0  0  0  0  0  0  0  0  0  0  0  0
   46.6760   34.1380   43.5100 N   0  0  0  0  0  0  0  0  0  0  0  0
   45.9890   33.6590   44.5520 C   0  0  0  0  0  0  0  0  0  0  0  0
   44.8650   34.3040   44.9640 N   0  0  0  0  0  0  0  0  0  0  0  0
   43.5630   35.9520   44.6300 H   0  0  0  0  0  0  0  0  0  0  0  0
   44.7970   36.8290   42.7460 H   0  0  0  0  0  0  0  0  0  0  0  0
   45.8530   32.4410   46.7420 C   0  0  1  0  0  0  0  0  0  0  0  0
   46.3550   32.4600   45.3280 C   0  0  1  0  0  0  0  0  0  0  0  0
   45.5780   31.2400   44.7870 C   0  0  0  0  0  0  0  0  0  0  0  0
   45.4050   30.3830   45.8280 O   0  0  0  0  0  0  0  0  0  0  0  0
   45.9300   30.9380   46.9910 C   0  0  0  0  0  0  0  0  0  0  0  0
   44.7820   32.7340   46.7680 H   0  0  0  0  0  0  0  0  0  0  0  0
   47.4320   32.2690   45.2650 H   0  0  0  0  0  0  0  0  0  0  0  0
   46.2590   30.7740   44.0440 H   0  0  0  0  0  0  0  0  0  0  0  0
   44.6650   31.5650   44.2630 H   0  0  0  0  0  0  0  0  0  0  0  0
   45.2670   30.6510   47.8330 H   0  0  0  0  0  0  0  0  0  0  0  0
   46.9600   30.6130   47.1940 H   0  0  0  0  0  0  0  0  0  0  0  0
   46.5690   33.2030   47.6150 O   0  0  0  0  0  0  0  0  0  0  0  0
   46.0540   33.3940   48.4200 H   0  0  0  0  0  0  0  0  0  0  0  0
   46.9960   35.7640   41.7560 O   0  0  0  0  0  0  0  0  0  0  0  0
   48.7990   35.5370   39.8090 O   0  0  0  0  0  0  0  0  0  0  0  0
   48.3650   34.9430   41.1380 P   0  0  1  0  0  0  0  0  0  0  0  0
   49.5810   35.0040   42.2840 O   0  0  0  0  0  0  0  0  0  0  0  0
   49.8710   34.1110   42.6220 H   0  0  0  0  0  0  0  0  0  0  0  0
   47.8720   33.3360   40.8720 O   0  0  0  0  0  0  0  0  0  0  0  0
   51.0380   32.9050   41.6730 O   0  0  0  0  0  0  0  0  0  0  0  0
   49.9350   32.3820   41.3220 C   0  0  0  0  0  0  0  0  0  0  0  0
   48.4860   32.4350   41.7100 C   0  0  2  0  0  3  0  0  0  0  0  0
   48.0200   31.0180   41.4420 C   0  0  0  0  0  3  0  0  0  0  0  0
   48.2710   30.3920   42.3170 H   0  0  0  0  0  0  0  0  0  0  0  0
   48.8390   30.5610   40.2320 C   0  0  0  0  0  3  0  0  0  0  0  0
   48.2650   30.7110   39.3030 H   0  0  0  0  0  0  0  0  0  0  0  0
   49.9820   31.4520   40.2460 N   0  0  0  0  0  0  0  0  0  0  0  0
   50.6820   31.3000   39.4760 H   0  0  0  0  0  0  0  0  0  0  0  0
  1  7  1  0  0  0  0
  1  6  1  0  0  0  0
  2  1  2  0  0  0  0
  3  2  1  0  0  0  0
  3  4  2  0  0  0  0
  4  5  1  0  0  0  0
  5  6  2  0  0  0  0
  5 10  1  0  0  0  0
  8  2  1  0  0  0  0
  9 14  1  1  0  0  0
  9 13  1  0  0  0  0
  9 20  1  0  0  0  0
 10 15  1  6  0  0  0
 10  9  1  0  0  0  0
 11 10  1  0  0  0  0
 11 12  1  0  0  0  0
 12 13  1  0  0  0  0
 13 19  1  0  0  0  0
 13 18  1  0  0  0  0
 16 11  1  0  0  0  0
 17 11  1  0  0  0  0
 20 21  1  0  0  0  0
 22  3  1  0  0  0  0
 24 23  2  6  0  0  0
 24 22  1  0  0  0  0
 24 25  1  0  0  0  0
 25 26  1  0  0  0  0
 27 24  1  0  0  0  0
 29 28  2  0  0  0  0
 29 30  1  0  0  0  0
 30 27  1  6  0  0  0
 31 30  1  0  0  0  0
 31 32  1  0  0  0  0
 33 35  1  0  0  0  0
 33 31  1  0  0  0  0
 34 33  1  0  0  0  0
 35 29  1  0  0  0  0
 36 35  1  0  0  0  0
M  END
>  <minimizedAffinity>
-4.42577124

>  <minimizedRMSD>
1.84491193

$$$$
