
 OpenBabel03252502183D

 36 38  0  0  1  0  0  0  0  0999 V2000
   46.5600   34.3030   41.9660 C   0  0  0  0  0  0  0  0  0  0  0  0
   47.1660   33.0530   41.7950 C   0  0  0  0  0  0  0  0  0  0  0  0
   48.5380   32.9890   41.6320 C   0  0  0  0  0  0  0  0  0  0  0  0
   49.2180   34.1620   41.6470 N   0  0  0  0  0  0  0  0  0  0  0  0
   48.6220   35.3550   41.8120 C   0  0  0  0  0  0  0  0  0  0  0  0
   47.2910   35.4270   41.9720 N   0  0  0  0  0  0  0  0  0  0  0  0
   45.4960   34.3900   42.0970 H   0  0  0  0  0  0  0  0  0  0  0  0
   49.3850   36.1310   41.7850 H   0  0  0  0  0  0  0  0  0  0  0  0
   49.8640   31.1710   42.6760 C   0  0  2  0  0  0  0  0  0  0  0  0
   49.1560   31.6690   41.3720 C   0  0  2  0  0  0  0  0  0  0  0  0
   50.2980   31.7150   40.4350 C   0  0  0  0  0  0  0  0  0  0  0  0
   51.4410   31.2720   41.1000 O   0  0  0  0  0  0  0  0  0  0  0  0
   50.9440   30.3230   42.0070 C   0  0  0  0  0  0  0  0  0  0  0  0
   50.2760   31.9920   43.2480 H   0  0  0  0  0  0  0  0  0  0  0  0
   48.3980   30.8980   41.2240 H   0  0  0  0  0  0  0  0  0  0  0  0
   50.1640   31.0820   39.5270 H   0  0  0  0  0  0  0  0  0  0  0  0
   50.4960   32.7490   40.0440 H   0  0  0  0  0  0  0  0  0  0  0  0
   50.4360   29.5210   41.4240 H   0  0  0  0  0  0  0  0  0  0  0  0
   51.7040   29.9730   42.7050 H   0  0  0  0  0  0  0  0  0  0  0  0
   49.0050   30.3480   43.4110 O   0  0  0  0  0  0  0  0  0  0  0  0
   48.6550   29.6750   42.7810 H   0  0  0  0  0  0  0  0  0  0  0  0
   46.3250   31.9340   41.8060 O   0  0  0  0  0  0  0  0  0  0  0  0
   46.0250   31.9400   44.4040 O   0  0  0  0  0  0  0  0  0  0  0  0
   45.3610   31.5360   43.1400 P   0  0  1  0  0  0  0  0  0  0  0  0
   43.8660   32.3310   43.0610 O   0  0  0  0  0  0  0  0  0  0  0  0
   43.1300   31.7180   42.8490 H   0  0  0  0  0  0  0  0  0  0  0  0
   45.0760   29.8570   43.1520 O   0  0  0  0  0  0  0  0  0  0  0  0
   42.3690   29.0640   41.9260 O   0  0  0  0  0  0  0  0  0  0  0  0
   43.0360   28.6440   42.9190 C   0  0  0  0  0  0  0  0  0  0  0  0
   43.9020   29.5240   43.7580 C   0  0  1  0  0  3  0  0  0  0  0  0
   44.2430   28.5670   44.9000 C   0  0  0  0  0  3  0  0  0  0  0  0
   45.2260   28.7540   45.3350 H   0  0  0  0  0  0  0  0  0  0  0  0
   44.3270   27.2170   44.1830 C   0  0  0  0  0  3  0  0  0  0  0  0
   44.3610   26.3780   44.8770 H   0  0  0  0  0  0  0  0  0  0  0  0
   43.0830   27.2870   43.4080 N   0  0  0  0  0  0  0  0  0  0  0  0
   42.3720   26.5440   43.2310 H   0  0  0  0  0  0  0  0  0  0  0  0
  1  6  1  0  0  0  0
  1  7  1  0  0  0  0
  2 22  1  0  0  0  0
  2  1  2  0  0  0  0
  3  4  2  0  0  0  0
  3  2  1  0  0  0  0
  4  5  1  0  0  0  0
  5  6  2  0  0  0  0
  8  5  1  0  0  0  0
  9 14  1  1  0  0  0
  9 20  1  0  0  0  0
 10 15  1  6  0  0  0
 10  3  1  0  0  0  0
 10  9  1  0  0  0  0
 11 12  1  0  0  0  0
 11 10  1  0  0  0  0
 12 13  1  0  0  0  0
 13  9  1  0  0  0  0
 13 19  1  0  0  0  0
 16 11  1  0  0  0  0
 17 11  1  0  0  0  0
 18 13  1  0  0  0  0
 21 20  1  0  0  0  0
 22 24  1  0  0  0  0
 24 27  1  0  0  0  0
 24 23  2  1  0  0  0
 25 24  1  0  0  0  0
 26 25  1  0  0  0  0
 28 29  2  0  0  0  0
 29 35  1  0  0  0  0
 29 30  1  0  0  0  0
 30 27  1  6  0  0  0
 30 31  1  0  0  0  0
 31 32  1  0  0  0  0
 33 34  1  0  0  0  0
 33 31  1  0  0  0  0
 35 33  1  0  0  0  0
 36 35  1  0  0  0  0
M  END
>  <minimizedAffinity>
-3.16352844

>  <minimizedRMSD>
6.01869678

$$$$
