
 OpenBabel03242515363D

 33 36  0  0  1  0  0  0  0  0999 V2000
   44.5990   34.4390   42.4190 C   0  0  0  0  0  0  0  0  0  0  0  0
   44.9470   33.1930   42.9130 C   0  0  0  0  0  0  0  0  0  0  0  0
   45.2910   33.1300   44.2790 C   0  0  0  0  0  0  0  0  0  0  0  0
   45.2680   34.2470   45.0190 N   0  0  0  0  0  0  0  0  0  0  0  0
   44.9200   35.4470   44.4920 C   0  0  0  0  0  0  0  0  0  0  0  0
   44.5930   35.5080   43.1960 N   0  0  0  0  0  0  0  0  0  0  0  0
   44.9780   32.2790   42.3540 H   0  0  0  0  0  0  0  0  0  0  0  0
   45.5760   32.1880   44.7360 H   0  0  0  0  0  0  0  0  0  0  0  0
   44.1700   34.4420   40.6580 S   0  0  0  0  0  0  0  0  0  0  0  0
   41.6620   35.0830   41.3710 C   0  0  0  0  0  0  0  0  0  0  0  0
   42.3850   34.3330   40.4670 C   0  0  0  0  0  0  0  0  0  0  0  0
   41.7650   33.5750   39.5100 C   0  0  0  0  0  0  0  0  0  0  0  0
   40.3920   33.5250   39.4050 C   0  0  0  0  0  0  0  0  0  0  0  0
   39.6500   34.2850   40.3220 C   0  0  0  0  0  0  0  0  0  0  0  0
   40.2630   35.0520   41.2880 C   0  0  0  0  0  0  0  0  0  0  0  0
   38.2770   34.0710   40.0120 O   0  0  0  0  0  0  0  0  0  0  0  0
   38.2390   32.9190   39.2000 C   0  0  0  0  0  0  0  0  0  0  0  0
   39.5000   32.8600   38.5540 O   0  0  0  0  0  0  0  0  0  0  0  0
   42.0230   35.7210   42.1700 H   0  0  0  0  0  0  0  0  0  0  0  0
   42.3820   33.0070   38.8280 H   0  0  0  0  0  0  0  0  0  0  0  0
   39.6300   35.6220   41.9730 H   0  0  0  0  0  0  0  0  0  0  0  0
   37.4790   33.0480   38.3990 H   0  0  0  0  0  0  0  0  0  0  0  0
   37.9830   32.0010   39.7610 H   0  0  0  0  0  0  0  0  0  0  0  0
   44.8660   36.6440   45.1690 O   0  0  0  0  0  0  0  0  0  0  0  0
   46.0450   37.2630   42.7950 O   0  0  0  0  0  0  0  0  0  0  0  0
   45.7620   38.2120   43.5790 C   0  0  0  0  0  0  0  0  0  0  0  0
   44.7300   37.9050   44.6110 C   0  0  2  0  0  3  0  0  0  0  0  0
   44.9460   39.0350   45.5910 C   0  0  0  0  0  3  0  0  0  0  0  0
   44.0520   39.2710   46.1860 H   0  0  0  0  0  0  0  0  0  0  0  0
   45.1740   40.1950   44.6140 C   0  0  0  0  0  3  0  0  0  0  0  0
   45.5260   41.0890   45.1280 H   0  0  0  0  0  0  0  0  0  0  0  0
   46.1920   39.5780   43.7510 N   0  0  0  0  0  0  0  0  0  0  0  0
   47.0810   39.8080   43.2530 H   0  0  0  0  0  0  0  0  0  0  0  0
  1  2  2  0  0  0  0
  1  6  1  0  0  0  0
  2  3  1  0  0  0  0
  3  8  1  0  0  0  0
  3  4  2  0  0  0  0
  5  4  1  0  0  0  0
  5 24  1  0  0  0  0
  6  5  2  0  0  0  0
  7  2  1  0  0  0  0
  9  1  1  0  0  0  0
 10 19  1  0  0  0  0
 11  9  1  0  0  0  0
 11 10  2  0  0  0  0
 12 11  1  0  0  0  0
 13 12  2  0  0  0  0
 13 14  1  0  0  0  0
 14 15  2  0  0  0  0
 15 10  1  0  0  0  0
 15 21  1  0  0  0  0
 16 14  1  0  0  0  0
 17 23  1  0  0  0  0
 17 16  1  0  0  0  0
 18 17  1  0  0  0  0
 18 13  1  0  0  0  0
 20 12  1  0  0  0  0
 22 17  1  0  0  0  0
 25 26  2  0  0  0  0
 26 32  1  0  0  0  0
 26 27  1  0  0  0  0
 27 24  1  1  0  0  0
 27 28  1  0  0  0  0
 28 29  1  0  0  0  0
 30 31  1  0  0  0  0
 30 28  1  0  0  0  0
 32 30  1  0  0  0  0
 33 32  1  0  0  0  0
M  END
>  <minimizedAffinity>
-1.84312105

>  <minimizedRMSD>
1.63406825

$$$$
