
 OpenBabel03252507373D

 38 42  0  0  1  0  0  0  0  0999 V2000
   44.8620   28.9040   43.3460 C   0  0  0  0  0  0  0  0  0  0  0  0
   43.8360   29.5420   42.6190 C   0  0  0  0  0  0  0  0  0  0  0  0
   42.5780   29.5740   43.2030 C   0  0  0  0  0  0  0  0  0  0  0  0
   42.3920   29.0060   44.4150 N   0  0  0  0  0  0  0  0  0  0  0  0
   43.3950   28.4010   45.0920 C   0  0  0  0  0  0  0  0  0  0  0  0
   44.6120   28.3550   44.5550 N   0  0  0  0  0  0  0  0  0  0  0  0
   43.9740   29.9880   41.6680 H   0  0  0  0  0  0  0  0  0  0  0  0
   43.2280   27.9530   46.0590 H   0  0  0  0  0  0  0  0  0  0  0  0
   40.2550   29.4340   42.4670 C   0  0  0  0  0  0  0  0  0  0  0  0
   41.4120   30.1950   42.5840 C   0  0  0  0  0  0  0  0  0  0  0  0
   41.3960   31.4860   42.1130 C   0  0  0  0  0  0  0  0  0  0  0  0
   40.2810   32.0590   41.5310 C   0  0  0  0  0  0  0  0  0  0  0  0
   40.0360   33.2710   41.0120 N   0  0  0  0  0  0  0  0  0  0  0  0
   38.7220   33.2710   40.5690 C   0  0  0  0  0  0  0  0  0  0  0  0
   38.2000   32.0670   40.8260 N   0  0  0  0  0  0  0  0  0  0  0  0
   39.1330   31.3050   41.4150 C   0  0  0  0  0  0  0  0  0  0  0  0
   39.1260   30.0000   41.8830 C   0  0  0  0  0  0  0  0  0  0  0  0
   40.1450   28.4170   42.7970 H   0  0  0  0  0  0  0  0  0  0  0  0
   42.3220   32.0620   42.2180 H   0  0  0  0  0  0  0  0  0  0  0  0
   40.7640   34.0290   40.9850 H   0  0  0  0  0  0  0  0  0  0  0  0
   38.3690   34.1930   40.1190 H   0  0  0  0  0  0  0  0  0  0  0  0
   38.1970   29.4400   41.7710 H   0  0  0  0  0  0  0  0  0  0  0  0
   46.1280   28.8510   42.7970 O   0  0  0  0  0  0  0  0  0  0  0  0
   46.8420   30.0070   42.4980 C   0  0  0  0  0  0  0  0  0  0  0  0
   47.9980   29.8560   43.1990 C   0  0  0  0  0  0  0  0  0  0  0  0
   48.9010   31.4560   42.7390 S   0  0  0  0  0  0  0  0  0  0  0  0
   47.4290   31.9870   41.6500 C   0  0  0  0  0  0  0  0  0  0  0  0
   46.7610   31.1190   41.8050 N   0  0  0  0  0  0  0  0  0  0  0  0
   48.6330   29.2920   43.8650 H   0  0  0  0  0  0  0  0  0  0  0  0
   48.0950   34.6240   42.8480 O   0  0  0  0  0  0  0  0  0  0  0  0
   47.9840   34.3250   41.6300 C   0  0  0  0  0  0  0  0  0  0  0  0
   47.3600   33.2390   40.8800 C   0  0  1  0  0  3  0  0  0  0  0  0
   48.2570   33.1480   39.6610 C   0  0  0  0  0  3  0  0  0  0  0  0
   47.8150   32.5510   38.8480 H   0  0  0  0  0  0  0  0  0  0  0  0
   48.3590   34.6290   39.3070 C   0  0  0  0  0  3  0  0  0  0  0  0
   49.1670   34.8590   38.6150 H   0  0  0  0  0  0  0  0  0  0  0  0
   48.5770   35.1910   40.6410 N   0  0  0  0  0  0  0  0  0  0  0  0
   49.0960   36.0950   40.7880 H   0  0  0  0  0  0  0  0  0  0  0  0
  1  6  1  0  0  0  0
  2  3  1  0  0  0  0
  2  1  2  0  0  0  0
  3  4  2  0  0  0  0
  4  5  1  0  0  0  0
  5  8  1  0  0  0  0
  6  5  2  0  0  0  0
  7  2  1  0  0  0  0
  9 10  1  0  0  0  0
  9 18  1  0  0  0  0
 10  3  1  0  0  0  0
 11 19  1  0  0  0  0
 11 10  2  0  0  0  0
 12 11  1  0  0  0  0
 13 12  1  0  0  0  0
 14 15  2  0  0  0  0
 14 13  1  0  0  0  0
 15 16  1  0  0  0  0
 16 12  2  0  0  0  0
 16 17  1  0  0  0  0
 17  9  2  0  0  0  0
 20 13  1  0  0  0  0
 21 14  1  0  0  0  0
 22 17  1  0  0  0  0
 23  1  1  0  0  0  0
 24 23  1  0  0  0  0
 24 25  2  0  0  0  0
 25 29  1  0  0  0  0
 26 25  1  0  0  0  0
 27 28  2  0  0  0  0
 27 26  1  0  0  0  0
 28 24  1  0  0  0  0
 31 30  2  0  0  0  0
 32 31  1  0  0  0  0
 32 27  1  1  0  0  0
 33 32  1  0  0  0  0
 34 33  1  0  0  0  0
 35 33  1  0  0  0  0
 35 37  1  0  0  0  0
 36 35  1  0  0  0  0
 37 38  1  0  0  0  0
 37 31  1  0  0  0  0
M  END
>  <minimizedAffinity>
-4.32437897

>  <minimizedRMSD>
7.99864483

$$$$
