
 OpenBabel03252507373D

 38 42  0  0  1  0  0  0  0  0999 V2000
   45.6050   34.7590   43.4920 C   0  0  0  0  0  0  0  0  0  0  0  0
   46.3150   33.6970   44.0900 C   0  0  0  0  0  0  0  0  0  0  0  0
   46.1100   33.4890   45.4460 C   0  0  0  0  0  0  0  0  0  0  0  0
   45.2590   34.2920   46.1220 N   0  0  0  0  0  0  0  0  0  0  0  0
   44.5890   35.3030   45.5230 C   0  0  0  0  0  0  0  0  0  0  0  0
   44.7670   35.5260   44.2230 N   0  0  0  0  0  0  0  0  0  0  0  0
   46.9850   33.0640   43.5670 H   0  0  0  0  0  0  0  0  0  0  0  0
   43.9130   35.9340   46.0790 H   0  0  0  0  0  0  0  0  0  0  0  0
   47.0090   32.6670   47.5610 C   0  0  0  0  0  0  0  0  0  0  0  0
   46.7660   32.4350   46.2130 C   0  0  0  0  0  0  0  0  0  0  0  0
   47.1540   31.2310   45.6770 C   0  0  0  0  0  0  0  0  0  0  0  0
   47.7720   30.2430   46.4190 C   0  0  0  0  0  0  0  0  0  0  0  0
   48.2280   29.0180   46.1190 N   0  0  0  0  0  0  0  0  0  0  0  0
   48.7590   28.4800   47.2810 C   0  0  0  0  0  0  0  0  0  0  0  0
   48.6140   29.3830   48.2570 N   0  0  0  0  0  0  0  0  0  0  0  0
   48.0140   30.4720   47.7560 C   0  0  0  0  0  0  0  0  0  0  0  0
   47.6310   31.6800   48.3190 C   0  0  0  0  0  0  0  0  0  0  0  0
   46.7530   33.5660   48.0920 H   0  0  0  0  0  0  0  0  0  0  0  0
   46.9500   31.0760   44.6110 H   0  0  0  0  0  0  0  0  0  0  0  0
   48.1580   28.6130   45.1510 H   0  0  0  0  0  0  0  0  0  0  0  0
   49.1720   27.4800   47.2000 H   0  0  0  0  0  0  0  0  0  0  0  0
   47.8410   31.8190   49.3800 H   0  0  0  0  0  0  0  0  0  0  0  0
   45.7830   34.9980   42.1440 O   0  0  0  0  0  0  0  0  0  0  0  0
   44.8890   34.5160   41.1930 C   0  0  0  0  0  0  0  0  0  0  0  0
   45.6780   33.8000   40.3480 C   0  0  0  0  0  0  0  0  0  0  0  0
   44.3930   33.1860   39.0990 S   0  0  0  0  0  0  0  0  0  0  0  0
   43.0140   34.0890   40.0580 C   0  0  0  0  0  0  0  0  0  0  0  0
   43.6150   34.5330   40.8740 N   0  0  0  0  0  0  0  0  0  0  0  0
   46.6440   33.4210   40.0500 H   0  0  0  0  0  0  0  0  0  0  0  0
   41.0330   32.2680   41.3180 O   0  0  0  0  0  0  0  0  0  0  0  0
   40.8180   33.2990   40.6290 C   0  0  0  0  0  0  0  0  0  0  0  0
   41.5920   34.0930   39.6810 C   0  0  1  0  0  3  0  0  0  0  0  0
   41.0070   35.4780   39.8840 C   0  0  0  0  0  3  0  0  0  0  0  0
   41.2850   36.1820   39.0830 H   0  0  0  0  0  0  0  0  0  0  0  0
   39.5200   35.1320   39.8640 C   0  0  0  0  0  3  0  0  0  0  0  0
   38.8820   35.9240   40.2530 H   0  0  0  0  0  0  0  0  0  0  0  0
   39.5280   33.9400   40.7130 N   0  0  0  0  0  0  0  0  0  0  0  0
   38.6870   33.6500   41.2740 H   0  0  0  0  0  0  0  0  0  0  0  0
  1  2  2  0  0  0  0
  1  6  1  0  0  0  0
  2  3  1  0  0  0  0
  3  4  2  0  0  0  0
  3 10  1  0  0  0  0
  5  8  1  0  0  0  0
  5  4  1  0  0  0  0
  6  5  2  0  0  0  0
  7  2  1  0  0  0  0
  9 18  1  0  0  0  0
  9 17  1  0  0  0  0
 10  9  2  0  0  0  0
 11 10  1  0  0  0  0
 11 12  2  0  0  0  0
 12 16  1  0  0  0  0
 13 12  1  0  0  0  0
 13 14  1  0  0  0  0
 14 15  2  0  0  0  0
 16 15  1  0  0  0  0
 16 17  2  0  0  0  0
 17 22  1  0  0  0  0
 19 11  1  0  0  0  0
 20 13  1  0  0  0  0
 21 14  1  0  0  0  0
 23  1  1  0  0  0  0
 24 23  1  0  0  0  0
 25 24  2  0  0  0  0
 26 27  1  0  0  0  0
 26 25  1  0  0  0  0
 27 28  2  0  0  0  0
 28 24  1  0  0  0  0
 29 25  1  0  0  0  0
 31 37  1  0  0  0  0
 31 30  2  0  0  0  0
 32 33  1  0  0  0  0
 32 27  1  1  0  0  0
 32 31  1  0  0  0  0
 34 33  1  0  0  0  0
 35 33  1  0  0  0  0
 35 36  1  0  0  0  0
 35 37  1  0  0  0  0
 37 38  1  0  0  0  0
M  END
>  <minimizedAffinity>
-6.37529087

>  <minimizedRMSD>
1.1679889

$$$$
