
 OpenBabel03252507393D

 38 42  0  0  1  0  0  0  0  0999 V2000
   37.0730   29.0030   42.0790 C   0  0  0  0  0  0  0  0  0  0  0  0
   36.8620   27.8710   41.2650 C   0  0  0  0  0  0  0  0  0  0  0  0
   37.3970   26.6700   41.7080 C   0  0  0  0  0  0  0  0  0  0  0  0
   38.0810   26.6350   42.8730 N   0  0  0  0  0  0  0  0  0  0  0  0
   38.2680   27.7370   43.6360 C   0  0  0  0  0  0  0  0  0  0  0  0
   37.7670   28.9020   43.2350 N   0  0  0  0  0  0  0  0  0  0  0  0
   36.3280   27.8910   40.3510 H   0  0  0  0  0  0  0  0  0  0  0  0
   38.8170   27.6900   44.5630 H   0  0  0  0  0  0  0  0  0  0  0  0
   36.4860   25.3950   39.8370 C   0  0  0  0  0  0  0  0  0  0  0  0
   37.2690   25.4090   40.9850 C   0  0  0  0  0  0  0  0  0  0  0  0
   37.8780   24.2410   41.3760 C   0  0  0  0  0  0  0  0  0  0  0  0
   37.7470   23.0560   40.6780 C   0  0  0  0  0  0  0  0  0  0  0  0
   38.2350   21.8210   40.8630 N   0  0  0  0  0  0  0  0  0  0  0  0
   37.7590   21.0290   39.8300 C   0  0  0  0  0  0  0  0  0  0  0  0
   36.9960   21.7950   39.0420 N   0  0  0  0  0  0  0  0  0  0  0  0
   36.9710   23.0410   39.5390 C   0  0  0  0  0  0  0  0  0  0  0  0
   36.3460   24.2070   39.1250 C   0  0  0  0  0  0  0  0  0  0  0  0
   35.9620   26.2420   39.4320 H   0  0  0  0  0  0  0  0  0  0  0  0
   38.4880   24.2820   42.2850 H   0  0  0  0  0  0  0  0  0  0  0  0
   38.8610   21.5800   41.6740 H   0  0  0  0  0  0  0  0  0  0  0  0
   38.0710   19.9910   39.8400 H   0  0  0  0  0  0  0  0  0  0  0  0
   35.7430   24.1500   38.2190 H   0  0  0  0  0  0  0  0  0  0  0  0
   36.5560   30.2170   41.6720 O   0  0  0  0  0  0  0  0  0  0  0  0
   37.2570   31.0560   40.8110 C   0  0  0  0  0  0  0  0  0  0  0  0
   36.4790   31.0890   39.6960 C   0  0  0  0  0  0  0  0  0  0  0  0
   37.4960   32.2410   38.5900 S   0  0  0  0  0  0  0  0  0  0  0  0
   38.8070   32.4210   39.9620 C   0  0  0  0  0  0  0  0  0  0  0  0
   38.3530   31.7750   40.7390 N   0  0  0  0  0  0  0  0  0  0  0  0
   35.5970   30.7910   39.1500 H   0  0  0  0  0  0  0  0  0  0  0  0
   38.8120   35.3500   40.4590 O   0  0  0  0  0  0  0  0  0  0  0  0
   39.7950   34.5660   40.4020 C   0  0  0  0  0  0  0  0  0  0  0  0
   40.0290   33.2340   39.8580 C   0  0  1  0  0  3  0  0  0  0  0  0
   41.0910   32.6950   40.7970 C   0  0  0  0  0  3  0  0  0  0  0  0
   41.5860   31.7890   40.4110 H   0  0  0  0  0  0  0  0  0  0  0  0
   42.0290   33.8980   40.8380 C   0  0  0  0  0  3  0  0  0  0  0  0
   42.7470   33.8650   41.6550 H   0  0  0  0  0  0  0  0  0  0  0  0
   41.0490   34.9750   40.9840 N   0  0  0  0  0  0  0  0  0  0  0  0
   41.2890   35.8870   41.4530 H   0  0  0  0  0  0  0  0  0  0  0  0
  1  6  1  0  0  0  0
  2  3  1  0  0  0  0
  2  1  2  0  0  0  0
  3  4  2  0  0  0  0
  4  5  1  0  0  0  0
  5  8  1  0  0  0  0
  6  5  2  0  0  0  0
  7  2  1  0  0  0  0
  9 10  1  0  0  0  0
 10 11  2  0  0  0  0
 10  3  1  0  0  0  0
 11 19  1  0  0  0  0
 12 13  1  0  0  0  0
 12 11  1  0  0  0  0
 13 20  1  0  0  0  0
 14 21  1  0  0  0  0
 14 13  1  0  0  0  0
 15 16  1  0  0  0  0
 15 14  2  0  0  0  0
 16 12  2  0  0  0  0
 17 16  1  0  0  0  0
 17  9  2  0  0  0  0
 18  9  1  0  0  0  0
 22 17  1  0  0  0  0
 23  1  1  0  0  0  0
 24 23  1  0  0  0  0
 25 24  2  0  0  0  0
 26 25  1  0  0  0  0
 26 27  1  0  0  0  0
 27 28  2  0  0  0  0
 28 24  1  0  0  0  0
 29 25  1  0  0  0  0
 31 30  2  0  0  0  0
 31 37  1  0  0  0  0
 32 27  1  1  0  0  0
 32 31  1  0  0  0  0
 32 33  1  0  0  0  0
 33 35  1  0  0  0  0
 34 33  1  0  0  0  0
 35 37  1  0  0  0  0
 35 36  1  0  0  0  0
 37 38  1  0  0  0  0
M  END
>  <minimizedAffinity>
-6.72413588

$$$$

 OpenBabel03252507393D

 38 42  0  0  1  0  0  0  0  0999 V2000
   37.3530   28.9330   42.2360 C   0  0  0  0  0  0  0  0  0  0  0  0
   38.7490   28.8710   42.4280 C   0  0  0  0  0  0  0  0  0  0  0  0
   39.2810   27.6400   42.7810 C   0  0  0  0  0  0  0  0  0  0  0  0
   38.4610   26.5750   42.9220 N   0  0  0  0  0  0  0  0  0  0  0  0
   37.1240   26.6610   42.7300 C   0  0  0  0  0  0  0  0  0  0  0  0
   36.5860   27.8300   42.3920 N   0  0  0  0  0  0  0  0  0  0  0  0
   39.3970   29.7010   42.3200 H   0  0  0  0  0  0  0  0  0  0  0  0
   36.4850   25.8000   42.8480 H   0  0  0  0  0  0  0  0  0  0  0  0
   41.5370   28.5160   43.0990 C   0  0  0  0  0  0  0  0  0  0  0  0
   40.7030   27.4080   43.0150 C   0  0  0  0  0  0  0  0  0  0  0  0
   41.2580   26.1590   43.1580 C   0  0  0  0  0  0  0  0  0  0  0  0
   42.6060   25.9580   43.3820 C   0  0  0  0  0  0  0  0  0  0  0  0
   43.3560   24.8590   43.5500 N   0  0  0  0  0  0  0  0  0  0  0  0
   44.6640   25.2780   43.7390 C   0  0  0  0  0  0  0  0  0  0  0  0
   44.6820   26.6140   43.6830 N   0  0  0  0  0  0  0  0  0  0  0  0
   43.4350   27.0560   43.4650 C   0  0  0  0  0  0  0  0  0  0  0  0
   42.8970   28.3260   43.3240 C   0  0  0  0  0  0  0  0  0  0  0  0
   41.2220   29.5390   43.0040 H   0  0  0  0  0  0  0  0  0  0  0  0
   40.5750   25.3040   43.0870 H   0  0  0  0  0  0  0  0  0  0  0  0
   42.9470   23.8910   43.5280 H   0  0  0  0  0  0  0  0  0  0  0  0
   45.3990   24.4950   43.8920 H   0  0  0  0  0  0  0  0  0  0  0  0
   43.5890   29.1660   43.3960 H   0  0  0  0  0  0  0  0  0  0  0  0
   36.7850   30.1410   41.8850 O   0  0  0  0  0  0  0  0  0  0  0  0
   37.4030   31.0030   40.9850 C   0  0  0  0  0  0  0  0  0  0  0  0
   36.5630   31.0010   39.9140 C   0  0  0  0  0  0  0  0  0  0  0  0
   37.4710   32.1880   38.7510 S   0  0  0  0  0  0  0  0  0  0  0  0
   38.8490   32.4240   40.0480 C   0  0  0  0  0  0  0  0  0  0  0  0
   38.4650   31.7640   40.8490 N   0  0  0  0  0  0  0  0  0  0  0  0
   35.6640   30.6680   39.4190 H   0  0  0  0  0  0  0  0  0  0  0  0
   38.7510   35.3620   40.4780 O   0  0  0  0  0  0  0  0  0  0  0  0
   39.7630   34.6180   40.3970 C   0  0  0  0  0  0  0  0  0  0  0  0
   40.0300   33.2830   39.8740 C   0  0  1  0  0  3  0  0  0  0  0  0
   41.1520   32.8110   40.7790 C   0  0  0  0  0  3  0  0  0  0  0  0
   41.6670   31.9180   40.3930 H   0  0  0  0  0  0  0  0  0  0  0  0
   42.0390   34.0520   40.7540 C   0  0  0  0  0  3  0  0  0  0  0  0
   42.7910   34.0690   41.5410 H   0  0  0  0  0  0  0  0  0  0  0  0
   41.0220   35.0920   40.9170 N   0  0  0  0  0  0  0  0  0  0  0  0
   41.2420   36.0240   41.3550 H   0  0  0  0  0  0  0  0  0  0  0  0
  1  6  2  0  0  0  0
  1  2  1  0  0  0  0
  2  3  2  0  0  0  0
  3  4  1  0  0  0  0
  3 10  1  0  0  0  0
  5  8  1  0  0  0  0
  5  4  2  0  0  0  0
  6  5  1  0  0  0  0
  7  2  1  0  0  0  0
  9 17  1  0  0  0  0
 10  9  2  0  0  0  0
 10 11  1  0  0  0  0
 11 12  2  0  0  0  0
 12 16  1  0  0  0  0
 12 13  1  0  0  0  0
 13 14  1  0  0  0  0
 14 21  1  0  0  0  0
 15 14  2  0  0  0  0
 16 15  1  0  0  0  0
 17 22  1  0  0  0  0
 17 16  2  0  0  0  0
 18  9  1  0  0  0  0
 19 11  1  0  0  0  0
 20 13  1  0  0  0  0
 23  1  1  0  0  0  0
 24 23  1  0  0  0  0
 25 24  2  0  0  0  0
 26 25  1  0  0  0  0
 26 27  1  0  0  0  0
 27 28  2  0  0  0  0
 28 24  1  0  0  0  0
 29 25  1  0  0  0  0
 31 30  2  0  0  0  0
 31 37  1  0  0  0  0
 32 27  1  1  0  0  0
 32 31  1  0  0  0  0
 32 33  1  0  0  0  0
 34 33  1  0  0  0  0
 35 33  1  0  0  0  0
 35 37  1  0  0  0  0
 35 36  1  0  0  0  0
 37 38  1  0  0  0  0
M  END
>  <minimizedAffinity>
-6.66148424

$$$$

 OpenBabel03252507393D

 38 42  0  0  1  0  0  0  0  0999 V2000
   37.5130   31.8280   39.9740 C   0  0  0  0  0  0  0  0  0  0  0  0
   37.5730   30.6260   40.7090 C   0  0  0  0  0  0  0  0  0  0  0  0
   37.1910   29.4660   40.0500 C   0  0  0  0  0  0  0  0  0  0  0  0
   36.7870   29.5350   38.7620 N   0  0  0  0  0  0  0  0  0  0  0  0
   36.7410   30.7030   38.0790 C   0  0  0  0  0  0  0  0  0  0  0  0
   37.1000   31.8300   38.6870 N   0  0  0  0  0  0  0  0  0  0  0  0
   37.8870   30.5640   41.7180 H   0  0  0  0  0  0  0  0  0  0  0  0
   36.4150   30.7380   37.0520 H   0  0  0  0  0  0  0  0  0  0  0  0
   36.9290   28.0590   42.0260 C   0  0  0  0  0  0  0  0  0  0  0  0
   37.1960   28.1440   40.6660 C   0  0  0  0  0  0  0  0  0  0  0  0
   37.4490   26.9820   39.9750 C   0  0  0  0  0  0  0  0  0  0  0  0
   37.4470   25.7380   40.5740 C   0  0  0  0  0  0  0  0  0  0  0  0
   37.6600   24.4960   40.1140 N   0  0  0  0  0  0  0  0  0  0  0  0
   37.5260   23.6300   41.1890 C   0  0  0  0  0  0  0  0  0  0  0  0
   37.2360   24.3580   42.2720 N   0  0  0  0  0  0  0  0  0  0  0  0
   37.1820   25.6520   41.9240 C   0  0  0  0  0  0  0  0  0  0  0  0
   36.9240   26.8100   42.6410 C   0  0  0  0  0  0  0  0  0  0  0  0
   36.7170   28.8930   42.6700 H   0  0  0  0  0  0  0  0  0  0  0  0
   37.6560   27.0800   38.9030 H   0  0  0  0  0  0  0  0  0  0  0  0
   37.8840   24.3010   39.1060 H   0  0  0  0  0  0  0  0  0  0  0  0
   37.6700   22.5760   40.9740 H   0  0  0  0  0  0  0  0  0  0  0  0
   36.7190   26.6970   43.7060 H   0  0  0  0  0  0  0  0  0  0  0  0
   37.8840   33.0030   40.5960 O   0  0  0  0  0  0  0  0  0  0  0  0
   39.1240   33.5910   40.3640 C   0  0  0  0  0  0  0  0  0  0  0  0
   38.8720   34.9220   40.4870 C   0  0  0  0  0  0  0  0  0  0  0  0
   40.5950   35.6390   40.1610 S   0  0  0  0  0  0  0  0  0  0  0  0
   41.2930   33.8810   39.9190 C   0  0  0  0  0  0  0  0  0  0  0  0
   40.3710   33.2910   40.0830 N   0  0  0  0  0  0  0  0  0  0  0  0
   38.1980   35.7430   40.6740 H   0  0  0  0  0  0  0  0  0  0  0  0
   42.4820   34.4260   37.2520 O   0  0  0  0  0  0  0  0  0  0  0  0
   43.0740   34.1720   38.3330 C   0  0  0  0  0  0  0  0  0  0  0  0
   42.6960   33.5680   39.6060 C   0  0  1  0  0  3  0  0  0  0  0  0
   43.6150   34.2830   40.5770 C   0  0  0  0  0  3  0  0  0  0  0  0
   43.6620   33.7940   41.5630 H   0  0  0  0  0  0  0  0  0  0  0  0
   44.9300   34.1740   39.8100 C   0  0  0  0  0  3  0  0  0  0  0  0
   45.7070   34.8430   40.1760 H   0  0  0  0  0  0  0  0  0  0  0  0
   44.4670   34.5200   38.4660 N   0  0  0  0  0  0  0  0  0  0  0  0
   45.1060   34.9550   37.7510 H   0  0  0  0  0  0  0  0  0  0  0  0
  1 23  1  0  0  0  0
  1  2  1  0  0  0  0
  2  7  1  0  0  0  0
  3 10  1  0  0  0  0
  3  2  2  0  0  0  0
  4  3  1  0  0  0  0
  5  6  1  0  0  0  0
  5  4  2  0  0  0  0
  6  1  2  0  0  0  0
  8  5  1  0  0  0  0
  9 17  1  0  0  0  0
  9 18  1  0  0  0  0
 10  9  2  0  0  0  0
 11 12  2  0  0  0  0
 11 10  1  0  0  0  0
 12 16  1  0  0  0  0
 13 12  1  0  0  0  0
 13 14  1  0  0  0  0
 14 15  2  0  0  0  0
 16 15  1  0  0  0  0
 16 17  2  0  0  0  0
 17 22  1  0  0  0  0
 19 11  1  0  0  0  0
 20 13  1  0  0  0  0
 21 14  1  0  0  0  0
 24 25  2  0  0  0  0
 24 23  1  0  0  0  0
 25 29  1  0  0  0  0
 26 25  1  0  0  0  0
 27 28  2  0  0  0  0
 27 26  1  0  0  0  0
 28 24  1  0  0  0  0
 30 31  2  0  0  0  0
 31 37  1  0  0  0  0
 31 32  1  0  0  0  0
 32 27  1  1  0  0  0
 32 33  1  0  0  0  0
 33 34  1  0  0  0  0
 35 36  1  0  0  0  0
 35 33  1  0  0  0  0
 37 35  1  0  0  0  0
 38 37  1  0  0  0  0
M  END
>  <minimizedAffinity>
-6.61518049

$$$$

 OpenBabel03252507393D

 38 42  0  0  1  0  0  0  0  0999 V2000
   37.2510   28.4330   42.5570 C   0  0  0  0  0  0  0  0  0  0  0  0
   37.9540   29.6270   42.2980 C   0  0  0  0  0  0  0  0  0  0  0  0
   37.4750   30.4300   41.2730 C   0  0  0  0  0  0  0  0  0  0  0  0
   36.3790   30.0440   40.5820 N   0  0  0  0  0  0  0  0  0  0  0  0
   35.7220   28.8920   40.8530 C   0  0  0  0  0  0  0  0  0  0  0  0
   36.1610   28.1030   41.8300 N   0  0  0  0  0  0  0  0  0  0  0  0
   38.8140   29.9360   42.8340 H   0  0  0  0  0  0  0  0  0  0  0  0
   34.8490   28.6000   40.2900 H   0  0  0  0  0  0  0  0  0  0  0  0
   37.3150   32.5910   40.1500 C   0  0  0  0  0  0  0  0  0  0  0  0
   38.0860   31.6950   40.8790 C   0  0  0  0  0  0  0  0  0  0  0  0
   39.3780   32.0460   41.1910 C   0  0  0  0  0  0  0  0  0  0  0  0
   39.9400   33.2500   40.8120 C   0  0  0  0  0  0  0  0  0  0  0  0
   41.1500   33.7980   40.9970 N   0  0  0  0  0  0  0  0  0  0  0  0
   41.1380   35.0410   40.3830 C   0  0  0  0  0  0  0  0  0  0  0  0
   39.9290   35.2210   39.8410 N   0  0  0  0  0  0  0  0  0  0  0  0
   39.1760   34.1400   40.0880 C   0  0  0  0  0  0  0  0  0  0  0  0
   37.8700   33.8070   39.7630 C   0  0  0  0  0  0  0  0  0  0  0  0
   36.2960   32.4290   39.8480 H   0  0  0  0  0  0  0  0  0  0  0  0
   39.9630   31.3200   41.7670 H   0  0  0  0  0  0  0  0  0  0  0  0
   41.9150   33.3060   41.5250 H   0  0  0  0  0  0  0  0  0  0  0  0
   42.0560   35.6150   40.4470 H   0  0  0  0  0  0  0  0  0  0  0  0
   37.3010   34.5400   39.1900 H   0  0  0  0  0  0  0  0  0  0  0  0
   37.6980   27.6070   43.5690 O   0  0  0  0  0  0  0  0  0  0  0  0
   38.8870   26.8930   43.4570 C   0  0  0  0  0  0  0  0  0  0  0  0
   38.5320   25.7960   42.7360 C   0  0  0  0  0  0  0  0  0  0  0  0
   40.1920   24.8910   42.6310 S   0  0  0  0  0  0  0  0  0  0  0  0
   41.0260   26.2770   43.6390 C   0  0  0  0  0  0  0  0  0  0  0  0
   40.1530   26.9390   43.8020 N   0  0  0  0  0  0  0  0  0  0  0  0
   37.7950   25.2070   42.2120 H   0  0  0  0  0  0  0  0  0  0  0  0
   43.1920   26.5510   41.6240 O   0  0  0  0  0  0  0  0  0  0  0  0
   43.2610   26.7080   42.8720 C   0  0  0  0  0  0  0  0  0  0  0  0
   42.4480   26.3070   44.0140 C   0  0  1  0  0  3  0  0  0  0  0  0
   42.7020   27.4390   44.9910 C   0  0  0  0  0  3  0  0  0  0  0  0
   42.3740   27.2040   46.0150 H   0  0  0  0  0  0  0  0  0  0  0  0
   44.2210   27.5390   44.8760 C   0  0  0  0  0  3  0  0  0  0  0  0
   44.6310   28.4600   45.2860 H   0  0  0  0  0  0  0  0  0  0  0  0
   44.3690   27.4490   43.4220 N   0  0  0  0  0  0  0  0  0  0  0  0
   45.1850   27.8810   42.9170 H   0  0  0  0  0  0  0  0  0  0  0  0
  1 23  1  0  0  0  0
  2  1  1  0  0  0  0
  2  7  1  0  0  0  0
  3  2  2  0  0  0  0
  4  5  2  0  0  0  0
  4  3  1  0  0  0  0
  5  6  1  0  0  0  0
  6  1  2  0  0  0  0
  8  5  1  0  0  0  0
  9 10  1  0  0  0  0
 10 11  2  0  0  0  0
 10  3  1  0  0  0  0
 11 19  1  0  0  0  0
 12 13  1  0  0  0  0
 12 11  1  0  0  0  0
 13 20  1  0  0  0  0
 14 21  1  0  0  0  0
 14 13  1  0  0  0  0
 15 16  1  0  0  0  0
 15 14  2  0  0  0  0
 16 12  2  0  0  0  0
 17 16  1  0  0  0  0
 17  9  2  0  0  0  0
 18  9  1  0  0  0  0
 22 17  1  0  0  0  0
 24 23  1  0  0  0  0
 24 28  1  0  0  0  0
 25 24  2  0  0  0  0
 26 25  1  0  0  0  0
 26 27  1  0  0  0  0
 27 28  2  0  0  0  0
 29 25  1  0  0  0  0
 30 31  2  0  0  0  0
 31 37  1  0  0  0  0
 31 32  1  0  0  0  0
 32 27  1  6  0  0  0
 32 33  1  0  0  0  0
 33 34  1  0  0  0  0
 35 33  1  0  0  0  0
 35 36  1  0  0  0  0
 37 35  1  0  0  0  0
 38 37  1  0  0  0  0
M  END
>  <minimizedAffinity>
-6.49249601

$$$$

 OpenBabel03252507393D

 38 42  0  0  1  0  0  0  0  0999 V2000
   36.9740   28.5760   39.2790 C   0  0  0  0  0  0  0  0  0  0  0  0
   37.8660   29.5990   39.6620 C   0  0  0  0  0  0  0  0  0  0  0  0
   37.9650   30.6960   38.8190 C   0  0  0  0  0  0  0  0  0  0  0  0
   37.2200   30.7390   37.6920 N   0  0  0  0  0  0  0  0  0  0  0  0
   36.3700   29.7430   37.3480 C   0  0  0  0  0  0  0  0  0  0  0  0
   36.2560   28.6780   38.1380 N   0  0  0  0  0  0  0  0  0  0  0  0
   38.4530   29.5720   40.5430 H   0  0  0  0  0  0  0  0  0  0  0  0
   35.7840   29.7950   36.4440 H   0  0  0  0  0  0  0  0  0  0  0  0
   39.9760   31.9700   38.2850 C   0  0  0  0  0  0  0  0  0  0  0  0
   38.8390   31.8360   39.0710 C   0  0  0  0  0  0  0  0  0  0  0  0
   38.5970   32.7820   40.0390 C   0  0  0  0  0  0  0  0  0  0  0  0
   39.4350   33.8570   40.2620 C   0  0  0  0  0  0  0  0  0  0  0  0
   39.4050   34.8820   41.1270 N   0  0  0  0  0  0  0  0  0  0  0  0
   40.5260   35.6600   40.8840 C   0  0  0  0  0  0  0  0  0  0  0  0
   41.2090   35.0970   39.8820 N   0  0  0  0  0  0  0  0  0  0  0  0
   40.5640   33.9910   39.4830 C   0  0  0  0  0  0  0  0  0  0  0  0
   40.8280   33.0500   38.5000 C   0  0  0  0  0  0  0  0  0  0  0  0
   40.2710   31.2980   37.4990 H   0  0  0  0  0  0  0  0  0  0  0  0
   37.6930   32.6510   40.6430 H   0  0  0  0  0  0  0  0  0  0  0  0
   38.6330   35.0000   41.8320 H   0  0  0  0  0  0  0  0  0  0  0  0
   40.6440   36.5380   41.5110 H   0  0  0  0  0  0  0  0  0  0  0  0
   41.7310   33.1940   37.9070 H   0  0  0  0  0  0  0  0  0  0  0  0
   36.8480   27.4670   40.0920 O   0  0  0  0  0  0  0  0  0  0  0  0
   37.4130   27.4270   41.3630 C   0  0  0  0  0  0  0  0  0  0  0  0
   36.4740   28.0230   42.1470 C   0  0  0  0  0  0  0  0  0  0  0  0
   37.3150   27.9260   43.8410 S   0  0  0  0  0  0  0  0  0  0  0  0
   38.8210   27.0590   43.0570 C   0  0  0  0  0  0  0  0  0  0  0  0
   38.4880   27.0270   42.0010 N   0  0  0  0  0  0  0  0  0  0  0  0
   35.5180   28.5060   42.2740 H   0  0  0  0  0  0  0  0  0  0  0  0
   39.7050   24.2230   43.0940 O   0  0  0  0  0  0  0  0  0  0  0  0
   40.3560   25.2480   43.4270 C   0  0  0  0  0  0  0  0  0  0  0  0
   40.0160   26.6180   43.7930 C   0  0  1  0  0  3  0  0  0  0  0  0
   41.2330   27.3820   43.3090 C   0  0  0  0  0  3  0  0  0  0  0  0
   41.2860   28.4060   43.7120 H   0  0  0  0  0  0  0  0  0  0  0  0
   42.3350   26.4820   43.8600 C   0  0  0  0  0  3  0  0  0  0  0  0
   43.3140   26.6710   43.4240 H   0  0  0  0  0  0  0  0  0  0  0  0
   41.7940   25.1710   43.4970 N   0  0  0  0  0  0  0  0  0  0  0  0
   42.4160   24.3390   43.3270 H   0  0  0  0  0  0  0  0  0  0  0  0
  1  2  1  0  0  0  0
  1 23  1  0  0  0  0
  2  7  1  0  0  0  0
  3 10  1  0  0  0  0
  3  2  2  0  0  0  0
  4  3  1  0  0  0  0
  5  4  2  0  0  0  0
  5  6  1  0  0  0  0
  6  1  2  0  0  0  0
  8  5  1  0  0  0  0
  9 17  2  0  0  0  0
  9 10  1  0  0  0  0
 10 11  2  0  0  0  0
 11 12  1  0  0  0  0
 11 19  1  0  0  0  0
 12 13  1  0  0  0  0
 13 20  1  0  0  0  0
 14 13  1  0  0  0  0
 14 21  1  0  0  0  0
 15 14  2  0  0  0  0
 16 15  1  0  0  0  0
 16 12  2  0  0  0  0
 17 16  1  0  0  0  0
 18  9  1  0  0  0  0
 22 17  1  0  0  0  0
 23 24  1  0  0  0  0
 24 28  1  0  0  0  0
 24 25  2  0  0  0  0
 25 29  1  0  0  0  0
 25 26  1  0  0  0  0
 27 26  1  0  0  0  0
 28 27  2  0  0  0  0
 30 31  2  0  0  0  0
 31 37  1  0  0  0  0
 31 32  1  0  0  0  0
 32 27  1  6  0  0  0
 33 34  1  0  0  0  0
 33 32  1  0  0  0  0
 33 35  1  0  0  0  0
 36 35  1  0  0  0  0
 37 35  1  0  0  0  0
 38 37  1  0  0  0  0
M  END
>  <minimizedAffinity>
-6.48774958

$$$$

 OpenBabel03252507393D

 38 42  0  0  1  0  0  0  0  0999 V2000
   35.7930   29.1770   38.7420 C   0  0  0  0  0  0  0  0  0  0  0  0
   36.5580   30.3600   38.6690 C   0  0  0  0  0  0  0  0  0  0  0  0
   36.9300   30.9440   39.8710 C   0  0  0  0  0  0  0  0  0  0  0  0
   36.5550   30.3690   41.0350 N   0  0  0  0  0  0  0  0  0  0  0  0
   35.8220   29.2320   41.0770 C   0  0  0  0  0  0  0  0  0  0  0  0
   35.4500   28.6520   39.9390 N   0  0  0  0  0  0  0  0  0  0  0  0
   36.8550   30.8170   37.7610 H   0  0  0  0  0  0  0  0  0  0  0  0
   35.5310   28.7880   42.0160 H   0  0  0  0  0  0  0  0  0  0  0  0
   37.1330   33.3550   39.5560 C   0  0  0  0  0  0  0  0  0  0  0  0
   37.7200   32.1670   39.9690 C   0  0  0  0  0  0  0  0  0  0  0  0
   39.0090   32.2050   40.4480 C   0  0  0  0  0  0  0  0  0  0  0  0
   39.7410   33.3720   40.5350 C   0  0  0  0  0  0  0  0  0  0  0  0
   40.9840   33.6480   40.9590 N   0  0  0  0  0  0  0  0  0  0  0  0
   41.1770   35.0130   40.8110 C   0  0  0  0  0  0  0  0  0  0  0  0
   40.0550   35.5350   40.3040 N   0  0  0  0  0  0  0  0  0  0  0  0
   39.1600   34.5530   40.1250 C   0  0  0  0  0  0  0  0  0  0  0  0
   37.8620   34.5380   39.6390 C   0  0  0  0  0  0  0  0  0  0  0  0
   36.1360   33.4520   39.1650 H   0  0  0  0  0  0  0  0  0  0  0  0
   39.4460   31.2520   40.7660 H   0  0  0  0  0  0  0  0  0  0  0  0
   41.6320   32.9040   41.3230 H   0  0  0  0  0  0  0  0  0  0  0  0
   42.1460   35.3950   41.1150 H   0  0  0  0  0  0  0  0  0  0  0  0
   37.4410   35.4940   39.3260 H   0  0  0  0  0  0  0  0  0  0  0  0
   35.4030   28.5670   37.5670 O   0  0  0  0  0  0  0  0  0  0  0  0
   34.1950   28.8790   36.9500 C   0  0  0  0  0  0  0  0  0  0  0  0
   34.4120   28.5550   35.6460 C   0  0  0  0  0  0  0  0  0  0  0  0
   32.7360   29.0040   34.8880 S   0  0  0  0  0  0  0  0  0  0  0  0
   32.0970   29.5570   36.5970 C   0  0  0  0  0  0  0  0  0  0  0  0
   32.9980   29.3530   37.2070 N   0  0  0  0  0  0  0  0  0  0  0  0
   35.0470   28.1790   34.8590 H   0  0  0  0  0  0  0  0  0  0  0  0
   30.9760   29.7410   39.3420 O   0  0  0  0  0  0  0  0  0  0  0  0
   30.5660   30.3020   38.2920 C   0  0  0  0  0  0  0  0  0  0  0  0
   30.7500   30.0850   36.8620 C   0  0  1  0  0  3  0  0  0  0  0  0
   30.6300   31.4950   36.3140 C   0  0  0  0  0  3  0  0  0  0  0  0
   30.4940   31.5210   35.2220 H   0  0  0  0  0  0  0  0  0  0  0  0
   29.3860   31.9560   37.0680 C   0  0  0  0  0  3  0  0  0  0  0  0
   29.2370   33.0340   37.0480 H   0  0  0  0  0  0  0  0  0  0  0  0
   29.6990   31.4480   38.4040 N   0  0  0  0  0  0  0  0  0  0  0  0
   29.3150   31.8980   39.2750 H   0  0  0  0  0  0  0  0  0  0  0  0
  1  6  1  0  0  0  0
  2  1  2  0  0  0  0
  2  3  1  0  0  0  0
  3 10  1  0  0  0  0
  3  4  2  0  0  0  0
  4  5  1  0  0  0  0
  5  8  1  0  0  0  0
  6  5  2  0  0  0  0
  7  2  1  0  0  0  0
  9 17  2  0  0  0  0
  9 10  1  0  0  0  0
 10 11  2  0  0  0  0
 11 12  1  0  0  0  0
 11 19  1  0  0  0  0
 12 13  1  0  0  0  0
 13 20  1  0  0  0  0
 14 13  1  0  0  0  0
 14 21  1  0  0  0  0
 15 14  2  0  0  0  0
 16 15  1  0  0  0  0
 16 12  2  0  0  0  0
 17 16  1  0  0  0  0
 18  9  1  0  0  0  0
 22 17  1  0  0  0  0
 23  1  1  0  0  0  0
 24 28  1  0  0  0  0
 24 23  1  0  0  0  0
 25 24  2  0  0  0  0
 26 25  1  0  0  0  0
 26 27  1  0  0  0  0
 27 28  2  0  0  0  0
 29 25  1  0  0  0  0
 31 37  1  0  0  0  0
 31 30  2  0  0  0  0
 32 27  1  1  0  0  0
 32 31  1  0  0  0  0
 33 32  1  0  0  0  0
 33 35  1  0  0  0  0
 34 33  1  0  0  0  0
 35 37  1  0  0  0  0
 36 35  1  0  0  0  0
 37 38  1  0  0  0  0
M  END
>  <minimizedAffinity>
-6.33526134

$$$$

 OpenBabel03252507393D

 38 42  0  0  1  0  0  0  0  0999 V2000
   36.6980   28.8940   41.8000 C   0  0  0  0  0  0  0  0  0  0  0  0
   37.5180   30.0390   41.7220 C   0  0  0  0  0  0  0  0  0  0  0  0
   37.2060   30.9710   40.7430 C   0  0  0  0  0  0  0  0  0  0  0  0
   36.1540   30.7490   39.9240 N   0  0  0  0  0  0  0  0  0  0  0  0
   35.3820   29.6420   40.0210 C   0  0  0  0  0  0  0  0  0  0  0  0
   35.6600   28.7310   40.9500 N   0  0  0  0  0  0  0  0  0  0  0  0
   38.3440   30.2190   42.3600 H   0  0  0  0  0  0  0  0  0  0  0  0
   34.5470   29.4820   39.3580 H   0  0  0  0  0  0  0  0  0  0  0  0
   37.3040   33.2570   39.8950 C   0  0  0  0  0  0  0  0  0  0  0  0
   37.9530   32.2060   40.5310 C   0  0  0  0  0  0  0  0  0  0  0  0
   39.2570   32.3850   40.9260 C   0  0  0  0  0  0  0  0  0  0  0  0
   39.9480   33.5630   40.7190 C   0  0  0  0  0  0  0  0  0  0  0  0
   41.1960   33.9600   41.0110 N   0  0  0  0  0  0  0  0  0  0  0  0
   41.3310   35.2630   40.5570 C   0  0  0  0  0  0  0  0  0  0  0  0
   40.1700   35.6290   40.0030 N   0  0  0  0  0  0  0  0  0  0  0  0
   39.3060   34.6070   40.0880 C   0  0  0  0  0  0  0  0  0  0  0  0
   37.9900   34.4490   39.6810 C   0  0  0  0  0  0  0  0  0  0  0  0
   36.2890   33.2380   39.5420 H   0  0  0  0  0  0  0  0  0  0  0  0
   39.7430   31.5390   41.4250 H   0  0  0  0  0  0  0  0  0  0  0  0
   41.8860   33.3330   41.4980 H   0  0  0  0  0  0  0  0  0  0  0  0
   42.2960   35.7290   40.7220 H   0  0  0  0  0  0  0  0  0  0  0  0
   37.5210   35.3000   39.1870 H   0  0  0  0  0  0  0  0  0  0  0  0
   36.9780   27.9440   42.7610 O   0  0  0  0  0  0  0  0  0  0  0  0
   37.9770   26.9930   42.5780 C   0  0  0  0  0  0  0  0  0  0  0  0
   38.7140   27.0840   43.7180 C   0  0  0  0  0  0  0  0  0  0  0  0
   40.0380   25.7700   43.3870 S   0  0  0  0  0  0  0  0  0  0  0  0
   39.2480   25.3820   41.6960 C   0  0  0  0  0  0  0  0  0  0  0  0
   38.4050   26.1000   41.7150 N   0  0  0  0  0  0  0  0  0  0  0  0
   38.9090   27.5200   44.6850 H   0  0  0  0  0  0  0  0  0  0  0  0
   37.6750   22.9670   40.9750 O   0  0  0  0  0  0  0  0  0  0  0  0
   38.6760   23.4520   40.3850 C   0  0  0  0  0  0  0  0  0  0  0  0
   39.7450   24.3760   40.7450 C   0  0  1  0  0  3  0  0  0  0  0  0
   40.0550   25.0310   39.4130 C   0  0  0  0  0  3  0  0  0  0  0  0
   41.0060   25.5860   39.4180 H   0  0  0  0  0  0  0  0  0  0  0  0
   40.1100   23.7900   38.5260 C   0  0  0  0  0  3  0  0  0  0  0  0
   40.0600   24.0110   37.4610 H   0  0  0  0  0  0  0  0  0  0  0  0
   38.9290   23.0780   39.0150 N   0  0  0  0  0  0  0  0  0  0  0  0
   38.3910   22.4070   38.4080 H   0  0  0  0  0  0  0  0  0  0  0  0
  1 23  1  0  0  0  0
  2  1  1  0  0  0  0
  2  7  1  0  0  0  0
  3  2  2  0  0  0  0
  4  5  2  0  0  0  0
  4  3  1  0  0  0  0
  5  6  1  0  0  0  0
  6  1  2  0  0  0  0
  8  5  1  0  0  0  0
  9 10  1  0  0  0  0
 10  3  1  0  0  0  0
 10 11  2  0  0  0  0
 11 19  1  0  0  0  0
 12 11  1  0  0  0  0
 12 13  1  0  0  0  0
 13 20  1  0  0  0  0
 14 21  1  0  0  0  0
 14 13  1  0  0  0  0
 15 16  1  0  0  0  0
 15 14  2  0  0  0  0
 16 12  2  0  0  0  0
 17  9  2  0  0  0  0
 17 16  1  0  0  0  0
 18  9  1  0  0  0  0
 22 17  1  0  0  0  0
 24 23  1  0  0  0  0
 24 25  2  0  0  0  0
 25 29  1  0  0  0  0
 26 25  1  0  0  0  0
 27 28  2  0  0  0  0
 27 26  1  0  0  0  0
 28 24  1  0  0  0  0
 31 32  1  0  0  0  0
 31 30  2  0  0  0  0
 32 27  1  1  0  0  0
 33 34  1  0  0  0  0
 33 32  1  0  0  0  0
 35 37  1  0  0  0  0
 35 33  1  0  0  0  0
 36 35  1  0  0  0  0
 37 31  1  0  0  0  0
 38 37  1  0  0  0  0
M  END
>  <minimizedAffinity>
-6.32622004

$$$$

 OpenBabel03252507393D

 38 42  0  0  1  0  0  0  0  0999 V2000
   38.1060   31.7270   40.7360 C   0  0  0  0  0  0  0  0  0  0  0  0
   37.4980   31.4460   39.4950 C   0  0  0  0  0  0  0  0  0  0  0  0
   37.2040   30.1180   39.2240 C   0  0  0  0  0  0  0  0  0  0  0  0
   37.5040   29.1700   40.1390 N   0  0  0  0  0  0  0  0  0  0  0  0
   38.0870   29.4660   41.3240 C   0  0  0  0  0  0  0  0  0  0  0  0
   38.3810   30.7320   41.6090 N   0  0  0  0  0  0  0  0  0  0  0  0
   37.2600   32.1840   38.7730 H   0  0  0  0  0  0  0  0  0  0  0  0
   38.3200   28.6960   42.0420 H   0  0  0  0  0  0  0  0  0  0  0  0
   35.2380   29.2890   38.0390 C   0  0  0  0  0  0  0  0  0  0  0  0
   36.5750   29.6610   37.9890 C   0  0  0  0  0  0  0  0  0  0  0  0
   37.2320   29.5820   36.7840 C   0  0  0  0  0  0  0  0  0  0  0  0
   36.6200   29.1490   35.6240 C   0  0  0  0  0  0  0  0  0  0  0  0
   37.0480   28.9920   34.3630 N   0  0  0  0  0  0  0  0  0  0  0  0
   35.9780   28.5200   33.6190 C   0  0  0  0  0  0  0  0  0  0  0  0
   34.9270   28.4010   34.4390 N   0  0  0  0  0  0  0  0  0  0  0  0
   35.2930   28.7790   35.6720 C   0  0  0  0  0  0  0  0  0  0  0  0
   34.6100   28.8510   36.8770 C   0  0  0  0  0  0  0  0  0  0  0  0
   34.6210   29.3080   38.9190 H   0  0  0  0  0  0  0  0  0  0  0  0
   38.2860   29.8820   36.7750 H   0  0  0  0  0  0  0  0  0  0  0  0
   38.0350   29.2110   34.0730 H   0  0  0  0  0  0  0  0  0  0  0  0
   36.1680   28.3420   32.5660 H   0  0  0  0  0  0  0  0  0  0  0  0
   33.5630   28.5490   36.8690 H   0  0  0  0  0  0  0  0  0  0  0  0
   38.4150   33.0370   41.0420 O   0  0  0  0  0  0  0  0  0  0  0  0
   39.6030   33.6240   40.6190 C   0  0  0  0  0  0  0  0  0  0  0  0
   39.2880   34.9440   40.5190 C   0  0  0  0  0  0  0  0  0  0  0  0
   40.9450   35.6600   39.9450 S   0  0  0  0  0  0  0  0  0  0  0  0
   41.7210   33.9180   39.9730 C   0  0  0  0  0  0  0  0  0  0  0  0
   40.8440   33.3300   40.3060 N   0  0  0  0  0  0  0  0  0  0  0  0
   38.5830   35.7560   40.6040 H   0  0  0  0  0  0  0  0  0  0  0  0
   42.8030   34.3790   37.2440 O   0  0  0  0  0  0  0  0  0  0  0  0
   43.4380   34.1740   38.3120 C   0  0  0  0  0  0  0  0  0  0  0  0
   43.1150   33.6130   39.6190 C   0  0  1  0  0  3  0  0  0  0  0  0
   44.0590   34.3760   40.5290 C   0  0  0  0  0  3  0  0  0  0  0  0
   44.1490   33.9250   41.5300 H   0  0  0  0  0  0  0  0  0  0  0  0
   45.3470   34.2550   39.7190 C   0  0  0  0  0  3  0  0  0  0  0  0
   46.1260   34.9480   40.0300 H   0  0  0  0  0  0  0  0  0  0  0  0
   44.8300   34.5440   38.3800 N   0  0  0  0  0  0  0  0  0  0  0  0
   45.4360   34.9600   37.6260 H   0  0  0  0  0  0  0  0  0  0  0  0
  1 23  1  0  0  0  0
  1  6  1  0  0  0  0
  2  1  2  0  0  0  0
  3  2  1  0  0  0  0
  3  4  2  0  0  0  0
  4  5  1  0  0  0  0
  5  6  2  0  0  0  0
  5  8  1  0  0  0  0
  7  2  1  0  0  0  0
  9 18  1  0  0  0  0
 10  9  1  0  0  0  0
 10  3  1  0  0  0  0
 11 10  2  0  0  0  0
 12 16  2  0  0  0  0
 12 11  1  0  0  0  0
 13 12  1  0  0  0  0
 14 13  1  0  0  0  0
 14 15  2  0  0  0  0
 15 16  1  0  0  0  0
 16 17  1  0  0  0  0
 17  9  2  0  0  0  0
 19 11  1  0  0  0  0
 20 13  1  0  0  0  0
 21 14  1  0  0  0  0
 22 17  1  0  0  0  0
 24 23  1  0  0  0  0
 25 29  1  0  0  0  0
 25 24  2  0  0  0  0
 26 27  1  0  0  0  0
 26 25  1  0  0  0  0
 27 28  2  0  0  0  0
 28 24  1  0  0  0  0
 30 31  2  0  0  0  0
 31 37  1  0  0  0  0
 31 32  1  0  0  0  0
 32 27  1  1  0  0  0
 32 33  1  0  0  0  0
 33 34  1  0  0  0  0
 35 36  1  0  0  0  0
 35 33  1  0  0  0  0
 37 35  1  0  0  0  0
 38 37  1  0  0  0  0
M  END
>  <minimizedAffinity>
-6.2743125

$$$$

 OpenBabel03252507393D

 38 42  0  0  1  0  0  0  0  0999 V2000
   37.8010   31.7530   40.5480 C   0  0  0  0  0  0  0  0  0  0  0  0
   37.0080   31.4250   39.4290 C   0  0  0  0  0  0  0  0  0  0  0  0
   36.7500   30.0790   39.2140 C   0  0  0  0  0  0  0  0  0  0  0  0
   37.2560   29.1600   40.0650 N   0  0  0  0  0  0  0  0  0  0  0  0
   38.0130   29.5020   41.1330 C   0  0  0  0  0  0  0  0  0  0  0  0
   38.2780   30.7860   41.3630 N   0  0  0  0  0  0  0  0  0  0  0  0
   36.6090   32.1400   38.7570 H   0  0  0  0  0  0  0  0  0  0  0  0
   38.4090   28.7540   41.8020 H   0  0  0  0  0  0  0  0  0  0  0  0
   36.4340   29.7560   36.8160 C   0  0  0  0  0  0  0  0  0  0  0  0
   35.9490   29.5740   38.1040 C   0  0  0  0  0  0  0  0  0  0  0  0
   34.7450   28.9300   38.2650 C   0  0  0  0  0  0  0  0  0  0  0  0
   34.0000   28.4560   37.2030 C   0  0  0  0  0  0  0  0  0  0  0  0
   32.8270   27.8120   37.1180 N   0  0  0  0  0  0  0  0  0  0  0  0
   32.5750   27.5890   35.7730 C   0  0  0  0  0  0  0  0  0  0  0  0
   33.5940   28.0990   35.0730 N   0  0  0  0  0  0  0  0  0  0  0  0
   34.4810   28.6360   35.9230 C   0  0  0  0  0  0  0  0  0  0  0  0
   35.6930   29.2830   35.7370 C   0  0  0  0  0  0  0  0  0  0  0  0
   37.3590   30.2430   36.5640 H   0  0  0  0  0  0  0  0  0  0  0  0
   34.3870   28.8010   39.2930 H   0  0  0  0  0  0  0  0  0  0  0  0
   32.2610   27.5590   37.9670 H   0  0  0  0  0  0  0  0  0  0  0  0
   31.6520   27.0710   35.5380 H   0  0  0  0  0  0  0  0  0  0  0  0
   36.0350   29.4030   34.7090 H   0  0  0  0  0  0  0  0  0  0  0  0
   38.0810   33.0820   40.7950 O   0  0  0  0  0  0  0  0  0  0  0  0
   39.3100   33.6440   40.4620 C   0  0  0  0  0  0  0  0  0  0  0  0
   39.0710   34.9820   40.5080 C   0  0  0  0  0  0  0  0  0  0  0  0
   40.7770   35.6610   40.0470 S   0  0  0  0  0  0  0  0  0  0  0  0
   41.4540   33.8860   39.8880 C   0  0  0  0  0  0  0  0  0  0  0  0
   40.5390   33.3150   40.1380 N   0  0  0  0  0  0  0  0  0  0  0  0
   38.4100   35.8190   40.6740 H   0  0  0  0  0  0  0  0  0  0  0  0
   42.5800   34.4670   37.2010 O   0  0  0  0  0  0  0  0  0  0  0  0
   43.1960   34.1680   38.2580 C   0  0  0  0  0  0  0  0  0  0  0  0
   42.8380   33.5420   39.5250 C   0  0  1  0  0  3  0  0  0  0  0  0
   43.8050   34.2040   40.4860 C   0  0  0  0  0  3  0  0  0  0  0  0
   43.8660   33.6890   41.4570 H   0  0  0  0  0  0  0  0  0  0  0  0
   45.0940   34.0780   39.6780 C   0  0  0  0  0  3  0  0  0  0  0  0
   45.9000   34.7150   40.0370 H   0  0  0  0  0  0  0  0  0  0  0  0
   44.6020   34.4730   38.3570 N   0  0  0  0  0  0  0  0  0  0  0  0
   45.2320   34.9070   37.6340 H   0  0  0  0  0  0  0  0  0  0  0  0
  1 23  1  0  0  0  0
  1  6  1  0  0  0  0
  2  1  2  0  0  0  0
  3  2  1  0  0  0  0
  3  4  2  0  0  0  0
  4  5  1  0  0  0  0
  5  6  2  0  0  0  0
  5  8  1  0  0  0  0
  7  2  1  0  0  0  0
  9 10  1  0  0  0  0
 10 11  2  0  0  0  0
 10  3  1  0  0  0  0
 11 19  1  0  0  0  0
 12 11  1  0  0  0  0
 13 12  1  0  0  0  0
 13 20  1  0  0  0  0
 14 13  1  0  0  0  0
 15 14  2  0  0  0  0
 15 16  1  0  0  0  0
 16 12  2  0  0  0  0
 17 16  1  0  0  0  0
 17  9  2  0  0  0  0
 18  9  1  0  0  0  0
 21 14  1  0  0  0  0
 22 17  1  0  0  0  0
 24 25  2  0  0  0  0
 24 23  1  0  0  0  0
 25 29  1  0  0  0  0
 26 25  1  0  0  0  0
 27 26  1  0  0  0  0
 27 28  2  0  0  0  0
 28 24  1  0  0  0  0
 30 31  2  0  0  0  0
 31 37  1  0  0  0  0
 31 32  1  0  0  0  0
 32 27  1  1  0  0  0
 32 33  1  0  0  0  0
 33 34  1  0  0  0  0
 35 36  1  0  0  0  0
 35 33  1  0  0  0  0
 37 35  1  0  0  0  0
 38 37  1  0  0  0  0
M  END
>  <minimizedAffinity>
-6.25771618

$$$$
