
 OpenBabel03252507373D

 38 42  0  0  1  0  0  0  0  0999 V2000
   45.5400   34.7990   43.4230 C   0  0  0  0  0  0  0  0  0  0  0  0
   46.2380   33.7290   44.0200 C   0  0  0  0  0  0  0  0  0  0  0  0
   46.0390   33.5290   45.3790 C   0  0  0  0  0  0  0  0  0  0  0  0
   45.2050   34.3470   46.0570 N   0  0  0  0  0  0  0  0  0  0  0  0
   44.5460   35.3660   45.4580 C   0  0  0  0  0  0  0  0  0  0  0  0
   44.7190   35.5820   44.1570 N   0  0  0  0  0  0  0  0  0  0  0  0
   46.8940   33.0850   43.4950 H   0  0  0  0  0  0  0  0  0  0  0  0
   43.8840   36.0100   46.0160 H   0  0  0  0  0  0  0  0  0  0  0  0
   46.9770   32.7170   47.4800 C   0  0  0  0  0  0  0  0  0  0  0  0
   46.6850   32.4690   46.1450 C   0  0  0  0  0  0  0  0  0  0  0  0
   47.0160   31.2420   45.6200 C   0  0  0  0  0  0  0  0  0  0  0  0
   47.6240   30.2480   46.3610 C   0  0  0  0  0  0  0  0  0  0  0  0
   48.0310   29.0040   46.0710 N   0  0  0  0  0  0  0  0  0  0  0  0
   48.5800   28.4690   47.2270 C   0  0  0  0  0  0  0  0  0  0  0  0
   48.4960   29.3940   48.1890 N   0  0  0  0  0  0  0  0  0  0  0  0
   47.9150   30.4930   47.6860 C   0  0  0  0  0  0  0  0  0  0  0  0
   47.5900   31.7230   48.2380 C   0  0  0  0  0  0  0  0  0  0  0  0
   46.7670   33.6330   48.0020 H   0  0  0  0  0  0  0  0  0  0  0  0
   46.7730   31.0750   44.5640 H   0  0  0  0  0  0  0  0  0  0  0  0
   47.9170   28.5840   45.1140 H   0  0  0  0  0  0  0  0  0  0  0  0
   48.9580   27.4550   47.1520 H   0  0  0  0  0  0  0  0  0  0  0  0
   47.8380   31.8740   49.2880 H   0  0  0  0  0  0  0  0  0  0  0  0
   45.7130   35.0310   42.0730 O   0  0  0  0  0  0  0  0  0  0  0  0
   44.7200   34.7240   41.1470 C   0  0  0  0  0  0  0  0  0  0  0  0
   45.2750   33.7280   40.4050 C   0  0  0  0  0  0  0  0  0  0  0  0
   43.8710   33.3750   39.1840 S   0  0  0  0  0  0  0  0  0  0  0  0
   42.8040   34.7260   40.0010 C   0  0  0  0  0  0  0  0  0  0  0  0
   43.5050   35.0660   40.7870 N   0  0  0  0  0  0  0  0  0  0  0  0
   46.0940   33.0630   40.1770 H   0  0  0  0  0  0  0  0  0  0  0  0
   42.2610   36.1650   37.4580 O   0  0  0  0  0  0  0  0  0  0  0  0
   41.4480   35.5460   38.1940 C   0  0  0  0  0  0  0  0  0  0  0  0
   41.4420   35.0920   39.5810 C   0  0  1  0  0  3  0  0  0  0  0  0
   40.5750   33.8510   39.4990 C   0  0  0  0  0  3  0  0  0  0  0  0
   40.2410   33.4960   40.4870 H   0  0  0  0  0  0  0  0  0  0  0  0
   39.4240   34.4000   38.6600 C   0  0  0  0  0  3  0  0  0  0  0  0
   38.7850   33.6270   38.2350 H   0  0  0  0  0  0  0  0  0  0  0  0
   40.1810   35.1330   37.6440 N   0  0  0  0  0  0  0  0  0  0  0  0
   39.8020   35.2970   36.6760 H   0  0  0  0  0  0  0  0  0  0  0  0
  1  2  2  0  0  0  0
  1  6  1  0  0  0  0
  2  3  1  0  0  0  0
  3  4  2  0  0  0  0
  3 10  1  0  0  0  0
  5  8  1  0  0  0  0
  5  4  1  0  0  0  0
  6  5  2  0  0  0  0
  7  2  1  0  0  0  0
  9 18  1  0  0  0  0
  9 17  1  0  0  0  0
 10  9  2  0  0  0  0
 11 10  1  0  0  0  0
 11 12  2  0  0  0  0
 12 16  1  0  0  0  0
 13 12  1  0  0  0  0
 13 14  1  0  0  0  0
 14 15  2  0  0  0  0
 16 15  1  0  0  0  0
 16 17  2  0  0  0  0
 17 22  1  0  0  0  0
 19 11  1  0  0  0  0
 20 13  1  0  0  0  0
 21 14  1  0  0  0  0
 23  1  1  0  0  0  0
 24 23  1  0  0  0  0
 25 24  2  0  0  0  0
 26 27  1  0  0  0  0
 26 25  1  0  0  0  0
 27 28  2  0  0  0  0
 28 24  1  0  0  0  0
 29 25  1  0  0  0  0
 30 31  2  0  0  0  0
 31 32  1  0  0  0  0
 32 27  1  6  0  0  0
 33 32  1  0  0  0  0
 33 34  1  0  0  0  0
 35 33  1  0  0  0  0
 36 35  1  0  0  0  0
 37 31  1  0  0  0  0
 37 35  1  0  0  0  0
 38 37  1  0  0  0  0
M  END
>  <minimizedAffinity>
-6.5848341

>  <minimizedRMSD>
0.376537383

$$$$
