
 OpenBabel03242516573D

 23 24  0  0  0  0  0  0  0  0999 V2000
   46.6970   34.7970   42.0360 C   0  0  0  0  0  0  0  0  0  0  0  0
   47.9710   35.2870   41.9730 C   0  0  0  0  0  0  0  0  0  0  0  0
   48.7480   35.1830   40.8470 C   0  0  0  0  0  0  0  0  0  0  0  0
   48.1930   34.5560   39.7580 C   0  0  0  0  0  0  0  0  0  0  0  0
   46.9210   34.0390   39.7510 C   0  0  0  0  0  0  0  0  0  0  0  0
   46.1860   34.1840   40.9390 C   0  0  0  0  0  0  0  0  0  0  0  0
   48.4100   35.7870   42.8410 H   0  0  0  0  0  0  0  0  0  0  0  0
   49.7530   35.5930   40.8590 H   0  0  0  0  0  0  0  0  0  0  0  0
   48.8040   34.4720   38.8690 H   0  0  0  0  0  0  0  0  0  0  0  0
   46.5530   33.5640   38.8700 H   0  0  0  0  0  0  0  0  0  0  0  0
   44.4570   36.1030   44.7810 C   0  0  0  0  0  0  0  0  0  0  0  0
   45.1180   36.0560   43.5200 C   0  0  0  0  0  0  0  0  0  0  0  0
   45.9660   34.9630   43.2770 C   0  0  0  0  0  0  0  0  0  0  0  0
   46.0910   34.0430   44.2490 N   0  0  0  0  0  0  0  0  0  0  0  0
   45.4600   34.1000   45.4360 C   0  0  0  0  0  0  0  0  0  0  0  0
   44.6380   35.1340   45.7040 N   0  0  0  0  0  0  0  0  0  0  0  0
   43.7980   36.9690   44.9470 H   0  0  0  0  0  0  0  0  0  0  0  0
   44.9980   36.8010   42.7710 H   0  0  0  0  0  0  0  0  0  0  0  0
   45.5850   33.3400   46.1940 H   0  0  0  0  0  0  0  0  0  0  0  0
   44.8480   33.6540   40.9640 C   0  0  0  0  0  0  0  0  0  0  0  0
   43.7880   34.2450   40.4360 C   0  0  0  0  0  0  0  0  0  0  0  0
   42.4040   33.7170   40.4510 C   0  0  0  0  0  0  0  0  0  0  0  0
   42.0800   33.5250   39.4120 H   0  0  0  0  0  0  0  0  0  0  0  0
  1 13  1  0  0  0  0
  2  1  1  0  0  0  0
  2  7  1  0  0  0  0
  3  8  1  0  0  0  0
  3  2  2  0  0  0  0
  4  3  1  0  0  0  0
  5  4  2  0  0  0  0
  5  6  1  0  0  0  0
  6 20  1  0  0  0  0
  6  1  2  0  0  0  0
  9  4  1  0  0  0  0
 10  5  1  0  0  0  0
 11 17  1  0  0  0  0
 11 16  1  0  0  0  0
 12 11  2  0  0  0  0
 13 12  1  0  0  0  0
 13 14  2  0  0  0  0
 14 15  1  0  0  0  0
 15 16  2  0  0  0  0
 15 19  1  0  0  0  0
 18 12  1  0  0  0  0
 21 22  1  0  0  0  0
 21 20  2  0  0  0  0
 23 22  1  0  0  0  0
M  END
>  <minimizedAffinity>
-5.31161022

>  <minimizedRMSD>
0.638546586

$$$$
