
 OpenBabel03242521443D

 33 34  0  0  1  0  0  0  0  0999 V2000
   45.6260   35.5050   43.7390 C   0  0  0  0  0  0  0  0  0  0  0  0
   46.6590   34.7200   43.2120 C   0  0  0  0  0  0  0  0  0  0  0  0
   47.0570   33.5620   43.8890 C   0  0  0  0  0  0  0  0  0  0  0  0
   46.4170   33.2650   45.0180 N   0  0  0  0  0  0  0  0  0  0  0  0
   45.4200   34.0300   45.5170 C   0  0  0  0  0  0  0  0  0  0  0  0
   45.0210   35.1490   44.8820 N   0  0  0  0  0  0  0  0  0  0  0  0
   47.1040   35.0530   42.2960 H   0  0  0  0  0  0  0  0  0  0  0  0
   44.9330   33.7450   46.4370 H   0  0  0  0  0  0  0  0  0  0  0  0
   49.1190   33.5820   42.5010 C   0  0  2  0  0  0  0  0  0  0  0  0
   48.1410   32.7850   43.2900 C   0  0  2  0  0  0  0  0  0  0  0  0
   47.6990   31.8530   42.3040 O   0  0  0  0  0  0  0  0  0  0  0  0
   48.8950   31.3550   41.8250 C   0  0  0  0  0  0  0  0  0  0  0  0
   49.9590   32.4100   41.9500 C   0  0  1  0  0  0  0  0  0  0  0  0
   48.6860   34.0380   41.5840 H   0  0  0  0  0  0  0  0  0  0  0  0
   48.6780   32.1430   44.0150 H   0  0  0  0  0  0  0  0  0  0  0  0
   49.1840   30.5110   42.4860 H   0  0  0  0  0  0  0  0  0  0  0  0
   48.8020   30.9320   40.7990 H   0  0  0  0  0  0  0  0  0  0  0  0
   50.7290   32.1620   42.6910 H   0  0  0  0  0  0  0  0  0  0  0  0
   49.8340   34.4920   43.2180 O   0  0  0  0  0  0  0  0  0  0  0  0
   50.1370   35.2240   42.6130 H   0  0  0  0  0  0  0  0  0  0  0  0
   50.5190   32.7820   40.7380 O   0  0  0  0  0  0  0  0  0  0  0  0
   50.4250   32.0870   40.0400 H   0  0  0  0  0  0  0  0  0  0  0  0
   45.2210   36.7500   42.9960 C   0  0  0  0  0  0  0  0  0  0  0  0
   44.3970   36.5610   42.3090 H   0  0  0  0  0  0  0  0  0  0  0  0
   46.1050   37.1350   42.4410 H   0  0  0  0  0  0  0  0  0  0  0  0
   45.1960   39.1300   43.9880 C   0  0  0  0  0  0  0  0  0  0  0  0
   45.8050   39.5450   42.9640 O   0  0  0  0  0  0  0  0  0  0  0  0
   44.8990   37.7450   43.9940 N   0  0  0  0  0  0  0  0  0  0  0  0
   44.3700   37.3870   44.8440 H   0  0  0  0  0  0  0  0  0  0  0  0
   44.8320   40.0090   45.0660 C   0  0  0  0  0  3  0  0  0  0  0  0
   45.6400   40.3030   46.0430 C   0  0  0  0  0  3  0  0  0  0  0  0
   46.9990   39.7390   46.0950 C   0  0  0  0  0  2  0  0  0  0  0  0
   47.0190   38.6170   46.1570 H   0  0  0  0  0  0  0  0  0  0  0  0
  1  6  1  0  0  0  0
  2  1  2  0  0  0  0
  2  3  1  0  0  0  0
  3  4  2  0  0  0  0
  4  5  1  0  0  0  0
  5  8  1  0  0  0  0
  6  5  2  0  0  0  0
  7  2  1  0  0  0  0
  9 14  1  6  0  0  0
  9 19  1  0  0  0  0
  9 10  1  0  0  0  0
 10  3  1  0  0  0  0
 10 15  1  1  0  0  0
 11 10  1  0  0  0  0
 12 13  1  0  0  0  0
 12 11  1  0  0  0  0
 12 16  1  0  0  0  0
 13  9  1  0  0  0  0
 13 18  1  1  0  0  0
 17 12  1  0  0  0  0
 20 19  1  0  0  0  0
 21 13  1  0  0  0  0
 22 21  1  0  0  0  0
 23  1  1  0  0  0  0
 23 28  1  0  0  0  0
 24 23  1  0  0  0  0
 25 23  1  0  0  0  0
 26 28  1  0  0  0  0
 26 30  1  0  0  0  0
 27 26  2  0  0  0  0
 28 29  1  0  0  0  0
 30 31  2  0  0  0  0
 31 32  1  0  0  0  0
 32 33  1  0  0  0  0
M  END
>  <minimizedAffinity>
-1.91561472

>  <minimizedRMSD>
0.712020576

$$$$
