
 OpenBabel03252503103D

 22 23  0  0  0  0  0  0  0  0999 V2000
   39.4150   26.5810   43.6720 C   0  0  0  0  0  0  0  0  0  0  0  0
   38.4000   27.2440   42.9530 C   0  0  0  0  0  0  0  0  0  0  0  0
   38.8160   28.3730   42.2580 C   0  0  0  0  0  0  0  0  0  0  0  0
   40.0960   28.8020   42.2700 N   0  0  0  0  0  0  0  0  0  0  0  0
   41.0400   28.1220   42.9830 C   0  0  0  0  0  0  0  0  0  0  0  0
   40.6910   27.0150   43.6800 N   0  0  0  0  0  0  0  0  0  0  0  0
   39.1980   25.6940   44.2450 H   0  0  0  0  0  0  0  0  0  0  0  0
   42.0420   28.4880   42.9710 H   0  0  0  0  0  0  0  0  0  0  0  0
   37.8770   29.0880   41.5180 C   0  0  0  0  0  0  0  0  0  0  0  0
   37.0560   30.1630   41.7800 C   0  0  0  0  0  0  0  0  0  0  0  0
   36.2180   30.6750   40.8910 C   0  0  0  0  0  0  0  0  0  0  0  0
   36.1980   30.0720   39.6500 C   0  0  0  0  0  0  0  0  0  0  0  0
   37.4530   28.7190   39.8210 S   0  0  0  0  0  0  0  0  0  0  0  0
   36.9870   30.7540   42.6800 H   0  0  0  0  0  0  0  0  0  0  0  0
   35.5060   31.4540   40.8190 H   0  0  0  0  0  0  0  0  0  0  0  0
   35.7410   30.1090   38.6850 H   0  0  0  0  0  0  0  0  0  0  0  0
   37.0760   26.7450   42.9620 C   0  0  0  0  0  0  0  0  0  0  0  0
   36.2540   27.4100   43.6800 O   0  0  0  0  0  0  0  0  0  0  0  0
   37.2040   25.5600   42.0690 C   0  0  0  0  0  3  0  0  0  0  0  0
   36.6520   24.4070   41.7610 C   0  0  0  0  0  3  0  0  0  0  0  0
   37.3250   23.6380   40.6900 C   0  0  0  0  0  2  0  0  0  0  0  0
   36.6570   23.4750   39.8120 H   0  0  0  0  0  0  0  0  0  0  0  0
  1  6  1  0  0  0  0
  1  7  1  0  0  0  0
  2 17  1  0  0  0  0
  2  1  2  0  0  0  0
  3  4  2  0  0  0  0
  3  2  1  0  0  0  0
  4  5  1  0  0  0  0
  5  6  2  0  0  0  0
  8  5  1  0  0  0  0
  9 10  2  0  0  0  0
  9  3  1  0  0  0  0
 10 14  1  0  0  0  0
 11 10  1  0  0  0  0
 12 13  1  0  0  0  0
 12 11  2  0  0  0  0
 13  9  1  0  0  0  0
 15 11  1  0  0  0  0
 16 12  1  0  0  0  0
 17 18  2  0  0  0  0
 19 17  1  0  0  0  0
 20 19  2  0  0  0  0
 21 20  1  0  0  0  0
 22 21  1  0  0  0  0
M  END
>  <minimizedAffinity>
-4.43972397

$$$$

 OpenBabel03252503103D

 22 23  0  0  0  0  0  0  0  0999 V2000
   35.7580   29.3280   40.9290 C   0  0  0  0  0  0  0  0  0  0  0  0
   36.4580   28.2220   41.4510 C   0  0  0  0  0  0  0  0  0  0  0  0
   36.6780   27.1890   40.5480 C   0  0  0  0  0  0  0  0  0  0  0  0
   36.2530   27.2410   39.2670 N   0  0  0  0  0  0  0  0  0  0  0  0
   35.5770   28.3370   38.8130 C   0  0  0  0  0  0  0  0  0  0  0  0
   35.3350   29.3730   39.6500 N   0  0  0  0  0  0  0  0  0  0  0  0
   35.5350   30.1830   41.5470 H   0  0  0  0  0  0  0  0  0  0  0  0
   35.2550   28.3460   37.7960 H   0  0  0  0  0  0  0  0  0  0  0  0
   37.3660   26.0570   40.9780 C   0  0  0  0  0  0  0  0  0  0  0  0
   36.9900   24.8300   41.4810 C   0  0  0  0  0  0  0  0  0  0  0  0
   37.8540   23.8920   41.8380 C   0  0  0  0  0  0  0  0  0  0  0  0
   39.1900   24.1980   41.6810 C   0  0  0  0  0  0  0  0  0  0  0  0
   39.1490   25.9170   40.9890 S   0  0  0  0  0  0  0  0  0  0  0  0
   35.9950   24.4380   41.6240 H   0  0  0  0  0  0  0  0  0  0  0  0
   37.8510   22.9110   42.2340 H   0  0  0  0  0  0  0  0  0  0  0  0
   40.1790   23.8160   41.8110 H   0  0  0  0  0  0  0  0  0  0  0  0
   36.8950   28.2230   42.7960 C   0  0  0  0  0  0  0  0  0  0  0  0
   36.2650   27.4220   43.5680 O   0  0  0  0  0  0  0  0  0  0  0  0
   37.9840   29.2370   42.7490 C   0  0  0  0  0  3  0  0  0  0  0  0
   39.2830   29.3840   42.5980 C   0  0  0  0  0  3  0  0  0  0  0  0
   39.7830   30.7770   42.6590 C   0  0  0  0  0  2  0  0  0  0  0  0
   40.2740   31.0830   41.7060 H   0  0  0  0  0  0  0  0  0  0  0  0
  1  2  1  0  0  0  0
  1  7  1  0  0  0  0
  2 17  1  0  0  0  0
  3  9  1  0  0  0  0
  3  2  2  0  0  0  0
  4  3  1  0  0  0  0
  5  4  2  0  0  0  0
  5  6  1  0  0  0  0
  6  1  2  0  0  0  0
  8  5  1  0  0  0  0
  9 13  1  0  0  0  0
  9 10  2  0  0  0  0
 10 14  1  0  0  0  0
 10 11  1  0  0  0  0
 11 15  1  0  0  0  0
 12 16  1  0  0  0  0
 12 11  2  0  0  0  0
 13 12  1  0  0  0  0
 17 18  2  0  0  0  0
 19 17  1  0  0  0  0
 20 21  1  0  0  0  0
 20 19  2  0  0  0  0
 22 21  1  0  0  0  0
M  END
>  <minimizedAffinity>
-4.37751961

$$$$

 OpenBabel03252503103D

 22 23  0  0  0  0  0  0  0  0999 V2000
   37.3500   24.9460   41.8820 C   0  0  0  0  0  0  0  0  0  0  0  0
   37.2080   26.3470   41.9300 C   0  0  0  0  0  0  0  0  0  0  0  0
   36.9540   26.9530   40.7060 C   0  0  0  0  0  0  0  0  0  0  0  0
   36.8510   26.2520   39.5560 N   0  0  0  0  0  0  0  0  0  0  0  0
   36.9980   24.8950   39.5650 C   0  0  0  0  0  0  0  0  0  0  0  0
   37.2470   24.2520   40.7300 N   0  0  0  0  0  0  0  0  0  0  0  0
   37.5480   24.3790   42.7760 H   0  0  0  0  0  0  0  0  0  0  0  0
   36.9110   24.3720   38.6400 H   0  0  0  0  0  0  0  0  0  0  0  0
   36.7970   28.3370   40.6620 C   0  0  0  0  0  0  0  0  0  0  0  0
   35.7210   29.1910   40.7700 C   0  0  0  0  0  0  0  0  0  0  0  0
   35.8250   30.5080   40.6840 C   0  0  0  0  0  0  0  0  0  0  0  0
   37.0930   31.0110   40.4780 C   0  0  0  0  0  0  0  0  0  0  0  0
   38.1440   29.4860   40.4100 S   0  0  0  0  0  0  0  0  0  0  0  0
   34.6880   28.9500   40.9660 H   0  0  0  0  0  0  0  0  0  0  0  0
   35.2040   31.3640   40.7260 H   0  0  0  0  0  0  0  0  0  0  0  0
   37.6480   31.9150   40.3500 H   0  0  0  0  0  0  0  0  0  0  0  0
   37.3100   27.0330   43.1630 C   0  0  0  0  0  0  0  0  0  0  0  0
   36.1970   27.4130   43.6640 O   0  0  0  0  0  0  0  0  0  0  0  0
   38.7840   27.0310   43.3760 C   0  0  0  0  0  3  0  0  0  0  0  0
   39.8700   27.7630   43.2460 C   0  0  0  0  0  3  0  0  0  0  0  0
   41.1320   27.1220   43.6800 C   0  0  0  0  0  2  0  0  0  0  0  0
   41.6170   27.6820   44.5130 H   0  0  0  0  0  0  0  0  0  0  0  0
  1  2  1  0  0  0  0
  1  7  1  0  0  0  0
  2 17  1  0  0  0  0
  3  2  2  0  0  0  0
  4  5  2  0  0  0  0
  4  3  1  0  0  0  0
  5  6  1  0  0  0  0
  6  1  2  0  0  0  0
  8  5  1  0  0  0  0
  9  3  1  0  0  0  0
  9 10  2  0  0  0  0
 10 14  1  0  0  0  0
 11 15  1  0  0  0  0
 11 10  1  0  0  0  0
 12 11  2  0  0  0  0
 13 12  1  0  0  0  0
 13  9  1  0  0  0  0
 16 12  1  0  0  0  0
 17 19  1  0  0  0  0
 17 18  2  0  0  0  0
 20 19  2  0  0  0  0
 20 21  1  0  0  0  0
 21 22  1  0  0  0  0
M  END
>  <minimizedAffinity>
-4.34752846

$$$$

 OpenBabel03252503103D

 22 23  0  0  0  0  0  0  0  0999 V2000
   37.1200   27.0380   41.2930 C   0  0  0  0  0  0  0  0  0  0  0  0
   37.3820   28.2740   40.6690 C   0  0  0  0  0  0  0  0  0  0  0  0
   37.5100   29.3530   41.5360 C   0  0  0  0  0  0  0  0  0  0  0  0
   37.3920   29.2260   42.8750 N   0  0  0  0  0  0  0  0  0  0  0  0
   37.1380   28.0050   43.4280 C   0  0  0  0  0  0  0  0  0  0  0  0
   37.0030   26.9190   42.6310 N   0  0  0  0  0  0  0  0  0  0  0  0
   37.0030   26.1390   40.7120 H   0  0  0  0  0  0  0  0  0  0  0  0
   37.0510   27.9400   44.4890 H   0  0  0  0  0  0  0  0  0  0  0  0
   37.7720   30.6140   41.0030 C   0  0  0  0  0  0  0  0  0  0  0  0
   36.9900   31.6360   40.5100 C   0  0  0  0  0  0  0  0  0  0  0  0
   37.4850   32.7690   40.0380 C   0  0  0  0  0  0  0  0  0  0  0  0
   38.8590   32.8950   40.0600 C   0  0  0  0  0  0  0  0  0  0  0  0
   39.4150   31.2880   40.7990 S   0  0  0  0  0  0  0  0  0  0  0  0
   35.9140   31.6970   40.4630 H   0  0  0  0  0  0  0  0  0  0  0  0
   37.1430   33.6780   39.6180 H   0  0  0  0  0  0  0  0  0  0  0  0
   39.6650   33.5510   39.8150 H   0  0  0  0  0  0  0  0  0  0  0  0
   37.5100   28.3510   39.2630 C   0  0  0  0  0  0  0  0  0  0  0  0
   38.7100   28.3020   38.8260 O   0  0  0  0  0  0  0  0  0  0  0  0
   36.0850   28.4730   38.8460 C   0  0  0  0  0  3  0  0  0  0  0  0
   35.2300   29.2590   38.2280 C   0  0  0  0  0  3  0  0  0  0  0  0
   33.8400   28.7550   38.1430 C   0  0  0  0  0  2  0  0  0  0  0  0
   33.5120   28.6190   37.0860 H   0  0  0  0  0  0  0  0  0  0  0  0
  1  6  1  0  0  0  0
  2  1  2  0  0  0  0
  2  3  1  0  0  0  0
  3  4  2  0  0  0  0
  4  5  1  0  0  0  0
  5  8  1  0  0  0  0
  6  5  2  0  0  0  0
  7  1  1  0  0  0  0
  9  3  1  0  0  0  0
 10  9  2  0  0  0  0
 11 12  2  0  0  0  0
 11 10  1  0  0  0  0
 12 13  1  0  0  0  0
 13  9  1  0  0  0  0
 14 10  1  0  0  0  0
 15 11  1  0  0  0  0
 16 12  1  0  0  0  0
 17  2  1  0  0  0  0
 18 17  2  0  0  0  0
 19 17  1  0  0  0  0
 20 19  2  0  0  0  0
 21 20  1  0  0  0  0
 22 21  1  0  0  0  0
M  END
>  <minimizedAffinity>
-4.17119789

$$$$

 OpenBabel03252503103D

 22 23  0  0  0  0  0  0  0  0999 V2000
   37.1550   31.2640   38.1640 C   0  0  0  0  0  0  0  0  0  0  0  0
   37.1630   30.1190   38.9860 C   0  0  0  0  0  0  0  0  0  0  0  0
   37.3190   30.3730   40.3430 C   0  0  0  0  0  0  0  0  0  0  0  0
   37.4520   31.6230   40.8380 N   0  0  0  0  0  0  0  0  0  0  0  0
   37.4380   32.6980   39.9970 C   0  0  0  0  0  0  0  0  0  0  0  0
   37.2900   32.5090   38.6650 N   0  0  0  0  0  0  0  0  0  0  0  0
   37.0400   31.1780   37.0960 H   0  0  0  0  0  0  0  0  0  0  0  0
   37.5460   33.6710   40.4200 H   0  0  0  0  0  0  0  0  0  0  0  0
   37.3350   29.2980   41.2290 C   0  0  0  0  0  0  0  0  0  0  0  0
   36.3710   28.4720   41.7640 C   0  0  0  0  0  0  0  0  0  0  0  0
   36.6390   27.4960   42.6170 C   0  0  0  0  0  0  0  0  0  0  0  0
   37.9650   27.3290   42.9620 C   0  0  0  0  0  0  0  0  0  0  0  0
   38.8200   28.6570   41.9910 S   0  0  0  0  0  0  0  0  0  0  0  0
   35.3110   28.4570   41.5640 H   0  0  0  0  0  0  0  0  0  0  0  0
   36.1280   26.7460   43.1620 H   0  0  0  0  0  0  0  0  0  0  0  0
   38.6300   26.7400   43.5550 H   0  0  0  0  0  0  0  0  0  0  0  0
   37.0060   28.8330   38.4200 C   0  0  0  0  0  0  0  0  0  0  0  0
   38.0630   28.1160   38.4070 O   0  0  0  0  0  0  0  0  0  0  0  0
   35.5650   28.8550   38.0420 C   0  0  0  0  0  3  0  0  0  0  0  0
   34.3450   28.8240   38.5330 C   0  0  0  0  0  3  0  0  0  0  0  0
   33.2500   28.8840   37.5370 C   0  0  0  0  0  2  0  0  0  0  0  0
   32.6070   29.7830   37.6820 H   0  0  0  0  0  0  0  0  0  0  0  0
  1  6  2  0  0  0  0
  1  2  1  0  0  0  0
  2  3  2  0  0  0  0
  3  4  1  0  0  0  0
  3  9  1  0  0  0  0
  5  8  1  0  0  0  0
  5  4  2  0  0  0  0
  6  5  1  0  0  0  0
  7  1  1  0  0  0  0
  9 10  2  0  0  0  0
  9 13  1  0  0  0  0
 10 11  1  0  0  0  0
 11 12  2  0  0  0  0
 11 15  1  0  0  0  0
 12 16  1  0  0  0  0
 13 12  1  0  0  0  0
 14 10  1  0  0  0  0
 17  2  1  0  0  0  0
 18 17  2  0  0  0  0
 19 17  1  0  0  0  0
 19 20  2  0  0  0  0
 21 22  1  0  0  0  0
 21 20  1  0  0  0  0
M  END
>  <minimizedAffinity>
-4.16267395

$$$$

 OpenBabel03252503103D

 22 23  0  0  0  0  0  0  0  0999 V2000
   38.4990   32.3940   39.9000 C   0  0  0  0  0  0  0  0  0  0  0  0
   38.0510   31.2080   40.5150 C   0  0  0  0  0  0  0  0  0  0  0  0
   38.9810   30.5900   41.3420 C   0  0  0  0  0  0  0  0  0  0  0  0
   40.2200   31.0890   41.5420 N   0  0  0  0  0  0  0  0  0  0  0  0
   40.6030   32.2420   40.9210 C   0  0  0  0  0  0  0  0  0  0  0  0
   39.7380   32.8870   40.1040 N   0  0  0  0  0  0  0  0  0  0  0  0
   37.8560   32.9510   39.2390 H   0  0  0  0  0  0  0  0  0  0  0  0
   41.5880   32.6090   41.1010 H   0  0  0  0  0  0  0  0  0  0  0  0
   38.6220   29.4110   41.9930 C   0  0  0  0  0  0  0  0  0  0  0  0
   38.1280   29.1100   43.2430 C   0  0  0  0  0  0  0  0  0  0  0  0
   37.8650   27.8760   43.6450 C   0  0  0  0  0  0  0  0  0  0  0  0
   38.1090   26.8690   42.7340 C   0  0  0  0  0  0  0  0  0  0  0  0
   38.7430   27.7880   41.2540 S   0  0  0  0  0  0  0  0  0  0  0  0
   37.8570   29.7850   44.0410 H   0  0  0  0  0  0  0  0  0  0  0  0
   37.5000   27.3750   44.5030 H   0  0  0  0  0  0  0  0  0  0  0  0
   38.0630   25.8120   42.5910 H   0  0  0  0  0  0  0  0  0  0  0  0
   36.7390   30.7350   40.2840 C   0  0  0  0  0  0  0  0  0  0  0  0
   35.9230   30.9100   41.2520 O   0  0  0  0  0  0  0  0  0  0  0  0
   36.8670   30.1820   38.9060 C   0  0  0  0  0  3  0  0  0  0  0  0
   36.1930   29.9290   37.8040 C   0  0  0  0  0  3  0  0  0  0  0  0
   36.9720   29.3220   36.7010 C   0  0  0  0  0  2  0  0  0  0  0  0
   36.9820   29.9710   35.7950 H   0  0  0  0  0  0  0  0  0  0  0  0
  1  6  2  0  0  0  0
  1  2  1  0  0  0  0
  2  3  2  0  0  0  0
  3  4  1  0  0  0  0
  3  9  1  0  0  0  0
  5  8  1  0  0  0  0
  5  4  2  0  0  0  0
  6  5  1  0  0  0  0
  7  1  1  0  0  0  0
  9 10  2  0  0  0  0
 10 11  1  0  0  0  0
 10 14  1  0  0  0  0
 11 15  1  0  0  0  0
 12 11  2  0  0  0  0
 13  9  1  0  0  0  0
 13 12  1  0  0  0  0
 16 12  1  0  0  0  0
 17  2  1  0  0  0  0
 17 18  2  0  0  0  0
 19 17  1  0  0  0  0
 20 19  2  0  0  0  0
 21 20  1  0  0  0  0
 22 21  1  0  0  0  0
M  END
>  <minimizedAffinity>
-4.08180094

$$$$

 OpenBabel03252503103D

 22 23  0  0  0  0  0  0  0  0999 V2000
   36.5670   27.6980   42.4230 C   0  0  0  0  0  0  0  0  0  0  0  0
   36.5600   28.5980   41.3380 C   0  0  0  0  0  0  0  0  0  0  0  0
   37.4620   29.6490   41.4430 C   0  0  0  0  0  0  0  0  0  0  0  0
   38.2840   29.7980   42.5040 N   0  0  0  0  0  0  0  0  0  0  0  0
   38.2500   28.8970   43.5300 C   0  0  0  0  0  0  0  0  0  0  0  0
   37.3890   27.8530   43.4800 N   0  0  0  0  0  0  0  0  0  0  0  0
   35.9050   26.8480   42.4410 H   0  0  0  0  0  0  0  0  0  0  0  0
   38.9120   29.0440   44.3530 H   0  0  0  0  0  0  0  0  0  0  0  0
   37.5240   30.5850   40.4130 C   0  0  0  0  0  0  0  0  0  0  0  0
   36.9600   31.8240   40.1980 C   0  0  0  0  0  0  0  0  0  0  0  0
   37.1690   32.5400   39.1030 C   0  0  0  0  0  0  0  0  0  0  0  0
   38.0010   31.9820   38.1550 C   0  0  0  0  0  0  0  0  0  0  0  0
   38.4760   30.3600   38.9170 S   0  0  0  0  0  0  0  0  0  0  0  0
   36.3260   32.3980   40.8550 H   0  0  0  0  0  0  0  0  0  0  0  0
   36.8820   33.4700   38.6900 H   0  0  0  0  0  0  0  0  0  0  0  0
   38.4400   32.1450   37.1950 H   0  0  0  0  0  0  0  0  0  0  0  0
   35.6890   28.3900   40.2440 C   0  0  0  0  0  0  0  0  0  0  0  0
   34.6950   29.1910   40.1840 O   0  0  0  0  0  0  0  0  0  0  0  0
   36.3400   27.2320   39.5690 C   0  0  0  0  0  3  0  0  0  0  0  0
   37.0080   26.8780   38.4920 C   0  0  0  0  0  3  0  0  0  0  0  0
   37.4000   25.4520   38.4210 C   0  0  0  0  0  2  0  0  0  0  0  0
   38.5080   25.3280   38.3800 H   0  0  0  0  0  0  0  0  0  0  0  0
  1  7  1  0  0  0  0
  1  6  1  0  0  0  0
  2  3  1  0  0  0  0
  2  1  2  0  0  0  0
  3  4  2  0  0  0  0
  4  5  1  0  0  0  0
  5  8  1  0  0  0  0
  6  5  2  0  0  0  0
  9  3  1  0  0  0  0
 10  9  2  0  0  0  0
 10 14  1  0  0  0  0
 11 10  1  0  0  0  0
 12 13  1  0  0  0  0
 12 11  2  0  0  0  0
 13  9  1  0  0  0  0
 15 11  1  0  0  0  0
 16 12  1  0  0  0  0
 17  2  1  0  0  0  0
 18 17  2  0  0  0  0
 19 17  1  0  0  0  0
 20 19  2  0  0  0  0
 21 20  1  0  0  0  0
 22 21  1  0  0  0  0
M  END
>  <minimizedAffinity>
-4.06286621

$$$$

 OpenBabel03252503103D

 22 23  0  0  0  0  0  0  0  0999 V2000
   37.1340   30.8040   38.2080 C   0  0  0  0  0  0  0  0  0  0  0  0
   37.2000   30.3480   39.5400 C   0  0  0  0  0  0  0  0  0  0  0  0
   37.4520   28.9880   39.6810 C   0  0  0  0  0  0  0  0  0  0  0  0
   37.6220   28.1670   38.6220 N   0  0  0  0  0  0  0  0  0  0  0  0
   37.5460   28.6620   37.3520 C   0  0  0  0  0  0  0  0  0  0  0  0
   37.3030   29.9790   37.1550 N   0  0  0  0  0  0  0  0  0  0  0  0
   36.9420   31.8420   37.9880 H   0  0  0  0  0  0  0  0  0  0  0  0
   37.6850   27.9860   36.5380 H   0  0  0  0  0  0  0  0  0  0  0  0
   37.5370   28.4520   40.9640 C   0  0  0  0  0  0  0  0  0  0  0  0
   36.6480   27.8250   41.8090 C   0  0  0  0  0  0  0  0  0  0  0  0
   36.9710   27.3980   43.0210 C   0  0  0  0  0  0  0  0  0  0  0  0
   38.2750   27.6110   43.4180 C   0  0  0  0  0  0  0  0  0  0  0  0
   39.0260   28.4630   41.9530 S   0  0  0  0  0  0  0  0  0  0  0  0
   35.6180   27.5590   41.6270 H   0  0  0  0  0  0  0  0  0  0  0  0
   36.5190   26.9110   43.8440 H   0  0  0  0  0  0  0  0  0  0  0  0
   38.9610   27.4660   44.2240 H   0  0  0  0  0  0  0  0  0  0  0  0
   37.0300   31.2510   40.6140 C   0  0  0  0  0  0  0  0  0  0  0  0
   35.9320   31.1240   41.2570 O   0  0  0  0  0  0  0  0  0  0  0  0
   38.2930   32.0360   40.5380 C   0  0  0  0  0  3  0  0  0  0  0  0
   38.8390   33.1900   40.8580 C   0  0  0  0  0  3  0  0  0  0  0  0
   40.2570   33.3610   40.4660 C   0  0  0  0  0  2  0  0  0  0  0  0
   40.9150   33.5200   41.3510 H   0  0  0  0  0  0  0  0  0  0  0  0
  1  2  1  0  0  0  0
  2  3  2  0  0  0  0
  2 17  1  0  0  0  0
  3  9  1  0  0  0  0
  4  3  1  0  0  0  0
  5  4  2  0  0  0  0
  6  5  1  0  0  0  0
  6  1  2  0  0  0  0
  7  1  1  0  0  0  0
  8  5  1  0  0  0  0
  9 10  2  0  0  0  0
  9 13  1  0  0  0  0
 10 11  1  0  0  0  0
 11 12  2  0  0  0  0
 11 15  1  0  0  0  0
 12 16  1  0  0  0  0
 13 12  1  0  0  0  0
 14 10  1  0  0  0  0
 17 18  2  0  0  0  0
 19 17  1  0  0  0  0
 19 20  2  0  0  0  0
 21 20  1  0  0  0  0
 21 22  1  0  0  0  0
M  END
>  <minimizedAffinity>
-4.03776169

$$$$

 OpenBabel03252503103D

 22 23  0  0  0  0  0  0  0  0999 V2000
   36.5270   26.9830   39.0510 C   0  0  0  0  0  0  0  0  0  0  0  0
   36.6100   28.2850   39.5830 C   0  0  0  0  0  0  0  0  0  0  0  0
   37.5090   29.1250   38.9380 C   0  0  0  0  0  0  0  0  0  0  0  0
   38.2470   28.7240   37.8810 N   0  0  0  0  0  0  0  0  0  0  0  0
   38.1280   27.4500   37.4050 C   0  0  0  0  0  0  0  0  0  0  0  0
   37.2670   26.5880   37.9960 N   0  0  0  0  0  0  0  0  0  0  0  0
   35.8600   26.2520   39.4780 H   0  0  0  0  0  0  0  0  0  0  0  0
   38.7260   27.1660   36.5690 H   0  0  0  0  0  0  0  0  0  0  0  0
   37.6540   30.4330   39.3970 C   0  0  0  0  0  0  0  0  0  0  0  0
   36.9830   31.6150   39.1730 C   0  0  0  0  0  0  0  0  0  0  0  0
   37.3230   32.7640   39.7360 C   0  0  0  0  0  0  0  0  0  0  0  0
   38.4100   32.7330   40.5850 C   0  0  0  0  0  0  0  0  0  0  0  0
   38.9290   30.9540   40.5370 S   0  0  0  0  0  0  0  0  0  0  0  0
   36.1040   31.7870   38.5720 H   0  0  0  0  0  0  0  0  0  0  0  0
   37.0090   33.7740   39.7460 H   0  0  0  0  0  0  0  0  0  0  0  0
   39.0210   33.3370   41.2200 H   0  0  0  0  0  0  0  0  0  0  0  0
   35.8050   28.6600   40.6840 C   0  0  0  0  0  0  0  0  0  0  0  0
   34.7120   29.2470   40.3780 O   0  0  0  0  0  0  0  0  0  0  0  0
   36.6320   28.1820   41.8270 C   0  0  0  0  0  3  0  0  0  0  0  0
   37.2540   28.5780   42.9170 C   0  0  0  0  0  3  0  0  0  0  0  0
   37.9510   27.5170   43.6790 C   0  0  0  0  0  2  0  0  0  0  0  0
   37.5410   27.4120   44.7110 H   0  0  0  0  0  0  0  0  0  0  0  0
  1  7  1  0  0  0  0
  1  2  1  0  0  0  0
  2 17  1  0  0  0  0
  3  9  1  0  0  0  0
  3  2  2  0  0  0  0
  4  3  1  0  0  0  0
  5  4  2  0  0  0  0
  5  6  1  0  0  0  0
  6  1  2  0  0  0  0
  8  5  1  0  0  0  0
  9 13  1  0  0  0  0
 10  9  2  0  0  0  0
 10 11  1  0  0  0  0
 11 15  1  0  0  0  0
 11 12  2  0  0  0  0
 12 16  1  0  0  0  0
 13 12  1  0  0  0  0
 14 10  1  0  0  0  0
 17 19  1  0  0  0  0
 18 17  2  0  0  0  0
 19 20  2  0  0  0  0
 20 21  1  0  0  0  0
 21 22  1  0  0  0  0
M  END
>  <minimizedAffinity>
-4.02631855

$$$$
