
 OpenBabel03252506283D

 42 45  0  0  0  0  0  0  0  0999 V2000
   46.4610   30.8630   48.9150 C   0  0  0  0  0  0  0  0  0  0  0  0
   46.5360   31.6000   49.7340 H   0  0  0  0  0  0  0  0  0  0  0  0
   47.2470   30.1200   49.0780 H   0  0  0  0  0  0  0  0  0  0  0  0
   46.3080   32.8780   45.9730 C   0  0  0  0  0  0  0  0  0  0  0  0
   47.2920   31.9230   45.6130 C   0  0  0  0  0  0  0  0  0  0  0  0
   47.4620   31.0750   46.6500 C   0  0  0  0  0  0  0  0  0  0  0  0
   46.6180   31.4850   47.6130 N   0  0  0  0  0  0  0  0  0  0  0  0
   45.9200   32.5640   47.2200 N   0  0  0  0  0  0  0  0  0  0  0  0
   47.7870   31.9290   44.6540 H   0  0  0  0  0  0  0  0  0  0  0  0
   48.1270   30.2280   46.7340 H   0  0  0  0  0  0  0  0  0  0  0  0
   44.5180   35.8240   44.7650 C   0  0  0  0  0  0  0  0  0  0  0  0
   45.0120   35.9860   43.4650 C   0  0  0  0  0  0  0  0  0  0  0  0
   45.9640   35.0700   43.0210 C   0  0  0  0  0  0  0  0  0  0  0  0
   46.3230   34.1070   43.8840 N   0  0  0  0  0  0  0  0  0  0  0  0
   45.8570   33.9540   45.1100 C   0  0  0  0  0  0  0  0  0  0  0  0
   44.9430   34.8280   45.5460 N   0  0  0  0  0  0  0  0  0  0  0  0
   43.7800   36.5530   45.0790 H   0  0  0  0  0  0  0  0  0  0  0  0
   44.7150   36.7700   42.7750 H   0  0  0  0  0  0  0  0  0  0  0  0
   46.5800   35.0900   41.7070 C   0  0  0  0  0  3  0  0  0  0  0  0
   47.8840   35.0290   41.5460 C   0  0  0  0  0  3  0  0  0  0  0  0
   48.5400   35.0470   40.2360 C   0  0  0  0  0  2  0  0  0  0  0  0
   49.5720   34.5970   40.3110 H   0  0  0  0  0  0  0  0  0  0  0  0
   45.1440   30.1860   49.0100 C   0  0  0  0  0  0  0  0  0  0  0  0
   45.0940   29.7110   50.0260 H   0  0  0  0  0  0  0  0  0  0  0  0
   44.3390   30.9490   49.0080 H   0  0  0  0  0  0  0  0  0  0  0  0
   45.1740   27.7840   48.1100 C   0  0  0  0  0  0  0  0  0  0  0  0
   44.8710   29.1250   48.0430 C   0  0  0  0  0  0  0  0  0  0  0  0
   44.2120   29.5530   46.8990 C   0  0  0  0  0  0  0  0  0  0  0  0
   43.8780   28.6830   45.8860 C   0  0  0  0  0  0  0  0  0  0  0  0
   43.2570   28.8030   44.6970 N   0  0  0  0  0  0  0  0  0  0  0  0
   43.1760   27.6270   44.0660 C   0  0  0  0  0  0  0  0  0  0  0  0
   43.7710   26.6550   44.8630 C   0  0  0  0  0  0  0  0  0  0  0  0
   44.1830   27.3500   45.9620 C   0  0  0  0  0  0  0  0  0  0  0  0
   44.8370   26.9160   47.0930 C   0  0  0  0  0  0  0  0  0  0  0  0
   45.6920   27.4950   49.0270 H   0  0  0  0  0  0  0  0  0  0  0  0
   43.9160   30.5790   46.7190 H   0  0  0  0  0  0  0  0  0  0  0  0
   42.8870   29.7220   44.3280 H   0  0  0  0  0  0  0  0  0  0  0  0
   42.7100   27.5150   43.0940 H   0  0  0  0  0  0  0  0  0  0  0  0
   43.8390   25.6150   44.5850 H   0  0  0  0  0  0  0  0  0  0  0  0
   45.1910   25.5070   47.2350 C   0  0  0  0  0  0  0  0  0  0  0  0
   44.8120   24.8380   48.2370 O   0  0  0  0  0  0  0  0  0  0  0  0
   45.7900   25.0170   46.4700 H   0  0  0  0  0  0  0  0  0  0  0  0
  1 23  1  0  0  0  0
  1  3  1  0  0  0  0
  1  2  1  0  0  0  0
  4  8  2  0  0  0  0
  5  4  1  0  0  0  0
  5  6  2  0  0  0  0
  6 10  1  0  0  0  0
  6  7  1  0  0  0  0
  7  1  1  0  0  0  0
  8  7  1  0  0  0  0
  9  5  1  0  0  0  0
 11 17  1  0  0  0  0
 11 16  1  0  0  0  0
 12 11  2  0  0  0  0
 13 12  1  0  0  0  0
 13 14  2  0  0  0  0
 14 15  1  0  0  0  0
 15 16  2  0  0  0  0
 15  4  1  0  0  0  0
 18 12  1  0  0  0  0
 19 13  1  0  0  0  0
 20 19  2  0  0  0  0
 21 22  1  0  0  0  0
 21 20  1  0  0  0  0
 23 24  1  0  0  0  0
 25 23  1  0  0  0  0
 26 35  1  0  0  0  0
 27 26  1  0  0  0  0
 27 23  1  0  0  0  0
 28 27  2  0  0  0  0
 29 33  2  0  0  0  0
 29 28  1  0  0  0  0
 30 29  1  0  0  0  0
 31 30  1  0  0  0  0
 31 32  2  0  0  0  0
 32 33  1  0  0  0  0
 33 34  1  0  0  0  0
 34 40  1  0  0  0  0
 34 26  2  0  0  0  0
 36 28  1  0  0  0  0
 37 30  1  0  0  0  0
 38 31  1  0  0  0  0
 39 32  1  0  0  0  0
 40 41  2  0  0  0  0
 42 40  1  0  0  0  0
M  END
>  <minimizedAffinity>
-5.74404812

>  <minimizedRMSD>
0.764561117

$$$$
