
 OpenBabel03252508213D

 29 30  0  0  0  0  0  0  0  0999 V2000
   45.0080   33.2580   41.0730 C   0  0  0  0  0  0  0  0  0  0  0  0
   44.4910   33.6700   41.9900 H   0  0  0  0  0  0  0  0  0  0  0  0
   45.0730   32.1790   41.2280 H   0  0  0  0  0  0  0  0  0  0  0  0
   46.2850   33.9770   41.0000 C   0  0  0  0  0  0  0  0  0  0  0  0
   47.0930   34.0170   39.8940 C   0  0  0  0  0  0  0  0  0  0  0  0
   48.3060   34.6840   39.7820 C   0  0  0  0  0  0  0  0  0  0  0  0
   48.6930   35.3660   40.9410 C   0  0  0  0  0  0  0  0  0  0  0  0
   47.9020   35.3470   42.0730 C   0  0  0  0  0  0  0  0  0  0  0  0
   46.7170   34.6710   42.1230 C   0  0  0  0  0  0  0  0  0  0  0  0
   46.7790   33.4830   39.0050 H   0  0  0  0  0  0  0  0  0  0  0  0
   48.9070   34.6940   38.9100 H   0  0  0  0  0  0  0  0  0  0  0  0
   49.6420   35.9030   40.8940 H   0  0  0  0  0  0  0  0  0  0  0  0
   48.3180   35.9150   42.9000 H   0  0  0  0  0  0  0  0  0  0  0  0
   45.9220   34.6860   43.3460 C   0  0  0  0  0  3  0  0  0  0  0  0
   46.2080   34.0110   44.4460 C   0  0  0  0  0  3  0  0  0  0  0  0
   45.3620   34.0610   45.6650 C   0  0  0  0  0  2  0  0  0  0  0  0
   44.8130   33.0980   45.7770 H   0  0  0  0  0  0  0  0  0  0  0  0
   44.0860   33.6390   39.9170 C   0  0  0  0  0  0  0  0  0  0  0  0
   44.5340   34.5610   39.4880 H   0  0  0  0  0  0  0  0  0  0  0  0
   44.0160   32.8250   39.1920 H   0  0  0  0  0  0  0  0  0  0  0  0
   41.3720   35.5990   41.6480 C   0  0  0  0  0  0  0  0  0  0  0  0
   42.6410   35.2620   41.1140 C   0  0  0  0  0  0  0  0  0  0  0  0
   42.7800   34.0170   40.4810 C   0  0  0  0  0  0  0  0  0  0  0  0
   41.6660   33.2060   40.4240 N   0  0  0  0  0  0  0  0  0  0  0  0
   40.4990   33.5750   40.9430 C   0  0  0  0  0  0  0  0  0  0  0  0
   40.3300   34.7650   41.5580 N   0  0  0  0  0  0  0  0  0  0  0  0
   41.3310   36.5750   42.1230 H   0  0  0  0  0  0  0  0  0  0  0  0
   43.4670   35.9680   41.2060 H   0  0  0  0  0  0  0  0  0  0  0  0
   39.6960   32.8540   40.8360 H   0  0  0  0  0  0  0  0  0  0  0  0
  1  3  1  0  0  0  0
  1  2  1  0  0  0  0
  4  1  1  0  0  0  0
  4  9  1  0  0  0  0
  5  4  2  0  0  0  0
  6  5  1  0  0  0  0
  6  7  2  0  0  0  0
  7  8  1  0  0  0  0
  8  9  2  0  0  0  0
  8 13  1  0  0  0  0
  9 14  1  0  0  0  0
 10  5  1  0  0  0  0
 11  6  1  0  0  0  0
 12  7  1  0  0  0  0
 14 15  2  0  0  0  0
 15 16  1  0  0  0  0
 16 17  1  0  0  0  0
 18 23  1  0  0  0  0
 18  1  1  0  0  0  0
 19 18  1  0  0  0  0
 20 18  1  0  0  0  0
 21 27  1  0  0  0  0
 22 28  1  0  0  0  0
 22 21  2  0  0  0  0
 23 22  1  0  0  0  0
 24 23  2  0  0  0  0
 24 25  1  0  0  0  0
 25 26  2  0  0  0  0
 26 21  1  0  0  0  0
 29 25  1  0  0  0  0
M  END
>  <minimizedAffinity>
-4.9005127

>  <minimizedRMSD>
0.904335618

$$$$
