
 OpenBabel03252506173D

 18 18  0  0  0  0  0  0  0  0999 V2000
   44.7070   35.5370   43.6050 C   0  0  0  0  0  0  0  0  0  0  0  0
   43.9240   35.4470   42.4150 C   0  0  0  0  0  0  0  0  0  0  0  0
   43.7800   34.1740   41.8420 C   0  0  0  0  0  0  0  0  0  0  0  0
   44.3850   33.1120   42.4420 N   0  0  0  0  0  0  0  0  0  0  0  0
   45.1160   33.2510   43.5680 C   0  0  0  0  0  0  0  0  0  0  0  0
   45.2720   34.4440   44.1360 N   0  0  0  0  0  0  0  0  0  0  0  0
   43.4860   36.3550   42.0210 H   0  0  0  0  0  0  0  0  0  0  0  0
   43.1870   34.0980   40.9400 H   0  0  0  0  0  0  0  0  0  0  0  0
   44.8610   36.8690   44.2100 C   0  0  0  0  0  3  0  0  0  0  0  0
   45.2550   37.8600   43.4220 C   0  0  0  0  0  3  0  0  0  0  0  0
   45.4220   39.2290   44.0060 C   0  0  0  0  0  0  0  0  0  0  0  0
   46.2310   39.1340   44.7760 H   0  0  0  0  0  0  0  0  0  0  0  0
   44.5320   39.5960   44.5210 H   0  0  0  0  0  0  0  0  0  0  0  0
   45.7870   39.9290   43.2520 H   0  0  0  0  0  0  0  0  0  0  0  0
   45.7450   32.0870   44.1750 C   0  0  0  0  0  3  0  0  0  0  0  0
   45.3980   30.8480   43.8640 C   0  0  0  0  0  3  0  0  0  0  0  0
   46.0090   29.6340   44.4550 C   0  0  0  0  0  2  0  0  0  0  0  0
   46.7170   29.9800   45.2530 H   0  0  0  0  0  0  0  0  0  0  0  0
  1  6  1  0  0  0  0
  1  9  1  0  0  0  0
  2  1  2  0  0  0  0
  3  2  1  0  0  0  0
  3  4  2  0  0  0  0
  4  5  1  0  0  0  0
  5  6  2  0  0  0  0
  5 15  1  0  0  0  0
  7  2  1  0  0  0  0
  8  3  1  0  0  0  0
 10 11  1  0  0  0  0
 10  9  2  0  0  0  0
 11 13  1  0  0  0  0
 11 12  1  0  0  0  0
 14 11  1  0  0  0  0
 16 15  2  0  0  0  0
 16 17  1  0  0  0  0
 17 18  1  0  0  0  0
M  END
>  <minimizedAffinity>
-2.62840176

>  <minimizedRMSD>
0.0430588648

$$$$
