
 OpenBabel03252505063D

 38 40  0  0  1  0  0  0  0  0999 V2000
   44.5780   35.5880   44.6160 C   0  0  0  0  0  0  0  0  0  0  0  0
   45.2360   35.5980   43.3630 C   0  0  0  0  0  0  0  0  0  0  0  0
   46.3200   34.6860   43.1860 C   0  0  0  0  0  0  0  0  0  0  0  0
   46.6650   33.8650   44.2070 N   0  0  0  0  0  0  0  0  0  0  0  0
   46.0080   33.8940   45.3770 C   0  0  0  0  0  0  0  0  0  0  0  0
   44.9640   34.7490   45.5970 N   0  0  0  0  0  0  0  0  0  0  0  0
   43.7560   36.2640   44.7820 H   0  0  0  0  0  0  0  0  0  0  0  0
   44.9240   36.2740   42.5760 H   0  0  0  0  0  0  0  0  0  0  0  0
   46.4360   32.9700   46.4630 C   0  0  2  0  0  0  0  0  0  0  0  0
   46.9660   31.7480   45.7660 C   0  0  0  0  0  0  0  0  0  0  0  0
   46.1040   30.5540   45.7780 C   0  0  0  0  0  0  0  0  0  0  0  0
   45.8100   30.2890   47.2570 C   0  0  0  0  0  0  0  0  0  0  0  0
   45.0160   31.3500   47.8690 C   0  0  0  0  0  0  0  0  0  0  0  0
   45.3800   32.7300   47.4210 C   0  0  0  0  0  0  0  0  0  0  0  0
   47.2760   33.4980   46.9720 H   0  0  0  0  0  0  0  0  0  0  0  0
   47.9280   31.4700   46.2650 H   0  0  0  0  0  0  0  0  0  0  0  0
   47.2660   31.9550   44.7120 H   0  0  0  0  0  0  0  0  0  0  0  0
   46.6810   29.6930   45.4380 H   0  0  0  0  0  0  0  0  0  0  0  0
   45.1870   30.6200   45.1730 H   0  0  0  0  0  0  0  0  0  0  0  0
   46.7530   30.0410   47.7440 H   0  0  0  0  0  0  0  0  0  0  0  0
   45.1480   29.3930   47.2400 H   0  0  0  0  0  0  0  0  0  0  0  0
   44.2240   31.3420   48.5730 H   0  0  0  0  0  0  0  0  0  0  0  0
   44.6820   33.8730   47.9330 N   0  0  0  0  0  0  0  0  0  0  0  0
   43.6680   33.9910   47.7110 H   0  0  0  0  0  0  0  0  0  0  0  0
   45.2410   34.5180   48.5010 H   0  0  0  0  0  0  0  0  0  0  0  0
   47.0130   34.6730   41.9050 C   0  0  0  0  0  0  0  0  0  0  0  0
   48.1560   35.3960   41.7800 C   0  0  0  0  0  0  0  0  0  0  0  0
   48.7860   35.3510   40.5240 C   0  0  0  0  0  0  0  0  0  0  0  0
   48.1830   34.5830   39.5550 C   0  0  0  0  0  0  0  0  0  0  0  0
   47.0360   33.8570   39.6810 C   0  0  0  0  0  0  0  0  0  0  0  0
   46.4640   33.9350   40.9200 N   0  0  0  0  0  0  0  0  0  0  0  0
   48.6120   35.9940   42.5590 H   0  0  0  0  0  0  0  0  0  0  0  0
   49.6980   35.9010   40.3510 H   0  0  0  0  0  0  0  0  0  0  0  0
   48.6920   34.5670   38.5940 H   0  0  0  0  0  0  0  0  0  0  0  0
   46.4180   33.0610   38.6620 C   0  0  0  0  0  3  0  0  0  0  0  0
   45.1040   32.9760   38.5630 C   0  0  0  0  0  3  0  0  0  0  0  0
   44.3750   32.1920   37.5610 C   0  0  0  0  0  2  0  0  0  0  0  0
   44.9340   31.2690   37.2350 H   0  0  0  0  0  0  0  0  0  0  0  0
  1  7  1  0  0  0  0
  1  6  1  0  0  0  0
  2  1  2  0  0  0  0
  3  2  1  0  0  0  0
  3  4  2  0  0  0  0
  4  5  1  0  0  0  0
  5  6  2  0  0  0  0
  5  9  1  0  0  0  0
  8  2  1  0  0  0  0
  9 15  1  1  0  0  0
  9 14  1  0  0  0  0
 10 11  1  0  0  0  0
 10 16  1  0  0  0  0
 10  9  1  0  0  0  0
 11 12  1  0  0  0  0
 12 20  1  0  0  0  0
 12 13  1  0  0  0  0
 13 22  1  0  0  0  0
 14 13  2  0  0  0  0
 14 23  1  0  0  0  0
 17 10  1  0  0  0  0
 18 11  1  0  0  0  0
 19 11  1  0  0  0  0
 21 12  1  0  0  0  0
 23 25  1  0  0  0  0
 24 23  1  0  0  0  0
 26  3  1  0  0  0  0
 27 26  1  0  0  0  0
 27 32  1  0  0  0  0
 28 27  2  0  0  0  0
 29 30  2  0  0  0  0
 29 28  1  0  0  0  0
 30 31  1  0  0  0  0
 31 26  2  0  0  0  0
 33 28  1  0  0  0  0
 34 29  1  0  0  0  0
 35 30  1  0  0  0  0
 36 35  2  0  0  0  0
 37 36  1  0  0  0  0
 38 37  1  0  0  0  0
M  END
>  <minimizedAffinity>
-6.93327045

>  <minimizedRMSD>
0.413027555

$$$$
