
 OpenBabel03242516483D

 38 40  0  0  1  0  0  0  0  0999 V2000
   47.8670   32.9150   41.7450 C   0  0  1  0  0  0  0  0  0  0  0  0
   47.5450   32.2030   40.4920 C   0  0  0  0  0  0  0  0  0  0  0  0
   48.5800   32.6830   39.4700 C   0  0  0  0  0  0  0  0  0  0  0  0
   48.2450   34.1280   39.1660 C   0  0  0  0  0  0  0  0  0  0  0  0
   48.1760   35.0070   40.3750 C   0  0  0  0  0  0  0  0  0  0  0  0
   47.6750   34.4130   41.6220 C   0  0  1  0  0  0  0  0  0  0  0  0
   48.9750   32.8080   41.9430 H   0  0  0  0  0  0  0  0  0  0  0  0
   47.6920   31.1110   40.6770 H   0  0  0  0  0  0  0  0  0  0  0  0
   46.5230   32.3840   40.1370 H   0  0  0  0  0  0  0  0  0  0  0  0
   48.3720   32.0940   38.5570 H   0  0  0  0  0  0  0  0  0  0  0  0
   49.5820   32.5370   39.8970 H   0  0  0  0  0  0  0  0  0  0  0  0
   47.2850   34.1040   38.5870 H   0  0  0  0  0  0  0  0  0  0  0  0
   49.0190   34.4980   38.4710 H   0  0  0  0  0  0  0  0  0  0  0  0
   49.1670   35.5080   40.4830 H   0  0  0  0  0  0  0  0  0  0  0  0
   47.4810   35.8440   40.0990 H   0  0  0  0  0  0  0  0  0  0  0  0
   48.2710   34.8470   42.4820 H   0  0  0  0  0  0  0  0  0  0  0  0
   45.4360   31.0680   43.9710 C   0  0  0  0  0  0  0  0  0  0  0  0
   46.1130   31.5680   42.8590 C   0  0  0  0  0  0  0  0  0  0  0  0
   47.2010   32.4170   42.9420 C   0  0  0  0  0  0  0  0  0  0  0  0
   47.5840   32.7440   44.1870 N   0  0  0  0  0  0  0  0  0  0  0  0
   46.9410   32.2700   45.2800 C   0  0  0  0  0  0  0  0  0  0  0  0
   45.8980   31.4570   45.1930 N   0  0  0  0  0  0  0  0  0  0  0  0
   44.6030   30.4150   43.8080 H   0  0  0  0  0  0  0  0  0  0  0  0
   45.7680   31.2760   41.8770 H   0  0  0  0  0  0  0  0  0  0  0  0
   47.3360   32.6010   46.2310 H   0  0  0  0  0  0  0  0  0  0  0  0
   46.2840   34.8000   41.9210 C   0  0  0  0  0  0  0  0  0  0  0  0
   45.8320   35.4680   43.0710 C   0  0  0  0  0  0  0  0  0  0  0  0
   44.4540   35.7430   43.0980 C   0  0  0  0  0  0  0  0  0  0  0  0
   43.6780   35.3470   42.0240 C   0  0  0  0  0  0  0  0  0  0  0  0
   44.1500   34.7030   40.9310 C   0  0  0  0  0  0  0  0  0  0  0  0
   45.4740   34.4280   40.8830 N   0  0  0  0  0  0  0  0  0  0  0  0
   46.5730   35.6910   43.7890 H   0  0  0  0  0  0  0  0  0  0  0  0
   44.1210   36.2470   43.9680 H   0  0  0  0  0  0  0  0  0  0  0  0
   42.6440   35.6220   42.1810 H   0  0  0  0  0  0  0  0  0  0  0  0
   43.2440   34.3260   39.8470 C   0  0  0  0  0  0  0  0  0  0  0  0
   42.2830   35.1460   39.4680 C   0  0  0  0  0  0  0  0  0  0  0  0
   41.3180   34.8510   38.3780 C   0  0  0  0  0  0  0  0  0  0  0  0
   41.4330   35.5960   37.5410 H   0  0  0  0  0  0  0  0  0  0  0  0
  1  7  1  1  0  0  0
  1 19  1  0  0  0  0
  2  8  1  0  0  0  0
  2  1  1  0  0  0  0
  3 11  1  0  0  0  0
  3  2  1  0  0  0  0
  4  3  1  0  0  0  0
  4  5  1  0  0  0  0
  5 14  1  0  0  0  0
  5  6  1  0  0  0  0
  6  1  1  0  0  0  0
  6 26  1  0  0  0  0
  6 16  1  1  0  0  0
  9  2  1  0  0  0  0
 10  3  1  0  0  0  0
 12  4  1  0  0  0  0
 13  4  1  0  0  0  0
 15  5  1  0  0  0  0
 17 22  1  0  0  0  0
 18 19  1  0  0  0  0
 18 17  2  0  0  0  0
 19 20  2  0  0  0  0
 20 21  1  0  0  0  0
 21 25  1  0  0  0  0
 22 21  2  0  0  0  0
 23 17  1  0  0  0  0
 24 18  1  0  0  0  0
 26 27  1  0  0  0  0
 27 28  2  0  0  0  0
 27 32  1  0  0  0  0
 28 33  1  0  0  0  0
 29 34  1  0  0  0  0
 29 28  1  0  0  0  0
 30 29  2  0  0  0  0
 31 30  1  0  0  0  0
 31 26  2  0  0  0  0
 35 30  1  0  0  0  0
 36 35  2  0  0  0  0
 37 36  1  0  0  0  0
 38 37  1  0  0  0  0
M  END
>  <minimizedAffinity>
-5.24982691

>  <minimizedRMSD>
0.288330078

$$$$
