
 OpenBabel03252506493D

 24 25  0  0  0  0  0  0  0  0999 V2000
   43.3830   33.5320   40.4150 S   0  0  0  0  0  0  0  0  0  0  0  0
   41.2690   31.2670   41.2110 Cl  0  0  0  0  0  0  0  0  0  0  0  0
   40.6710   32.8270   40.6750 C   0  0  0  0  0  0  0  0  0  0  0  0
   41.6320   33.7430   40.3530 C   0  0  0  0  0  0  0  0  0  0  0  0
   41.2030   34.9960   39.9230 C   0  0  0  0  0  0  0  0  0  0  0  0
   39.8430   35.2690   39.8360 C   0  0  0  0  0  0  0  0  0  0  0  0
   38.8770   34.3450   40.1620 C   0  0  0  0  0  0  0  0  0  0  0  0
   39.3130   33.0900   40.5920 C   0  0  0  0  0  0  0  0  0  0  0  0
   38.1790   31.8360   41.0330 Cl  0  0  0  0  0  0  0  0  0  0  0  0
   41.8840   35.7880   39.6450 H   0  0  0  0  0  0  0  0  0  0  0  0
   39.5010   36.2520   39.4990 H   0  0  0  0  0  0  0  0  0  0  0  0
   37.8140   34.5670   40.0920 H   0  0  0  0  0  0  0  0  0  0  0  0
   44.1430   34.3270   41.8310 C   0  0  0  0  0  0  0  0  0  0  0  0
   44.5290   33.4510   42.8530 C   0  0  0  0  0  0  0  0  0  0  0  0
   45.1330   34.0040   43.9970 C   0  0  0  0  0  0  0  0  0  0  0  0
   45.3090   35.3550   44.0500 N   0  0  0  0  0  0  0  0  0  0  0  0
   44.9190   36.1500   43.0390 C   0  0  0  0  0  0  0  0  0  0  0  0
   44.3320   35.6580   41.9140 N   0  0  0  0  0  0  0  0  0  0  0  0
   44.3830   32.3810   42.7990 H   0  0  0  0  0  0  0  0  0  0  0  0
   45.4590   33.4010   44.8280 H   0  0  0  0  0  0  0  0  0  0  0  0
   45.1310   37.5900   43.1450 C   0  0  0  0  0  3  0  0  0  0  0  0
   45.1710   38.1540   44.3420 C   0  0  0  0  0  3  0  0  0  0  0  0
   45.3740   39.5870   44.6360 C   0  0  0  0  0  2  0  0  0  0  0  0
   46.3120   39.7320   45.2440 H   0  0  0  0  0  0  0  0  0  0  0  0
  1 13  1  0  0  0  0
  3  2  1  0  0  0  0
  4  1  1  0  0  0  0
  4  3  2  0  0  0  0
  5  4  1  0  0  0  0
  6  5  2  0  0  0  0
  6  7  1  0  0  0  0
  7  8  2  0  0  0  0
  8  3  1  0  0  0  0
  8  9  1  0  0  0  0
 10  5  1  0  0  0  0
 11  6  1  0  0  0  0
 12  7  1  0  0  0  0
 13 18  2  0  0  0  0
 13 14  1  0  0  0  0
 14 15  2  0  0  0  0
 15 16  1  0  0  0  0
 15 20  1  0  0  0  0
 17 21  1  0  0  0  0
 17 16  2  0  0  0  0
 18 17  1  0  0  0  0
 19 14  1  0  0  0  0
 21 22  2  0  0  0  0
 22 23  1  0  0  0  0
 23 24  1  0  0  0  0
M  END
>  <minimizedAffinity>
-4.31352663

>  <minimizedRMSD>
1.71044815

$$$$
