
 OpenBabel03252505063D

 38 40  0  0  1  0  0  0  0  0999 V2000
   44.5750   35.5890   44.6130 C   0  0  0  0  0  0  0  0  0  0  0  0
   45.2340   35.6000   43.3600 C   0  0  0  0  0  0  0  0  0  0  0  0
   46.3180   34.6890   43.1830 C   0  0  0  0  0  0  0  0  0  0  0  0
   46.6630   33.8680   44.2050 N   0  0  0  0  0  0  0  0  0  0  0  0
   46.0060   33.8960   45.3750 C   0  0  0  0  0  0  0  0  0  0  0  0
   44.9610   34.7500   45.5940 N   0  0  0  0  0  0  0  0  0  0  0  0
   43.7530   36.2650   44.7790 H   0  0  0  0  0  0  0  0  0  0  0  0
   44.9220   36.2760   42.5730 H   0  0  0  0  0  0  0  0  0  0  0  0
   46.4330   32.9720   46.4600 C   0  0  2  0  0  0  0  0  0  0  0  0
   46.9640   31.7500   45.7630 C   0  0  0  0  0  0  0  0  0  0  0  0
   46.1010   30.5560   45.7760 C   0  0  0  0  0  0  0  0  0  0  0  0
   45.8080   30.2920   47.2540 C   0  0  0  0  0  0  0  0  0  0  0  0
   45.0140   31.3530   47.8670 C   0  0  0  0  0  0  0  0  0  0  0  0
   45.3780   32.7320   47.4180 C   0  0  0  0  0  0  0  0  0  0  0  0
   47.2740   33.4990   46.9680 H   0  0  0  0  0  0  0  0  0  0  0  0
   47.9250   31.4710   46.2620 H   0  0  0  0  0  0  0  0  0  0  0  0
   47.2630   31.9570   44.7090 H   0  0  0  0  0  0  0  0  0  0  0  0
   46.6780   29.6950   45.4350 H   0  0  0  0  0  0  0  0  0  0  0  0
   45.1840   30.6220   45.1710 H   0  0  0  0  0  0  0  0  0  0  0  0
   46.7500   30.0430   47.7410 H   0  0  0  0  0  0  0  0  0  0  0  0
   45.1450   29.3950   47.2380 H   0  0  0  0  0  0  0  0  0  0  0  0
   44.2220   31.3440   48.5700 H   0  0  0  0  0  0  0  0  0  0  0  0
   44.6810   33.8760   47.9310 N   0  0  0  0  0  0  0  0  0  0  0  0
   43.6660   33.9940   47.7090 H   0  0  0  0  0  0  0  0  0  0  0  0
   45.2400   34.5200   48.4990 H   0  0  0  0  0  0  0  0  0  0  0  0
   47.0120   34.6770   41.9030 C   0  0  0  0  0  0  0  0  0  0  0  0
   48.1570   35.3970   41.7800 C   0  0  0  0  0  0  0  0  0  0  0  0
   48.7880   35.3530   40.5250 C   0  0  0  0  0  0  0  0  0  0  0  0
   48.1830   34.5890   39.5530 C   0  0  0  0  0  0  0  0  0  0  0  0
   47.0340   33.8670   39.6770 C   0  0  0  0  0  0  0  0  0  0  0  0
   46.4610   33.9430   40.9160 N   0  0  0  0  0  0  0  0  0  0  0  0
   48.6150   35.9920   42.5610 H   0  0  0  0  0  0  0  0  0  0  0  0
   49.7020   35.9000   40.3530 H   0  0  0  0  0  0  0  0  0  0  0  0
   48.6930   34.5740   38.5930 H   0  0  0  0  0  0  0  0  0  0  0  0
   46.4150   33.0740   38.6560 C   0  0  0  0  0  3  0  0  0  0  0  0
   46.4920   31.7560   38.6730 C   0  0  0  0  0  3  0  0  0  0  0  0
   45.8950   30.8560   37.6800 C   0  0  0  0  0  2  0  0  0  0  0  0
   45.8400   31.3140   36.6500 H   0  0  0  0  0  0  0  0  0  0  0  0
  1  7  1  0  0  0  0
  1  6  1  0  0  0  0
  2  1  2  0  0  0  0
  3  2  1  0  0  0  0
  3  4  2  0  0  0  0
  4  5  1  0  0  0  0
  5  6  2  0  0  0  0
  5  9  1  0  0  0  0
  8  2  1  0  0  0  0
  9 15  1  1  0  0  0
  9 14  1  0  0  0  0
 10 11  1  0  0  0  0
 10 16  1  0  0  0  0
 10  9  1  0  0  0  0
 11 12  1  0  0  0  0
 12 20  1  0  0  0  0
 12 13  1  0  0  0  0
 13 22  1  0  0  0  0
 14 13  2  0  0  0  0
 14 23  1  0  0  0  0
 17 10  1  0  0  0  0
 18 11  1  0  0  0  0
 19 11  1  0  0  0  0
 21 12  1  0  0  0  0
 23 25  1  0  0  0  0
 24 23  1  0  0  0  0
 26  3  1  0  0  0  0
 27 26  1  0  0  0  0
 27 32  1  0  0  0  0
 28 27  2  0  0  0  0
 29 30  2  0  0  0  0
 29 28  1  0  0  0  0
 30 31  1  0  0  0  0
 31 26  2  0  0  0  0
 33 28  1  0  0  0  0
 34 29  1  0  0  0  0
 35 36  2  0  0  0  0
 35 30  1  0  0  0  0
 37 36  1  0  0  0  0
 38 37  1  0  0  0  0
M  END
>  <minimizedAffinity>
-6.82260132

>  <minimizedRMSD>
0.0405904986

$$$$
