
 OpenBabel03242510243D

 33 35  0  0  1  0  0  0  0  0999 V2000
   37.5910   29.7770   39.8450 N   0  0  0  0  0  0  0  0  0  0  0  0
   36.9020   29.9100   41.0440 C   0  0  0  0  0  0  0  0  0  0  0  0
   36.0400   30.7510   41.4060 O   0  0  0  0  0  0  0  0  0  0  0  0
   38.6100   29.5470   40.0140 H   0  0  0  0  0  0  0  0  0  0  0  0
   37.3070   31.1730   37.8290 C   0  0  1  0  0  0  0  0  0  0  0  0
   38.0210   30.0420   37.4160 C   0  0  0  0  0  0  0  0  0  0  0  0
   36.9800   29.9370   38.5740 C   0  0  1  0  0  0  0  0  0  0  0  0
   36.5100   31.6470   37.2190 H   0  0  0  0  0  0  0  0  0  0  0  0
   39.0480   29.7200   37.6630 H   0  0  0  0  0  0  0  0  0  0  0  0
   37.6790   29.5080   36.4820 H   0  0  0  0  0  0  0  0  0  0  0  0
   36.1220   29.2960   38.3160 H   0  0  0  0  0  0  0  0  0  0  0  0
   39.4930   32.2900   38.7010 C   0  0  0  0  0  0  0  0  0  0  0  0
   38.0620   32.2510   38.6250 C   0  0  0  0  0  0  0  0  0  0  0  0
   37.3540   33.2130   39.3260 C   0  0  0  0  0  0  0  0  0  0  0  0
   38.0350   34.1330   40.0420 N   0  0  0  0  0  0  0  0  0  0  0  0
   39.4010   34.1560   40.1050 C   0  0  0  0  0  0  0  0  0  0  0  0
   40.1370   33.2010   39.4100 N   0  0  0  0  0  0  0  0  0  0  0  0
   40.0120   31.5610   38.1480 H   0  0  0  0  0  0  0  0  0  0  0  0
   36.2710   33.2320   39.3040 H   0  0  0  0  0  0  0  0  0  0  0  0
   39.9410   34.8940   40.6810 H   0  0  0  0  0  0  0  0  0  0  0  0
   37.1650   28.9160   42.1650 C   0  0  2  0  0  0  0  0  0  0  0  0
   38.2890   29.3040   43.1910 C   0  0  0  0  0  0  0  0  0  0  0  0
   38.4170   28.1640   42.2360 C   0  0  1  0  0  0  0  0  0  0  0  0
   36.2850   28.5420   42.7260 H   0  0  0  0  0  0  0  0  0  0  0  0
   38.1420   29.0580   44.2370 H   0  0  0  0  0  0  0  0  0  0  0  0
   38.8610   30.2230   42.9060 H   0  0  0  0  0  0  0  0  0  0  0  0
   38.9850   28.2040   41.2780 H   0  0  0  0  0  0  0  0  0  0  0  0
   38.3510   26.7610   42.8000 C   0  0  0  0  0  0  0  0  0  0  0  0
   39.1950   26.3860   43.6060 O   0  0  0  0  0  0  0  0  0  0  0  0
   37.2930   25.8330   42.4000 C   0  0  0  0  0  3  0  0  0  0  0  0
   37.5510   25.0020   41.4330 C   0  0  0  0  0  3  0  0  0  0  0  0
   36.5010   24.0320   40.9870 C   0  0  0  0  0  2  0  0  0  0  0  0
   36.6930   23.0200   41.3740 H   0  0  0  0  0  0  0  0  0  0  0  0
  1  4  1  0  0  0  0
  1  2  1  0  0  0  0
  2  3  2  0  0  0  0
  2 21  1  0  0  0  0
  5  8  1  6  0  0  0
  5  7  1  0  0  0  0
  5 13  1  0  0  0  0
  6  9  1  0  0  0  0
  6  5  1  0  0  0  0
  6  7  1  0  0  0  0
  7 11  1  6  0  0  0
  7  1  1  0  0  0  0
 10  6  1  0  0  0  0
 12 17  1  0  0  0  0
 13 12  2  0  0  0  0
 13 14  1  0  0  0  0
 14 15  2  0  0  0  0
 15 16  1  0  0  0  0
 16 20  1  0  0  0  0
 17 16  2  0  0  0  0
 18 12  1  0  0  0  0
 19 14  1  0  0  0  0
 21 23  1  0  0  0  0
 21 24  1  1  0  0  0
 21 22  1  0  0  0  0
 22 25  1  0  0  0  0
 23 27  1  6  0  0  0
 23 28  1  0  0  0  0
 23 22  1  0  0  0  0
 26 22  1  0  0  0  0
 28 29  2  0  0  0  0
 30 28  1  0  0  0  0
 31 30  2  0  0  0  0
 32 33  1  0  0  0  0
 32 31  1  0  0  0  0
M  END
>  <minimizedAffinity>
-5.11565781

$$$$

 OpenBabel03242510243D

 33 35  0  0  1  0  0  0  0  0999 V2000
   39.4510   31.2170   40.0170 N   0  0  0  0  0  0  0  0  0  0  0  0
   40.1330   31.2430   41.2270 C   0  0  0  0  0  0  0  0  0  0  0  0
   41.0300   32.0190   41.6470 O   0  0  0  0  0  0  0  0  0  0  0  0
   39.3490   30.2270   39.6590 H   0  0  0  0  0  0  0  0  0  0  0  0
   37.5180   32.4410   39.0890 C   0  0  1  0  0  0  0  0  0  0  0  0
   37.9190   33.1570   40.2230 C   0  0  0  0  0  0  0  0  0  0  0  0
   38.9700   32.3840   39.3680 C   0  0  1  0  0  0  0  0  0  0  0  0
   37.1810   32.9270   38.1500 H   0  0  0  0  0  0  0  0  0  0  0  0
   37.8720   32.8820   41.2920 H   0  0  0  0  0  0  0  0  0  0  0  0
   38.0320   34.2770   40.1330 H   0  0  0  0  0  0  0  0  0  0  0  0
   39.6970   33.0540   38.8810 H   0  0  0  0  0  0  0  0  0  0  0  0
   36.2250   30.7390   40.5790 C   0  0  0  0  0  0  0  0  0  0  0  0
   36.7470   31.1270   39.3020 C   0  0  0  0  0  0  0  0  0  0  0  0
   36.5620   30.2570   38.2400 C   0  0  0  0  0  0  0  0  0  0  0  0
   35.9070   29.0970   38.4540 N   0  0  0  0  0  0  0  0  0  0  0  0
   35.4170   28.7410   39.6800 C   0  0  0  0  0  0  0  0  0  0  0  0
   35.5880   29.5970   40.7640 N   0  0  0  0  0  0  0  0  0  0  0  0
   36.3610   31.4220   41.3680 H   0  0  0  0  0  0  0  0  0  0  0  0
   36.9350   30.4990   37.2520 H   0  0  0  0  0  0  0  0  0  0  0  0
   34.8940   27.8090   39.8460 H   0  0  0  0  0  0  0  0  0  0  0  0
   39.8050   30.2020   42.2860 C   0  0  2  0  0  0  0  0  0  0  0  0
   40.6810   28.8990   42.2760 C   0  0  0  0  0  0  0  0  0  0  0  0
   39.2310   28.9060   41.9260 C   0  0  1  0  0  0  0  0  0  0  0  0
   39.7080   30.5580   43.3310 H   0  0  0  0  0  0  0  0  0  0  0  0
   40.9580   28.4540   43.2270 H   0  0  0  0  0  0  0  0  0  0  0  0
   41.3760   28.8300   41.4010 H   0  0  0  0  0  0  0  0  0  0  0  0
   38.8320   28.8990   40.8850 H   0  0  0  0  0  0  0  0  0  0  0  0
   38.2640   28.2810   42.9090 C   0  0  0  0  0  0  0  0  0  0  0  0
   37.6320   28.9930   43.6800 O   0  0  0  0  0  0  0  0  0  0  0  0
   38.0680   26.8330   42.9600 C   0  0  0  0  0  3  0  0  0  0  0  0
   37.2110   26.3080   42.1330 C   0  0  0  0  0  3  0  0  0  0  0  0
   36.9740   24.8300   42.1450 C   0  0  0  0  0  2  0  0  0  0  0  0
   37.4850   24.3300   41.3090 H   0  0  0  0  0  0  0  0  0  0  0  0
  1  2  1  0  0  0  0
  2  3  2  0  0  0  0
  2 21  1  0  0  0  0
  4  1  1  0  0  0  0
  5  8  1  6  0  0  0
  5 13  1  0  0  0  0
  5  7  1  0  0  0  0
  5  6  1  0  0  0  0
  6  9  1  0  0  0  0
  7 11  1  6  0  0  0
  7  1  1  0  0  0  0
  7  6  1  0  0  0  0
 10  6  1  0  0  0  0
 12 17  1  0  0  0  0
 12 18  1  0  0  0  0
 13 12  2  0  0  0  0
 14 15  2  0  0  0  0
 14 13  1  0  0  0  0
 15 16  1  0  0  0  0
 16 20  1  0  0  0  0
 16 17  2  0  0  0  0
 19 14  1  0  0  0  0
 21 24  1  1  0  0  0
 22 21  1  0  0  0  0
 22 25  1  0  0  0  0
 23 27  1  6  0  0  0
 23 22  1  0  0  0  0
 23 21  1  0  0  0  0
 23 28  1  0  0  0  0
 26 22  1  0  0  0  0
 28 30  1  0  0  0  0
 28 29  2  0  0  0  0
 31 32  1  0  0  0  0
 31 30  2  0  0  0  0
 33 32  1  0  0  0  0
M  END
>  <minimizedAffinity>
-4.9730587

$$$$

 OpenBabel03242510243D

 33 35  0  0  1  0  0  0  0  0999 V2000
   37.0200   28.4140   41.3600 N   0  0  0  0  0  0  0  0  0  0  0  0
   37.5150   28.2960   42.6530 C   0  0  0  0  0  0  0  0  0  0  0  0
   37.5080   29.1090   43.6130 O   0  0  0  0  0  0  0  0  0  0  0  0
   37.6970   28.0120   40.6540 H   0  0  0  0  0  0  0  0  0  0  0  0
   35.7830   30.1680   40.1400 C   0  0  1  0  0  0  0  0  0  0  0  0
   35.4300   28.9560   39.5350 C   0  0  0  0  0  0  0  0  0  0  0  0
   35.7670   29.0070   41.0580 C   0  0  1  0  0  0  0  0  0  0  0  0
   35.0610   30.9920   40.3200 H   0  0  0  0  0  0  0  0  0  0  0  0
   36.0370   28.2580   38.9320 H   0  0  0  0  0  0  0  0  0  0  0  0
   34.3350   28.7550   39.3440 H   0  0  0  0  0  0  0  0  0  0  0  0
   34.9000   28.7630   41.6930 H   0  0  0  0  0  0  0  0  0  0  0  0
   37.9420   30.3380   38.6920 C   0  0  0  0  0  0  0  0  0  0  0  0
   37.1710   30.7510   39.8280 C   0  0  0  0  0  0  0  0  0  0  0  0
   37.7310   31.6910   40.6770 C   0  0  0  0  0  0  0  0  0  0  0  0
   38.9630   32.1690   40.4010 N   0  0  0  0  0  0  0  0  0  0  0  0
   39.6850   31.7640   39.3130 C   0  0  0  0  0  0  0  0  0  0  0  0
   39.1460   30.8210   38.4430 N   0  0  0  0  0  0  0  0  0  0  0  0
   37.4910   29.6370   38.0500 H   0  0  0  0  0  0  0  0  0  0  0  0
   37.1940   32.0400   41.5510 H   0  0  0  0  0  0  0  0  0  0  0  0
   40.6720   32.1490   39.0970 H   0  0  0  0  0  0  0  0  0  0  0  0
   38.1940   27.0010   43.0710 C   0  0  2  0  0  0  0  0  0  0  0  0
   39.7620   26.9770   42.9900 C   0  0  0  0  0  0  0  0  0  0  0  0
   38.8880   26.1570   42.1000 C   0  0  1  0  0  0  0  0  0  0  0  0
   37.8800   26.5560   44.0370 H   0  0  0  0  0  0  0  0  0  0  0  0
   40.3120   26.4500   43.7630 H   0  0  0  0  0  0  0  0  0  0  0  0
   40.2010   27.8870   42.5100 H   0  0  0  0  0  0  0  0  0  0  0  0
   38.6280   26.4260   41.0500 H   0  0  0  0  0  0  0  0  0  0  0  0
   38.8520   24.6620   42.3290 C   0  0  0  0  0  0  0  0  0  0  0  0
   39.6580   24.1420   43.0920 O   0  0  0  0  0  0  0  0  0  0  0  0
   37.8680   23.8160   41.6560 C   0  0  0  0  0  3  0  0  0  0  0  0
   37.0110   24.3950   40.8660 C   0  0  0  0  0  3  0  0  0  0  0  0
   35.9830   23.5730   40.1530 C   0  0  0  0  0  2  0  0  0  0  0  0
   36.2490   23.4180   39.0970 H   0  0  0  0  0  0  0  0  0  0  0  0
  1  2  1  0  0  0  0
  2 21  1  0  0  0  0
  2  3  2  0  0  0  0
  4  1  1  0  0  0  0
  5  8  1  1  0  0  0
  5  7  1  0  0  0  0
  6  5  1  0  0  0  0
  6  7  1  0  0  0  0
  7  1  1  0  0  0  0
  7 11  1  1  0  0  0
  9  6  1  0  0  0  0
 10  6  1  0  0  0  0
 12 13  1  0  0  0  0
 13  5  1  0  0  0  0
 13 14  2  0  0  0  0
 14 19  1  0  0  0  0
 15 14  1  0  0  0  0
 16 15  2  0  0  0  0
 17 12  2  0  0  0  0
 17 16  1  0  0  0  0
 18 12  1  0  0  0  0
 20 16  1  0  0  0  0
 21 24  1  1  0  0  0
 22 21  1  0  0  0  0
 22 25  1  0  0  0  0
 23 27  1  6  0  0  0
 23 28  1  0  0  0  0
 23 22  1  0  0  0  0
 23 21  1  0  0  0  0
 26 22  1  0  0  0  0
 28 29  2  0  0  0  0
 30 28  1  0  0  0  0
 31 30  2  0  0  0  0
 32 31  1  0  0  0  0
 33 32  1  0  0  0  0
M  END
>  <minimizedAffinity>
-4.78629255

$$$$

 OpenBabel03242510243D

 33 35  0  0  1  0  0  0  0  0999 V2000
   37.7400   25.6940   39.8630 N   0  0  0  0  0  0  0  0  0  0  0  0
   36.5970   25.8000   39.0820 C   0  0  0  0  0  0  0  0  0  0  0  0
   35.9710   24.9330   38.4180 O   0  0  0  0  0  0  0  0  0  0  0  0
   38.3880   26.5140   39.7040 H   0  0  0  0  0  0  0  0  0  0  0  0
   38.0870   24.9370   42.1880 C   0  0  1  0  0  0  0  0  0  0  0  0
   36.8420   24.4290   41.8000 C   0  0  0  0  0  0  0  0  0  0  0  0
   37.9810   24.6100   40.7490 C   0  0  1  0  0  0  0  0  0  0  0  0
   38.8120   24.3660   42.8050 H   0  0  0  0  0  0  0  0  0  0  0  0
   35.8960   24.9550   41.5790 H   0  0  0  0  0  0  0  0  0  0  0  0
   36.6210   23.3420   42.0100 H   0  0  0  0  0  0  0  0  0  0  0  0
   38.3270   23.6530   40.3280 H   0  0  0  0  0  0  0  0  0  0  0  0
   39.4190   27.1550   42.4950 C   0  0  0  0  0  0  0  0  0  0  0  0
   38.1800   26.4340   42.5260 C   0  0  0  0  0  0  0  0  0  0  0  0
   37.0420   27.1270   42.9050 C   0  0  0  0  0  0  0  0  0  0  0  0
   37.1500   28.4340   43.2250 N   0  0  0  0  0  0  0  0  0  0  0  0
   38.3400   29.1070   43.1920 C   0  0  0  0  0  0  0  0  0  0  0  0
   39.4990   28.4350   42.8130 N   0  0  0  0  0  0  0  0  0  0  0  0
   40.2680   26.6150   42.1870 H   0  0  0  0  0  0  0  0  0  0  0  0
   36.0790   26.6330   42.9460 H   0  0  0  0  0  0  0  0  0  0  0  0
   38.4210   30.1530   43.4500 H   0  0  0  0  0  0  0  0  0  0  0  0
   35.9110   27.1520   38.9510 C   0  0  2  0  0  0  0  0  0  0  0  0
   36.5830   28.1820   37.9740 C   0  0  0  0  0  0  0  0  0  0  0  0
   36.5380   28.3740   39.4540 C   0  0  1  0  0  0  0  0  0  0  0  0
   34.8180   27.1480   38.7680 H   0  0  0  0  0  0  0  0  0  0  0  0
   35.9420   28.8190   37.3730 H   0  0  0  0  0  0  0  0  0  0  0  0
   37.5720   27.8430   37.5740 H   0  0  0  0  0  0  0  0  0  0  0  0
   37.3840   28.1570   40.1450 H   0  0  0  0  0  0  0  0  0  0  0  0
   35.6210   29.4480   39.9970 C   0  0  0  0  0  0  0  0  0  0  0  0
   34.4150   29.2440   40.0660 O   0  0  0  0  0  0  0  0  0  0  0  0
   36.1470   30.7370   40.4470 C   0  0  0  0  0  3  0  0  0  0  0  0
   36.8900   31.4090   39.6170 C   0  0  0  0  0  3  0  0  0  0  0  0
   37.4530   32.7340   40.0290 C   0  0  0  0  0  2  0  0  0  0  0  0
   36.8930   33.5690   39.5830 H   0  0  0  0  0  0  0  0  0  0  0  0
  1  7  1  0  0  0  0
  2  1  1  0  0  0  0
  3  2  2  0  0  0  0
  4  1  1  0  0  0  0
  5 13  1  0  0  0  0
  5  8  1  1  0  0  0
  6 10  1  0  0  0  0
  6  5  1  0  0  0  0
  7 11  1  6  0  0  0
  7  6  1  0  0  0  0
  7  5  1  0  0  0  0
  9  6  1  0  0  0  0
 12 13  2  0  0  0  0
 12 17  1  0  0  0  0
 13 14  1  0  0  0  0
 14 19  1  0  0  0  0
 14 15  2  0  0  0  0
 16 15  1  0  0  0  0
 16 20  1  0  0  0  0
 17 16  2  0  0  0  0
 18 12  1  0  0  0  0
 21 24  1  1  0  0  0
 21  2  1  0  0  0  0
 21 23  1  0  0  0  0
 22 21  1  0  0  0  0
 22 23  1  0  0  0  0
 23 28  1  0  0  0  0
 23 27  1  1  0  0  0
 25 22  1  0  0  0  0
 26 22  1  0  0  0  0
 28 29  2  0  0  0  0
 28 30  1  0  0  0  0
 31 32  1  0  0  0  0
 31 30  2  0  0  0  0
 33 32  1  0  0  0  0
M  END
>  <minimizedAffinity>
-4.74512053

$$$$

 OpenBabel03242510243D

 33 35  0  0  1  0  0  0  0  0999 V2000
   39.2580   31.7300   40.8960 N   0  0  0  0  0  0  0  0  0  0  0  0
   39.3870   30.9090   42.0080 C   0  0  0  0  0  0  0  0  0  0  0  0
   40.0120   31.0800   43.0870 O   0  0  0  0  0  0  0  0  0  0  0  0
   39.3390   31.1740   40.0000 H   0  0  0  0  0  0  0  0  0  0  0  0
   39.6920   33.9670   39.9440 C   0  0  1  0  0  0  0  0  0  0  0  0
   38.3340   33.7110   39.7220 C   0  0  0  0  0  0  0  0  0  0  0  0
   39.0480   33.1320   40.9820 C   0  0  1  0  0  0  0  0  0  0  0  0
   40.0840   34.9630   40.2380 H   0  0  0  0  0  0  0  0  0  0  0  0
   37.8480   32.9710   39.0610 H   0  0  0  0  0  0  0  0  0  0  0  0
   37.5900   34.5190   39.9830 H   0  0  0  0  0  0  0  0  0  0  0  0
   38.6550   33.5490   41.9230 H   0  0  0  0  0  0  0  0  0  0  0  0
   40.3400   32.5500   37.8560 C   0  0  0  0  0  0  0  0  0  0  0  0
   40.7160   33.2470   39.0510 C   0  0  0  0  0  0  0  0  0  0  0  0
   42.0540   33.2340   39.4090 C   0  0  0  0  0  0  0  0  0  0  0  0
   42.9330   32.5720   38.6260 N   0  0  0  0  0  0  0  0  0  0  0  0
   42.5580   31.9110   37.4900 C   0  0  0  0  0  0  0  0  0  0  0  0
   41.2200   31.9090   37.1060 N   0  0  0  0  0  0  0  0  0  0  0  0
   39.3220   32.5880   37.5920 H   0  0  0  0  0  0  0  0  0  0  0  0
   42.3960   33.7440   40.3020 H   0  0  0  0  0  0  0  0  0  0  0  0
   43.2660   31.3820   36.8670 H   0  0  0  0  0  0  0  0  0  0  0  0
   38.6880   29.5580   42.0180 C   0  0  2  0  0  0  0  0  0  0  0  0
   37.1340   29.5770   41.7930 C   0  0  0  0  0  0  0  0  0  0  0  0
   37.7630   29.1890   43.0890 C   0  0  1  0  0  0  0  0  0  0  0  0
   39.1280   28.7560   41.3920 H   0  0  0  0  0  0  0  0  0  0  0  0
   36.6870   28.7830   41.2040 H   0  0  0  0  0  0  0  0  0  0  0  0
   36.6940   30.6060   41.7730 H   0  0  0  0  0  0  0  0  0  0  0  0
   37.8560   29.8610   43.9730 H   0  0  0  0  0  0  0  0  0  0  0  0
   37.7140   27.7290   43.4880 C   0  0  0  0  0  0  0  0  0  0  0  0
   36.6330   27.1820   43.6690 O   0  0  0  0  0  0  0  0  0  0  0  0
   38.9390   26.9510   43.6650 C   0  0  0  0  0  3  0  0  0  0  0  0
   39.1080   25.9080   42.9060 C   0  0  0  0  0  3  0  0  0  0  0  0
   40.3460   25.0780   43.0470 C   0  0  0  0  0  2  0  0  0  0  0  0
   41.0680   25.2850   42.2430 H   0  0  0  0  0  0  0  0  0  0  0  0
  1  7  1  0  0  0  0
  1  2  1  0  0  0  0
  2 21  1  0  0  0  0
  2  3  2  0  0  0  0
  4  1  1  0  0  0  0
  5  8  1  1  0  0  0
  5  7  1  0  0  0  0
  6  5  1  0  0  0  0
  6 10  1  0  0  0  0
  6  7  1  0  0  0  0
  7 11  1  1  0  0  0
  9  6  1  0  0  0  0
 12 13  1  0  0  0  0
 13 14  2  0  0  0  0
 13  5  1  0  0  0  0
 14 19  1  0  0  0  0
 15 14  1  0  0  0  0
 16 15  2  0  0  0  0
 17 16  1  0  0  0  0
 17 12  2  0  0  0  0
 18 12  1  0  0  0  0
 20 16  1  0  0  0  0
 21 24  1  6  0  0  0
 21 23  1  0  0  0  0
 22 21  1  0  0  0  0
 22 23  1  0  0  0  0
 23 28  1  0  0  0  0
 23 27  1  1  0  0  0
 25 22  1  0  0  0  0
 26 22  1  0  0  0  0
 28 30  1  0  0  0  0
 28 29  2  0  0  0  0
 31 32  1  0  0  0  0
 31 30  2  0  0  0  0
 33 32  1  0  0  0  0
M  END
>  <minimizedAffinity>
-4.7384944

$$$$

 OpenBabel03242510243D

 33 35  0  0  1  0  0  0  0  0999 V2000
   37.7240   29.1620   42.0740 N   0  0  0  0  0  0  0  0  0  0  0  0
   38.1100   29.7760   40.8890 C   0  0  0  0  0  0  0  0  0  0  0  0
   38.2450   29.3100   39.7290 O   0  0  0  0  0  0  0  0  0  0  0  0
   38.3230   29.4860   42.8840 H   0  0  0  0  0  0  0  0  0  0  0  0
   37.0260   26.8380   42.5260 C   0  0  1  0  0  0  0  0  0  0  0  0
   36.5150   27.6050   43.5790 C   0  0  0  0  0  0  0  0  0  0  0  0
   36.6630   28.2230   42.1550 C   0  0  1  0  0  0  0  0  0  0  0  0
   36.4680   26.0020   42.0540 H   0  0  0  0  0  0  0  0  0  0  0  0
   37.0400   28.1380   44.3920 H   0  0  0  0  0  0  0  0  0  0  0  0
   35.4350   27.4550   43.8720 H   0  0  0  0  0  0  0  0  0  0  0  0
   35.6930   28.4840   41.7020 H   0  0  0  0  0  0  0  0  0  0  0  0
   39.2060   25.9790   41.3880 C   0  0  0  0  0  0  0  0  0  0  0  0
   38.5310   26.5220   42.5300 C   0  0  0  0  0  0  0  0  0  0  0  0
   39.2770   26.7350   43.6770 C   0  0  0  0  0  0  0  0  0  0  0  0
   40.5910   26.4250   43.6680 N   0  0  0  0  0  0  0  0  0  0  0  0
   41.2200   25.9060   42.5710 C   0  0  0  0  0  0  0  0  0  0  0  0
   40.4940   25.6820   41.4050 N   0  0  0  0  0  0  0  0  0  0  0  0
   38.6260   25.8410   40.5210 H   0  0  0  0  0  0  0  0  0  0  0  0
   38.8190   27.1440   44.5690 H   0  0  0  0  0  0  0  0  0  0  0  0
   42.2720   25.6580   42.5700 H   0  0  0  0  0  0  0  0  0  0  0  0
   38.4420   31.2610   40.8980 C   0  0  2  0  0  0  0  0  0  0  0  0
   37.3380   32.2240   40.3330 C   0  0  0  0  0  0  0  0  0  0  0  0
   38.6480   32.0010   39.6530 C   0  0  1  0  0  0  0  0  0  0  0  0
   38.8350   31.6860   41.8430 H   0  0  0  0  0  0  0  0  0  0  0  0
   37.1900   33.1830   40.8180 H   0  0  0  0  0  0  0  0  0  0  0  0
   36.4700   31.6910   39.8680 H   0  0  0  0  0  0  0  0  0  0  0  0
   38.8000   31.3220   38.7830 H   0  0  0  0  0  0  0  0  0  0  0  0
   39.6560   33.1290   39.6780 C   0  0  0  0  0  0  0  0  0  0  0  0
   39.4300   34.1360   40.3390 O   0  0  0  0  0  0  0  0  0  0  0  0
   40.9060   33.0440   38.9230 C   0  0  0  0  0  3  0  0  0  0  0  0
   41.4430   34.1570   38.5140 C   0  0  0  0  0  3  0  0  0  0  0  0
   42.7220   34.1240   37.7370 C   0  0  0  0  0  2  0  0  0  0  0  0
   43.5830   34.4020   38.3630 H   0  0  0  0  0  0  0  0  0  0  0  0
  1  7  1  0  0  0  0
  1  4  1  0  0  0  0
  2 21  1  0  0  0  0
  2  1  1  0  0  0  0
  3  2  2  0  0  0  0
  5  8  1  6  0  0  0
  5 13  1  0  0  0  0
  5  6  1  0  0  0  0
  6 10  1  0  0  0  0
  6  9  1  0  0  0  0
  7 11  1  6  0  0  0
  7  5  1  0  0  0  0
  7  6  1  0  0  0  0
 12 17  2  0  0  0  0
 12 13  1  0  0  0  0
 13 14  2  0  0  0  0
 14 19  1  0  0  0  0
 15 14  1  0  0  0  0
 16 15  2  0  0  0  0
 17 16  1  0  0  0  0
 18 12  1  0  0  0  0
 20 16  1  0  0  0  0
 21 24  1  1  0  0  0
 22 25  1  0  0  0  0
 22 21  1  0  0  0  0
 23 27  1  6  0  0  0
 23 28  1  0  0  0  0
 23 22  1  0  0  0  0
 23 21  1  0  0  0  0
 26 22  1  0  0  0  0
 28 29  2  0  0  0  0
 30 28  1  0  0  0  0
 31 30  2  0  0  0  0
 32 33  1  0  0  0  0
 32 31  1  0  0  0  0
M  END
>  <minimizedAffinity>
-4.66359425

$$$$

 OpenBabel03242510243D

 33 35  0  0  1  0  0  0  0  0999 V2000
   37.8500   29.1050   40.6800 N   0  0  0  0  0  0  0  0  0  0  0  0
   36.8420   28.7580   39.7900 C   0  0  0  0  0  0  0  0  0  0  0  0
   35.7250   28.2120   39.9860 O   0  0  0  0  0  0  0  0  0  0  0  0
   38.8030   28.8670   40.2880 H   0  0  0  0  0  0  0  0  0  0  0  0
   37.8580   28.8550   43.1370 C   0  0  1  0  0  0  0  0  0  0  0  0
   38.8800   29.7650   42.8390 C   0  0  0  0  0  0  0  0  0  0  0  0
   37.6020   29.6960   41.9470 C   0  0  1  0  0  0  0  0  0  0  0  0
   37.1850   28.9610   44.0120 H   0  0  0  0  0  0  0  0  0  0  0  0
   39.8400   29.6100   42.3150 H   0  0  0  0  0  0  0  0  0  0  0  0
   38.9340   30.7200   43.4390 H   0  0  0  0  0  0  0  0  0  0  0  0
   37.0040   30.6210   41.9890 H   0  0  0  0  0  0  0  0  0  0  0  0
   37.0560   26.4300   42.6230 C   0  0  0  0  0  0  0  0  0  0  0  0
   38.1170   27.3650   42.8560 C   0  0  0  0  0  0  0  0  0  0  0  0
   39.4140   26.8800   42.8510 C   0  0  0  0  0  0  0  0  0  0  0  0
   39.6180   25.5640   42.6300 N   0  0  0  0  0  0  0  0  0  0  0  0
   38.5950   24.6850   42.4110 C   0  0  0  0  0  0  0  0  0  0  0  0
   37.2810   25.1460   42.4100 N   0  0  0  0  0  0  0  0  0  0  0  0
   36.0790   26.8220   42.6140 H   0  0  0  0  0  0  0  0  0  0  0  0
   40.2560   27.5420   43.0200 H   0  0  0  0  0  0  0  0  0  0  0  0
   38.7640   23.6310   42.2370 H   0  0  0  0  0  0  0  0  0  0  0  0
   37.0250   29.0550   38.3100 C   0  0  2  0  0  0  0  0  0  0  0  0
   36.8370   30.5510   37.8700 C   0  0  0  0  0  0  0  0  0  0  0  0
   35.8990   29.4610   37.4700 C   0  0  1  0  0  0  0  0  0  0  0  0
   37.9370   28.6530   37.8230 H   0  0  0  0  0  0  0  0  0  0  0  0
   37.4890   30.9500   37.1000 H   0  0  0  0  0  0  0  0  0  0  0  0
   36.4630   31.2160   38.6880 H   0  0  0  0  0  0  0  0  0  0  0  0
   34.9180   29.2610   37.9590 H   0  0  0  0  0  0  0  0  0  0  0  0
   35.9160   29.0120   36.0250 C   0  0  0  0  0  0  0  0  0  0  0  0
   35.3660   27.9640   35.7050 O   0  0  0  0  0  0  0  0  0  0  0  0
   36.5800   29.8060   34.9920 C   0  0  0  0  0  3  0  0  0  0  0  0
   35.8320   30.3790   34.0950 C   0  0  0  0  0  3  0  0  0  0  0  0
   36.4640   31.2040   33.0160 C   0  0  0  0  0  2  0  0  0  0  0  0
   36.3590   32.2810   33.2160 H   0  0  0  0  0  0  0  0  0  0  0  0
  1  7  1  0  0  0  0
  2  3  2  0  0  0  0
  2  1  1  0  0  0  0
  4  1  1  0  0  0  0
  5  8  1  1  0  0  0
  6  5  1  0  0  0  0
  6 10  1  0  0  0  0
  7 11  1  1  0  0  0
  7  6  1  0  0  0  0
  7  5  1  0  0  0  0
  9  6  1  0  0  0  0
 12 13  1  0  0  0  0
 13  5  1  0  0  0  0
 14 13  2  0  0  0  0
 14 19  1  0  0  0  0
 15 14  1  0  0  0  0
 16 15  2  0  0  0  0
 17 16  1  0  0  0  0
 17 12  2  0  0  0  0
 18 12  1  0  0  0  0
 20 16  1  0  0  0  0
 21 24  1  6  0  0  0
 21  2  1  0  0  0  0
 22 21  1  0  0  0  0
 22 26  1  0  0  0  0
 23 22  1  0  0  0  0
 23 27  1  1  0  0  0
 23 21  1  0  0  0  0
 25 22  1  0  0  0  0
 28 23  1  0  0  0  0
 29 28  2  0  0  0  0
 30 28  1  0  0  0  0
 31 30  2  0  0  0  0
 32 33  1  0  0  0  0
 32 31  1  0  0  0  0
M  END
>  <minimizedAffinity>
-4.60408974

$$$$

 OpenBabel03242510243D

 33 35  0  0  1  0  0  0  0  0999 V2000
   38.1650   26.8010   41.7190 N   0  0  0  0  0  0  0  0  0  0  0  0
   37.4050   26.0000   40.8770 C   0  0  0  0  0  0  0  0  0  0  0  0
   36.9600   24.8330   41.0340 O   0  0  0  0  0  0  0  0  0  0  0  0
   38.9240   27.3060   41.1820 H   0  0  0  0  0  0  0  0  0  0  0  0
   37.6520   28.2570   43.6450 C   0  0  1  0  0  0  0  0  0  0  0  0
   36.5160   27.4640   43.4490 C   0  0  0  0  0  0  0  0  0  0  0  0
   37.9330   26.9050   43.1150 C   0  0  1  0  0  0  0  0  0  0  0  0
   38.0440   28.5210   44.6500 H   0  0  0  0  0  0  0  0  0  0  0  0
   35.7880   27.4560   42.6180 H   0  0  0  0  0  0  0  0  0  0  0  0
   36.0560   26.9600   44.3490 H   0  0  0  0  0  0  0  0  0  0  0  0
   38.2190   26.0590   43.7610 H   0  0  0  0  0  0  0  0  0  0  0  0
   36.8960   29.8770   41.7510 C   0  0  0  0  0  0  0  0  0  0  0  0
   37.8970   29.4190   42.6690 C   0  0  0  0  0  0  0  0  0  0  0  0
   39.1320   30.0450   42.6370 C   0  0  0  0  0  0  0  0  0  0  0  0
   39.3360   31.0440   41.7530 N   0  0  0  0  0  0  0  0  0  0  0  0
   38.3700   31.4680   40.8830 C   0  0  0  0  0  0  0  0  0  0  0  0
   37.1200   30.8570   40.8930 N   0  0  0  0  0  0  0  0  0  0  0  0
   35.9590   29.4010   41.8030 H   0  0  0  0  0  0  0  0  0  0  0  0
   39.9260   29.7410   43.3090 H   0  0  0  0  0  0  0  0  0  0  0  0
   38.5390   32.2680   40.1750 H   0  0  0  0  0  0  0  0  0  0  0  0
   36.9860   26.5390   39.5180 C   0  0  2  0  0  0  0  0  0  0  0  0
   37.9570   26.2410   38.3200 C   0  0  0  0  0  0  0  0  0  0  0  0
   37.7330   27.6120   38.8630 C   0  0  1  0  0  0  0  0  0  0  0  0
   35.9460   26.3360   39.1920 H   0  0  0  0  0  0  0  0  0  0  0  0
   37.5280   26.0170   37.3490 H   0  0  0  0  0  0  0  0  0  0  0  0
   38.9210   25.7630   38.6310 H   0  0  0  0  0  0  0  0  0  0  0  0
   38.4220   28.1330   39.5670 H   0  0  0  0  0  0  0  0  0  0  0  0
   36.9440   28.5860   38.0140 C   0  0  0  0  0  0  0  0  0  0  0  0
   37.4450   29.6560   37.6880 O   0  0  0  0  0  0  0  0  0  0  0  0
   35.5850   28.2770   37.5720 C   0  0  0  0  0  3  0  0  0  0  0  0
   34.6550   29.1540   37.8160 C   0  0  0  0  0  3  0  0  0  0  0  0
   33.2470   28.8850   37.3830 C   0  0  0  0  0  2  0  0  0  0  0  0
   32.9870   29.4500   36.4760 H   0  0  0  0  0  0  0  0  0  0  0  0
  1  7  1  0  0  0  0
  2  3  2  0  0  0  0
  2  1  1  0  0  0  0
  4  1  1  0  0  0  0
  5  8  1  1  0  0  0
  6  5  1  0  0  0  0
  6 10  1  0  0  0  0
  7  6  1  0  0  0  0
  7  5  1  0  0  0  0
  7 11  1  1  0  0  0
  9  6  1  0  0  0  0
 12 18  1  0  0  0  0
 12 13  1  0  0  0  0
 13  5  1  0  0  0  0
 14 13  2  0  0  0  0
 14 19  1  0  0  0  0
 15 14  1  0  0  0  0
 16 17  1  0  0  0  0
 16 15  2  0  0  0  0
 17 12  2  0  0  0  0
 20 16  1  0  0  0  0
 21 24  1  6  0  0  0
 21  2  1  0  0  0  0
 22 26  1  0  0  0  0
 22 23  1  0  0  0  0
 22 21  1  0  0  0  0
 23 21  1  0  0  0  0
 23 27  1  1  0  0  0
 25 22  1  0  0  0  0
 28 23  1  0  0  0  0
 29 28  2  0  0  0  0
 30 31  2  0  0  0  0
 30 28  1  0  0  0  0
 32 31  1  0  0  0  0
 33 32  1  0  0  0  0
M  END
>  <minimizedAffinity>
-4.58725119

$$$$

 OpenBabel03242510243D

 33 35  0  0  1  0  0  0  0  0999 V2000
   37.7340   27.8130   41.2430 N   0  0  0  0  0  0  0  0  0  0  0  0
   37.2060   27.2360   40.0950 C   0  0  0  0  0  0  0  0  0  0  0  0
   36.6010   26.1460   39.9270 O   0  0  0  0  0  0  0  0  0  0  0  0
   38.6810   28.2430   41.0530 H   0  0  0  0  0  0  0  0  0  0  0  0
   37.8650   27.4050   43.6740 C   0  0  1  0  0  0  0  0  0  0  0  0
   37.7090   28.7880   43.5240 C   0  0  0  0  0  0  0  0  0  0  0  0
   37.0660   27.8070   42.4950 C   0  0  1  0  0  0  0  0  0  0  0  0
   37.3660   26.8190   44.4740 H   0  0  0  0  0  0  0  0  0  0  0  0
   38.3990   29.5410   43.1030 H   0  0  0  0  0  0  0  0  0  0  0  0
   36.9360   29.3090   44.1610 H   0  0  0  0  0  0  0  0  0  0  0  0
   35.9650   27.8420   42.5060 H   0  0  0  0  0  0  0  0  0  0  0  0
   40.4260   27.6000   43.2390 C   0  0  0  0  0  0  0  0  0  0  0  0
   39.2450   26.7990   43.3680 C   0  0  0  0  0  0  0  0  0  0  0  0
   39.3700   25.4320   43.1800 C   0  0  0  0  0  0  0  0  0  0  0  0
   40.5850   24.9230   42.8840 N   0  0  0  0  0  0  0  0  0  0  0  0
   41.7030   25.7020   42.7630 C   0  0  0  0  0  0  0  0  0  0  0  0
   41.6050   27.0780   42.9480 N   0  0  0  0  0  0  0  0  0  0  0  0
   40.3120   28.6330   43.4040 H   0  0  0  0  0  0  0  0  0  0  0  0
   38.5110   24.7780   43.2660 H   0  0  0  0  0  0  0  0  0  0  0  0
   42.6730   25.2890   42.5250 H   0  0  0  0  0  0  0  0  0  0  0  0
   37.3290   27.9750   38.7700 C   0  0  2  0  0  0  0  0  0  0  0  0
   38.7680   28.0540   38.1470 C   0  0  0  0  0  0  0  0  0  0  0  0
   38.0420   29.2470   38.6720 C   0  0  1  0  0  0  0  0  0  0  0  0
   36.6100   27.7020   37.9720 H   0  0  0  0  0  0  0  0  0  0  0  0
   38.8710   27.9730   37.0700 H   0  0  0  0  0  0  0  0  0  0  0  0
   39.5710   27.6590   38.8190 H   0  0  0  0  0  0  0  0  0  0  0  0
   38.2200   29.7060   39.6720 H   0  0  0  0  0  0  0  0  0  0  0  0
   37.5240   30.2560   37.6690 C   0  0  0  0  0  0  0  0  0  0  0  0
   37.0980   29.8750   36.5850 O   0  0  0  0  0  0  0  0  0  0  0  0
   37.5210   31.6870   37.9670 C   0  0  0  0  0  3  0  0  0  0  0  0
   37.3580   32.0470   39.2070 C   0  0  0  0  0  3  0  0  0  0  0  0
   37.3480   33.5020   39.5640 C   0  0  0  0  0  2  0  0  0  0  0  0
   38.3010   33.8150   40.0140 H   0  0  0  0  0  0  0  0  0  0  0  0
  1  7  1  0  0  0  0
  2  1  1  0  0  0  0
  3  2  2  0  0  0  0
  4  1  1  0  0  0  0
  5  8  1  1  0  0  0
  6  5  1  0  0  0  0
  6 10  1  0  0  0  0
  7 11  1  1  0  0  0
  7  6  1  0  0  0  0
  7  5  1  0  0  0  0
  9  6  1  0  0  0  0
 12 13  1  0  0  0  0
 12 18  1  0  0  0  0
 13  5  1  0  0  0  0
 14 19  1  0  0  0  0
 14 13  2  0  0  0  0
 15 14  1  0  0  0  0
 16 15  2  0  0  0  0
 16 17  1  0  0  0  0
 17 12  2  0  0  0  0
 20 16  1  0  0  0  0
 21 24  1  6  0  0  0
 21  2  1  0  0  0  0
 22 23  1  0  0  0  0
 22 21  1  0  0  0  0
 22 26  1  0  0  0  0
 23 21  1  0  0  0  0
 23 27  1  1  0  0  0
 25 22  1  0  0  0  0
 28 30  1  0  0  0  0
 28 23  1  0  0  0  0
 29 28  2  0  0  0  0
 30 31  2  0  0  0  0
 31 32  1  0  0  0  0
 32 33  1  0  0  0  0
M  END
>  <minimizedAffinity>
-4.53622723

$$$$
