
 OpenBabel03242510293D

 29 30  0  0  1  0  0  0  0  0999 V2000
   47.0150   34.1180   41.7670 C   0  0  1  0  0  0  0  0  0  0  0  0
   46.1620   33.7390   40.5930 C   0  0  0  0  0  0  0  0  0  0  0  0
   47.1450   33.1270   39.5920 C   0  0  0  0  0  0  0  0  0  0  0  0
   47.9410   34.3030   39.0390 C   0  0  0  0  0  0  0  0  0  0  0  0
   48.6650   35.0460   40.1020 C   0  0  0  0  0  0  0  0  0  0  0  0
   47.9660   35.2380   41.3900 C   0  0  2  0  0  0  0  0  0  0  0  0
   47.6390   33.2460   42.0310 H   0  0  0  0  0  0  0  0  0  0  0  0
   45.3480   33.0690   40.8680 H   0  0  0  0  0  0  0  0  0  0  0  0
   45.7590   34.6520   40.0680 H   0  0  0  0  0  0  0  0  0  0  0  0
   46.6560   32.5860   38.7870 H   0  0  0  0  0  0  0  0  0  0  0  0
   47.8870   32.5070   40.1670 H   0  0  0  0  0  0  0  0  0  0  0  0
   47.1850   34.9920   38.5730 H   0  0  0  0  0  0  0  0  0  0  0  0
   48.6600   33.9180   38.3070 H   0  0  0  0  0  0  0  0  0  0  0  0
   49.6530   34.5620   40.2530 H   0  0  0  0  0  0  0  0  0  0  0  0
   48.8940   36.0570   39.6890 H   0  0  0  0  0  0  0  0  0  0  0  0
   47.3890   36.1800   41.4610 H   0  0  0  0  0  0  0  0  0  0  0  0
   44.7460   35.9940   44.1540 C   0  0  0  0  0  0  0  0  0  0  0  0
   45.4420   35.7120   42.9710 C   0  0  0  0  0  0  0  0  0  0  0  0
   46.2250   34.5410   42.9390 C   0  0  0  0  0  0  0  0  0  0  0  0
   46.2350   33.7840   44.0670 N   0  0  0  0  0  0  0  0  0  0  0  0
   45.5620   34.0770   45.1820 C   0  0  0  0  0  0  0  0  0  0  0  0
   44.8150   35.1820   45.2320 N   0  0  0  0  0  0  0  0  0  0  0  0
   44.1540   36.8900   44.1620 H   0  0  0  0  0  0  0  0  0  0  0  0
   45.4240   36.3140   42.0950 H   0  0  0  0  0  0  0  0  0  0  0  0
   45.6870   33.3570   45.9880 H   0  0  0  0  0  0  0  0  0  0  0  0
   49.0020   35.2810   42.4620 C   0  0  0  0  0  3  0  0  0  0  0  0
   49.9130   34.3470   42.7060 C   0  0  0  0  0  3  0  0  0  0  0  0
   49.9190   33.1510   41.8510 C   0  0  0  0  0  2  0  0  0  0  0  0
   50.6160   32.4140   42.3330 H   0  0  0  0  0  0  0  0  0  0  0  0
  1  7  1  1  0  0  0
  1 19  1  0  0  0  0
  2  8  1  0  0  0  0
  2  1  1  0  0  0  0
  3 11  1  0  0  0  0
  3  2  1  0  0  0  0
  4  3  1  0  0  0  0
  4  5  1  0  0  0  0
  5 14  1  0  0  0  0
  5  6  1  0  0  0  0
  6 16  1  6  0  0  0
  6  1  1  0  0  0  0
  6 26  1  0  0  0  0
  9  2  1  0  0  0  0
 10  3  1  0  0  0  0
 12  4  1  0  0  0  0
 13  4  1  0  0  0  0
 15  5  1  0  0  0  0
 17 23  1  0  0  0  0
 17 22  1  0  0  0  0
 18 17  2  0  0  0  0
 19 18  1  0  0  0  0
 19 20  2  0  0  0  0
 20 21  1  0  0  0  0
 21 22  2  0  0  0  0
 21 25  1  0  0  0  0
 24 18  1  0  0  0  0
 26 27  2  0  0  0  0
 28 29  1  0  0  0  0
 28 27  1  0  0  0  0
M  END
>  <minimizedAffinity>
-5.18769503

>  <minimizedRMSD>
0.638314307

$$$$
