
 OpenBabel03252505563D

 31 32  0  0  0  0  0  0  0  0999 V2000
   45.4980   33.0630   47.7550 O   0  0  0  0  0  0  0  0  0  0  0  0
   44.8480   35.1020   44.9230 C   0  0  0  0  0  0  0  0  0  0  0  0
   45.7940   34.6760   43.9710 C   0  0  0  0  0  0  0  0  0  0  0  0
   46.6540   33.6530   44.3730 C   0  0  0  0  0  0  0  0  0  0  0  0
   46.5370   33.1470   45.6110 N   0  0  0  0  0  0  0  0  0  0  0  0
   45.6230   33.5840   46.4810 C   0  0  0  0  0  0  0  0  0  0  0  0
   44.7820   34.5540   46.1430 N   0  0  0  0  0  0  0  0  0  0  0  0
   44.1640   35.9080   44.6180 H   0  0  0  0  0  0  0  0  0  0  0  0
   45.8250   35.3190   42.6340 C   0  0  0  0  0  0  0  0  0  0  0  0
   44.9840   36.4230   42.7710 F   0  0  0  0  0  0  0  0  0  0  0  0
   45.2340   34.4260   41.7520 F   0  0  0  0  0  0  0  0  0  0  0  0
   47.0820   35.6730   42.3280 F   0  0  0  0  0  0  0  0  0  0  0  0
   47.6420   33.1000   43.4930 C   0  0  0  0  0  3  0  0  0  0  0  0
   47.3840   31.9990   42.7660 C   0  0  0  0  0  3  0  0  0  0  0  0
   46.0660   31.2890   42.8310 C   0  0  0  0  0  2  0  0  0  0  0  0
   45.8630   30.8610   43.8380 H   0  0  0  0  0  0  0  0  0  0  0  0
   44.9180   31.7930   47.9680 C   0  0  0  0  0  0  0  0  0  0  0  0
   44.5530   31.7920   49.0150 H   0  0  0  0  0  0  0  0  0  0  0  0
   44.0470   31.5910   47.3240 H   0  0  0  0  0  0  0  0  0  0  0  0
   45.9930   30.7880   47.8610 C   0  0  0  0  0  0  0  0  0  0  0  0
   46.0580   29.5990   47.1540 C   0  0  0  0  0  0  0  0  0  0  0  0
   47.1940   28.8680   47.2400 C   0  0  0  0  0  0  0  0  0  0  0  0
   48.2410   29.2350   47.9660 N   0  0  0  0  0  0  0  0  0  0  0  0
   48.1760   30.3900   48.6510 C   0  0  0  0  0  0  0  0  0  0  0  0
   47.0600   31.1880   48.6160 N   0  0  0  0  0  0  0  0  0  0  0  0
   45.1640   29.4170   46.6150 H   0  0  0  0  0  0  0  0  0  0  0  0
   47.2070   27.9470   46.6750 H   0  0  0  0  0  0  0  0  0  0  0  0
   49.3910   30.7340   49.4430 C   0  0  0  0  0  0  0  0  0  0  0  0
   49.5360   32.0860   49.5770 F   0  0  0  0  0  0  0  0  0  0  0  0
   50.5260   30.2060   48.8130 F   0  0  0  0  0  0  0  0  0  0  0  0
   49.3360   30.1910   50.7200 F   0  0  0  0  0  0  0  0  0  0  0  0
  1 17  1  0  0  0  0
  2  7  1  0  0  0  0
  3  4  1  0  0  0  0
  3  2  2  0  0  0  0
  4  5  2  0  0  0  0
  5  6  1  0  0  0  0
  6  1  1  0  0  0  0
  7  6  2  0  0  0  0
  8  2  1  0  0  0  0
  9 10  1  0  0  0  0
  9  3  1  0  0  0  0
 11  9  1  0  0  0  0
 12  9  1  0  0  0  0
 13  4  1  0  0  0  0
 14 15  1  0  0  0  0
 14 13  2  0  0  0  0
 15 16  1  0  0  0  0
 17 18  1  0  0  0  0
 19 17  1  0  0  0  0
 20 17  1  0  0  0  0
 20 25  1  0  0  0  0
 21 22  1  0  0  0  0
 21 20  2  0  0  0  0
 22 23  2  0  0  0  0
 23 24  1  0  0  0  0
 24 28  1  0  0  0  0
 25 24  2  0  0  0  0
 26 21  1  0  0  0  0
 27 22  1  0  0  0  0
 28 29  1  0  0  0  0
 28 31  1  0  0  0  0
 30 28  1  0  0  0  0
M  END
>  <minimizedAffinity>
-5.5522933

>  <minimizedRMSD>
0.963220596

$$$$
