
 OpenBabel03252505573D

 31 32  0  0  0  0  0  0  0  0999 V2000
   45.8510   32.6990   47.5830 O   0  0  0  0  0  0  0  0  0  0  0  0
   45.0140   34.8790   44.9090 C   0  0  0  0  0  0  0  0  0  0  0  0
   45.9510   34.5630   43.9060 C   0  0  0  0  0  0  0  0  0  0  0  0
   46.8720   33.5620   44.2170 C   0  0  0  0  0  0  0  0  0  0  0  0
   46.8180   32.9730   45.4220 N   0  0  0  0  0  0  0  0  0  0  0  0
   45.9100   33.3060   46.3430 C   0  0  0  0  0  0  0  0  0  0  0  0
   45.0130   34.2510   46.0920 N   0  0  0  0  0  0  0  0  0  0  0  0
   44.2820   35.6660   44.6760 H   0  0  0  0  0  0  0  0  0  0  0  0
   45.9090   35.2910   42.6130 C   0  0  0  0  0  0  0  0  0  0  0  0
   45.0550   36.3660   42.8580 F   0  0  0  0  0  0  0  0  0  0  0  0
   45.2960   34.4430   41.7020 F   0  0  0  0  0  0  0  0  0  0  0  0
   47.1450   35.6910   42.2760 F   0  0  0  0  0  0  0  0  0  0  0  0
   47.8590   33.1180   43.2760 C   0  0  0  0  0  3  0  0  0  0  0  0
   47.6300   32.0600   42.4780 C   0  0  0  0  0  3  0  0  0  0  0  0
   46.3450   31.2900   42.5230 C   0  0  0  0  0  2  0  0  0  0  0  0
   46.1870   30.7830   43.5000 H   0  0  0  0  0  0  0  0  0  0  0  0
   45.3430   31.3880   47.7280 C   0  0  0  0  0  0  0  0  0  0  0  0
   44.8210   31.3660   48.7060 H   0  0  0  0  0  0  0  0  0  0  0  0
   44.6000   31.1150   46.9610 H   0  0  0  0  0  0  0  0  0  0  0  0
   46.4950   30.4710   47.8070 C   0  0  0  0  0  0  0  0  0  0  0  0
   46.6960   29.2150   47.2570 C   0  0  0  0  0  0  0  0  0  0  0  0
   47.8760   28.5970   47.4980 C   0  0  0  0  0  0  0  0  0  0  0  0
   48.8410   29.1320   48.2310 N   0  0  0  0  0  0  0  0  0  0  0  0
   48.6440   30.3500   48.7640 C   0  0  0  0  0  0  0  0  0  0  0  0
   47.4760   31.0440   48.5670 N   0  0  0  0  0  0  0  0  0  0  0  0
   45.8560   28.8970   46.6950 H   0  0  0  0  0  0  0  0  0  0  0  0
   47.9960   27.6190   47.0510 H   0  0  0  0  0  0  0  0  0  0  0  0
   49.7750   30.8850   49.5750 C   0  0  0  0  0  0  0  0  0  0  0  0
   49.7820   32.2510   49.5860 F   0  0  0  0  0  0  0  0  0  0  0  0
   50.9890   30.4190   49.0530 F   0  0  0  0  0  0  0  0  0  0  0  0
   49.7000   30.4570   50.8940 F   0  0  0  0  0  0  0  0  0  0  0  0
  1 17  1  0  0  0  0
  2  7  1  0  0  0  0
  3  4  1  0  0  0  0
  3  2  2  0  0  0  0
  4  5  2  0  0  0  0
  5  6  1  0  0  0  0
  6  1  1  0  0  0  0
  7  6  2  0  0  0  0
  8  2  1  0  0  0  0
  9 10  1  0  0  0  0
  9  3  1  0  0  0  0
 11  9  1  0  0  0  0
 12  9  1  0  0  0  0
 13  4  1  0  0  0  0
 14 15  1  0  0  0  0
 14 13  2  0  0  0  0
 15 16  1  0  0  0  0
 17 20  1  0  0  0  0
 17 18  1  0  0  0  0
 19 17  1  0  0  0  0
 20 25  1  0  0  0  0
 21 22  1  0  0  0  0
 21 20  2  0  0  0  0
 22 23  2  0  0  0  0
 23 24  1  0  0  0  0
 24 28  1  0  0  0  0
 25 24  2  0  0  0  0
 26 21  1  0  0  0  0
 27 22  1  0  0  0  0
 28 29  1  0  0  0  0
 28 31  1  0  0  0  0
 30 28  1  0  0  0  0
M  END
>  <minimizedAffinity>
-5.51022339

>  <minimizedRMSD>
0.640190005

$$$$
