
 OpenBabel03242510293D

 29 30  0  0  1  0  0  0  0  0999 V2000
   47.0150   34.1170   41.7690 C   0  0  1  0  0  0  0  0  0  0  0  0
   46.1620   33.7370   40.5950 C   0  0  0  0  0  0  0  0  0  0  0  0
   47.1440   33.1250   39.5940 C   0  0  0  0  0  0  0  0  0  0  0  0
   47.9390   34.3010   39.0400 C   0  0  0  0  0  0  0  0  0  0  0  0
   48.6640   35.0450   40.1030 C   0  0  0  0  0  0  0  0  0  0  0  0
   47.9650   35.2370   41.3910 C   0  0  2  0  0  0  0  0  0  0  0  0
   47.6390   33.2450   42.0320 H   0  0  0  0  0  0  0  0  0  0  0  0
   45.3470   33.0670   40.8700 H   0  0  0  0  0  0  0  0  0  0  0  0
   45.7590   34.6500   40.0690 H   0  0  0  0  0  0  0  0  0  0  0  0
   46.6550   32.5840   38.7880 H   0  0  0  0  0  0  0  0  0  0  0  0
   47.8870   32.5060   40.1680 H   0  0  0  0  0  0  0  0  0  0  0  0
   47.1840   34.9900   38.5740 H   0  0  0  0  0  0  0  0  0  0  0  0
   48.6590   33.9170   38.3080 H   0  0  0  0  0  0  0  0  0  0  0  0
   49.6530   34.5610   40.2530 H   0  0  0  0  0  0  0  0  0  0  0  0
   48.8930   36.0560   39.6890 H   0  0  0  0  0  0  0  0  0  0  0  0
   47.3880   36.1790   41.4620 H   0  0  0  0  0  0  0  0  0  0  0  0
   44.7460   35.9930   44.1560 C   0  0  0  0  0  0  0  0  0  0  0  0
   45.4420   35.7100   42.9720 C   0  0  0  0  0  0  0  0  0  0  0  0
   46.2250   34.5400   42.9400 C   0  0  0  0  0  0  0  0  0  0  0  0
   46.2360   33.7830   44.0680 N   0  0  0  0  0  0  0  0  0  0  0  0
   45.5630   34.0760   45.1830 C   0  0  0  0  0  0  0  0  0  0  0  0
   44.8150   35.1810   45.2340 N   0  0  0  0  0  0  0  0  0  0  0  0
   44.1540   36.8880   44.1630 H   0  0  0  0  0  0  0  0  0  0  0  0
   45.4230   36.3130   42.0960 H   0  0  0  0  0  0  0  0  0  0  0  0
   45.6880   33.3570   45.9900 H   0  0  0  0  0  0  0  0  0  0  0  0
   49.0010   35.2800   42.4630 C   0  0  0  0  0  3  0  0  0  0  0  0
   49.9130   34.3470   42.7060 C   0  0  0  0  0  3  0  0  0  0  0  0
   49.9190   33.1520   41.8510 C   0  0  0  0  0  2  0  0  0  0  0  0
   50.6180   32.4140   42.3320 H   0  0  0  0  0  0  0  0  0  0  0  0
  1  7  1  1  0  0  0
  1 19  1  0  0  0  0
  2  8  1  0  0  0  0
  2  1  1  0  0  0  0
  3 11  1  0  0  0  0
  3  2  1  0  0  0  0
  4  3  1  0  0  0  0
  4  5  1  0  0  0  0
  5 14  1  0  0  0  0
  5  6  1  0  0  0  0
  6 16  1  6  0  0  0
  6  1  1  0  0  0  0
  6 26  1  0  0  0  0
  9  2  1  0  0  0  0
 10  3  1  0  0  0  0
 12  4  1  0  0  0  0
 13  4  1  0  0  0  0
 15  5  1  0  0  0  0
 17 23  1  0  0  0  0
 17 22  1  0  0  0  0
 18 17  2  0  0  0  0
 19 18  1  0  0  0  0
 19 20  2  0  0  0  0
 20 21  1  0  0  0  0
 21 22  2  0  0  0  0
 21 25  1  0  0  0  0
 24 18  1  0  0  0  0
 26 27  2  0  0  0  0
 28 29  1  0  0  0  0
 28 27  1  0  0  0  0
M  END
>  <minimizedAffinity>
-5.19157219

>  <minimizedRMSD>
0.846047044

$$$$
