
 OpenBabel03242523063D

 40 43  0  0  1  0  0  0  0  0999 V2000
   45.1360   36.0160   43.4890 C   0  0  0  0  0  0  0  0  0  0  0  0
   45.9200   34.8960   43.2550 C   0  0  0  0  0  0  0  0  0  0  0  0
   46.0380   33.9600   44.2520 C   0  0  0  0  0  0  0  0  0  0  0  0
   45.3780   34.1730   45.4330 N   0  0  0  0  0  0  0  0  0  0  0  0
   44.6220   35.2710   45.6340 C   0  0  0  0  0  0  0  0  0  0  0  0
   44.5060   36.1710   44.6790 N   0  0  0  0  0  0  0  0  0  0  0  0
   45.0350   36.7680   42.7000 H   0  0  0  0  0  0  0  0  0  0  0  0
   44.0760   35.5020   46.5380 H   0  0  0  0  0  0  0  0  0  0  0  0
   46.5690   34.7960   42.0220 N   0  0  0  0  0  0  0  0  0  0  0  0
   47.8870   35.2650   41.8080 C   0  0  0  0  0  0  0  0  0  0  0  0
   48.4650   34.9270   40.4560 C   0  0  0  0  0  0  0  0  0  0  0  0
   48.1560   33.6410   39.9570 N   0  0  0  0  0  0  0  0  0  0  0  0
   46.8530   33.1830   40.1780 C   0  0  0  0  0  0  0  0  0  0  0  0
   45.9880   34.2250   40.8560 C   0  0  0  0  0  0  0  0  0  0  0  0
   48.5980   34.9720   42.6080 H   0  0  0  0  0  0  0  0  0  0  0  0
   47.8450   36.3800   41.8440 H   0  0  0  0  0  0  0  0  0  0  0  0
   48.1980   35.7000   39.6990 H   0  0  0  0  0  0  0  0  0  0  0  0
   49.5820   35.0010   40.5560 H   0  0  0  0  0  0  0  0  0  0  0  0
   48.9050   32.9670   40.1460 H   0  0  0  0  0  0  0  0  0  0  0  0
   46.3740   33.0370   39.1620 H   0  0  0  0  0  0  0  0  0  0  0  0
   46.7540   32.1970   40.6690 H   0  0  0  0  0  0  0  0  0  0  0  0
   44.9950   33.7300   41.0510 H   0  0  0  0  0  0  0  0  0  0  0  0
   45.7510   34.9990   40.0670 H   0  0  0  0  0  0  0  0  0  0  0  0
   46.4540   32.0200   45.5170 C   0  0  0  0  0  0  0  0  0  0  0  0
   46.7320   32.7400   44.3330 C   0  0  0  0  0  0  0  0  0  0  0  0
   47.6830   32.0810   43.5710 C   0  0  0  0  0  0  0  0  0  0  0  0
   48.2910   30.9050   43.8880 C   0  0  0  0  0  0  0  0  0  0  0  0
   47.9600   30.2740   45.0700 C   0  0  0  0  0  0  0  0  0  0  0  0
   47.0340   30.8290   45.8980 C   0  0  0  0  0  0  0  0  0  0  0  0
   48.7480   29.1350   45.0900 O   0  0  0  0  0  0  0  0  0  0  0  0
   49.4020   28.9740   43.8580 C   0  0  2  0  0  0  0  0  0  0  0  0
   49.2400   30.2090   43.1550 O   0  0  0  0  0  0  0  0  0  0  0  0
   45.7410   32.2510   46.3370 H   0  0  0  0  0  0  0  0  0  0  0  0
   47.8950   32.6110   42.7010 H   0  0  0  0  0  0  0  0  0  0  0  0
   46.8550   30.2640   46.7710 H   0  0  0  0  0  0  0  0  0  0  0  0
   50.4820   28.7480   43.9700 H   0  0  0  0  0  0  0  0  0  0  0  0
   48.6980   27.8650   43.1550 C   0  0  0  0  0  0  0  0  0  0  0  0
   47.9110   26.9100   43.6380 C   0  0  0  0  0  0  0  0  0  0  0  0
   47.1820   25.7810   42.9950 C   0  0  0  0  0  0  0  0  0  0  0  0
   46.0930   25.8120   43.2330 H   0  0  0  0  0  0  0  0  0  0  0  0
  1  6  1  0  0  0  0
  2  1  2  0  0  0  0
  2  3  1  0  0  0  0
  3 25  1  0  0  0  0
  3  4  2  0  0  0  0
  4  5  1  0  0  0  0
  5  8  1  0  0  0  0
  6  5  2  0  0  0  0
  7  1  1  0  0  0  0
  9  2  1  0  0  0  0
 10 16  1  0  0  0  0
 10  9  1  0  0  0  0
 10 15  1  0  0  0  0
 11 18  1  0  0  0  0
 11 10  1  0  0  0  0
 12 19  1  0  0  0  0
 12 13  1  0  0  0  0
 12 11  1  0  0  0  0
 13 21  1  0  0  0  0
 13 14  1  0  0  0  0
 14 22  1  0  0  0  0
 14  9  1  0  0  0  0
 17 11  1  0  0  0  0
 20 13  1  0  0  0  0
 23 14  1  0  0  0  0
 24 29  1  0  0  0  0
 24 33  1  0  0  0  0
 25 24  2  0  0  0  0
 26 27  2  0  0  0  0
 26 25  1  0  0  0  0
 27 28  1  0  0  0  0
 28 30  1  0  0  0  0
 28 29  2  0  0  0  0
 29 35  1  0  0  0  0
 31 36  1  1  0  0  0
 31 30  1  0  0  0  0
 32 31  1  0  0  0  0
 32 27  1  0  0  0  0
 34 26  1  0  0  0  0
 37 38  2  0  0  0  0
 37 31  1  0  0  0  0
 39 40  1  0  0  0  0
 39 38  1  0  0  0  0
M  END
>  <minimizedAffinity>
-4.86171055

>  <minimizedRMSD>
0.401422024

$$$$
