
 OpenBabel03252505593D

 31 32  0  0  0  0  0  0  0  0999 V2000
   36.9300   28.4640   42.4270 O   0  0  0  0  0  0  0  0  0  0  0  0
   36.6370   31.4960   40.6030 C   0  0  0  0  0  0  0  0  0  0  0  0
   37.9350   32.0400   40.6370 C   0  0  0  0  0  0  0  0  0  0  0  0
   38.8970   31.2980   41.3230 C   0  0  0  0  0  0  0  0  0  0  0  0
   38.5430   30.1370   41.8980 N   0  0  0  0  0  0  0  0  0  0  0  0
   37.2970   29.6590   41.8380 C   0  0  0  0  0  0  0  0  0  0  0  0
   36.3480   30.3300   41.1960 N   0  0  0  0  0  0  0  0  0  0  0  0
   35.8690   32.0710   40.0660 H   0  0  0  0  0  0  0  0  0  0  0  0
   38.1990   33.3370   39.9640 C   0  0  0  0  0  0  0  0  0  0  0  0
   38.6720   34.1580   40.9870 F   0  0  0  0  0  0  0  0  0  0  0  0
   36.9690   33.8220   39.5450 F   0  0  0  0  0  0  0  0  0  0  0  0
   39.1060   33.1670   38.9900 F   0  0  0  0  0  0  0  0  0  0  0  0
   40.2650   31.7190   41.4070 C   0  0  0  0  0  3  0  0  0  0  0  0
   41.1860   31.2590   40.5420 C   0  0  0  0  0  3  0  0  0  0  0  0
   40.8450   30.2900   39.4510 C   0  0  0  0  0  2  0  0  0  0  0  0
   40.5010   29.3080   39.8480 H   0  0  0  0  0  0  0  0  0  0  0  0
   37.5620   28.0090   43.6060 C   0  0  0  0  0  0  0  0  0  0  0  0
   38.2910   28.7960   43.8880 H   0  0  0  0  0  0  0  0  0  0  0  0
   36.8740   27.8870   44.4580 H   0  0  0  0  0  0  0  0  0  0  0  0
   38.3200   26.7910   43.2630 C   0  0  0  0  0  0  0  0  0  0  0  0
   39.5650   26.3480   43.6780 C   0  0  0  0  0  0  0  0  0  0  0  0
   40.0150   25.1670   43.1940 C   0  0  0  0  0  0  0  0  0  0  0  0
   39.3240   24.4190   42.3460 N   0  0  0  0  0  0  0  0  0  0  0  0
   38.1160   24.8490   41.9450 C   0  0  0  0  0  0  0  0  0  0  0  0
   37.5890   26.0360   42.3900 N   0  0  0  0  0  0  0  0  0  0  0  0
   40.0170   27.0310   44.3530 H   0  0  0  0  0  0  0  0  0  0  0  0
   40.9910   24.8560   43.5410 H   0  0  0  0  0  0  0  0  0  0  0  0
   37.4010   23.9540   40.9920 C   0  0  0  0  0  0  0  0  0  0  0  0
   37.5940   24.3430   39.6970 F   0  0  0  0  0  0  0  0  0  0  0  0
   36.0290   23.9640   41.2800 F   0  0  0  0  0  0  0  0  0  0  0  0
   37.8370   22.6410   41.1040 F   0  0  0  0  0  0  0  0  0  0  0  0
  1 17  1  0  0  0  0
  2  3  2  0  0  0  0
  2  7  1  0  0  0  0
  3  4  1  0  0  0  0
  4 13  1  0  0  0  0
  4  5  2  0  0  0  0
  6  5  1  0  0  0  0
  6  1  1  0  0  0  0
  7  6  2  0  0  0  0
  8  2  1  0  0  0  0
  9  3  1  0  0  0  0
  9 10  1  0  0  0  0
 11  9  1  0  0  0  0
 12  9  1  0  0  0  0
 14 13  2  0  0  0  0
 15 16  1  0  0  0  0
 15 14  1  0  0  0  0
 17 18  1  0  0  0  0
 17 19  1  0  0  0  0
 20 17  1  0  0  0  0
 20 21  1  0  0  0  0
 21 26  1  0  0  0  0
 22 27  1  0  0  0  0
 22 21  2  0  0  0  0
 23 22  1  0  0  0  0
 24 23  2  0  0  0  0
 24 25  1  0  0  0  0
 25 20  2  0  0  0  0
 28 31  1  0  0  0  0
 28 30  1  0  0  0  0
 28 24  1  0  0  0  0
 29 28  1  0  0  0  0
M  END
>  <minimizedAffinity>
-5.77621317

$$$$

 OpenBabel03252505593D

 31 32  0  0  0  0  0  0  0  0999 V2000
   38.9780   28.9680   43.3010 O   0  0  0  0  0  0  0  0  0  0  0  0
   39.4260   31.9480   41.4240 C   0  0  0  0  0  0  0  0  0  0  0  0
   38.3260   31.9670   40.5460 C   0  0  0  0  0  0  0  0  0  0  0  0
   37.4380   30.8950   40.6480 C   0  0  0  0  0  0  0  0  0  0  0  0
   37.6740   29.9310   41.5530 N   0  0  0  0  0  0  0  0  0  0  0  0
   38.7330   29.9570   42.3670 C   0  0  0  0  0  0  0  0  0  0  0  0
   39.6040   30.9570   42.3070 N   0  0  0  0  0  0  0  0  0  0  0  0
   40.1330   32.7870   41.3540 H   0  0  0  0  0  0  0  0  0  0  0  0
   38.1770   33.0890   39.5860 C   0  0  0  0  0  0  0  0  0  0  0  0
   38.4250   32.5060   38.3440 F   0  0  0  0  0  0  0  0  0  0  0  0
   39.2010   33.9830   39.8630 F   0  0  0  0  0  0  0  0  0  0  0  0
   36.9380   33.5980   39.6710 F   0  0  0  0  0  0  0  0  0  0  0  0
   36.2580   30.8040   39.8380 C   0  0  0  0  0  3  0  0  0  0  0  0
   36.2440   30.0660   38.7150 C   0  0  0  0  0  3  0  0  0  0  0  0
   37.4450   29.3030   38.2450 C   0  0  0  0  0  2  0  0  0  0  0  0
   38.2960   29.9710   37.9800 H   0  0  0  0  0  0  0  0  0  0  0  0
   38.0130   27.9760   43.5800 C   0  0  0  0  0  0  0  0  0  0  0  0
   37.8460   28.0060   44.6760 H   0  0  0  0  0  0  0  0  0  0  0  0
   37.0370   28.1620   43.1020 H   0  0  0  0  0  0  0  0  0  0  0  0
   38.6080   26.6680   43.2460 C   0  0  0  0  0  0  0  0  0  0  0  0
   39.7900   26.0760   43.6600 C   0  0  0  0  0  0  0  0  0  0  0  0
   40.0840   24.8430   43.1860 C   0  0  0  0  0  0  0  0  0  0  0  0
   39.2990   24.1800   42.3480 N   0  0  0  0  0  0  0  0  0  0  0  0
   38.1530   24.7560   41.9480 C   0  0  0  0  0  0  0  0  0  0  0  0
   37.7830   26.0040   42.3830 N   0  0  0  0  0  0  0  0  0  0  0  0
   40.3270   26.7010   44.3260 H   0  0  0  0  0  0  0  0  0  0  0  0
   41.0140   24.4130   43.5320 H   0  0  0  0  0  0  0  0  0  0  0  0
   37.3250   23.9500   41.0070 C   0  0  0  0  0  0  0  0  0  0  0  0
   37.4090   24.4260   39.7290 F   0  0  0  0  0  0  0  0  0  0  0  0
   35.9860   23.9730   41.4230 F   0  0  0  0  0  0  0  0  0  0  0  0
   37.7280   22.6220   40.9860 F   0  0  0  0  0  0  0  0  0  0  0  0
  1 17  1  0  0  0  0
  2  7  1  0  0  0  0
  3  4  1  0  0  0  0
  3  2  2  0  0  0  0
  4  5  2  0  0  0  0
  5  6  1  0  0  0  0
  6  1  1  0  0  0  0
  7  6  2  0  0  0  0
  8  2  1  0  0  0  0
  9 12  1  0  0  0  0
  9 11  1  0  0  0  0
  9  3  1  0  0  0  0
 10  9  1  0  0  0  0
 13  4  1  0  0  0  0
 14 13  2  0  0  0  0
 15 14  1  0  0  0  0
 16 15  1  0  0  0  0
 17 18  1  0  0  0  0
 19 17  1  0  0  0  0
 20 17  1  0  0  0  0
 20 21  1  0  0  0  0
 21 26  1  0  0  0  0
 22 27  1  0  0  0  0
 22 21  2  0  0  0  0
 23 22  1  0  0  0  0
 24 23  2  0  0  0  0
 24 25  1  0  0  0  0
 25 20  2  0  0  0  0
 28 30  1  0  0  0  0
 28 24  1  0  0  0  0
 29 28  1  0  0  0  0
 31 28  1  0  0  0  0
M  END
>  <minimizedAffinity>
-5.70915937

$$$$

 OpenBabel03252505593D

 31 32  0  0  0  0  0  0  0  0999 V2000
   37.8760   28.9360   38.4330 O   0  0  0  0  0  0  0  0  0  0  0  0
   36.5630   25.8870   39.6920 C   0  0  0  0  0  0  0  0  0  0  0  0
   37.2560   25.6910   40.9010 C   0  0  0  0  0  0  0  0  0  0  0  0
   38.1900   26.6700   41.2410 C   0  0  0  0  0  0  0  0  0  0  0  0
   38.3740   27.7160   40.4190 N   0  0  0  0  0  0  0  0  0  0  0  0
   37.6910   27.8600   39.2800 C   0  0  0  0  0  0  0  0  0  0  0  0
   36.7910   26.9550   38.9160 N   0  0  0  0  0  0  0  0  0  0  0  0
   35.8230   25.1230   39.4120 H   0  0  0  0  0  0  0  0  0  0  0  0
   36.9650   24.4890   41.7220 C   0  0  0  0  0  0  0  0  0  0  0  0
   36.0660   23.7600   40.9460 F   0  0  0  0  0  0  0  0  0  0  0  0
   36.3030   24.9370   42.8560 F   0  0  0  0  0  0  0  0  0  0  0  0
   38.1000   23.8130   41.9550 F   0  0  0  0  0  0  0  0  0  0  0  0
   38.9420   26.6130   42.4610 C   0  0  0  0  0  3  0  0  0  0  0  0
   38.5240   27.2590   43.5640 C   0  0  0  0  0  3  0  0  0  0  0  0
   37.2640   28.0690   43.5860 C   0  0  0  0  0  2  0  0  0  0  0  0
   37.3100   28.9460   42.9010 H   0  0  0  0  0  0  0  0  0  0  0  0
   39.1080   29.1380   37.7710 C   0  0  0  0  0  0  0  0  0  0  0  0
   39.8220   28.4210   38.2250 H   0  0  0  0  0  0  0  0  0  0  0  0
   39.0710   28.9150   36.6920 H   0  0  0  0  0  0  0  0  0  0  0  0
   39.5670   30.5020   38.0910 C   0  0  0  0  0  0  0  0  0  0  0  0
   40.7320   31.1710   37.7530 C   0  0  0  0  0  0  0  0  0  0  0  0
   40.8860   32.4430   38.1900 C   0  0  0  0  0  0  0  0  0  0  0  0
   39.9790   33.0740   38.9220 N   0  0  0  0  0  0  0  0  0  0  0  0
   38.8490   32.4240   39.2480 C   0  0  0  0  0  0  0  0  0  0  0  0
   38.6180   31.1320   38.8440 N   0  0  0  0  0  0  0  0  0  0  0  0
   41.3750   30.5640   37.1680 H   0  0  0  0  0  0  0  0  0  0  0  0
   41.8070   32.9320   37.9060 H   0  0  0  0  0  0  0  0  0  0  0  0
   37.8780   33.1990   40.0720 C   0  0  0  0  0  0  0  0  0  0  0  0
   38.5160   34.0150   40.9640 F   0  0  0  0  0  0  0  0  0  0  0  0
   37.0430   32.3140   40.7680 F   0  0  0  0  0  0  0  0  0  0  0  0
   37.0650   33.9990   39.2810 F   0  0  0  0  0  0  0  0  0  0  0  0
  1  6  1  0  0  0  0
  2  3  1  0  0  0  0
  3  4  2  0  0  0  0
  3  9  1  0  0  0  0
  4 13  1  0  0  0  0
  5  4  1  0  0  0  0
  6  5  2  0  0  0  0
  7  6  1  0  0  0  0
  7  2  2  0  0  0  0
  8  2  1  0  0  0  0
  9 12  1  0  0  0  0
  9 11  1  0  0  0  0
 10  9  1  0  0  0  0
 13 14  2  0  0  0  0
 14 15  1  0  0  0  0
 16 15  1  0  0  0  0
 17 20  1  0  0  0  0
 17 18  1  0  0  0  0
 17  1  1  0  0  0  0
 19 17  1  0  0  0  0
 20 25  1  0  0  0  0
 21 20  2  0  0  0  0
 21 22  1  0  0  0  0
 22 23  2  0  0  0  0
 23 24  1  0  0  0  0
 24 28  1  0  0  0  0
 25 24  2  0  0  0  0
 26 21  1  0  0  0  0
 27 22  1  0  0  0  0
 28 30  1  0  0  0  0
 28 29  1  0  0  0  0
 31 28  1  0  0  0  0
M  END
>  <minimizedAffinity>
-5.63820219

$$$$

 OpenBabel03252505593D

 31 32  0  0  0  0  0  0  0  0999 V2000
   35.7380   29.2520   38.7010 O   0  0  0  0  0  0  0  0  0  0  0  0
   37.0870   26.1110   39.6600 C   0  0  0  0  0  0  0  0  0  0  0  0
   37.1510   26.1820   41.0640 C   0  0  0  0  0  0  0  0  0  0  0  0
   36.7030   27.3700   41.6420 C   0  0  0  0  0  0  0  0  0  0  0  0
   36.2490   28.3550   40.8500 N   0  0  0  0  0  0  0  0  0  0  0  0
   36.2070   28.2420   39.5200 C   0  0  0  0  0  0  0  0  0  0  0  0
   36.6210   27.1290   38.9250 N   0  0  0  0  0  0  0  0  0  0  0  0
   37.4370   25.1800   39.1920 H   0  0  0  0  0  0  0  0  0  0  0  0
   37.6780   25.0240   41.8300 C   0  0  0  0  0  0  0  0  0  0  0  0
   37.9950   24.0870   40.8480 F   0  0  0  0  0  0  0  0  0  0  0  0
   36.6200   24.5330   42.5800 F   0  0  0  0  0  0  0  0  0  0  0  0
   38.7530   25.4000   42.5400 F   0  0  0  0  0  0  0  0  0  0  0  0
   36.6820   27.5640   43.0630 C   0  0  0  0  0  3  0  0  0  0  0  0
   37.6320   28.2900   43.6780 C   0  0  0  0  0  3  0  0  0  0  0  0
   38.7590   28.9310   42.9270 C   0  0  0  0  0  2  0  0  0  0  0  0
   39.4260   28.1830   42.4410 H   0  0  0  0  0  0  0  0  0  0  0  0
   36.6070   29.9420   37.8270 C   0  0  0  0  0  0  0  0  0  0  0  0
   37.3770   29.2070   37.5150 H   0  0  0  0  0  0  0  0  0  0  0  0
   36.1160   30.3010   36.9080 H   0  0  0  0  0  0  0  0  0  0  0  0
   37.2770   30.9990   38.6060 C   0  0  0  0  0  0  0  0  0  0  0  0
   36.8480   31.7300   39.7020 C   0  0  0  0  0  0  0  0  0  0  0  0
   37.6930   32.6500   40.2240 C   0  0  0  0  0  0  0  0  0  0  0  0
   38.9040   32.8830   39.7380 N   0  0  0  0  0  0  0  0  0  0  0  0
   39.3180   32.1730   38.6750 C   0  0  0  0  0  0  0  0  0  0  0  0
   38.5210   31.2220   38.0880 N   0  0  0  0  0  0  0  0  0  0  0  0
   35.8680   31.4530   39.9960 H   0  0  0  0  0  0  0  0  0  0  0  0
   37.3230   33.1990   41.0790 H   0  0  0  0  0  0  0  0  0  0  0  0
   40.6900   32.4920   38.1860 C   0  0  0  0  0  0  0  0  0  0  0  0
   40.8230   32.2220   36.8530 F   0  0  0  0  0  0  0  0  0  0  0  0
   41.6300   31.7430   38.9070 F   0  0  0  0  0  0  0  0  0  0  0  0
   40.9970   33.8330   38.3740 F   0  0  0  0  0  0  0  0  0  0  0  0
  1  6  1  0  0  0  0
  2  3  1  0  0  0  0
  3  4  2  0  0  0  0
  3  9  1  0  0  0  0
  4 13  1  0  0  0  0
  5  4  1  0  0  0  0
  6  5  2  0  0  0  0
  7  6  1  0  0  0  0
  7  2  2  0  0  0  0
  8  2  1  0  0  0  0
  9 12  1  0  0  0  0
  9 11  1  0  0  0  0
 10  9  1  0  0  0  0
 13 14  2  0  0  0  0
 15 14  1  0  0  0  0
 16 15  1  0  0  0  0
 17 20  1  0  0  0  0
 17  1  1  0  0  0  0
 18 17  1  0  0  0  0
 19 17  1  0  0  0  0
 20 21  1  0  0  0  0
 21 26  1  0  0  0  0
 21 22  2  0  0  0  0
 22 27  1  0  0  0  0
 23 22  1  0  0  0  0
 24 23  2  0  0  0  0
 25 20  2  0  0  0  0
 25 24  1  0  0  0  0
 28 31  1  0  0  0  0
 28 24  1  0  0  0  0
 28 30  1  0  0  0  0
 29 28  1  0  0  0  0
M  END
>  <minimizedAffinity>
-5.55781031

$$$$

 OpenBabel03252505593D

 31 32  0  0  0  0  0  0  0  0999 V2000
   36.2520   29.8100   38.9160 O   0  0  0  0  0  0  0  0  0  0  0  0
   36.8600   26.3550   39.4640 C   0  0  0  0  0  0  0  0  0  0  0  0
   36.9540   26.2430   40.8640 C   0  0  0  0  0  0  0  0  0  0  0  0
   36.7940   27.4250   41.5890 C   0  0  0  0  0  0  0  0  0  0  0  0
   36.5680   28.5730   40.9300 N   0  0  0  0  0  0  0  0  0  0  0  0
   36.4870   28.6300   39.5980 C   0  0  0  0  0  0  0  0  0  0  0  0
   36.6310   27.5310   38.8670 N   0  0  0  0  0  0  0  0  0  0  0  0
   36.9840   25.4310   38.8810 H   0  0  0  0  0  0  0  0  0  0  0  0
   37.2110   24.9140   41.4740 C   0  0  0  0  0  0  0  0  0  0  0  0
   38.5090   25.0180   41.9730 F   0  0  0  0  0  0  0  0  0  0  0  0
   37.2130   23.9960   40.4340 F   0  0  0  0  0  0  0  0  0  0  0  0
   36.3130   24.6770   42.4420 F   0  0  0  0  0  0  0  0  0  0  0  0
   36.8320   27.4490   43.0220 C   0  0  0  0  0  3  0  0  0  0  0  0
   37.9500   27.8040   43.6800 C   0  0  0  0  0  3  0  0  0  0  0  0
   39.2100   28.1890   42.9650 C   0  0  0  0  0  2  0  0  0  0  0  0
   39.6380   27.3480   42.3750 H   0  0  0  0  0  0  0  0  0  0  0  0
   37.2930   30.4720   38.2290 C   0  0  0  0  0  0  0  0  0  0  0  0
   38.1170   29.7350   38.1330 H   0  0  0  0  0  0  0  0  0  0  0  0
   37.0200   30.7830   37.2070 H   0  0  0  0  0  0  0  0  0  0  0  0
   37.7650   31.5730   39.0890 C   0  0  0  0  0  0  0  0  0  0  0  0
   37.3040   32.8700   39.2400 C   0  0  0  0  0  0  0  0  0  0  0  0
   37.9420   33.6740   40.1230 C   0  0  0  0  0  0  0  0  0  0  0  0
   38.9820   33.2800   40.8440 N   0  0  0  0  0  0  0  0  0  0  0  0
   39.4270   32.0210   40.6970 C   0  0  0  0  0  0  0  0  0  0  0  0
   38.8350   31.1440   39.8220 N   0  0  0  0  0  0  0  0  0  0  0  0
   36.4730   33.0640   38.6120 H   0  0  0  0  0  0  0  0  0  0  0  0
   37.5530   34.6790   40.2130 H   0  0  0  0  0  0  0  0  0  0  0  0
   40.5990   31.6520   41.5420 C   0  0  0  0  0  0  0  0  0  0  0  0
   41.5210   32.6590   41.5880 F   0  0  0  0  0  0  0  0  0  0  0  0
   41.2010   30.4950   41.0290 F   0  0  0  0  0  0  0  0  0  0  0  0
   40.2160   31.3750   42.8470 F   0  0  0  0  0  0  0  0  0  0  0  0
  1  6  1  0  0  0  0
  2  3  1  0  0  0  0
  3  9  1  0  0  0  0
  3  4  2  0  0  0  0
  4 13  1  0  0  0  0
  5  4  1  0  0  0  0
  6  5  2  0  0  0  0
  7  2  2  0  0  0  0
  7  6  1  0  0  0  0
  8  2  1  0  0  0  0
  9 10  1  0  0  0  0
  9 12  1  0  0  0  0
 11  9  1  0  0  0  0
 13 14  2  0  0  0  0
 15 14  1  0  0  0  0
 16 15  1  0  0  0  0
 17  1  1  0  0  0  0
 17 20  1  0  0  0  0
 18 17  1  0  0  0  0
 19 17  1  0  0  0  0
 20 21  2  0  0  0  0
 20 25  1  0  0  0  0
 21 22  1  0  0  0  0
 22 27  1  0  0  0  0
 22 23  2  0  0  0  0
 24 23  1  0  0  0  0
 24 28  1  0  0  0  0
 25 24  2  0  0  0  0
 26 21  1  0  0  0  0
 28 29  1  0  0  0  0
 28 31  1  0  0  0  0
 30 28  1  0  0  0  0
M  END
>  <minimizedAffinity>
-5.43608761

$$$$

 OpenBabel03252505593D

 31 32  0  0  0  0  0  0  0  0999 V2000
   36.3220   28.0830   41.4930 O   0  0  0  0  0  0  0  0  0  0  0  0
   36.4680   31.5430   40.7100 C   0  0  0  0  0  0  0  0  0  0  0  0
   37.8270   31.7700   40.4200 C   0  0  0  0  0  0  0  0  0  0  0  0
   38.6700   30.6620   40.5130 C   0  0  0  0  0  0  0  0  0  0  0  0
   38.1540   29.4730   40.8660 N   0  0  0  0  0  0  0  0  0  0  0  0
   36.8560   29.3060   41.1320 C   0  0  0  0  0  0  0  0  0  0  0  0
   36.0160   30.3300   41.0550 N   0  0  0  0  0  0  0  0  0  0  0  0
   35.7930   32.4080   40.6400 H   0  0  0  0  0  0  0  0  0  0  0  0
   38.2740   33.1340   40.0440 C   0  0  0  0  0  0  0  0  0  0  0  0
   38.8290   33.6430   41.2180 F   0  0  0  0  0  0  0  0  0  0  0  0
   37.1280   33.8590   39.7520 F   0  0  0  0  0  0  0  0  0  0  0  0
   39.1710   33.0610   39.0490 F   0  0  0  0  0  0  0  0  0  0  0  0
   40.0700   30.7440   40.2120 C   0  0  0  0  0  3  0  0  0  0  0  0
   40.9770   30.9440   41.1840 C   0  0  0  0  0  3  0  0  0  0  0  0
   40.5870   31.0920   42.6230 C   0  0  0  0  0  2  0  0  0  0  0  0
   39.9650   31.9980   42.8040 H   0  0  0  0  0  0  0  0  0  0  0  0
   36.6090   27.5070   42.7500 C   0  0  0  0  0  0  0  0  0  0  0  0
   37.2200   28.2530   43.2990 H   0  0  0  0  0  0  0  0  0  0  0  0
   35.7130   27.3130   43.3630 H   0  0  0  0  0  0  0  0  0  0  0  0
   37.4480   26.3170   42.5150 C   0  0  0  0  0  0  0  0  0  0  0  0
   37.1100   25.0250   42.1460 C   0  0  0  0  0  0  0  0  0  0  0  0
   38.1080   24.1240   41.9960 C   0  0  0  0  0  0  0  0  0  0  0  0
   39.3870   24.4180   42.1840 N   0  0  0  0  0  0  0  0  0  0  0  0
   39.7130   25.6710   42.5410 C   0  0  0  0  0  0  0  0  0  0  0  0
   38.7590   26.6440   42.7140 N   0  0  0  0  0  0  0  0  0  0  0  0
   36.0620   24.9160   42.0260 H   0  0  0  0  0  0  0  0  0  0  0  0
   37.8050   23.1270   41.7070 H   0  0  0  0  0  0  0  0  0  0  0  0
   41.1690   25.9250   42.7340 C   0  0  0  0  0  0  0  0  0  0  0  0
   41.7770   26.2790   41.5620 F   0  0  0  0  0  0  0  0  0  0  0  0
   41.7820   24.7720   43.2440 F   0  0  0  0  0  0  0  0  0  0  0  0
   41.3900   26.9480   43.6460 F   0  0  0  0  0  0  0  0  0  0  0  0
  1 17  1  0  0  0  0
  2  7  1  0  0  0  0
  3  4  1  0  0  0  0
  3  2  2  0  0  0  0
  4  5  2  0  0  0  0
  5  6  1  0  0  0  0
  6  1  1  0  0  0  0
  7  6  2  0  0  0  0
  8  2  1  0  0  0  0
  9  3  1  0  0  0  0
  9 10  1  0  0  0  0
 11  9  1  0  0  0  0
 12  9  1  0  0  0  0
 13  4  1  0  0  0  0
 13 14  2  0  0  0  0
 14 15  1  0  0  0  0
 15 16  1  0  0  0  0
 17 18  1  0  0  0  0
 17 19  1  0  0  0  0
 20 25  1  0  0  0  0
 20 17  1  0  0  0  0
 21 20  2  0  0  0  0
 22 21  1  0  0  0  0
 22 23  2  0  0  0  0
 23 24  1  0  0  0  0
 24 25  2  0  0  0  0
 24 28  1  0  0  0  0
 26 21  1  0  0  0  0
 27 22  1  0  0  0  0
 28 30  1  0  0  0  0
 28 31  1  0  0  0  0
 29 28  1  0  0  0  0
M  END
>  <minimizedAffinity>
-5.27795601

$$$$

 OpenBabel03252505593D

 31 32  0  0  0  0  0  0  0  0999 V2000
   36.8750   29.8330   38.2150 O   0  0  0  0  0  0  0  0  0  0  0  0
   36.0030   28.5570   41.4110 C   0  0  0  0  0  0  0  0  0  0  0  0
   36.9670   27.5610   41.6550 C   0  0  0  0  0  0  0  0  0  0  0  0
   37.9200   27.3670   40.6550 C   0  0  0  0  0  0  0  0  0  0  0  0
   37.8660   28.1200   39.5440 N   0  0  0  0  0  0  0  0  0  0  0  0
   36.9310   29.0550   39.3560 C   0  0  0  0  0  0  0  0  0  0  0  0
   36.0050   29.2760   40.2810 N   0  0  0  0  0  0  0  0  0  0  0  0
   35.2460   28.7200   42.1920 H   0  0  0  0  0  0  0  0  0  0  0  0
   36.9170   26.7920   42.9240 C   0  0  0  0  0  0  0  0  0  0  0  0
   35.8950   27.4040   43.6490 F   0  0  0  0  0  0  0  0  0  0  0  0
   38.1180   27.0290   43.5760 F   0  0  0  0  0  0  0  0  0  0  0  0
   36.6540   25.5020   42.6650 F   0  0  0  0  0  0  0  0  0  0  0  0
   38.9790   26.4090   40.7870 C   0  0  0  0  0  3  0  0  0  0  0  0
   38.8640   25.1730   40.2710 C   0  0  0  0  0  3  0  0  0  0  0  0
   37.6370   24.7250   39.5350 C   0  0  0  0  0  2  0  0  0  0  0  0
   36.7340   24.7050   40.1860 H   0  0  0  0  0  0  0  0  0  0  0  0
   38.0210   30.5060   37.7360 C   0  0  0  0  0  0  0  0  0  0  0  0
   38.8780   29.8270   37.9240 H   0  0  0  0  0  0  0  0  0  0  0  0
   37.9980   30.7010   36.6510 H   0  0  0  0  0  0  0  0  0  0  0  0
   38.2080   31.7130   38.5630 C   0  0  0  0  0  0  0  0  0  0  0  0
   37.2870   32.5980   39.0990 C   0  0  0  0  0  0  0  0  0  0  0  0
   37.7540   33.6340   39.8350 C   0  0  0  0  0  0  0  0  0  0  0  0
   39.0430   33.8400   40.0640 N   0  0  0  0  0  0  0  0  0  0  0  0
   39.9340   32.9800   39.5430 C   0  0  0  0  0  0  0  0  0  0  0  0
   39.5420   31.9040   38.7860 N   0  0  0  0  0  0  0  0  0  0  0  0
   36.2940   32.3280   38.8470 H   0  0  0  0  0  0  0  0  0  0  0  0
   37.0050   34.3030   40.2370 H   0  0  0  0  0  0  0  0  0  0  0  0
   41.3640   33.2770   39.8440 C   0  0  0  0  0  0  0  0  0  0  0  0
   41.5110   33.8280   41.0860 F   0  0  0  0  0  0  0  0  0  0  0  0
   41.8710   34.1610   38.8820 F   0  0  0  0  0  0  0  0  0  0  0  0
   42.1410   32.1280   39.8010 F   0  0  0  0  0  0  0  0  0  0  0  0
  1  6  1  0  0  0  0
  2  3  1  0  0  0  0
  2  8  1  0  0  0  0
  3  9  1  0  0  0  0
  4 13  1  0  0  0  0
  4  3  2  0  0  0  0
  5  4  1  0  0  0  0
  6  5  2  0  0  0  0
  6  7  1  0  0  0  0
  7  2  2  0  0  0  0
  9 11  1  0  0  0  0
  9 10  1  0  0  0  0
 12  9  1  0  0  0  0
 14 13  2  0  0  0  0
 15 16  1  0  0  0  0
 15 14  1  0  0  0  0
 17 18  1  0  0  0  0
 17  1  1  0  0  0  0
 17 20  1  0  0  0  0
 19 17  1  0  0  0  0
 20 25  2  0  0  0  0
 20 21  1  0  0  0  0
 21 22  2  0  0  0  0
 22 23  1  0  0  0  0
 22 27  1  0  0  0  0
 24 28  1  0  0  0  0
 24 23  2  0  0  0  0
 25 24  1  0  0  0  0
 26 21  1  0  0  0  0
 28 29  1  0  0  0  0
 30 28  1  0  0  0  0
 31 28  1  0  0  0  0
M  END
>  <minimizedAffinity>
-5.26599836

$$$$

 OpenBabel03252505593D

 31 32  0  0  0  0  0  0  0  0999 V2000
   36.1010   26.3930   37.5880 O   0  0  0  0  0  0  0  0  0  0  0  0
   36.6750   28.1710   40.6080 C   0  0  0  0  0  0  0  0  0  0  0  0
   36.9060   27.1600   41.5600 C   0  0  0  0  0  0  0  0  0  0  0  0
   36.8490   25.8470   41.0910 C   0  0  0  0  0  0  0  0  0  0  0  0
   36.5840   25.6250   39.7930 N   0  0  0  0  0  0  0  0  0  0  0  0
   36.3720   26.6180   38.9250 C   0  0  0  0  0  0  0  0  0  0  0  0
   36.4170   27.8830   39.3250 N   0  0  0  0  0  0  0  0  0  0  0  0
   36.7170   29.2100   40.9640 H   0  0  0  0  0  0  0  0  0  0  0  0
   37.1860   27.5350   42.9690 C   0  0  0  0  0  0  0  0  0  0  0  0
   36.1120   27.0020   43.6800 F   0  0  0  0  0  0  0  0  0  0  0  0
   37.1090   28.9180   43.0310 F   0  0  0  0  0  0  0  0  0  0  0  0
   38.3600   27.0110   43.3530 F   0  0  0  0  0  0  0  0  0  0  0  0
   37.0970   24.7220   41.9450 C   0  0  0  0  0  3  0  0  0  0  0  0
   38.3030   24.1280   41.9750 C   0  0  0  0  0  3  0  0  0  0  0  0
   39.4460   24.5960   41.1280 C   0  0  0  0  0  2  0  0  0  0  0  0
   39.2440   24.4810   40.0390 H   0  0  0  0  0  0  0  0  0  0  0  0
   36.7570   27.1320   36.5790 C   0  0  0  0  0  0  0  0  0  0  0  0
   37.4700   27.8030   37.1020 H   0  0  0  0  0  0  0  0  0  0  0  0
   37.3500   26.5090   35.8890 H   0  0  0  0  0  0  0  0  0  0  0  0
   35.7460   27.9750   35.9140 C   0  0  0  0  0  0  0  0  0  0  0  0
   34.3620   27.9000   35.9090 C   0  0  0  0  0  0  0  0  0  0  0  0
   33.6780   28.8280   35.2000 C   0  0  0  0  0  0  0  0  0  0  0  0
   34.2660   29.7980   34.5140 N   0  0  0  0  0  0  0  0  0  0  0  0
   35.6070   29.8690   34.5210 C   0  0  0  0  0  0  0  0  0  0  0  0
   36.3740   28.9660   35.2150 N   0  0  0  0  0  0  0  0  0  0  0  0
   34.0130   27.0860   36.4910 H   0  0  0  0  0  0  0  0  0  0  0  0
   32.6000   28.7380   35.2210 H   0  0  0  0  0  0  0  0  0  0  0  0
   36.1950   30.9860   33.7270 C   0  0  0  0  0  0  0  0  0  0  0  0
   35.2240   31.7530   33.1460 F   0  0  0  0  0  0  0  0  0  0  0  0
   37.0320   30.4640   32.7320 F   0  0  0  0  0  0  0  0  0  0  0  0
   36.9680   31.8210   34.5220 F   0  0  0  0  0  0  0  0  0  0  0  0
  1  6  1  0  0  0  0
  2  8  1  0  0  0  0
  2  3  1  0  0  0  0
  3  9  1  0  0  0  0
  4  3  2  0  0  0  0
  4 13  1  0  0  0  0
  5  4  1  0  0  0  0
  6  7  1  0  0  0  0
  6  5  2  0  0  0  0
  7  2  2  0  0  0  0
  9 11  1  0  0  0  0
  9 12  1  0  0  0  0
  9 10  1  0  0  0  0
 13 14  2  0  0  0  0
 15 14  1  0  0  0  0
 16 15  1  0  0  0  0
 17 18  1  0  0  0  0
 17  1  1  0  0  0  0
 19 17  1  0  0  0  0
 20 17  1  0  0  0  0
 21 20  1  0  0  0  0
 21 26  1  0  0  0  0
 22 27  1  0  0  0  0
 22 21  2  0  0  0  0
 23 24  2  0  0  0  0
 23 22  1  0  0  0  0
 24 25  1  0  0  0  0
 25 20  2  0  0  0  0
 28 24  1  0  0  0  0
 28 31  1  0  0  0  0
 29 28  1  0  0  0  0
 30 28  1  0  0  0  0
M  END
>  <minimizedAffinity>
-5.19064188

$$$$

 OpenBabel03252505593D

 31 32  0  0  0  0  0  0  0  0999 V2000
   38.3150   28.1770   37.9750 O   0  0  0  0  0  0  0  0  0  0  0  0
   37.3690   25.1050   39.4820 C   0  0  0  0  0  0  0  0  0  0  0  0
   37.7890   25.2370   40.8190 C   0  0  0  0  0  0  0  0  0  0  0  0
   38.4100   26.4410   41.1530 C   0  0  0  0  0  0  0  0  0  0  0  0
   38.5700   27.3810   40.2080 N   0  0  0  0  0  0  0  0  0  0  0  0
   38.1540   27.2110   38.9500 C   0  0  0  0  0  0  0  0  0  0  0  0
   37.5570   26.0820   38.5850 N   0  0  0  0  0  0  0  0  0  0  0  0
   36.8790   24.1600   39.2050 H   0  0  0  0  0  0  0  0  0  0  0  0
   37.5570   24.1220   41.7700 C   0  0  0  0  0  0  0  0  0  0  0  0
   38.7840   23.9670   42.4140 F   0  0  0  0  0  0  0  0  0  0  0  0
   37.3190   22.9910   41.0020 F   0  0  0  0  0  0  0  0  0  0  0  0
   36.5740   24.4480   42.6230 F   0  0  0  0  0  0  0  0  0  0  0  0
   38.8560   26.7230   42.4870 C   0  0  0  0  0  3  0  0  0  0  0  0
   38.0520   27.3400   43.3710 C   0  0  0  0  0  3  0  0  0  0  0  0
   36.6590   27.7680   43.0210 C   0  0  0  0  0  2  0  0  0  0  0  0
   36.6400   28.5460   42.2250 H   0  0  0  0  0  0  0  0  0  0  0  0
   37.2720   29.0770   37.6640 C   0  0  0  0  0  0  0  0  0  0  0  0
   37.5920   29.6180   36.7500 H   0  0  0  0  0  0  0  0  0  0  0  0
   36.3160   28.5820   37.4250 H   0  0  0  0  0  0  0  0  0  0  0  0
   37.1850   30.0560   38.7640 C   0  0  0  0  0  0  0  0  0  0  0  0
   36.2450   30.2120   39.7690 C   0  0  0  0  0  0  0  0  0  0  0  0
   36.4270   31.2140   40.6610 C   0  0  0  0  0  0  0  0  0  0  0  0
   37.4560   32.0490   40.6160 N   0  0  0  0  0  0  0  0  0  0  0  0
   38.3670   31.8950   39.6400 C   0  0  0  0  0  0  0  0  0  0  0  0
   38.2550   30.9040   38.6970 N   0  0  0  0  0  0  0  0  0  0  0  0
   35.4750   29.4880   39.6990 H   0  0  0  0  0  0  0  0  0  0  0  0
   35.6740   31.3040   41.4310 H   0  0  0  0  0  0  0  0  0  0  0  0
   39.4940   32.8710   39.6560 C   0  0  0  0  0  0  0  0  0  0  0  0
   40.4110   32.5630   40.6210 F   0  0  0  0  0  0  0  0  0  0  0  0
   38.9940   34.1600   39.8840 F   0  0  0  0  0  0  0  0  0  0  0  0
   40.1610   32.8960   38.4390 F   0  0  0  0  0  0  0  0  0  0  0  0
  1  6  1  0  0  0  0
  2  3  1  0  0  0  0
  3  4  2  0  0  0  0
  3  9  1  0  0  0  0
  4 13  1  0  0  0  0
  5  4  1  0  0  0  0
  6  5  2  0  0  0  0
  7  6  1  0  0  0  0
  7  2  2  0  0  0  0
  8  2  1  0  0  0  0
  9 10  1  0  0  0  0
  9 12  1  0  0  0  0
 11  9  1  0  0  0  0
 13 14  2  0  0  0  0
 15 14  1  0  0  0  0
 16 15  1  0  0  0  0
 17  1  1  0  0  0  0
 17 20  1  0  0  0  0
 18 17  1  0  0  0  0
 19 17  1  0  0  0  0
 20 21  1  0  0  0  0
 21 22  2  0  0  0  0
 22 27  1  0  0  0  0
 23 22  1  0  0  0  0
 24 28  1  0  0  0  0
 24 23  2  0  0  0  0
 25 20  2  0  0  0  0
 25 24  1  0  0  0  0
 26 21  1  0  0  0  0
 28 30  1  0  0  0  0
 28 29  1  0  0  0  0
 31 28  1  0  0  0  0
M  END
>  <minimizedAffinity>
-5.13583136

$$$$
