
 OpenBabel03242517533D

 33 34  0  0  0  0  0  0  0  0999 V2000
   45.2970   34.2540   43.7690 C   0  0  0  0  0  0  0  0  0  0  0  0
   46.4630   34.7550   43.1440 C   0  0  0  0  0  0  0  0  0  0  0  0
   47.6560   34.0700   43.2740 C   0  0  0  0  0  0  0  0  0  0  0  0
   47.5890   32.9540   44.0080 N   0  0  0  0  0  0  0  0  0  0  0  0
   46.5130   32.4770   44.5950 C   0  0  0  0  0  0  0  0  0  0  0  0
   45.3540   33.1350   44.4740 N   0  0  0  0  0  0  0  0  0  0  0  0
   44.3830   34.8340   43.6350 H   0  0  0  0  0  0  0  0  0  0  0  0
   46.4740   35.6710   42.5520 H   0  0  0  0  0  0  0  0  0  0  0  0
   48.9330   34.4900   42.6720 C   0  0  0  0  0  0  0  0  0  0  0  0
   49.6910   34.7270   43.4450 H   0  0  0  0  0  0  0  0  0  0  0  0
   49.3350   33.6910   42.0580 H   0  0  0  0  0  0  0  0  0  0  0  0
   48.7390   35.6780   41.7300 C   0  0  0  0  0  0  0  0  0  0  0  0
   49.5890   36.3810   41.8490 H   0  0  0  0  0  0  0  0  0  0  0  0
   47.8100   36.1770   42.0530 H   0  0  0  0  0  0  0  0  0  0  0  0
   48.6030   35.2100   40.3260 C   0  0  0  0  0  3  0  0  0  0  0  0
   48.0720   34.3360   39.4830 C   0  0  0  0  0  3  0  0  0  0  0  0
   48.2190   34.2290   38.0050 C   0  0  0  0  0  2  0  0  0  0  0  0
   47.2370   34.3630   37.5210 H   0  0  0  0  0  0  0  0  0  0  0  0
   46.5060   31.3120   45.3440 O   0  0  0  0  0  0  0  0  0  0  0  0
   45.4250   30.1710   47.2700 C   0  0  0  0  0  0  0  0  0  0  0  0
   46.0660   31.2020   46.6510 C   0  0  0  0  0  0  0  0  0  0  0  0
   46.3350   32.3290   47.4170 C   0  0  0  0  0  0  0  0  0  0  0  0
   45.9810   32.4320   48.7520 C   0  0  0  0  0  0  0  0  0  0  0  0
   45.3280   31.3620   49.3500 C   0  0  0  0  0  0  0  0  0  0  0  0
   45.0550   30.2320   48.5930 C   0  0  0  0  0  0  0  0  0  0  0  0
   46.8340   33.2060   47.0460 H   0  0  0  0  0  0  0  0  0  0  0  0
   46.1870   33.3060   49.3540 H   0  0  0  0  0  0  0  0  0  0  0  0
   45.0180   31.3630   50.3860 H   0  0  0  0  0  0  0  0  0  0  0  0
   44.5570   29.3500   48.9550 H   0  0  0  0  0  0  0  0  0  0  0  0
   45.1210   28.7900   46.2430 S   0  0  0  0  0  0  0  0  0  0  0  0
   44.0190   29.0750   45.2470 O   0  0  0  0  0  0  0  0  0  0  0  0
   44.5820   27.6750   47.1290 O   0  0  0  0  0  0  0  0  0  0  0  0
   46.2490   28.3440   45.6480 H   0  0  0  0  0  0  0  0  0  0  0  0
  1  6  1  0  0  0  0
  2  3  1  0  0  0  0
  2  1  2  0  0  0  0
  3  4  2  0  0  0  0
  4  5  1  0  0  0  0
  5 19  1  0  0  0  0
  6  5  2  0  0  0  0
  7  1  1  0  0  0  0
  8  2  1  0  0  0  0
  9  3  1  0  0  0  0
  9 10  1  0  0  0  0
 11  9  1  0  0  0  0
 12 13  1  0  0  0  0
 12 14  1  0  0  0  0
 12  9  1  0  0  0  0
 15 12  1  0  0  0  0
 16 15  2  0  0  0  0
 17 16  1  0  0  0  0
 18 17  1  0  0  0  0
 19 21  1  0  0  0  0
 20 25  1  0  0  0  0
 21 20  2  0  0  0  0
 21 22  1  0  0  0  0
 22 23  2  0  0  0  0
 23 24  1  0  0  0  0
 23 27  1  0  0  0  0
 24 28  1  0  0  0  0
 25 29  1  0  0  0  0
 25 24  2  0  0  0  0
 26 22  1  0  0  0  0
 30 32  2  0  0  0  0
 30 20  1  0  0  0  0
 31 30  2  0  0  0  0
 33 30  1  0  0  0  0
M  END
>  <minimizedAffinity>
-5.52748823

>  <minimizedRMSD>
1.18722415

$$$$
