
 OpenBabel03242523483D

 14 14  0  0  0  0  0  0  0  0999 V2000
   36.8770   32.0190   39.8620 C   0  0  0  0  0  0  0  0  0  0  0  0
   36.5370   31.0550   40.8250 C   0  0  0  0  0  0  0  0  0  0  0  0
   36.3770   29.7290   40.3890 C   0  0  0  0  0  0  0  0  0  0  0  0
   36.5560   29.4500   39.0800 N   0  0  0  0  0  0  0  0  0  0  0  0
   36.8830   30.4030   38.1780 C   0  0  0  0  0  0  0  0  0  0  0  0
   37.0400   31.6710   38.5700 N   0  0  0  0  0  0  0  0  0  0  0  0
   36.3990   31.3110   41.8750 H   0  0  0  0  0  0  0  0  0  0  0  0
   37.0160   30.1270   37.1340 H   0  0  0  0  0  0  0  0  0  0  0  0
   37.0340   33.3070   40.2740 O   0  0  0  0  0  0  0  0  0  0  0  0
   36.1960   33.8560   40.4580 H   0  0  0  0  0  0  0  0  0  0  0  0
   36.0240   28.6720   41.3340 C   0  0  0  0  0  3  0  0  0  0  0  0
   36.8730   28.3520   42.2870 C   0  0  0  0  0  3  0  0  0  0  0  0
   36.5340   27.2810   43.2600 C   0  0  0  0  0  2  0  0  0  0  0  0
   35.7330   27.6590   43.9260 H   0  0  0  0  0  0  0  0  0  0  0  0
  1  9  1  0  0  0  0
  1  2  1  0  0  0  0
  2  7  1  0  0  0  0
  3  2  2  0  0  0  0
  3 11  1  0  0  0  0
  4  3  1  0  0  0  0
  5  6  1  0  0  0  0
  5  4  2  0  0  0  0
  6  1  2  0  0  0  0
  8  5  1  0  0  0  0
  9 10  1  0  0  0  0
 11 12  2  0  0  0  0
 12 13  1  0  0  0  0
 13 14  1  0  0  0  0
M  END
>  <minimizedAffinity>
-3.90967822

$$$$

 OpenBabel03242523483D

 14 14  0  0  0  0  0  0  0  0999 V2000
   37.6820   28.0630   43.2730 C   0  0  0  0  0  0  0  0  0  0  0  0
   36.9240   27.0160   42.7240 C   0  0  0  0  0  0  0  0  0  0  0  0
   37.5960   25.8200   42.4130 C   0  0  0  0  0  0  0  0  0  0  0  0
   38.9210   25.7390   42.6560 N   0  0  0  0  0  0  0  0  0  0  0  0
   39.6210   26.7670   43.1860 C   0  0  0  0  0  0  0  0  0  0  0  0
   39.0040   27.9130   43.4890 N   0  0  0  0  0  0  0  0  0  0  0  0
   35.8550   27.1110   42.5390 H   0  0  0  0  0  0  0  0  0  0  0  0
   40.6890   26.6510   43.3630 H   0  0  0  0  0  0  0  0  0  0  0  0
   37.0420   29.2240   43.5760 O   0  0  0  0  0  0  0  0  0  0  0  0
   36.8100   29.8570   42.8120 H   0  0  0  0  0  0  0  0  0  0  0  0
   36.8730   24.6880   41.8400 C   0  0  0  0  0  3  0  0  0  0  0  0
   36.6450   24.6600   40.5440 C   0  0  0  0  0  3  0  0  0  0  0  0
   35.9120   23.5180   39.9380 C   0  0  0  0  0  2  0  0  0  0  0  0
   36.5720   22.6280   39.9690 H   0  0  0  0  0  0  0  0  0  0  0  0
  1  6  1  0  0  0  0
  1  9  1  0  0  0  0
  2  1  2  0  0  0  0
  3  4  2  0  0  0  0
  3  2  1  0  0  0  0
  4  5  1  0  0  0  0
  5  8  1  0  0  0  0
  5  6  2  0  0  0  0
  7  2  1  0  0  0  0
 10  9  1  0  0  0  0
 11  3  1  0  0  0  0
 12 11  2  0  0  0  0
 13 14  1  0  0  0  0
 13 12  1  0  0  0  0
M  END
>  <minimizedAffinity>
-3.8154695

$$$$

 OpenBabel03242523483D

 14 14  0  0  0  0  0  0  0  0999 V2000
   36.7290   30.1950   41.4690 C   0  0  0  0  0  0  0  0  0  0  0  0
   36.5360   28.8330   41.7530 C   0  0  0  0  0  0  0  0  0  0  0  0
   37.6800   28.0290   41.8900 C   0  0  0  0  0  0  0  0  0  0  0  0
   38.8960   28.5990   41.7440 N   0  0  0  0  0  0  0  0  0  0  0  0
   39.0460   29.9140   41.4710 C   0  0  0  0  0  0  0  0  0  0  0  0
   37.9730   30.6980   41.3360 N   0  0  0  0  0  0  0  0  0  0  0  0
   35.5420   28.4020   41.8650 H   0  0  0  0  0  0  0  0  0  0  0  0
   40.0480   30.3250   41.3630 H   0  0  0  0  0  0  0  0  0  0  0  0
   35.6280   30.9830   41.3340 O   0  0  0  0  0  0  0  0  0  0  0  0
   35.1020   30.9250   40.4630 H   0  0  0  0  0  0  0  0  0  0  0  0
   37.5570   26.6040   42.1850 C   0  0  0  0  0  3  0  0  0  0  0  0
   37.0370   25.8020   41.2810 C   0  0  0  0  0  3  0  0  0  0  0  0
   36.9030   24.3480   41.5590 C   0  0  0  0  0  2  0  0  0  0  0  0
   37.9170   23.9000   41.5570 H   0  0  0  0  0  0  0  0  0  0  0  0
  1  2  1  0  0  0  0
  2  7  1  0  0  0  0
  2  3  2  0  0  0  0
  3 11  1  0  0  0  0
  4  3  1  0  0  0  0
  5  4  2  0  0  0  0
  6  1  2  0  0  0  0
  6  5  1  0  0  0  0
  8  5  1  0  0  0  0
  9  1  1  0  0  0  0
 10  9  1  0  0  0  0
 12 13  1  0  0  0  0
 12 11  2  0  0  0  0
 14 13  1  0  0  0  0
M  END
>  <minimizedAffinity>
-3.81343055

$$$$

 OpenBabel03242523483D

 14 14  0  0  0  0  0  0  0  0999 V2000
   36.5430   30.8980   40.8990 C   0  0  0  0  0  0  0  0  0  0  0  0
   37.6140   30.3790   41.6450 C   0  0  0  0  0  0  0  0  0  0  0  0
   37.5710   29.0140   41.9800 C   0  0  0  0  0  0  0  0  0  0  0  0
   36.5150   28.2780   41.5720 N   0  0  0  0  0  0  0  0  0  0  0  0
   35.5010   28.8100   40.8550 C   0  0  0  0  0  0  0  0  0  0  0  0
   35.5190   30.1040   40.5250 N   0  0  0  0  0  0  0  0  0  0  0  0
   38.4520   30.9980   41.9600 H   0  0  0  0  0  0  0  0  0  0  0  0
   34.6720   28.1730   40.5500 H   0  0  0  0  0  0  0  0  0  0  0  0
   36.5730   32.2180   40.5700 O   0  0  0  0  0  0  0  0  0  0  0  0
   36.3370   32.8970   41.2920 H   0  0  0  0  0  0  0  0  0  0  0  0
   38.6500   28.4050   42.7540 C   0  0  0  0  0  3  0  0  0  0  0  0
   38.6800   27.0970   42.8960 C   0  0  0  0  0  3  0  0  0  0  0  0
   39.7680   26.4540   43.6780 C   0  0  0  0  0  2  0  0  0  0  0  0
   40.7090   26.5400   43.0980 H   0  0  0  0  0  0  0  0  0  0  0  0
  1  2  1  0  0  0  0
  2  7  1  0  0  0  0
  2  3  2  0  0  0  0
  3 11  1  0  0  0  0
  4  3  1  0  0  0  0
  5  4  2  0  0  0  0
  6  5  1  0  0  0  0
  6  1  2  0  0  0  0
  8  5  1  0  0  0  0
  9  1  1  0  0  0  0
  9 10  1  0  0  0  0
 11 12  2  0  0  0  0
 12 13  1  0  0  0  0
 14 13  1  0  0  0  0
M  END
>  <minimizedAffinity>
-3.77465439

$$$$

 OpenBabel03242523483D

 14 14  0  0  0  0  0  0  0  0999 V2000
   37.5840   33.0140   39.9900 C   0  0  0  0  0  0  0  0  0  0  0  0
   36.9000   31.8260   40.2960 C   0  0  0  0  0  0  0  0  0  0  0  0
   37.5810   30.8620   41.0590 C   0  0  0  0  0  0  0  0  0  0  0  0
   38.8450   31.1230   41.4570 N   0  0  0  0  0  0  0  0  0  0  0  0
   39.4740   32.2780   41.1440 C   0  0  0  0  0  0  0  0  0  0  0  0
   38.8470   33.2090   40.4200 N   0  0  0  0  0  0  0  0  0  0  0  0
   35.8790   31.6440   39.9610 H   0  0  0  0  0  0  0  0  0  0  0  0
   40.4940   32.4400   41.4890 H   0  0  0  0  0  0  0  0  0  0  0  0
   36.9340   33.9540   39.2510 O   0  0  0  0  0  0  0  0  0  0  0  0
   36.8510   33.8000   38.2470 H   0  0  0  0  0  0  0  0  0  0  0  0
   36.9330   29.6030   41.4160 C   0  0  0  0  0  3  0  0  0  0  0  0
   37.3260   28.9600   42.4950 C   0  0  0  0  0  3  0  0  0  0  0  0
   36.6800   27.6780   42.8780 C   0  0  0  0  0  2  0  0  0  0  0  0
   35.6530   27.8990   43.2300 H   0  0  0  0  0  0  0  0  0  0  0  0
  1  2  2  0  0  0  0
  1  6  1  0  0  0  0
  2  3  1  0  0  0  0
  3 11  1  0  0  0  0
  3  4  2  0  0  0  0
  5  4  1  0  0  0  0
  5  8  1  0  0  0  0
  6  5  2  0  0  0  0
  7  2  1  0  0  0  0
  9  1  1  0  0  0  0
 10  9  1  0  0  0  0
 11 12  2  0  0  0  0
 12 13  1  0  0  0  0
 13 14  1  0  0  0  0
M  END
>  <minimizedAffinity>
-3.68716192

$$$$

 OpenBabel03242523483D

 14 14  0  0  0  0  0  0  0  0999 V2000
   35.8100   29.7650   40.6330 C   0  0  0  0  0  0  0  0  0  0  0  0
   36.3350   28.7230   41.4160 C   0  0  0  0  0  0  0  0  0  0  0  0
   36.6200   27.5070   40.7720 C   0  0  0  0  0  0  0  0  0  0  0  0
   36.3790   27.4010   39.4480 N   0  0  0  0  0  0  0  0  0  0  0  0
   35.8720   28.4240   38.7240 C   0  0  0  0  0  0  0  0  0  0  0  0
   35.5930   29.5900   39.3140 N   0  0  0  0  0  0  0  0  0  0  0  0
   36.5180   28.8390   42.4830 H   0  0  0  0  0  0  0  0  0  0  0  0
   35.6960   28.2880   37.6580 H   0  0  0  0  0  0  0  0  0  0  0  0
   35.5290   30.9470   41.2460 O   0  0  0  0  0  0  0  0  0  0  0  0
   34.6810   31.0050   41.8070 H   0  0  0  0  0  0  0  0  0  0  0  0
   37.1680   26.3790   41.5220 C   0  0  0  0  0  3  0  0  0  0  0  0
   37.0950   25.1690   41.0090 C   0  0  0  0  0  3  0  0  0  0  0  0
   37.6470   24.0070   41.7530 C   0  0  0  0  0  2  0  0  0  0  0  0
   38.7530   24.0830   41.7430 H   0  0  0  0  0  0  0  0  0  0  0  0
  1  9  1  0  0  0  0
  1  2  1  0  0  0  0
  2  7  1  0  0  0  0
  3  2  2  0  0  0  0
  3 11  1  0  0  0  0
  4  3  1  0  0  0  0
  5  6  1  0  0  0  0
  5  4  2  0  0  0  0
  6  1  2  0  0  0  0
  8  5  1  0  0  0  0
  9 10  1  0  0  0  0
 12 11  2  0  0  0  0
 12 13  1  0  0  0  0
 14 13  1  0  0  0  0
M  END
>  <minimizedAffinity>
-3.64385533

$$$$

 OpenBabel03242523483D

 14 14  0  0  0  0  0  0  0  0999 V2000
   38.6510   24.7310   42.5200 C   0  0  0  0  0  0  0  0  0  0  0  0
   37.5860   25.5610   42.1340 C   0  0  0  0  0  0  0  0  0  0  0  0
   37.6130   26.8980   42.5680 C   0  0  0  0  0  0  0  0  0  0  0  0
   38.6510   27.3140   43.3250 N   0  0  0  0  0  0  0  0  0  0  0  0
   39.6600   26.4880   43.6790 C   0  0  0  0  0  0  0  0  0  0  0  0
   39.6560   25.2130   43.2790 N   0  0  0  0  0  0  0  0  0  0  0  0
   36.7620   25.1960   41.5220 H   0  0  0  0  0  0  0  0  0  0  0  0
   40.4740   26.8720   44.2910 H   0  0  0  0  0  0  0  0  0  0  0  0
   38.6350   23.4350   42.1070 O   0  0  0  0  0  0  0  0  0  0  0  0
   38.0160   22.7860   42.5910 H   0  0  0  0  0  0  0  0  0  0  0  0
   36.5390   27.8190   42.2050 C   0  0  0  0  0  3  0  0  0  0  0  0
   36.4600   28.2590   40.9670 C   0  0  0  0  0  3  0  0  0  0  0  0
   35.3750   29.1960   40.5750 C   0  0  0  0  0  2  0  0  0  0  0  0
   34.4180   28.6370   40.5720 H   0  0  0  0  0  0  0  0  0  0  0  0
  1  6  1  0  0  0  0
  2  1  2  0  0  0  0
  2  3  1  0  0  0  0
  3  4  2  0  0  0  0
  4  5  1  0  0  0  0
  5  8  1  0  0  0  0
  6  5  2  0  0  0  0
  7  2  1  0  0  0  0
  9  1  1  0  0  0  0
  9 10  1  0  0  0  0
 11  3  1  0  0  0  0
 12 11  2  0  0  0  0
 13 12  1  0  0  0  0
 14 13  1  0  0  0  0
M  END
>  <minimizedAffinity>
-3.64188337

$$$$

 OpenBabel03242523483D

 14 14  0  0  0  0  0  0  0  0999 V2000
   39.2760   32.2340   38.0790 C   0  0  0  0  0  0  0  0  0  0  0  0
   38.0690   31.6000   38.4170 C   0  0  0  0  0  0  0  0  0  0  0  0
   37.7000   31.5850   39.7730 C   0  0  0  0  0  0  0  0  0  0  0  0
   38.5150   32.1740   40.6740 N   0  0  0  0  0  0  0  0  0  0  0  0
   39.6710   32.7760   40.3150 C   0  0  0  0  0  0  0  0  0  0  0  0
   40.0430   32.8030   39.0320 N   0  0  0  0  0  0  0  0  0  0  0  0
   37.4320   31.1330   37.6660 H   0  0  0  0  0  0  0  0  0  0  0  0
   40.2930   33.2370   41.0800 H   0  0  0  0  0  0  0  0  0  0  0  0
   39.6430   32.2550   36.7690 O   0  0  0  0  0  0  0  0  0  0  0  0
   40.0340   31.4030   36.3680 H   0  0  0  0  0  0  0  0  0  0  0  0
   36.4580   30.9440   40.1980 C   0  0  0  0  0  3  0  0  0  0  0  0
   36.0350   29.8740   39.5600 C   0  0  0  0  0  3  0  0  0  0  0  0
   34.7750   29.2050   39.9770 C   0  0  0  0  0  2  0  0  0  0  0  0
   34.9520   28.7090   40.9520 H   0  0  0  0  0  0  0  0  0  0  0  0
  1  2  2  0  0  0  0
  1  6  1  0  0  0  0
  2  3  1  0  0  0  0
  3 11  1  0  0  0  0
  3  4  2  0  0  0  0
  5  4  1  0  0  0  0
  5  8  1  0  0  0  0
  6  5  2  0  0  0  0
  7  2  1  0  0  0  0
  9  1  1  0  0  0  0
 10  9  1  0  0  0  0
 12 13  1  0  0  0  0
 12 11  2  0  0  0  0
 13 14  1  0  0  0  0
M  END
>  <minimizedAffinity>
-3.43362093

$$$$

 OpenBabel03242523483D

 14 14  0  0  0  0  0  0  0  0999 V2000
   37.3100   28.8190   42.5460 C   0  0  0  0  0  0  0  0  0  0  0  0
   38.6470   28.7570   42.9710 C   0  0  0  0  0  0  0  0  0  0  0  0
   39.2210   27.4830   43.1260 C   0  0  0  0  0  0  0  0  0  0  0  0
   38.4670   26.3950   42.8610 N   0  0  0  0  0  0  0  0  0  0  0  0
   37.1820   26.4910   42.4540 C   0  0  0  0  0  0  0  0  0  0  0  0
   36.6150   27.6900   42.3000 N   0  0  0  0  0  0  0  0  0  0  0  0
   39.2300   29.6530   43.1770 H   0  0  0  0  0  0  0  0  0  0  0  0
   36.6160   25.5820   42.2530 H   0  0  0  0  0  0  0  0  0  0  0  0
   36.7440   30.0470   42.3930 O   0  0  0  0  0  0  0  0  0  0  0  0
   36.4510   30.5470   43.2320 H   0  0  0  0  0  0  0  0  0  0  0  0
   40.6070   27.3400   43.5640 C   0  0  0  0  0  3  0  0  0  0  0  0
   41.4820   28.2690   43.2430 C   0  0  0  0  0  3  0  0  0  0  0  0
   42.8980   28.1460   43.6790 C   0  0  0  0  0  2  0  0  0  0  0  0
   42.9380   28.3070   44.7750 H   0  0  0  0  0  0  0  0  0  0  0  0
  1  2  1  0  0  0  0
  2  3  2  0  0  0  0
  2  7  1  0  0  0  0
  3 11  1  0  0  0  0
  4  3  1  0  0  0  0
  5  4  2  0  0  0  0
  6  5  1  0  0  0  0
  6  1  2  0  0  0  0
  8  5  1  0  0  0  0
  9  1  1  0  0  0  0
  9 10  1  0  0  0  0
 12 11  2  0  0  0  0
 12 13  1  0  0  0  0
 13 14  1  0  0  0  0
M  END
>  <minimizedAffinity>
-3.42320967

$$$$
