
 OpenBabel03252501543D

 16 16  0  0  0  0  0  0  0  0999 V2000
   44.5060   35.5940   45.0810 C   0  0  0  0  0  0  0  0  0  0  0  0
   45.2680   35.4490   43.9280 C   0  0  0  0  0  0  0  0  0  0  0  0
   46.1870   34.4130   43.8700 C   0  0  0  0  0  0  0  0  0  0  0  0
   46.3160   33.5760   44.9330 N   0  0  0  0  0  0  0  0  0  0  0  0
   45.5500   33.7490   46.0450 C   0  0  0  0  0  0  0  0  0  0  0  0
   44.6530   34.7510   46.1160 N   0  0  0  0  0  0  0  0  0  0  0  0
   43.7620   36.3480   45.2570 H   0  0  0  0  0  0  0  0  0  0  0  0
   45.7860   32.9990   46.7790 H   0  0  0  0  0  0  0  0  0  0  0  0
   45.0520   36.4120   42.8320 C   0  0  0  0  0  0  0  0  0  0  0  0
   44.5050   35.9540   41.9840 H   0  0  0  0  0  0  0  0  0  0  0  0
   46.0660   36.6890   42.4220 H   0  0  0  0  0  0  0  0  0  0  0  0
   44.6160   37.3350   43.2230 H   0  0  0  0  0  0  0  0  0  0  0  0
   47.0000   34.2390   42.6740 C   0  0  0  0  0  3  0  0  0  0  0  0
   48.3060   34.4370   42.7310 C   0  0  0  0  0  3  0  0  0  0  0  0
   49.1360   34.2570   41.5010 C   0  0  0  0  0  2  0  0  0  0  0  0
   50.1130   34.7860   41.6030 H   0  0  0  0  0  0  0  0  0  0  0  0
  1  7  1  0  0  0  0
  1  6  1  0  0  0  0
  2  1  2  0  0  0  0
  3  2  1  0  0  0  0
  3  4  2  0  0  0  0
  4  5  1  0  0  0  0
  5  6  2  0  0  0  0
  5  8  1  0  0  0  0
  9 12  1  0  0  0  0
  9  2  1  0  0  0  0
 10  9  1  0  0  0  0
 11  9  1  0  0  0  0
 13 14  2  0  0  0  0
 13  3  1  0  0  0  0
 15 16  1  0  0  0  0
 15 14  1  0  0  0  0
M  END
>  <minimizedAffinity>
-3.55582261

>  <minimizedRMSD>
1.9040283

$$$$
