
 OpenBabel03252506253D

 40 43  0  0  0  0  0  0  0  0999 V2000
   46.0040   29.9380   48.2490 C   0  0  0  0  0  0  0  0  0  0  0  0
   45.4600   30.8990   48.3450 H   0  0  0  0  0  0  0  0  0  0  0  0
   46.1940   29.6310   49.3110 H   0  0  0  0  0  0  0  0  0  0  0  0
   45.0210   27.5800   47.9670 C   0  0  0  0  0  0  0  0  0  0  0  0
   45.1600   28.9040   47.6530 C   0  0  0  0  0  0  0  0  0  0  0  0
   44.3760   29.3640   46.5910 C   0  0  0  0  0  0  0  0  0  0  0  0
   43.5220   28.5310   45.9130 C   0  0  0  0  0  0  0  0  0  0  0  0
   42.6650   28.6900   44.8760 N   0  0  0  0  0  0  0  0  0  0  0  0
   42.0460   27.5420   44.5790 C   0  0  0  0  0  0  0  0  0  0  0  0
   42.4900   26.5690   45.4360 C   0  0  0  0  0  0  0  0  0  0  0  0
   43.4040   27.2170   46.2480 C   0  0  0  0  0  0  0  0  0  0  0  0
   44.1720   26.7410   47.2960 C   0  0  0  0  0  0  0  0  0  0  0  0
   45.6640   27.3220   48.7940 H   0  0  0  0  0  0  0  0  0  0  0  0
   44.3800   30.3790   46.2320 H   0  0  0  0  0  0  0  0  0  0  0  0
   42.5180   29.5980   44.3810 H   0  0  0  0  0  0  0  0  0  0  0  0
   41.3110   27.3720   43.7990 H   0  0  0  0  0  0  0  0  0  0  0  0
   42.2250   25.5260   45.5060 H   0  0  0  0  0  0  0  0  0  0  0  0
   44.0790   25.3430   47.6910 C   0  0  0  0  0  3  0  0  0  0  0  0
   44.8780   24.3350   47.4740 C   0  0  0  0  0  3  0  0  0  0  0  0
   46.1530   24.1120   46.7900 C   0  0  0  0  0  2  0  0  0  0  0  0
   46.0390   24.2830   45.7030 H   0  0  0  0  0  0  0  0  0  0  0  0
   47.3140   30.1850   47.6240 C   0  0  0  0  0  0  0  0  0  0  0  0
   47.9070   30.8130   48.3280 H   0  0  0  0  0  0  0  0  0  0  0  0
   47.9130   29.2940   47.4180 H   0  0  0  0  0  0  0  0  0  0  0  0
   46.5590   32.6480   45.1540 C   0  0  0  0  0  0  0  0  0  0  0  0
   47.2890   31.7160   44.4080 C   0  0  0  0  0  0  0  0  0  0  0  0
   47.6610   30.6870   45.2250 C   0  0  0  0  0  0  0  0  0  0  0  0
   47.1700   30.9900   46.4240 N   0  0  0  0  0  0  0  0  0  0  0  0
   46.5100   32.1560   46.3930 N   0  0  0  0  0  0  0  0  0  0  0  0
   47.5090   31.8280   43.3410 H   0  0  0  0  0  0  0  0  0  0  0  0
   48.2350   29.8350   44.8970 H   0  0  0  0  0  0  0  0  0  0  0  0
   44.5700   35.6920   44.8470 C   0  0  0  0  0  0  0  0  0  0  0  0
   44.9350   36.1960   43.6080 C   0  0  0  0  0  0  0  0  0  0  0  0
   45.8810   35.4750   42.8650 C   0  0  0  0  0  0  0  0  0  0  0  0
   46.3670   34.3350   43.4210 N   0  0  0  0  0  0  0  0  0  0  0  0
   45.9990   33.8790   44.6110 C   0  0  0  0  0  0  0  0  0  0  0  0
   45.0970   34.5620   45.3220 N   0  0  0  0  0  0  0  0  0  0  0  0
   43.8470   36.1700   45.5030 H   0  0  0  0  0  0  0  0  0  0  0  0
   44.5000   37.0990   43.2530 H   0  0  0  0  0  0  0  0  0  0  0  0
   46.1970   35.8310   41.8900 H   0  0  0  0  0  0  0  0  0  0  0  0
  1  2  1  0  0  0  0
  1  3  1  0  0  0  0
  4 13  1  0  0  0  0
  5  4  1  0  0  0  0
  5  1  1  0  0  0  0
  6  5  2  0  0  0  0
  7 11  2  0  0  0  0
  7  6  1  0  0  0  0
  8  7  1  0  0  0  0
  9  8  1  0  0  0  0
  9 10  2  0  0  0  0
 10 17  1  0  0  0  0
 10 11  1  0  0  0  0
 11 12  1  0  0  0  0
 12 18  1  0  0  0  0
 12  4  2  0  0  0  0
 14  6  1  0  0  0  0
 15  8  1  0  0  0  0
 16  9  1  0  0  0  0
 19 18  2  0  0  0  0
 20 19  1  0  0  0  0
 21 20  1  0  0  0  0
 22  1  1  0  0  0  0
 22 23  1  0  0  0  0
 24 22  1  0  0  0  0
 25 29  2  0  0  0  0
 26 25  1  0  0  0  0
 26 27  2  0  0  0  0
 27 28  1  0  0  0  0
 28 22  1  0  0  0  0
 29 28  1  0  0  0  0
 30 26  1  0  0  0  0
 31 27  1  0  0  0  0
 32 37  1  0  0  0  0
 32 38  1  0  0  0  0
 33 32  2  0  0  0  0
 34 35  2  0  0  0  0
 34 33  1  0  0  0  0
 35 36  1  0  0  0  0
 36 25  1  0  0  0  0
 36 37  2  0  0  0  0
 39 33  1  0  0  0  0
 40 34  1  0  0  0  0
M  END
>  <minimizedAffinity>
-5.35754728

>  <minimizedRMSD>
0.711791277

$$$$
