
 OpenBabel03242516513D

 38 40  0  0  1  0  0  0  0  0999 V2000
   36.5970   30.5760   39.2000 C   0  0  1  0  0  0  0  0  0  0  0  0
   36.7780   29.6880   38.0340 C   0  0  0  0  0  0  0  0  0  0  0  0
   35.3710   29.4460   37.4810 C   0  0  0  0  0  0  0  0  0  0  0  0
   34.6530   28.5790   38.4950 C   0  0  0  0  0  0  0  0  0  0  0  0
   34.6410   29.1430   39.8800 C   0  0  0  0  0  0  0  0  0  0  0  0
   35.8140   29.9130   40.3140 C   0  0  1  0  0  0  0  0  0  0  0  0
   35.9350   31.4400   38.8920 H   0  0  0  0  0  0  0  0  0  0  0  0
   37.3800   30.2450   37.2740 H   0  0  0  0  0  0  0  0  0  0  0  0
   37.2760   28.7410   38.2790 H   0  0  0  0  0  0  0  0  0  0  0  0
   35.5240   28.8360   36.5710 H   0  0  0  0  0  0  0  0  0  0  0  0
   34.8930   30.4210   37.3100 H   0  0  0  0  0  0  0  0  0  0  0  0
   35.1440   27.5720   38.4360 H   0  0  0  0  0  0  0  0  0  0  0  0
   33.6200   28.4450   38.1290 H   0  0  0  0  0  0  0  0  0  0  0  0
   33.6740   29.6830   40.0150 H   0  0  0  0  0  0  0  0  0  0  0  0
   34.5500   28.2570   40.5640 H   0  0  0  0  0  0  0  0  0  0  0  0
   35.4520   30.7720   40.9570 H   0  0  0  0  0  0  0  0  0  0  0  0
   38.9230   33.0150   40.9090 C   0  0  0  0  0  0  0  0  0  0  0  0
   37.7880   32.3910   40.3920 C   0  0  0  0  0  0  0  0  0  0  0  0
   37.8150   31.1790   39.7260 C   0  0  0  0  0  0  0  0  0  0  0  0
   39.0290   30.6190   39.6000 N   0  0  0  0  0  0  0  0  0  0  0  0
   40.1430   31.2080   40.0950 C   0  0  0  0  0  0  0  0  0  0  0  0
   40.1090   32.3690   40.7310 N   0  0  0  0  0  0  0  0  0  0  0  0
   38.8020   33.9540   41.4100 H   0  0  0  0  0  0  0  0  0  0  0  0
   36.8330   32.8810   40.5190 H   0  0  0  0  0  0  0  0  0  0  0  0
   41.0660   30.6650   39.9330 H   0  0  0  0  0  0  0  0  0  0  0  0
   36.7020   29.1480   41.2090 C   0  0  0  0  0  0  0  0  0  0  0  0
   37.2390   29.5890   42.4290 C   0  0  0  0  0  0  0  0  0  0  0  0
   38.0390   28.6500   43.1040 C   0  0  0  0  0  0  0  0  0  0  0  0
   38.2270   27.4070   42.5290 C   0  0  0  0  0  0  0  0  0  0  0  0
   37.6920   27.0160   41.3490 C   0  0  0  0  0  0  0  0  0  0  0  0
   36.9190   27.9030   40.6820 N   0  0  0  0  0  0  0  0  0  0  0  0
   36.9850   30.5750   42.7080 H   0  0  0  0  0  0  0  0  0  0  0  0
   38.4400   28.9900   44.0230 H   0  0  0  0  0  0  0  0  0  0  0  0
   38.8600   26.7920   43.1540 H   0  0  0  0  0  0  0  0  0  0  0  0
   37.9530   25.6750   40.8260 C   0  0  0  0  0  3  0  0  0  0  0  0
   37.3540   24.6270   41.3580 C   0  0  0  0  0  3  0  0  0  0  0  0
   37.5540   23.2300   40.8950 C   0  0  0  0  0  2  0  0  0  0  0  0
   36.5860   22.8050   40.5040 H   0  0  0  0  0  0  0  0  0  0  0  0
  1  7  1  6  0  0  0
  1 19  1  0  0  0  0
  1  6  1  0  0  0  0
  2  9  1  0  0  0  0
  2  1  1  0  0  0  0
  3  2  1  0  0  0  0
  3  4  1  0  0  0  0
  4  5  1  0  0  0  0
  5 14  1  0  0  0  0
  5  6  1  0  0  0  0
  5 15  1  0  0  0  0
  6 16  1  1  0  0  0
  6 26  1  0  0  0  0
  8  2  1  0  0  0  0
 10  3  1  0  0  0  0
 11  3  1  0  0  0  0
 12  4  1  0  0  0  0
 13  4  1  0  0  0  0
 17 23  1  0  0  0  0
 18 24  1  0  0  0  0
 18 17  2  0  0  0  0
 19 18  1  0  0  0  0
 20 19  2  0  0  0  0
 20 21  1  0  0  0  0
 21 22  2  0  0  0  0
 22 17  1  0  0  0  0
 25 21  1  0  0  0  0
 26 27  1  0  0  0  0
 27 32  1  0  0  0  0
 27 28  2  0  0  0  0
 28 33  1  0  0  0  0
 29 28  1  0  0  0  0
 29 34  1  0  0  0  0
 30 29  2  0  0  0  0
 31 26  2  0  0  0  0
 31 30  1  0  0  0  0
 35 30  1  0  0  0  0
 35 36  2  0  0  0  0
 37 36  1  0  0  0  0
 38 37  1  0  0  0  0
M  END
>  <minimizedAffinity>
-5.65982056

$$$$

 OpenBabel03242516513D

 38 40  0  0  1  0  0  0  0  0999 V2000
   38.9260   24.8660   40.8350 C   0  0  1  0  0  0  0  0  0  0  0  0
   38.3460   23.7240   41.5700 C   0  0  0  0  0  0  0  0  0  0  0  0
   37.4530   22.9970   40.5600 C   0  0  0  0  0  0  0  0  0  0  0  0
   36.2700   23.9060   40.3000 C   0  0  0  0  0  0  0  0  0  0  0  0
   36.6440   25.2840   39.8540 C   0  0  0  0  0  0  0  0  0  0  0  0
   37.8760   25.8670   40.4030 C   0  0  1  0  0  0  0  0  0  0  0  0
   39.3440   24.4850   39.8560 H   0  0  0  0  0  0  0  0  0  0  0  0
   39.1860   23.0510   41.8680 H   0  0  0  0  0  0  0  0  0  0  0  0
   37.7770   24.0220   42.4600 H   0  0  0  0  0  0  0  0  0  0  0  0
   37.0780   22.1090   41.1000 H   0  0  0  0  0  0  0  0  0  0  0  0
   38.0520   22.7770   39.6650 H   0  0  0  0  0  0  0  0  0  0  0  0
   35.6670   23.9010   41.2460 H   0  0  0  0  0  0  0  0  0  0  0  0
   35.6490   23.4130   39.5320 H   0  0  0  0  0  0  0  0  0  0  0  0
   36.5970   25.3010   38.7390 H   0  0  0  0  0  0  0  0  0  0  0  0
   35.7920   25.9430   40.1680 H   0  0  0  0  0  0  0  0  0  0  0  0
   38.3750   26.4680   39.5830 H   0  0  0  0  0  0  0  0  0  0  0  0
   41.3980   25.9010   43.4990 C   0  0  0  0  0  0  0  0  0  0  0  0
   40.3560   25.2750   42.8150 C   0  0  0  0  0  0  0  0  0  0  0  0
   40.0310   25.5460   41.4990 C   0  0  0  0  0  0  0  0  0  0  0  0
   40.7940   26.4730   40.8960 N   0  0  0  0  0  0  0  0  0  0  0  0
   41.8100   27.0920   41.5420 C   0  0  0  0  0  0  0  0  0  0  0  0
   42.1160   26.8270   42.8030 N   0  0  0  0  0  0  0  0  0  0  0  0
   41.5750   25.6250   44.5180 H   0  0  0  0  0  0  0  0  0  0  0  0
   39.7700   24.5360   43.3430 H   0  0  0  0  0  0  0  0  0  0  0  0
   42.3560   27.8210   40.9560 H   0  0  0  0  0  0  0  0  0  0  0  0
   37.6160   26.8600   41.4620 C   0  0  0  0  0  0  0  0  0  0  0  0
   37.1400   26.5960   42.7560 C   0  0  0  0  0  0  0  0  0  0  0  0
   37.0020   27.7240   43.5840 C   0  0  0  0  0  0  0  0  0  0  0  0
   37.3380   28.9640   43.0740 C   0  0  0  0  0  0  0  0  0  0  0  0
   37.7940   29.1810   41.8180 C   0  0  0  0  0  0  0  0  0  0  0  0
   37.9340   28.1100   41.0030 N   0  0  0  0  0  0  0  0  0  0  0  0
   36.9360   25.5820   42.9680 H   0  0  0  0  0  0  0  0  0  0  0  0
   36.6430   27.5160   44.5580 H   0  0  0  0  0  0  0  0  0  0  0  0
   37.1830   29.7350   43.8160 H   0  0  0  0  0  0  0  0  0  0  0  0
   38.1200   30.5360   41.3730 C   0  0  0  0  0  3  0  0  0  0  0  0
   37.2460   31.2350   40.6760 C   0  0  0  0  0  3  0  0  0  0  0  0
   37.4870   32.6150   40.1820 C   0  0  0  0  0  2  0  0  0  0  0  0
   36.7520   33.3310   40.6500 H   0  0  0  0  0  0  0  0  0  0  0  0
  1  7  1  6  0  0  0
  1 19  1  0  0  0  0
  1  2  1  0  0  0  0
  2  8  1  0  0  0  0
  2  9  1  0  0  0  0
  3 10  1  0  0  0  0
  3  2  1  0  0  0  0
  4  3  1  0  0  0  0
  4 12  1  0  0  0  0
  5 15  1  0  0  0  0
  5  4  1  0  0  0  0
  5  6  1  0  0  0  0
  6 16  1  6  0  0  0
  6  1  1  0  0  0  0
  6 26  1  0  0  0  0
 11  3  1  0  0  0  0
 13  4  1  0  0  0  0
 14  5  1  0  0  0  0
 17 23  1  0  0  0  0
 18 24  1  0  0  0  0
 18 17  1  0  0  0  0
 19 18  2  0  0  0  0
 20 19  1  0  0  0  0
 20 21  2  0  0  0  0
 21 22  1  0  0  0  0
 22 17  2  0  0  0  0
 25 21  1  0  0  0  0
 26 27  1  0  0  0  0
 27 32  1  0  0  0  0
 27 28  2  0  0  0  0
 28 33  1  0  0  0  0
 29 28  1  0  0  0  0
 29 34  1  0  0  0  0
 30 29  2  0  0  0  0
 31 26  2  0  0  0  0
 31 30  1  0  0  0  0
 35 30  1  0  0  0  0
 36 35  2  0  0  0  0
 37 38  1  0  0  0  0
 37 36  1  0  0  0  0
M  END
>  <minimizedAffinity>
-5.31548262

$$$$

 OpenBabel03242516513D

 38 40  0  0  1  0  0  0  0  0999 V2000
   37.0910   27.7400   40.9390 C   0  0  1  0  0  0  0  0  0  0  0  0
   38.4190   27.1180   41.1130 C   0  0  0  0  0  0  0  0  0  0  0  0
   38.3820   26.4510   42.4910 C   0  0  0  0  0  0  0  0  0  0  0  0
   38.3650   27.5720   43.5100 C   0  0  0  0  0  0  0  0  0  0  0  0
   37.2570   28.5580   43.3160 C   0  0  0  0  0  0  0  0  0  0  0  0
   36.8380   28.8500   41.9380 C   0  0  1  0  0  0  0  0  0  0  0  0
   36.3000   26.9720   41.1950 H   0  0  0  0  0  0  0  0  0  0  0  0
   38.5290   26.3300   40.3280 H   0  0  0  0  0  0  0  0  0  0  0  0
   39.2480   27.8320   41.0400 H   0  0  0  0  0  0  0  0  0  0  0  0
   39.3540   25.9330   42.5820 H   0  0  0  0  0  0  0  0  0  0  0  0
   37.5010   25.7950   42.5350 H   0  0  0  0  0  0  0  0  0  0  0  0
   39.3830   28.0410   43.4640 H   0  0  0  0  0  0  0  0  0  0  0  0
   38.2840   27.1000   44.5050 H   0  0  0  0  0  0  0  0  0  0  0  0
   36.4180   28.2580   43.9860 H   0  0  0  0  0  0  0  0  0  0  0  0
   37.6280   29.5180   43.7640 H   0  0  0  0  0  0  0  0  0  0  0  0
   35.7140   28.9860   41.9350 H   0  0  0  0  0  0  0  0  0  0  0  0
   35.1190   28.7410   37.8750 C   0  0  0  0  0  0  0  0  0  0  0  0
   35.4720   28.3180   39.1560 C   0  0  0  0  0  0  0  0  0  0  0  0
   36.7790   28.1930   39.5900 C   0  0  0  0  0  0  0  0  0  0  0  0
   37.7190   28.5090   38.6840 N   0  0  0  0  0  0  0  0  0  0  0  0
   37.3980   28.9210   37.4340 C   0  0  0  0  0  0  0  0  0  0  0  0
   36.1440   29.0380   37.0270 N   0  0  0  0  0  0  0  0  0  0  0  0
   34.0790   28.8070   37.6300 H   0  0  0  0  0  0  0  0  0  0  0  0
   34.6800   28.0760   39.8500 H   0  0  0  0  0  0  0  0  0  0  0  0
   38.2390   29.1470   36.7900 H   0  0  0  0  0  0  0  0  0  0  0  0
   37.3540   30.1400   41.4440 C   0  0  0  0  0  0  0  0  0  0  0  0
   36.6190   31.1320   40.7750 C   0  0  0  0  0  0  0  0  0  0  0  0
   37.3470   32.2850   40.4320 C   0  0  0  0  0  0  0  0  0  0  0  0
   38.6860   32.3490   40.7730 C   0  0  0  0  0  0  0  0  0  0  0  0
   39.3620   31.3700   41.4190 C   0  0  0  0  0  0  0  0  0  0  0  0
   38.6820   30.2510   41.7590 N   0  0  0  0  0  0  0  0  0  0  0  0
   35.6030   30.9060   40.6010 H   0  0  0  0  0  0  0  0  0  0  0  0
   36.7870   33.0280   39.9280 H   0  0  0  0  0  0  0  0  0  0  0  0
   39.1150   33.2870   40.4490 H   0  0  0  0  0  0  0  0  0  0  0  0
   40.7810   31.5350   41.7330 C   0  0  0  0  0  3  0  0  0  0  0  0
   41.2750   31.0420   42.8530 C   0  0  0  0  0  3  0  0  0  0  0  0
   42.7000   31.1580   43.2560 C   0  0  0  0  0  2  0  0  0  0  0  0
   43.1700   30.1370   43.3290 H   0  0  0  0  0  0  0  0  0  0  0  0
  1  2  1  0  0  0  0
  1  7  1  1  0  0  0
  1  6  1  0  0  0  0
  2  3  1  0  0  0  0
  3 11  1  0  0  0  0
  3 10  1  0  0  0  0
  3  4  1  0  0  0  0
  4 13  1  0  0  0  0
  5  4  1  0  0  0  0
  5 15  1  0  0  0  0
  5 14  1  0  0  0  0
  6 16  1  1  0  0  0
  6  5  1  0  0  0  0
  8  2  1  0  0  0  0
  9  2  1  0  0  0  0
 12  4  1  0  0  0  0
 17 18  1  0  0  0  0
 18 19  2  0  0  0  0
 18 24  1  0  0  0  0
 19  1  1  0  0  0  0
 20 19  1  0  0  0  0
 21 20  2  0  0  0  0
 22 21  1  0  0  0  0
 22 17  2  0  0  0  0
 23 17  1  0  0  0  0
 25 21  1  0  0  0  0
 26 31  1  0  0  0  0
 26  6  1  0  0  0  0
 27 26  2  0  0  0  0
 28 29  2  0  0  0  0
 28 27  1  0  0  0  0
 29 30  1  0  0  0  0
 30 35  1  0  0  0  0
 30 31  2  0  0  0  0
 32 27  1  0  0  0  0
 33 28  1  0  0  0  0
 34 29  1  0  0  0  0
 35 36  2  0  0  0  0
 36 37  1  0  0  0  0
 37 38  1  0  0  0  0
M  END
>  <minimizedAffinity>
-5.31397629

$$$$

 OpenBabel03242516513D

 38 40  0  0  1  0  0  0  0  0999 V2000
   38.2630   30.2890   40.0970 C   0  0  1  0  0  0  0  0  0  0  0  0
   38.0340   31.5620   40.8090 C   0  0  0  0  0  0  0  0  0  0  0  0
   39.4150   32.2080   40.9500 C   0  0  0  0  0  0  0  0  0  0  0  0
   40.1850   31.3640   41.9440 C   0  0  0  0  0  0  0  0  0  0  0  0
   40.2590   29.9140   41.5880 C   0  0  0  0  0  0  0  0  0  0  0  0
   39.1020   29.3200   40.9040 C   0  0  1  0  0  0  0  0  0  0  0  0
   38.9050   30.4970   39.1890 H   0  0  0  0  0  0  0  0  0  0  0  0
   37.3940   32.2040   40.1560 H   0  0  0  0  0  0  0  0  0  0  0  0
   37.5540   31.4340   41.7880 H   0  0  0  0  0  0  0  0  0  0  0  0
   39.2240   33.1890   41.4230 H   0  0  0  0  0  0  0  0  0  0  0  0
   39.8780   32.2560   39.9540 H   0  0  0  0  0  0  0  0  0  0  0  0
   39.6990   31.5460   42.9390 H   0  0  0  0  0  0  0  0  0  0  0  0
   41.2010   31.7920   42.0100 H   0  0  0  0  0  0  0  0  0  0  0  0
   41.2280   29.7460   41.0600 H   0  0  0  0  0  0  0  0  0  0  0  0
   40.3880   29.3710   42.5620 H   0  0  0  0  0  0  0  0  0  0  0  0
   39.4880   28.5750   40.1430 H   0  0  0  0  0  0  0  0  0  0  0  0
   34.6540   29.2350   39.7220 C   0  0  0  0  0  0  0  0  0  0  0  0
   35.8270   29.8480   40.1610 C   0  0  0  0  0  0  0  0  0  0  0  0
   37.0680   29.6250   39.5930 C   0  0  0  0  0  0  0  0  0  0  0  0
   37.0840   28.7600   38.5660 N   0  0  0  0  0  0  0  0  0  0  0  0
   35.9570   28.1530   38.1250 C   0  0  0  0  0  0  0  0  0  0  0  0
   34.7710   28.3730   38.6740 N   0  0  0  0  0  0  0  0  0  0  0  0
   33.7390   29.4710   40.2250 H   0  0  0  0  0  0  0  0  0  0  0  0
   35.7630   30.5380   40.9910 H   0  0  0  0  0  0  0  0  0  0  0  0
   36.0910   27.4750   37.2910 H   0  0  0  0  0  0  0  0  0  0  0  0
   38.2630   28.5060   41.8030 C   0  0  0  0  0  0  0  0  0  0  0  0
   37.7090   28.9150   43.0270 C   0  0  0  0  0  0  0  0  0  0  0  0
   36.9220   27.9490   43.6780 C   0  0  0  0  0  0  0  0  0  0  0  0
   36.7600   26.7130   43.0800 C   0  0  0  0  0  0  0  0  0  0  0  0
   37.3110   26.3540   41.8960 C   0  0  0  0  0  0  0  0  0  0  0  0
   38.0720   27.2670   41.2510 N   0  0  0  0  0  0  0  0  0  0  0  0
   37.9430   29.8990   43.3260 H   0  0  0  0  0  0  0  0  0  0  0  0
   36.5080   28.2640   44.6000 H   0  0  0  0  0  0  0  0  0  0  0  0
   36.1350   26.0750   43.6890 H   0  0  0  0  0  0  0  0  0  0  0  0
   37.0790   25.0180   41.3480 C   0  0  0  0  0  3  0  0  0  0  0  0
   38.0890   24.1890   41.1680 C   0  0  0  0  0  3  0  0  0  0  0  0
   37.9520   22.8160   40.6190 C   0  0  0  0  0  2  0  0  0  0  0  0
   38.2730   22.0550   41.3850 H   0  0  0  0  0  0  0  0  0  0  0  0
  1  7  1  6  0  0  0
  1  2  1  0  0  0  0
  1  6  1  0  0  0  0
  2  3  1  0  0  0  0
  2  9  1  0  0  0  0
  3 10  1  0  0  0  0
  3  4  1  0  0  0  0
  4 13  1  0  0  0  0
  4 12  1  0  0  0  0
  5  4  1  0  0  0  0
  5 15  1  0  0  0  0
  6 16  1  6  0  0  0
  6  5  1  0  0  0  0
  6 26  1  0  0  0  0
  8  2  1  0  0  0  0
 11  3  1  0  0  0  0
 14  5  1  0  0  0  0
 17 18  1  0  0  0  0
 17 23  1  0  0  0  0
 18 24  1  0  0  0  0
 19  1  1  0  0  0  0
 19 18  2  0  0  0  0
 20 19  1  0  0  0  0
 21 20  2  0  0  0  0
 21 22  1  0  0  0  0
 22 17  2  0  0  0  0
 25 21  1  0  0  0  0
 26 27  1  0  0  0  0
 27 32  1  0  0  0  0
 27 28  2  0  0  0  0
 28 33  1  0  0  0  0
 29 28  1  0  0  0  0
 29 34  1  0  0  0  0
 30 29  2  0  0  0  0
 31 26  2  0  0  0  0
 31 30  1  0  0  0  0
 35 30  1  0  0  0  0
 36 35  2  0  0  0  0
 37 36  1  0  0  0  0
 37 38  1  0  0  0  0
M  END
>  <minimizedAffinity>
-5.26629925

$$$$

 OpenBabel03242516513D

 38 40  0  0  1  0  0  0  0  0999 V2000
   36.1950   30.0350   38.1500 C   0  0  1  0  0  0  0  0  0  0  0  0
   36.6740   29.1920   37.0370 C   0  0  0  0  0  0  0  0  0  0  0  0
   35.4480   28.9480   36.1510 C   0  0  0  0  0  0  0  0  0  0  0  0
   34.5260   28.0360   36.9330 C   0  0  0  0  0  0  0  0  0  0  0  0
   34.1650   28.5500   38.2900 C   0  0  0  0  0  0  0  0  0  0  0  0
   35.1800   29.3220   39.0190 C   0  0  1  0  0  0  0  0  0  0  0  0
   35.6070   30.9000   37.7170 H   0  0  0  0  0  0  0  0  0  0  0  0
   37.4280   29.7840   36.4640 H   0  0  0  0  0  0  0  0  0  0  0  0
   37.1190   28.2450   37.3670 H   0  0  0  0  0  0  0  0  0  0  0  0
   35.8310   28.3740   35.2870 H   0  0  0  0  0  0  0  0  0  0  0  0
   35.0040   29.9220   35.8990 H   0  0  0  0  0  0  0  0  0  0  0  0
   35.0390   27.0390   36.9640 H   0  0  0  0  0  0  0  0  0  0  0  0
   33.6160   27.8990   36.3230 H   0  0  0  0  0  0  0  0  0  0  0  0
   33.1830   29.0710   38.2020 H   0  0  0  0  0  0  0  0  0  0  0  0
   33.9310   27.6390   38.9040 H   0  0  0  0  0  0  0  0  0  0  0  0
   34.6540   30.1520   39.5820 H   0  0  0  0  0  0  0  0  0  0  0  0
   37.9760   32.4420   40.4540 C   0  0  0  0  0  0  0  0  0  0  0  0
   37.0160   31.8200   39.6570 C   0  0  0  0  0  0  0  0  0  0  0  0
   37.2340   30.6370   38.9750 C   0  0  0  0  0  0  0  0  0  0  0  0
   38.4580   30.1030   39.1250 N   0  0  0  0  0  0  0  0  0  0  0  0
   39.4050   30.6910   39.8940 C   0  0  0  0  0  0  0  0  0  0  0  0
   39.1880   31.8240   40.5450 N   0  0  0  0  0  0  0  0  0  0  0  0
   37.7140   33.3570   40.9450 H   0  0  0  0  0  0  0  0  0  0  0  0
   36.0460   32.2880   39.5680 H   0  0  0  0  0  0  0  0  0  0  0  0
   40.3530   30.1710   39.9400 H   0  0  0  0  0  0  0  0  0  0  0  0
   35.8420   28.5390   40.0800 C   0  0  0  0  0  0  0  0  0  0  0  0
   36.0430   28.9380   41.4110 C   0  0  0  0  0  0  0  0  0  0  0  0
   36.6800   27.9890   42.2290 C   0  0  0  0  0  0  0  0  0  0  0  0
   37.0460   26.7760   41.6750 C   0  0  0  0  0  0  0  0  0  0  0  0
   36.8360   26.4260   40.3850 C   0  0  0  0  0  0  0  0  0  0  0  0
   36.2240   27.3240   39.5790 N   0  0  0  0  0  0  0  0  0  0  0  0
   35.6950   29.9050   41.6540 H   0  0  0  0  0  0  0  0  0  0  0  0
   36.8280   28.2970   43.2320 H   0  0  0  0  0  0  0  0  0  0  0  0
   37.5230   26.1500   42.4160 H   0  0  0  0  0  0  0  0  0  0  0  0
   37.2630   25.1160   39.8950 C   0  0  0  0  0  3  0  0  0  0  0  0
   37.2280   24.0650   40.6920 C   0  0  0  0  0  3  0  0  0  0  0  0
   37.6400   22.6970   40.2850 C   0  0  0  0  0  2  0  0  0  0  0  0
   36.7630   21.9920   40.3420 H   0  0  0  0  0  0  0  0  0  0  0  0
  1  7  1  6  0  0  0
  1 19  1  0  0  0  0
  1  6  1  0  0  0  0
  2  9  1  0  0  0  0
  2  1  1  0  0  0  0
  3  4  1  0  0  0  0
  3  2  1  0  0  0  0
  4 12  1  0  0  0  0
  4  5  1  0  0  0  0
  5 15  1  0  0  0  0
  5  6  1  0  0  0  0
  6 16  1  1  0  0  0
  6 26  1  0  0  0  0
  8  2  1  0  0  0  0
 10  3  1  0  0  0  0
 11  3  1  0  0  0  0
 13  4  1  0  0  0  0
 14  5  1  0  0  0  0
 17 22  1  0  0  0  0
 17 23  1  0  0  0  0
 18 17  2  0  0  0  0
 19 20  2  0  0  0  0
 19 18  1  0  0  0  0
 20 21  1  0  0  0  0
 21 25  1  0  0  0  0
 21 22  2  0  0  0  0
 24 18  1  0  0  0  0
 26 27  1  0  0  0  0
 27 32  1  0  0  0  0
 27 28  2  0  0  0  0
 28 33  1  0  0  0  0
 29 28  1  0  0  0  0
 29 34  1  0  0  0  0
 30 29  2  0  0  0  0
 31 26  2  0  0  0  0
 31 30  1  0  0  0  0
 35 30  1  0  0  0  0
 35 36  2  0  0  0  0
 37 38  1  0  0  0  0
 37 36  1  0  0  0  0
M  END
>  <minimizedAffinity>
-5.26475334

$$$$

 OpenBabel03242516513D

 38 40  0  0  1  0  0  0  0  0999 V2000
   38.4460   26.6460   41.3250 C   0  0  1  0  0  0  0  0  0  0  0  0
   39.3020   27.5970   42.0630 C   0  0  0  0  0  0  0  0  0  0  0  0
   38.9150   27.4370   43.5360 C   0  0  0  0  0  0  0  0  0  0  0  0
   37.5210   28.0110   43.6800 C   0  0  0  0  0  0  0  0  0  0  0  0
   36.5150   27.4100   42.7500 C   0  0  0  0  0  0  0  0  0  0  0  0
   36.9770   27.0010   41.4170 C   0  0  1  0  0  0  0  0  0  0  0  0
   38.5050   25.6390   41.8380 H   0  0  0  0  0  0  0  0  0  0  0  0
   40.3620   27.2750   41.9250 H   0  0  0  0  0  0  0  0  0  0  0  0
   39.1840   28.6370   41.7320 H   0  0  0  0  0  0  0  0  0  0  0  0
   39.6070   28.1030   44.0850 H   0  0  0  0  0  0  0  0  0  0  0  0
   38.9890   26.3730   43.8000 H   0  0  0  0  0  0  0  0  0  0  0  0
   37.6320   29.1190   43.5480 H   0  0  0  0  0  0  0  0  0  0  0  0
   37.2140   27.8500   44.7280 H   0  0  0  0  0  0  0  0  0  0  0  0
   35.9810   26.6040   43.3080 H   0  0  0  0  0  0  0  0  0  0  0  0
   35.7300   28.1990   42.6060 H   0  0  0  0  0  0  0  0  0  0  0  0
   36.4350   26.0470   41.1350 H   0  0  0  0  0  0  0  0  0  0  0  0
   39.9780   27.1340   37.9050 C   0  0  0  0  0  0  0  0  0  0  0  0
   39.5950   27.3120   39.2350 C   0  0  0  0  0  0  0  0  0  0  0  0
   38.8230   26.4060   39.9380 C   0  0  0  0  0  0  0  0  0  0  0  0
   38.4490   25.3130   39.2520 N   0  0  0  0  0  0  0  0  0  0  0  0
   38.8100   25.1210   37.9610 C   0  0  0  0  0  0  0  0  0  0  0  0
   39.5500   25.9940   37.2940 N   0  0  0  0  0  0  0  0  0  0  0  0
   40.5780   27.8920   37.4440 H   0  0  0  0  0  0  0  0  0  0  0  0
   39.9210   28.2070   39.7440 H   0  0  0  0  0  0  0  0  0  0  0  0
   38.4500   24.2050   37.5100 H   0  0  0  0  0  0  0  0  0  0  0  0
   36.5900   27.9540   40.3600 C   0  0  0  0  0  0  0  0  0  0  0  0
   35.9370   27.6470   39.1560 C   0  0  0  0  0  0  0  0  0  0  0  0
   35.6590   28.7490   38.3290 C   0  0  0  0  0  0  0  0  0  0  0  0
   36.0380   30.0080   38.7550 C   0  0  0  0  0  0  0  0  0  0  0  0
   36.6680   30.2670   39.9250 C   0  0  0  0  0  0  0  0  0  0  0  0
   36.9460   29.2210   40.7370 N   0  0  0  0  0  0  0  0  0  0  0  0
   35.7260   26.6240   39.0010 H   0  0  0  0  0  0  0  0  0  0  0  0
   35.1670   28.5090   37.4230 H   0  0  0  0  0  0  0  0  0  0  0  0
   35.7630   30.7550   38.0230 H   0  0  0  0  0  0  0  0  0  0  0  0
   37.0280   31.6390   40.2840 C   0  0  0  0  0  3  0  0  0  0  0  0
   37.1430   32.5620   39.3490 C   0  0  0  0  0  3  0  0  0  0  0  0
   37.5030   33.9780   39.6160 C   0  0  0  0  0  2  0  0  0  0  0  0
   36.6600   34.6600   39.3110 H   0  0  0  0  0  0  0  0  0  0  0  0
  1  6  1  0  0  0  0
  1  7  1  1  0  0  0
  1  2  1  0  0  0  0
  2  3  1  0  0  0  0
  3  4  1  0  0  0  0
  3 11  1  0  0  0  0
  3 10  1  0  0  0  0
  4 13  1  0  0  0  0
  5 14  1  0  0  0  0
  5  4  1  0  0  0  0
  6 16  1  6  0  0  0
  6  5  1  0  0  0  0
  8  2  1  0  0  0  0
  9  2  1  0  0  0  0
 12  4  1  0  0  0  0
 15  5  1  0  0  0  0
 17 18  1  0  0  0  0
 18 24  1  0  0  0  0
 18 19  2  0  0  0  0
 19  1  1  0  0  0  0
 20 19  1  0  0  0  0
 21 20  2  0  0  0  0
 22 17  2  0  0  0  0
 22 21  1  0  0  0  0
 23 17  1  0  0  0  0
 25 21  1  0  0  0  0
 26 31  1  0  0  0  0
 26  6  1  0  0  0  0
 27 26  2  0  0  0  0
 28 29  2  0  0  0  0
 28 27  1  0  0  0  0
 29 30  1  0  0  0  0
 30 35  1  0  0  0  0
 30 31  2  0  0  0  0
 32 27  1  0  0  0  0
 33 28  1  0  0  0  0
 34 29  1  0  0  0  0
 36 37  1  0  0  0  0
 36 35  2  0  0  0  0
 38 37  1  0  0  0  0
M  END
>  <minimizedAffinity>
-5.15074492

$$$$

 OpenBabel03242516513D

 38 40  0  0  1  0  0  0  0  0999 V2000
   37.9270   26.3990   41.1070 C   0  0  1  0  0  0  0  0  0  0  0  0
   39.3780   26.5720   41.3160 C   0  0  0  0  0  0  0  0  0  0  0  0
   39.6510   26.0640   42.7350 C   0  0  0  0  0  0  0  0  0  0  0  0
   39.0210   27.0670   43.6800 C   0  0  0  0  0  0  0  0  0  0  0  0
   37.5690   27.3180   43.4250 C   0  0  0  0  0  0  0  0  0  0  0  0
   37.1030   27.2700   42.0330 C   0  0  1  0  0  0  0  0  0  0  0  0
   37.6430   25.3480   41.4150 H   0  0  0  0  0  0  0  0  0  0  0  0
   39.9060   25.9140   40.5840 H   0  0  0  0  0  0  0  0  0  0  0  0
   39.7160   27.6090   41.1940 H   0  0  0  0  0  0  0  0  0  0  0  0
   40.7480   26.1350   42.8570 H   0  0  0  0  0  0  0  0  0  0  0  0
   39.2400   25.0490   42.8240 H   0  0  0  0  0  0  0  0  0  0  0  0
   39.6470   27.9950   43.6000 H   0  0  0  0  0  0  0  0  0  0  0  0
   39.1670   26.6800   44.7030 H   0  0  0  0  0  0  0  0  0  0  0  0
   36.9880   26.6630   44.1170 H   0  0  0  0  0  0  0  0  0  0  0  0
   37.3720   28.3550   43.8090 H   0  0  0  0  0  0  0  0  0  0  0  0
   36.0720   26.7990   42.0240 H   0  0  0  0  0  0  0  0  0  0  0  0
   35.8470   26.0050   37.9770 C   0  0  0  0  0  0  0  0  0  0  0  0
   36.3270   25.9050   39.2820 C   0  0  0  0  0  0  0  0  0  0  0  0
   37.4670   26.5460   39.7320 C   0  0  0  0  0  0  0  0  0  0  0  0
   38.1070   27.2930   38.8170 N   0  0  0  0  0  0  0  0  0  0  0  0
   37.6580   27.4040   37.5450 C   0  0  0  0  0  0  0  0  0  0  0  0
   36.5650   26.7860   37.1210 N   0  0  0  0  0  0  0  0  0  0  0  0
   34.9550   25.4720   37.7210 H   0  0  0  0  0  0  0  0  0  0  0  0
   35.7770   25.2920   39.9820 H   0  0  0  0  0  0  0  0  0  0  0  0
   38.2550   28.0320   36.8950 H   0  0  0  0  0  0  0  0  0  0  0  0
   36.8860   28.6090   41.4550 C   0  0  0  0  0  0  0  0  0  0  0  0
   35.7210   29.0650   40.8170 C   0  0  0  0  0  0  0  0  0  0  0  0
   35.7650   30.3990   40.3760 C   0  0  0  0  0  0  0  0  0  0  0  0
   36.9150   31.1330   40.6000 C   0  0  0  0  0  0  0  0  0  0  0  0
   38.0220   30.6580   41.2200 C   0  0  0  0  0  0  0  0  0  0  0  0
   38.0020   29.3770   41.6520 N   0  0  0  0  0  0  0  0  0  0  0  0
   34.9400   28.3600   40.7360 H   0  0  0  0  0  0  0  0  0  0  0  0
   34.8830   30.7360   39.8960 H   0  0  0  0  0  0  0  0  0  0  0  0
   36.8080   32.1360   40.2110 H   0  0  0  0  0  0  0  0  0  0  0  0
   39.1900   31.5170   41.4070 C   0  0  0  0  0  3  0  0  0  0  0  0
   39.5900   32.3170   40.4370 C   0  0  0  0  0  3  0  0  0  0  0  0
   40.7630   33.2230   40.5350 C   0  0  0  0  0  2  0  0  0  0  0  0
   40.4350   34.2970   40.4420 H   0  0  0  0  0  0  0  0  0  0  0  0
  1  2  1  0  0  0  0
  1  7  1  1  0  0  0
  1  6  1  0  0  0  0
  2  3  1  0  0  0  0
  3 11  1  0  0  0  0
  3 10  1  0  0  0  0
  3  4  1  0  0  0  0
  4 13  1  0  0  0  0
  5  4  1  0  0  0  0
  5 15  1  0  0  0  0
  5 14  1  0  0  0  0
  6 16  1  1  0  0  0
  6  5  1  0  0  0  0
  8  2  1  0  0  0  0
  9  2  1  0  0  0  0
 12  4  1  0  0  0  0
 17 18  1  0  0  0  0
 18 19  2  0  0  0  0
 18 24  1  0  0  0  0
 19  1  1  0  0  0  0
 20 19  1  0  0  0  0
 21 20  2  0  0  0  0
 22 21  1  0  0  0  0
 22 17  2  0  0  0  0
 23 17  1  0  0  0  0
 25 21  1  0  0  0  0
 26 31  1  0  0  0  0
 26  6  1  0  0  0  0
 27 26  2  0  0  0  0
 28 29  2  0  0  0  0
 28 27  1  0  0  0  0
 29 30  1  0  0  0  0
 30 35  1  0  0  0  0
 30 31  2  0  0  0  0
 32 27  1  0  0  0  0
 33 28  1  0  0  0  0
 34 29  1  0  0  0  0
 36 37  1  0  0  0  0
 36 35  2  0  0  0  0
 38 37  1  0  0  0  0
M  END
>  <minimizedAffinity>
-4.98989296

$$$$

 OpenBabel03242516513D

 38 40  0  0  1  0  0  0  0  0999 V2000
   37.0360   28.6720   39.4190 C   0  0  1  0  0  0  0  0  0  0  0  0
   35.5920   28.7630   39.7120 C   0  0  0  0  0  0  0  0  0  0  0  0
   34.8850   28.2750   38.4440 C   0  0  0  0  0  0  0  0  0  0  0  0
   35.1140   29.3370   37.3880 C   0  0  0  0  0  0  0  0  0  0  0  0
   36.5540   29.6680   37.1560 C   0  0  0  0  0  0  0  0  0  0  0  0
   37.4610   29.6120   38.3100 C   0  0  1  0  0  0  0  0  0  0  0  0
   37.2500   27.6470   38.9890 H   0  0  0  0  0  0  0  0  0  0  0  0
   35.3710   28.0570   40.5490 H   0  0  0  0  0  0  0  0  0  0  0  0
   35.2650   29.7750   39.9840 H   0  0  0  0  0  0  0  0  0  0  0  0
   33.8090   28.2840   38.6970 H   0  0  0  0  0  0  0  0  0  0  0  0
   35.2900   27.2890   38.1790 H   0  0  0  0  0  0  0  0  0  0  0  0
   34.5070   30.2240   37.7120 H   0  0  0  0  0  0  0  0  0  0  0  0
   34.6530   28.9680   36.4560 H   0  0  0  0  0  0  0  0  0  0  0  0
   36.9000   29.0660   36.2830 H   0  0  0  0  0  0  0  0  0  0  0  0
   36.5620   30.7230   36.7740 H   0  0  0  0  0  0  0  0  0  0  0  0
   38.4560   29.2040   37.9560 H   0  0  0  0  0  0  0  0  0  0  0  0
   38.2610   29.4390   42.9100 C   0  0  0  0  0  0  0  0  0  0  0  0
   37.4560   29.2800   41.7820 C   0  0  0  0  0  0  0  0  0  0  0  0
   37.9220   28.8110   40.5680 C   0  0  0  0  0  0  0  0  0  0  0  0
   39.2300   28.5080   40.5300 N   0  0  0  0  0  0  0  0  0  0  0  0
   40.0290   28.6550   41.6130 C   0  0  0  0  0  0  0  0  0  0  0  0
   39.5750   29.1050   42.7740 N   0  0  0  0  0  0  0  0  0  0  0  0
   37.8100   29.8090   43.8080 H   0  0  0  0  0  0  0  0  0  0  0  0
   36.4100   29.5370   41.8620 H   0  0  0  0  0  0  0  0  0  0  0  0
   41.0660   28.3800   41.4660 H   0  0  0  0  0  0  0  0  0  0  0  0
   37.7940   30.9470   38.8410 C   0  0  0  0  0  0  0  0  0  0  0  0
   36.9130   31.8390   39.4740 C   0  0  0  0  0  0  0  0  0  0  0  0
   37.4930   33.0420   39.9110 C   0  0  0  0  0  0  0  0  0  0  0  0
   38.8430   33.2450   39.6900 C   0  0  0  0  0  0  0  0  0  0  0  0
   39.6630   32.3610   39.0750 C   0  0  0  0  0  0  0  0  0  0  0  0
   39.1260   31.1960   38.6450 N   0  0  0  0  0  0  0  0  0  0  0  0
   35.9130   31.5110   39.5530 H   0  0  0  0  0  0  0  0  0  0  0  0
   36.8230   33.7090   40.3880 H   0  0  0  0  0  0  0  0  0  0  0  0
   39.1500   34.2070   40.0770 H   0  0  0  0  0  0  0  0  0  0  0  0
   41.0800   32.6720   38.8880 C   0  0  0  0  0  3  0  0  0  0  0  0
   41.4830   33.3120   37.8070 C   0  0  0  0  0  3  0  0  0  0  0  0
   42.8980   33.6710   37.5320 C   0  0  0  0  0  2  0  0  0  0  0  0
   43.0140   34.7910   37.4810 H   0  0  0  0  0  0  0  0  0  0  0  0
  1  7  1  6  0  0  0
  1  2  1  0  0  0  0
  1 19  1  0  0  0  0
  2  9  1  0  0  0  0
  2  8  1  0  0  0  0
  3 10  1  0  0  0  0
  3  2  1  0  0  0  0
  4 12  1  0  0  0  0
  4  3  1  0  0  0  0
  5  4  1  0  0  0  0
  5  6  1  0  0  0  0
  6 16  1  6  0  0  0
  6 26  1  0  0  0  0
  6  1  1  0  0  0  0
 11  3  1  0  0  0  0
 13  4  1  0  0  0  0
 14  5  1  0  0  0  0
 15  5  1  0  0  0  0
 17 23  1  0  0  0  0
 18 24  1  0  0  0  0
 18 17  2  0  0  0  0
 19 18  1  0  0  0  0
 20 19  2  0  0  0  0
 20 21  1  0  0  0  0
 21 22  2  0  0  0  0
 22 17  1  0  0  0  0
 25 21  1  0  0  0  0
 26 27  1  0  0  0  0
 27 32  1  0  0  0  0
 27 28  2  0  0  0  0
 28 33  1  0  0  0  0
 29 28  1  0  0  0  0
 29 34  1  0  0  0  0
 30 29  2  0  0  0  0
 31 26  2  0  0  0  0
 31 30  1  0  0  0  0
 35 30  1  0  0  0  0
 36 35  2  0  0  0  0
 37 36  1  0  0  0  0
 38 37  1  0  0  0  0
M  END
>  <minimizedAffinity>
-4.98714495

$$$$

 OpenBabel03242516513D

 38 40  0  0  1  0  0  0  0  0999 V2000
   37.0130   28.3340   39.3920 C   0  0  1  0  0  0  0  0  0  0  0  0
   35.5440   28.4650   39.3260 C   0  0  0  0  0  0  0  0  0  0  0  0
   35.1700   28.1530   37.8740 C   0  0  0  0  0  0  0  0  0  0  0  0
   35.6800   29.3110   37.0400 C   0  0  0  0  0  0  0  0  0  0  0  0
   37.1390   29.5920   37.2130 C   0  0  0  0  0  0  0  0  0  0  0  0
   37.7240   29.3670   38.5420 C   0  0  1  0  0  0  0  0  0  0  0  0
   37.3070   27.3530   38.9120 H   0  0  0  0  0  0  0  0  0  0  0  0
   35.1040   27.6850   39.9930 H   0  0  0  0  0  0  0  0  0  0  0  0
   35.1800   29.4560   39.6250 H   0  0  0  0  0  0  0  0  0  0  0  0
   34.0650   28.1890   37.8510 H   0  0  0  0  0  0  0  0  0  0  0  0
   35.6080   27.1830   37.6040 H   0  0  0  0  0  0  0  0  0  0  0  0
   35.0300   30.1860   37.3050 H   0  0  0  0  0  0  0  0  0  0  0  0
   35.4620   29.0680   35.9850 H   0  0  0  0  0  0  0  0  0  0  0  0
   37.6810   29.0720   36.3890 H   0  0  0  0  0  0  0  0  0  0  0  0
   37.2650   30.6810   36.9710 H   0  0  0  0  0  0  0  0  0  0  0  0
   38.7670   28.9500   38.4000 H   0  0  0  0  0  0  0  0  0  0  0  0
   37.4150   28.8550   43.1130 C   0  0  0  0  0  0  0  0  0  0  0  0
   36.9130   28.8500   41.8120 C   0  0  0  0  0  0  0  0  0  0  0  0
   37.5830   28.3040   40.7330 C   0  0  0  0  0  0  0  0  0  0  0  0
   38.7800   27.7620   41.0130 N   0  0  0  0  0  0  0  0  0  0  0  0
   39.2860   27.7560   42.2690 C   0  0  0  0  0  0  0  0  0  0  0  0
   38.6370   28.2810   43.2970 N   0  0  0  0  0  0  0  0  0  0  0  0
   36.8220   29.3010   43.8850 H   0  0  0  0  0  0  0  0  0  0  0  0
   35.9450   29.2990   41.6370 H   0  0  0  0  0  0  0  0  0  0  0  0
   40.2580   27.2920   42.3750 H   0  0  0  0  0  0  0  0  0  0  0  0
   37.9400   30.6190   39.2910 C   0  0  0  0  0  0  0  0  0  0  0  0
   37.0290   31.6790   39.4280 C   0  0  0  0  0  0  0  0  0  0  0  0
   37.4760   32.7510   40.2210 C   0  0  0  0  0  0  0  0  0  0  0  0
   38.7360   32.6770   40.7850 C   0  0  0  0  0  0  0  0  0  0  0  0
   39.5880   31.6370   40.6300 C   0  0  0  0  0  0  0  0  0  0  0  0
   39.1800   30.5940   39.8710 N   0  0  0  0  0  0  0  0  0  0  0  0
   36.1110   31.5580   38.9230 H   0  0  0  0  0  0  0  0  0  0  0  0
   36.7840   33.5460   40.3190 H   0  0  0  0  0  0  0  0  0  0  0  0
   38.9450   33.5660   41.3650 H   0  0  0  0  0  0  0  0  0  0  0  0
   40.9030   31.6560   41.2700 C   0  0  0  0  0  3  0  0  0  0  0  0
   41.0620   31.1500   42.4790 C   0  0  0  0  0  3  0  0  0  0  0  0
   42.3560   31.1250   43.2070 C   0  0  0  0  0  2  0  0  0  0  0  0
   42.6760   30.0610   43.3960 H   0  0  0  0  0  0  0  0  0  0  0  0
  1  7  1  6  0  0  0
  1 19  1  0  0  0  0
  2  1  1  0  0  0  0
  2  9  1  0  0  0  0
  2  8  1  0  0  0  0
  3  2  1  0  0  0  0
  4  5  1  0  0  0  0
  4 12  1  0  0  0  0
  4  3  1  0  0  0  0
  5  6  1  0  0  0  0
  6 16  1  6  0  0  0
  6 26  1  0  0  0  0
  6  1  1  0  0  0  0
 10  3  1  0  0  0  0
 11  3  1  0  0  0  0
 13  4  1  0  0  0  0
 14  5  1  0  0  0  0
 15  5  1  0  0  0  0
 17 22  1  0  0  0  0
 17 23  1  0  0  0  0
 18 17  2  0  0  0  0
 19 20  2  0  0  0  0
 19 18  1  0  0  0  0
 20 21  1  0  0  0  0
 21 25  1  0  0  0  0
 21 22  2  0  0  0  0
 24 18  1  0  0  0  0
 26 27  2  0  0  0  0
 26 31  1  0  0  0  0
 27 28  1  0  0  0  0
 28 33  1  0  0  0  0
 28 29  2  0  0  0  0
 29 34  1  0  0  0  0
 30 29  1  0  0  0  0
 30 35  1  0  0  0  0
 31 30  2  0  0  0  0
 32 27  1  0  0  0  0
 35 36  2  0  0  0  0
 36 37  1  0  0  0  0
 37 38  1  0  0  0  0
M  END
>  <minimizedAffinity>
-4.98490858

$$$$
