
 OpenBabel03252503093D

 22 23  0  0  0  0  0  0  0  0999 V2000
   45.0980   36.1350   43.5320 C   0  0  0  0  0  0  0  0  0  0  0  0
   45.7660   34.9630   43.1250 C   0  0  0  0  0  0  0  0  0  0  0  0
   45.8210   33.9580   44.0830 C   0  0  0  0  0  0  0  0  0  0  0  0
   45.2760   34.0940   45.3110 N   0  0  0  0  0  0  0  0  0  0  0  0
   44.6410   35.2520   45.6550 C   0  0  0  0  0  0  0  0  0  0  0  0
   44.5570   36.2650   44.7610 N   0  0  0  0  0  0  0  0  0  0  0  0
   45.0000   36.9760   42.8650 H   0  0  0  0  0  0  0  0  0  0  0  0
   44.2220   35.3270   46.6330 H   0  0  0  0  0  0  0  0  0  0  0  0
   46.4610   32.7610   43.7640 C   0  0  0  0  0  0  0  0  0  0  0  0
   47.7700   32.3320   43.7780 C   0  0  0  0  0  0  0  0  0  0  0  0
   48.1420   31.1160   43.4100 C   0  0  0  0  0  0  0  0  0  0  0  0
   47.1370   30.2640   43.0010 C   0  0  0  0  0  0  0  0  0  0  0  0
   45.6120   31.3040   43.1690 S   0  0  0  0  0  0  0  0  0  0  0  0
   48.6500   32.8660   44.1030 H   0  0  0  0  0  0  0  0  0  0  0  0
   49.0270   30.5420   43.3230 H   0  0  0  0  0  0  0  0  0  0  0  0
   46.9410   29.2770   42.6430 H   0  0  0  0  0  0  0  0  0  0  0  0
   46.3070   34.8650   41.8230 C   0  0  0  0  0  0  0  0  0  0  0  0
   47.5440   35.1720   41.7270 O   0  0  0  0  0  0  0  0  0  0  0  0
   45.1180   34.4160   41.0450 C   0  0  0  0  0  3  0  0  0  0  0  0
   43.9000   34.7600   40.6900 C   0  0  0  0  0  3  0  0  0  0  0  0
   43.1810   33.7860   39.8350 C   0  0  0  0  0  2  0  0  0  0  0  0
   42.9150   34.2240   38.8440 H   0  0  0  0  0  0  0  0  0  0  0  0
  1  6  1  0  0  0  0
  2  1  2  0  0  0  0
  2  3  1  0  0  0  0
  3  4  2  0  0  0  0
  4  5  1  0  0  0  0
  5  8  1  0  0  0  0
  6  5  2  0  0  0  0
  7  1  1  0  0  0  0
  9 10  2  0  0  0  0
  9  3  1  0  0  0  0
 10 14  1  0  0  0  0
 11 10  1  0  0  0  0
 12 13  1  0  0  0  0
 12 11  2  0  0  0  0
 13  9  1  0  0  0  0
 15 11  1  0  0  0  0
 16 12  1  0  0  0  0
 17  2  1  0  0  0  0
 18 17  2  0  0  0  0
 19 17  1  0  0  0  0
 20 19  2  0  0  0  0
 21 20  1  0  0  0  0
 22 21  1  0  0  0  0
M  END
>  <minimizedAffinity>
-4.10512352

>  <minimizedRMSD>
1.17687345

$$$$
