
 OpenBabel03242510453D

 13 13  0  0  0  0  0  0  0  0999 V2000
   37.0080   30.0490   41.3850 C   0  0  0  0  0  0  0  0  0  0  0  0
   36.2300   28.8670   41.3210 C   0  0  0  0  0  0  0  0  0  0  0  0
   36.5830   27.8040   42.1540 C   0  0  0  0  0  0  0  0  0  0  0  0
   37.6480   27.9560   42.9780 N   0  0  0  0  0  0  0  0  0  0  0  0
   38.3800   29.1000   43.0210 C   0  0  0  0  0  0  0  0  0  0  0  0
   38.0450   30.1240   42.2230 N   0  0  0  0  0  0  0  0  0  0  0  0
   35.3800   28.7650   40.6540 H   0  0  0  0  0  0  0  0  0  0  0  0
   36.0300   26.8640   42.1580 H   0  0  0  0  0  0  0  0  0  0  0  0
   39.1990   29.0730   43.7270 H   0  0  0  0  0  0  0  0  0  0  0  0
   36.6410   31.1690   40.5120 C   0  0  0  0  0  3  0  0  0  0  0  0
   37.5190   32.1490   40.3520 C   0  0  0  0  0  3  0  0  0  0  0  0
   37.2190   33.3180   39.4830 C   0  0  0  0  0  2  0  0  0  0  0  0
   36.1120   33.5110   39.6000 H   0  0  0  0  0  0  0  0  0  0  0  0
  1  6  1  0  0  0  0
  2  1  2  0  0  0  0
  2  3  1  0  0  0  0
  3  8  1  0  0  0  0
  3  4  2  0  0  0  0
  4  5  1  0  0  0  0
  5  9  1  0  0  0  0
  6  5  2  0  0  0  0
  7  2  1  0  0  0  0
 10  1  1  0  0  0  0
 11 10  2  0  0  0  0
 12 13  1  0  0  0  0
 12 11  1  0  0  0  0
M  END
>  <minimizedAffinity>
-3.26098466

$$$$

 OpenBabel03242510453D

 13 13  0  0  0  0  0  0  0  0999 V2000
   37.7990   26.6120   42.6790 C   0  0  0  0  0  0  0  0  0  0  0  0
   37.6560   25.3130   42.1320 C   0  0  0  0  0  0  0  0  0  0  0  0
   38.6550   24.3760   42.4010 C   0  0  0  0  0  0  0  0  0  0  0  0
   39.7080   24.7550   43.1670 N   0  0  0  0  0  0  0  0  0  0  0  0
   39.8210   26.0090   43.6790 C   0  0  0  0  0  0  0  0  0  0  0  0
   38.8650   26.9120   43.4250 N   0  0  0  0  0  0  0  0  0  0  0  0
   36.8060   25.0290   41.5210 H   0  0  0  0  0  0  0  0  0  0  0  0
   38.6120   23.3570   42.0140 H   0  0  0  0  0  0  0  0  0  0  0  0
   40.7150   26.1630   44.2700 H   0  0  0  0  0  0  0  0  0  0  0  0
   36.7510   27.6000   42.4000 C   0  0  0  0  0  3  0  0  0  0  0  0
   36.5410   27.9480   41.1380 C   0  0  0  0  0  3  0  0  0  0  0  0
   35.4970   28.9440   40.7780 C   0  0  0  0  0  2  0  0  0  0  0  0
   35.4840   29.6940   41.6220 H   0  0  0  0  0  0  0  0  0  0  0  0
  1  6  1  0  0  0  0
  2  3  1  0  0  0  0
  2  1  2  0  0  0  0
  3  4  2  0  0  0  0
  4  5  1  0  0  0  0
  5  9  1  0  0  0  0
  6  5  2  0  0  0  0
  7  2  1  0  0  0  0
  8  3  1  0  0  0  0
 10  1  1  0  0  0  0
 11 10  2  0  0  0  0
 12 11  1  0  0  0  0
 12 13  1  0  0  0  0
M  END
>  <minimizedAffinity>
-3.22376609

$$$$

 OpenBabel03242510453D

 13 13  0  0  0  0  0  0  0  0999 V2000
   37.5420   26.4340   42.5240 C   0  0  0  0  0  0  0  0  0  0  0  0
   36.7490   27.3260   43.2870 C   0  0  0  0  0  0  0  0  0  0  0  0
   37.3190   28.5390   43.6780 C   0  0  0  0  0  0  0  0  0  0  0  0
   38.5970   28.8010   43.3080 N   0  0  0  0  0  0  0  0  0  0  0  0
   39.3370   27.9280   42.5760 C   0  0  0  0  0  0  0  0  0  0  0  0
   38.7960   26.7620   42.1990 N   0  0  0  0  0  0  0  0  0  0  0  0
   35.7280   27.0970   43.5730 H   0  0  0  0  0  0  0  0  0  0  0  0
   36.7690   29.2740   44.2660 H   0  0  0  0  0  0  0  0  0  0  0  0
   40.3390   28.2740   42.3580 H   0  0  0  0  0  0  0  0  0  0  0  0
   36.9480   25.1580   42.1120 C   0  0  0  0  0  3  0  0  0  0  0  0
   36.9140   24.8750   40.8170 C   0  0  0  0  0  3  0  0  0  0  0  0
   36.3270   23.6010   40.3220 C   0  0  0  0  0  2  0  0  0  0  0  0
   35.4650   23.3710   41.0150 H   0  0  0  0  0  0  0  0  0  0  0  0
  1  2  1  0  0  0  0
  2  7  1  0  0  0  0
  2  3  2  0  0  0  0
  3  8  1  0  0  0  0
  4  3  1  0  0  0  0
  5  4  2  0  0  0  0
  6  1  2  0  0  0  0
  6  5  1  0  0  0  0
  9  5  1  0  0  0  0
 10  1  1  0  0  0  0
 11 10  2  0  0  0  0
 12 11  1  0  0  0  0
 12 13  1  0  0  0  0
M  END
>  <minimizedAffinity>
-3.2104702

$$$$

 OpenBabel03242510453D

 13 13  0  0  0  0  0  0  0  0999 V2000
   37.7080   26.7260   42.5920 C   0  0  0  0  0  0  0  0  0  0  0  0
   38.7790   27.1880   43.3960 C   0  0  0  0  0  0  0  0  0  0  0  0
   39.8160   26.2980   43.6800 C   0  0  0  0  0  0  0  0  0  0  0  0
   39.7470   25.0420   43.1740 N   0  0  0  0  0  0  0  0  0  0  0  0
   38.7080   24.6230   42.4050 C   0  0  0  0  0  0  0  0  0  0  0  0
   37.7090   25.4720   42.1290 N   0  0  0  0  0  0  0  0  0  0  0  0
   38.8150   28.1970   43.7920 H   0  0  0  0  0  0  0  0  0  0  0  0
   40.6720   26.5840   44.2910 H   0  0  0  0  0  0  0  0  0  0  0  0
   38.7920   23.5960   42.0740 H   0  0  0  0  0  0  0  0  0  0  0  0
   36.6150   27.6560   42.2900 C   0  0  0  0  0  3  0  0  0  0  0  0
   36.5300   28.1410   41.0600 C   0  0  0  0  0  3  0  0  0  0  0  0
   35.4490   29.0900   40.6790 C   0  0  0  0  0  2  0  0  0  0  0  0
   35.2630   29.7260   41.5940 H   0  0  0  0  0  0  0  0  0  0  0  0
  1  2  1  0  0  0  0
  2  3  2  0  0  0  0
  2  7  1  0  0  0  0
  3  8  1  0  0  0  0
  4  3  1  0  0  0  0
  5  4  2  0  0  0  0
  6  5  1  0  0  0  0
  6  1  2  0  0  0  0
  9  5  1  0  0  0  0
 10  1  1  0  0  0  0
 11 10  2  0  0  0  0
 12 11  1  0  0  0  0
 12 13  1  0  0  0  0
M  END
>  <minimizedAffinity>
-3.19353127

$$$$

 OpenBabel03242510453D

 13 13  0  0  0  0  0  0  0  0999 V2000
   36.5630   28.6650   41.6310 C   0  0  0  0  0  0  0  0  0  0  0  0
   36.8650   27.3060   41.8940 C   0  0  0  0  0  0  0  0  0  0  0  0
   37.9320   27.0250   42.7500 C   0  0  0  0  0  0  0  0  0  0  0  0
   38.6210   28.0630   43.2840 N   0  0  0  0  0  0  0  0  0  0  0  0
   38.3120   29.3590   43.0160 C   0  0  0  0  0  0  0  0  0  0  0  0
   37.2890   29.6340   42.1950 N   0  0  0  0  0  0  0  0  0  0  0  0
   36.3010   26.4900   41.4560 H   0  0  0  0  0  0  0  0  0  0  0  0
   38.2210   26.0040   42.9970 H   0  0  0  0  0  0  0  0  0  0  0  0
   38.9500   30.0760   43.5150 H   0  0  0  0  0  0  0  0  0  0  0  0
   35.4440   28.9660   40.7330 C   0  0  0  0  0  3  0  0  0  0  0  0
   35.5340   28.5720   39.4700 C   0  0  0  0  0  3  0  0  0  0  0  0
   34.4390   28.8410   38.5000 C   0  0  0  0  0  2  0  0  0  0  0  0
   34.0100   29.8440   38.7910 H   0  0  0  0  0  0  0  0  0  0  0  0
  1  2  2  0  0  0  0
  1  6  1  0  0  0  0
  2  3  1  0  0  0  0
  3  8  1  0  0  0  0
  3  4  2  0  0  0  0
  5  4  1  0  0  0  0
  5  9  1  0  0  0  0
  6  5  2  0  0  0  0
  7  2  1  0  0  0  0
 10  1  1  0  0  0  0
 11 10  2  0  0  0  0
 12 13  1  0  0  0  0
 12 11  1  0  0  0  0
M  END
>  <minimizedAffinity>
-3.16531372

$$$$

 OpenBabel03242510453D

 13 13  0  0  0  0  0  0  0  0999 V2000
   37.1530   28.1880   42.0820 C   0  0  0  0  0  0  0  0  0  0  0  0
   38.3220   28.9240   42.3950 C   0  0  0  0  0  0  0  0  0  0  0  0
   38.4100   30.2400   41.9380 C   0  0  0  0  0  0  0  0  0  0  0  0
   37.3760   30.7450   41.2200 N   0  0  0  0  0  0  0  0  0  0  0  0
   36.2650   30.0180   40.9320 C   0  0  0  0  0  0  0  0  0  0  0  0
   36.1760   28.7540   41.3680 N   0  0  0  0  0  0  0  0  0  0  0  0
   39.1390   28.5020   42.9710 H   0  0  0  0  0  0  0  0  0  0  0  0
   39.2790   30.8670   42.1410 H   0  0  0  0  0  0  0  0  0  0  0  0
   35.5260   30.5540   40.3520 H   0  0  0  0  0  0  0  0  0  0  0  0
   37.0560   26.8050   42.5600 C   0  0  0  0  0  3  0  0  0  0  0  0
   37.1670   25.8280   41.6710 C   0  0  0  0  0  3  0  0  0  0  0  0
   37.0790   24.4010   42.0800 C   0  0  0  0  0  2  0  0  0  0  0  0
   36.3270   24.3690   42.9220 H   0  0  0  0  0  0  0  0  0  0  0  0
  1  2  1  0  0  0  0
  1 10  1  0  0  0  0
  2  7  1  0  0  0  0
  3  8  1  0  0  0  0
  3  2  2  0  0  0  0
  4  3  1  0  0  0  0
  5  4  2  0  0  0  0
  5  6  1  0  0  0  0
  6  1  2  0  0  0  0
  9  5  1  0  0  0  0
 11 12  1  0  0  0  0
 11 10  2  0  0  0  0
 12 13  1  0  0  0  0
M  END
>  <minimizedAffinity>
-3.12250328

$$$$

 OpenBabel03242510453D

 13 13  0  0  0  0  0  0  0  0999 V2000
   36.3820   29.6620   40.3780 C   0  0  0  0  0  0  0  0  0  0  0  0
   36.6830   30.9320   40.9290 C   0  0  0  0  0  0  0  0  0  0  0  0
   37.0000   31.9690   40.0500 C   0  0  0  0  0  0  0  0  0  0  0  0
   37.0030   31.7100   38.7200 N   0  0  0  0  0  0  0  0  0  0  0  0
   36.7110   30.4820   38.2160 C   0  0  0  0  0  0  0  0  0  0  0  0
   36.4070   29.4830   39.0550 N   0  0  0  0  0  0  0  0  0  0  0  0
   36.6750   31.1200   41.9980 H   0  0  0  0  0  0  0  0  0  0  0  0
   37.2420   32.9720   40.4020 H   0  0  0  0  0  0  0  0  0  0  0  0
   36.7540   30.4280   37.1360 H   0  0  0  0  0  0  0  0  0  0  0  0
   36.0490   28.5690   41.2980 C   0  0  0  0  0  3  0  0  0  0  0  0
   36.8310   28.3790   42.3510 C   0  0  0  0  0  3  0  0  0  0  0  0
   36.5570   27.2910   43.3280 C   0  0  0  0  0  2  0  0  0  0  0  0
   36.1400   26.4340   42.7220 H   0  0  0  0  0  0  0  0  0  0  0  0
  1  2  1  0  0  0  0
  1 10  1  0  0  0  0
  2  7  1  0  0  0  0
  3  8  1  0  0  0  0
  3  2  2  0  0  0  0
  4  3  1  0  0  0  0
  5  4  2  0  0  0  0
  5  6  1  0  0  0  0
  6  1  2  0  0  0  0
  9  5  1  0  0  0  0
 10 11  2  0  0  0  0
 11 12  1  0  0  0  0
 13 12  1  0  0  0  0
M  END
>  <minimizedAffinity>
-3.11680436

$$$$

 OpenBabel03242510453D

 13 13  0  0  0  0  0  0  0  0999 V2000
   37.5380   30.3870   41.3950 C   0  0  0  0  0  0  0  0  0  0  0  0
   38.8790   30.5930   41.8030 C   0  0  0  0  0  0  0  0  0  0  0  0
   39.5000   31.7880   41.4330 C   0  0  0  0  0  0  0  0  0  0  0  0
   38.7910   32.6850   40.7050 N   0  0  0  0  0  0  0  0  0  0  0  0
   37.5050   32.4630   40.3260 C   0  0  0  0  0  0  0  0  0  0  0  0
   36.9050   31.3180   40.6780 N   0  0  0  0  0  0  0  0  0  0  0  0
   39.4300   29.8620   42.3850 H   0  0  0  0  0  0  0  0  0  0  0  0
   40.5290   32.0150   41.7110 H   0  0  0  0  0  0  0  0  0  0  0  0
   37.0710   33.2690   39.7500 H   0  0  0  0  0  0  0  0  0  0  0  0
   36.8810   29.1330   41.7810 C   0  0  0  0  0  3  0  0  0  0  0  0
   37.2350   28.5710   42.9290 C   0  0  0  0  0  3  0  0  0  0  0  0
   36.6130   27.3000   43.3870 C   0  0  0  0  0  2  0  0  0  0  0  0
   36.4230   26.6970   42.4510 H   0  0  0  0  0  0  0  0  0  0  0  0
  1 10  1  0  0  0  0
  1  2  1  0  0  0  0
  2  7  1  0  0  0  0
  3  8  1  0  0  0  0
  3  2  2  0  0  0  0
  4  3  1  0  0  0  0
  5  6  1  0  0  0  0
  5  4  2  0  0  0  0
  6  1  2  0  0  0  0
  9  5  1  0  0  0  0
 10 11  2  0  0  0  0
 11 12  1  0  0  0  0
 13 12  1  0  0  0  0
M  END
>  <minimizedAffinity>
-3.10182834

$$$$

 OpenBabel03242510453D

 13 13  0  0  0  0  0  0  0  0999 V2000
   37.7540   29.1360   41.8620 C   0  0  0  0  0  0  0  0  0  0  0  0
   36.7310   28.2780   41.3860 C   0  0  0  0  0  0  0  0  0  0  0  0
   35.6600   28.8540   40.7010 C   0  0  0  0  0  0  0  0  0  0  0  0
   35.6530   30.1980   40.5250 N   0  0  0  0  0  0  0  0  0  0  0  0
   36.6470   30.9990   40.9910 C   0  0  0  0  0  0  0  0  0  0  0  0
   37.6770   30.4520   41.6500 N   0  0  0  0  0  0  0  0  0  0  0  0
   36.7550   27.2040   41.5370 H   0  0  0  0  0  0  0  0  0  0  0  0
   34.8380   28.2570   40.3060 H   0  0  0  0  0  0  0  0  0  0  0  0
   36.5030   32.0500   40.7750 H   0  0  0  0  0  0  0  0  0  0  0  0
   38.8820   28.5360   42.5820 C   0  0  0  0  0  3  0  0  0  0  0  0
   38.7870   27.2640   42.9420 C   0  0  0  0  0  3  0  0  0  0  0  0
   39.8900   26.5870   43.6760 C   0  0  0  0  0  2  0  0  0  0  0  0
   40.3380   27.3740   44.3510 H   0  0  0  0  0  0  0  0  0  0  0  0
  1 10  1  0  0  0  0
  2  7  1  0  0  0  0
  2  1  2  0  0  0  0
  3  2  1  0  0  0  0
  4  3  2  0  0  0  0
  4  5  1  0  0  0  0
  5  6  2  0  0  0  0
  6  1  1  0  0  0  0
  8  3  1  0  0  0  0
  9  5  1  0  0  0  0
 10 11  2  0  0  0  0
 11 12  1  0  0  0  0
 12 13  1  0  0  0  0
M  END
>  <minimizedAffinity>
-3.08514953

$$$$
