
 OpenBabel03252506283D

 42 45  0  0  0  0  0  0  0  0999 V2000
   46.5720   30.6060   48.5310 C   0  0  0  0  0  0  0  0  0  0  0  0
   46.8080   31.3060   49.3520 H   0  0  0  0  0  0  0  0  0  0  0  0
   47.2540   29.7560   48.6280 H   0  0  0  0  0  0  0  0  0  0  0  0
   46.4680   32.6670   45.6180 C   0  0  0  0  0  0  0  0  0  0  0  0
   47.3510   31.6360   45.2060 C   0  0  0  0  0  0  0  0  0  0  0  0
   47.4900   30.7620   46.2260 C   0  0  0  0  0  0  0  0  0  0  0  0
   46.7270   31.2300   47.2300 N   0  0  0  0  0  0  0  0  0  0  0  0
   46.1090   32.3710   46.8780 N   0  0  0  0  0  0  0  0  0  0  0  0
   47.8020   31.6120   44.2270 H   0  0  0  0  0  0  0  0  0  0  0  0
   48.0820   29.8610   46.2730 H   0  0  0  0  0  0  0  0  0  0  0  0
   44.6850   35.6130   44.4010 C   0  0  0  0  0  0  0  0  0  0  0  0
   45.3430   35.9100   43.2010 C   0  0  0  0  0  0  0  0  0  0  0  0
   46.4010   35.0830   42.8260 C   0  0  0  0  0  0  0  0  0  0  0  0
   46.6950   34.0690   43.6540 N   0  0  0  0  0  0  0  0  0  0  0  0
   46.0750   33.7890   44.7860 C   0  0  0  0  0  0  0  0  0  0  0  0
   45.0590   34.5770   45.1550 N   0  0  0  0  0  0  0  0  0  0  0  0
   43.8680   36.2760   44.6630 H   0  0  0  0  0  0  0  0  0  0  0  0
   45.0960   36.7340   42.5380 H   0  0  0  0  0  0  0  0  0  0  0  0
   47.1890   35.2460   41.6190 C   0  0  0  0  0  3  0  0  0  0  0  0
   47.3370   34.2730   40.7460 C   0  0  0  0  0  3  0  0  0  0  0  0
   48.1250   34.4010   39.5170 C   0  0  0  0  0  2  0  0  0  0  0  0
   47.7980   33.6290   38.7630 H   0  0  0  0  0  0  0  0  0  0  0  0
   45.1830   30.1200   48.7110 C   0  0  0  0  0  0  0  0  0  0  0  0
   45.0600   29.8790   49.8000 H   0  0  0  0  0  0  0  0  0  0  0  0
   44.4750   30.9540   48.5180 H   0  0  0  0  0  0  0  0  0  0  0  0
   44.9080   27.5960   48.3430 C   0  0  0  0  0  0  0  0  0  0  0  0
   44.7990   28.9180   47.9740 C   0  0  0  0  0  0  0  0  0  0  0  0
   44.2480   29.1670   46.7250 C   0  0  0  0  0  0  0  0  0  0  0  0
   43.8330   28.1470   45.8990 C   0  0  0  0  0  0  0  0  0  0  0  0
   43.2790   28.0830   44.6730 N   0  0  0  0  0  0  0  0  0  0  0  0
   43.0570   26.8190   44.3000 C   0  0  0  0  0  0  0  0  0  0  0  0
   43.4790   25.9750   45.3240 C   0  0  0  0  0  0  0  0  0  0  0  0
   43.9450   26.8350   46.2750 C   0  0  0  0  0  0  0  0  0  0  0  0
   44.4890   26.5780   47.5140 C   0  0  0  0  0  0  0  0  0  0  0  0
   45.3450   27.4510   49.3330 H   0  0  0  0  0  0  0  0  0  0  0  0
   44.1070   30.1580   46.3120 H   0  0  0  0  0  0  0  0  0  0  0  0
   43.0560   28.9390   44.0930 H   0  0  0  0  0  0  0  0  0  0  0  0
   42.6160   26.5580   43.3460 H   0  0  0  0  0  0  0  0  0  0  0  0
   43.4110   24.9000   45.2770 H   0  0  0  0  0  0  0  0  0  0  0  0
   44.6360   25.2000   47.9740 C   0  0  0  0  0  0  0  0  0  0  0  0
   45.2250   24.9360   49.0580 O   0  0  0  0  0  0  0  0  0  0  0  0
   44.2330   24.3830   47.3780 H   0  0  0  0  0  0  0  0  0  0  0  0
  1  3  1  0  0  0  0
  1 23  1  0  0  0  0
  1  2  1  0  0  0  0
  4  8  2  0  0  0  0
  5  4  1  0  0  0  0
  5  6  2  0  0  0  0
  6 10  1  0  0  0  0
  6  7  1  0  0  0  0
  7  1  1  0  0  0  0
  8  7  1  0  0  0  0
  9  5  1  0  0  0  0
 11 17  1  0  0  0  0
 11 16  1  0  0  0  0
 12 11  2  0  0  0  0
 13 12  1  0  0  0  0
 13 14  2  0  0  0  0
 14 15  1  0  0  0  0
 15 16  2  0  0  0  0
 15  4  1  0  0  0  0
 18 12  1  0  0  0  0
 19 13  1  0  0  0  0
 20 19  2  0  0  0  0
 21 20  1  0  0  0  0
 22 21  1  0  0  0  0
 23 24  1  0  0  0  0
 25 23  1  0  0  0  0
 26 35  1  0  0  0  0
 27 26  1  0  0  0  0
 27 23  1  0  0  0  0
 28 27  2  0  0  0  0
 29 33  2  0  0  0  0
 29 28  1  0  0  0  0
 30 29  1  0  0  0  0
 31 30  1  0  0  0  0
 31 32  2  0  0  0  0
 32 33  1  0  0  0  0
 33 34  1  0  0  0  0
 34 40  1  0  0  0  0
 34 26  2  0  0  0  0
 36 28  1  0  0  0  0
 37 30  1  0  0  0  0
 38 31  1  0  0  0  0
 39 32  1  0  0  0  0
 40 41  2  0  0  0  0
 42 40  1  0  0  0  0
M  END
>  <minimizedAffinity>
-5.60045815

>  <minimizedRMSD>
0.61855793

$$$$
