
 OpenBabel03242510153D

 13 13  0  0  0  0  0  0  0  0999 V2000
   44.2980   35.7880   44.1920 C   0  0  0  0  0  0  0  0  0  0  0  0
   44.4710   34.9370   43.0910 C   0  0  0  0  0  0  0  0  0  0  0  0
   45.0880   33.7060   43.3050 C   0  0  0  0  0  0  0  0  0  0  0  0
   45.4960   33.3850   44.5700 N   0  0  0  0  0  0  0  0  0  0  0  0
   45.3100   34.2340   45.6030 C   0  0  0  0  0  0  0  0  0  0  0  0
   44.7180   35.4170   45.4040 N   0  0  0  0  0  0  0  0  0  0  0  0
   43.8090   36.7300   43.9520 H   0  0  0  0  0  0  0  0  0  0  0  0
   45.2650   32.9840   42.5210 H   0  0  0  0  0  0  0  0  0  0  0  0
   45.6490   33.9410   46.5930 H   0  0  0  0  0  0  0  0  0  0  0  0
   44.0310   35.2910   41.7470 C   0  0  0  0  0  0  0  0  0  0  0  0
   43.0080   34.7610   41.1030 C   0  0  0  0  0  0  0  0  0  0  0  0
   42.6380   35.1990   39.7140 C   0  0  0  0  0  0  0  0  0  0  0  0
   41.5740   35.0130   39.5040 H   0  0  0  0  0  0  0  0  0  0  0  0
  1  6  1  0  0  0  0
  2  3  1  0  0  0  0
  2  1  2  0  0  0  0
  3  4  2  0  0  0  0
  4  5  1  0  0  0  0
  5  9  1  0  0  0  0
  6  5  2  0  0  0  0
  7  1  1  0  0  0  0
  8  3  1  0  0  0  0
 10  2  1  0  0  0  0
 11 10  2  0  0  0  0
 12 11  1  0  0  0  0
 13 12  1  0  0  0  0
M  END
>  <minimizedAffinity>
-3.15885735

>  <minimizedRMSD>
1.51928997

$$$$
