
 OpenBabel03252506183D

 18 18  0  0  0  0  0  0  0  0999 V2000
   44.9040   35.4700   44.0800 C   0  0  0  0  0  0  0  0  0  0  0  0
   44.4480   35.0050   42.8090 C   0  0  0  0  0  0  0  0  0  0  0  0
   44.5640   33.6300   42.5550 C   0  0  0  0  0  0  0  0  0  0  0  0
   45.0950   32.8270   43.5170 N   0  0  0  0  0  0  0  0  0  0  0  0
   45.5110   33.3170   44.7040 C   0  0  0  0  0  0  0  0  0  0  0  0
   45.4160   34.6160   44.9770 N   0  0  0  0  0  0  0  0  0  0  0  0
   44.0420   35.7300   42.1160 H   0  0  0  0  0  0  0  0  0  0  0  0
   44.2200   33.2700   41.5940 H   0  0  0  0  0  0  0  0  0  0  0  0
   44.7850   36.9110   44.3510 C   0  0  0  0  0  3  0  0  0  0  0  0
   45.4210   37.7440   43.5380 C   0  0  0  0  0  3  0  0  0  0  0  0
   45.3220   39.2180   43.7860 C   0  0  0  0  0  0  0  0  0  0  0  0
   45.7850   39.3880   44.7930 H   0  0  0  0  0  0  0  0  0  0  0  0
   44.2950   39.5830   43.8410 H   0  0  0  0  0  0  0  0  0  0  0  0
   45.9250   39.7720   43.0650 H   0  0  0  0  0  0  0  0  0  0  0  0
   46.0740   32.4200   45.7040 C   0  0  0  0  0  3  0  0  0  0  0  0
   46.1160   31.1080   45.5390 C   0  0  0  0  0  3  0  0  0  0  0  0
   46.6770   30.1580   46.5270 C   0  0  0  0  0  2  0  0  0  0  0  0
   46.9470   30.7540   47.4380 H   0  0  0  0  0  0  0  0  0  0  0  0
  1  9  1  0  0  0  0
  1  6  1  0  0  0  0
  2  1  2  0  0  0  0
  3  2  1  0  0  0  0
  3  4  2  0  0  0  0
  4  5  1  0  0  0  0
  5  6  2  0  0  0  0
  5 15  1  0  0  0  0
  7  2  1  0  0  0  0
  8  3  1  0  0  0  0
 10 11  1  0  0  0  0
 10  9  2  0  0  0  0
 11 13  1  0  0  0  0
 11 12  1  0  0  0  0
 14 11  1  0  0  0  0
 16 15  2  0  0  0  0
 16 17  1  0  0  0  0
 17 18  1  0  0  0  0
M  END
>  <minimizedAffinity>
-2.78134131

>  <minimizedRMSD>
1.12411308

$$$$
