
 OpenBabel03242523213D

 32 34  0  0  0  0  0  0  0  0999 V2000
   36.4560   27.5290   39.9300 C   0  0  0  0  0  0  0  0  0  0  0  0
   36.9580   27.3270   41.1580 C   0  0  0  0  0  0  0  0  0  0  0  0
   37.9290   26.3470   41.2210 C   0  0  0  0  0  0  0  0  0  0  0  0
   38.2940   25.6670   40.0440 N   0  0  0  0  0  0  0  0  0  0  0  0
   37.7390   25.9330   38.8760 C   0  0  0  0  0  0  0  0  0  0  0  0
   36.7740   26.8980   38.7660 N   0  0  0  0  0  0  0  0  0  0  0  0
   38.4500   26.0500   42.1300 H   0  0  0  0  0  0  0  0  0  0  0  0
   38.1240   25.3220   38.0560 H   0  0  0  0  0  0  0  0  0  0  0  0
   36.5110   27.9260   42.3590 C   0  0  0  0  0  0  0  0  0  0  0  0
   36.6580   27.4790   43.6390 C   0  0  0  0  0  0  0  0  0  0  0  0
   37.6230   28.5770   43.2870 C   0  0  0  0  0  0  0  0  0  0  0  0
   35.5950   28.5370   42.2490 H   0  0  0  0  0  0  0  0  0  0  0  0
   37.1870   26.4940   43.8140 H   0  0  0  0  0  0  0  0  0  0  0  0
   36.0760   27.7360   44.5530 H   0  0  0  0  0  0  0  0  0  0  0  0
   37.4020   29.6290   43.5840 H   0  0  0  0  0  0  0  0  0  0  0  0
   38.6510   28.3160   42.9650 H   0  0  0  0  0  0  0  0  0  0  0  0
   35.4870   28.5630   39.5430 C   0  0  0  0  0  0  0  0  0  0  0  0
   34.3740   29.0150   39.4420 O   0  0  0  0  0  0  0  0  0  0  0  0
   36.1160   31.0470   41.2560 Cl  0  0  0  0  0  0  0  0  0  0  0  0
   36.5910   30.9040   39.5590 C   0  0  0  0  0  0  0  0  0  0  0  0
   36.2340   29.7110   38.9330 C   0  0  0  0  0  0  0  0  0  0  0  0
   36.6510   29.7010   37.6120 C   0  0  0  0  0  0  0  0  0  0  0  0
   37.3070   30.6420   36.9150 C   0  0  0  0  0  0  0  0  0  0  0  0
   37.6170   31.7790   37.6000 C   0  0  0  0  0  0  0  0  0  0  0  0
   37.2770   31.9330   38.9030 C   0  0  0  0  0  0  0  0  0  0  0  0
   36.4670   28.7960   36.9940 H   0  0  0  0  0  0  0  0  0  0  0  0
   37.6010   30.5680   35.8780 H   0  0  0  0  0  0  0  0  0  0  0  0
   38.1460   32.5670   37.0820 H   0  0  0  0  0  0  0  0  0  0  0  0
   37.5720   33.1190   39.7140 C   0  0  0  0  0  3  0  0  0  0  0  0
   38.6420   33.4150   40.4140 C   0  0  0  0  0  3  0  0  0  0  0  0
   39.9440   32.7740   40.7070 C   0  0  0  0  0  2  0  0  0  0  0  0
   40.5890   33.3810   41.4000 H   0  0  0  0  0  0  0  0  0  0  0  0
  1  2  1  0  0  0  0
  2  3  2  0  0  0  0
  2  9  1  0  0  0  0
  3  7  1  0  0  0  0
  4  3  1  0  0  0  0
  5  4  2  0  0  0  0
  6  5  1  0  0  0  0
  6  1  2  0  0  0  0
  8  5  1  0  0  0  0
  9 11  1  0  0  0  0
  9 10  1  0  0  0  0
 10 13  1  0  0  0  0
 10 14  1  0  0  0  0
 11 15  1  0  0  0  0
 11 10  1  0  0  0  0
 12  9  1  0  0  0  0
 16 11  1  0  0  0  0
 17  1  1  0  0  0  0
 18 17  2  0  0  0  0
 20 19  1  0  0  0  0
 21 17  1  0  0  0  0
 21 20  1  0  0  0  0
 22 21  2  0  0  0  0
 23 24  2  0  0  0  0
 23 22  1  0  0  0  0
 24 25  1  0  0  0  0
 25 20  2  0  0  0  0
 25 29  1  0  0  0  0
 26 22  1  0  0  0  0
 27 23  1  0  0  0  0
 28 24  1  0  0  0  0
 29 30  2  0  0  0  0
 30 31  1  0  0  0  0
 31 32  1  0  0  0  0
M  END
>  <minimizedAffinity>
-5.77729082

$$$$

 OpenBabel03242523213D

 32 34  0  0  0  0  0  0  0  0999 V2000
   37.9650   30.2130   39.3110 C   0  0  0  0  0  0  0  0  0  0  0  0
   38.5020   31.4400   39.3930 C   0  0  0  0  0  0  0  0  0  0  0  0
   39.6660   31.6020   38.6690 C   0  0  0  0  0  0  0  0  0  0  0  0
   40.1750   30.5120   37.9390 N   0  0  0  0  0  0  0  0  0  0  0  0
   39.5770   29.3350   37.9210 C   0  0  0  0  0  0  0  0  0  0  0  0
   38.4200   29.1290   38.6220 N   0  0  0  0  0  0  0  0  0  0  0  0
   40.2380   32.5270   38.6130 H   0  0  0  0  0  0  0  0  0  0  0  0
   40.0920   28.5880   37.3120 H   0  0  0  0  0  0  0  0  0  0  0  0
   38.0560   32.5010   40.2170 C   0  0  0  0  0  0  0  0  0  0  0  0
   38.4820   33.7950   40.2430 C   0  0  0  0  0  0  0  0  0  0  0  0
   37.1750   33.6230   39.5200 C   0  0  0  0  0  0  0  0  0  0  0  0
   37.6830   32.1800   41.2090 H   0  0  0  0  0  0  0  0  0  0  0  0
   39.3130   34.1090   39.5410 H   0  0  0  0  0  0  0  0  0  0  0  0
   38.3950   34.5560   41.0510 H   0  0  0  0  0  0  0  0  0  0  0  0
   36.2150   33.8340   40.0470 H   0  0  0  0  0  0  0  0  0  0  0  0
   37.1710   33.5340   38.4160 H   0  0  0  0  0  0  0  0  0  0  0  0
   36.6880   29.7790   39.8920 C   0  0  0  0  0  0  0  0  0  0  0  0
   35.4840   29.7350   39.9400 O   0  0  0  0  0  0  0  0  0  0  0  0
   36.3530   26.7240   39.6580 Cl  0  0  0  0  0  0  0  0  0  0  0  0
   36.8680   27.5230   41.1480 C   0  0  0  0  0  0  0  0  0  0  0  0
   36.9760   28.9110   41.0800 C   0  0  0  0  0  0  0  0  0  0  0  0
   37.3840   29.4360   42.2960 C   0  0  0  0  0  0  0  0  0  0  0  0
   37.6630   28.8070   43.4480 C   0  0  0  0  0  0  0  0  0  0  0  0
   37.5310   27.4510   43.4310 C   0  0  0  0  0  0  0  0  0  0  0  0
   37.1440   26.7930   42.3110 C   0  0  0  0  0  0  0  0  0  0  0  0
   37.5480   30.5310   42.3840 H   0  0  0  0  0  0  0  0  0  0  0  0
   37.9760   29.2840   44.3660 H   0  0  0  0  0  0  0  0  0  0  0  0
   37.7450   26.8990   44.3360 H   0  0  0  0  0  0  0  0  0  0  0  0
   36.9780   25.3400   42.2040 C   0  0  0  0  0  3  0  0  0  0  0  0
   37.8800   24.3870   42.2330 C   0  0  0  0  0  3  0  0  0  0  0  0
   39.3520   24.3050   42.3720 C   0  0  0  0  0  2  0  0  0  0  0  0
   39.7420   23.2520   42.3190 H   0  0  0  0  0  0  0  0  0  0  0  0
  1  2  1  0  0  0  0
  1 17  1  0  0  0  0
  2  9  1  0  0  0  0
  3  2  2  0  0  0  0
  4  3  1  0  0  0  0
  5  4  2  0  0  0  0
  5  6  1  0  0  0  0
  6  1  2  0  0  0  0
  7  3  1  0  0  0  0
  8  5  1  0  0  0  0
  9 10  1  0  0  0  0
  9 12  1  0  0  0  0
 10 14  1  0  0  0  0
 11 15  1  0  0  0  0
 11  9  1  0  0  0  0
 11 10  1  0  0  0  0
 13 10  1  0  0  0  0
 16 11  1  0  0  0  0
 17 18  2  0  0  0  0
 17 21  1  0  0  0  0
 19 20  1  0  0  0  0
 20 25  1  0  0  0  0
 21 20  2  0  0  0  0
 21 22  1  0  0  0  0
 22 26  1  0  0  0  0
 22 23  2  0  0  0  0
 23 27  1  0  0  0  0
 24 23  1  0  0  0  0
 24 28  1  0  0  0  0
 25 24  2  0  0  0  0
 29 30  2  0  0  0  0
 29 25  1  0  0  0  0
 30 31  1  0  0  0  0
 32 31  1  0  0  0  0
M  END
>  <minimizedAffinity>
-5.56292009

$$$$

 OpenBabel03242523213D

 32 34  0  0  0  0  0  0  0  0999 V2000
   39.0550   26.7620   42.9270 C   0  0  0  0  0  0  0  0  0  0  0  0
   38.9170   25.6590   42.1750 C   0  0  0  0  0  0  0  0  0  0  0  0
   40.0150   24.8220   42.1860 C   0  0  0  0  0  0  0  0  0  0  0  0
   41.1420   25.1810   42.9480 N   0  0  0  0  0  0  0  0  0  0  0  0
   41.1880   26.2930   43.6580 C   0  0  0  0  0  0  0  0  0  0  0  0
   40.1220   27.1520   43.6780 N   0  0  0  0  0  0  0  0  0  0  0  0
   40.0830   23.8830   41.6390 H   0  0  0  0  0  0  0  0  0  0  0  0
   42.1290   26.4360   44.1950 H   0  0  0  0  0  0  0  0  0  0  0  0
   37.8330   25.3550   41.3170 C   0  0  0  0  0  0  0  0  0  0  0  0
   37.4790   24.1490   40.7880 C   0  0  0  0  0  0  0  0  0  0  0  0
   36.6230   24.5500   41.9570 C   0  0  0  0  0  0  0  0  0  0  0  0
   37.5270   26.1890   40.6580 H   0  0  0  0  0  0  0  0  0  0  0  0
   38.1150   23.2430   41.0240 H   0  0  0  0  0  0  0  0  0  0  0  0
   36.8560   23.9210   39.8940 H   0  0  0  0  0  0  0  0  0  0  0  0
   35.6270   25.0210   41.7820 H   0  0  0  0  0  0  0  0  0  0  0  0
   36.8600   24.1580   42.9650 H   0  0  0  0  0  0  0  0  0  0  0  0
   38.0250   27.7770   43.1830 C   0  0  0  0  0  0  0  0  0  0  0  0
   37.0000   28.1730   43.6800 O   0  0  0  0  0  0  0  0  0  0  0  0
   36.5980   28.4800   40.5430 Cl  0  0  0  0  0  0  0  0  0  0  0  0
   37.8640   29.4910   41.2490 C   0  0  0  0  0  0  0  0  0  0  0  0
   38.4000   29.0310   42.4510 C   0  0  0  0  0  0  0  0  0  0  0  0
   39.3810   29.8920   42.9180 C   0  0  0  0  0  0  0  0  0  0  0  0
   39.8420   31.0330   42.3820 C   0  0  0  0  0  0  0  0  0  0  0  0
   39.2660   31.4110   41.2060 C   0  0  0  0  0  0  0  0  0  0  0  0
   38.2890   30.6710   40.6270 C   0  0  0  0  0  0  0  0  0  0  0  0
   39.8750   29.6730   43.8880 H   0  0  0  0  0  0  0  0  0  0  0  0
   40.6160   31.6580   42.8020 H   0  0  0  0  0  0  0  0  0  0  0  0
   39.6050   32.3230   40.7350 H   0  0  0  0  0  0  0  0  0  0  0  0
   37.6170   31.0040   39.3680 C   0  0  0  0  0  3  0  0  0  0  0  0
   37.1850   32.1620   38.9250 C   0  0  0  0  0  3  0  0  0  0  0  0
   37.1610   33.5580   39.4180 C   0  0  0  0  0  2  0  0  0  0  0  0
   36.6550   34.2680   38.7070 H   0  0  0  0  0  0  0  0  0  0  0  0
  1 17  1  0  0  0  0
  1  6  1  0  0  0  0
  2  3  1  0  0  0  0
  2  1  2  0  0  0  0
  3  4  2  0  0  0  0
  4  5  1  0  0  0  0
  5  6  2  0  0  0  0
  5  8  1  0  0  0  0
  7  3  1  0  0  0  0
  9 11  1  0  0  0  0
  9  2  1  0  0  0  0
 10 13  1  0  0  0  0
 10  9  1  0  0  0  0
 10 11  1  0  0  0  0
 11 16  1  0  0  0  0
 12  9  1  0  0  0  0
 14 10  1  0  0  0  0
 15 11  1  0  0  0  0
 17 18  2  0  0  0  0
 19 20  1  0  0  0  0
 20 21  1  0  0  0  0
 21 22  2  0  0  0  0
 21 17  1  0  0  0  0
 22 26  1  0  0  0  0
 23 27  1  0  0  0  0
 23 22  1  0  0  0  0
 24 23  2  0  0  0  0
 25 24  1  0  0  0  0
 25 20  2  0  0  0  0
 28 24  1  0  0  0  0
 29 25  1  0  0  0  0
 30 29  2  0  0  0  0
 30 31  1  0  0  0  0
 32 31  1  0  0  0  0
M  END
>  <minimizedAffinity>
-5.39345837

$$$$

 OpenBabel03242523213D

 32 34  0  0  0  0  0  0  0  0999 V2000
   37.3290   28.9360   42.2180 C   0  0  0  0  0  0  0  0  0  0  0  0
   36.7320   29.4040   41.1110 C   0  0  0  0  0  0  0  0  0  0  0  0
   37.3580   30.4970   40.5450 C   0  0  0  0  0  0  0  0  0  0  0  0
   38.5190   31.0110   41.1510 N   0  0  0  0  0  0  0  0  0  0  0  0
   39.0340   30.4840   42.2470 C   0  0  0  0  0  0  0  0  0  0  0  0
   38.4480   29.3990   42.8410 N   0  0  0  0  0  0  0  0  0  0  0  0
   37.0190   31.0070   39.6440 H   0  0  0  0  0  0  0  0  0  0  0  0
   39.9340   30.9930   42.6000 H   0  0  0  0  0  0  0  0  0  0  0  0
   35.5020   28.9620   40.5670 C   0  0  0  0  0  0  0  0  0  0  0  0
   34.7620   29.5240   39.5680 C   0  0  0  0  0  0  0  0  0  0  0  0
   35.5530   28.3290   39.1120 C   0  0  0  0  0  0  0  0  0  0  0  0
   34.8610   28.4110   41.2810 H   0  0  0  0  0  0  0  0  0  0  0  0
   35.1320   30.4800   39.0890 H   0  0  0  0  0  0  0  0  0  0  0  0
   33.6820   29.4030   39.3310 H   0  0  0  0  0  0  0  0  0  0  0  0
   35.0610   27.3310   39.0370 H   0  0  0  0  0  0  0  0  0  0  0  0
   36.5330   28.4810   38.6170 H   0  0  0  0  0  0  0  0  0  0  0  0
   36.9470   27.7360   42.9740 C   0  0  0  0  0  0  0  0  0  0  0  0
   36.2100   27.0950   43.6800 O   0  0  0  0  0  0  0  0  0  0  0  0
   36.7520   25.6410   40.7220 Cl  0  0  0  0  0  0  0  0  0  0  0  0
   38.0960   25.6960   41.8700 C   0  0  0  0  0  0  0  0  0  0  0  0
   38.0320   26.7130   42.8210 C   0  0  0  0  0  0  0  0  0  0  0  0
   39.1280   26.6670   43.6690 C   0  0  0  0  0  0  0  0  0  0  0  0
   40.1660   25.8160   43.6790 C   0  0  0  0  0  0  0  0  0  0  0  0
   40.1510   24.8510   42.7170 C   0  0  0  0  0  0  0  0  0  0  0  0
   39.1450   24.7700   41.8130 C   0  0  0  0  0  0  0  0  0  0  0  0
   39.2320   27.4410   44.4590 H   0  0  0  0  0  0  0  0  0  0  0  0
   40.9910   25.8380   44.3760 H   0  0  0  0  0  0  0  0  0  0  0  0
   40.9660   24.1410   42.6840 H   0  0  0  0  0  0  0  0  0  0  0  0
   39.0510   23.7680   40.7470 C   0  0  0  0  0  3  0  0  0  0  0  0
   39.5220   23.7960   39.5220 C   0  0  0  0  0  3  0  0  0  0  0  0
   40.2970   24.7460   38.6910 C   0  0  0  0  0  2  0  0  0  0  0  0
   40.4760   24.3740   37.6450 H   0  0  0  0  0  0  0  0  0  0  0  0
  1  6  1  0  0  0  0
  1 17  1  0  0  0  0
  2  1  2  0  0  0  0
  3  2  1  0  0  0  0
  3  4  2  0  0  0  0
  4  5  1  0  0  0  0
  5  8  1  0  0  0  0
  5  6  2  0  0  0  0
  7  3  1  0  0  0  0
  9  2  1  0  0  0  0
  9 12  1  0  0  0  0
 10  9  1  0  0  0  0
 11 10  1  0  0  0  0
 11  9  1  0  0  0  0
 13 10  1  0  0  0  0
 14 10  1  0  0  0  0
 15 11  1  0  0  0  0
 16 11  1  0  0  0  0
 17 18  2  0  0  0  0
 19 20  1  0  0  0  0
 20 21  1  0  0  0  0
 21 17  1  0  0  0  0
 21 22  2  0  0  0  0
 22 23  1  0  0  0  0
 22 26  1  0  0  0  0
 23 27  1  0  0  0  0
 24 23  2  0  0  0  0
 25 20  2  0  0  0  0
 25 24  1  0  0  0  0
 28 24  1  0  0  0  0
 29 25  1  0  0  0  0
 30 29  2  0  0  0  0
 31 30  1  0  0  0  0
 32 31  1  0  0  0  0
M  END
>  <minimizedAffinity>
-5.352952

$$$$

 OpenBabel03242523213D

 32 34  0  0  0  0  0  0  0  0999 V2000
   37.1760   30.6490   39.7770 C   0  0  0  0  0  0  0  0  0  0  0  0
   38.2140   30.3360   38.9860 C   0  0  0  0  0  0  0  0  0  0  0  0
   39.1090   31.3670   38.7860 C   0  0  0  0  0  0  0  0  0  0  0  0
   38.8700   32.6100   39.3990 N   0  0  0  0  0  0  0  0  0  0  0  0
   37.8140   32.8280   40.1620 C   0  0  0  0  0  0  0  0  0  0  0  0
   36.9010   31.8340   40.3900 N   0  0  0  0  0  0  0  0  0  0  0  0
   40.0100   31.2960   38.1780 H   0  0  0  0  0  0  0  0  0  0  0  0
   37.7640   33.8420   40.5660 H   0  0  0  0  0  0  0  0  0  0  0  0
   38.3950   29.1240   38.2760 C   0  0  0  0  0  0  0  0  0  0  0  0
   39.4240   28.7630   37.4580 C   0  0  0  0  0  0  0  0  0  0  0  0
   39.5130   28.1390   38.8230 C   0  0  0  0  0  0  0  0  0  0  0  0
   37.4520   28.6250   37.9810 H   0  0  0  0  0  0  0  0  0  0  0  0
   40.2620   29.5030   37.2790 H   0  0  0  0  0  0  0  0  0  0  0  0
   39.4590   27.9880   36.6600 H   0  0  0  0  0  0  0  0  0  0  0  0
   39.1540   27.0950   38.9820 H   0  0  0  0  0  0  0  0  0  0  0  0
   40.1520   28.6090   39.5960 H   0  0  0  0  0  0  0  0  0  0  0  0
   36.1250   29.7340   40.2410 C   0  0  0  0  0  0  0  0  0  0  0  0
   35.0040   29.2900   40.2410 O   0  0  0  0  0  0  0  0  0  0  0  0
   36.2830   26.7000   39.7270 Cl  0  0  0  0  0  0  0  0  0  0  0  0
   36.8430   27.4510   41.2260 C   0  0  0  0  0  0  0  0  0  0  0  0
   36.7050   28.8360   41.2920 C   0  0  0  0  0  0  0  0  0  0  0  0
   37.1710   29.3230   42.5030 C   0  0  0  0  0  0  0  0  0  0  0  0
   37.6980   28.6610   43.5450 C   0  0  0  0  0  0  0  0  0  0  0  0
   37.7960   27.3100   43.4000 C   0  0  0  0  0  0  0  0  0  0  0  0
   37.3840   26.6880   42.2680 C   0  0  0  0  0  0  0  0  0  0  0  0
   37.1580   30.4190   42.6860 H   0  0  0  0  0  0  0  0  0  0  0  0
   38.0410   29.1080   44.4660 H   0  0  0  0  0  0  0  0  0  0  0  0
   38.2140   26.7320   44.2130 H   0  0  0  0  0  0  0  0  0  0  0  0
   37.4540   25.2440   42.0290 C   0  0  0  0  0  3  0  0  0  0  0  0
   38.3970   24.3840   42.3390 C   0  0  0  0  0  3  0  0  0  0  0  0
   39.7160   24.4330   43.0110 C   0  0  0  0  0  2  0  0  0  0  0  0
   40.2280   23.4340   43.0500 H   0  0  0  0  0  0  0  0  0  0  0  0
  1 17  1  0  0  0  0
  1  6  1  0  0  0  0
  2  1  2  0  0  0  0
  3  2  1  0  0  0  0
  3  4  2  0  0  0  0
  4  5  1  0  0  0  0
  5  6  2  0  0  0  0
  5  8  1  0  0  0  0
  7  3  1  0  0  0  0
  9 11  1  0  0  0  0
  9  2  1  0  0  0  0
 10  9  1  0  0  0  0
 10 11  1  0  0  0  0
 11 15  1  0  0  0  0
 11 16  1  0  0  0  0
 12  9  1  0  0  0  0
 13 10  1  0  0  0  0
 14 10  1  0  0  0  0
 17 21  1  0  0  0  0
 18 17  2  0  0  0  0
 19 20  1  0  0  0  0
 20 21  2  0  0  0  0
 20 25  1  0  0  0  0
 21 22  1  0  0  0  0
 22 26  1  0  0  0  0
 22 23  2  0  0  0  0
 23 27  1  0  0  0  0
 24 23  1  0  0  0  0
 24 28  1  0  0  0  0
 25 24  2  0  0  0  0
 29 25  1  0  0  0  0
 29 30  2  0  0  0  0
 30 31  1  0  0  0  0
 31 32  1  0  0  0  0
M  END
>  <minimizedAffinity>
-5.34177208

$$$$

 OpenBabel03242523213D

 32 34  0  0  0  0  0  0  0  0999 V2000
   38.6190   30.9210   40.1920 C   0  0  0  0  0  0  0  0  0  0  0  0
   37.6610   30.9730   39.2550 C   0  0  0  0  0  0  0  0  0  0  0  0
   37.1380   32.2340   39.0450 C   0  0  0  0  0  0  0  0  0  0  0  0
   37.6300   33.3130   39.8020 N   0  0  0  0  0  0  0  0  0  0  0  0
   38.5780   33.1640   40.7090 C   0  0  0  0  0  0  0  0  0  0  0  0
   39.1270   31.9330   40.9490 N   0  0  0  0  0  0  0  0  0  0  0  0
   36.3570   32.4680   38.3240 H   0  0  0  0  0  0  0  0  0  0  0  0
   38.8530   34.0920   41.2160 H   0  0  0  0  0  0  0  0  0  0  0  0
   37.0840   29.8720   38.5780 C   0  0  0  0  0  0  0  0  0  0  0  0
   36.3290   29.8720   37.4420 C   0  0  0  0  0  0  0  0  0  0  0  0
   37.7530   29.4540   37.1990 C   0  0  0  0  0  0  0  0  0  0  0  0
   36.8240   29.0200   39.2340 H   0  0  0  0  0  0  0  0  0  0  0  0
   36.0910   30.8610   36.9470 H   0  0  0  0  0  0  0  0  0  0  0  0
   35.6170   29.1050   37.0630 H   0  0  0  0  0  0  0  0  0  0  0  0
   38.0130   28.3710   37.1350 H   0  0  0  0  0  0  0  0  0  0  0  0
   38.4860   30.2020   36.8390 H   0  0  0  0  0  0  0  0  0  0  0  0
   39.4180   29.7430   40.5580 C   0  0  0  0  0  0  0  0  0  0  0  0
   40.4090   29.0570   40.5200 O   0  0  0  0  0  0  0  0  0  0  0  0
   38.5850   26.9090   39.6790 Cl  0  0  0  0  0  0  0  0  0  0  0  0
   38.1450   27.5980   41.2470 C   0  0  0  0  0  0  0  0  0  0  0  0
   38.6090   28.8890   41.4880 C   0  0  0  0  0  0  0  0  0  0  0  0
   38.2110   29.3340   42.7380 C   0  0  0  0  0  0  0  0  0  0  0  0
   37.4800   28.7090   43.6750 C   0  0  0  0  0  0  0  0  0  0  0  0
   37.0640   27.4500   43.3600 C   0  0  0  0  0  0  0  0  0  0  0  0
   37.3790   26.8780   42.1720 C   0  0  0  0  0  0  0  0  0  0  0  0
   38.5390   30.3370   43.0850 H   0  0  0  0  0  0  0  0  0  0  0  0
   37.2030   29.1190   44.6350 H   0  0  0  0  0  0  0  0  0  0  0  0
   36.4710   26.9060   44.0820 H   0  0  0  0  0  0  0  0  0  0  0  0
   36.9750   25.5320   41.7530 C   0  0  0  0  0  3  0  0  0  0  0  0
   37.6490   24.4060   41.7790 C   0  0  0  0  0  3  0  0  0  0  0  0
   39.0030   23.9740   42.1950 C   0  0  0  0  0  2  0  0  0  0  0  0
   39.1900   22.8800   42.0190 H   0  0  0  0  0  0  0  0  0  0  0  0
  1 17  1  0  0  0  0
  1  6  1  0  0  0  0
  2  1  2  0  0  0  0
  3  2  1  0  0  0  0
  3  4  2  0  0  0  0
  4  5  1  0  0  0  0
  5  6  2  0  0  0  0
  5  8  1  0  0  0  0
  7  3  1  0  0  0  0
  9 12  1  0  0  0  0
  9  2  1  0  0  0  0
 10  9  1  0  0  0  0
 11 10  1  0  0  0  0
 11  9  1  0  0  0  0
 13 10  1  0  0  0  0
 14 10  1  0  0  0  0
 15 11  1  0  0  0  0
 16 11  1  0  0  0  0
 17 21  1  0  0  0  0
 18 17  2  0  0  0  0
 19 20  1  0  0  0  0
 20 21  2  0  0  0  0
 20 25  1  0  0  0  0
 21 22  1  0  0  0  0
 22 26  1  0  0  0  0
 22 23  2  0  0  0  0
 23 27  1  0  0  0  0
 24 23  1  0  0  0  0
 24 28  1  0  0  0  0
 25 24  2  0  0  0  0
 29 30  2  0  0  0  0
 29 25  1  0  0  0  0
 30 31  1  0  0  0  0
 32 31  1  0  0  0  0
M  END
>  <minimizedAffinity>
-5.32104635

$$$$

 OpenBabel03242523213D

 32 34  0  0  0  0  0  0  0  0999 V2000
   37.4010   30.2630   40.6210 C   0  0  0  0  0  0  0  0  0  0  0  0
   37.8650   30.9420   39.5600 C   0  0  0  0  0  0  0  0  0  0  0  0
   39.1040   31.5180   39.7510 C   0  0  0  0  0  0  0  0  0  0  0  0
   39.7510   31.3570   40.9900 N   0  0  0  0  0  0  0  0  0  0  0  0
   39.2140   30.6710   41.9820 C   0  0  0  0  0  0  0  0  0  0  0  0
   37.9870   30.0800   41.8370 N   0  0  0  0  0  0  0  0  0  0  0  0
   39.6370   32.1020   39.0020 H   0  0  0  0  0  0  0  0  0  0  0  0
   39.8340   30.6360   42.8810 H   0  0  0  0  0  0  0  0  0  0  0  0
   37.1660   31.2030   38.3570 C   0  0  0  0  0  0  0  0  0  0  0  0
   37.6460   31.7130   37.1880 C   0  0  0  0  0  0  0  0  0  0  0  0
   37.4520   30.2230   37.1410 C   0  0  0  0  0  0  0  0  0  0  0  0
   36.0970   31.4540   38.4970 H   0  0  0  0  0  0  0  0  0  0  0  0
   38.7400   31.9960   37.1260 H   0  0  0  0  0  0  0  0  0  0  0  0
   37.1030   32.2140   36.3550 H   0  0  0  0  0  0  0  0  0  0  0  0
   36.5300   29.7960   36.6810 H   0  0  0  0  0  0  0  0  0  0  0  0
   38.3160   29.5550   37.3280 H   0  0  0  0  0  0  0  0  0  0  0  0
   36.1650   29.4710   40.6780 C   0  0  0  0  0  0  0  0  0  0  0  0
   34.9770   29.3140   40.5440 O   0  0  0  0  0  0  0  0  0  0  0  0
   36.7870   27.2540   38.6290 Cl  0  0  0  0  0  0  0  0  0  0  0  0
   36.8010   26.9800   40.3750 C   0  0  0  0  0  0  0  0  0  0  0  0
   36.5050   28.0930   41.1610 C   0  0  0  0  0  0  0  0  0  0  0  0
   36.5420   27.7710   42.5080 C   0  0  0  0  0  0  0  0  0  0  0  0
   36.8090   26.5970   43.1000 C   0  0  0  0  0  0  0  0  0  0  0  0
   37.0870   25.5600   42.2600 C   0  0  0  0  0  0  0  0  0  0  0  0
   37.0920   25.7210   40.9150 C   0  0  0  0  0  0  0  0  0  0  0  0
   36.3610   28.5690   43.2590 H   0  0  0  0  0  0  0  0  0  0  0  0
   36.8190   26.4160   44.1650 H   0  0  0  0  0  0  0  0  0  0  0  0
   37.3080   24.5920   42.6900 H   0  0  0  0  0  0  0  0  0  0  0  0
   37.3810   24.6640   39.9420 C   0  0  0  0  0  3  0  0  0  0  0  0
   36.5990   23.7230   39.4640 C   0  0  0  0  0  3  0  0  0  0  0  0
   35.1910   23.3030   39.6460 C   0  0  0  0  0  2  0  0  0  0  0  0
   34.9190   22.3960   39.0400 H   0  0  0  0  0  0  0  0  0  0  0  0
  1 17  1  0  0  0  0
  1  6  1  0  0  0  0
  2  3  1  0  0  0  0
  2  1  2  0  0  0  0
  3  4  2  0  0  0  0
  4  5  1  0  0  0  0
  5  8  1  0  0  0  0
  6  5  2  0  0  0  0
  7  3  1  0  0  0  0
  9 12  1  0  0  0  0
  9  2  1  0  0  0  0
 10  9  1  0  0  0  0
 11 10  1  0  0  0  0
 11 16  1  0  0  0  0
 11  9  1  0  0  0  0
 13 10  1  0  0  0  0
 14 10  1  0  0  0  0
 15 11  1  0  0  0  0
 17 21  1  0  0  0  0
 18 17  2  0  0  0  0
 19 20  1  0  0  0  0
 20 25  2  0  0  0  0
 20 21  1  0  0  0  0
 21 22  2  0  0  0  0
 22 23  1  0  0  0  0
 22 26  1  0  0  0  0
 23 27  1  0  0  0  0
 24 28  1  0  0  0  0
 24 23  2  0  0  0  0
 25 24  1  0  0  0  0
 29 25  1  0  0  0  0
 30 31  1  0  0  0  0
 30 29  2  0  0  0  0
 32 31  1  0  0  0  0
M  END
>  <minimizedAffinity>
-5.25826931

$$$$

 OpenBabel03242523213D

 32 34  0  0  0  0  0  0  0  0999 V2000
   38.4540   26.7920   41.9930 C   0  0  0  0  0  0  0  0  0  0  0  0
   38.7410   25.4810   41.9890 C   0  0  0  0  0  0  0  0  0  0  0  0
   40.0570   25.1880   41.6930 C   0  0  0  0  0  0  0  0  0  0  0  0
   40.9500   26.2410   41.4280 N   0  0  0  0  0  0  0  0  0  0  0  0
   40.5750   27.5070   41.4530 C   0  0  0  0  0  0  0  0  0  0  0  0
   39.2800   27.8450   41.7430 N   0  0  0  0  0  0  0  0  0  0  0  0
   40.4720   24.1820   41.6480 H   0  0  0  0  0  0  0  0  0  0  0  0
   41.3790   28.2100   41.2240 H   0  0  0  0  0  0  0  0  0  0  0  0
   37.8190   24.4170   42.1400 C   0  0  0  0  0  0  0  0  0  0  0  0
   36.6750   24.1760   41.4380 C   0  0  0  0  0  0  0  0  0  0  0  0
   37.8230   23.3060   41.0050 C   0  0  0  0  0  0  0  0  0  0  0  0
   37.7520   24.0170   43.1690 H   0  0  0  0  0  0  0  0  0  0  0  0
   36.3710   24.9050   40.6260 H   0  0  0  0  0  0  0  0  0  0  0  0
   35.7890   23.5620   41.7130 H   0  0  0  0  0  0  0  0  0  0  0  0
   37.9100   22.2650   41.3950 H   0  0  0  0  0  0  0  0  0  0  0  0
   38.4270   23.6000   40.1250 H   0  0  0  0  0  0  0  0  0  0  0  0
   37.1710   27.4030   42.3650 C   0  0  0  0  0  0  0  0  0  0  0  0
   36.1810   27.5050   43.0460 O   0  0  0  0  0  0  0  0  0  0  0  0
   36.4290   26.7440   39.4470 Cl  0  0  0  0  0  0  0  0  0  0  0  0
   36.5390   28.3980   40.0600 C   0  0  0  0  0  0  0  0  0  0  0  0
   36.8790   28.5180   41.4060 C   0  0  0  0  0  0  0  0  0  0  0  0
   36.9390   29.8500   41.7840 C   0  0  0  0  0  0  0  0  0  0  0  0
   36.7260   30.9570   41.0550 C   0  0  0  0  0  0  0  0  0  0  0  0
   36.3990   30.7510   39.7480 C   0  0  0  0  0  0  0  0  0  0  0  0
   36.2980   29.5020   39.2330 C   0  0  0  0  0  0  0  0  0  0  0  0
   37.1650   30.1020   42.8420 H   0  0  0  0  0  0  0  0  0  0  0  0
   36.7920   31.9720   41.4170 H   0  0  0  0  0  0  0  0  0  0  0  0
   36.2180   31.6120   39.1190 H   0  0  0  0  0  0  0  0  0  0  0  0
   35.9520   29.1910   37.8420 C   0  0  0  0  0  3  0  0  0  0  0  0
   34.7800   28.9560   37.3000 C   0  0  0  0  0  3  0  0  0  0  0  0
   33.3750   28.8940   37.7640 C   0  0  0  0  0  2  0  0  0  0  0  0
   32.6510   28.6290   36.9450 H   0  0  0  0  0  0  0  0  0  0  0  0
  1 17  1  0  0  0  0
  2  1  1  0  0  0  0
  2  9  1  0  0  0  0
  3  2  2  0  0  0  0
  4  5  2  0  0  0  0
  4  3  1  0  0  0  0
  5  6  1  0  0  0  0
  6  1  2  0  0  0  0
  7  3  1  0  0  0  0
  8  5  1  0  0  0  0
  9 12  1  0  0  0  0
 10 14  1  0  0  0  0
 10  9  1  0  0  0  0
 11 15  1  0  0  0  0
 11 10  1  0  0  0  0
 11  9  1  0  0  0  0
 13 10  1  0  0  0  0
 16 11  1  0  0  0  0
 17 18  2  0  0  0  0
 19 20  1  0  0  0  0
 20 21  1  0  0  0  0
 21 22  2  0  0  0  0
 21 17  1  0  0  0  0
 22 26  1  0  0  0  0
 23 27  1  0  0  0  0
 23 22  1  0  0  0  0
 24 23  2  0  0  0  0
 25 24  1  0  0  0  0
 25 20  2  0  0  0  0
 28 24  1  0  0  0  0
 29 25  1  0  0  0  0
 30 31  1  0  0  0  0
 30 29  2  0  0  0  0
 32 31  1  0  0  0  0
M  END
>  <minimizedAffinity>
-5.232131

$$$$

 OpenBabel03242523213D

 32 34  0  0  0  0  0  0  0  0999 V2000
   37.3250   29.3200   41.8580 C   0  0  0  0  0  0  0  0  0  0  0  0
   38.5680   29.3950   42.3570 C   0  0  0  0  0  0  0  0  0  0  0  0
   39.0400   28.2130   42.8910 C   0  0  0  0  0  0  0  0  0  0  0  0
   38.2130   27.0750   42.8720 N   0  0  0  0  0  0  0  0  0  0  0  0
   36.9960   27.0970   42.3600 C   0  0  0  0  0  0  0  0  0  0  0  0
   36.4870   28.2470   41.8180 N   0  0  0  0  0  0  0  0  0  0  0  0
   40.0250   28.0840   43.3360 H   0  0  0  0  0  0  0  0  0  0  0  0
   36.4750   26.1380   42.4200 H   0  0  0  0  0  0  0  0  0  0  0  0
   39.3560   30.5650   42.4820 C   0  0  0  0  0  0  0  0  0  0  0  0
   40.6910   30.6690   42.7370 C   0  0  0  0  0  0  0  0  0  0  0  0
   40.3520   30.8830   41.2870 C   0  0  0  0  0  0  0  0  0  0  0  0
   38.8040   31.4460   42.8620 H   0  0  0  0  0  0  0  0  0  0  0  0
   41.2910   29.7210   42.8920 H   0  0  0  0  0  0  0  0  0  0  0  0
   41.2720   31.5260   43.1430 H   0  0  0  0  0  0  0  0  0  0  0  0
   40.2570   31.9190   40.8860 H   0  0  0  0  0  0  0  0  0  0  0  0
   40.4450   30.0390   40.5760 H   0  0  0  0  0  0  0  0  0  0  0  0
   36.6040   30.3840   41.1460 C   0  0  0  0  0  0  0  0  0  0  0  0
   36.1970   31.5110   41.0170 O   0  0  0  0  0  0  0  0  0  0  0  0
   38.3530   30.3480   38.6090 Cl  0  0  0  0  0  0  0  0  0  0  0  0
   36.6980   29.7300   38.6440 C   0  0  0  0  0  0  0  0  0  0  0  0
   36.0500   29.8150   39.8750 C   0  0  0  0  0  0  0  0  0  0  0  0
   34.7630   29.3070   39.7940 C   0  0  0  0  0  0  0  0  0  0  0  0
   34.1160   28.7830   38.7420 C   0  0  0  0  0  0  0  0  0  0  0  0
   34.8200   28.7370   37.5750 C   0  0  0  0  0  0  0  0  0  0  0  0
   36.0930   29.1950   37.5000 C   0  0  0  0  0  0  0  0  0  0  0  0
   34.1360   29.2760   40.7100 H   0  0  0  0  0  0  0  0  0  0  0  0
   33.1040   28.4040   38.7490 H   0  0  0  0  0  0  0  0  0  0  0  0
   34.3400   28.3230   36.6980 H   0  0  0  0  0  0  0  0  0  0  0  0
   36.9200   29.1830   36.2900 C   0  0  0  0  0  3  0  0  0  0  0  0
   37.6980   28.2400   35.8120 C   0  0  0  0  0  3  0  0  0  0  0  0
   38.0890   26.8670   36.2080 C   0  0  0  0  0  2  0  0  0  0  0  0
   38.8270   26.3970   35.5010 H   0  0  0  0  0  0  0  0  0  0  0  0
  1  2  1  0  0  0  0
  2  9  1  0  0  0  0
  2  3  2  0  0  0  0
  3  7  1  0  0  0  0
  4  3  1  0  0  0  0
  5  8  1  0  0  0  0
  5  4  2  0  0  0  0
  6  1  2  0  0  0  0
  6  5  1  0  0  0  0
  9 10  1  0  0  0  0
  9 12  1  0  0  0  0
 10 13  1  0  0  0  0
 10 14  1  0  0  0  0
 11  9  1  0  0  0  0
 11 10  1  0  0  0  0
 15 11  1  0  0  0  0
 16 11  1  0  0  0  0
 17  1  1  0  0  0  0
 18 17  2  0  0  0  0
 19 20  1  0  0  0  0
 20 21  1  0  0  0  0
 21 17  1  0  0  0  0
 22 21  2  0  0  0  0
 22 26  1  0  0  0  0
 23 27  1  0  0  0  0
 23 22  1  0  0  0  0
 24 23  2  0  0  0  0
 25 24  1  0  0  0  0
 25 20  2  0  0  0  0
 28 24  1  0  0  0  0
 29 25  1  0  0  0  0
 30 31  1  0  0  0  0
 30 29  2  0  0  0  0
 32 31  1  0  0  0  0
M  END
>  <minimizedAffinity>
-5.18303537

$$$$
