
 OpenBabel03252501543D

 16 16  0  0  0  0  0  0  0  0999 V2000
   44.3650   35.7780   44.4840 C   0  0  0  0  0  0  0  0  0  0  0  0
   44.6730   35.1180   43.3020 C   0  0  0  0  0  0  0  0  0  0  0  0
   45.3390   33.9030   43.3780 C   0  0  0  0  0  0  0  0  0  0  0  0
   45.6680   33.3990   44.5960 N   0  0  0  0  0  0  0  0  0  0  0  0
   45.3470   34.0760   45.7320 C   0  0  0  0  0  0  0  0  0  0  0  0
   44.7010   35.2560   45.6750 N   0  0  0  0  0  0  0  0  0  0  0  0
   43.8550   36.7190   44.5690 H   0  0  0  0  0  0  0  0  0  0  0  0
   45.6830   33.5300   46.5970 H   0  0  0  0  0  0  0  0  0  0  0  0
   44.2730   35.7520   42.0320 C   0  0  0  0  0  0  0  0  0  0  0  0
   43.4120   35.2330   41.5670 H   0  0  0  0  0  0  0  0  0  0  0  0
   45.1280   35.6240   41.3070 H   0  0  0  0  0  0  0  0  0  0  0  0
   44.1470   36.8280   42.1720 H   0  0  0  0  0  0  0  0  0  0  0  0
   45.6750   33.1900   42.1530 C   0  0  0  0  0  3  0  0  0  0  0  0
   45.9500   31.8960   42.2010 C   0  0  0  0  0  3  0  0  0  0  0  0
   46.2950   31.1670   40.9420 C   0  0  0  0  0  2  0  0  0  0  0  0
   46.8330   30.2180   41.1710 H   0  0  0  0  0  0  0  0  0  0  0  0
  1  7  1  0  0  0  0
  1  6  1  0  0  0  0
  2  3  1  0  0  0  0
  2  1  2  0  0  0  0
  3  4  2  0  0  0  0
  4  5  1  0  0  0  0
  5  8  1  0  0  0  0
  6  5  2  0  0  0  0
  9 12  1  0  0  0  0
  9  2  1  0  0  0  0
 10  9  1  0  0  0  0
 11  9  1  0  0  0  0
 13 14  2  0  0  0  0
 13  3  1  0  0  0  0
 15 16  1  0  0  0  0
 15 14  1  0  0  0  0
M  END
>  <minimizedAffinity>
-2.92081428

>  <minimizedRMSD>
0.189336479

$$$$
