
 OpenBabel03242521443D

 33 34  0  0  1  0  0  0  0  0999 V2000
   45.1710   35.1480   44.5410 C   0  0  0  0  0  0  0  0  0  0  0  0
   46.1410   34.5060   43.7620 C   0  0  0  0  0  0  0  0  0  0  0  0
   46.8390   33.4150   44.2930 C   0  0  0  0  0  0  0  0  0  0  0  0
   46.5340   33.0420   45.5350 N   0  0  0  0  0  0  0  0  0  0  0  0
   45.5960   33.6700   46.2780 C   0  0  0  0  0  0  0  0  0  0  0  0
   44.9110   34.7220   45.7870 N   0  0  0  0  0  0  0  0  0  0  0  0
   46.3040   34.8900   42.7750 H   0  0  0  0  0  0  0  0  0  0  0  0
   45.3860   33.3280   47.2790 H   0  0  0  0  0  0  0  0  0  0  0  0
   48.6650   33.7370   42.6380 C   0  0  2  0  0  0  0  0  0  0  0  0
   47.8390   32.7870   43.4320 C   0  0  2  0  0  0  0  0  0  0  0  0
   47.2770   31.9890   42.3920 O   0  0  0  0  0  0  0  0  0  0  0  0
   48.3990   31.6230   41.6730 C   0  0  0  0  0  0  0  0  0  0  0  0
   49.4420   32.6990   41.8000 C   0  0  1  0  0  0  0  0  0  0  0  0
   48.0870   34.3000   41.8740 H   0  0  0  0  0  0  0  0  0  0  0  0
   48.4960   32.0730   43.9650 H   0  0  0  0  0  0  0  0  0  0  0  0
   48.8060   30.7070   42.1490 H   0  0  0  0  0  0  0  0  0  0  0  0
   48.1620   31.3510   40.6190 H   0  0  0  0  0  0  0  0  0  0  0  0
   50.3210   32.3830   42.3740 H   0  0  0  0  0  0  0  0  0  0  0  0
   49.4580   34.5660   43.3720 O   0  0  0  0  0  0  0  0  0  0  0  0
   49.6470   35.3910   42.8480 H   0  0  0  0  0  0  0  0  0  0  0  0
   49.8030   33.2700   40.5890 O   0  0  0  0  0  0  0  0  0  0  0  0
   49.6220   32.6810   39.8150 H   0  0  0  0  0  0  0  0  0  0  0  0
   44.4390   36.3230   43.9500 C   0  0  0  0  0  0  0  0  0  0  0  0
   43.3680   36.2710   44.1440 H   0  0  0  0  0  0  0  0  0  0  0  0
   44.6320   36.3460   42.8560 H   0  0  0  0  0  0  0  0  0  0  0  0
   45.2390   38.7740   43.8800 C   0  0  0  0  0  0  0  0  0  0  0  0
   44.7980   38.8660   42.7010 O   0  0  0  0  0  0  0  0  0  0  0  0
   45.0490   37.5130   44.4990 N   0  0  0  0  0  0  0  0  0  0  0  0
   45.4000   37.4290   45.4990 H   0  0  0  0  0  0  0  0  0  0  0  0
   45.8860   39.8750   44.5400 C   0  0  0  0  0  3  0  0  0  0  0  0
   45.5760   40.2610   45.7440 C   0  0  0  0  0  3  0  0  0  0  0  0
   44.5220   39.5740   46.5090 C   0  0  0  0  0  2  0  0  0  0  0  0
   43.5100   39.6190   46.0240 H   0  0  0  0  0  0  0  0  0  0  0  0
  1  6  1  0  0  0  0
  2  3  1  0  0  0  0
  2  1  2  0  0  0  0
  3  4  2  0  0  0  0
  4  5  1  0  0  0  0
  5  8  1  0  0  0  0
  6  5  2  0  0  0  0
  7  2  1  0  0  0  0
  9 14  1  6  0  0  0
  9 19  1  0  0  0  0
  9 10  1  0  0  0  0
 10 15  1  1  0  0  0
 10  3  1  0  0  0  0
 11 10  1  0  0  0  0
 12 13  1  0  0  0  0
 12 16  1  0  0  0  0
 12 11  1  0  0  0  0
 13 18  1  1  0  0  0
 13  9  1  0  0  0  0
 17 12  1  0  0  0  0
 20 19  1  0  0  0  0
 21 13  1  0  0  0  0
 22 21  1  0  0  0  0
 23 24  1  0  0  0  0
 23 28  1  0  0  0  0
 23  1  1  0  0  0  0
 25 23  1  0  0  0  0
 26 28  1  0  0  0  0
 26 30  1  0  0  0  0
 27 26  2  0  0  0  0
 28 29  1  0  0  0  0
 30 31  2  0  0  0  0
 31 32  1  0  0  0  0
 33 32  1  0  0  0  0
M  END
>  <minimizedAffinity>
-3.34973621

>  <minimizedRMSD>
0.678527474

$$$$
