
 OpenBabel03242520093D

 24 25  0  0  0  0  0  0  0  0999 V2000
   46.1710   32.5520   47.0020 C   0  0  0  0  0  0  0  0  0  0  0  0
   45.2400   32.5680   47.9920 C   0  0  0  0  0  0  0  0  0  0  0  0
   45.4320   31.7600   49.0970 C   0  0  0  0  0  0  0  0  0  0  0  0
   46.5560   30.9520   49.1890 C   0  0  0  0  0  0  0  0  0  0  0  0
   47.4890   30.9680   48.1460 C   0  0  0  0  0  0  0  0  0  0  0  0
   47.2670   31.7480   47.1170 N   0  0  0  0  0  0  0  0  0  0  0  0
   44.3730   33.1940   47.9160 H   0  0  0  0  0  0  0  0  0  0  0  0
   44.6990   31.7620   49.8940 H   0  0  0  0  0  0  0  0  0  0  0  0
   46.7070   30.3230   50.0480 H   0  0  0  0  0  0  0  0  0  0  0  0
   44.9640   34.9920   44.5640 C   0  0  0  0  0  0  0  0  0  0  0  0
   45.9220   34.8560   43.5310 C   0  0  0  0  0  0  0  0  0  0  0  0
   46.9780   33.9260   43.6740 C   0  0  0  0  0  0  0  0  0  0  0  0
   46.9730   33.2320   44.8240 N   0  0  0  0  0  0  0  0  0  0  0  0
   46.0700   33.3660   45.7900 C   0  0  0  0  0  0  0  0  0  0  0  0
   45.0730   34.2440   45.6530 N   0  0  0  0  0  0  0  0  0  0  0  0
   43.9180   35.9350   44.3840 N   0  0  0  0  0  0  0  0  0  0  0  0
   45.8400   35.4580   42.6450 H   0  0  0  0  0  0  0  0  0  0  0  0
   47.7190   33.8070   42.8950 H   0  0  0  0  0  0  0  0  0  0  0  0
   43.3120   36.1600   45.2130 H   0  0  0  0  0  0  0  0  0  0  0  0
   43.7590   36.3870   43.4660 H   0  0  0  0  0  0  0  0  0  0  0  0
   48.6840   30.1350   48.1990 C   0  0  0  0  0  0  0  0  0  0  0  0
   49.7810   30.4780   48.8530 C   0  0  0  0  0  0  0  0  0  0  0  0
   49.8850   31.7580   49.5960 C   0  0  0  0  0  0  0  0  0  0  0  0
   49.7580   32.6580   48.9770 H   0  0  0  0  0  0  0  0  0  0  0  0
  1  6  2  0  0  0  0
  1  2  1  0  0  0  0
  2  3  2  0  0  0  0
  3  4  1  0  0  0  0
  3  8  1  0  0  0  0
  4  9  1  0  0  0  0
  5 21  1  0  0  0  0
  5  4  2  0  0  0  0
  6  5  1  0  0  0  0
  7  2  1  0  0  0  0
 10 15  1  0  0  0  0
 11 12  1  0  0  0  0
 11 10  2  0  0  0  0
 12 13  2  0  0  0  0
 13 14  1  0  0  0  0
 14  1  1  0  0  0  0
 15 14  2  0  0  0  0
 16 10  1  0  0  0  0
 16 19  1  0  0  0  0
 17 11  1  0  0  0  0
 18 12  1  0  0  0  0
 20 16  1  0  0  0  0
 21 22  2  0  0  0  0
 22 23  1  0  0  0  0
 24 23  1  0  0  0  0
M  END
>  <minimizedAffinity>
-5.66532183

>  <minimizedRMSD>
0.297879964

$$$$
