
 OpenBabel03242519163D

 37 39  0  0  1  0  0  0  0  0999 V2000
   48.0050   34.1360   40.5390 C   0  0  0  0  0  0  0  0  0  0  0  0
   48.1020   34.6430   39.2680 C   0  0  0  0  0  0  0  0  0  0  0  0
   48.3500   33.8350   38.1490 C   0  0  0  0  0  0  0  0  0  0  0  0
   48.4890   32.5100   38.4120 N   0  0  0  0  0  0  0  0  0  0  0  0
   48.3920   32.0260   39.6580 C   0  0  0  0  0  0  0  0  0  0  0  0
   48.1560   32.8270   40.6910 N   0  0  0  0  0  0  0  0  0  0  0  0
   47.9800   35.7270   39.1250 H   0  0  0  0  0  0  0  0  0  0  0  0
   48.4250   34.2510   37.1560 H   0  0  0  0  0  0  0  0  0  0  0  0
   48.5250   30.5640   39.9480 C   0  0  2  0  0  0  0  0  0  0  0  0
   48.9100   30.1340   41.3310 C   0  0  0  0  0  0  0  0  0  0  0  0
   49.8900   30.0370   40.1510 C   0  0  2  0  0  0  0  0  0  0  0  0
   47.8620   29.9470   39.2910 H   0  0  0  0  0  0  0  0  0  0  0  0
   49.0210   30.9320   42.0710 H   0  0  0  0  0  0  0  0  0  0  0  0
   48.5630   29.1420   41.6810 H   0  0  0  0  0  0  0  0  0  0  0  0
   50.0860   28.9880   39.7800 H   0  0  0  0  0  0  0  0  0  0  0  0
   51.1000   30.8490   40.3210 C   0  0  0  0  0  3  0  0  0  0  0  0
   51.6290   31.8290   41.0420 C   0  0  0  0  0  3  0  0  0  0  0  0
   51.0830   32.6190   42.1640 C   0  0  0  0  0  2  0  0  0  0  0  0
   50.6770   31.9190   42.9530 H   0  0  0  0  0  0  0  0  0  0  0  0
   47.7440   34.9860   41.6880 C   0  0  0  0  0  0  0  0  0  0  0  0
   48.4480   34.7900   42.5220 H   0  0  0  0  0  0  0  0  0  0  0  0
   47.9420   36.0660   41.4180 H   0  0  0  0  0  0  0  0  0  0  0  0
   46.3470   34.8520   42.1410 C   0  0  0  0  0  0  0  0  0  0  0  0
   45.7190   34.1610   41.5230 H   0  0  0  0  0  0  0  0  0  0  0  0
   45.8080   35.8260   42.0840 H   0  0  0  0  0  0  0  0  0  0  0  0
   44.4310   36.2730   43.9130 Cl  0  0  0  0  0  0  0  0  0  0  0  0
   45.3570   34.9060   44.4450 C   0  0  0  0  0  0  0  0  0  0  0  0
   46.2160   34.3240   43.5380 C   0  0  0  0  0  0  0  0  0  0  0  0
   46.9560   33.2370   43.9490 C   0  0  0  0  0  0  0  0  0  0  0  0
   46.8420   32.7410   45.2360 C   0  0  0  0  0  0  0  0  0  0  0  0
   45.9640   33.3410   46.1480 C   0  0  0  0  0  0  0  0  0  0  0  0
   45.2260   34.4340   45.7220 C   0  0  0  0  0  0  0  0  0  0  0  0
   47.6480   32.7370   43.2790 H   0  0  0  0  0  0  0  0  0  0  0  0
   47.4190   31.8850   45.5720 H   0  0  0  0  0  0  0  0  0  0  0  0
   45.8600   32.9670   47.1590 H   0  0  0  0  0  0  0  0  0  0  0  0
   44.3250   35.0990   46.5630 O   0  0  0  0  0  0  0  0  0  0  0  0
   43.9120   34.5080   47.2810 H   0  0  0  0  0  0  0  0  0  0  0  0
  1  6  1  0  0  0  0
  1 20  1  0  0  0  0
  2  1  2  0  0  0  0
  3  4  2  0  0  0  0
  3  2  1  0  0  0  0
  4  5  1  0  0  0  0
  5  9  1  0  0  0  0
  5  6  2  0  0  0  0
  7  2  1  0  0  0  0
  8  3  1  0  0  0  0
  9 12  1  6  0  0  0
  9 11  1  0  0  0  0
  9 10  1  0  0  0  0
 10 14  1  0  0  0  0
 10 13  1  0  0  0  0
 11 15  1  6  0  0  0
 11 16  1  0  0  0  0
 11 10  1  0  0  0  0
 16 17  2  0  0  0  0
 17 18  1  0  0  0  0
 18 19  1  0  0  0  0
 20 23  1  0  0  0  0
 20 21  1  0  0  0  0
 22 20  1  0  0  0  0
 23 28  1  0  0  0  0
 24 23  1  0  0  0  0
 25 23  1  0  0  0  0
 26 27  1  0  0  0  0
 27 32  1  0  0  0  0
 28 29  1  0  0  0  0
 28 27  2  0  0  0  0
 29 30  2  0  0  0  0
 30 34  1  0  0  0  0
 30 31  1  0  0  0  0
 31 35  1  0  0  0  0
 32 31  2  0  0  0  0
 32 36  1  0  0  0  0
 33 29  1  0  0  0  0
 36 37  1  0  0  0  0
M  END
>  <minimizedAffinity>
-5.354702

>  <minimizedRMSD>
1.40356135

$$$$
