
 OpenBabel03242511433D

 29 30  0  0  0  0  0  0  0  0999 V2000
   36.9980   27.6300   43.0200 C   0  0  0  0  0  0  0  0  0  0  0  0
   36.2270   27.1880   42.3790 H   0  0  0  0  0  0  0  0  0  0  0  0
   36.5880   27.6720   44.0730 H   0  0  0  0  0  0  0  0  0  0  0  0
   38.1450   26.7290   43.0760 C   0  0  0  0  0  0  0  0  0  0  0  0
   39.3970   26.9240   43.6370 C   0  0  0  0  0  0  0  0  0  0  0  0
   40.3950   25.9850   43.6790 C   0  0  0  0  0  0  0  0  0  0  0  0
   40.1280   24.7640   43.1260 C   0  0  0  0  0  0  0  0  0  0  0  0
   38.8810   24.5430   42.5550 C   0  0  0  0  0  0  0  0  0  0  0  0
   37.8900   25.5230   42.5260 C   0  0  0  0  0  0  0  0  0  0  0  0
   39.4960   27.9280   44.0470 H   0  0  0  0  0  0  0  0  0  0  0  0
   41.2900   26.3510   44.1600 H   0  0  0  0  0  0  0  0  0  0  0  0
   41.0030   24.1040   43.2260 H   0  0  0  0  0  0  0  0  0  0  0  0
   38.9460   23.5110   42.2000 H   0  0  0  0  0  0  0  0  0  0  0  0
   36.8490   24.9050   41.7180 C   0  0  0  0  0  3  0  0  0  0  0  0
   36.8600   24.1930   40.6130 C   0  0  0  0  0  3  0  0  0  0  0  0
   35.8080   23.5870   39.8250 C   0  0  0  0  0  2  0  0  0  0  0  0
   34.8230   23.8090   40.3250 H   0  0  0  0  0  0  0  0  0  0  0  0
   37.3680   29.0320   42.6720 C   0  0  0  0  0  0  0  0  0  0  0  0
   38.4630   29.1030   42.5430 H   0  0  0  0  0  0  0  0  0  0  0  0
   36.8880   29.7940   43.3090 H   0  0  0  0  0  0  0  0  0  0  0  0
   37.2070   29.9180   39.0840 C   0  0  0  0  0  0  0  0  0  0  0  0
   35.8470   29.6600   38.7770 C   0  0  0  0  0  0  0  0  0  0  0  0
   35.0570   29.1860   39.8050 C   0  0  0  0  0  0  0  0  0  0  0  0
   35.5940   28.9950   41.0130 N   0  0  0  0  0  0  0  0  0  0  0  0
   36.9060   29.2590   41.2530 C   0  0  0  0  0  0  0  0  0  0  0  0
   37.7040   29.7110   40.3130 N   0  0  0  0  0  0  0  0  0  0  0  0
   37.8000   30.2950   38.2360 H   0  0  0  0  0  0  0  0  0  0  0  0
   35.4520   29.8310   37.7760 H   0  0  0  0  0  0  0  0  0  0  0  0
   34.0070   28.9660   39.6420 H   0  0  0  0  0  0  0  0  0  0  0  0
  1  4  1  0  0  0  0
  1  3  1  0  0  0  0
  2  1  1  0  0  0  0
  4  5  1  0  0  0  0
  5  6  2  0  0  0  0
  5 10  1  0  0  0  0
  6 11  1  0  0  0  0
  7 12  1  0  0  0  0
  7  6  1  0  0  0  0
  8  7  2  0  0  0  0
  9  8  1  0  0  0  0
  9  4  2  0  0  0  0
 13  8  1  0  0  0  0
 14  9  1  0  0  0  0
 15 14  2  0  0  0  0
 16 17  1  0  0  0  0
 16 15  1  0  0  0  0
 18  1  1  0  0  0  0
 18 20  1  0  0  0  0
 19 18  1  0  0  0  0
 21 26  1  0  0  0  0
 22 21  2  0  0  0  0
 22 23  1  0  0  0  0
 23 24  2  0  0  0  0
 24 25  1  0  0  0  0
 25 18  1  0  0  0  0
 26 25  2  0  0  0  0
 27 21  1  0  0  0  0
 28 22  1  0  0  0  0
 29 23  1  0  0  0  0
M  END
>  <minimizedAffinity>
-5.04193974

$$$$

 OpenBabel03242511433D

 29 30  0  0  0  0  0  0  0  0999 V2000
   38.4630   27.4920   43.6160 C   0  0  0  0  0  0  0  0  0  0  0  0
   38.8270   27.2720   44.6260 H   0  0  0  0  0  0  0  0  0  0  0  0
   39.2960   28.0120   43.0550 H   0  0  0  0  0  0  0  0  0  0  0  0
   38.2330   26.2350   42.9090 C   0  0  0  0  0  0  0  0  0  0  0  0
   37.0750   25.7480   42.3240 C   0  0  0  0  0  0  0  0  0  0  0  0
   36.9790   24.5670   41.6340 C   0  0  0  0  0  0  0  0  0  0  0  0
   38.1160   23.8180   41.5180 C   0  0  0  0  0  0  0  0  0  0  0  0
   39.2900   24.2820   42.0960 C   0  0  0  0  0  0  0  0  0  0  0  0
   39.3510   25.4870   42.7940 C   0  0  0  0  0  0  0  0  0  0  0  0
   36.2370   26.4260   42.4790 H   0  0  0  0  0  0  0  0  0  0  0  0
   35.9820   24.3810   41.2650 H   0  0  0  0  0  0  0  0  0  0  0  0
   37.9070   22.9020   40.9440 H   0  0  0  0  0  0  0  0  0  0  0  0
   40.0170   23.5020   41.8520 H   0  0  0  0  0  0  0  0  0  0  0  0
   40.7030   25.4790   43.3330 C   0  0  0  0  0  3  0  0  0  0  0  0
   41.8930   25.3230   42.7970 C   0  0  0  0  0  3  0  0  0  0  0  0
   43.2290   25.3180   43.3560 C   0  0  0  0  0  2  0  0  0  0  0  0
   43.1450   25.4950   44.4660 H   0  0  0  0  0  0  0  0  0  0  0  0
   37.2970   28.4180   43.5630 C   0  0  0  0  0  0  0  0  0  0  0  0
   37.2320   28.9850   44.5100 H   0  0  0  0  0  0  0  0  0  0  0  0
   36.3680   27.9500   43.1960 H   0  0  0  0  0  0  0  0  0  0  0  0
   37.2570   30.9410   40.8570 C   0  0  0  0  0  0  0  0  0  0  0  0
   38.5680   31.4730   40.9300 C   0  0  0  0  0  0  0  0  0  0  0  0
   39.3960   30.9540   41.9060 C   0  0  0  0  0  0  0  0  0  0  0  0
   38.9370   29.9980   42.7180 N   0  0  0  0  0  0  0  0  0  0  0  0
   37.6680   29.5230   42.6030 C   0  0  0  0  0  0  0  0  0  0  0  0
   36.8370   29.9800   41.6950 N   0  0  0  0  0  0  0  0  0  0  0  0
   36.6310   31.3820   40.0660 H   0  0  0  0  0  0  0  0  0  0  0  0
   38.9000   32.2530   40.2460 H   0  0  0  0  0  0  0  0  0  0  0  0
   40.4130   31.3140   42.0200 H   0  0  0  0  0  0  0  0  0  0  0  0
  1  2  1  0  0  0  0
  3  1  1  0  0  0  0
  4  1  1  0  0  0  0
  5 10  1  0  0  0  0
  5  4  2  0  0  0  0
  6  5  1  0  0  0  0
  7  6  2  0  0  0  0
  7  8  1  0  0  0  0
  8  9  2  0  0  0  0
  9  4  1  0  0  0  0
  9 14  1  0  0  0  0
 11  6  1  0  0  0  0
 12  7  1  0  0  0  0
 13  8  1  0  0  0  0
 15 14  2  0  0  0  0
 15 16  1  0  0  0  0
 16 17  1  0  0  0  0
 18  1  1  0  0  0  0
 18 19  1  0  0  0  0
 20 18  1  0  0  0  0
 21 22  2  0  0  0  0
 21 26  1  0  0  0  0
 22 23  1  0  0  0  0
 23 29  1  0  0  0  0
 23 24  2  0  0  0  0
 25 24  1  0  0  0  0
 25 18  1  0  0  0  0
 26 25  2  0  0  0  0
 27 21  1  0  0  0  0
 28 22  1  0  0  0  0
M  END
>  <minimizedAffinity>
-4.96540022

$$$$

 OpenBabel03242511433D

 29 30  0  0  0  0  0  0  0  0999 V2000
   39.4860   30.4670   41.2330 C   0  0  0  0  0  0  0  0  0  0  0  0
   39.1750   29.6780   40.5400 H   0  0  0  0  0  0  0  0  0  0  0  0
   40.6090   30.5750   41.1520 H   0  0  0  0  0  0  0  0  0  0  0  0
   38.9310   31.7400   40.7860 C   0  0  0  0  0  0  0  0  0  0  0  0
   39.4280   33.0250   40.9380 C   0  0  0  0  0  0  0  0  0  0  0  0
   38.8480   34.1590   40.4300 C   0  0  0  0  0  0  0  0  0  0  0  0
   37.6910   34.0030   39.7190 C   0  0  0  0  0  0  0  0  0  0  0  0
   37.1700   32.7270   39.5530 C   0  0  0  0  0  0  0  0  0  0  0  0
   37.7850   31.5950   40.0870 C   0  0  0  0  0  0  0  0  0  0  0  0
   40.3500   33.0270   41.5170 H   0  0  0  0  0  0  0  0  0  0  0  0
   39.4030   35.0530   40.6710 H   0  0  0  0  0  0  0  0  0  0  0  0
   37.3310   34.9810   39.3660 H   0  0  0  0  0  0  0  0  0  0  0  0
   36.2670   32.8980   38.9610 H   0  0  0  0  0  0  0  0  0  0  0  0
   36.8260   30.5400   39.7960 C   0  0  0  0  0  3  0  0  0  0  0  0
   35.7700   30.0740   40.4250 C   0  0  0  0  0  3  0  0  0  0  0  0
   34.8280   29.0190   40.1150 C   0  0  0  0  0  2  0  0  0  0  0  0
   35.1230   28.5650   39.1270 H   0  0  0  0  0  0  0  0  0  0  0  0
   39.2090   30.1770   42.6690 C   0  0  0  0  0  0  0  0  0  0  0  0
   38.4870   30.9160   43.0620 H   0  0  0  0  0  0  0  0  0  0  0  0
   40.1140   29.9920   43.2720 H   0  0  0  0  0  0  0  0  0  0  0  0
   36.7630   27.5580   43.5900 C   0  0  0  0  0  0  0  0  0  0  0  0
   37.0140   26.5640   42.6120 C   0  0  0  0  0  0  0  0  0  0  0  0
   37.9940   26.8410   41.6800 C   0  0  0  0  0  0  0  0  0  0  0  0
   38.6480   28.0040   41.7390 N   0  0  0  0  0  0  0  0  0  0  0  0
   38.3670   28.9240   42.7010 C   0  0  0  0  0  0  0  0  0  0  0  0
   37.4450   28.7150   43.6120 N   0  0  0  0  0  0  0  0  0  0  0  0
   35.9750   27.2970   44.3130 H   0  0  0  0  0  0  0  0  0  0  0  0
   36.4550   25.6290   42.6020 H   0  0  0  0  0  0  0  0  0  0  0  0
   38.2380   26.1260   40.9020 H   0  0  0  0  0  0  0  0  0  0  0  0
  1 18  1  0  0  0  0
  2  1  1  0  0  0  0
  3  1  1  0  0  0  0
  4  5  1  0  0  0  0
  4  1  1  0  0  0  0
  5 10  1  0  0  0  0
  6 11  1  0  0  0  0
  6  5  2  0  0  0  0
  7  6  1  0  0  0  0
  8  7  2  0  0  0  0
  8  9  1  0  0  0  0
  9  4  2  0  0  0  0
 12  7  1  0  0  0  0
 13  8  1  0  0  0  0
 14  9  1  0  0  0  0
 14 15  2  0  0  0  0
 16 15  1  0  0  0  0
 17 16  1  0  0  0  0
 18 25  1  0  0  0  0
 18 19  1  0  0  0  0
 18 20  1  0  0  0  0
 21 26  1  0  0  0  0
 21 27  1  0  0  0  0
 22 21  2  0  0  0  0
 23 24  2  0  0  0  0
 23 22  1  0  0  0  0
 24 25  1  0  0  0  0
 25 26  2  0  0  0  0
 28 22  1  0  0  0  0
 29 23  1  0  0  0  0
M  END
>  <minimizedAffinity>
-4.93165874

$$$$

 OpenBabel03242511433D

 29 30  0  0  0  0  0  0  0  0999 V2000
   36.9480   28.5510   42.2140 C   0  0  0  0  0  0  0  0  0  0  0  0
   36.3000   29.1260   41.5440 H   0  0  0  0  0  0  0  0  0  0  0  0
   36.4770   28.5600   43.2420 H   0  0  0  0  0  0  0  0  0  0  0  0
   36.9510   27.1540   41.7910 C   0  0  0  0  0  0  0  0  0  0  0  0
   37.1180   26.0020   42.5440 C   0  0  0  0  0  0  0  0  0  0  0  0
   37.0520   24.7250   42.0510 C   0  0  0  0  0  0  0  0  0  0  0  0
   36.8000   24.5820   40.7150 C   0  0  0  0  0  0  0  0  0  0  0  0
   36.6300   25.7210   39.9380 C   0  0  0  0  0  0  0  0  0  0  0  0
   36.7080   27.0060   40.4710 C   0  0  0  0  0  0  0  0  0  0  0  0
   37.3110   26.2360   43.5900 H   0  0  0  0  0  0  0  0  0  0  0  0
   37.2150   23.9760   42.8120 H   0  0  0  0  0  0  0  0  0  0  0  0
   36.7690   23.5150   40.4480 H   0  0  0  0  0  0  0  0  0  0  0  0
   36.4480   25.3180   38.9370 H   0  0  0  0  0  0  0  0  0  0  0  0
   36.6210   27.8510   39.2900 C   0  0  0  0  0  3  0  0  0  0  0  0
   35.6320   28.4770   38.6920 C   0  0  0  0  0  3  0  0  0  0  0  0
   35.5700   29.3150   37.5130 C   0  0  0  0  0  2  0  0  0  0  0  0
   36.6110   29.4030   37.0900 H   0  0  0  0  0  0  0  0  0  0  0  0
   38.3170   29.1150   42.3890 C   0  0  0  0  0  0  0  0  0  0  0  0
   39.0330   28.5450   41.7690 H   0  0  0  0  0  0  0  0  0  0  0  0
   38.5980   29.2930   43.4410 H   0  0  0  0  0  0  0  0  0  0  0  0
   39.2910   32.4240   41.0520 C   0  0  0  0  0  0  0  0  0  0  0  0
   38.1100   32.8290   40.3790 C   0  0  0  0  0  0  0  0  0  0  0  0
   37.0470   31.9480   40.4040 C   0  0  0  0  0  0  0  0  0  0  0  0
   37.1730   30.7840   41.0450 N   0  0  0  0  0  0  0  0  0  0  0  0
   38.3300   30.4450   41.6750 C   0  0  0  0  0  0  0  0  0  0  0  0
   39.3720   31.2420   41.6840 N   0  0  0  0  0  0  0  0  0  0  0  0
   40.1130   33.1550   41.0070 H   0  0  0  0  0  0  0  0  0  0  0  0
   38.0530   33.7900   39.8690 H   0  0  0  0  0  0  0  0  0  0  0  0
   36.1130   32.1920   39.9100 H   0  0  0  0  0  0  0  0  0  0  0  0
  1 18  1  0  0  0  0
  1  3  1  0  0  0  0
  2  1  1  0  0  0  0
  4  1  1  0  0  0  0
  4  5  1  0  0  0  0
  5 10  1  0  0  0  0
  6  5  2  0  0  0  0
  6 11  1  0  0  0  0
  7  6  1  0  0  0  0
  8  9  1  0  0  0  0
  8  7  2  0  0  0  0
  9  4  2  0  0  0  0
 12  7  1  0  0  0  0
 13  8  1  0  0  0  0
 14  9  1  0  0  0  0
 15 14  2  0  0  0  0
 16 15  1  0  0  0  0
 17 16  1  0  0  0  0
 18 20  1  0  0  0  0
 19 18  1  0  0  0  0
 21 26  1  0  0  0  0
 22 23  1  0  0  0  0
 22 21  2  0  0  0  0
 23 24  2  0  0  0  0
 24 25  1  0  0  0  0
 25 26  2  0  0  0  0
 25 18  1  0  0  0  0
 27 21  1  0  0  0  0
 28 22  1  0  0  0  0
 29 23  1  0  0  0  0
M  END
>  <minimizedAffinity>
-4.75209236

$$$$

 OpenBabel03242511433D

 29 30  0  0  0  0  0  0  0  0999 V2000
   35.9430   28.2170   39.8930 C   0  0  0  0  0  0  0  0  0  0  0  0
   36.7140   28.4070   39.1370 H   0  0  0  0  0  0  0  0  0  0  0  0
   35.6390   27.1310   39.8090 H   0  0  0  0  0  0  0  0  0  0  0  0
   36.5330   28.3620   41.2200 C   0  0  0  0  0  0  0  0  0  0  0  0
   36.4150   27.5470   42.3350 C   0  0  0  0  0  0  0  0  0  0  0  0
   37.0570   27.7500   43.5290 C   0  0  0  0  0  0  0  0  0  0  0  0
   37.8770   28.8400   43.6200 C   0  0  0  0  0  0  0  0  0  0  0  0
   38.0120   29.6740   42.5180 C   0  0  0  0  0  0  0  0  0  0  0  0
   37.3400   29.4400   41.3190 C   0  0  0  0  0  0  0  0  0  0  0  0
   35.7410   26.7130   42.1470 H   0  0  0  0  0  0  0  0  0  0  0  0
   36.8190   26.9950   44.2630 H   0  0  0  0  0  0  0  0  0  0  0  0
   38.3320   28.8880   44.6210 H   0  0  0  0  0  0  0  0  0  0  0  0
   38.7080   30.4430   42.8670 H   0  0  0  0  0  0  0  0  0  0  0  0
   37.6600   30.6230   40.5340 C   0  0  0  0  0  3  0  0  0  0  0  0
   37.0780   31.7900   40.3710 C   0  0  0  0  0  3  0  0  0  0  0  0
   37.4170   32.9550   39.5810 C   0  0  0  0  0  2  0  0  0  0  0  0
   38.3800   32.7410   39.0370 H   0  0  0  0  0  0  0  0  0  0  0  0
   34.6900   29.0050   39.7160 C   0  0  0  0  0  0  0  0  0  0  0  0
   34.8970   30.0740   39.9080 H   0  0  0  0  0  0  0  0  0  0  0  0
   33.8100   28.5680   40.2180 H   0  0  0  0  0  0  0  0  0  0  0  0
   33.0300   28.9670   36.4100 C   0  0  0  0  0  0  0  0  0  0  0  0
   34.1340   29.0490   35.5250 C   0  0  0  0  0  0  0  0  0  0  0  0
   35.3870   29.1260   36.1000 C   0  0  0  0  0  0  0  0  0  0  0  0
   35.5030   29.1200   37.4300 N   0  0  0  0  0  0  0  0  0  0  0  0
   34.4090   29.0390   38.2330 C   0  0  0  0  0  0  0  0  0  0  0  0
   33.1930   28.9650   37.7430 N   0  0  0  0  0  0  0  0  0  0  0  0
   32.0510   28.9070   35.9110 H   0  0  0  0  0  0  0  0  0  0  0  0
   33.9930   29.0510   34.4450 H   0  0  0  0  0  0  0  0  0  0  0  0
   36.2780   29.1920   35.4830 H   0  0  0  0  0  0  0  0  0  0  0  0
  1  4  1  0  0  0  0
  2  1  1  0  0  0  0
  3  1  1  0  0  0  0
  4  9  2  0  0  0  0
  4  5  1  0  0  0  0
  5  6  2  0  0  0  0
  6  7  1  0  0  0  0
  6 11  1  0  0  0  0
  7 12  1  0  0  0  0
  8 13  1  0  0  0  0
  8  7  2  0  0  0  0
  9  8  1  0  0  0  0
 10  5  1  0  0  0  0
 14  9  1  0  0  0  0
 15 14  2  0  0  0  0
 16 15  1  0  0  0  0
 17 16  1  0  0  0  0
 18  1  1  0  0  0  0
 18 19  1  0  0  0  0
 18 20  1  0  0  0  0
 21 26  1  0  0  0  0
 22 23  1  0  0  0  0
 22 21  2  0  0  0  0
 23 24  2  0  0  0  0
 24 25  1  0  0  0  0
 25 18  1  0  0  0  0
 26 25  2  0  0  0  0
 27 21  1  0  0  0  0
 28 22  1  0  0  0  0
 29 23  1  0  0  0  0
M  END
>  <minimizedAffinity>
-4.69946337

$$$$

 OpenBabel03242511433D

 29 30  0  0  0  0  0  0  0  0999 V2000
   38.5700   29.3760   43.0860 C   0  0  0  0  0  0  0  0  0  0  0  0
   38.4690   30.1430   43.8630 H   0  0  0  0  0  0  0  0  0  0  0  0
   38.3570   28.3730   43.5620 H   0  0  0  0  0  0  0  0  0  0  0  0
   37.5250   29.5710   42.0870 C   0  0  0  0  0  0  0  0  0  0  0  0
   37.1310   30.7280   41.4320 C   0  0  0  0  0  0  0  0  0  0  0  0
   36.1620   30.7920   40.4640 C   0  0  0  0  0  0  0  0  0  0  0  0
   35.5420   29.6240   40.1220 C   0  0  0  0  0  0  0  0  0  0  0  0
   35.9160   28.4510   40.7640 C   0  0  0  0  0  0  0  0  0  0  0  0
   36.9030   28.4210   41.7480 C   0  0  0  0  0  0  0  0  0  0  0  0
   37.6920   31.5920   41.7820 H   0  0  0  0  0  0  0  0  0  0  0  0
   36.0140   31.7950   40.0900 H   0  0  0  0  0  0  0  0  0  0  0  0
   34.7920   29.8100   39.3380 H   0  0  0  0  0  0  0  0  0  0  0  0
   35.2720   27.6950   40.3050 H   0  0  0  0  0  0  0  0  0  0  0  0
   36.8440   27.0480   42.2240 C   0  0  0  0  0  3  0  0  0  0  0  0
   37.2430   25.8970   41.7290 C   0  0  0  0  0  3  0  0  0  0  0  0
   37.1720   24.5380   42.2240 C   0  0  0  0  0  2  0  0  0  0  0  0
   36.6700   24.5570   43.2320 H   0  0  0  0  0  0  0  0  0  0  0  0
   39.9350   29.2650   42.4960 C   0  0  0  0  0  0  0  0  0  0  0  0
   40.6730   29.7080   43.1900 H   0  0  0  0  0  0  0  0  0  0  0  0
   39.9930   29.5750   41.4390 H   0  0  0  0  0  0  0  0  0  0  0  0
   40.6120   25.8240   43.6740 C   0  0  0  0  0  0  0  0  0  0  0  0
   41.1380   25.2120   42.5090 C   0  0  0  0  0  0  0  0  0  0  0  0
   41.2230   25.9990   41.3770 C   0  0  0  0  0  0  0  0  0  0  0  0
   40.8180   27.2700   41.4280 N   0  0  0  0  0  0  0  0  0  0  0  0
   40.3200   27.8080   42.5740 C   0  0  0  0  0  0  0  0  0  0  0  0
   40.2150   27.1070   43.6790 N   0  0  0  0  0  0  0  0  0  0  0  0
   40.5620   25.1620   44.5520 H   0  0  0  0  0  0  0  0  0  0  0  0
   41.4570   24.1710   42.5130 H   0  0  0  0  0  0  0  0  0  0  0  0
   41.6150   25.5970   40.4490 H   0  0  0  0  0  0  0  0  0  0  0  0
  1  3  1  0  0  0  0
  1  2  1  0  0  0  0
  4  1  1  0  0  0  0
  5 10  1  0  0  0  0
  5  4  2  0  0  0  0
  6  5  1  0  0  0  0
  7  6  2  0  0  0  0
  7  8  1  0  0  0  0
  8  9  2  0  0  0  0
  9  4  1  0  0  0  0
  9 14  1  0  0  0  0
 11  6  1  0  0  0  0
 12  7  1  0  0  0  0
 13  8  1  0  0  0  0
 15 14  2  0  0  0  0
 15 16  1  0  0  0  0
 16 17  1  0  0  0  0
 18 25  1  0  0  0  0
 18  1  1  0  0  0  0
 18 19  1  0  0  0  0
 20 18  1  0  0  0  0
 21 26  1  0  0  0  0
 21 27  1  0  0  0  0
 22 28  1  0  0  0  0
 22 21  2  0  0  0  0
 23 24  2  0  0  0  0
 23 22  1  0  0  0  0
 24 25  1  0  0  0  0
 25 26  2  0  0  0  0
 29 23  1  0  0  0  0
M  END
>  <minimizedAffinity>
-4.67575121

$$$$

 OpenBabel03242511433D

 29 30  0  0  0  0  0  0  0  0999 V2000
   37.5100   29.0310   41.9970 C   0  0  0  0  0  0  0  0  0  0  0  0
   38.6020   28.9910   41.9090 H   0  0  0  0  0  0  0  0  0  0  0  0
   37.2420   29.9940   42.5260 H   0  0  0  0  0  0  0  0  0  0  0  0
   36.9280   29.1350   40.6630 C   0  0  0  0  0  0  0  0  0  0  0  0
   36.2320   28.1910   39.9250 C   0  0  0  0  0  0  0  0  0  0  0  0
   35.6780   28.4100   38.6900 C   0  0  0  0  0  0  0  0  0  0  0  0
   35.8280   29.6570   38.1510 C   0  0  0  0  0  0  0  0  0  0  0  0
   36.5230   30.6210   38.8680 C   0  0  0  0  0  0  0  0  0  0  0  0
   37.0770   30.3630   40.1210 C   0  0  0  0  0  0  0  0  0  0  0  0
   36.1740   27.2400   40.4520 H   0  0  0  0  0  0  0  0  0  0  0  0
   35.1830   27.5350   38.2960 H   0  0  0  0  0  0  0  0  0  0  0  0
   35.3390   29.7030   37.1650 H   0  0  0  0  0  0  0  0  0  0  0  0
   36.4880   31.4970   38.2130 H   0  0  0  0  0  0  0  0  0  0  0  0
   37.8160   31.5840   40.4040 C   0  0  0  0  0  3  0  0  0  0  0  0
   37.7000   32.8300   40.0010 C   0  0  0  0  0  3  0  0  0  0  0  0
   38.4510   34.0320   40.2980 C   0  0  0  0  0  2  0  0  0  0  0  0
   39.2680   33.7640   41.0250 H   0  0  0  0  0  0  0  0  0  0  0  0
   36.9120   27.9380   42.8160 C   0  0  0  0  0  0  0  0  0  0  0  0
   36.1450   27.4090   42.2210 H   0  0  0  0  0  0  0  0  0  0  0  0
   36.6290   28.2460   43.8370 H   0  0  0  0  0  0  0  0  0  0  0  0
   39.9550   26.0190   43.6780 C   0  0  0  0  0  0  0  0  0  0  0  0
   39.7650   24.8210   42.9450 C   0  0  0  0  0  0  0  0  0  0  0  0
   38.6040   24.7220   42.2050 C   0  0  0  0  0  0  0  0  0  0  0  0
   37.7330   25.7340   42.2100 N   0  0  0  0  0  0  0  0  0  0  0  0
   37.9650   26.8620   42.9320 C   0  0  0  0  0  0  0  0  0  0  0  0
   39.0510   27.0110   43.6550 N   0  0  0  0  0  0  0  0  0  0  0  0
   40.8930   26.0560   44.2540 H   0  0  0  0  0  0  0  0  0  0  0  0
   40.5040   24.0200   42.9700 H   0  0  0  0  0  0  0  0  0  0  0  0
   38.3930   23.8330   41.6200 H   0  0  0  0  0  0  0  0  0  0  0  0
  1  3  1  0  0  0  0
  1 18  1  0  0  0  0
  2  1  1  0  0  0  0
  4  1  1  0  0  0  0
  5 10  1  0  0  0  0
  5  4  2  0  0  0  0
  6  5  1  0  0  0  0
  7  6  2  0  0  0  0
  7  8  1  0  0  0  0
  8  9  2  0  0  0  0
  9 14  1  0  0  0  0
  9  4  1  0  0  0  0
 11  6  1  0  0  0  0
 12  7  1  0  0  0  0
 13  8  1  0  0  0  0
 15 16  1  0  0  0  0
 15 14  2  0  0  0  0
 16 17  1  0  0  0  0
 18 25  1  0  0  0  0
 18 20  1  0  0  0  0
 19 18  1  0  0  0  0
 21 27  1  0  0  0  0
 22 28  1  0  0  0  0
 22 21  2  0  0  0  0
 23 24  2  0  0  0  0
 23 22  1  0  0  0  0
 24 25  1  0  0  0  0
 25 26  2  0  0  0  0
 26 21  1  0  0  0  0
 29 23  1  0  0  0  0
M  END
>  <minimizedAffinity>
-4.65498924

$$$$

 OpenBabel03242511433D

 29 30  0  0  0  0  0  0  0  0999 V2000
   36.6180   27.7470   42.4630 C   0  0  0  0  0  0  0  0  0  0  0  0
   36.6930   28.6000   41.7790 H   0  0  0  0  0  0  0  0  0  0  0  0
   35.5520   27.6980   42.8380 H   0  0  0  0  0  0  0  0  0  0  0  0
   36.8300   26.5140   41.7100 C   0  0  0  0  0  0  0  0  0  0  0  0
   37.1290   25.2400   42.1650 C   0  0  0  0  0  0  0  0  0  0  0  0
   37.2590   24.1310   41.3690 C   0  0  0  0  0  0  0  0  0  0  0  0
   37.0770   24.3020   40.0250 C   0  0  0  0  0  0  0  0  0  0  0  0
   36.7780   25.5690   39.5430 C   0  0  0  0  0  0  0  0  0  0  0  0
   36.6570   26.6760   40.3810 C   0  0  0  0  0  0  0  0  0  0  0  0
   37.2500   25.2230   43.2470 H   0  0  0  0  0  0  0  0  0  0  0  0
   37.4990   23.2410   41.9320 H   0  0  0  0  0  0  0  0  0  0  0  0
   37.2050   23.3420   39.5020 H   0  0  0  0  0  0  0  0  0  0  0  0
   36.6890   25.4130   38.4640 H   0  0  0  0  0  0  0  0  0  0  0  0
   36.4950   27.7750   39.4410 C   0  0  0  0  0  3  0  0  0  0  0  0
   35.5300   28.1390   38.6260 C   0  0  0  0  0  3  0  0  0  0  0  0
   35.3910   29.2410   37.6970 C   0  0  0  0  0  2  0  0  0  0  0  0
   36.3310   29.8610   37.7460 H   0  0  0  0  0  0  0  0  0  0  0  0
   37.4730   27.8470   43.6800 C   0  0  0  0  0  0  0  0  0  0  0  0
   37.8910   26.8520   43.9200 H   0  0  0  0  0  0  0  0  0  0  0  0
   37.0100   28.4090   44.5090 H   0  0  0  0  0  0  0  0  0  0  0  0
   39.8690   30.4110   42.5090 C   0  0  0  0  0  0  0  0  0  0  0  0
   41.0890   29.6890   42.4940 C   0  0  0  0  0  0  0  0  0  0  0  0
   41.0360   28.3700   42.8960 C   0  0  0  0  0  0  0  0  0  0  0  0
   39.8670   27.8430   43.2710 N   0  0  0  0  0  0  0  0  0  0  0  0
   38.7260   28.5810   43.2660 C   0  0  0  0  0  0  0  0  0  0  0  0
   38.7170   29.8400   42.8950 N   0  0  0  0  0  0  0  0  0  0  0  0
   39.9560   31.4580   42.1810 H   0  0  0  0  0  0  0  0  0  0  0  0
   42.0200   30.1600   42.1790 H   0  0  0  0  0  0  0  0  0  0  0  0
   41.9310   27.7570   42.9100 H   0  0  0  0  0  0  0  0  0  0  0  0
  1  3  1  0  0  0  0
  1 18  1  0  0  0  0
  2  1  1  0  0  0  0
  4  5  1  0  0  0  0
  4  1  1  0  0  0  0
  5 10  1  0  0  0  0
  6 11  1  0  0  0  0
  6  5  2  0  0  0  0
  7  6  1  0  0  0  0
  8  7  2  0  0  0  0
  8  9  1  0  0  0  0
  9  4  2  0  0  0  0
 12  7  1  0  0  0  0
 13  8  1  0  0  0  0
 14  9  1  0  0  0  0
 15 14  2  0  0  0  0
 16 17  1  0  0  0  0
 16 15  1  0  0  0  0
 18 19  1  0  0  0  0
 18 20  1  0  0  0  0
 21 26  1  0  0  0  0
 22 21  2  0  0  0  0
 22 23  1  0  0  0  0
 23 29  1  0  0  0  0
 23 24  2  0  0  0  0
 25 24  1  0  0  0  0
 25 18  1  0  0  0  0
 26 25  2  0  0  0  0
 27 21  1  0  0  0  0
 28 22  1  0  0  0  0
M  END
>  <minimizedAffinity>
-4.6424942

$$$$

 OpenBabel03242511433D

 29 30  0  0  0  0  0  0  0  0999 V2000
   39.5160   30.2070   42.5840 C   0  0  0  0  0  0  0  0  0  0  0  0
   39.0600   31.0530   43.1110 H   0  0  0  0  0  0  0  0  0  0  0  0
   40.4400   29.8990   43.1600 H   0  0  0  0  0  0  0  0  0  0  0  0
   38.6110   29.0640   42.6460 C   0  0  0  0  0  0  0  0  0  0  0  0
   37.2600   28.9880   42.3480 C   0  0  0  0  0  0  0  0  0  0  0  0
   36.5080   27.8430   42.3920 C   0  0  0  0  0  0  0  0  0  0  0  0
   37.1450   26.6900   42.7570 C   0  0  0  0  0  0  0  0  0  0  0  0
   38.4990   26.7390   43.0630 C   0  0  0  0  0  0  0  0  0  0  0  0
   39.2330   27.9220   43.0120 C   0  0  0  0  0  0  0  0  0  0  0  0
   36.8600   29.9620   42.0690 H   0  0  0  0  0  0  0  0  0  0  0  0
   35.4760   28.0120   42.1240 H   0  0  0  0  0  0  0  0  0  0  0  0
   36.4370   25.8480   42.7500 H   0  0  0  0  0  0  0  0  0  0  0  0
   38.7380   25.7010   43.3140 H   0  0  0  0  0  0  0  0  0  0  0  0
   40.5260   27.5230   43.5460 C   0  0  0  0  0  3  0  0  0  0  0  0
   41.7590   27.6090   43.0980 C   0  0  0  0  0  3  0  0  0  0  0  0
   43.0350   27.2020   43.6510 C   0  0  0  0  0  2  0  0  0  0  0  0
   42.8480   26.7380   44.6600 H   0  0  0  0  0  0  0  0  0  0  0  0
   39.9830   30.5130   41.2020 C   0  0  0  0  0  0  0  0  0  0  0  0
   39.5460   29.7840   40.4950 H   0  0  0  0  0  0  0  0  0  0  0  0
   41.0680   30.6960   41.1240 H   0  0  0  0  0  0  0  0  0  0  0  0
   37.4900   32.9300   39.9260 C   0  0  0  0  0  0  0  0  0  0  0  0
   38.2000   34.1540   40.0010 C   0  0  0  0  0  0  0  0  0  0  0  0
   39.4880   34.0960   40.4950 C   0  0  0  0  0  0  0  0  0  0  0  0
   39.9970   32.9200   40.8700 N   0  0  0  0  0  0  0  0  0  0  0  0
   39.2700   31.7740   40.7760 C   0  0  0  0  0  0  0  0  0  0  0  0
   38.0410   31.7690   40.3160 N   0  0  0  0  0  0  0  0  0  0  0  0
   36.4680   33.0220   39.5270 H   0  0  0  0  0  0  0  0  0  0  0  0
   37.7450   35.0920   39.6830 H   0  0  0  0  0  0  0  0  0  0  0  0
   40.0910   34.9940   40.5810 H   0  0  0  0  0  0  0  0  0  0  0  0
  1  4  1  0  0  0  0
  1  2  1  0  0  0  0
  1  3  1  0  0  0  0
  4  9  1  0  0  0  0
  5  6  1  0  0  0  0
  5  4  2  0  0  0  0
  6  7  2  0  0  0  0
  7  8  1  0  0  0  0
  8 13  1  0  0  0  0
  9  8  2  0  0  0  0
  9 14  1  0  0  0  0
 10  5  1  0  0  0  0
 11  6  1  0  0  0  0
 12  7  1  0  0  0  0
 15 14  2  0  0  0  0
 15 16  1  0  0  0  0
 16 17  1  0  0  0  0
 18  1  1  0  0  0  0
 19 18  1  0  0  0  0
 20 18  1  0  0  0  0
 21 22  2  0  0  0  0
 21 26  1  0  0  0  0
 22 23  1  0  0  0  0
 23 29  1  0  0  0  0
 23 24  2  0  0  0  0
 25 24  1  0  0  0  0
 25 18  1  0  0  0  0
 26 25  2  0  0  0  0
 27 21  1  0  0  0  0
 28 22  1  0  0  0  0
M  END
>  <minimizedAffinity>
-4.62971544

$$$$
