
 OpenBabel03252506183D

 18 18  0  0  0  0  0  0  0  0999 V2000
   44.8830   35.6810   44.0390 C   0  0  0  0  0  0  0  0  0  0  0  0
   44.3930   35.2600   42.7660 C   0  0  0  0  0  0  0  0  0  0  0  0
   44.4750   33.8900   42.4740 C   0  0  0  0  0  0  0  0  0  0  0  0
   45.0070   33.0510   43.4040 N   0  0  0  0  0  0  0  0  0  0  0  0
   45.4560   33.5000   44.5950 C   0  0  0  0  0  0  0  0  0  0  0  0
   45.3940   34.7930   44.9030 N   0  0  0  0  0  0  0  0  0  0  0  0
   43.9880   36.0100   42.1000 H   0  0  0  0  0  0  0  0  0  0  0  0
   44.1050   33.5620   41.5100 H   0  0  0  0  0  0  0  0  0  0  0  0
   44.7990   37.1160   44.3510 C   0  0  0  0  0  3  0  0  0  0  0  0
   45.4400   37.9570   43.5500 C   0  0  0  0  0  3  0  0  0  0  0  0
   45.3760   39.4250   43.8380 C   0  0  0  0  0  0  0  0  0  0  0  0
   45.8590   39.5590   44.8410 H   0  0  0  0  0  0  0  0  0  0  0  0
   44.3580   39.8100   43.9200 H   0  0  0  0  0  0  0  0  0  0  0  0
   45.9800   39.9860   43.1220 H   0  0  0  0  0  0  0  0  0  0  0  0
   46.0190   32.5650   45.5590 C   0  0  0  0  0  3  0  0  0  0  0  0
   46.1380   31.2720   45.3100 C   0  0  0  0  0  3  0  0  0  0  0  0
   46.7030   30.2840   46.2590 C   0  0  0  0  0  2  0  0  0  0  0  0
   46.8980   30.8290   47.2190 H   0  0  0  0  0  0  0  0  0  0  0  0
  1  9  1  0  0  0  0
  1  6  1  0  0  0  0
  2  1  2  0  0  0  0
  3  2  1  0  0  0  0
  3  4  2  0  0  0  0
  4  5  1  0  0  0  0
  5  6  2  0  0  0  0
  5 15  1  0  0  0  0
  7  2  1  0  0  0  0
  8  3  1  0  0  0  0
 10 11  1  0  0  0  0
 10  9  2  0  0  0  0
 11 13  1  0  0  0  0
 11 12  1  0  0  0  0
 14 11  1  0  0  0  0
 16 15  2  0  0  0  0
 16 17  1  0  0  0  0
 17 18  1  0  0  0  0
M  END
>  <minimizedAffinity>
-2.76920247

>  <minimizedRMSD>
1.06172359

$$$$
