
 OpenBabel03252504073D

 14 14  0  0  0  0  0  0  0  0999 V2000
   45.0500   35.8640   43.8590 C   0  0  0  0  0  0  0  0  0  0  0  0
   45.9820   34.9000   43.4400 C   0  0  0  0  0  0  0  0  0  0  0  0
   46.2570   33.8600   44.3410 C   0  0  0  0  0  0  0  0  0  0  0  0
   45.6280   33.8340   45.5390 N   0  0  0  0  0  0  0  0  0  0  0  0
   44.7460   34.7830   45.8870 C   0  0  0  0  0  0  0  0  0  0  0  0
   44.4610   35.7890   45.0490 N   0  0  0  0  0  0  0  0  0  0  0  0
   46.9460   33.0910   44.1070 H   0  0  0  0  0  0  0  0  0  0  0  0
   44.2930   34.6670   46.8830 H   0  0  0  0  0  0  0  0  0  0  0  0
   44.7770   36.8810   42.9840 O   0  0  0  0  0  0  0  0  0  0  0  0
   44.1090   36.7520   42.2290 H   0  0  0  0  0  0  0  0  0  0  0  0
   46.6410   34.9580   42.1400 C   0  0  0  0  0  0  0  0  0  0  0  0
   47.9360   35.1690   41.9630 C   0  0  0  0  0  0  0  0  0  0  0  0
   48.5290   35.2140   40.6000 C   0  0  0  0  0  0  0  0  0  0  0  0
   47.7610   35.6670   39.9380 H   0  0  0  0  0  0  0  0  0  0  0  0
  1  6  1  0  0  0  0
  2  1  2  0  0  0  0
  2  3  1  0  0  0  0
  3  4  2  0  0  0  0
  4  5  1  0  0  0  0
  5  8  1  0  0  0  0
  6  5  2  0  0  0  0
  7  3  1  0  0  0  0
  9  1  1  0  0  0  0
 10  9  1  0  0  0  0
 11  2  1  0  0  0  0
 12 11  2  0  0  0  0
 13 12  1  0  0  0  0
 14 13  1  0  0  0  0
M  END
>  <minimizedAffinity>
-4.3017745

>  <minimizedRMSD>
1.3988868

$$$$
