
 OpenBabel03242510293D

 29 30  0  0  1  0  0  0  0  0999 V2000
   47.8440   33.7150   40.3660 C   0  0  1  0  0  0  0  0  0  0  0  0
   48.4810   34.9580   40.9140 C   0  0  0  0  0  0  0  0  0  0  0  0
   48.0460   34.9920   42.3810 C   0  0  0  0  0  0  0  0  0  0  0  0
   46.5720   35.3760   42.3560 C   0  0  0  0  0  0  0  0  0  0  0  0
   45.7480   34.4090   41.5840 C   0  0  0  0  0  0  0  0  0  0  0  0
   46.3350   33.8600   40.3430 C   0  0  2  0  0  0  0  0  0  0  0  0
   48.0740   32.8830   41.0560 H   0  0  0  0  0  0  0  0  0  0  0  0
   49.5620   34.9670   40.7800 H   0  0  0  0  0  0  0  0  0  0  0  0
   48.0210   35.8850   40.4640 H   0  0  0  0  0  0  0  0  0  0  0  0
   48.6130   35.7000   42.9800 H   0  0  0  0  0  0  0  0  0  0  0  0
   48.0750   33.9400   42.7770 H   0  0  0  0  0  0  0  0  0  0  0  0
   46.5240   36.3750   41.8430 H   0  0  0  0  0  0  0  0  0  0  0  0
   46.2100   35.4210   43.3890 H   0  0  0  0  0  0  0  0  0  0  0  0
   45.4340   33.5950   42.2710 H   0  0  0  0  0  0  0  0  0  0  0  0
   44.8060   34.9390   41.3070 H   0  0  0  0  0  0  0  0  0  0  0  0
   46.0860   34.4320   39.4280 H   0  0  0  0  0  0  0  0  0  0  0  0
   48.5400   33.7340   36.6410 C   0  0  0  0  0  0  0  0  0  0  0  0
   48.0400   34.1750   37.8740 C   0  0  0  0  0  0  0  0  0  0  0  0
   48.3100   33.3820   39.0070 C   0  0  0  0  0  0  0  0  0  0  0  0
   49.0380   32.2540   38.8020 N   0  0  0  0  0  0  0  0  0  0  0  0
   49.5030   31.8570   37.6160 C   0  0  0  0  0  0  0  0  0  0  0  0
   49.2570   32.5940   36.5290 N   0  0  0  0  0  0  0  0  0  0  0  0
   48.3260   34.3490   35.7880 H   0  0  0  0  0  0  0  0  0  0  0  0
   47.4720   35.0610   38.0190 H   0  0  0  0  0  0  0  0  0  0  0  0
   50.0660   30.9270   37.6380 H   0  0  0  0  0  0  0  0  0  0  0  0
   45.7890   32.4850   40.1580 C   0  0  0  0  0  3  0  0  0  0  0  0
   44.9030   32.1130   39.2420 C   0  0  0  0  0  3  0  0  0  0  0  0
   44.4010   33.1370   38.3150 C   0  0  0  0  0  2  0  0  0  0  0  0
   43.5370   32.6760   37.7640 H   0  0  0  0  0  0  0  0  0  0  0  0
  1  2  1  0  0  0  0
  1  7  1  1  0  0  0
  2  3  1  0  0  0  0
  3 11  1  0  0  0  0
  3 10  1  0  0  0  0
  4  3  1  0  0  0  0
  4 13  1  0  0  0  0
  5 14  1  0  0  0  0
  5  4  1  0  0  0  0
  6 16  1  6  0  0  0
  6  1  1  0  0  0  0
  6  5  1  0  0  0  0
  8  2  1  0  0  0  0
  9  2  1  0  0  0  0
 12  4  1  0  0  0  0
 15  5  1  0  0  0  0
 17 18  1  0  0  0  0
 18 24  1  0  0  0  0
 18 19  2  0  0  0  0
 19  1  1  0  0  0  0
 20 19  1  0  0  0  0
 21 25  1  0  0  0  0
 21 20  2  0  0  0  0
 22 17  2  0  0  0  0
 22 21  1  0  0  0  0
 23 17  1  0  0  0  0
 26  6  1  0  0  0  0
 27 26  2  0  0  0  0
 28 27  1  0  0  0  0
 29 28  1  0  0  0  0
M  END
>  <minimizedAffinity>
-3.82643676

>  <minimizedRMSD>
6.30825663

$$$$
