
 OpenBabel03242510043D

 13 13  0  0  0  0  0  0  0  0999 V2000
   44.5620   35.7070   44.7820 C   0  0  0  0  0  0  0  0  0  0  0  0
   45.2520   35.6120   43.5460 C   0  0  0  0  0  0  0  0  0  0  0  0
   46.1780   34.5780   43.4120 C   0  0  0  0  0  0  0  0  0  0  0  0
   46.3760   33.7210   44.4560 N   0  0  0  0  0  0  0  0  0  0  0  0
   45.6910   33.8540   45.6210 C   0  0  0  0  0  0  0  0  0  0  0  0
   44.7970   34.8340   45.7820 N   0  0  0  0  0  0  0  0  0  0  0  0
   43.8440   36.5150   44.8760 H   0  0  0  0  0  0  0  0  0  0  0  0
   45.0810   36.2930   42.7420 H   0  0  0  0  0  0  0  0  0  0  0  0
   46.7550   34.4250   42.4990 H   0  0  0  0  0  0  0  0  0  0  0  0
   45.9810   32.8830   46.6720 C   0  0  0  0  0  0  0  0  0  0  0  0
   45.2240   32.8270   47.7390 C   0  0  0  0  0  0  0  0  0  0  0  0
   45.5500   31.8130   48.8050 C   0  0  0  0  0  0  0  0  0  0  0  0
   44.7200   31.7040   49.5050 H   0  0  0  0  0  0  0  0  0  0  0  0
  1  7  1  0  0  0  0
  1  6  1  0  0  0  0
  2  1  2  0  0  0  0
  3  2  1  0  0  0  0
  3  4  2  0  0  0  0
  4  5  1  0  0  0  0
  5  6  2  0  0  0  0
  5 10  1  0  0  0  0
  8  2  1  0  0  0  0
  9  3  1  0  0  0  0
 10 11  2  0  0  0  0
 11 12  1  0  0  0  0
 12 13  1  0  0  0  0
M  END
>  <minimizedAffinity>
-3.66319871

>  <minimizedRMSD>
0.639252782

$$$$
