
 OpenBabel03242519523D

 29 30  0  0  1  0  0  0  0  0999 V2000
   47.2300   33.8750   42.5840 C   0  0  2  0  0  0  0  0  0  0  0  0
   48.4870   34.6390   42.5140 C   0  0  0  0  0  0  0  0  0  0  0  0
   48.6060   35.4990   41.2900 C   0  0  0  0  0  0  0  0  0  0  0  0
   48.4180   34.7100   40.0050 C   0  0  0  0  0  0  0  0  0  0  0  0
   47.3690   33.6490   40.1020 C   0  0  1  0  0  0  0  0  0  0  0  0
   46.4490   33.8950   41.2750 C   0  0  0  0  0  0  0  0  0  0  0  0
   47.3830   32.7720   42.7780 H   0  0  0  0  0  0  0  0  0  0  0  0
   48.7470   35.2330   43.3900 H   0  0  0  0  0  0  0  0  0  0  0  0
   49.3200   33.8800   42.4260 H   0  0  0  0  0  0  0  0  0  0  0  0
   47.8620   36.3120   41.2330 H   0  0  0  0  0  0  0  0  0  0  0  0
   49.6170   35.9530   41.2990 H   0  0  0  0  0  0  0  0  0  0  0  0
   49.4130   34.2960   39.7320 H   0  0  0  0  0  0  0  0  0  0  0  0
   48.1690   35.4190   39.1890 H   0  0  0  0  0  0  0  0  0  0  0  0
   47.9210   32.6940   40.3350 H   0  0  0  0  0  0  0  0  0  0  0  0
   46.0100   34.8940   41.1640 H   0  0  0  0  0  0  0  0  0  0  0  0
   45.6950   33.0880   41.2840 H   0  0  0  0  0  0  0  0  0  0  0  0
   46.3210   34.3480   43.6430 C   0  0  0  0  0  0  0  0  0  0  0  0
   45.5630   35.4930   43.3360 C   0  0  0  0  0  0  0  0  0  0  0  0
   44.6700   36.0040   44.2800 C   0  0  0  0  0  0  0  0  0  0  0  0
   44.5880   35.3350   45.4770 N   0  0  0  0  0  0  0  0  0  0  0  0
   45.3320   34.2300   45.7450 C   0  0  0  0  0  0  0  0  0  0  0  0
   46.1840   33.7520   44.8330 N   0  0  0  0  0  0  0  0  0  0  0  0
   45.5480   36.0850   42.4540 H   0  0  0  0  0  0  0  0  0  0  0  0
   44.0460   36.8660   44.1550 H   0  0  0  0  0  0  0  0  0  0  0  0
   45.2310   33.7370   46.7050 H   0  0  0  0  0  0  0  0  0  0  0  0
   46.6030   33.4380   38.8730 C   0  0  0  0  0  0  0  0  0  0  0  0
   47.0460   32.9710   37.7080 C   0  0  0  0  0  0  0  0  0  0  0  0
   46.4930   32.6730   36.3590 C   0  0  0  0  0  0  0  0  0  0  0  0
   45.4280   32.9890   36.3980 H   0  0  0  0  0  0  0  0  0  0  0  0
  1  7  1  1  0  0  0
  1 17  1  0  0  0  0
  2  1  1  0  0  0  0
  2  8  1  0  0  0  0
  3 11  1  0  0  0  0
  3  2  1  0  0  0  0
  4  5  1  0  0  0  0
  4  3  1  0  0  0  0
  5 14  1  1  0  0  0
  5  6  1  0  0  0  0
  6 16  1  0  0  0  0
  6  1  1  0  0  0  0
  9  2  1  0  0  0  0
 10  3  1  0  0  0  0
 12  4  1  0  0  0  0
 13  4  1  0  0  0  0
 15  6  1  0  0  0  0
 17 22  1  0  0  0  0
 18 17  2  0  0  0  0
 18 19  1  0  0  0  0
 19 20  2  0  0  0  0
 20 21  1  0  0  0  0
 21 25  1  0  0  0  0
 22 21  2  0  0  0  0
 23 18  1  0  0  0  0
 24 19  1  0  0  0  0
 26  5  1  0  0  0  0
 27 26  2  0  0  0  0
 28 29  1  0  0  0  0
 28 27  1  0  0  0  0
M  END
>  <minimizedAffinity>
-4.98114491

>  <minimizedRMSD>
5.96453667

$$$$
