
 OpenBabel03252504003D

 29 31  0  0  0  0  0  0  0  0999 V2000
   46.0500   31.7360   45.1460 C   0  0  0  0  0  0  0  0  0  0  0  0
   45.7630   33.0280   45.5640 C   0  0  0  0  0  0  0  0  0  0  0  0
   45.4680   33.2930   46.8970 C   0  0  0  0  0  0  0  0  0  0  0  0
   45.4720   32.2310   47.7810 C   0  0  0  0  0  0  0  0  0  0  0  0
   45.2330   32.1590   49.1020 N   0  0  0  0  0  0  0  0  0  0  0  0
   45.3510   30.8970   49.5460 C   0  0  0  0  0  0  0  0  0  0  0  0
   45.6830   30.0920   48.4720 C   0  0  0  0  0  0  0  0  0  0  0  0
   45.7580   30.9230   47.3730 C   0  0  0  0  0  0  0  0  0  0  0  0
   46.0440   30.6970   46.0520 C   0  0  0  0  0  0  0  0  0  0  0  0
   46.2830   31.4920   44.1130 H   0  0  0  0  0  0  0  0  0  0  0  0
   45.2470   34.3010   47.2160 H   0  0  0  0  0  0  0  0  0  0  0  0
   44.9860   32.9320   49.7490 H   0  0  0  0  0  0  0  0  0  0  0  0
   45.2440   30.4260   50.5100 H   0  0  0  0  0  0  0  0  0  0  0  0
   45.8650   29.0380   48.4040 H   0  0  0  0  0  0  0  0  0  0  0  0
   46.2660   29.6880   45.7330 H   0  0  0  0  0  0  0  0  0  0  0  0
   46.7860   35.0140   42.6690 C   0  0  0  0  0  0  0  0  0  0  0  0
   45.8620   36.0620   42.6390 C   0  0  0  0  0  0  0  0  0  0  0  0
   44.8820   36.0790   43.6240 C   0  0  0  0  0  0  0  0  0  0  0  0
   44.8690   35.0910   44.5580 N   0  0  0  0  0  0  0  0  0  0  0  0
   45.7840   34.0920   44.5530 C   0  0  0  0  0  0  0  0  0  0  0  0
   46.7450   34.0490   43.6110 N   0  0  0  0  0  0  0  0  0  0  0  0
   45.9120   36.8290   41.8740 H   0  0  0  0  0  0  0  0  0  0  0  0
   44.1570   36.8830   43.6180 H   0  0  0  0  0  0  0  0  0  0  0  0
   47.7890   35.0320   41.6290 C   0  0  0  0  0  0  0  0  0  0  0  0
   48.7600   35.8470   41.5730 O   0  0  0  0  0  0  0  0  0  0  0  0
   47.7280   34.0610   40.5380 C   0  0  0  0  0  3  0  0  0  0  0  0
   46.5640   33.7490   40.0020 C   0  0  0  0  0  3  0  0  0  0  0  0
   46.4040   32.7770   38.8940 C   0  0  0  0  0  2  0  0  0  0  0  0
   47.3710   32.2620   38.7450 H   0  0  0  0  0  0  0  0  0  0  0  0
  1  2  2  0  0  0  0
  1  9  1  0  0  0  0
  2  3  1  0  0  0  0
  3 11  1  0  0  0  0
  3  4  2  0  0  0  0
  4  5  1  0  0  0  0
  5  6  1  0  0  0  0
  5 12  1  0  0  0  0
  6 13  1  0  0  0  0
  7  6  2  0  0  0  0
  8  4  1  0  0  0  0
  8  7  1  0  0  0  0
  9  8  2  0  0  0  0
 10  1  1  0  0  0  0
 14  7  1  0  0  0  0
 15  9  1  0  0  0  0
 16 21  1  0  0  0  0
 17 16  2  0  0  0  0
 17 18  1  0  0  0  0
 18 19  2  0  0  0  0
 20 19  1  0  0  0  0
 20  2  1  0  0  0  0
 21 20  2  0  0  0  0
 22 17  1  0  0  0  0
 23 18  1  0  0  0  0
 24 16  1  0  0  0  0
 25 24  2  0  0  0  0
 26 24  1  0  0  0  0
 27 26  2  0  0  0  0
 28 27  1  0  0  0  0
 29 28  1  0  0  0  0
M  END
>  <minimizedAffinity>
-5.60731983

>  <minimizedRMSD>
0.224106163

$$$$
