
 OpenBabel03252506483D

 24 25  0  0  0  0  0  0  0  0999 V2000
   43.5330   34.0320   40.1590 S   0  0  0  0  0  0  0  0  0  0  0  0
   41.5420   31.5450   39.8660 Cl  0  0  0  0  0  0  0  0  0  0  0  0
   40.8640   33.1620   39.9580 C   0  0  0  0  0  0  0  0  0  0  0  0
   41.7750   34.1720   40.0820 C   0  0  0  0  0  0  0  0  0  0  0  0
   41.2820   35.4710   40.1590 C   0  0  0  0  0  0  0  0  0  0  0  0
   39.9120   35.6950   40.1080 C   0  0  0  0  0  0  0  0  0  0  0  0
   38.9960   34.6760   39.9840 C   0  0  0  0  0  0  0  0  0  0  0  0
   39.4960   33.3740   39.9070 C   0  0  0  0  0  0  0  0  0  0  0  0
   38.4300   31.9990   39.7480 Cl  0  0  0  0  0  0  0  0  0  0  0  0
   41.9200   36.3380   40.2570 H   0  0  0  0  0  0  0  0  0  0  0  0
   39.5200   36.7150   40.1680 H   0  0  0  0  0  0  0  0  0  0  0  0
   37.9240   34.8590   39.9450 H   0  0  0  0  0  0  0  0  0  0  0  0
   44.1970   34.3230   41.7980 C   0  0  0  0  0  0  0  0  0  0  0  0
   44.6340   33.1690   42.4630 C   0  0  0  0  0  0  0  0  0  0  0  0
   45.1670   33.3200   43.7550 C   0  0  0  0  0  0  0  0  0  0  0  0
   45.2300   34.5730   44.2900 N   0  0  0  0  0  0  0  0  0  0  0  0
   44.7960   35.6460   43.6070 C   0  0  0  0  0  0  0  0  0  0  0  0
   44.2730   35.5460   42.3540 N   0  0  0  0  0  0  0  0  0  0  0  0
   44.5770   32.1810   42.0270 H   0  0  0  0  0  0  0  0  0  0  0  0
   45.5250   32.4850   44.3350 H   0  0  0  0  0  0  0  0  0  0  0  0
   44.8860   36.9650   44.2250 C   0  0  0  0  0  3  0  0  0  0  0  0
   45.3050   37.9930   43.5040 C   0  0  0  0  0  3  0  0  0  0  0  0
   45.4560   39.3880   43.9620 C   0  0  0  0  0  2  0  0  0  0  0  0
   44.7820   40.0710   43.3680 H   0  0  0  0  0  0  0  0  0  0  0  0
  1 13  1  0  0  0  0
  2  3  1  0  0  0  0
  3  4  1  0  0  0  0
  4  5  2  0  0  0  0
  4  1  1  0  0  0  0
  5 10  1  0  0  0  0
  6  5  1  0  0  0  0
  6 11  1  0  0  0  0
  7  6  2  0  0  0  0
  8  3  2  0  0  0  0
  8  7  1  0  0  0  0
  9  8  1  0  0  0  0
 12  7  1  0  0  0  0
 13 18  2  0  0  0  0
 13 14  1  0  0  0  0
 14 15  2  0  0  0  0
 15 16  1  0  0  0  0
 15 20  1  0  0  0  0
 17 21  1  0  0  0  0
 17 16  2  0  0  0  0
 18 17  1  0  0  0  0
 19 14  1  0  0  0  0
 22 23  1  0  0  0  0
 22 21  2  0  0  0  0
 24 23  1  0  0  0  0
M  END
>  <minimizedAffinity>
-4.6286211

>  <minimizedRMSD>
1.33422554

$$$$
