
 OpenBabel03252504563D

 26 27  0  0  1  0  0  0  0  0999 V2000
   36.8560   29.1480   41.7400 N   0  0  0  0  0  0  0  0  0  0  0  0
   38.1860   29.5450   42.0720 C   0  0  0  0  0  0  0  0  0  0  0  0
   38.4240   28.8320   43.3570 C   0  0  0  0  0  0  0  0  0  0  0  0
   37.2080   27.9840   43.6770 C   0  0  0  0  0  0  0  0  0  0  0  0
   36.4970   27.9370   42.3010 C   0  0  2  0  0  0  0  0  0  0  0  0
   38.9570   30.1410   41.6930 H   0  0  0  0  0  0  0  0  0  0  0  0
   39.3220   28.8450   43.9860 H   0  0  0  0  0  0  0  0  0  0  0  0
   37.5480   26.9980   43.9980 H   0  0  0  0  0  0  0  0  0  0  0  0
   36.6110   28.5580   44.4020 H   0  0  0  0  0  0  0  0  0  0  0  0
   35.4460   27.7440   42.5450 H   0  0  0  0  0  0  0  0  0  0  0  0
   36.0700   29.9980   41.0250 C   0  0  0  0  0  0  0  0  0  0  0  0
   35.8990   30.9370   41.6490 H   0  0  0  0  0  0  0  0  0  0  0  0
   35.0050   29.7040   40.8230 H   0  0  0  0  0  0  0  0  0  0  0  0
   37.3170   30.3800   37.4860 C   0  0  0  0  0  0  0  0  0  0  0  0
   36.8250   29.7250   38.6460 C   0  0  0  0  0  0  0  0  0  0  0  0
   36.6170   30.5060   39.7790 C   0  0  0  0  0  0  0  0  0  0  0  0
   36.8910   31.8280   39.7190 N   0  0  0  0  0  0  0  0  0  0  0  0
   37.3670   32.4410   38.5840 C   0  0  0  0  0  0  0  0  0  0  0  0
   37.5740   31.7130   37.4820 N   0  0  0  0  0  0  0  0  0  0  0  0
   37.4410   29.6740   36.6610 H   0  0  0  0  0  0  0  0  0  0  0  0
   36.6130   28.6830   38.6860 H   0  0  0  0  0  0  0  0  0  0  0  0
   37.5770   33.4990   38.5680 H   0  0  0  0  0  0  0  0  0  0  0  0
   37.0090   26.7130   41.6310 C   0  0  0  0  0  3  0  0  0  0  0  0
   37.1120   25.4990   42.1590 C   0  0  0  0  0  3  0  0  0  0  0  0
   37.6520   24.3250   41.3710 C   0  0  0  0  0  2  0  0  0  0  0  0
   36.8450   23.9560   40.7280 H   0  0  0  0  0  0  0  0  0  0  0  0
  1  2  1  0  0  0  0
  1  5  1  0  0  0  0
  2  3  2  0  0  0  0
  3  4  1  0  0  0  0
  3  7  1  0  0  0  0
  4  8  1  0  0  0  0
  4  9  1  0  0  0  0
  5 10  1  1  0  0  0
  5  4  1  0  0  0  0
  6  2  1  0  0  0  0
 11 12  1  0  0  0  0
 11  1  1  0  0  0  0
 13 11  1  0  0  0  0
 14 15  1  0  0  0  0
 15 21  1  0  0  0  0
 15 16  2  0  0  0  0
 16 11  1  0  0  0  0
 17 16  1  0  0  0  0
 18 17  2  0  0  0  0
 19 14  2  0  0  0  0
 19 18  1  0  0  0  0
 20 14  1  0  0  0  0
 22 18  1  0  0  0  0
 23 24  2  0  0  0  0
 23  5  1  0  0  0  0
 25 24  1  0  0  0  0
 26 25  1  0  0  0  0
M  END
>  <minimizedAffinity>
-4.52991962

$$$$

 OpenBabel03252504563D

 26 27  0  0  1  0  0  0  0  0999 V2000
   37.0740   31.1420   40.3700 N   0  0  0  0  0  0  0  0  0  0  0  0
   37.2870   30.5520   39.0880 C   0  0  0  0  0  0  0  0  0  0  0  0
   37.3500   31.7400   38.1930 C   0  0  0  0  0  0  0  0  0  0  0  0
   37.2320   32.9940   39.0370 C   0  0  0  0  0  0  0  0  0  0  0  0
   37.5390   32.4400   40.4520 C   0  0  2  0  0  0  0  0  0  0  0  0
   37.3990   29.6070   38.6540 H   0  0  0  0  0  0  0  0  0  0  0  0
   37.4990   31.7670   37.1070 H   0  0  0  0  0  0  0  0  0  0  0  0
   37.9860   33.7090   38.7040 H   0  0  0  0  0  0  0  0  0  0  0  0
   36.1820   33.3180   38.9690 H   0  0  0  0  0  0  0  0  0  0  0  0
   37.0510   33.1470   41.1320 H   0  0  0  0  0  0  0  0  0  0  0  0
   36.3790   30.4470   41.3110 C   0  0  0  0  0  0  0  0  0  0  0  0
   35.4880   29.9490   40.8020 H   0  0  0  0  0  0  0  0  0  0  0  0
   35.8470   31.0190   42.1170 H   0  0  0  0  0  0  0  0  0  0  0  0
   38.8200   28.3050   43.2300 C   0  0  0  0  0  0  0  0  0  0  0  0
   38.2970   29.4660   42.6010 C   0  0  0  0  0  0  0  0  0  0  0  0
   37.0700   29.3430   41.9550 C   0  0  0  0  0  0  0  0  0  0  0  0
   36.4500   28.1430   41.9570 N   0  0  0  0  0  0  0  0  0  0  0  0
   36.9750   27.0320   42.5720 C   0  0  0  0  0  0  0  0  0  0  0  0
   38.1510   27.1230   43.2020 N   0  0  0  0  0  0  0  0  0  0  0  0
   39.7810   28.5160   43.7050 H   0  0  0  0  0  0  0  0  0  0  0  0
   38.7930   30.4070   42.6030 H   0  0  0  0  0  0  0  0  0  0  0  0
   36.4540   26.0860   42.5560 H   0  0  0  0  0  0  0  0  0  0  0  0
   39.0040   32.6140   40.6370 C   0  0  0  0  0  3  0  0  0  0  0  0
   39.7300   33.6740   40.3010 C   0  0  0  0  0  3  0  0  0  0  0  0
   41.2230   33.7330   40.5410 C   0  0  0  0  0  2  0  0  0  0  0  0
   41.3800   33.9840   41.5960 H   0  0  0  0  0  0  0  0  0  0  0  0
  1  5  1  0  0  0  0
  1 11  1  0  0  0  0
  2  1  1  0  0  0  0
  3  4  1  0  0  0  0
  3  2  2  0  0  0  0
  4  5  1  0  0  0  0
  5 23  1  0  0  0  0
  5 10  1  1  0  0  0
  6  2  1  0  0  0  0
  7  3  1  0  0  0  0
  8  4  1  0  0  0  0
  9  4  1  0  0  0  0
 11 16  1  0  0  0  0
 11 13  1  0  0  0  0
 12 11  1  0  0  0  0
 14 20  1  0  0  0  0
 15 21  1  0  0  0  0
 15 14  2  0  0  0  0
 16 17  2  0  0  0  0
 16 15  1  0  0  0  0
 17 18  1  0  0  0  0
 18 19  2  0  0  0  0
 19 14  1  0  0  0  0
 22 18  1  0  0  0  0
 24 25  1  0  0  0  0
 24 23  2  0  0  0  0
 25 26  1  0  0  0  0
M  END
>  <minimizedAffinity>
-4.28474379

$$$$

 OpenBabel03252504563D

 26 27  0  0  1  0  0  0  0  0999 V2000
   38.5690   28.7120   41.5860 N   0  0  0  0  0  0  0  0  0  0  0  0
   38.7930   28.8540   42.9880 C   0  0  0  0  0  0  0  0  0  0  0  0
   37.4820   28.4530   43.5670 C   0  0  0  0  0  0  0  0  0  0  0  0
   36.5620   28.0250   42.4410 C   0  0  0  0  0  0  0  0  0  0  0  0
   37.5730   27.8010   41.2880 C   0  0  2  0  0  0  0  0  0  0  0  0
   39.5540   29.1360   43.6480 H   0  0  0  0  0  0  0  0  0  0  0  0
   37.1880   28.4120   44.6230 H   0  0  0  0  0  0  0  0  0  0  0  0
   36.0620   27.0990   42.7340 H   0  0  0  0  0  0  0  0  0  0  0  0
   35.9120   28.8860   42.2240 H   0  0  0  0  0  0  0  0  0  0  0  0
   36.9780   27.9290   40.3760 H   0  0  0  0  0  0  0  0  0  0  0  0
   39.2460   29.5140   40.7210 C   0  0  0  0  0  0  0  0  0  0  0  0
   39.1870   29.0500   39.6810 H   0  0  0  0  0  0  0  0  0  0  0  0
   40.3600   29.6020   40.8310 H   0  0  0  0  0  0  0  0  0  0  0  0
   38.6960   33.2450   40.7820 C   0  0  0  0  0  0  0  0  0  0  0  0
   39.2850   31.9940   41.1090 C   0  0  0  0  0  0  0  0  0  0  0  0
   38.7280   30.8580   40.5290 C   0  0  0  0  0  0  0  0  0  0  0  0
   37.6720   30.9990   39.6990 N   0  0  0  0  0  0  0  0  0  0  0  0
   37.1190   32.2210   39.3970 C   0  0  0  0  0  0  0  0  0  0  0  0
   37.6350   33.3290   39.9390 N   0  0  0  0  0  0  0  0  0  0  0  0
   39.2100   34.0640   41.2890 H   0  0  0  0  0  0  0  0  0  0  0  0
   40.1150   31.8920   41.7650 H   0  0  0  0  0  0  0  0  0  0  0  0
   36.2740   32.3010   38.7290 H   0  0  0  0  0  0  0  0  0  0  0  0
   37.9420   26.3620   41.3560 C   0  0  0  0  0  3  0  0  0  0  0  0
   37.1310   25.3430   41.6140 C   0  0  0  0  0  3  0  0  0  0  0  0
   37.6270   23.9140   41.6550 C   0  0  0  0  0  2  0  0  0  0  0  0
   37.7120   23.5610   40.6220 H   0  0  0  0  0  0  0  0  0  0  0  0
  1  2  1  0  0  0  0
  2  3  2  0  0  0  0
  2  6  1  0  0  0  0
  3  7  1  0  0  0  0
  4  8  1  0  0  0  0
  4  3  1  0  0  0  0
  5 10  1  6  0  0  0
  5 23  1  0  0  0  0
  5  1  1  0  0  0  0
  5  4  1  0  0  0  0
  9  4  1  0  0  0  0
 11 13  1  0  0  0  0
 11  1  1  0  0  0  0
 12 11  1  0  0  0  0
 14 15  1  0  0  0  0
 14 20  1  0  0  0  0
 15 21  1  0  0  0  0
 16 11  1  0  0  0  0
 16 15  2  0  0  0  0
 17 16  1  0  0  0  0
 18 17  2  0  0  0  0
 18 19  1  0  0  0  0
 19 14  2  0  0  0  0
 22 18  1  0  0  0  0
 23 24  2  0  0  0  0
 24 25  1  0  0  0  0
 26 25  1  0  0  0  0
M  END
>  <minimizedAffinity>
-4.24297523

$$$$

 OpenBabel03252504563D

 26 27  0  0  1  0  0  0  0  0999 V2000
   36.5820   30.6100   39.8440 N   0  0  0  0  0  0  0  0  0  0  0  0
   36.9000   31.8920   39.3020 C   0  0  0  0  0  0  0  0  0  0  0  0
   37.7550   31.5440   38.1340 C   0  0  0  0  0  0  0  0  0  0  0  0
   37.8360   30.0350   38.0200 C   0  0  0  0  0  0  0  0  0  0  0  0
   36.6430   29.5970   38.9070 C   0  0  2  0  0  0  0  0  0  0  0  0
   36.7120   32.9040   39.4870 H   0  0  0  0  0  0  0  0  0  0  0  0
   38.2360   32.2210   37.4170 H   0  0  0  0  0  0  0  0  0  0  0  0
   37.6940   29.7570   36.9740 H   0  0  0  0  0  0  0  0  0  0  0  0
   38.7900   29.7380   38.4810 H   0  0  0  0  0  0  0  0  0  0  0  0
   36.9010   28.5800   39.2260 H   0  0  0  0  0  0  0  0  0  0  0  0
   36.3590   30.4940   41.1810 C   0  0  0  0  0  0  0  0  0  0  0  0
   35.2860   30.1400   41.3350 H   0  0  0  0  0  0  0  0  0  0  0  0
   36.3460   31.4260   41.8060 H   0  0  0  0  0  0  0  0  0  0  0  0
   37.6000   27.3780   42.9080 C   0  0  0  0  0  0  0  0  0  0  0  0
   36.6840   28.2500   42.2590 C   0  0  0  0  0  0  0  0  0  0  0  0
   37.1530   29.5100   41.8960 C   0  0  0  0  0  0  0  0  0  0  0  0
   38.4340   29.8340   42.1750 N   0  0  0  0  0  0  0  0  0  0  0  0
   39.3020   28.9740   42.8040 C   0  0  0  0  0  0  0  0  0  0  0  0
   38.8780   27.7570   43.1620 N   0  0  0  0  0  0  0  0  0  0  0  0
   37.1280   26.4220   43.1450 H   0  0  0  0  0  0  0  0  0  0  0  0
   35.6770   27.9870   42.0440 H   0  0  0  0  0  0  0  0  0  0  0  0
   40.3210   29.2630   43.0130 H   0  0  0  0  0  0  0  0  0  0  0  0
   35.4850   29.4710   37.9820 C   0  0  0  0  0  3  0  0  0  0  0  0
   34.3250   28.8770   38.2340 C   0  0  0  0  0  3  0  0  0  0  0  0
   33.2160   28.8140   37.2060 C   0  0  0  0  0  2  0  0  0  0  0  0
   32.7010   29.7820   37.2120 H   0  0  0  0  0  0  0  0  0  0  0  0
  1 11  1  0  0  0  0
  2  6  1  0  0  0  0
  2  1  1  0  0  0  0
  3  2  2  0  0  0  0
  4  3  1  0  0  0  0
  4  9  1  0  0  0  0
  4  5  1  0  0  0  0
  5 10  1  1  0  0  0
  5  1  1  0  0  0  0
  7  3  1  0  0  0  0
  8  4  1  0  0  0  0
 11 12  1  0  0  0  0
 11 13  1  0  0  0  0
 11 16  1  0  0  0  0
 14 20  1  0  0  0  0
 14 19  1  0  0  0  0
 15 14  2  0  0  0  0
 16 17  2  0  0  0  0
 16 15  1  0  0  0  0
 17 18  1  0  0  0  0
 18 22  1  0  0  0  0
 18 19  2  0  0  0  0
 21 15  1  0  0  0  0
 23 24  2  0  0  0  0
 23  5  1  0  0  0  0
 25 26  1  0  0  0  0
 25 24  1  0  0  0  0
M  END
>  <minimizedAffinity>
-4.16183996

$$$$

 OpenBabel03252504563D

 26 27  0  0  1  0  0  0  0  0999 V2000
   36.7120   28.6760   41.6920 N   0  0  0  0  0  0  0  0  0  0  0  0
   36.1910   28.3700   40.3990 C   0  0  0  0  0  0  0  0  0  0  0  0
   35.7770   29.7070   39.8940 C   0  0  0  0  0  0  0  0  0  0  0  0
   36.1500   30.7550   40.9240 C   0  0  0  0  0  0  0  0  0  0  0  0
   37.1660   29.9760   41.7980 C   0  0  2  0  0  0  0  0  0  0  0  0
   36.0380   27.5430   39.7770 H   0  0  0  0  0  0  0  0  0  0  0  0
   35.3160   29.9590   38.9310 H   0  0  0  0  0  0  0  0  0  0  0  0
   36.6140   31.5990   40.4090 H   0  0  0  0  0  0  0  0  0  0  0  0
   35.2350   30.9720   41.4950 H   0  0  0  0  0  0  0  0  0  0  0  0
   37.1330   30.4830   42.7690 H   0  0  0  0  0  0  0  0  0  0  0  0
   36.6270   27.7420   42.6780 C   0  0  0  0  0  0  0  0  0  0  0  0
   35.7650   27.0380   42.4290 H   0  0  0  0  0  0  0  0  0  0  0  0
   36.3170   28.0730   43.7050 H   0  0  0  0  0  0  0  0  0  0  0  0
   39.9110   26.1790   43.6790 C   0  0  0  0  0  0  0  0  0  0  0  0
   38.9060   27.1770   43.5670 C   0  0  0  0  0  0  0  0  0  0  0  0
   37.7640   26.8530   42.8400 C   0  0  0  0  0  0  0  0  0  0  0  0
   37.6710   25.6250   42.2850 N   0  0  0  0  0  0  0  0  0  0  0  0
   38.6570   24.6740   42.4070 C   0  0  0  0  0  0  0  0  0  0  0  0
   39.7630   24.9600   43.1010 N   0  0  0  0  0  0  0  0  0  0  0  0
   40.7570   26.5400   44.2680 H   0  0  0  0  0  0  0  0  0  0  0  0
   38.9880   28.1420   44.0060 H   0  0  0  0  0  0  0  0  0  0  0  0
   38.5530   23.7010   41.9510 H   0  0  0  0  0  0  0  0  0  0  0  0
   38.5010   30.2680   41.2120 C   0  0  0  0  0  3  0  0  0  0  0  0
   38.9680   31.4550   40.8440 C   0  0  0  0  0  3  0  0  0  0  0  0
   40.3510   31.6260   40.2570 C   0  0  0  0  0  2  0  0  0  0  0  0
   41.0680   31.6230   41.0860 H   0  0  0  0  0  0  0  0  0  0  0  0
  1  5  1  0  0  0  0
  1 11  1  0  0  0  0
  2  1  1  0  0  0  0
  3  2  2  0  0  0  0
  3  4  1  0  0  0  0
  4  9  1  0  0  0  0
  4  5  1  0  0  0  0
  5 10  1  1  0  0  0
  6  2  1  0  0  0  0
  7  3  1  0  0  0  0
  8  4  1  0  0  0  0
 11 16  1  0  0  0  0
 11 13  1  0  0  0  0
 12 11  1  0  0  0  0
 14 20  1  0  0  0  0
 15 14  1  0  0  0  0
 15 21  1  0  0  0  0
 16 15  2  0  0  0  0
 17 18  2  0  0  0  0
 17 16  1  0  0  0  0
 18 19  1  0  0  0  0
 19 14  2  0  0  0  0
 22 18  1  0  0  0  0
 23  5  1  0  0  0  0
 24 23  2  0  0  0  0
 25 24  1  0  0  0  0
 25 26  1  0  0  0  0
M  END
>  <minimizedAffinity>
-4.15594292

$$$$

 OpenBabel03252504563D

 26 27  0  0  1  0  0  0  0  0999 V2000
   36.4340   29.0960   40.7360 N   0  0  0  0  0  0  0  0  0  0  0  0
   35.0740   29.1610   40.3050 C   0  0  0  0  0  0  0  0  0  0  0  0
   35.1420   28.5790   38.9370 C   0  0  0  0  0  0  0  0  0  0  0  0
   36.5660   28.1340   38.6650 C   0  0  0  0  0  0  0  0  0  0  0  0
   37.1560   28.1060   40.0980 C   0  0  2  0  0  0  0  0  0  0  0  0
   34.1410   29.4770   40.6560 H   0  0  0  0  0  0  0  0  0  0  0  0
   34.3260   28.4310   38.2190 H   0  0  0  0  0  0  0  0  0  0  0  0
   36.5390   27.1410   38.2130 H   0  0  0  0  0  0  0  0  0  0  0  0
   37.0340   28.9320   38.0700 H   0  0  0  0  0  0  0  0  0  0  0  0
   38.2340   28.2330   39.9510 H   0  0  0  0  0  0  0  0  0  0  0  0
   36.8960   30.0270   41.6130 C   0  0  0  0  0  0  0  0  0  0  0  0
   37.6440   29.5220   42.3100 H   0  0  0  0  0  0  0  0  0  0  0  0
   36.1840   30.4520   42.3700 H   0  0  0  0  0  0  0  0  0  0  0  0
   37.9320   33.1710   39.8050 C   0  0  0  0  0  0  0  0  0  0  0  0
   37.0840   32.1120   40.2280 C   0  0  0  0  0  0  0  0  0  0  0  0
   37.6420   31.1410   41.0550 C   0  0  0  0  0  0  0  0  0  0  0  0
   38.9410   31.2520   41.4070 N   0  0  0  0  0  0  0  0  0  0  0  0
   39.7430   32.2860   40.9850 C   0  0  0  0  0  0  0  0  0  0  0  0
   39.2320   33.2330   40.1910 N   0  0  0  0  0  0  0  0  0  0  0  0
   37.3930   33.8720   39.1640 H   0  0  0  0  0  0  0  0  0  0  0  0
   36.0630   32.0310   39.9440 H   0  0  0  0  0  0  0  0  0  0  0  0
   40.7790   32.3470   41.2840 H   0  0  0  0  0  0  0  0  0  0  0  0
   36.9540   26.7140   40.5830 C   0  0  0  0  0  3  0  0  0  0  0  0
   37.1960   26.2530   41.8050 C   0  0  0  0  0  3  0  0  0  0  0  0
   36.9490   24.8080   42.1800 C   0  0  0  0  0  2  0  0  0  0  0  0
   35.8760   24.6910   42.3690 H   0  0  0  0  0  0  0  0  0  0  0  0
  1 11  1  0  0  0  0
  2  6  1  0  0  0  0
  2  1  1  0  0  0  0
  3  2  2  0  0  0  0
  4  3  1  0  0  0  0
  4  5  1  0  0  0  0
  5 10  1  6  0  0  0
  5 23  1  0  0  0  0
  5  1  1  0  0  0  0
  7  3  1  0  0  0  0
  8  4  1  0  0  0  0
  9  4  1  0  0  0  0
 11 12  1  0  0  0  0
 11 13  1  0  0  0  0
 14 19  2  0  0  0  0
 14 15  1  0  0  0  0
 15 16  2  0  0  0  0
 16 17  1  0  0  0  0
 16 11  1  0  0  0  0
 18 22  1  0  0  0  0
 18 17  2  0  0  0  0
 19 18  1  0  0  0  0
 20 14  1  0  0  0  0
 21 15  1  0  0  0  0
 23 24  2  0  0  0  0
 24 25  1  0  0  0  0
 25 26  1  0  0  0  0
M  END
>  <minimizedAffinity>
-4.1273818

$$$$

 OpenBabel03252504563D

 26 27  0  0  1  0  0  0  0  0999 V2000
   38.6910   29.0410   42.5290 N   0  0  0  0  0  0  0  0  0  0  0  0
   39.3180   27.7590   42.5320 C   0  0  0  0  0  0  0  0  0  0  0  0
   38.3580   26.9330   43.3160 C   0  0  0  0  0  0  0  0  0  0  0  0
   37.1610   27.7900   43.6800 C   0  0  0  0  0  0  0  0  0  0  0  0
   37.3210   28.9740   42.6920 C   0  0  2  0  0  0  0  0  0  0  0  0
   40.1810   27.2930   42.1690 H   0  0  0  0  0  0  0  0  0  0  0  0
   38.4310   25.8710   43.5790 H   0  0  0  0  0  0  0  0  0  0  0  0
   36.2530   27.2150   43.4890 H   0  0  0  0  0  0  0  0  0  0  0  0
   37.3210   28.1260   44.7150 H   0  0  0  0  0  0  0  0  0  0  0  0
   36.7920   29.8030   43.1750 H   0  0  0  0  0  0  0  0  0  0  0  0
   39.4670   30.1570   42.4700 C   0  0  0  0  0  0  0  0  0  0  0  0
   40.5600   29.8330   42.4860 H   0  0  0  0  0  0  0  0  0  0  0  0
   39.4620   30.8610   43.3440 H   0  0  0  0  0  0  0  0  0  0  0  0
   39.2630   31.3620   38.9020 C   0  0  0  0  0  0  0  0  0  0  0  0
   39.4350   30.4490   39.9770 C   0  0  0  0  0  0  0  0  0  0  0  0
   39.3640   30.9660   41.2680 C   0  0  0  0  0  0  0  0  0  0  0  0
   39.1400   32.2870   41.4300 N   0  0  0  0  0  0  0  0  0  0  0  0
   38.9770   33.1520   40.3740 C   0  0  0  0  0  0  0  0  0  0  0  0
   39.0390   32.6820   39.1240 N   0  0  0  0  0  0  0  0  0  0  0  0
   39.3370   30.8500   37.9390 H   0  0  0  0  0  0  0  0  0  0  0  0
   39.6130   29.4100   39.8400 H   0  0  0  0  0  0  0  0  0  0  0  0
   38.7990   34.2050   40.5370 H   0  0  0  0  0  0  0  0  0  0  0  0
   36.5230   28.6020   41.4940 C   0  0  0  0  0  3  0  0  0  0  0  0
   35.8470   29.4240   40.6990 C   0  0  0  0  0  3  0  0  0  0  0  0
   35.0690   28.9220   39.5030 C   0  0  0  0  0  2  0  0  0  0  0  0
   35.7820   28.7520   38.6880 H   0  0  0  0  0  0  0  0  0  0  0  0
  1  2  1  0  0  0  0
  1  5  1  0  0  0  0
  2  3  2  0  0  0  0
  3  7  1  0  0  0  0
  3  4  1  0  0  0  0
  4  9  1  0  0  0  0
  5 10  1  1  0  0  0
  5  4  1  0  0  0  0
  6  2  1  0  0  0  0
  8  4  1  0  0  0  0
 11 12  1  0  0  0  0
 11  1  1  0  0  0  0
 11 13  1  0  0  0  0
 14 19  2  0  0  0  0
 14 15  1  0  0  0  0
 15 16  2  0  0  0  0
 16 17  1  0  0  0  0
 16 11  1  0  0  0  0
 18 22  1  0  0  0  0
 18 17  2  0  0  0  0
 19 18  1  0  0  0  0
 20 14  1  0  0  0  0
 21 15  1  0  0  0  0
 23  5  1  0  0  0  0
 24 23  2  0  0  0  0
 25 24  1  0  0  0  0
 26 25  1  0  0  0  0
M  END
>  <minimizedAffinity>
-4.10665083

$$$$

 OpenBabel03252504563D

 26 27  0  0  1  0  0  0  0  0999 V2000
   38.0880   29.2490   41.6210 N   0  0  0  0  0  0  0  0  0  0  0  0
   38.2780   28.3770   40.5060 C   0  0  0  0  0  0  0  0  0  0  0  0
   36.8810   28.0250   40.1310 C   0  0  0  0  0  0  0  0  0  0  0  0
   35.9270   28.7840   41.0330 C   0  0  0  0  0  0  0  0  0  0  0  0
   36.8590   29.8800   41.6100 C   0  0  2  0  0  0  0  0  0  0  0  0
   39.0550   27.9630   39.9420 H   0  0  0  0  0  0  0  0  0  0  0  0
   36.5380   27.3680   39.3220 H   0  0  0  0  0  0  0  0  0  0  0  0
   35.1300   29.2060   40.4180 H   0  0  0  0  0  0  0  0  0  0  0  0
   35.6190   28.0830   41.8230 H   0  0  0  0  0  0  0  0  0  0  0  0
   36.3890   30.1640   42.5580 H   0  0  0  0  0  0  0  0  0  0  0  0
   39.0400   29.2990   42.5910 C   0  0  0  0  0  0  0  0  0  0  0  0
   38.5370   29.6040   43.5690 H   0  0  0  0  0  0  0  0  0  0  0  0
   39.8320   30.0920   42.5260 H   0  0  0  0  0  0  0  0  0  0  0  0
   39.8410   25.7780   43.6800 C   0  0  0  0  0  0  0  0  0  0  0  0
   39.0610   26.9450   43.4620 C   0  0  0  0  0  0  0  0  0  0  0  0
   39.7080   28.0520   42.9210 C   0  0  0  0  0  0  0  0  0  0  0  0
   41.0250   27.9630   42.6350 N   0  0  0  0  0  0  0  0  0  0  0  0
   41.7610   26.8220   42.8550 C   0  0  0  0  0  0  0  0  0  0  0  0
   41.1630   25.7440   43.3720 N   0  0  0  0  0  0  0  0  0  0  0  0
   39.2340   24.9750   44.1040 H   0  0  0  0  0  0  0  0  0  0  0  0
   38.0240   27.0070   43.6910 H   0  0  0  0  0  0  0  0  0  0  0  0
   42.8130   26.7830   42.6160 H   0  0  0  0  0  0  0  0  0  0  0  0
   36.7150   31.0450   40.6980 C   0  0  0  0  0  3  0  0  0  0  0  0
   37.5860   32.0320   40.5210 C   0  0  0  0  0  3  0  0  0  0  0  0
   37.3240   33.1690   39.5580 C   0  0  0  0  0  2  0  0  0  0  0  0
   37.5530   32.8100   38.5480 H   0  0  0  0  0  0  0  0  0  0  0  0
  1 11  1  0  0  0  0
  2  1  1  0  0  0  0
  3  2  2  0  0  0  0
  3  4  1  0  0  0  0
  4  5  1  0  0  0  0
  4  9  1  0  0  0  0
  5  1  1  0  0  0  0
  5 10  1  1  0  0  0
  6  2  1  0  0  0  0
  7  3  1  0  0  0  0
  8  4  1  0  0  0  0
 11 16  1  0  0  0  0
 11 12  1  0  0  0  0
 13 11  1  0  0  0  0
 14 20  1  0  0  0  0
 15 14  1  0  0  0  0
 15 21  1  0  0  0  0
 16 15  2  0  0  0  0
 17 18  2  0  0  0  0
 17 16  1  0  0  0  0
 18 19  1  0  0  0  0
 19 14  2  0  0  0  0
 22 18  1  0  0  0  0
 23  5  1  0  0  0  0
 24 23  2  0  0  0  0
 25 24  1  0  0  0  0
 26 25  1  0  0  0  0
M  END
>  <minimizedAffinity>
-4.09873915

$$$$

 OpenBabel03252504563D

 26 27  0  0  1  0  0  0  0  0999 V2000
   37.7390   28.6950   40.4660 N   0  0  0  0  0  0  0  0  0  0  0  0
   37.9010   27.2800   40.3720 C   0  0  0  0  0  0  0  0  0  0  0  0
   37.1640   26.7900   41.5690 C   0  0  0  0  0  0  0  0  0  0  0  0
   36.5410   27.9770   42.2780 C   0  0  0  0  0  0  0  0  0  0  0  0
   36.6110   29.0630   41.1740 C   0  0  2  0  0  0  0  0  0  0  0  0
   38.3530   26.5700   39.7510 H   0  0  0  0  0  0  0  0  0  0  0  0
   37.0250   25.7560   41.9070 H   0  0  0  0  0  0  0  0  0  0  0  0
   35.5110   27.7230   42.5390 H   0  0  0  0  0  0  0  0  0  0  0  0
   37.2120   28.2300   43.1120 H   0  0  0  0  0  0  0  0  0  0  0  0
   36.6030   30.0110   41.7250 H   0  0  0  0  0  0  0  0  0  0  0  0
   38.7080   29.5080   39.9660 C   0  0  0  0  0  0  0  0  0  0  0  0
   38.8880   29.2210   38.8770 H   0  0  0  0  0  0  0  0  0  0  0  0
   39.7520   29.4080   40.3670 H   0  0  0  0  0  0  0  0  0  0  0  0
   37.3290   32.8980   39.0560 C   0  0  0  0  0  0  0  0  0  0  0  0
   37.5680   31.5020   38.9530 C   0  0  0  0  0  0  0  0  0  0  0  0
   38.4070   30.9280   39.9040 C   0  0  0  0  0  0  0  0  0  0  0  0
   38.9440   31.7150   40.8610 N   0  0  0  0  0  0  0  0  0  0  0  0
   38.6990   33.0660   40.9410 C   0  0  0  0  0  0  0  0  0  0  0  0
   37.8950   33.6420   40.0410 N   0  0  0  0  0  0  0  0  0  0  0  0
   36.6590   33.2400   38.2640 H   0  0  0  0  0  0  0  0  0  0  0  0
   37.1420   30.8890   38.1960 H   0  0  0  0  0  0  0  0  0  0  0  0
   39.1440   33.6680   41.7170 H   0  0  0  0  0  0  0  0  0  0  0  0
   35.3130   28.9820   40.4530 C   0  0  0  0  0  3  0  0  0  0  0  0
   35.1210   29.0820   39.1430 C   0  0  0  0  0  3  0  0  0  0  0  0
   33.7440   28.9810   38.5240 C   0  0  0  0  0  2  0  0  0  0  0  0
   33.4850   27.9190   38.4610 H   0  0  0  0  0  0  0  0  0  0  0  0
  1  5  1  0  0  0  0
  2  1  1  0  0  0  0
  2  3  2  0  0  0  0
  3  7  1  0  0  0  0
  3  4  1  0  0  0  0
  4  8  1  0  0  0  0
  4  9  1  0  0  0  0
  5 10  1  1  0  0  0
  5  4  1  0  0  0  0
  6  2  1  0  0  0  0
 11 13  1  0  0  0  0
 11  1  1  0  0  0  0
 12 11  1  0  0  0  0
 14 19  1  0  0  0  0
 15 14  2  0  0  0  0
 15 16  1  0  0  0  0
 16 11  1  0  0  0  0
 16 17  2  0  0  0  0
 17 18  1  0  0  0  0
 18 22  1  0  0  0  0
 19 18  2  0  0  0  0
 20 14  1  0  0  0  0
 21 15  1  0  0  0  0
 23  5  1  0  0  0  0
 24 23  2  0  0  0  0
 25 24  1  0  0  0  0
 26 25  1  0  0  0  0
M  END
>  <minimizedAffinity>
-4.09732389

$$$$
