
 OpenBabel03252505573D

 31 32  0  0  0  0  0  0  0  0999 V2000
   45.8360   32.7430   47.6150 O   0  0  0  0  0  0  0  0  0  0  0  0
   45.0060   34.8910   44.9130 C   0  0  0  0  0  0  0  0  0  0  0  0
   45.9390   34.5580   43.9130 C   0  0  0  0  0  0  0  0  0  0  0  0
   46.8570   33.5580   44.2360 C   0  0  0  0  0  0  0  0  0  0  0  0
   46.8020   32.9840   45.4490 N   0  0  0  0  0  0  0  0  0  0  0  0
   45.8970   33.3330   46.3660 C   0  0  0  0  0  0  0  0  0  0  0  0
   45.0030   34.2790   46.1040 N   0  0  0  0  0  0  0  0  0  0  0  0
   44.2760   35.6780   44.6710 H   0  0  0  0  0  0  0  0  0  0  0  0
   45.8990   35.2700   42.6110 C   0  0  0  0  0  0  0  0  0  0  0  0
   45.0400   36.3440   42.8400 F   0  0  0  0  0  0  0  0  0  0  0  0
   45.2910   34.4080   41.7100 F   0  0  0  0  0  0  0  0  0  0  0  0
   47.1340   35.6690   42.2730 F   0  0  0  0  0  0  0  0  0  0  0  0
   47.8410   33.0970   43.3000 C   0  0  0  0  0  3  0  0  0  0  0  0
   47.6070   32.0290   42.5180 C   0  0  0  0  0  3  0  0  0  0  0  0
   46.3200   31.2630   42.5760 C   0  0  0  0  0  2  0  0  0  0  0  0
   46.1630   30.7700   43.5610 H   0  0  0  0  0  0  0  0  0  0  0  0
   45.3640   31.4200   47.7720 C   0  0  0  0  0  0  0  0  0  0  0  0
   44.8320   31.3960   48.7450 H   0  0  0  0  0  0  0  0  0  0  0  0
   44.6370   31.1160   47.0010 H   0  0  0  0  0  0  0  0  0  0  0  0
   46.5400   30.5370   47.8750 C   0  0  0  0  0  0  0  0  0  0  0  0
   46.7670   29.2640   47.3770 C   0  0  0  0  0  0  0  0  0  0  0  0
   47.9650   28.6870   47.6280 C   0  0  0  0  0  0  0  0  0  0  0  0
   48.9260   29.2780   48.3240 N   0  0  0  0  0  0  0  0  0  0  0  0
   48.7040   30.5130   48.8060 C   0  0  0  0  0  0  0  0  0  0  0  0
   47.5150   31.1670   48.5950 N   0  0  0  0  0  0  0  0  0  0  0  0
   45.9290   28.9000   46.8400 H   0  0  0  0  0  0  0  0  0  0  0  0
   48.1050   27.6940   47.2220 H   0  0  0  0  0  0  0  0  0  0  0  0
   49.8300   31.1110   49.5780 C   0  0  0  0  0  0  0  0  0  0  0  0
   49.8200   32.4750   49.5030 F   0  0  0  0  0  0  0  0  0  0  0  0
   51.0480   30.6280   49.0810 F   0  0  0  0  0  0  0  0  0  0  0  0
   49.7650   30.7650   50.9210 F   0  0  0  0  0  0  0  0  0  0  0  0
  1 17  1  0  0  0  0
  2  7  1  0  0  0  0
  3  4  1  0  0  0  0
  3  2  2  0  0  0  0
  4  5  2  0  0  0  0
  5  6  1  0  0  0  0
  6  1  1  0  0  0  0
  7  6  2  0  0  0  0
  8  2  1  0  0  0  0
  9 10  1  0  0  0  0
  9  3  1  0  0  0  0
 11  9  1  0  0  0  0
 12  9  1  0  0  0  0
 13  4  1  0  0  0  0
 14 15  1  0  0  0  0
 14 13  2  0  0  0  0
 15 16  1  0  0  0  0
 17 20  1  0  0  0  0
 17 18  1  0  0  0  0
 19 17  1  0  0  0  0
 20 25  1  0  0  0  0
 21 22  1  0  0  0  0
 21 20  2  0  0  0  0
 22 23  2  0  0  0  0
 23 24  1  0  0  0  0
 24 28  1  0  0  0  0
 25 24  2  0  0  0  0
 26 21  1  0  0  0  0
 27 22  1  0  0  0  0
 28 31  1  0  0  0  0
 29 28  1  0  0  0  0
 30 28  1  0  0  0  0
M  END
>  <minimizedAffinity>
-5.52544832

>  <minimizedRMSD>
0.724876761

$$$$
