
 OpenBabel03252506253D

 40 43  0  0  0  0  0  0  0  0999 V2000
   45.0750   30.1620   48.6360 C   0  0  0  0  0  0  0  0  0  0  0  0
   44.2050   30.8230   48.4460 H   0  0  0  0  0  0  0  0  0  0  0  0
   44.9210   29.8140   49.6910 H   0  0  0  0  0  0  0  0  0  0  0  0
   45.6940   27.7790   47.9000 C   0  0  0  0  0  0  0  0  0  0  0  0
   45.0370   28.9730   47.7870 C   0  0  0  0  0  0  0  0  0  0  0  0
   44.1850   29.0980   46.6860 C   0  0  0  0  0  0  0  0  0  0  0  0
   44.0240   28.0790   45.7810 C   0  0  0  0  0  0  0  0  0  0  0  0
   43.2900   27.9180   44.6530 N   0  0  0  0  0  0  0  0  0  0  0  0
   43.4860   26.7080   44.1160 C   0  0  0  0  0  0  0  0  0  0  0  0
   44.3780   26.0210   44.8970 C   0  0  0  0  0  0  0  0  0  0  0  0
   44.6910   26.9010   45.9190 C   0  0  0  0  0  0  0  0  0  0  0  0
   45.5400   26.7560   47.0020 C   0  0  0  0  0  0  0  0  0  0  0  0
   46.3240   27.7800   48.7750 H   0  0  0  0  0  0  0  0  0  0  0  0
   43.6050   29.9780   46.4680 H   0  0  0  0  0  0  0  0  0  0  0  0
   42.6580   28.6530   44.2650 H   0  0  0  0  0  0  0  0  0  0  0  0
   43.0330   26.3050   43.2180 H   0  0  0  0  0  0  0  0  0  0  0  0
   44.7790   25.0260   44.7890 H   0  0  0  0  0  0  0  0  0  0  0  0
   46.2750   25.5140   47.1920 C   0  0  0  0  0  3  0  0  0  0  0  0
   46.3450   24.7060   48.2140 C   0  0  0  0  0  3  0  0  0  0  0  0
   45.7780   24.6390   49.5620 C   0  0  0  0  0  2  0  0  0  0  0  0
   46.1490   25.4810   50.1750 H   0  0  0  0  0  0  0  0  0  0  0  0
   46.3070   30.9680   48.6170 C   0  0  0  0  0  0  0  0  0  0  0  0
   46.1660   31.8120   49.3300 H   0  0  0  0  0  0  0  0  0  0  0  0
   47.2150   30.4450   48.9260 H   0  0  0  0  0  0  0  0  0  0  0  0
   46.2320   33.0170   45.6960 C   0  0  0  0  0  0  0  0  0  0  0  0
   47.1770   32.0490   45.3360 C   0  0  0  0  0  0  0  0  0  0  0  0
   47.3240   31.1680   46.3690 C   0  0  0  0  0  0  0  0  0  0  0  0
   46.4950   31.5920   47.3200 N   0  0  0  0  0  0  0  0  0  0  0  0
   45.8380   32.6930   46.9290 N   0  0  0  0  0  0  0  0  0  0  0  0
   47.6950   32.0320   44.3720 H   0  0  0  0  0  0  0  0  0  0  0  0
   47.9940   30.3230   46.3480 H   0  0  0  0  0  0  0  0  0  0  0  0
   44.4860   35.9910   44.5010 C   0  0  0  0  0  0  0  0  0  0  0  0
   45.0270   36.2020   43.2430 C   0  0  0  0  0  0  0  0  0  0  0  0
   46.0090   35.3050   42.7970 C   0  0  0  0  0  0  0  0  0  0  0  0
   46.3540   34.2960   43.6380 N   0  0  0  0  0  0  0  0  0  0  0  0
   45.8180   34.1200   44.8390 C   0  0  0  0  0  0  0  0  0  0  0  0
   44.8820   34.9720   45.2680 N   0  0  0  0  0  0  0  0  0  0  0  0
   43.7210   36.6230   44.9430 H   0  0  0  0  0  0  0  0  0  0  0  0
   44.6940   37.0220   42.6530 H   0  0  0  0  0  0  0  0  0  0  0  0
   46.4610   35.4320   41.8180 H   0  0  0  0  0  0  0  0  0  0  0  0
  1  3  1  0  0  0  0
  2  1  1  0  0  0  0
  4 13  1  0  0  0  0
  5  4  1  0  0  0  0
  5  1  1  0  0  0  0
  6  5  2  0  0  0  0
  7 11  2  0  0  0  0
  7  6  1  0  0  0  0
  8  7  1  0  0  0  0
  9  8  1  0  0  0  0
  9 10  2  0  0  0  0
 10 11  1  0  0  0  0
 11 12  1  0  0  0  0
 12 18  1  0  0  0  0
 12  4  2  0  0  0  0
 14  6  1  0  0  0  0
 15  8  1  0  0  0  0
 16  9  1  0  0  0  0
 17 10  1  0  0  0  0
 18 19  2  0  0  0  0
 19 20  1  0  0  0  0
 20 21  1  0  0  0  0
 22  1  1  0  0  0  0
 22 24  1  0  0  0  0
 22 23  1  0  0  0  0
 25 29  2  0  0  0  0
 26 25  1  0  0  0  0
 26 27  2  0  0  0  0
 27 28  1  0  0  0  0
 28 22  1  0  0  0  0
 29 28  1  0  0  0  0
 30 26  1  0  0  0  0
 31 27  1  0  0  0  0
 32 38  1  0  0  0  0
 32 37  1  0  0  0  0
 33 32  2  0  0  0  0
 34 33  1  0  0  0  0
 34 35  2  0  0  0  0
 35 36  1  0  0  0  0
 36 37  2  0  0  0  0
 36 25  1  0  0  0  0
 39 33  1  0  0  0  0
 40 34  1  0  0  0  0
M  END
>  <minimizedAffinity>
-5.07963324

>  <minimizedRMSD>
1.52950859

$$$$
