
 OpenBabel03242517533D

 33 34  0  0  0  0  0  0  0  0999 V2000
   45.2340   34.2790   43.8240 C   0  0  0  0  0  0  0  0  0  0  0  0
   46.1990   34.8850   42.9850 C   0  0  0  0  0  0  0  0  0  0  0  0
   47.5080   34.4410   43.0190 C   0  0  0  0  0  0  0  0  0  0  0  0
   47.7430   33.4420   43.8750 N   0  0  0  0  0  0  0  0  0  0  0  0
   46.8560   32.8700   44.6600 C   0  0  0  0  0  0  0  0  0  0  0  0
   45.5870   33.2940   44.6340 N   0  0  0  0  0  0  0  0  0  0  0  0
   44.2160   34.6680   43.7570 H   0  0  0  0  0  0  0  0  0  0  0  0
   45.9650   35.7000   42.2980 H   0  0  0  0  0  0  0  0  0  0  0  0
   48.6000   34.9910   42.1970 C   0  0  0  0  0  0  0  0  0  0  0  0
   48.8560   36.0250   42.4970 H   0  0  0  0  0  0  0  0  0  0  0  0
   49.4930   34.3870   42.3160 H   0  0  0  0  0  0  0  0  0  0  0  0
   48.2580   34.9330   40.7080 C   0  0  0  0  0  0  0  0  0  0  0  0
   48.9350   35.6140   40.1510 H   0  0  0  0  0  0  0  0  0  0  0  0
   47.2220   35.3020   40.6170 H   0  0  0  0  0  0  0  0  0  0  0  0
   48.3460   33.5360   40.2080 C   0  0  0  0  0  3  0  0  0  0  0  0
   48.6200   32.7230   39.1970 C   0  0  0  0  0  3  0  0  0  0  0  0
   48.5690   31.2380   39.1330 C   0  0  0  0  0  2  0  0  0  0  0  0
   49.5770   30.8380   38.9240 H   0  0  0  0  0  0  0  0  0  0  0  0
   47.1610   31.8350   45.5300 O   0  0  0  0  0  0  0  0  0  0  0  0
   45.6420   30.4270   46.9040 C   0  0  0  0  0  0  0  0  0  0  0  0
   46.4430   31.5030   46.6640 C   0  0  0  0  0  0  0  0  0  0  0  0
   46.5840   32.4260   47.6930 C   0  0  0  0  0  0  0  0  0  0  0  0
   45.9530   32.2890   48.9180 C   0  0  0  0  0  0  0  0  0  0  0  0
   45.1430   31.1800   49.1260 C   0  0  0  0  0  0  0  0  0  0  0  0
   44.9960   30.2530   48.1060 C   0  0  0  0  0  0  0  0  0  0  0  0
   47.1870   33.3140   47.6280 H   0  0  0  0  0  0  0  0  0  0  0  0
   46.0580   33.0040   49.7220 H   0  0  0  0  0  0  0  0  0  0  0  0
   44.6160   30.9990   50.0530 H   0  0  0  0  0  0  0  0  0  0  0  0
   44.3960   29.3620   48.1610 H   0  0  0  0  0  0  0  0  0  0  0  0
   45.5130   29.3110   45.5650 S   0  0  0  0  0  0  0  0  0  0  0  0
   44.7180   29.9070   44.4250 O   0  0  0  0  0  0  0  0  0  0  0  0
   44.6970   28.1190   46.0440 O   0  0  0  0  0  0  0  0  0  0  0  0
   46.7220   28.8580   45.1660 H   0  0  0  0  0  0  0  0  0  0  0  0
  1  6  1  0  0  0  0
  2  3  1  0  0  0  0
  2  1  2  0  0  0  0
  3  4  2  0  0  0  0
  4  5  1  0  0  0  0
  5 19  1  0  0  0  0
  6  5  2  0  0  0  0
  7  1  1  0  0  0  0
  8  2  1  0  0  0  0
  9 11  1  0  0  0  0
  9 10  1  0  0  0  0
  9  3  1  0  0  0  0
 12  9  1  0  0  0  0
 13 12  1  0  0  0  0
 14 12  1  0  0  0  0
 15 12  1  0  0  0  0
 16 15  2  0  0  0  0
 17 16  1  0  0  0  0
 18 17  1  0  0  0  0
 19 21  1  0  0  0  0
 20 25  1  0  0  0  0
 21 20  2  0  0  0  0
 21 22  1  0  0  0  0
 22 23  2  0  0  0  0
 23 24  1  0  0  0  0
 23 27  1  0  0  0  0
 24 28  1  0  0  0  0
 25 29  1  0  0  0  0
 25 24  2  0  0  0  0
 26 22  1  0  0  0  0
 30 32  2  0  0  0  0
 30 20  1  0  0  0  0
 31 30  2  0  0  0  0
 33 30  1  0  0  0  0
M  END
>  <minimizedAffinity>
-4.85208416

>  <minimizedRMSD>
0.269282311

$$$$
