
 OpenBabel03242514483D

 39 41  0  0  1  0  0  0  0  0999 V2000
   46.1540   34.4380   43.4740 C   0  0  0  0  0  0  0  0  0  0  0  0
   47.1070   33.4330   43.5010 C   0  0  0  0  0  0  0  0  0  0  0  0
   47.2160   32.7020   44.6990 C   0  0  0  0  0  0  0  0  0  0  0  0
   46.4040   33.0110   45.7430 N   0  0  0  0  0  0  0  0  0  0  0  0
   45.5000   33.9970   45.6590 C   0  0  0  0  0  0  0  0  0  0  0  0
   45.3870   34.6890   44.5420 N   0  0  0  0  0  0  0  0  0  0  0  0
   47.9410   31.9000   44.7900 H   0  0  0  0  0  0  0  0  0  0  0  0
   44.8260   34.2930   46.4500 H   0  0  0  0  0  0  0  0  0  0  0  0
   49.1750   34.0170   42.2330 C   0  0  2  0  0  0  0  0  0  0  0  0
   47.9540   33.0600   42.3340 C   0  0  1  0  0  0  0  0  0  0  0  0
   48.3880   31.7940   42.2970 O   0  0  0  0  0  0  0  0  0  0  0  0
   49.7460   31.7410   42.4880 C   0  0  0  0  0  0  0  0  0  0  0  0
   50.2480   32.9840   41.8140 C   0  0  1  0  0  0  0  0  0  0  0  0
   49.1640   34.7250   41.4220 H   0  0  0  0  0  0  0  0  0  0  0  0
   47.6230   33.3180   41.3720 H   0  0  0  0  0  0  0  0  0  0  0  0
   50.0750   31.7310   43.5270 H   0  0  0  0  0  0  0  0  0  0  0  0
   50.1210   30.8060   42.0110 H   0  0  0  0  0  0  0  0  0  0  0  0
   51.2350   33.3190   42.1840 H   0  0  0  0  0  0  0  0  0  0  0  0
   49.5230   34.6190   43.3760 O   0  0  0  0  0  0  0  0  0  0  0  0
   49.8630   35.5360   43.2200 H   0  0  0  0  0  0  0  0  0  0  0  0
   50.2070   32.7510   40.4560 O   0  0  0  0  0  0  0  0  0  0  0  0
   50.4020   31.8220   40.1940 H   0  0  0  0  0  0  0  0  0  0  0  0
   46.0340   35.2300   42.2190 C   0  0  0  0  0  0  0  0  0  0  0  0
   45.9790   36.2960   42.6030 H   0  0  0  0  0  0  0  0  0  0  0  0
   46.8880   35.2300   41.5680 H   0  0  0  0  0  0  0  0  0  0  0  0
   45.7870   33.4370   39.9930 F   0  0  0  0  0  0  0  0  0  0  0  0
   44.7310   34.1110   40.4260 C   0  0  0  0  0  0  0  0  0  0  0  0
   44.7760   34.9700   41.4900 C   0  0  0  0  0  0  0  0  0  0  0  0
   43.6300   35.6180   41.9020 C   0  0  0  0  0  0  0  0  0  0  0  0
   42.4720   35.3620   41.2020 C   0  0  0  0  0  0  0  0  0  0  0  0
   42.3580   34.5180   40.1290 C   0  0  0  0  0  0  0  0  0  0  0  0
   43.5330   33.8720   39.7310 C   0  0  0  0  0  0  0  0  0  0  0  0
   43.6830   36.2830   42.7310 H   0  0  0  0  0  0  0  0  0  0  0  0
   41.5770   35.8740   41.5310 H   0  0  0  0  0  0  0  0  0  0  0  0
   41.4190   34.3580   39.6200 H   0  0  0  0  0  0  0  0  0  0  0  0
   43.4290   32.9710   38.5900 C   0  0  0  0  0  0  0  0  0  0  0  0
   42.4810   32.0750   38.3770 C   0  0  0  0  0  0  0  0  0  0  0  0
   42.4730   31.1970   37.1620 C   0  0  0  0  0  0  0  0  0  0  0  0
   43.3620   31.4060   36.5240 H   0  0  0  0  0  0  0  0  0  0  0  0
  1  2  2  0  0  0  0
  1  6  1  0  0  0  0
  2  3  1  0  0  0  0
  3  7  1  0  0  0  0
  3  4  2  0  0  0  0
  5  4  1  0  0  0  0
  5  8  1  0  0  0  0
  6  5  2  0  0  0  0
  9 14  1  6  0  0  0
  9 10  1  0  0  0  0
  9 19  1  0  0  0  0
 10 15  1  6  0  0  0
 10  2  1  0  0  0  0
 11 10  1  0  0  0  0
 11 12  1  0  0  0  0
 12 16  1  0  0  0  0
 13 18  1  1  0  0  0
 13  9  1  0  0  0  0
 13 12  1  0  0  0  0
 17 12  1  0  0  0  0
 20 19  1  0  0  0  0
 21 13  1  0  0  0  0
 22 21  1  0  0  0  0
 23 24  1  0  0  0  0
 23  1  1  0  0  0  0
 25 23  1  0  0  0  0
 26 27  1  0  0  0  0
 27 28  1  0  0  0  0
 28 29  2  0  0  0  0
 28 23  1  0  0  0  0
 29 33  1  0  0  0  0
 30 34  1  0  0  0  0
 30 29  1  0  0  0  0
 31 30  2  0  0  0  0
 32 31  1  0  0  0  0
 32 27  2  0  0  0  0
 35 31  1  0  0  0  0
 36 32  1  0  0  0  0
 37 36  2  0  0  0  0
 38 37  1  0  0  0  0
 39 38  1  0  0  0  0
M  END
>  <minimizedAffinity>
-5.83252668

>  <minimizedRMSD>
0.299189329

$$$$
