
 OpenBabel03252504003D

 29 31  0  0  0  0  0  0  0  0999 V2000
   46.0760   31.7210   45.0960 C   0  0  0  0  0  0  0  0  0  0  0  0
   45.8050   33.0220   45.4970 C   0  0  0  0  0  0  0  0  0  0  0  0
   45.5140   33.3090   46.8260 C   0  0  0  0  0  0  0  0  0  0  0  0
   45.5050   32.2610   47.7250 C   0  0  0  0  0  0  0  0  0  0  0  0
   45.2660   32.2100   49.0470 N   0  0  0  0  0  0  0  0  0  0  0  0
   45.3690   30.9530   49.5080 C   0  0  0  0  0  0  0  0  0  0  0  0
   45.6910   30.1290   48.4450 C   0  0  0  0  0  0  0  0  0  0  0  0
   45.7750   30.9440   47.3350 C   0  0  0  0  0  0  0  0  0  0  0  0
   46.0580   30.6950   46.0170 C   0  0  0  0  0  0  0  0  0  0  0  0
   46.3070   31.4600   44.0680 H   0  0  0  0  0  0  0  0  0  0  0  0
   45.3050   34.3250   47.1300 H   0  0  0  0  0  0  0  0  0  0  0  0
   45.0280   32.9950   49.6820 H   0  0  0  0  0  0  0  0  0  0  0  0
   45.2570   30.4970   50.4780 H   0  0  0  0  0  0  0  0  0  0  0  0
   45.8600   29.0720   48.3920 H   0  0  0  0  0  0  0  0  0  0  0  0
   46.2690   29.6800   45.7130 H   0  0  0  0  0  0  0  0  0  0  0  0
   46.9210   35.0260   42.6480 C   0  0  0  0  0  0  0  0  0  0  0  0
   45.9420   36.0160   42.5320 C   0  0  0  0  0  0  0  0  0  0  0  0
   44.8930   35.9880   43.4430 C   0  0  0  0  0  0  0  0  0  0  0  0
   44.8690   35.0140   44.3910 N   0  0  0  0  0  0  0  0  0  0  0  0
   45.8390   34.0710   44.4700 C   0  0  0  0  0  0  0  0  0  0  0  0
   46.8670   34.0730   43.6010 N   0  0  0  0  0  0  0  0  0  0  0  0
   46.0040   36.7740   41.7580 H   0  0  0  0  0  0  0  0  0  0  0  0
   44.1250   36.7470   43.3680 H   0  0  0  0  0  0  0  0  0  0  0  0
   47.9950   35.0890   41.6830 C   0  0  0  0  0  0  0  0  0  0  0  0
   48.9460   35.9290   41.7120 O   0  0  0  0  0  0  0  0  0  0  0  0
   48.0380   34.1380   40.5730 C   0  0  0  0  0  3  0  0  0  0  0  0
   48.8620   33.1110   40.6210 C   0  0  0  0  0  3  0  0  0  0  0  0
   48.9750   32.0970   39.5460 C   0  0  0  0  0  2  0  0  0  0  0  0
   48.4020   32.4570   38.6700 H   0  0  0  0  0  0  0  0  0  0  0  0
  1  2  2  0  0  0  0
  1  9  1  0  0  0  0
  2  3  1  0  0  0  0
  3 11  1  0  0  0  0
  3  4  2  0  0  0  0
  4  5  1  0  0  0  0
  5  6  1  0  0  0  0
  5 12  1  0  0  0  0
  6 13  1  0  0  0  0
  7  6  2  0  0  0  0
  8  4  1  0  0  0  0
  8  7  1  0  0  0  0
  9  8  2  0  0  0  0
 10  1  1  0  0  0  0
 14  7  1  0  0  0  0
 15  9  1  0  0  0  0
 16 21  1  0  0  0  0
 17 16  2  0  0  0  0
 17 18  1  0  0  0  0
 18 19  2  0  0  0  0
 19 20  1  0  0  0  0
 20  2  1  0  0  0  0
 21 20  2  0  0  0  0
 22 17  1  0  0  0  0
 23 18  1  0  0  0  0
 24 25  2  0  0  0  0
 24 16  1  0  0  0  0
 26 27  2  0  0  0  0
 26 24  1  0  0  0  0
 28 27  1  0  0  0  0
 29 28  1  0  0  0  0
M  END
>  <minimizedAffinity>
-5.56348562

>  <minimizedRMSD>
0.158256203

$$$$
