
 OpenBabel03242517093D

 29 30  0  0  1  0  0  0  0  0999 V2000
   36.5280   29.8550   40.5920 C   0  0  2  0  0  0  0  0  0  0  0  0
   37.1330   28.5610   40.9790 C   0  0  2  0  0  0  0  0  0  0  0  0
   37.3050   27.6110   39.8400 C   0  0  0  0  0  0  0  0  0  0  0  0
   36.0230   27.3750   39.0620 C   0  0  0  0  0  0  0  0  0  0  0  0
   35.1690   28.6050   38.9080 C   0  0  0  0  0  0  0  0  0  0  0  0
   35.9670   29.8590   39.1750 C   0  0  0  0  0  0  0  0  0  0  0  0
   35.6380   30.1250   41.2350 H   0  0  0  0  0  0  0  0  0  0  0  0
   38.1460   28.7520   41.3900 H   0  0  0  0  0  0  0  0  0  0  0  0
   37.5110   26.6050   40.3170 H   0  0  0  0  0  0  0  0  0  0  0  0
   38.1410   27.7790   39.1710 H   0  0  0  0  0  0  0  0  0  0  0  0
   35.4150   26.5440   39.4930 H   0  0  0  0  0  0  0  0  0  0  0  0
   36.3280   27.0670   38.0380 H   0  0  0  0  0  0  0  0  0  0  0  0
   34.7600   28.7120   37.8820 H   0  0  0  0  0  0  0  0  0  0  0  0
   34.3320   28.6050   39.6390 H   0  0  0  0  0  0  0  0  0  0  0  0
   36.7890   29.8920   38.4310 H   0  0  0  0  0  0  0  0  0  0  0  0
   35.3310   30.7380   39.0390 H   0  0  0  0  0  0  0  0  0  0  0  0
   37.4700   30.9820   40.6940 C   0  0  0  0  0  0  0  0  0  0  0  0
   37.1020   32.1570   40.0080 C   0  0  0  0  0  0  0  0  0  0  0  0
   37.9300   33.2780   40.0490 C   0  0  0  0  0  0  0  0  0  0  0  0
   39.0880   33.1540   40.7790 N   0  0  0  0  0  0  0  0  0  0  0  0
   39.4190   32.0110   41.4280 C   0  0  0  0  0  0  0  0  0  0  0  0
   38.6090   30.9270   41.3850 N   0  0  0  0  0  0  0  0  0  0  0  0
   36.2170   32.3360   39.4170 H   0  0  0  0  0  0  0  0  0  0  0  0
   37.7310   34.2050   39.5620 H   0  0  0  0  0  0  0  0  0  0  0  0
   40.3430   31.9750   41.9870 H   0  0  0  0  0  0  0  0  0  0  0  0
   36.3330   27.9070   42.0660 C   0  0  0  0  0  3  0  0  0  0  0  0
   36.7660   27.4980   43.2500 C   0  0  0  0  0  3  0  0  0  0  0  0
   38.1870   27.6920   43.5780 C   0  0  0  0  0  2  0  0  0  0  0  0
   38.3550   28.7480   43.9030 H   0  0  0  0  0  0  0  0  0  0  0  0
  1 17  1  0  0  0  0
  1  2  1  0  0  0  0
  1  7  1  1  0  0  0
  2  8  1  1  0  0  0
  2 26  1  0  0  0  0
  3  9  1  0  0  0  0
  3  2  1  0  0  0  0
  4 11  1  0  0  0  0
  4  3  1  0  0  0  0
  5  4  1  0  0  0  0
  5  6  1  0  0  0  0
  5 14  1  0  0  0  0
  6  1  1  0  0  0  0
 10  3  1  0  0  0  0
 12  4  1  0  0  0  0
 13  5  1  0  0  0  0
 15  6  1  0  0  0  0
 16  6  1  0  0  0  0
 17 22  1  0  0  0  0
 18 19  1  0  0  0  0
 18 17  2  0  0  0  0
 19 20  2  0  0  0  0
 20 21  1  0  0  0  0
 21 25  1  0  0  0  0
 22 21  2  0  0  0  0
 23 18  1  0  0  0  0
 24 19  1  0  0  0  0
 26 27  2  0  0  0  0
 27 28  1  0  0  0  0
 28 29  1  0  0  0  0
M  END
>  <minimizedAffinity>
-4.6669817

$$$$

 OpenBabel03242517093D

 29 30  0  0  1  0  0  0  0  0999 V2000
   36.5850   30.4020   40.2460 C   0  0  2  0  0  0  0  0  0  0  0  0
   36.8310   29.7260   38.9530 C   0  0  2  0  0  0  0  0  0  0  0  0
   37.8980   30.3690   38.1290 C   0  0  0  0  0  0  0  0  0  0  0  0
   37.6650   31.8520   37.9050 C   0  0  0  0  0  0  0  0  0  0  0  0
   37.0890   32.5650   39.1000 C   0  0  0  0  0  0  0  0  0  0  0  0
   37.2770   31.7540   40.3600 C   0  0  0  0  0  0  0  0  0  0  0  0
   35.4930   30.6430   40.4050 H   0  0  0  0  0  0  0  0  0  0  0  0
   37.1670   28.6880   39.1530 H   0  0  0  0  0  0  0  0  0  0  0  0
   37.7840   29.9270   37.0930 H   0  0  0  0  0  0  0  0  0  0  0  0
   38.9280   30.1730   38.4040 H   0  0  0  0  0  0  0  0  0  0  0  0
   37.0330   32.0490   37.0060 H   0  0  0  0  0  0  0  0  0  0  0  0
   38.6640   32.3030   37.7150 H   0  0  0  0  0  0  0  0  0  0  0  0
   37.5770   33.5440   39.2860 H   0  0  0  0  0  0  0  0  0  0  0  0
   35.9930   32.7160   38.9850 H   0  0  0  0  0  0  0  0  0  0  0  0
   38.3680   31.6230   40.5080 H   0  0  0  0  0  0  0  0  0  0  0  0
   36.8670   32.3000   41.2150 H   0  0  0  0  0  0  0  0  0  0  0  0
   37.0050   29.5950   41.4040 C   0  0  0  0  0  0  0  0  0  0  0  0
   36.2790   28.4080   41.6250 C   0  0  0  0  0  0  0  0  0  0  0  0
   36.6060   27.5770   42.6950 C   0  0  0  0  0  0  0  0  0  0  0  0
   37.6500   27.9890   43.4880 N   0  0  0  0  0  0  0  0  0  0  0  0
   38.3330   29.1360   43.2540 C   0  0  0  0  0  0  0  0  0  0  0  0
   38.0090   29.9370   42.2120 N   0  0  0  0  0  0  0  0  0  0  0  0
   35.4510   28.0150   41.0530 H   0  0  0  0  0  0  0  0  0  0  0  0
   36.1120   26.6640   42.9360 H   0  0  0  0  0  0  0  0  0  0  0  0
   39.1450   29.4070   43.9130 H   0  0  0  0  0  0  0  0  0  0  0  0
   35.5650   29.6320   38.1550 C   0  0  0  0  0  3  0  0  0  0  0  0
   34.9390   28.5320   37.7620 C   0  0  0  0  0  3  0  0  0  0  0  0
   35.5180   27.2310   38.1320 C   0  0  0  0  0  2  0  0  0  0  0  0
   35.2430   26.9860   39.1870 H   0  0  0  0  0  0  0  0  0  0  0  0
  1  6  1  0  0  0  0
  1  7  1  1  0  0  0
  1 17  1  0  0  0  0
  2  8  1  1  0  0  0
  2  1  1  0  0  0  0
  3 10  1  0  0  0  0
  3  2  1  0  0  0  0
  4  3  1  0  0  0  0
  4  5  1  0  0  0  0
  5 13  1  0  0  0  0
  5  6  1  0  0  0  0
  6 15  1  0  0  0  0
  6 16  1  0  0  0  0
  9  3  1  0  0  0  0
 11  4  1  0  0  0  0
 12  4  1  0  0  0  0
 14  5  1  0  0  0  0
 17 18  2  0  0  0  0
 17 22  1  0  0  0  0
 18 19  1  0  0  0  0
 19 24  1  0  0  0  0
 19 20  2  0  0  0  0
 21 20  1  0  0  0  0
 21 25  1  0  0  0  0
 22 21  2  0  0  0  0
 23 18  1  0  0  0  0
 26  2  1  0  0  0  0
 27 28  1  0  0  0  0
 27 26  2  0  0  0  0
 28 29  1  0  0  0  0
M  END
>  <minimizedAffinity>
-4.6191783

$$$$

 OpenBabel03242517093D

 29 30  0  0  1  0  0  0  0  0999 V2000
   36.8320   26.9520   41.8280 C   0  0  2  0  0  0  0  0  0  0  0  0
   36.9170   28.1210   40.9240 C   0  0  2  0  0  0  0  0  0  0  0  0
   38.0590   29.0360   41.2280 C   0  0  0  0  0  0  0  0  0  0  0  0
   38.0880   29.4920   42.6750 C   0  0  0  0  0  0  0  0  0  0  0  0
   37.6810   28.4270   43.6580 C   0  0  0  0  0  0  0  0  0  0  0  0
   37.7560   27.0530   43.0350 C   0  0  0  0  0  0  0  0  0  0  0  0
   35.8050   26.8340   42.2840 H   0  0  0  0  0  0  0  0  0  0  0  0
   37.0690   27.7580   39.8870 H   0  0  0  0  0  0  0  0  0  0  0  0
   37.8400   29.9880   40.6570 H   0  0  0  0  0  0  0  0  0  0  0  0
   39.0440   28.7310   40.8950 H   0  0  0  0  0  0  0  0  0  0  0  0
   37.4760   30.4120   42.8400 H   0  0  0  0  0  0  0  0  0  0  0  0
   39.1450   29.7500   42.9040 H   0  0  0  0  0  0  0  0  0  0  0  0
   38.3400   28.3980   44.5500 H   0  0  0  0  0  0  0  0  0  0  0  0
   36.6270   28.5650   43.9840 H   0  0  0  0  0  0  0  0  0  0  0  0
   38.8100   26.8850   42.7330 H   0  0  0  0  0  0  0  0  0  0  0  0
   37.4740   26.2960   43.7720 H   0  0  0  0  0  0  0  0  0  0  0  0
   37.1340   25.6800   41.1500 C   0  0  0  0  0  0  0  0  0  0  0  0
   37.1330   25.7170   39.7410 C   0  0  0  0  0  0  0  0  0  0  0  0
   37.4110   24.5630   39.0120 C   0  0  0  0  0  0  0  0  0  0  0  0
   37.6740   23.4290   39.7430 N   0  0  0  0  0  0  0  0  0  0  0  0
   37.6680   23.4210   41.0980 C   0  0  0  0  0  0  0  0  0  0  0  0
   37.3980   24.5460   41.7990 N   0  0  0  0  0  0  0  0  0  0  0  0
   36.9370   26.5600   39.0950 H   0  0  0  0  0  0  0  0  0  0  0  0
   37.4320   24.4990   37.9480 H   0  0  0  0  0  0  0  0  0  0  0  0
   37.8840   22.4980   41.6170 H   0  0  0  0  0  0  0  0  0  0  0  0
   35.6340   28.8950   40.9370 C   0  0  0  0  0  3  0  0  0  0  0  0
   34.8710   29.2070   39.8990 C   0  0  0  0  0  3  0  0  0  0  0  0
   35.2940   28.7600   38.5630 C   0  0  0  0  0  2  0  0  0  0  0  0
   35.0130   27.6880   38.4210 H   0  0  0  0  0  0  0  0  0  0  0  0
  1  7  1  1  0  0  0
  1  6  1  0  0  0  0
  2  8  1  6  0  0  0
  2 26  1  0  0  0  0
  2  3  1  0  0  0  0
  2  1  1  0  0  0  0
  3  4  1  0  0  0  0
  4 11  1  0  0  0  0
  4 12  1  0  0  0  0
  4  5  1  0  0  0  0
  5 14  1  0  0  0  0
  5 13  1  0  0  0  0
  6  5  1  0  0  0  0
  6 16  1  0  0  0  0
  9  3  1  0  0  0  0
 10  3  1  0  0  0  0
 15  6  1  0  0  0  0
 17 22  1  0  0  0  0
 17  1  1  0  0  0  0
 18 17  2  0  0  0  0
 19 18  1  0  0  0  0
 19 20  2  0  0  0  0
 20 21  1  0  0  0  0
 21 25  1  0  0  0  0
 21 22  2  0  0  0  0
 23 18  1  0  0  0  0
 24 19  1  0  0  0  0
 27 26  2  0  0  0  0
 28 27  1  0  0  0  0
 29 28  1  0  0  0  0
M  END
>  <minimizedAffinity>
-4.49572611

$$$$

 OpenBabel03242517093D

 29 30  0  0  1  0  0  0  0  0999 V2000
   37.1630   27.8770   40.8180 C   0  0  2  0  0  0  0  0  0  0  0  0
   36.8320   26.9030   41.8830 C   0  0  2  0  0  0  0  0  0  0  0  0
   36.5220   27.5340   43.2010 C   0  0  0  0  0  0  0  0  0  0  0  0
   37.6090   28.4800   43.6790 C   0  0  0  0  0  0  0  0  0  0  0  0
   38.2420   29.2870   42.5770 C   0  0  0  0  0  0  0  0  0  0  0  0
   37.3750   29.2930   41.3400 C   0  0  0  0  0  0  0  0  0  0  0  0
   38.1350   27.6330   40.2970 H   0  0  0  0  0  0  0  0  0  0  0  0
   35.9260   26.3400   41.5800 H   0  0  0  0  0  0  0  0  0  0  0  0
   36.5610   26.6890   43.9540 H   0  0  0  0  0  0  0  0  0  0  0  0
   35.5400   27.9740   43.3260 H   0  0  0  0  0  0  0  0  0  0  0  0
   38.4010   27.9520   44.2640 H   0  0  0  0  0  0  0  0  0  0  0  0
   37.1180   29.2040   44.3640 H   0  0  0  0  0  0  0  0  0  0  0  0
   38.3860   30.3500   42.8590 H   0  0  0  0  0  0  0  0  0  0  0  0
   39.2190   28.8510   42.2730 H   0  0  0  0  0  0  0  0  0  0  0  0
   36.4070   29.7550   41.6180 H   0  0  0  0  0  0  0  0  0  0  0  0
   37.8470   29.8990   40.5620 H   0  0  0  0  0  0  0  0  0  0  0  0
   36.1340   27.9480   39.7660 C   0  0  0  0  0  0  0  0  0  0  0  0
   36.1890   26.9400   38.7820 C   0  0  0  0  0  0  0  0  0  0  0  0
   35.2550   26.9230   37.7480 C   0  0  0  0  0  0  0  0  0  0  0  0
   34.3140   27.9250   37.7600 N   0  0  0  0  0  0  0  0  0  0  0  0
   34.2850   28.8820   38.7190 C   0  0  0  0  0  0  0  0  0  0  0  0
   35.1950   28.8920   39.7200 N   0  0  0  0  0  0  0  0  0  0  0  0
   36.8900   26.1240   38.7000 H   0  0  0  0  0  0  0  0  0  0  0  0
   35.2210   26.2020   36.9640 H   0  0  0  0  0  0  0  0  0  0  0  0
   33.5200   29.6450   38.6740 H   0  0  0  0  0  0  0  0  0  0  0  0
   37.9370   25.9040   42.0480 C   0  0  0  0  0  3  0  0  0  0  0  0
   37.9150   24.6180   41.7280 C   0  0  0  0  0  3  0  0  0  0  0  0
   36.6850   24.0680   41.1390 C   0  0  0  0  0  2  0  0  0  0  0  0
   36.6470   24.3180   40.0500 H   0  0  0  0  0  0  0  0  0  0  0  0
  1  7  1  6  0  0  0
  1  6  1  0  0  0  0
  1  2  1  0  0  0  0
  2  8  1  6  0  0  0
  2 26  1  0  0  0  0
  2  3  1  0  0  0  0
  3 10  1  0  0  0  0
  3  4  1  0  0  0  0
  3  9  1  0  0  0  0
  4 11  1  0  0  0  0
  4 12  1  0  0  0  0
  5 13  1  0  0  0  0
  5  4  1  0  0  0  0
  6 15  1  0  0  0  0
  6  5  1  0  0  0  0
 14  5  1  0  0  0  0
 16  6  1  0  0  0  0
 17  1  1  0  0  0  0
 18 17  2  0  0  0  0
 19 20  2  0  0  0  0
 19 18  1  0  0  0  0
 20 21  1  0  0  0  0
 21 22  2  0  0  0  0
 22 17  1  0  0  0  0
 23 18  1  0  0  0  0
 24 19  1  0  0  0  0
 25 21  1  0  0  0  0
 27 26  2  0  0  0  0
 28 27  1  0  0  0  0
 29 28  1  0  0  0  0
M  END
>  <minimizedAffinity>
-4.48904181

$$$$

 OpenBabel03242517093D

 29 30  0  0  1  0  0  0  0  0999 V2000
   37.1910   30.4320   41.2510 C   0  0  2  0  0  0  0  0  0  0  0  0
   37.7240   29.0640   41.4440 C   0  0  2  0  0  0  0  0  0  0  0  0
   37.4070   28.1290   40.3220 C   0  0  0  0  0  0  0  0  0  0  0  0
   35.9250   28.0700   39.9970 C   0  0  0  0  0  0  0  0  0  0  0  0
   35.2250   29.3980   40.1050 C   0  0  0  0  0  0  0  0  0  0  0  0
   36.2140   30.5390   40.0870 C   0  0  0  0  0  0  0  0  0  0  0  0
   36.5920   30.7900   42.1400 H   0  0  0  0  0  0  0  0  0  0  0  0
   38.8300   29.1200   41.5070 H   0  0  0  0  0  0  0  0  0  0  0  0
   37.6290   27.0950   40.7230 H   0  0  0  0  0  0  0  0  0  0  0  0
   38.0010   28.2130   39.4200 H   0  0  0  0  0  0  0  0  0  0  0  0
   35.3890   27.3080   40.6120 H   0  0  0  0  0  0  0  0  0  0  0  0
   35.8480   27.7540   38.9340 H   0  0  0  0  0  0  0  0  0  0  0  0
   34.5270   29.5800   39.2620 H   0  0  0  0  0  0  0  0  0  0  0  0
   34.6700   29.4810   41.0660 H   0  0  0  0  0  0  0  0  0  0  0  0
   36.7540   30.4920   39.1190 H   0  0  0  0  0  0  0  0  0  0  0  0
   35.6810   31.4920   40.1480 H   0  0  0  0  0  0  0  0  0  0  0  0
   38.2480   31.4330   41.0310 C   0  0  0  0  0  0  0  0  0  0  0  0
   39.5550   31.0360   41.3780 C   0  0  0  0  0  0  0  0  0  0  0  0
   40.6220   31.9160   41.2020 C   0  0  0  0  0  0  0  0  0  0  0  0
   40.3130   33.1520   40.6850 N   0  0  0  0  0  0  0  0  0  0  0  0
   39.0470   33.5080   40.3600 C   0  0  0  0  0  0  0  0  0  0  0  0
   38.0160   32.6480   40.5340 N   0  0  0  0  0  0  0  0  0  0  0  0
   39.8800   30.0910   41.7860 H   0  0  0  0  0  0  0  0  0  0  0  0
   41.6390   31.7010   41.4360 H   0  0  0  0  0  0  0  0  0  0  0  0
   38.8670   34.4950   39.9570 H   0  0  0  0  0  0  0  0  0  0  0  0
   37.2370   28.4840   42.7370 C   0  0  0  0  0  3  0  0  0  0  0  0
   37.9390   27.7940   43.6260 C   0  0  0  0  0  3  0  0  0  0  0  0
   39.3630   27.5490   43.3510 C   0  0  0  0  0  2  0  0  0  0  0  0
   39.9570   28.4580   43.6180 H   0  0  0  0  0  0  0  0  0  0  0  0
  1  2  1  0  0  0  0
  1  7  1  1  0  0  0
  2  8  1  1  0  0  0
  2 26  1  0  0  0  0
  3  9  1  0  0  0  0
  3  2  1  0  0  0  0
  4  5  1  0  0  0  0
  4  3  1  0  0  0  0
  4 11  1  0  0  0  0
  5 14  1  0  0  0  0
  6  5  1  0  0  0  0
  6 16  1  0  0  0  0
  6  1  1  0  0  0  0
 10  3  1  0  0  0  0
 12  4  1  0  0  0  0
 13  5  1  0  0  0  0
 15  6  1  0  0  0  0
 17  1  1  0  0  0  0
 17 18  1  0  0  0  0
 18 23  1  0  0  0  0
 19 18  2  0  0  0  0
 19 24  1  0  0  0  0
 20 19  1  0  0  0  0
 21 22  1  0  0  0  0
 21 20  2  0  0  0  0
 22 17  2  0  0  0  0
 25 21  1  0  0  0  0
 26 27  2  0  0  0  0
 28 29  1  0  0  0  0
 28 27  1  0  0  0  0
M  END
>  <minimizedAffinity>
-4.48222733

$$$$

 OpenBabel03242517093D

 29 30  0  0  1  0  0  0  0  0999 V2000
   38.1740   28.7680   42.7850 C   0  0  2  0  0  0  0  0  0  0  0  0
   39.1290   27.7440   42.3040 C   0  0  2  0  0  0  0  0  0  0  0  0
   38.4800   26.6030   41.5900 C   0  0  0  0  0  0  0  0  0  0  0  0
   37.3740   25.9470   42.3960 C   0  0  0  0  0  0  0  0  0  0  0  0
   36.5460   26.9170   43.1960 C   0  0  0  0  0  0  0  0  0  0  0  0
   36.7180   28.3290   42.6870 C   0  0  0  0  0  0  0  0  0  0  0  0
   38.3120   29.0050   43.8810 H   0  0  0  0  0  0  0  0  0  0  0  0
   39.8230   28.2180   41.5800 H   0  0  0  0  0  0  0  0  0  0  0  0
   39.2740   25.7980   41.5300 H   0  0  0  0  0  0  0  0  0  0  0  0
   38.1710   26.7670   40.5650 H   0  0  0  0  0  0  0  0  0  0  0  0
   37.7610   25.1400   43.0640 H   0  0  0  0  0  0  0  0  0  0  0  0
   36.6890   25.4710   41.6620 H   0  0  0  0  0  0  0  0  0  0  0  0
   35.4600   26.6980   43.1360 H   0  0  0  0  0  0  0  0  0  0  0  0
   36.8610   26.9280   44.2620 H   0  0  0  0  0  0  0  0  0  0  0  0
   36.3770   28.3430   41.6320 H   0  0  0  0  0  0  0  0  0  0  0  0
   36.0940   29.0110   43.2710 H   0  0  0  0  0  0  0  0  0  0  0  0
   38.2950   30.0480   42.0650 C   0  0  0  0  0  0  0  0  0  0  0  0
   37.1810   30.4260   41.2900 C   0  0  0  0  0  0  0  0  0  0  0  0
   37.2020   31.6220   40.5760 C   0  0  0  0  0  0  0  0  0  0  0  0
   38.3470   32.3750   40.6800 N   0  0  0  0  0  0  0  0  0  0  0  0
   39.4050   31.9870   41.4330 C   0  0  0  0  0  0  0  0  0  0  0  0
   39.3770   30.8240   42.1240 N   0  0  0  0  0  0  0  0  0  0  0  0
   36.2500   29.8960   41.1550 H   0  0  0  0  0  0  0  0  0  0  0  0
   36.4070   31.9860   39.9660 H   0  0  0  0  0  0  0  0  0  0  0  0
   40.2780   32.6220   41.4760 H   0  0  0  0  0  0  0  0  0  0  0  0
   39.9610   27.2230   43.4360 C   0  0  0  0  0  3  0  0  0  0  0  0
   41.2400   27.4750   43.6790 C   0  0  0  0  0  3  0  0  0  0  0  0
   41.9620   28.3640   42.7570 C   0  0  0  0  0  2  0  0  0  0  0  0
   41.7270   29.4280   43.0030 H   0  0  0  0  0  0  0  0  0  0  0  0
  1  7  1  1  0  0  0
  2  8  1  6  0  0  0
  2  1  1  0  0  0  0
  2 26  1  0  0  0  0
  3  2  1  0  0  0  0
  3  4  1  0  0  0  0
  4 11  1  0  0  0  0
  4  5  1  0  0  0  0
  5 14  1  0  0  0  0
  6  1  1  0  0  0  0
  6  5  1  0  0  0  0
  6 16  1  0  0  0  0
  9  3  1  0  0  0  0
 10  3  1  0  0  0  0
 12  4  1  0  0  0  0
 13  5  1  0  0  0  0
 15  6  1  0  0  0  0
 17 22  1  0  0  0  0
 17  1  1  0  0  0  0
 18 17  2  0  0  0  0
 19 20  2  0  0  0  0
 19 18  1  0  0  0  0
 20 21  1  0  0  0  0
 21 25  1  0  0  0  0
 21 22  2  0  0  0  0
 23 18  1  0  0  0  0
 24 19  1  0  0  0  0
 26 27  2  0  0  0  0
 28 29  1  0  0  0  0
 28 27  1  0  0  0  0
M  END
>  <minimizedAffinity>
-4.46969461

$$$$

 OpenBabel03242517093D

 29 30  0  0  1  0  0  0  0  0999 V2000
   38.3370   29.2230   41.3310 C   0  0  2  0  0  0  0  0  0  0  0  0
   37.0820   28.4770   41.0940 C   0  0  2  0  0  0  0  0  0  0  0  0
   36.3760   28.0680   42.3460 C   0  0  0  0  0  0  0  0  0  0  0  0
   37.2660   27.3000   43.3070 C   0  0  0  0  0  0  0  0  0  0  0  0
   38.6840   27.8030   43.3580 C   0  0  0  0  0  0  0  0  0  0  0  0
   38.7880   29.1970   42.7860 C   0  0  0  0  0  0  0  0  0  0  0  0
   39.2130   28.7830   40.7690 H   0  0  0  0  0  0  0  0  0  0  0  0
   36.3810   29.1290   40.5340 H   0  0  0  0  0  0  0  0  0  0  0  0
   35.6130   27.2980   42.0220 H   0  0  0  0  0  0  0  0  0  0  0  0
   35.8040   28.8270   42.8660 H   0  0  0  0  0  0  0  0  0  0  0  0
   37.2610   26.2030   43.1010 H   0  0  0  0  0  0  0  0  0  0  0  0
   36.8370   27.4500   44.3220 H   0  0  0  0  0  0  0  0  0  0  0  0
   39.0750   27.8640   44.3950 H   0  0  0  0  0  0  0  0  0  0  0  0
   39.3580   27.1630   42.7480 H   0  0  0  0  0  0  0  0  0  0  0  0
   38.1470   29.8570   43.4050 H   0  0  0  0  0  0  0  0  0  0  0  0
   39.8230   29.5470   42.8510 H   0  0  0  0  0  0  0  0  0  0  0  0
   38.2500   30.6360   40.9240 C   0  0  0  0  0  0  0  0  0  0  0  0
   37.2250   30.9520   40.0100 C   0  0  0  0  0  0  0  0  0  0  0  0
   37.0620   32.2640   39.5700 C   0  0  0  0  0  0  0  0  0  0  0  0
   37.9440   33.1900   40.0750 N   0  0  0  0  0  0  0  0  0  0  0  0
   38.9210   32.8590   40.9530 C   0  0  0  0  0  0  0  0  0  0  0  0
   39.0720   31.5820   41.3770 N   0  0  0  0  0  0  0  0  0  0  0  0
   36.4960   30.2890   39.5680 H   0  0  0  0  0  0  0  0  0  0  0  0
   36.3170   32.5920   38.8820 H   0  0  0  0  0  0  0  0  0  0  0  0
   39.5840   33.6320   41.3150 H   0  0  0  0  0  0  0  0  0  0  0  0
   37.3360   27.2700   40.2420 C   0  0  0  0  0  3  0  0  0  0  0  0
   36.7060   26.9210   39.1290 C   0  0  0  0  0  3  0  0  0  0  0  0
   35.6270   27.7920   38.6370 C   0  0  0  0  0  2  0  0  0  0  0  0
   36.0680   28.6610   38.0910 H   0  0  0  0  0  0  0  0  0  0  0  0
  1  7  1  6  0  0  0
  1  6  1  0  0  0  0
  2  8  1  6  0  0  0
  2  1  1  0  0  0  0
  2  3  1  0  0  0  0
  3 10  1  0  0  0  0
  3  4  1  0  0  0  0
  4  5  1  0  0  0  0
  4 12  1  0  0  0  0
  5 13  1  0  0  0  0
  6 16  1  0  0  0  0
  6  5  1  0  0  0  0
  6 15  1  0  0  0  0
  9  3  1  0  0  0  0
 11  4  1  0  0  0  0
 14  5  1  0  0  0  0
 17  1  1  0  0  0  0
 17 22  1  0  0  0  0
 18 17  2  0  0  0  0
 19 18  1  0  0  0  0
 19 20  2  0  0  0  0
 20 21  1  0  0  0  0
 21 25  1  0  0  0  0
 21 22  2  0  0  0  0
 23 18  1  0  0  0  0
 24 19  1  0  0  0  0
 26  2  1  0  0  0  0
 27 26  2  0  0  0  0
 28 27  1  0  0  0  0
 29 28  1  0  0  0  0
M  END
>  <minimizedAffinity>
-4.41128826

$$$$

 OpenBabel03242517093D

 29 30  0  0  1  0  0  0  0  0999 V2000
   36.8580   28.4190   39.7660 C   0  0  2  0  0  0  0  0  0  0  0  0
   35.9970   29.6130   39.6160 C   0  0  2  0  0  0  0  0  0  0  0  0
   34.5740   29.2930   39.2920 C   0  0  0  0  0  0  0  0  0  0  0  0
   34.4270   28.3890   38.0810 C   0  0  0  0  0  0  0  0  0  0  0  0
   35.4900   27.3280   37.9820 C   0  0  0  0  0  0  0  0  0  0  0  0
   36.1880   27.1300   39.3060 C   0  0  0  0  0  0  0  0  0  0  0  0
   37.7920   28.4780   39.1320 H   0  0  0  0  0  0  0  0  0  0  0  0
   35.9860   30.1660   40.5780 H   0  0  0  0  0  0  0  0  0  0  0  0
   34.1180   30.2700   38.9460 H   0  0  0  0  0  0  0  0  0  0  0  0
   33.9390   28.9620   40.1050 H   0  0  0  0  0  0  0  0  0  0  0  0
   34.3790   28.9670   37.1270 H   0  0  0  0  0  0  0  0  0  0  0  0
   33.4560   27.8600   38.1990 H   0  0  0  0  0  0  0  0  0  0  0  0
   35.0760   26.3380   37.6990 H   0  0  0  0  0  0  0  0  0  0  0  0
   36.2780   27.6180   37.2530 H   0  0  0  0  0  0  0  0  0  0  0  0
   35.4200   26.8070   40.0390 H   0  0  0  0  0  0  0  0  0  0  0  0
   36.9410   26.3430   39.2130 H   0  0  0  0  0  0  0  0  0  0  0  0
   37.3100   28.2080   41.1520 C   0  0  0  0  0  0  0  0  0  0  0  0
   37.3280   26.8710   41.5970 C   0  0  0  0  0  0  0  0  0  0  0  0
   37.7430   26.5730   42.8940 C   0  0  0  0  0  0  0  0  0  0  0  0
   38.1180   27.6400   43.6740 N   0  0  0  0  0  0  0  0  0  0  0  0
   38.0910   28.9160   43.2210 C   0  0  0  0  0  0  0  0  0  0  0  0
   37.6860   29.1990   41.9600 N   0  0  0  0  0  0  0  0  0  0  0  0
   37.0510   25.9810   41.0520 H   0  0  0  0  0  0  0  0  0  0  0  0
   37.7890   25.5940   43.3130 H   0  0  0  0  0  0  0  0  0  0  0  0
   38.3980   29.7140   43.8830 H   0  0  0  0  0  0  0  0  0  0  0  0
   36.5540   30.5410   38.5790 C   0  0  0  0  0  3  0  0  0  0  0  0
   37.1110   31.7270   38.7760 C   0  0  0  0  0  3  0  0  0  0  0  0
   37.2160   32.2280   40.1550 C   0  0  0  0  0  2  0  0  0  0  0  0
   38.0950   31.7550   40.6590 H   0  0  0  0  0  0  0  0  0  0  0  0
  1  7  1  6  0  0  0
  1 17  1  0  0  0  0
  2  1  1  0  0  0  0
  2  8  1  1  0  0  0
  3  2  1  0  0  0  0
  3 10  1  0  0  0  0
  4 12  1  0  0  0  0
  4  3  1  0  0  0  0
  5  4  1  0  0  0  0
  5  6  1  0  0  0  0
  6  1  1  0  0  0  0
  6 15  1  0  0  0  0
  9  3  1  0  0  0  0
 11  4  1  0  0  0  0
 13  5  1  0  0  0  0
 14  5  1  0  0  0  0
 16  6  1  0  0  0  0
 17 18  2  0  0  0  0
 17 22  1  0  0  0  0
 18 19  1  0  0  0  0
 19 24  1  0  0  0  0
 19 20  2  0  0  0  0
 21 20  1  0  0  0  0
 21 25  1  0  0  0  0
 22 21  2  0  0  0  0
 23 18  1  0  0  0  0
 26 27  2  0  0  0  0
 26  2  1  0  0  0  0
 27 28  1  0  0  0  0
 28 29  1  0  0  0  0
M  END
>  <minimizedAffinity>
-4.40442657

$$$$

 OpenBabel03242517093D

 29 30  0  0  1  0  0  0  0  0999 V2000
   37.2160   29.1790   41.7540 C   0  0  2  0  0  0  0  0  0  0  0  0
   38.6840   29.0640   41.8990 C   0  0  2  0  0  0  0  0  0  0  0  0
   39.1440   27.7100   42.3330 C   0  0  0  0  0  0  0  0  0  0  0  0
   38.4560   27.2240   43.5960 C   0  0  0  0  0  0  0  0  0  0  0  0
   37.0010   27.5990   43.6800 C   0  0  0  0  0  0  0  0  0  0  0  0
   36.4590   27.9850   42.3240 C   0  0  0  0  0  0  0  0  0  0  0  0
   36.7940   30.0600   42.3220 H   0  0  0  0  0  0  0  0  0  0  0  0
   39.1540   29.2580   40.9130 H   0  0  0  0  0  0  0  0  0  0  0  0
   40.2200   27.8490   42.6570 H   0  0  0  0  0  0  0  0  0  0  0  0
   39.1770   26.9300   41.5820 H   0  0  0  0  0  0  0  0  0  0  0  0
   38.9870   27.5580   44.5200 H   0  0  0  0  0  0  0  0  0  0  0  0
   38.4990   26.1130   43.5700 H   0  0  0  0  0  0  0  0  0  0  0  0
   36.3670   26.7630   44.0390 H   0  0  0  0  0  0  0  0  0  0  0  0
   36.8530   28.4820   44.3390 H   0  0  0  0  0  0  0  0  0  0  0  0
   36.5680   27.1020   41.6610 H   0  0  0  0  0  0  0  0  0  0  0  0
   35.3980   28.2350   42.4070 H   0  0  0  0  0  0  0  0  0  0  0  0
   36.7890   29.3420   40.3550 C   0  0  0  0  0  0  0  0  0  0  0  0
   35.8950   28.3670   39.8660 C   0  0  0  0  0  0  0  0  0  0  0  0
   35.4330   28.4400   38.5530 C   0  0  0  0  0  0  0  0  0  0  0  0
   35.8980   29.4930   37.8010 N   0  0  0  0  0  0  0  0  0  0  0  0
   36.7570   30.4160   38.2960 C   0  0  0  0  0  0  0  0  0  0  0  0
   37.2010   30.3390   39.5720 N   0  0  0  0  0  0  0  0  0  0  0  0
   35.4860   27.5150   40.3860 H   0  0  0  0  0  0  0  0  0  0  0  0
   34.7590   27.7500   38.1010 H   0  0  0  0  0  0  0  0  0  0  0  0
   37.0870   31.2220   37.6560 H   0  0  0  0  0  0  0  0  0  0  0  0
   39.2060   30.1020   42.8470 C   0  0  0  0  0  3  0  0  0  0  0  0
   39.9530   31.1570   42.5560 C   0  0  0  0  0  3  0  0  0  0  0  0
   40.3360   31.3730   41.1530 C   0  0  0  0  0  2  0  0  0  0  0  0
   39.4870   31.8480   40.6020 H   0  0  0  0  0  0  0  0  0  0  0  0
  1  2  1  0  0  0  0
  1  7  1  1  0  0  0
  1  6  1  0  0  0  0
  2  8  1  6  0  0  0
  2  3  1  0  0  0  0
  2 26  1  0  0  0  0
  3  9  1  0  0  0  0
  3  4  1  0  0  0  0
  4  5  1  0  0  0  0
  4 11  1  0  0  0  0
  5 13  1  0  0  0  0
  5 14  1  0  0  0  0
  6 16  1  0  0  0  0
  6  5  1  0  0  0  0
 10  3  1  0  0  0  0
 12  4  1  0  0  0  0
 15  6  1  0  0  0  0
 17  1  1  0  0  0  0
 18 17  1  0  0  0  0
 18 23  1  0  0  0  0
 19 18  2  0  0  0  0
 20 21  2  0  0  0  0
 20 19  1  0  0  0  0
 21 22  1  0  0  0  0
 22 17  2  0  0  0  0
 24 19  1  0  0  0  0
 25 21  1  0  0  0  0
 27 26  2  0  0  0  0
 28 27  1  0  0  0  0
 29 28  1  0  0  0  0
M  END
>  <minimizedAffinity>
-4.38201141

$$$$
