
 OpenBabel03252504083D

 14 14  0  0  0  0  0  0  0  0999 V2000
   36.7860   31.0620   40.7700 C   0  0  0  0  0  0  0  0  0  0  0  0
   37.7080   30.1440   41.2990 C   0  0  0  0  0  0  0  0  0  0  0  0
   38.9620   30.0830   40.6740 C   0  0  0  0  0  0  0  0  0  0  0  0
   39.2190   30.8890   39.6180 N   0  0  0  0  0  0  0  0  0  0  0  0
   38.3000   31.7480   39.1540 C   0  0  0  0  0  0  0  0  0  0  0  0
   37.0920   31.8320   39.7300 N   0  0  0  0  0  0  0  0  0  0  0  0
   39.7160   29.4190   41.0070 H   0  0  0  0  0  0  0  0  0  0  0  0
   38.6110   32.3570   38.2920 H   0  0  0  0  0  0  0  0  0  0  0  0
   35.5600   31.1280   41.3770 O   0  0  0  0  0  0  0  0  0  0  0  0
   35.4270   31.6780   42.2210 H   0  0  0  0  0  0  0  0  0  0  0  0
   37.3970   29.2890   42.4400 C   0  0  0  0  0  3  0  0  0  0  0  0
   36.8190   28.1010   42.3530 C   0  0  0  0  0  3  0  0  0  0  0  0
   36.5380   27.2920   43.5680 C   0  0  0  0  0  2  0  0  0  0  0  0
   36.2870   28.0140   44.3750 H   0  0  0  0  0  0  0  0  0  0  0  0
  1  2  1  0  0  0  0
  1  9  1  0  0  0  0
  2 11  1  0  0  0  0
  3  7  1  0  0  0  0
  3  2  2  0  0  0  0
  4  3  1  0  0  0  0
  5  4  2  0  0  0  0
  5  6  1  0  0  0  0
  6  1  2  0  0  0  0
  8  5  1  0  0  0  0
  9 10  1  0  0  0  0
 12 11  2  0  0  0  0
 12 13  1  0  0  0  0
 13 14  1  0  0  0  0
M  END
>  <minimizedAffinity>
-3.96698093

$$$$

 OpenBabel03252504083D

 14 14  0  0  0  0  0  0  0  0999 V2000
   36.3230   29.9320   41.3660 C   0  0  0  0  0  0  0  0  0  0  0  0
   35.8330   28.9140   40.5330 C   0  0  0  0  0  0  0  0  0  0  0  0
   36.5340   27.6990   40.5480 C   0  0  0  0  0  0  0  0  0  0  0  0
   37.6220   27.5680   41.3440 N   0  0  0  0  0  0  0  0  0  0  0  0
   38.0450   28.5750   42.1200 C   0  0  0  0  0  0  0  0  0  0  0  0
   37.3980   29.7480   42.1300 N   0  0  0  0  0  0  0  0  0  0  0  0
   36.2340   26.8780   39.9510 H   0  0  0  0  0  0  0  0  0  0  0  0
   38.9380   28.3630   42.7270 H   0  0  0  0  0  0  0  0  0  0  0  0
   35.6430   31.1210   41.3570 O   0  0  0  0  0  0  0  0  0  0  0  0
   34.8050   31.2440   41.9180 H   0  0  0  0  0  0  0  0  0  0  0  0
   34.6580   29.0890   39.6880 C   0  0  0  0  0  3  0  0  0  0  0  0
   34.5930   28.7480   38.4100 C   0  0  0  0  0  3  0  0  0  0  0  0
   33.3520   28.9610   37.6180 C   0  0  0  0  0  2  0  0  0  0  0  0
   32.8900   29.8950   38.0050 H   0  0  0  0  0  0  0  0  0  0  0  0
  1  6  1  0  0  0  0
  2  3  1  0  0  0  0
  2  1  2  0  0  0  0
  3  4  2  0  0  0  0
  4  5  1  0  0  0  0
  5  6  2  0  0  0  0
  5  8  1  0  0  0  0
  7  3  1  0  0  0  0
  9  1  1  0  0  0  0
  9 10  1  0  0  0  0
 11  2  1  0  0  0  0
 12 11  2  0  0  0  0
 13 14  1  0  0  0  0
 13 12  1  0  0  0  0
M  END
>  <minimizedAffinity>
-3.93210363

$$$$

 OpenBabel03252504083D

 14 14  0  0  0  0  0  0  0  0999 V2000
   36.3000   30.6830   40.3230 C   0  0  0  0  0  0  0  0  0  0  0  0
   36.5840   29.3080   40.3210 C   0  0  0  0  0  0  0  0  0  0  0  0
   37.2780   28.8120   39.2070 C   0  0  0  0  0  0  0  0  0  0  0  0
   37.6310   29.6590   38.2120 N   0  0  0  0  0  0  0  0  0  0  0  0
   37.3320   30.9650   38.2670 C   0  0  0  0  0  0  0  0  0  0  0  0
   36.6720   31.4710   39.3180 N   0  0  0  0  0  0  0  0  0  0  0  0
   37.5330   27.7880   39.1230 H   0  0  0  0  0  0  0  0  0  0  0  0
   37.6650   31.5640   37.4060 H   0  0  0  0  0  0  0  0  0  0  0  0
   35.6240   31.1740   41.4080 O   0  0  0  0  0  0  0  0  0  0  0  0
   36.1170   31.4070   42.2660 H   0  0  0  0  0  0  0  0  0  0  0  0
   36.1890   28.4230   41.4110 C   0  0  0  0  0  3  0  0  0  0  0  0
   36.9370   28.1520   42.4690 C   0  0  0  0  0  3  0  0  0  0  0  0
   36.4570   27.2370   43.5380 C   0  0  0  0  0  2  0  0  0  0  0  0
   35.8440   26.4590   43.0330 H   0  0  0  0  0  0  0  0  0  0  0  0
  1  9  1  0  0  0  0
  2  1  1  0  0  0  0
  2 11  1  0  0  0  0
  3  2  2  0  0  0  0
  4  5  2  0  0  0  0
  4  3  1  0  0  0  0
  5  6  1  0  0  0  0
  6  1  2  0  0  0  0
  7  3  1  0  0  0  0
  8  5  1  0  0  0  0
  9 10  1  0  0  0  0
 11 12  2  0  0  0  0
 12 13  1  0  0  0  0
 14 13  1  0  0  0  0
M  END
>  <minimizedAffinity>
-3.87819409

$$$$

 OpenBabel03252504083D

 14 14  0  0  0  0  0  0  0  0999 V2000
   35.9670   30.4700   40.2460 C   0  0  0  0  0  0  0  0  0  0  0  0
   36.7610   31.2120   39.3560 C   0  0  0  0  0  0  0  0  0  0  0  0
   37.0440   30.6140   38.1190 C   0  0  0  0  0  0  0  0  0  0  0  0
   36.5530   29.3820   37.8480 N   0  0  0  0  0  0  0  0  0  0  0  0
   35.7990   28.7180   38.7370 C   0  0  0  0  0  0  0  0  0  0  0  0
   35.5100   29.2620   39.9270 N   0  0  0  0  0  0  0  0  0  0  0  0
   37.6340   31.1020   37.3890 H   0  0  0  0  0  0  0  0  0  0  0  0
   35.4510   27.7250   38.4160 H   0  0  0  0  0  0  0  0  0  0  0  0
   35.6870   31.0490   41.4550 O   0  0  0  0  0  0  0  0  0  0  0  0
   34.9300   31.7220   41.5460 H   0  0  0  0  0  0  0  0  0  0  0  0
   37.2740   32.5380   39.6810 C   0  0  0  0  0  3  0  0  0  0  0  0
   38.4560   32.7730   40.2300 C   0  0  0  0  0  3  0  0  0  0  0  0
   38.9040   34.1590   40.5290 C   0  0  0  0  0  2  0  0  0  0  0  0
   37.9940   34.7270   40.8200 H   0  0  0  0  0  0  0  0  0  0  0  0
  1  9  1  0  0  0  0
  2 11  1  0  0  0  0
  2  1  2  0  0  0  0
  3  2  1  0  0  0  0
  4  3  2  0  0  0  0
  4  5  1  0  0  0  0
  5  6  2  0  0  0  0
  6  1  1  0  0  0  0
  7  3  1  0  0  0  0
  8  5  1  0  0  0  0
  9 10  1  0  0  0  0
 11 12  2  0  0  0  0
 12 13  1  0  0  0  0
 13 14  1  0  0  0  0
M  END
>  <minimizedAffinity>
-3.69914508

$$$$

 OpenBabel03252504083D

 14 14  0  0  0  0  0  0  0  0999 V2000
   37.8790   33.0580   40.1800 C   0  0  0  0  0  0  0  0  0  0  0  0
   37.7250   31.7340   40.6220 C   0  0  0  0  0  0  0  0  0  0  0  0
   38.8840   31.0840   41.0720 C   0  0  0  0  0  0  0  0  0  0  0  0
   40.0650   31.7460   41.0590 N   0  0  0  0  0  0  0  0  0  0  0  0
   40.1530   33.0120   40.6260 C   0  0  0  0  0  0  0  0  0  0  0  0
   39.0650   33.6610   40.1900 N   0  0  0  0  0  0  0  0  0  0  0  0
   38.8610   30.0860   41.4220 H   0  0  0  0  0  0  0  0  0  0  0  0
   41.1590   33.4550   40.6580 H   0  0  0  0  0  0  0  0  0  0  0  0
   36.7510   33.6980   39.7400 O   0  0  0  0  0  0  0  0  0  0  0  0
   36.1080   34.1300   40.3990 H   0  0  0  0  0  0  0  0  0  0  0  0
   36.4370   31.0500   40.6220 C   0  0  0  0  0  3  0  0  0  0  0  0
   36.1860   29.9190   39.9820 C   0  0  0  0  0  3  0  0  0  0  0  0
   34.8410   29.2870   40.0340 C   0  0  0  0  0  2  0  0  0  0  0  0
   34.1050   30.1180   40.0750 H   0  0  0  0  0  0  0  0  0  0  0  0
  1  6  2  0  0  0  0
  1  2  1  0  0  0  0
  2 11  1  0  0  0  0
  2  3  2  0  0  0  0
  3  7  1  0  0  0  0
  4  3  1  0  0  0  0
  5  8  1  0  0  0  0
  5  4  2  0  0  0  0
  6  5  1  0  0  0  0
  9  1  1  0  0  0  0
  9 10  1  0  0  0  0
 12 13  1  0  0  0  0
 12 11  2  0  0  0  0
 13 14  1  0  0  0  0
M  END
>  <minimizedAffinity>
-3.59413147

$$$$

 OpenBabel03252504083D

 14 14  0  0  0  0  0  0  0  0999 V2000
   36.8230   29.3520   42.0180 C   0  0  0  0  0  0  0  0  0  0  0  0
   36.8070   28.1280   41.3300 C   0  0  0  0  0  0  0  0  0  0  0  0
   36.5150   28.1830   39.9590 C   0  0  0  0  0  0  0  0  0  0  0  0
   36.2690   29.3800   39.3780 N   0  0  0  0  0  0  0  0  0  0  0  0
   36.2970   30.5200   40.0860 C   0  0  0  0  0  0  0  0  0  0  0  0
   36.5730   30.5020   41.3970 N   0  0  0  0  0  0  0  0  0  0  0  0
   36.4830   27.3080   39.3630 H   0  0  0  0  0  0  0  0  0  0  0  0
   36.0820   31.4360   39.5160 H   0  0  0  0  0  0  0  0  0  0  0  0
   37.1080   29.3060   43.3570 O   0  0  0  0  0  0  0  0  0  0  0  0
   38.0690   29.2600   43.6820 H   0  0  0  0  0  0  0  0  0  0  0  0
   37.0780   26.8550   41.9880 C   0  0  0  0  0  3  0  0  0  0  0  0
   37.0700   25.6780   41.3800 C   0  0  0  0  0  3  0  0  0  0  0  0
   37.3580   24.4250   42.1260 C   0  0  0  0  0  2  0  0  0  0  0  0
   36.9430   24.5650   43.1480 H   0  0  0  0  0  0  0  0  0  0  0  0
  1  9  1  0  0  0  0
  2 11  1  0  0  0  0
  2  1  2  0  0  0  0
  3  2  1  0  0  0  0
  4  3  2  0  0  0  0
  4  5  1  0  0  0  0
  5  6  2  0  0  0  0
  6  1  1  0  0  0  0
  7  3  1  0  0  0  0
  8  5  1  0  0  0  0
  9 10  1  0  0  0  0
 12 11  2  0  0  0  0
 12 13  1  0  0  0  0
 13 14  1  0  0  0  0
M  END
>  <minimizedAffinity>
-3.59048033

$$$$

 OpenBabel03252504083D

 14 14  0  0  0  0  0  0  0  0999 V2000
   37.0250   28.2400   42.7140 C   0  0  0  0  0  0  0  0  0  0  0  0
   36.7460   28.6620   41.4040 C   0  0  0  0  0  0  0  0  0  0  0  0
   36.6900   27.6630   40.4210 C   0  0  0  0  0  0  0  0  0  0  0  0
   36.9030   26.3730   40.7700 N   0  0  0  0  0  0  0  0  0  0  0  0
   37.1660   26.0270   42.0390 C   0  0  0  0  0  0  0  0  0  0  0  0
   37.2250   26.9570   43.0020 N   0  0  0  0  0  0  0  0  0  0  0  0
   36.4850   27.8920   39.4080 H   0  0  0  0  0  0  0  0  0  0  0  0
   37.3220   24.9520   42.2140 H   0  0  0  0  0  0  0  0  0  0  0  0
   37.0810   29.2100   43.6780 O   0  0  0  0  0  0  0  0  0  0  0  0
   36.2310   29.5610   44.1110 H   0  0  0  0  0  0  0  0  0  0  0  0
   36.5220   30.0620   41.0610 C   0  0  0  0  0  3  0  0  0  0  0  0
   37.4020   30.8350   40.4430 C   0  0  0  0  0  3  0  0  0  0  0  0
   37.0930   32.2560   40.1310 C   0  0  0  0  0  2  0  0  0  0  0  0
   36.4600   32.6300   40.9640 H   0  0  0  0  0  0  0  0  0  0  0  0
  1  6  1  0  0  0  0
  1  9  1  0  0  0  0
  2  1  2  0  0  0  0
  3  4  2  0  0  0  0
  3  2  1  0  0  0  0
  4  5  1  0  0  0  0
  5  8  1  0  0  0  0
  5  6  2  0  0  0  0
  7  3  1  0  0  0  0
  9 10  1  0  0  0  0
 11  2  1  0  0  0  0
 12 11  2  0  0  0  0
 13 12  1  0  0  0  0
 13 14  1  0  0  0  0
M  END
>  <minimizedAffinity>
-3.51999569

$$$$

 OpenBabel03252504083D

 14 14  0  0  0  0  0  0  0  0999 V2000
   36.3720   28.9130   41.6820 C   0  0  0  0  0  0  0  0  0  0  0  0
   37.2080   30.0320   41.5320 C   0  0  0  0  0  0  0  0  0  0  0  0
   38.4210   30.0090   42.2350 C   0  0  0  0  0  0  0  0  0  0  0  0
   38.7230   28.9380   43.0060 N   0  0  0  0  0  0  0  0  0  0  0  0
   37.8860   27.8950   43.1130 C   0  0  0  0  0  0  0  0  0  0  0  0
   36.7190   27.8860   42.4530 N   0  0  0  0  0  0  0  0  0  0  0  0
   39.1110   30.8100   42.1800 H   0  0  0  0  0  0  0  0  0  0  0  0
   38.2270   27.0770   43.7650 H   0  0  0  0  0  0  0  0  0  0  0  0
   35.1870   28.9300   40.9970 O   0  0  0  0  0  0  0  0  0  0  0  0
   35.1490   28.6640   40.0170 H   0  0  0  0  0  0  0  0  0  0  0  0
   36.8520   31.1710   40.6920 C   0  0  0  0  0  3  0  0  0  0  0  0
   37.6740   32.1590   40.3770 C   0  0  0  0  0  3  0  0  0  0  0  0
   37.2300   33.2850   39.5130 C   0  0  0  0  0  2  0  0  0  0  0  0
   36.1590   33.4610   39.7530 H   0  0  0  0  0  0  0  0  0  0  0  0
  1  6  1  0  0  0  0
  2  1  2  0  0  0  0
  2  3  1  0  0  0  0
  3  4  2  0  0  0  0
  4  5  1  0  0  0  0
  5  8  1  0  0  0  0
  6  5  2  0  0  0  0
  7  3  1  0  0  0  0
  9  1  1  0  0  0  0
 10  9  1  0  0  0  0
 11  2  1  0  0  0  0
 12 11  2  0  0  0  0
 13 14  1  0  0  0  0
 13 12  1  0  0  0  0
M  END
>  <minimizedAffinity>
-3.50673079

$$$$

 OpenBabel03252504083D

 14 14  0  0  0  0  0  0  0  0999 V2000
   37.1750   28.7070   42.1650 C   0  0  0  0  0  0  0  0  0  0  0  0
   37.8390   27.4970   42.4260 C   0  0  0  0  0  0  0  0  0  0  0  0
   39.1810   27.5900   42.8230 C   0  0  0  0  0  0  0  0  0  0  0  0
   39.7590   28.8090   42.9330 N   0  0  0  0  0  0  0  0  0  0  0  0
   39.0770   29.9330   42.6700 C   0  0  0  0  0  0  0  0  0  0  0  0
   37.7930   29.8790   42.2890 N   0  0  0  0  0  0  0  0  0  0  0  0
   39.7560   26.7290   43.0410 H   0  0  0  0  0  0  0  0  0  0  0  0
   39.6410   30.8700   42.7900 H   0  0  0  0  0  0  0  0  0  0  0  0
   35.8650   28.6230   41.7770 O   0  0  0  0  0  0  0  0  0  0  0  0
   35.1250   28.5170   42.4660 H   0  0  0  0  0  0  0  0  0  0  0  0
   37.1840   26.2000   42.2980 C   0  0  0  0  0  3  0  0  0  0  0  0
   37.2890   25.4060   41.2440 C   0  0  0  0  0  3  0  0  0  0  0  0
   36.5870   24.0960   41.1940 C   0  0  0  0  0  2  0  0  0  0  0  0
   35.6280   24.2330   41.7370 H   0  0  0  0  0  0  0  0  0  0  0  0
  1  6  2  0  0  0  0
  1  2  1  0  0  0  0
  2  3  2  0  0  0  0
  3  4  1  0  0  0  0
  3  7  1  0  0  0  0
  5  8  1  0  0  0  0
  5  4  2  0  0  0  0
  6  5  1  0  0  0  0
  9  1  1  0  0  0  0
  9 10  1  0  0  0  0
 11  2  1  0  0  0  0
 12 11  2  0  0  0  0
 13 12  1  0  0  0  0
 13 14  1  0  0  0  0
M  END
>  <minimizedAffinity>
-3.50626588

$$$$
