
 OpenBabel03252503093D

 22 23  0  0  0  0  0  0  0  0999 V2000
   44.9670   36.0560   43.6560 C   0  0  0  0  0  0  0  0  0  0  0  0
   45.6720   34.9360   43.1720 C   0  0  0  0  0  0  0  0  0  0  0  0
   45.8390   33.9060   44.0900 C   0  0  0  0  0  0  0  0  0  0  0  0
   45.3610   33.9740   45.3510 N   0  0  0  0  0  0  0  0  0  0  0  0
   44.6850   35.0830   45.7700 C   0  0  0  0  0  0  0  0  0  0  0  0
   44.4940   36.1170   44.9180 N   0  0  0  0  0  0  0  0  0  0  0  0
   44.7830   36.9090   43.0250 H   0  0  0  0  0  0  0  0  0  0  0  0
   44.3220   35.1040   46.7730 H   0  0  0  0  0  0  0  0  0  0  0  0
   46.5230   32.7590   43.6940 C   0  0  0  0  0  0  0  0  0  0  0  0
   47.8450   32.3720   43.7000 C   0  0  0  0  0  0  0  0  0  0  0  0
   48.2640   31.1990   43.2500 C   0  0  0  0  0  0  0  0  0  0  0  0
   47.2940   30.3490   42.7600 C   0  0  0  0  0  0  0  0  0  0  0  0
   45.7330   31.3240   42.9780 S   0  0  0  0  0  0  0  0  0  0  0  0
   48.7020   32.9070   44.0800 H   0  0  0  0  0  0  0  0  0  0  0  0
   49.1680   30.6620   43.1350 H   0  0  0  0  0  0  0  0  0  0  0  0
   47.1360   29.3860   42.3260 H   0  0  0  0  0  0  0  0  0  0  0  0
   46.1400   34.9090   41.8380 C   0  0  0  0  0  0  0  0  0  0  0  0
   47.4040   35.0460   41.7060 O   0  0  0  0  0  0  0  0  0  0  0  0
   44.8670   34.7230   41.0860 C   0  0  0  0  0  3  0  0  0  0  0  0
   43.9460   33.8380   40.7720 C   0  0  0  0  0  3  0  0  0  0  0  0
   42.8430   34.3350   39.9200 C   0  0  0  0  0  2  0  0  0  0  0  0
   41.8540   34.2470   40.4290 H   0  0  0  0  0  0  0  0  0  0  0  0
  1  6  1  0  0  0  0
  2  1  2  0  0  0  0
  2  3  1  0  0  0  0
  3  4  2  0  0  0  0
  4  5  1  0  0  0  0
  5  8  1  0  0  0  0
  6  5  2  0  0  0  0
  7  1  1  0  0  0  0
  9 10  2  0  0  0  0
  9  3  1  0  0  0  0
 10 14  1  0  0  0  0
 11 10  1  0  0  0  0
 12 13  1  0  0  0  0
 12 11  2  0  0  0  0
 13  9  1  0  0  0  0
 15 11  1  0  0  0  0
 16 12  1  0  0  0  0
 17  2  1  0  0  0  0
 18 17  2  0  0  0  0
 19 17  1  0  0  0  0
 20 19  2  0  0  0  0
 21 22  1  0  0  0  0
 21 20  1  0  0  0  0
M  END
>  <minimizedAffinity>
-3.97571182

>  <minimizedRMSD>
1.4290992

$$$$
