
 OpenBabel03252508413D

 23 24  0  0  0  0  0  0  0  0999 V2000
   47.7090   34.1680   40.0460 C   0  0  0  0  0  0  0  0  0  0  0  0
   46.4010   33.9200   40.3660 C   0  0  0  0  0  0  0  0  0  0  0  0
   45.8500   34.4260   41.5220 C   0  0  0  0  0  0  0  0  0  0  0  0
   46.6420   35.1870   42.3470 C   0  0  0  0  0  0  0  0  0  0  0  0
   47.9640   35.4700   42.0760 C   0  0  0  0  0  0  0  0  0  0  0  0
   48.4440   34.9240   40.8910 C   0  0  0  0  0  0  0  0  0  0  0  0
   44.8500   34.2840   41.8480 H   0  0  0  0  0  0  0  0  0  0  0  0
   46.2540   35.6110   43.2750 H   0  0  0  0  0  0  0  0  0  0  0  0
   48.5870   36.0740   42.7340 H   0  0  0  0  0  0  0  0  0  0  0  0
   49.4780   35.1150   40.6280 H   0  0  0  0  0  0  0  0  0  0  0  0
   48.5880   33.5910   36.4120 C   0  0  0  0  0  0  0  0  0  0  0  0
   48.0690   34.2270   37.5640 C   0  0  0  0  0  0  0  0  0  0  0  0
   48.2080   33.5970   38.8090 C   0  0  0  0  0  0  0  0  0  0  0  0
   48.8380   32.4090   38.8250 N   0  0  0  0  0  0  0  0  0  0  0  0
   49.3310   31.8100   37.7220 C   0  0  0  0  0  0  0  0  0  0  0  0
   49.2070   32.4000   36.5160 N   0  0  0  0  0  0  0  0  0  0  0  0
   48.4300   34.1550   35.5110 H   0  0  0  0  0  0  0  0  0  0  0  0
   47.5620   35.1810   37.5560 H   0  0  0  0  0  0  0  0  0  0  0  0
   49.8340   30.8440   37.8060 H   0  0  0  0  0  0  0  0  0  0  0  0
   45.5590   33.1110   39.4890 C   0  0  0  0  0  3  0  0  0  0  0  0
   44.3140   33.3910   39.1360 C   0  0  0  0  0  3  0  0  0  0  0  0
   43.4980   32.5410   38.2430 C   0  0  0  0  0  2  0  0  0  0  0  0
   42.7770   31.9170   38.8050 H   0  0  0  0  0  0  0  0  0  0  0  0
  1  2  2  0  0  0  0
  1  6  1  0  0  0  0
  2  3  1  0  0  0  0
  3  7  1  0  0  0  0
  3  4  2  0  0  0  0
  4  8  1  0  0  0  0
  5  4  1  0  0  0  0
  5  9  1  0  0  0  0
  6  5  2  0  0  0  0
 10  6  1  0  0  0  0
 11 16  2  0  0  0  0
 11 12  1  0  0  0  0
 12 13  2  0  0  0  0
 13 14  1  0  0  0  0
 13  1  1  0  0  0  0
 15 19  1  0  0  0  0
 15 14  2  0  0  0  0
 16 15  1  0  0  0  0
 17 11  1  0  0  0  0
 18 12  1  0  0  0  0
 20  2  1  0  0  0  0
 21 20  2  0  0  0  0
 22 23  1  0  0  0  0
 22 21  1  0  0  0  0
M  END
>  <minimizedAffinity>
-4.16751194

>  <minimizedRMSD>
6.48048639

$$$$
