
 OpenBabel03252505573D

 31 32  0  0  0  0  0  0  0  0999 V2000
   45.8700   32.6850   47.5710 O   0  0  0  0  0  0  0  0  0  0  0  0
   45.0210   34.8720   44.9060 C   0  0  0  0  0  0  0  0  0  0  0  0
   45.9550   34.5610   43.8990 C   0  0  0  0  0  0  0  0  0  0  0  0
   46.8800   33.5620   44.2040 C   0  0  0  0  0  0  0  0  0  0  0  0
   46.8310   32.9680   45.4080 N   0  0  0  0  0  0  0  0  0  0  0  0
   45.9250   33.2960   46.3320 C   0  0  0  0  0  0  0  0  0  0  0  0
   45.0240   34.2400   46.0870 N   0  0  0  0  0  0  0  0  0  0  0  0
   44.2860   35.6570   44.6780 H   0  0  0  0  0  0  0  0  0  0  0  0
   45.9080   35.2940   42.6090 C   0  0  0  0  0  0  0  0  0  0  0  0
   45.0540   36.3670   42.8610 F   0  0  0  0  0  0  0  0  0  0  0  0
   45.2910   34.4480   41.6980 F   0  0  0  0  0  0  0  0  0  0  0  0
   47.1420   35.6950   42.2690 F   0  0  0  0  0  0  0  0  0  0  0  0
   47.8660   33.1240   43.2590 C   0  0  0  0  0  3  0  0  0  0  0  0
   47.6360   32.0680   42.4580 C   0  0  0  0  0  3  0  0  0  0  0  0
   46.3520   31.2960   42.5030 C   0  0  0  0  0  2  0  0  0  0  0  0
   46.1980   30.7850   43.4790 H   0  0  0  0  0  0  0  0  0  0  0  0
   45.3940   31.3630   47.7090 C   0  0  0  0  0  0  0  0  0  0  0  0
   44.8440   31.3320   48.6720 H   0  0  0  0  0  0  0  0  0  0  0  0
   44.6810   31.0660   46.9230 H   0  0  0  0  0  0  0  0  0  0  0  0
   46.5670   30.4760   47.8260 C   0  0  0  0  0  0  0  0  0  0  0  0
   46.7970   29.2040   47.3300 C   0  0  0  0  0  0  0  0  0  0  0  0
   47.9910   28.6230   47.5950 C   0  0  0  0  0  0  0  0  0  0  0  0
   48.9430   29.2120   48.3050 N   0  0  0  0  0  0  0  0  0  0  0  0
   48.7180   30.4460   48.7860 C   0  0  0  0  0  0  0  0  0  0  0  0
   47.5330   31.1030   48.5610 N   0  0  0  0  0  0  0  0  0  0  0  0
   45.9650   28.8430   46.7810 H   0  0  0  0  0  0  0  0  0  0  0  0
   48.1330   27.6310   47.1910 H   0  0  0  0  0  0  0  0  0  0  0  0
   49.8350   31.0410   49.5740 C   0  0  0  0  0  0  0  0  0  0  0  0
   49.8250   32.4060   49.5070 F   0  0  0  0  0  0  0  0  0  0  0  0
   51.0590   30.5610   49.0870 F   0  0  0  0  0  0  0  0  0  0  0  0
   49.7560   30.6870   50.9140 F   0  0  0  0  0  0  0  0  0  0  0  0
  1 17  1  0  0  0  0
  2  7  1  0  0  0  0
  3  4  1  0  0  0  0
  3  2  2  0  0  0  0
  4  5  2  0  0  0  0
  5  6  1  0  0  0  0
  6  1  1  0  0  0  0
  7  6  2  0  0  0  0
  8  2  1  0  0  0  0
  9 10  1  0  0  0  0
  9  3  1  0  0  0  0
 11  9  1  0  0  0  0
 12  9  1  0  0  0  0
 13  4  1  0  0  0  0
 14 15  1  0  0  0  0
 14 13  2  0  0  0  0
 15 16  1  0  0  0  0
 17 20  1  0  0  0  0
 17 18  1  0  0  0  0
 19 17  1  0  0  0  0
 20 25  1  0  0  0  0
 21 22  1  0  0  0  0
 21 20  2  0  0  0  0
 22 23  2  0  0  0  0
 23 24  1  0  0  0  0
 24 28  1  0  0  0  0
 25 24  2  0  0  0  0
 26 21  1  0  0  0  0
 27 22  1  0  0  0  0
 28 31  1  0  0  0  0
 29 28  1  0  0  0  0
 30 28  1  0  0  0  0
M  END
>  <minimizedAffinity>
-5.53378868

>  <minimizedRMSD>
0.27601698

$$$$
