
 OpenBabel03252501443D

 18 18  0  0  0  0  0  0  0  0999 V2000
   44.5940   35.7910   42.9440 C   0  0  0  0  0  0  0  0  0  0  0  0
   44.0610   34.9180   41.9740 C   0  0  0  0  0  0  0  0  0  0  0  0
   44.1350   33.5570   42.2110 C   0  0  0  0  0  0  0  0  0  0  0  0
   44.7100   33.1070   43.3540 N   0  0  0  0  0  0  0  0  0  0  0  0
   45.2150   33.9830   44.2680 C   0  0  0  0  0  0  0  0  0  0  0  0
   45.1540   35.2930   44.0580 N   0  0  0  0  0  0  0  0  0  0  0  0
   44.5020   36.8370   42.6910 H   0  0  0  0  0  0  0  0  0  0  0  0
   43.7430   32.8510   41.5030 H   0  0  0  0  0  0  0  0  0  0  0  0
   43.4450   35.4370   40.7490 C   0  0  0  0  0  3  0  0  0  0  0  0
   42.7940   34.6780   39.8690 C   0  0  0  0  0  3  0  0  0  0  0  0
   42.1930   35.3080   38.6350 C   0  0  0  0  0  0  0  0  0  0  0  0
   42.9530   35.5150   37.8820 H   0  0  0  0  0  0  0  0  0  0  0  0
   41.5140   34.5400   38.2110 H   0  0  0  0  0  0  0  0  0  0  0  0
   41.5770   36.1810   38.9050 H   0  0  0  0  0  0  0  0  0  0  0  0
   45.8420   33.5450   45.5100 C   0  0  0  0  0  3  0  0  0  0  0  0
   46.8680   32.7180   45.5940 C   0  0  0  0  0  3  0  0  0  0  0  0
   47.5060   32.1330   44.4080 C   0  0  0  0  0  2  0  0  0  0  0  0
   48.3410   31.4640   44.7030 H   0  0  0  0  0  0  0  0  0  0  0  0
  1  6  1  0  0  0  0
  2  3  1  0  0  0  0
  2  1  2  0  0  0  0
  3  4  2  0  0  0  0
  4  5  1  0  0  0  0
  5 15  1  0  0  0  0
  6  5  2  0  0  0  0
  7  1  1  0  0  0  0
  8  3  1  0  0  0  0
  9  2  1  0  0  0  0
 10  9  2  0  0  0  0
 11 14  1  0  0  0  0
 11 10  1  0  0  0  0
 12 11  1  0  0  0  0
 13 11  1  0  0  0  0
 15 16  2  0  0  0  0
 17 18  1  0  0  0  0
 17 16  1  0  0  0  0
M  END
>  <minimizedAffinity>
-3.59102321

>  <minimizedRMSD>
1.43300569

$$$$
