
 OpenBabel03252505063D

 38 40  0  0  1  0  0  0  0  0999 V2000
   44.5810   35.5910   44.6180 C   0  0  0  0  0  0  0  0  0  0  0  0
   45.2380   35.6000   43.3640 C   0  0  0  0  0  0  0  0  0  0  0  0
   46.3200   34.6860   43.1860 C   0  0  0  0  0  0  0  0  0  0  0  0
   46.6650   33.8640   44.2070 N   0  0  0  0  0  0  0  0  0  0  0  0
   46.0090   33.8940   45.3780 C   0  0  0  0  0  0  0  0  0  0  0  0
   44.9660   34.7500   45.5990 N   0  0  0  0  0  0  0  0  0  0  0  0
   43.7600   36.2680   44.7850 H   0  0  0  0  0  0  0  0  0  0  0  0
   44.9260   36.2770   42.5780 H   0  0  0  0  0  0  0  0  0  0  0  0
   46.4360   32.9690   46.4630 C   0  0  2  0  0  0  0  0  0  0  0  0
   46.9660   31.7470   45.7650 C   0  0  0  0  0  0  0  0  0  0  0  0
   46.1030   30.5540   45.7760 C   0  0  0  0  0  0  0  0  0  0  0  0
   45.8090   30.2880   47.2540 C   0  0  0  0  0  0  0  0  0  0  0  0
   45.0150   31.3490   47.8670 C   0  0  0  0  0  0  0  0  0  0  0  0
   45.3800   32.7290   47.4200 C   0  0  0  0  0  0  0  0  0  0  0  0
   47.2760   33.4960   46.9720 H   0  0  0  0  0  0  0  0  0  0  0  0
   47.9280   31.4690   46.2640 H   0  0  0  0  0  0  0  0  0  0  0  0
   47.2660   31.9550   44.7110 H   0  0  0  0  0  0  0  0  0  0  0  0
   46.6800   29.6920   45.4350 H   0  0  0  0  0  0  0  0  0  0  0  0
   45.1860   30.6210   45.1710 H   0  0  0  0  0  0  0  0  0  0  0  0
   46.7520   30.0390   47.7410 H   0  0  0  0  0  0  0  0  0  0  0  0
   45.1460   29.3920   47.2360 H   0  0  0  0  0  0  0  0  0  0  0  0
   44.2230   31.3400   48.5700 H   0  0  0  0  0  0  0  0  0  0  0  0
   44.6820   33.8720   47.9330 N   0  0  0  0  0  0  0  0  0  0  0  0
   43.6680   33.9910   47.7110 H   0  0  0  0  0  0  0  0  0  0  0  0
   45.2410   34.5160   48.5020 H   0  0  0  0  0  0  0  0  0  0  0  0
   47.0120   34.6730   41.9050 C   0  0  0  0  0  0  0  0  0  0  0  0
   48.1530   35.3990   41.7770 C   0  0  0  0  0  0  0  0  0  0  0  0
   48.7820   35.3530   40.5210 C   0  0  0  0  0  0  0  0  0  0  0  0
   48.1800   34.5810   39.5540 C   0  0  0  0  0  0  0  0  0  0  0  0
   47.0360   33.8520   39.6820 C   0  0  0  0  0  0  0  0  0  0  0  0
   46.4650   33.9310   40.9220 N   0  0  0  0  0  0  0  0  0  0  0  0
   48.6070   36.0000   42.5540 H   0  0  0  0  0  0  0  0  0  0  0  0
   49.6920   35.9060   40.3460 H   0  0  0  0  0  0  0  0  0  0  0  0
   48.6880   34.5650   38.5930 H   0  0  0  0  0  0  0  0  0  0  0  0
   46.4200   33.0510   38.6660 C   0  0  0  0  0  3  0  0  0  0  0  0
   47.0810   32.0760   38.0690 C   0  0  0  0  0  3  0  0  0  0  0  0
   46.5440   31.2010   37.0220 C   0  0  0  0  0  2  0  0  0  0  0  0
   45.7710   31.7110   36.3780 H   0  0  0  0  0  0  0  0  0  0  0  0
  1  7  1  0  0  0  0
  1  6  1  0  0  0  0
  2  1  2  0  0  0  0
  3  2  1  0  0  0  0
  3  4  2  0  0  0  0
  4  5  1  0  0  0  0
  5  6  2  0  0  0  0
  5  9  1  0  0  0  0
  8  2  1  0  0  0  0
  9 15  1  1  0  0  0
  9 14  1  0  0  0  0
 10 11  1  0  0  0  0
 10 16  1  0  0  0  0
 10  9  1  0  0  0  0
 11 12  1  0  0  0  0
 12 20  1  0  0  0  0
 12 13  1  0  0  0  0
 13 22  1  0  0  0  0
 14 13  2  0  0  0  0
 14 23  1  0  0  0  0
 17 10  1  0  0  0  0
 18 11  1  0  0  0  0
 19 11  1  0  0  0  0
 21 12  1  0  0  0  0
 23 25  1  0  0  0  0
 24 23  1  0  0  0  0
 26  3  1  0  0  0  0
 27 26  1  0  0  0  0
 27 32  1  0  0  0  0
 28 27  2  0  0  0  0
 29 30  2  0  0  0  0
 29 28  1  0  0  0  0
 30 31  1  0  0  0  0
 31 26  2  0  0  0  0
 33 28  1  0  0  0  0
 34 29  1  0  0  0  0
 35 30  1  0  0  0  0
 36 35  2  0  0  0  0
 37 36  1  0  0  0  0
 38 37  1  0  0  0  0
M  END
>  <minimizedAffinity>
-6.87041855

>  <minimizedRMSD>
0.0393659174

$$$$
