
 OpenBabel03252501453D

 18 18  0  0  0  0  0  0  0  0999 V2000
   44.2680   35.5060   43.8420 C   0  0  0  0  0  0  0  0  0  0  0  0
   44.3930   34.8970   42.5770 C   0  0  0  0  0  0  0  0  0  0  0  0
   45.1990   33.7780   42.4690 C   0  0  0  0  0  0  0  0  0  0  0  0
   45.8370   33.3050   43.5680 N   0  0  0  0  0  0  0  0  0  0  0  0
   45.6910   33.9210   44.7740 C   0  0  0  0  0  0  0  0  0  0  0  0
   44.9230   34.9970   44.8980 N   0  0  0  0  0  0  0  0  0  0  0  0
   43.6240   36.3740   43.8510 H   0  0  0  0  0  0  0  0  0  0  0  0
   45.3270   33.2790   41.5270 H   0  0  0  0  0  0  0  0  0  0  0  0
   43.6890   35.4350   41.4090 C   0  0  0  0  0  3  0  0  0  0  0  0
   43.0820   34.6770   40.4980 C   0  0  0  0  0  3  0  0  0  0  0  0
   42.3810   35.3260   39.3280 C   0  0  0  0  0  0  0  0  0  0  0  0
   43.0920   35.6540   38.5700 H   0  0  0  0  0  0  0  0  0  0  0  0
   41.7630   34.5260   38.8710 H   0  0  0  0  0  0  0  0  0  0  0  0
   41.6960   36.1170   39.6750 H   0  0  0  0  0  0  0  0  0  0  0  0
   46.3580   33.4480   45.9820 C   0  0  0  0  0  3  0  0  0  0  0  0
   46.4560   32.1820   46.3520 C   0  0  0  0  0  3  0  0  0  0  0  0
   45.8880   31.0850   45.5590 C   0  0  0  0  0  2  0  0  0  0  0  0
   46.0770   30.1100   46.0510 H   0  0  0  0  0  0  0  0  0  0  0  0
  1  7  1  0  0  0  0
  1  6  1  0  0  0  0
  2  1  2  0  0  0  0
  3  2  1  0  0  0  0
  3  4  2  0  0  0  0
  4  5  1  0  0  0  0
  5  6  2  0  0  0  0
  5 15  1  0  0  0  0
  8  3  1  0  0  0  0
  9  2  1  0  0  0  0
 10  9  2  0  0  0  0
 11 14  1  0  0  0  0
 11 10  1  0  0  0  0
 12 11  1  0  0  0  0
 13 11  1  0  0  0  0
 15 16  2  0  0  0  0
 17 18  1  0  0  0  0
 17 16  1  0  0  0  0
M  END
>  <minimizedAffinity>
-3.4755435

>  <minimizedRMSD>
0.863054633

$$$$
