
 OpenBabel03242518143D

 26 27  0  0  0  0  0  0  0  0999 V2000
   37.7820   28.2520   43.4950 C   0  0  0  0  0  0  0  0  0  0  0  0
   37.3580   28.6280   44.4570 H   0  0  0  0  0  0  0  0  0  0  0  0
   38.7640   27.7980   43.8180 H   0  0  0  0  0  0  0  0  0  0  0  0
   38.0640   29.3800   42.6650 C   0  0  0  0  0  0  0  0  0  0  0  0
   39.1720   30.2480   42.4270 C   0  0  0  0  0  0  0  0  0  0  0  0
   39.0520   31.2600   41.5140 C   0  0  0  0  0  0  0  0  0  0  0  0
   37.7840   31.3960   40.8280 C   0  0  0  0  0  0  0  0  0  0  0  0
   36.7550   30.0660   41.4940 S   0  0  0  0  0  0  0  0  0  0  0  0
   40.0020   29.9630   43.0410 H   0  0  0  0  0  0  0  0  0  0  0  0
   39.8980   31.8740   41.3730 H   0  0  0  0  0  0  0  0  0  0  0  0
   37.3700   32.2950   39.8790 C   0  0  0  0  0  3  0  0  0  0  0  0
   37.3100   32.2650   38.5600 C   0  0  0  0  0  3  0  0  0  0  0  0
   37.7210   31.1240   37.6950 C   0  0  0  0  0  2  0  0  0  0  0  0
   37.1470   30.2300   37.9460 H   0  0  0  0  0  0  0  0  0  0  0  0
   36.8290   27.2440   42.9610 C   0  0  0  0  0  0  0  0  0  0  0  0
   36.1390   26.9340   43.7890 H   0  0  0  0  0  0  0  0  0  0  0  0
   36.2150   27.6830   42.1840 H   0  0  0  0  0  0  0  0  0  0  0  0
   37.5490   26.0570   42.5300 C   0  0  0  0  0  0  0  0  0  0  0  0
   36.9340   25.0060   41.8830 C   0  0  0  0  0  0  0  0  0  0  0  0
   37.6860   23.9040   41.4990 C   0  0  0  0  0  0  0  0  0  0  0  0
   39.0040   23.9130   41.7850 N   0  0  0  0  0  0  0  0  0  0  0  0
   39.5970   24.9480   42.4220 C   0  0  0  0  0  0  0  0  0  0  0  0
   38.8500   25.9830   42.7720 N   0  0  0  0  0  0  0  0  0  0  0  0
   35.8760   25.0330   41.6690 H   0  0  0  0  0  0  0  0  0  0  0  0
   37.2320   23.0680   40.9910 H   0  0  0  0  0  0  0  0  0  0  0  0
   40.6750   24.9180   42.6370 H   0  0  0  0  0  0  0  0  0  0  0  0
  1  3  1  0  0  0  0
  1  2  1  0  0  0  0
  4  1  1  0  0  0  0
  5  4  2  0  0  0  0
  5  9  1  0  0  0  0
  6  5  1  0  0  0  0
  7  8  1  0  0  0  0
  7  6  2  0  0  0  0
  8  4  1  0  0  0  0
 10  6  1  0  0  0  0
 11  7  1  0  0  0  0
 12 11  2  0  0  0  0
 13 14  1  0  0  0  0
 13 12  1  0  0  0  0
 15  1  1  0  0  0  0
 15 16  1  0  0  0  0
 17 15  1  0  0  0  0
 18 23  1  0  0  0  0
 18 15  1  0  0  0  0
 19 18  2  0  0  0  0
 20 21  2  0  0  0  0
 20 19  1  0  0  0  0
 21 22  1  0  0  0  0
 22 26  1  0  0  0  0
 22 23  2  0  0  0  0
 24 19  1  0  0  0  0
 25 20  1  0  0  0  0
M  END
>  <minimizedAffinity>
-4.69894981

$$$$

 OpenBabel03242518143D

 26 27  0  0  0  0  0  0  0  0999 V2000
   36.2230   30.7790   40.9140 C   0  0  0  0  0  0  0  0  0  0  0  0
   36.5490   31.6130   41.5800 H   0  0  0  0  0  0  0  0  0  0  0  0
   35.0980   30.8230   40.9950 H   0  0  0  0  0  0  0  0  0  0  0  0
   36.6640   29.5500   41.4950 C   0  0  0  0  0  0  0  0  0  0  0  0
   36.2280   28.1910   41.5150 C   0  0  0  0  0  0  0  0  0  0  0  0
   36.9480   27.2620   42.2140 C   0  0  0  0  0  0  0  0  0  0  0  0
   38.1340   27.7190   42.9100 C   0  0  0  0  0  0  0  0  0  0  0  0
   38.2190   29.4910   42.5590 S   0  0  0  0  0  0  0  0  0  0  0  0
   35.3340   28.0830   40.9350 H   0  0  0  0  0  0  0  0  0  0  0  0
   36.5870   26.2720   42.1990 H   0  0  0  0  0  0  0  0  0  0  0  0
   39.0400   27.0360   43.6800 C   0  0  0  0  0  3  0  0  0  0  0  0
   39.8320   26.0040   43.4540 C   0  0  0  0  0  3  0  0  0  0  0  0
   39.9400   25.2530   42.1720 C   0  0  0  0  0  2  0  0  0  0  0  0
   40.2430   25.9210   41.3640 H   0  0  0  0  0  0  0  0  0  0  0  0
   36.7150   31.0930   39.5470 C   0  0  0  0  0  0  0  0  0  0  0  0
   37.0860   30.1440   39.0760 H   0  0  0  0  0  0  0  0  0  0  0  0
   35.9010   31.4550   38.9290 H   0  0  0  0  0  0  0  0  0  0  0  0
   37.8400   32.0090   39.6200 C   0  0  0  0  0  0  0  0  0  0  0  0
   37.6960   33.3450   39.9280 C   0  0  0  0  0  0  0  0  0  0  0  0
   38.8170   34.1610   39.9810 C   0  0  0  0  0  0  0  0  0  0  0  0
   40.0160   33.5980   39.7210 N   0  0  0  0  0  0  0  0  0  0  0  0
   40.1470   32.2870   39.4180 C   0  0  0  0  0  0  0  0  0  0  0  0
   39.0560   31.5380   39.3780 N   0  0  0  0  0  0  0  0  0  0  0  0
   36.7210   33.7620   40.1310 H   0  0  0  0  0  0  0  0  0  0  0  0
   38.7350   35.2100   40.2200 H   0  0  0  0  0  0  0  0  0  0  0  0
   41.1410   31.8660   39.2130 H   0  0  0  0  0  0  0  0  0  0  0  0
  1  3  1  0  0  0  0
  1  4  1  0  0  0  0
  1  2  1  0  0  0  0
  4  5  2  0  0  0  0
  4  8  1  0  0  0  0
  5  6  1  0  0  0  0
  6  7  2  0  0  0  0
  7 11  1  0  0  0  0
  8  7  1  0  0  0  0
  9  5  1  0  0  0  0
 10  6  1  0  0  0  0
 12 11  2  0  0  0  0
 13 12  1  0  0  0  0
 14 13  1  0  0  0  0
 15 18  1  0  0  0  0
 15  1  1  0  0  0  0
 16 15  1  0  0  0  0
 17 15  1  0  0  0  0
 18 19  1  0  0  0  0
 19 20  2  0  0  0  0
 19 24  1  0  0  0  0
 20 25  1  0  0  0  0
 21 20  1  0  0  0  0
 22 21  2  0  0  0  0
 23 22  1  0  0  0  0
 23 18  2  0  0  0  0
 26 22  1  0  0  0  0
M  END
>  <minimizedAffinity>
-4.67826891

$$$$

 OpenBabel03242518143D

 26 27  0  0  0  0  0  0  0  0999 V2000
   39.2370   30.0050   42.6260 C   0  0  0  0  0  0  0  0  0  0  0  0
   40.1470   29.8460   43.2520 H   0  0  0  0  0  0  0  0  0  0  0  0
   38.7330   30.8750   43.1380 H   0  0  0  0  0  0  0  0  0  0  0  0
   38.3980   28.8570   42.7680 C   0  0  0  0  0  0  0  0  0  0  0  0
   37.2000   28.5220   43.4670 C   0  0  0  0  0  0  0  0  0  0  0  0
   36.6770   27.2640   43.3460 C   0  0  0  0  0  0  0  0  0  0  0  0
   37.3830   26.3250   42.5000 C   0  0  0  0  0  0  0  0  0  0  0  0
   38.8040   27.2500   41.8710 S   0  0  0  0  0  0  0  0  0  0  0  0
   36.8530   29.3660   44.0290 H   0  0  0  0  0  0  0  0  0  0  0  0
   35.7910   27.0650   43.8820 H   0  0  0  0  0  0  0  0  0  0  0  0
   37.1090   25.0170   42.1890 C   0  0  0  0  0  3  0  0  0  0  0  0
   36.7290   24.4040   41.0830 C   0  0  0  0  0  3  0  0  0  0  0  0
   36.4780   25.0570   39.7670 C   0  0  0  0  0  2  0  0  0  0  0  0
   37.3780   25.5680   39.4180 H   0  0  0  0  0  0  0  0  0  0  0  0
   39.7020   30.3350   41.2540 C   0  0  0  0  0  0  0  0  0  0  0  0
   40.7700   30.6740   41.3120 H   0  0  0  0  0  0  0  0  0  0  0  0
   39.6840   29.4490   40.6290 H   0  0  0  0  0  0  0  0  0  0  0  0
   38.9260   31.4390   40.7160 C   0  0  0  0  0  0  0  0  0  0  0  0
   37.8210   31.2530   39.9130 C   0  0  0  0  0  0  0  0  0  0  0  0
   37.1270   32.3570   39.4360 C   0  0  0  0  0  0  0  0  0  0  0  0
   37.5760   33.5800   39.7860 N   0  0  0  0  0  0  0  0  0  0  0  0
   38.6620   33.7520   40.5730 C   0  0  0  0  0  0  0  0  0  0  0  0
   39.2990   32.6770   41.0110 N   0  0  0  0  0  0  0  0  0  0  0  0
   37.4890   30.2600   39.6530 H   0  0  0  0  0  0  0  0  0  0  0  0
   36.2590   32.2410   38.8060 H   0  0  0  0  0  0  0  0  0  0  0  0
   38.9960   34.7650   40.8360 H   0  0  0  0  0  0  0  0  0  0  0  0
  1  4  1  0  0  0  0
  1  3  1  0  0  0  0
  1  2  1  0  0  0  0
  4  5  2  0  0  0  0
  5  9  1  0  0  0  0
  6  5  1  0  0  0  0
  6 10  1  0  0  0  0
  7  6  2  0  0  0  0
  8  7  1  0  0  0  0
  8  4  1  0  0  0  0
 11  7  1  0  0  0  0
 12 11  2  0  0  0  0
 13 12  1  0  0  0  0
 14 13  1  0  0  0  0
 15 16  1  0  0  0  0
 15  1  1  0  0  0  0
 17 15  1  0  0  0  0
 18 23  1  0  0  0  0
 18 15  1  0  0  0  0
 19 18  2  0  0  0  0
 20 21  2  0  0  0  0
 20 19  1  0  0  0  0
 21 22  1  0  0  0  0
 22 26  1  0  0  0  0
 22 23  2  0  0  0  0
 24 19  1  0  0  0  0
 25 20  1  0  0  0  0
M  END
>  <minimizedAffinity>
-4.64658403

$$$$

 OpenBabel03242518143D

 26 27  0  0  0  0  0  0  0  0999 V2000
   37.3560   30.4980   41.4100 C   0  0  0  0  0  0  0  0  0  0  0  0
   38.2670   30.5620   40.7690 H   0  0  0  0  0  0  0  0  0  0  0  0
   37.5540   31.2780   42.2020 H   0  0  0  0  0  0  0  0  0  0  0  0
   37.3480   29.2160   42.0410 C   0  0  0  0  0  0  0  0  0  0  0  0
   37.5820   28.6970   43.3500 C   0  0  0  0  0  0  0  0  0  0  0  0
   37.4740   27.3510   43.5720 C   0  0  0  0  0  0  0  0  0  0  0  0
   37.1230   26.5130   42.4440 C   0  0  0  0  0  0  0  0  0  0  0  0
   36.9450   27.6600   41.0560 S   0  0  0  0  0  0  0  0  0  0  0  0
   37.8250   29.4930   44.0240 H   0  0  0  0  0  0  0  0  0  0  0  0
   37.6550   27.0160   44.5550 H   0  0  0  0  0  0  0  0  0  0  0  0
   36.9450   25.1570   42.3560 C   0  0  0  0  0  3  0  0  0  0  0  0
   37.7420   24.1520   42.0400 C   0  0  0  0  0  3  0  0  0  0  0  0
   39.1780   24.2650   41.6600 C   0  0  0  0  0  2  0  0  0  0  0  0
   39.7490   24.7310   42.4660 H   0  0  0  0  0  0  0  0  0  0  0  0
   36.1910   30.8330   40.5500 C   0  0  0  0  0  0  0  0  0  0  0  0
   35.4050   30.0450   40.6930 H   0  0  0  0  0  0  0  0  0  0  0  0
   35.7550   31.7760   40.8590 H   0  0  0  0  0  0  0  0  0  0  0  0
   36.5800   30.8050   39.1500 C   0  0  0  0  0  0  0  0  0  0  0  0
   37.4710   31.7060   38.6060 C   0  0  0  0  0  0  0  0  0  0  0  0
   37.7980   31.6180   37.2600 C   0  0  0  0  0  0  0  0  0  0  0  0
   37.2170   30.6400   36.5360 N   0  0  0  0  0  0  0  0  0  0  0  0
   36.3430   29.7620   37.0780 C   0  0  0  0  0  0  0  0  0  0  0  0
   36.0550   29.8740   38.3650 N   0  0  0  0  0  0  0  0  0  0  0  0
   37.9190   32.4760   39.2160 H   0  0  0  0  0  0  0  0  0  0  0  0
   38.4920   32.3090   36.8070 H   0  0  0  0  0  0  0  0  0  0  0  0
   35.8900   28.9780   36.4550 H   0  0  0  0  0  0  0  0  0  0  0  0
  1  4  1  0  0  0  0
  1  3  1  0  0  0  0
  2  1  1  0  0  0  0
  4  5  2  0  0  0  0
  5  6  1  0  0  0  0
  5  9  1  0  0  0  0
  6 10  1  0  0  0  0
  7  6  2  0  0  0  0
  8  4  1  0  0  0  0
  8  7  1  0  0  0  0
 11  7  1  0  0  0  0
 12 11  2  0  0  0  0
 13 12  1  0  0  0  0
 13 14  1  0  0  0  0
 15 16  1  0  0  0  0
 15 17  1  0  0  0  0
 15  1  1  0  0  0  0
 18 15  1  0  0  0  0
 19 18  1  0  0  0  0
 19 24  1  0  0  0  0
 20 19  2  0  0  0  0
 21 22  2  0  0  0  0
 21 20  1  0  0  0  0
 22 23  1  0  0  0  0
 23 18  2  0  0  0  0
 25 20  1  0  0  0  0
 26 22  1  0  0  0  0
M  END
>  <minimizedAffinity>
-4.57590866

$$$$

 OpenBabel03242518143D

 26 27  0  0  0  0  0  0  0  0999 V2000
   36.1110   28.2190   40.2440 C   0  0  0  0  0  0  0  0  0  0  0  0
   35.3260   27.4390   40.0980 H   0  0  0  0  0  0  0  0  0  0  0  0
   36.7850   28.0610   39.3510 H   0  0  0  0  0  0  0  0  0  0  0  0
   36.8490   27.8890   41.4220 C   0  0  0  0  0  0  0  0  0  0  0  0
   36.6480   27.9670   42.8330 C   0  0  0  0  0  0  0  0  0  0  0  0
   37.6300   27.5320   43.6800 C   0  0  0  0  0  0  0  0  0  0  0  0
   38.8430   27.0090   43.0850 C   0  0  0  0  0  0  0  0  0  0  0  0
   38.5740   27.1390   41.3010 S   0  0  0  0  0  0  0  0  0  0  0  0
   35.6840   28.3840   43.0460 H   0  0  0  0  0  0  0  0  0  0  0  0
   37.4350   27.6090   44.7130 H   0  0  0  0  0  0  0  0  0  0  0  0
   39.9810   26.5090   43.6630 C   0  0  0  0  0  3  0  0  0  0  0  0
   41.2420   26.9010   43.6800 C   0  0  0  0  0  3  0  0  0  0  0  0
   41.7870   28.1090   43.0000 C   0  0  0  0  0  2  0  0  0  0  0  0
   41.2900   29.0090   43.3660 H   0  0  0  0  0  0  0  0  0  0  0  0
   35.4270   29.5380   40.2230 C   0  0  0  0  0  0  0  0  0  0  0  0
   34.5840   29.4900   39.4850 H   0  0  0  0  0  0  0  0  0  0  0  0
   34.9890   29.7480   41.1920 H   0  0  0  0  0  0  0  0  0  0  0  0
   36.3440   30.5680   39.7650 C   0  0  0  0  0  0  0  0  0  0  0  0
   36.7910   30.6430   38.4630 C   0  0  0  0  0  0  0  0  0  0  0  0
   37.6660   31.6570   38.0960 C   0  0  0  0  0  0  0  0  0  0  0  0
   38.0450   32.5340   39.0490 N   0  0  0  0  0  0  0  0  0  0  0  0
   37.6010   32.4510   40.3230 C   0  0  0  0  0  0  0  0  0  0  0  0
   36.7670   31.4730   40.6380 N   0  0  0  0  0  0  0  0  0  0  0  0
   36.4670   29.9240   37.7260 H   0  0  0  0  0  0  0  0  0  0  0  0
   38.0330   31.7400   37.0850 H   0  0  0  0  0  0  0  0  0  0  0  0
   37.9330   33.1850   41.0710 H   0  0  0  0  0  0  0  0  0  0  0  0
  1  4  1  0  0  0  0
  2  1  1  0  0  0  0
  3  1  1  0  0  0  0
  4  5  2  0  0  0  0
  5  9  1  0  0  0  0
  5  6  1  0  0  0  0
  6 10  1  0  0  0  0
  7 11  1  0  0  0  0
  7  6  2  0  0  0  0
  8  4  1  0  0  0  0
  8  7  1  0  0  0  0
 11 12  2  0  0  0  0
 13 14  1  0  0  0  0
 13 12  1  0  0  0  0
 15  1  1  0  0  0  0
 15 17  1  0  0  0  0
 16 15  1  0  0  0  0
 18 15  1  0  0  0  0
 18 23  1  0  0  0  0
 19 18  2  0  0  0  0
 20 19  1  0  0  0  0
 20 21  2  0  0  0  0
 21 22  1  0  0  0  0
 22 23  2  0  0  0  0
 22 26  1  0  0  0  0
 24 19  1  0  0  0  0
 25 20  1  0  0  0  0
M  END
>  <minimizedAffinity>
-4.51151228

$$$$

 OpenBabel03242518143D

 26 27  0  0  0  0  0  0  0  0999 V2000
   36.9860   31.8440   39.1920 C   0  0  0  0  0  0  0  0  0  0  0  0
   36.0840   32.3090   38.7260 H   0  0  0  0  0  0  0  0  0  0  0  0
   37.5860   31.5140   38.2950 H   0  0  0  0  0  0  0  0  0  0  0  0
   36.5660   30.6770   39.9010 C   0  0  0  0  0  0  0  0  0  0  0  0
   35.4750   29.7590   39.8440 C   0  0  0  0  0  0  0  0  0  0  0  0
   35.4200   28.7200   40.7320 C   0  0  0  0  0  0  0  0  0  0  0  0
   36.4920   28.6090   41.7000 C   0  0  0  0  0  0  0  0  0  0  0  0
   37.5870   30.0020   41.3350 S   0  0  0  0  0  0  0  0  0  0  0  0
   34.8050   30.0320   39.0550 H   0  0  0  0  0  0  0  0  0  0  0  0
   34.5950   28.0680   40.6490 H   0  0  0  0  0  0  0  0  0  0  0  0
   36.7080   27.6940   42.6970 C   0  0  0  0  0  3  0  0  0  0  0  0
   37.0300   26.4130   42.7050 C   0  0  0  0  0  3  0  0  0  0  0  0
   37.2590   25.5660   41.5010 C   0  0  0  0  0  2  0  0  0  0  0  0
   38.0690   25.9760   40.8950 H   0  0  0  0  0  0  0  0  0  0  0  0
   37.6660   32.9050   39.9810 C   0  0  0  0  0  0  0  0  0  0  0  0
   37.1240   33.8730   39.8160 H   0  0  0  0  0  0  0  0  0  0  0  0
   37.6030   32.6820   41.0400 H   0  0  0  0  0  0  0  0  0  0  0  0
   39.0270   33.0850   39.5060 C   0  0  0  0  0  0  0  0  0  0  0  0
   39.8800   34.0330   40.0290 C   0  0  0  0  0  0  0  0  0  0  0  0
   41.1690   34.1470   39.5260 C   0  0  0  0  0  0  0  0  0  0  0  0
   41.5300   33.3110   38.5310 N   0  0  0  0  0  0  0  0  0  0  0  0
   40.6860   32.3850   38.0240 C   0  0  0  0  0  0  0  0  0  0  0  0
   39.4640   32.3030   38.5280 N   0  0  0  0  0  0  0  0  0  0  0  0
   39.5580   34.6860   40.8260 H   0  0  0  0  0  0  0  0  0  0  0  0
   41.8580   34.8800   39.9160 H   0  0  0  0  0  0  0  0  0  0  0  0
   41.0180   31.7220   37.2130 H   0  0  0  0  0  0  0  0  0  0  0  0
  1  4  1  0  0  0  0
  1 15  1  0  0  0  0
  2  1  1  0  0  0  0
  3  1  1  0  0  0  0
  4  8  1  0  0  0  0
  5  4  2  0  0  0  0
  5  6  1  0  0  0  0
  6  7  2  0  0  0  0
  7 11  1  0  0  0  0
  8  7  1  0  0  0  0
  9  5  1  0  0  0  0
 10  6  1  0  0  0  0
 11 12  2  0  0  0  0
 13 12  1  0  0  0  0
 14 13  1  0  0  0  0
 15 17  1  0  0  0  0
 16 15  1  0  0  0  0
 18 15  1  0  0  0  0
 18 19  1  0  0  0  0
 19 24  1  0  0  0  0
 20 25  1  0  0  0  0
 20 19  2  0  0  0  0
 21 20  1  0  0  0  0
 22 23  1  0  0  0  0
 22 21  2  0  0  0  0
 23 18  2  0  0  0  0
 26 22  1  0  0  0  0
M  END
>  <minimizedAffinity>
-4.48291492

$$$$

 OpenBabel03242518143D

 26 27  0  0  0  0  0  0  0  0999 V2000
   35.7000   28.6810   39.8330 C   0  0  0  0  0  0  0  0  0  0  0  0
   34.9020   28.4340   39.0920 H   0  0  0  0  0  0  0  0  0  0  0  0
   35.1110   28.8590   40.7800 H   0  0  0  0  0  0  0  0  0  0  0  0
   36.3000   29.9170   39.4420 C   0  0  0  0  0  0  0  0  0  0  0  0
   36.7780   30.5070   38.2330 C   0  0  0  0  0  0  0  0  0  0  0  0
   37.3090   31.7670   38.2610 C   0  0  0  0  0  0  0  0  0  0  0  0
   37.3570   32.4450   39.5400 C   0  0  0  0  0  0  0  0  0  0  0  0
   36.6370   31.2690   40.7110 S   0  0  0  0  0  0  0  0  0  0  0  0
   36.6430   29.8300   37.4140 H   0  0  0  0  0  0  0  0  0  0  0  0
   37.6480   32.1600   37.3430 H   0  0  0  0  0  0  0  0  0  0  0  0
   37.8230   33.6890   39.8780 C   0  0  0  0  0  3  0  0  0  0  0  0
   39.0160   34.1610   40.1910 C   0  0  0  0  0  3  0  0  0  0  0  0
   40.2760   33.3680   40.2600 C   0  0  0  0  0  2  0  0  0  0  0  0
   40.4870   32.9050   39.2950 H   0  0  0  0  0  0  0  0  0  0  0  0
   36.5930   27.4970   39.9250 C   0  0  0  0  0  0  0  0  0  0  0  0
   35.9630   26.5710   39.8700 H   0  0  0  0  0  0  0  0  0  0  0  0
   37.2700   27.4710   39.0780 H   0  0  0  0  0  0  0  0  0  0  0  0
   37.2710   27.4820   41.2100 C   0  0  0  0  0  0  0  0  0  0  0  0
   36.6270   27.7610   42.3970 C   0  0  0  0  0  0  0  0  0  0  0  0
   37.3390   27.7270   43.5880 C   0  0  0  0  0  0  0  0  0  0  0  0
   38.6510   27.4190   43.5250 N   0  0  0  0  0  0  0  0  0  0  0  0
   39.2750   27.1500   42.3570 C   0  0  0  0  0  0  0  0  0  0  0  0
   38.5640   27.1900   41.2400 N   0  0  0  0  0  0  0  0  0  0  0  0
   35.5750   28.0020   42.4100 H   0  0  0  0  0  0  0  0  0  0  0  0
   36.8610   27.9400   44.5310 H   0  0  0  0  0  0  0  0  0  0  0  0
   40.3460   26.9030   42.3470 H   0  0  0  0  0  0  0  0  0  0  0  0
  1 15  1  0  0  0  0
  1  3  1  0  0  0  0
  2  1  1  0  0  0  0
  4  1  1  0  0  0  0
  4  8  1  0  0  0  0
  5  6  1  0  0  0  0
  5  4  2  0  0  0  0
  6  7  2  0  0  0  0
  7 11  1  0  0  0  0
  7  8  1  0  0  0  0
  9  5  1  0  0  0  0
 10  6  1  0  0  0  0
 11 12  2  0  0  0  0
 12 13  1  0  0  0  0
 14 13  1  0  0  0  0
 15 18  1  0  0  0  0
 16 15  1  0  0  0  0
 17 15  1  0  0  0  0
 18 23  2  0  0  0  0
 18 19  1  0  0  0  0
 19 24  1  0  0  0  0
 19 20  2  0  0  0  0
 20 25  1  0  0  0  0
 21 20  1  0  0  0  0
 22 21  2  0  0  0  0
 23 22  1  0  0  0  0
 26 22  1  0  0  0  0
M  END
>  <minimizedAffinity>
-4.48101234

$$$$

 OpenBabel03242518143D

 26 27  0  0  0  0  0  0  0  0999 V2000
   37.4020   27.7870   42.7070 C   0  0  0  0  0  0  0  0  0  0  0  0
   37.2760   28.3770   43.6470 H   0  0  0  0  0  0  0  0  0  0  0  0
   38.5240   27.7090   42.6110 H   0  0  0  0  0  0  0  0  0  0  0  0
   36.9150   28.5770   41.6210 C   0  0  0  0  0  0  0  0  0  0  0  0
   35.6630   28.7980   40.9720 C   0  0  0  0  0  0  0  0  0  0  0  0
   35.5930   29.6690   39.9200 C   0  0  0  0  0  0  0  0  0  0  0  0
   36.8170   30.3290   39.5150 C   0  0  0  0  0  0  0  0  0  0  0  0
   38.0770   29.6990   40.6490 S   0  0  0  0  0  0  0  0  0  0  0  0
   34.8990   28.2090   41.4350 H   0  0  0  0  0  0  0  0  0  0  0  0
   34.6470   29.8000   39.4730 H   0  0  0  0  0  0  0  0  0  0  0  0
   37.0580   31.2360   38.5150 C   0  0  0  0  0  3  0  0  0  0  0  0
   37.3440   32.5250   38.5030 C   0  0  0  0  0  3  0  0  0  0  0  0
   37.4870   33.3960   39.7030 C   0  0  0  0  0  2  0  0  0  0  0  0
   38.2760   33.0190   40.3560 H   0  0  0  0  0  0  0  0  0  0  0  0
   36.7500   26.4690   42.9280 C   0  0  0  0  0  0  0  0  0  0  0  0
   36.8480   26.2020   44.0120 H   0  0  0  0  0  0  0  0  0  0  0  0
   35.6900   26.5340   42.7110 H   0  0  0  0  0  0  0  0  0  0  0  0
   37.4360   25.4400   42.1650 C   0  0  0  0  0  0  0  0  0  0  0  0
   36.7740   24.3880   41.5690 C   0  0  0  0  0  0  0  0  0  0  0  0
   37.4950   23.4410   40.8540 C   0  0  0  0  0  0  0  0  0  0  0  0
   38.8320   23.5980   40.7770 N   0  0  0  0  0  0  0  0  0  0  0  0
   39.4730   24.6330   41.3660 C   0  0  0  0  0  0  0  0  0  0  0  0
   38.7540   25.5180   42.0390 N   0  0  0  0  0  0  0  0  0  0  0  0
   35.7010   24.2930   41.6500 H   0  0  0  0  0  0  0  0  0  0  0  0
   37.0030   22.6070   40.3770 H   0  0  0  0  0  0  0  0  0  0  0  0
   40.5640   24.7260   41.2800 H   0  0  0  0  0  0  0  0  0  0  0  0
  1 15  1  0  0  0  0
  1  2  1  0  0  0  0
  3  1  1  0  0  0  0
  4  1  1  0  0  0  0
  5  9  1  0  0  0  0
  5  4  2  0  0  0  0
  6  5  1  0  0  0  0
  7  6  2  0  0  0  0
  7  8  1  0  0  0  0
  8  4  1  0  0  0  0
 10  6  1  0  0  0  0
 11  7  1  0  0  0  0
 12 11  2  0  0  0  0
 12 13  1  0  0  0  0
 13 14  1  0  0  0  0
 15 16  1  0  0  0  0
 17 15  1  0  0  0  0
 18 15  1  0  0  0  0
 19 24  1  0  0  0  0
 19 18  2  0  0  0  0
 20 19  1  0  0  0  0
 21 20  2  0  0  0  0
 21 22  1  0  0  0  0
 22 23  2  0  0  0  0
 23 18  1  0  0  0  0
 25 20  1  0  0  0  0
 26 22  1  0  0  0  0
M  END
>  <minimizedAffinity>
-4.45080853

$$$$

 OpenBabel03242518143D

 26 27  0  0  0  0  0  0  0  0999 V2000
   37.1620   28.9750   41.9310 C   0  0  0  0  0  0  0  0  0  0  0  0
   37.3900   28.2000   41.1600 H   0  0  0  0  0  0  0  0  0  0  0  0
   36.0530   28.8400   42.0960 H   0  0  0  0  0  0  0  0  0  0  0  0
   37.3730   30.2600   41.3430 C   0  0  0  0  0  0  0  0  0  0  0  0
   36.6320   31.1670   40.5280 C   0  0  0  0  0  0  0  0  0  0  0  0
   37.1980   32.3540   40.1530 C   0  0  0  0  0  0  0  0  0  0  0  0
   38.5430   32.6290   40.6130 C   0  0  0  0  0  0  0  0  0  0  0  0
   39.0010   31.1770   41.5900 S   0  0  0  0  0  0  0  0  0  0  0  0
   35.6650   30.7600   40.3090 H   0  0  0  0  0  0  0  0  0  0  0  0
   36.6110   32.9910   39.5510 H   0  0  0  0  0  0  0  0  0  0  0  0
   39.3580   33.7120   40.4060 C   0  0  0  0  0  3  0  0  0  0  0  0
   40.3730   33.9460   39.5930 C   0  0  0  0  0  3  0  0  0  0  0  0
   40.9360   32.9850   38.6030 C   0  0  0  0  0  2  0  0  0  0  0  0
   40.1680   32.6830   37.8880 H   0  0  0  0  0  0  0  0  0  0  0  0
   37.9680   28.6440   43.1360 C   0  0  0  0  0  0  0  0  0  0  0  0
   38.8650   29.3170   43.1590 H   0  0  0  0  0  0  0  0  0  0  0  0
   37.3970   28.8450   44.0350 H   0  0  0  0  0  0  0  0  0  0  0  0
   38.4540   27.2770   43.0510 C   0  0  0  0  0  0  0  0  0  0  0  0
   39.6060   26.8550   43.6800 C   0  0  0  0  0  0  0  0  0  0  0  0
   40.0100   25.5330   43.5550 C   0  0  0  0  0  0  0  0  0  0  0  0
   39.2420   24.7100   42.8100 N   0  0  0  0  0  0  0  0  0  0  0  0
   38.1150   25.1340   42.1960 C   0  0  0  0  0  0  0  0  0  0  0  0
   37.7590   26.4020   42.3370 N   0  0  0  0  0  0  0  0  0  0  0  0
   40.1960   27.5410   44.2690 H   0  0  0  0  0  0  0  0  0  0  0  0
   40.9060   25.1740   44.0360 H   0  0  0  0  0  0  0  0  0  0  0  0
   37.5160   24.4330   41.5980 H   0  0  0  0  0  0  0  0  0  0  0  0
  1  3  1  0  0  0  0
  1 15  1  0  0  0  0
  2  1  1  0  0  0  0
  4  8  1  0  0  0  0
  4  1  1  0  0  0  0
  5  4  2  0  0  0  0
  6  5  1  0  0  0  0
  6  7  2  0  0  0  0
  7  8  1  0  0  0  0
  9  5  1  0  0  0  0
 10  6  1  0  0  0  0
 11  7  1  0  0  0  0
 12 11  2  0  0  0  0
 13 12  1  0  0  0  0
 14 13  1  0  0  0  0
 15 16  1  0  0  0  0
 15 17  1  0  0  0  0
 18 15  1  0  0  0  0
 18 19  1  0  0  0  0
 19 24  1  0  0  0  0
 20 19  2  0  0  0  0
 20 25  1  0  0  0  0
 21 20  1  0  0  0  0
 22 23  1  0  0  0  0
 22 21  2  0  0  0  0
 23 18  2  0  0  0  0
 26 22  1  0  0  0  0
M  END
>  <minimizedAffinity>
-4.44104099

$$$$
