
 OpenBabel03242511423D

 29 30  0  0  0  0  0  0  0  0999 V2000
   46.8250   32.7260   46.1000 C   0  0  0  0  0  0  0  0  0  0  0  0
   46.9720   33.7530   46.4520 H   0  0  0  0  0  0  0  0  0  0  0  0
   47.8440   32.2760   45.9100 H   0  0  0  0  0  0  0  0  0  0  0  0
   46.2360   31.9330   47.1750 C   0  0  0  0  0  0  0  0  0  0  0  0
   45.3900   32.3250   48.2020 C   0  0  0  0  0  0  0  0  0  0  0  0
   44.8490   31.4830   49.1390 C   0  0  0  0  0  0  0  0  0  0  0  0
   45.1700   30.1580   49.0480 C   0  0  0  0  0  0  0  0  0  0  0  0
   46.0170   29.7390   48.0300 C   0  0  0  0  0  0  0  0  0  0  0  0
   46.5530   30.6240   47.0950 C   0  0  0  0  0  0  0  0  0  0  0  0
   45.2030   33.3970   48.1740 H   0  0  0  0  0  0  0  0  0  0  0  0
   44.2210   32.0000   49.8480 H   0  0  0  0  0  0  0  0  0  0  0  0
   44.6730   29.5930   49.8510 H   0  0  0  0  0  0  0  0  0  0  0  0
   46.0980   28.6610   48.1960 H   0  0  0  0  0  0  0  0  0  0  0  0
   47.4710   29.7810   46.3440 C   0  0  0  0  0  3  0  0  0  0  0  0
   48.7470   29.4880   46.4730 C   0  0  0  0  0  3  0  0  0  0  0  0
   49.6420   28.6440   45.7100 C   0  0  0  0  0  2  0  0  0  0  0  0
   49.0560   28.1840   44.8660 H   0  0  0  0  0  0  0  0  0  0  0  0
   46.0830   32.6110   44.8110 C   0  0  0  0  0  0  0  0  0  0  0  0
   45.0970   32.1460   44.9930 H   0  0  0  0  0  0  0  0  0  0  0  0
   46.6850   32.2010   43.9820 H   0  0  0  0  0  0  0  0  0  0  0  0
   44.5600   35.9820   44.7810 C   0  0  0  0  0  0  0  0  0  0  0  0
   44.9660   36.4780   43.5170 C   0  0  0  0  0  0  0  0  0  0  0  0
   45.7500   35.6440   42.7440 C   0  0  0  0  0  0  0  0  0  0  0  0
   46.0820   34.4370   43.2090 N   0  0  0  0  0  0  0  0  0  0  0  0
   45.6640   34.0100   44.4310 C   0  0  0  0  0  0  0  0  0  0  0  0
   44.9180   34.7610   45.2080 N   0  0  0  0  0  0  0  0  0  0  0  0
   43.9370   36.6790   45.3630 H   0  0  0  0  0  0  0  0  0  0  0  0
   44.6710   37.4710   43.1780 H   0  0  0  0  0  0  0  0  0  0  0  0
   46.0980   35.9580   41.7660 H   0  0  0  0  0  0  0  0  0  0  0  0
  1  2  1  0  0  0  0
  1  4  1  0  0  0  0
  3  1  1  0  0  0  0
  4  5  1  0  0  0  0
  5  6  2  0  0  0  0
  6 11  1  0  0  0  0
  7  6  1  0  0  0  0
  7 12  1  0  0  0  0
  8 13  1  0  0  0  0
  8  7  2  0  0  0  0
  9  4  2  0  0  0  0
  9  8  1  0  0  0  0
 10  5  1  0  0  0  0
 14 15  2  0  0  0  0
 14  9  1  0  0  0  0
 16 15  1  0  0  0  0
 17 16  1  0  0  0  0
 18 19  1  0  0  0  0
 18  1  1  0  0  0  0
 20 18  1  0  0  0  0
 21 26  1  0  0  0  0
 21 27  1  0  0  0  0
 22 21  2  0  0  0  0
 23 24  2  0  0  0  0
 23 22  1  0  0  0  0
 24 25  1  0  0  0  0
 25 18  1  0  0  0  0
 25 26  2  0  0  0  0
 28 22  1  0  0  0  0
 29 23  1  0  0  0  0
M  END
>  <minimizedAffinity>
-4.66368914

>  <minimizedRMSD>
1.00910854

$$$$
