
 OpenBabel03252507533D

 33 35  0  0  1  0  0  0  0  0999 V2000
   43.9620   34.9170   40.5450 C   0  0  2  0  0  0  0  0  0  0  0  0
   44.5850   33.7220   39.8870 C   0  0  0  0  0  0  0  0  0  0  0  0
   46.0140   33.8800   40.4490 C   0  0  0  0  0  0  0  0  0  0  0  0
   45.8260   34.4140   41.8480 C   0  0  1  0  0  0  0  0  0  0  0  0
   44.3510   34.6150   42.0040 C   0  0  0  0  0  0  0  0  0  0  0  0
   44.4340   35.8080   40.1390 H   0  0  0  0  0  0  0  0  0  0  0  0
   44.5790   33.7940   38.7830 H   0  0  0  0  0  0  0  0  0  0  0  0
   44.0940   32.8230   40.2920 H   0  0  0  0  0  0  0  0  0  0  0  0
   46.4470   32.8650   40.4410 H   0  0  0  0  0  0  0  0  0  0  0  0
   46.5580   34.5710   39.7930 H   0  0  0  0  0  0  0  0  0  0  0  0
   46.3280   35.3760   41.9060 H   0  0  0  0  0  0  0  0  0  0  0  0
   43.7480   33.7070   42.1120 H   0  0  0  0  0  0  0  0  0  0  0  0
   44.0810   35.4640   42.6500 H   0  0  0  0  0  0  0  0  0  0  0  0
   40.4690   35.2720   39.1610 C   0  0  0  0  0  0  0  0  0  0  0  0
   41.8800   35.2290   39.1700 C   0  0  0  0  0  0  0  0  0  0  0  0
   42.4870   34.9670   40.4170 C   0  0  0  0  0  0  0  0  0  0  0  0
   41.7080   34.7680   41.5480 N   0  0  0  0  0  0  0  0  0  0  0  0
   40.3570   34.8250   41.4550 C   0  0  0  0  0  0  0  0  0  0  0  0
   39.7470   35.0730   40.2820 N   0  0  0  0  0  0  0  0  0  0  0  0
   40.0790   35.4790   38.1630 H   0  0  0  0  0  0  0  0  0  0  0  0
   42.5010   35.3800   38.3160 H   0  0  0  0  0  0  0  0  0  0  0  0
   39.7400   34.6720   42.3270 H   0  0  0  0  0  0  0  0  0  0  0  0
   46.2270   33.4750   42.9310 C   0  0  2  0  0  0  0  0  0  0  0  0
   46.5410   34.0240   44.2570 C   0  0  0  0  0  0  0  0  0  0  0  0
   47.5440   33.2210   43.4090 C   0  0  2  0  0  0  0  0  0  0  0  0
   45.4950   32.6050   42.9460 H   0  0  0  0  0  0  0  0  0  0  0  0
   47.0130   34.9070   44.6010 H   0  0  0  0  0  0  0  0  0  0  0  0
   46.1610   33.4290   45.1450 H   0  0  0  0  0  0  0  0  0  0  0  0
   47.7360   32.1630   43.8240 H   0  0  0  0  0  0  0  0  0  0  0  0
   48.8190   33.8170   42.9840 C   0  0  0  0  0  0  0  0  0  0  0  0
   49.4110   34.8090   42.2790 C   0  0  0  0  0  0  0  0  0  0  0  0
   49.0400   35.9660   41.4550 C   0  0  0  0  0  0  0  0  0  0  0  0
   49.3890   36.8930   41.9380 H   0  0  0  0  0  0  0  0  0  0  0  0
  1  6  1  6  0  0  0
  1  5  1  0  0  0  0
  2  8  1  0  0  0  0
  2  3  1  0  0  0  0
  2  1  1  0  0  0  0
  3  4  1  0  0  0  0
  4 11  1  1  0  0  0
  4  5  1  0  0  0  0
  4 23  1  0  0  0  0
  5 12  1  0  0  0  0
  5 13  1  0  0  0  0
  7  2  1  0  0  0  0
  9  3  1  0  0  0  0
 10  3  1  0  0  0  0
 14 15  2  0  0  0  0
 14 19  1  0  0  0  0
 15 16  1  0  0  0  0
 16  1  1  0  0  0  0
 16 17  2  0  0  0  0
 18 17  1  0  0  0  0
 18 22  1  0  0  0  0
 19 18  2  0  0  0  0
 20 14  1  0  0  0  0
 21 15  1  0  0  0  0
 23 26  1  1  0  0  0
 23 25  1  0  0  0  0
 23 24  1  0  0  0  0
 24 27  1  0  0  0  0
 24 28  1  0  0  0  0
 25 29  1  1  0  0  0
 25 24  1  0  0  0  0
 30 25  1  0  0  0  0
 31 30  2  0  0  0  0
 32 33  1  0  0  0  0
 32 31  1  0  0  0  0
M  END
>  <minimizedAffinity>
-5.11803818

>  <minimizedRMSD>
4.4946909

$$$$
