
 OpenBabel03242517073D

 29 30  0  0  1  0  0  0  0  0999 V2000
   47.2460   34.3010   43.2040 C   0  0  2  0  0  0  0  0  0  0  0  0
   46.3700   34.1120   42.0260 C   0  0  2  0  0  0  0  0  0  0  0  0
   47.1130   33.8450   40.7580 C   0  0  0  0  0  0  0  0  0  0  0  0
   48.1720   34.8890   40.4570 C   0  0  0  0  0  0  0  0  0  0  0  0
   48.8990   35.3880   41.6770 C   0  0  0  0  0  0  0  0  0  0  0  0
   48.7200   34.4440   42.8420 C   0  0  0  0  0  0  0  0  0  0  0  0
   47.0130   35.2530   43.7670 H   0  0  0  0  0  0  0  0  0  0  0  0
   45.7200   33.2310   42.2050 H   0  0  0  0  0  0  0  0  0  0  0  0
   46.3550   33.9940   39.9300 H   0  0  0  0  0  0  0  0  0  0  0  0
   47.4980   32.8430   40.6070 H   0  0  0  0  0  0  0  0  0  0  0  0
   47.7610   35.7540   39.8820 H   0  0  0  0  0  0  0  0  0  0  0  0
   48.9310   34.3920   39.8130 H   0  0  0  0  0  0  0  0  0  0  0  0
   49.9940   35.4730   41.5130 H   0  0  0  0  0  0  0  0  0  0  0  0
   48.4990   36.3720   42.0060 H   0  0  0  0  0  0  0  0  0  0  0  0
   49.1450   33.4650   42.5420 H   0  0  0  0  0  0  0  0  0  0  0  0
   49.2710   34.8180   43.7090 H   0  0  0  0  0  0  0  0  0  0  0  0
   47.1400   33.2030   44.1800 C   0  0  0  0  0  0  0  0  0  0  0  0
   47.7000   31.9720   43.7860 C   0  0  0  0  0  0  0  0  0  0  0  0
   47.6500   30.8760   44.6450 C   0  0  0  0  0  0  0  0  0  0  0  0
   47.0350   31.0790   45.8580 N   0  0  0  0  0  0  0  0  0  0  0  0
   46.5040   32.2740   46.2110 C   0  0  0  0  0  0  0  0  0  0  0  0
   46.5570   33.3350   45.3710 N   0  0  0  0  0  0  0  0  0  0  0  0
   48.1970   31.7300   42.8590 H   0  0  0  0  0  0  0  0  0  0  0  0
   48.0470   29.9100   44.4310 H   0  0  0  0  0  0  0  0  0  0  0  0
   46.0330   32.3730   47.1790 H   0  0  0  0  0  0  0  0  0  0  0  0
   45.4670   35.2950   41.8430 C   0  0  0  0  0  0  0  0  0  0  0  0
   44.1570   35.2850   41.6440 C   0  0  0  0  0  0  0  0  0  0  0  0
   43.4690   33.9860   41.5920 C   0  0  0  0  0  0  0  0  0  0  0  0
   43.2930   33.6150   42.6320 H   0  0  0  0  0  0  0  0  0  0  0  0
  1  7  1  1  0  0  0
  1 17  1  0  0  0  0
  2  8  1  1  0  0  0
  2  1  1  0  0  0  0
  3  2  1  0  0  0  0
  4  3  1  0  0  0  0
  4  5  1  0  0  0  0
  5 14  1  0  0  0  0
  5  6  1  0  0  0  0
  6  1  1  0  0  0  0
  6 16  1  0  0  0  0
  9  3  1  0  0  0  0
 10  3  1  0  0  0  0
 11  4  1  0  0  0  0
 12  4  1  0  0  0  0
 13  5  1  0  0  0  0
 15  6  1  0  0  0  0
 17 22  1  0  0  0  0
 18 17  2  0  0  0  0
 18 19  1  0  0  0  0
 19 20  2  0  0  0  0
 20 21  1  0  0  0  0
 21 25  1  0  0  0  0
 22 21  2  0  0  0  0
 23 18  1  0  0  0  0
 24 19  1  0  0  0  0
 26  2  1  0  0  0  0
 27 26  2  0  0  0  0
 28 27  1  0  0  0  0
 28 29  1  0  0  0  0
M  END
>  <minimizedAffinity>
-4.47392559

>  <minimizedRMSD>
3.29879928

$$$$
