
 OpenBabel03252504003D

 29 31  0  0  0  0  0  0  0  0999 V2000
   46.0700   31.7580   45.1520 C   0  0  0  0  0  0  0  0  0  0  0  0
   45.7580   33.0420   45.5770 C   0  0  0  0  0  0  0  0  0  0  0  0
   45.4500   33.2930   46.9100 C   0  0  0  0  0  0  0  0  0  0  0  0
   45.4670   32.2260   47.7870 C   0  0  0  0  0  0  0  0  0  0  0  0
   45.2220   32.1410   49.1070 N   0  0  0  0  0  0  0  0  0  0  0  0
   45.3600   30.8790   49.5430 C   0  0  0  0  0  0  0  0  0  0  0  0
   45.7130   30.0870   48.4660 C   0  0  0  0  0  0  0  0  0  0  0  0
   45.7790   30.9260   47.3730 C   0  0  0  0  0  0  0  0  0  0  0  0
   46.0770   30.7140   46.0520 C   0  0  0  0  0  0  0  0  0  0  0  0
   46.3140   31.5250   44.1200 H   0  0  0  0  0  0  0  0  0  0  0  0
   45.2090   34.2960   47.2340 H   0  0  0  0  0  0  0  0  0  0  0  0
   44.9580   32.9060   49.7560 H   0  0  0  0  0  0  0  0  0  0  0  0
   45.2560   30.4010   50.5030 H   0  0  0  0  0  0  0  0  0  0  0  0
   45.9140   29.0370   48.3920 H   0  0  0  0  0  0  0  0  0  0  0  0
   46.3190   29.7110   45.7280 H   0  0  0  0  0  0  0  0  0  0  0  0
   46.7400   35.0440   42.6790 C   0  0  0  0  0  0  0  0  0  0  0  0
   45.8190   36.0950   42.6710 C   0  0  0  0  0  0  0  0  0  0  0  0
   44.8560   36.1090   43.6720 C   0  0  0  0  0  0  0  0  0  0  0  0
   44.8550   35.1150   44.6000 N   0  0  0  0  0  0  0  0  0  0  0  0
   45.7660   34.1120   44.5720 C   0  0  0  0  0  0  0  0  0  0  0  0
   46.7100   34.0730   43.6140 N   0  0  0  0  0  0  0  0  0  0  0  0
   45.8590   36.8670   41.9100 H   0  0  0  0  0  0  0  0  0  0  0  0
   44.1340   36.9150   43.6830 H   0  0  0  0  0  0  0  0  0  0  0  0
   47.7250   35.0650   41.6220 C   0  0  0  0  0  0  0  0  0  0  0  0
   48.7440   35.8210   41.5960 O   0  0  0  0  0  0  0  0  0  0  0  0
   47.5860   34.1690   40.4750 C   0  0  0  0  0  3  0  0  0  0  0  0
   46.3890   33.7690   40.0950 C   0  0  0  0  0  3  0  0  0  0  0  0
   46.1500   32.8640   38.9470 C   0  0  0  0  0  2  0  0  0  0  0  0
   47.1270   32.4660   38.6120 H   0  0  0  0  0  0  0  0  0  0  0  0
  1  2  2  0  0  0  0
  1  9  1  0  0  0  0
  2  3  1  0  0  0  0
  3 11  1  0  0  0  0
  3  4  2  0  0  0  0
  4  5  1  0  0  0  0
  5  6  1  0  0  0  0
  5 12  1  0  0  0  0
  6 13  1  0  0  0  0
  7  6  2  0  0  0  0
  8  4  1  0  0  0  0
  8  7  1  0  0  0  0
  9  8  2  0  0  0  0
 10  1  1  0  0  0  0
 14  7  1  0  0  0  0
 15  9  1  0  0  0  0
 16 21  1  0  0  0  0
 17 16  2  0  0  0  0
 17 18  1  0  0  0  0
 18 23  1  0  0  0  0
 18 19  2  0  0  0  0
 20 19  1  0  0  0  0
 20  2  1  0  0  0  0
 21 20  2  0  0  0  0
 22 17  1  0  0  0  0
 24 16  1  0  0  0  0
 25 24  2  0  0  0  0
 26 24  1  0  0  0  0
 27 26  2  0  0  0  0
 28 27  1  0  0  0  0
 29 28  1  0  0  0  0
M  END
>  <minimizedAffinity>
-5.63429451

>  <minimizedRMSD>
0.425177723

$$$$
