
 OpenBabel03252508203D

 29 30  0  0  0  0  0  0  0  0999 V2000
   44.9150   33.3430   40.9370 C   0  0  0  0  0  0  0  0  0  0  0  0
   44.3990   33.8530   41.8030 H   0  0  0  0  0  0  0  0  0  0  0  0
   44.9290   32.2790   41.1850 H   0  0  0  0  0  0  0  0  0  0  0  0
   46.2240   33.9990   40.8330 C   0  0  0  0  0  0  0  0  0  0  0  0
   47.0310   33.9520   39.7270 C   0  0  0  0  0  0  0  0  0  0  0  0
   48.2730   34.5580   39.5870 C   0  0  0  0  0  0  0  0  0  0  0  0
   48.6930   35.2720   40.7150 C   0  0  0  0  0  0  0  0  0  0  0  0
   47.9030   35.3380   41.8460 C   0  0  0  0  0  0  0  0  0  0  0  0
   46.6880   34.7210   41.9260 C   0  0  0  0  0  0  0  0  0  0  0  0
   46.6910   33.3950   38.8620 H   0  0  0  0  0  0  0  0  0  0  0  0
   48.8720   34.5020   38.7150 H   0  0  0  0  0  0  0  0  0  0  0  0
   49.6650   35.7620   40.6450 H   0  0  0  0  0  0  0  0  0  0  0  0
   48.3460   35.9230   42.6480 H   0  0  0  0  0  0  0  0  0  0  0  0
   45.8960   34.8250   43.1460 C   0  0  0  0  0  3  0  0  0  0  0  0
   45.2470   35.9070   43.5400 C   0  0  0  0  0  3  0  0  0  0  0  0
   44.4540   35.9580   44.7940 C   0  0  0  0  0  2  0  0  0  0  0  0
   44.9910   36.5770   45.5500 H   0  0  0  0  0  0  0  0  0  0  0  0
   44.0340   33.6610   39.7320 C   0  0  0  0  0  0  0  0  0  0  0  0
   44.5040   34.5530   39.2640 H   0  0  0  0  0  0  0  0  0  0  0  0
   43.9790   32.8070   39.0540 H   0  0  0  0  0  0  0  0  0  0  0  0
   41.3340   35.6060   41.5020 C   0  0  0  0  0  0  0  0  0  0  0  0
   42.6180   35.2260   41.0370 C   0  0  0  0  0  0  0  0  0  0  0  0
   42.7140   34.0820   40.2300 C   0  0  0  0  0  0  0  0  0  0  0  0
   41.5460   33.4050   39.9470 N   0  0  0  0  0  0  0  0  0  0  0  0
   40.3680   33.8090   40.4120 C   0  0  0  0  0  0  0  0  0  0  0  0
   40.2390   34.9060   41.1900 N   0  0  0  0  0  0  0  0  0  0  0  0
   41.3300   36.5000   42.1210 H   0  0  0  0  0  0  0  0  0  0  0  0
   43.4890   35.8230   41.3130 H   0  0  0  0  0  0  0  0  0  0  0  0
   39.5210   33.1970   40.1220 H   0  0  0  0  0  0  0  0  0  0  0  0
  1  3  1  0  0  0  0
  1  2  1  0  0  0  0
  4  1  1  0  0  0  0
  4  9  1  0  0  0  0
  5  4  2  0  0  0  0
  6  5  1  0  0  0  0
  6  7  2  0  0  0  0
  7  8  1  0  0  0  0
  8  9  2  0  0  0  0
  8 13  1  0  0  0  0
  9 14  1  0  0  0  0
 10  5  1  0  0  0  0
 11  6  1  0  0  0  0
 12  7  1  0  0  0  0
 14 15  2  0  0  0  0
 15 16  1  0  0  0  0
 16 17  1  0  0  0  0
 18 23  1  0  0  0  0
 18  1  1  0  0  0  0
 19 18  1  0  0  0  0
 20 18  1  0  0  0  0
 21 27  1  0  0  0  0
 22 28  1  0  0  0  0
 22 21  2  0  0  0  0
 23 22  1  0  0  0  0
 24 23  2  0  0  0  0
 24 25  1  0  0  0  0
 25 26  2  0  0  0  0
 26 21  1  0  0  0  0
 29 25  1  0  0  0  0
M  END
>  <minimizedAffinity>
-5.09542561

>  <minimizedRMSD>
0.993929803

$$$$
