
 OpenBabel03252504013D

 29 31  0  0  0  0  0  0  0  0999 V2000
   36.3750   26.8710   39.6600 C   0  0  0  0  0  0  0  0  0  0  0  0
   35.7840   28.1210   39.5410 C   0  0  0  0  0  0  0  0  0  0  0  0
   35.8820   29.0520   40.5700 C   0  0  0  0  0  0  0  0  0  0  0  0
   36.5830   28.6890   41.7030 C   0  0  0  0  0  0  0  0  0  0  0  0
   36.8520   29.3470   42.8440 N   0  0  0  0  0  0  0  0  0  0  0  0
   37.5790   28.5870   43.6800 C   0  0  0  0  0  0  0  0  0  0  0  0
   37.8040   27.3680   43.0680 C   0  0  0  0  0  0  0  0  0  0  0  0
   37.1840   27.4320   41.8370 C   0  0  0  0  0  0  0  0  0  0  0  0
   37.0680   26.5380   40.8050 C   0  0  0  0  0  0  0  0  0  0  0  0
   36.3190   26.1180   38.8790 H   0  0  0  0  0  0  0  0  0  0  0  0
   35.4200   30.0240   40.4700 H   0  0  0  0  0  0  0  0  0  0  0  0
   36.5670   30.3100   43.1070 H   0  0  0  0  0  0  0  0  0  0  0  0
   37.9900   28.7360   44.6650 H   0  0  0  0  0  0  0  0  0  0  0  0
   38.3340   26.4960   43.3950 H   0  0  0  0  0  0  0  0  0  0  0  0
   37.5310   25.5660   40.9040 H   0  0  0  0  0  0  0  0  0  0  0  0
   33.1290   29.2010   37.2710 C   0  0  0  0  0  0  0  0  0  0  0  0
   33.6660   28.9830   36.0000 C   0  0  0  0  0  0  0  0  0  0  0  0
   34.9530   28.4610   35.9300 C   0  0  0  0  0  0  0  0  0  0  0  0
   35.6170   28.1900   37.0850 N   0  0  0  0  0  0  0  0  0  0  0  0
   35.0600   28.4160   38.2990 C   0  0  0  0  0  0  0  0  0  0  0  0
   33.8160   28.9200   38.3970 N   0  0  0  0  0  0  0  0  0  0  0  0
   33.0980   29.2150   35.1060 H   0  0  0  0  0  0  0  0  0  0  0  0
   35.3870   28.2860   34.9540 H   0  0  0  0  0  0  0  0  0  0  0  0
   31.7900   29.7440   37.3010 C   0  0  0  0  0  0  0  0  0  0  0  0
   31.0240   29.7250   38.3130 O   0  0  0  0  0  0  0  0  0  0  0  0
   31.2280   30.3720   36.1070 C   0  0  0  0  0  3  0  0  0  0  0  0
   30.7230   31.5870   36.1810 C   0  0  0  0  0  3  0  0  0  0  0  0
   30.1320   32.3030   35.0260 C   0  0  0  0  0  2  0  0  0  0  0  0
   30.0370   31.5870   34.1890 H   0  0  0  0  0  0  0  0  0  0  0  0
  1  9  1  0  0  0  0
  2  1  2  0  0  0  0
  2  3  1  0  0  0  0
  3  4  2  0  0  0  0
  4  8  1  0  0  0  0
  4  5  1  0  0  0  0
  5 12  1  0  0  0  0
  5  6  1  0  0  0  0
  6 13  1  0  0  0  0
  7 14  1  0  0  0  0
  7  6  2  0  0  0  0
  8  7  1  0  0  0  0
  9 15  1  0  0  0  0
  9  8  2  0  0  0  0
 10  1  1  0  0  0  0
 11  3  1  0  0  0  0
 16 24  1  0  0  0  0
 16 21  1  0  0  0  0
 17 16  2  0  0  0  0
 18 17  1  0  0  0  0
 18 19  2  0  0  0  0
 19 20  1  0  0  0  0
 20 21  2  0  0  0  0
 20  2  1  0  0  0  0
 22 17  1  0  0  0  0
 23 18  1  0  0  0  0
 24 25  2  0  0  0  0
 26 27  2  0  0  0  0
 26 24  1  0  0  0  0
 28 27  1  0  0  0  0
 29 28  1  0  0  0  0
M  END
>  <minimizedAffinity>
-5.49156189

$$$$

 OpenBabel03252504013D

 29 31  0  0  0  0  0  0  0  0999 V2000
   36.7400   30.9680   40.5930 C   0  0  0  0  0  0  0  0  0  0  0  0
   37.7370   30.2960   41.2870 C   0  0  0  0  0  0  0  0  0  0  0  0
   38.9720   30.8940   41.5100 C   0  0  0  0  0  0  0  0  0  0  0  0
   39.1680   32.1710   41.0210 C   0  0  0  0  0  0  0  0  0  0  0  0
   40.2240   33.0020   41.0690 N   0  0  0  0  0  0  0  0  0  0  0  0
   39.9540   34.1610   40.4470 C   0  0  0  0  0  0  0  0  0  0  0  0
   38.6610   34.1000   39.9620 C   0  0  0  0  0  0  0  0  0  0  0  0
   38.1720   32.8600   40.3190 C   0  0  0  0  0  0  0  0  0  0  0  0
   36.9660   32.2410   40.1160 C   0  0  0  0  0  0  0  0  0  0  0  0
   35.7640   30.5320   40.3990 H   0  0  0  0  0  0  0  0  0  0  0  0
   39.7440   30.3650   42.0520 H   0  0  0  0  0  0  0  0  0  0  0  0
   41.1480   32.8330   41.5100 H   0  0  0  0  0  0  0  0  0  0  0  0
   40.5140   35.0650   40.2670 H   0  0  0  0  0  0  0  0  0  0  0  0
   38.0740   34.8090   39.4140 H   0  0  0  0  0  0  0  0  0  0  0  0
   36.1940   32.7710   39.5750 H   0  0  0  0  0  0  0  0  0  0  0  0
   36.9720   26.7200   41.2720 C   0  0  0  0  0  0  0  0  0  0  0  0
   36.8710   26.3940   42.6280 C   0  0  0  0  0  0  0  0  0  0  0  0
   37.0710   27.4160   43.5480 C   0  0  0  0  0  0  0  0  0  0  0  0
   37.3480   28.6670   43.0930 N   0  0  0  0  0  0  0  0  0  0  0  0
   37.4360   28.9420   41.7690 C   0  0  0  0  0  0  0  0  0  0  0  0
   37.2490   27.9720   40.8560 N   0  0  0  0  0  0  0  0  0  0  0  0
   36.6480   25.3810   42.9430 H   0  0  0  0  0  0  0  0  0  0  0  0
   36.9970   27.1830   44.6020 H   0  0  0  0  0  0  0  0  0  0  0  0
   36.7590   25.6300   40.3480 C   0  0  0  0  0  0  0  0  0  0  0  0
   36.3230   25.7610   39.1630 O   0  0  0  0  0  0  0  0  0  0  0  0
   37.0510   24.2570   40.7550 C   0  0  0  0  0  3  0  0  0  0  0  0
   37.7200   23.4620   39.9450 C   0  0  0  0  0  3  0  0  0  0  0  0
   38.0630   22.0560   40.2710 C   0  0  0  0  0  2  0  0  0  0  0  0
   37.5160   21.7730   41.1890 H   0  0  0  0  0  0  0  0  0  0  0  0
  1  2  1  0  0  0  0
  2  3  2  0  0  0  0
  2 20  1  0  0  0  0
  3 11  1  0  0  0  0
  4  5  1  0  0  0  0
  4  3  1  0  0  0  0
  5 12  1  0  0  0  0
  6  5  1  0  0  0  0
  7  8  1  0  0  0  0
  7  6  2  0  0  0  0
  8  4  2  0  0  0  0
  9  8  1  0  0  0  0
  9  1  2  0  0  0  0
 10  1  1  0  0  0  0
 13  6  1  0  0  0  0
 14  7  1  0  0  0  0
 15  9  1  0  0  0  0
 16 17  1  0  0  0  0
 17 22  1  0  0  0  0
 17 18  2  0  0  0  0
 18 23  1  0  0  0  0
 19 18  1  0  0  0  0
 20 19  2  0  0  0  0
 21 16  2  0  0  0  0
 21 20  1  0  0  0  0
 24 26  1  0  0  0  0
 24 16  1  0  0  0  0
 25 24  2  0  0  0  0
 27 28  1  0  0  0  0
 27 26  2  0  0  0  0
 28 29  1  0  0  0  0
M  END
>  <minimizedAffinity>
-5.41363192

$$$$

 OpenBabel03252504013D

 29 31  0  0  0  0  0  0  0  0999 V2000
   35.3760   29.0510   38.6840 C   0  0  0  0  0  0  0  0  0  0  0  0
   36.6670   29.5610   38.6980 C   0  0  0  0  0  0  0  0  0  0  0  0
   37.2960   29.9300   37.5140 C   0  0  0  0  0  0  0  0  0  0  0  0
   36.5960   29.7710   36.3350 C   0  0  0  0  0  0  0  0  0  0  0  0
   36.9170   30.0280   35.0550 N   0  0  0  0  0  0  0  0  0  0  0  0
   35.9060   29.7090   34.2300 C   0  0  0  0  0  0  0  0  0  0  0  0
   34.8640   29.2180   34.9950 C   0  0  0  0  0  0  0  0  0  0  0  0
   35.2940   29.2570   36.3050 C   0  0  0  0  0  0  0  0  0  0  0  0
   34.7030   28.9030   37.4910 C   0  0  0  0  0  0  0  0  0  0  0  0
   34.8540   28.7510   39.5880 H   0  0  0  0  0  0  0  0  0  0  0  0
   38.3010   30.3280   37.5330 H   0  0  0  0  0  0  0  0  0  0  0  0
   37.8060   30.4170   34.6870 H   0  0  0  0  0  0  0  0  0  0  0  0
   35.7630   29.7600   33.1630 H   0  0  0  0  0  0  0  0  0  0  0  0
   33.8920   28.8600   34.7240 H   0  0  0  0  0  0  0  0  0  0  0  0
   33.6980   28.5060   37.4720 H   0  0  0  0  0  0  0  0  0  0  0  0
   37.7200   28.8330   42.1240 C   0  0  0  0  0  0  0  0  0  0  0  0
   38.5570   29.9030   42.4510 C   0  0  0  0  0  0  0  0  0  0  0  0
   38.7570   30.8780   41.4810 C   0  0  0  0  0  0  0  0  0  0  0  0
   38.1370   30.7480   40.2780 N   0  0  0  0  0  0  0  0  0  0  0  0
   37.3320   29.6950   40.0000 C   0  0  0  0  0  0  0  0  0  0  0  0
   37.1210   28.7350   40.9200 N   0  0  0  0  0  0  0  0  0  0  0  0
   39.0300   29.9640   43.4250 H   0  0  0  0  0  0  0  0  0  0  0  0
   39.4020   31.7150   41.7160 H   0  0  0  0  0  0  0  0  0  0  0  0
   37.5380   27.8400   43.1570 C   0  0  0  0  0  0  0  0  0  0  0  0
   36.4210   27.5330   43.6780 O   0  0  0  0  0  0  0  0  0  0  0  0
   38.6890   27.1050   43.6780 C   0  0  0  0  0  3  0  0  0  0  0  0
   39.2800   26.1960   42.9280 C   0  0  0  0  0  3  0  0  0  0  0  0
   40.4520   25.4020   43.3690 C   0  0  0  0  0  2  0  0  0  0  0  0
   40.6020   25.5810   44.4500 H   0  0  0  0  0  0  0  0  0  0  0  0
  1  2  1  0  0  0  0
  1 10  1  0  0  0  0
  2 20  1  0  0  0  0
  3 11  1  0  0  0  0
  3  2  2  0  0  0  0
  4  3  1  0  0  0  0
  5  4  1  0  0  0  0
  6  7  2  0  0  0  0
  6  5  1  0  0  0  0
  7  8  1  0  0  0  0
  8  4  2  0  0  0  0
  8  9  1  0  0  0  0
  9  1  2  0  0  0  0
 12  5  1  0  0  0  0
 13  6  1  0  0  0  0
 14  7  1  0  0  0  0
 15  9  1  0  0  0  0
 16 17  1  0  0  0  0
 16 24  1  0  0  0  0
 17 22  1  0  0  0  0
 18 23  1  0  0  0  0
 18 17  2  0  0  0  0
 19 18  1  0  0  0  0
 20 19  2  0  0  0  0
 20 21  1  0  0  0  0
 21 16  2  0  0  0  0
 24 25  2  0  0  0  0
 24 26  1  0  0  0  0
 27 28  1  0  0  0  0
 27 26  2  0  0  0  0
 28 29  1  0  0  0  0
M  END
>  <minimizedAffinity>
-5.26893139

$$$$

 OpenBabel03252504013D

 29 31  0  0  0  0  0  0  0  0999 V2000
   36.4560   29.5470   37.4590 C   0  0  0  0  0  0  0  0  0  0  0  0
   35.8360   29.3420   38.6840 C   0  0  0  0  0  0  0  0  0  0  0  0
   34.5010   28.9580   38.7490 C   0  0  0  0  0  0  0  0  0  0  0  0
   33.8210   28.7890   37.5580 C   0  0  0  0  0  0  0  0  0  0  0  0
   32.5530   28.4320   37.2880 N   0  0  0  0  0  0  0  0  0  0  0  0
   32.3330   28.3990   35.9640 C   0  0  0  0  0  0  0  0  0  0  0  0
   33.5060   28.7500   35.3230 C   0  0  0  0  0  0  0  0  0  0  0  0
   34.4330   28.9930   36.3160 C   0  0  0  0  0  0  0  0  0  0  0  0
   35.7500   29.3710   36.2880 C   0  0  0  0  0  0  0  0  0  0  0  0
   37.4960   29.8480   37.3700 H   0  0  0  0  0  0  0  0  0  0  0  0
   34.0260   28.8000   39.7060 H   0  0  0  0  0  0  0  0  0  0  0  0
   31.7990   28.2020   37.9630 H   0  0  0  0  0  0  0  0  0  0  0  0
   31.4770   28.1670   35.3510 H   0  0  0  0  0  0  0  0  0  0  0  0
   33.7470   28.8420   34.2830 H   0  0  0  0  0  0  0  0  0  0  0  0
   36.2260   29.5290   35.3300 H   0  0  0  0  0  0  0  0  0  0  0  0
   37.2870   28.7850   41.9950 C   0  0  0  0  0  0  0  0  0  0  0  0
   38.1270   29.8860   42.1810 C   0  0  0  0  0  0  0  0  0  0  0  0
   38.1910   30.8220   41.1570 C   0  0  0  0  0  0  0  0  0  0  0  0
   37.4440   30.6270   40.0380 N   0  0  0  0  0  0  0  0  0  0  0  0
   36.6400   29.5460   39.8960 C   0  0  0  0  0  0  0  0  0  0  0  0
   36.5580   28.6220   40.8710 N   0  0  0  0  0  0  0  0  0  0  0  0
   38.7050   29.9980   43.0920 H   0  0  0  0  0  0  0  0  0  0  0  0
   38.8370   31.6820   41.2830 H   0  0  0  0  0  0  0  0  0  0  0  0
   37.2480   27.8340   43.0820 C   0  0  0  0  0  0  0  0  0  0  0  0
   36.1860   27.3550   43.5870 O   0  0  0  0  0  0  0  0  0  0  0  0
   38.4930   27.3540   43.6800 C   0  0  0  0  0  3  0  0  0  0  0  0
   39.1250   26.3300   43.1440 C   0  0  0  0  0  3  0  0  0  0  0  0
   40.3910   25.7740   43.6800 C   0  0  0  0  0  2  0  0  0  0  0  0
   40.5840   26.2420   44.6620 H   0  0  0  0  0  0  0  0  0  0  0  0
  1  2  1  0  0  0  0
  2  3  2  0  0  0  0
  2 20  1  0  0  0  0
  3 11  1  0  0  0  0
  4  3  1  0  0  0  0
  5  4  1  0  0  0  0
  5 12  1  0  0  0  0
  6  5  1  0  0  0  0
  7  6  2  0  0  0  0
  7  8  1  0  0  0  0
  8  4  2  0  0  0  0
  9  8  1  0  0  0  0
  9  1  2  0  0  0  0
 10  1  1  0  0  0  0
 13  6  1  0  0  0  0
 14  7  1  0  0  0  0
 15  9  1  0  0  0  0
 16 17  1  0  0  0  0
 16 24  1  0  0  0  0
 17 22  1  0  0  0  0
 18 23  1  0  0  0  0
 18 17  2  0  0  0  0
 19 18  1  0  0  0  0
 20 19  2  0  0  0  0
 20 21  1  0  0  0  0
 21 16  2  0  0  0  0
 24 25  2  0  0  0  0
 24 26  1  0  0  0  0
 27 26  2  0  0  0  0
 27 28  1  0  0  0  0
 28 29  1  0  0  0  0
M  END
>  <minimizedAffinity>
-5.26818228

$$$$

 OpenBabel03252504013D

 29 31  0  0  0  0  0  0  0  0999 V2000
   35.7250   29.6690   38.3590 C   0  0  0  0  0  0  0  0  0  0  0  0
   36.8100   30.4520   37.9910 C   0  0  0  0  0  0  0  0  0  0  0  0
   37.2640   30.4630   36.6760 C   0  0  0  0  0  0  0  0  0  0  0  0
   36.6000   29.6720   35.7590 C   0  0  0  0  0  0  0  0  0  0  0  0
   36.7880   29.4670   34.4430 N   0  0  0  0  0  0  0  0  0  0  0  0
   35.8860   28.5990   33.9560 C   0  0  0  0  0  0  0  0  0  0  0  0
   35.0600   28.2090   34.9940 C   0  0  0  0  0  0  0  0  0  0  0  0
   35.5050   28.8760   36.1160 C   0  0  0  0  0  0  0  0  0  0  0  0
   35.0840   28.8890   37.4200 C   0  0  0  0  0  0  0  0  0  0  0  0
   35.3440   29.6340   39.3760 H   0  0  0  0  0  0  0  0  0  0  0  0
   38.1090   31.0760   36.3970 H   0  0  0  0  0  0  0  0  0  0  0  0
   37.5110   29.8890   33.8300 H   0  0  0  0  0  0  0  0  0  0  0  0
   35.6980   28.1800   32.9810 H   0  0  0  0  0  0  0  0  0  0  0  0
   34.2260   27.5360   35.0220 H   0  0  0  0  0  0  0  0  0  0  0  0
   34.2380   28.2760   37.7000 H   0  0  0  0  0  0  0  0  0  0  0  0
   38.6350   31.3350   41.0350 C   0  0  0  0  0  0  0  0  0  0  0  0
   38.6650   32.7320   41.0130 C   0  0  0  0  0  0  0  0  0  0  0  0
   38.0520   33.3680   39.9400 C   0  0  0  0  0  0  0  0  0  0  0  0
   37.4590   32.6140   38.9770 N   0  0  0  0  0  0  0  0  0  0  0  0
   37.4520   31.2600   39.0350 C   0  0  0  0  0  0  0  0  0  0  0  0
   38.0380   30.6160   40.0620 N   0  0  0  0  0  0  0  0  0  0  0  0
   39.1510   33.2920   41.8050 H   0  0  0  0  0  0  0  0  0  0  0  0
   38.0650   34.4500   39.9060 H   0  0  0  0  0  0  0  0  0  0  0  0
   39.2830   30.7110   42.1650 C   0  0  0  0  0  0  0  0  0  0  0  0
   40.0950   31.2940   42.9470 O   0  0  0  0  0  0  0  0  0  0  0  0
   39.0190   29.3070   42.4760 C   0  0  0  0  0  3  0  0  0  0  0  0
   38.0420   28.9910   43.3030 C   0  0  0  0  0  3  0  0  0  0  0  0
   37.7010   27.5980   43.6780 C   0  0  0  0  0  2  0  0  0  0  0  0
   38.4980   26.9340   43.2960 H   0  0  0  0  0  0  0  0  0  0  0  0
  1 10  1  0  0  0  0
  2  1  1  0  0  0  0
  2 20  1  0  0  0  0
  3  2  2  0  0  0  0
  4  8  2  0  0  0  0
  4  3  1  0  0  0  0
  5  4  1  0  0  0  0
  6  5  1  0  0  0  0
  6  7  2  0  0  0  0
  7 14  1  0  0  0  0
  7  8  1  0  0  0  0
  8  9  1  0  0  0  0
  9 15  1  0  0  0  0
  9  1  2  0  0  0  0
 11  3  1  0  0  0  0
 12  5  1  0  0  0  0
 13  6  1  0  0  0  0
 16 24  1  0  0  0  0
 17 16  1  0  0  0  0
 17 22  1  0  0  0  0
 18 17  2  0  0  0  0
 19 20  2  0  0  0  0
 19 18  1  0  0  0  0
 20 21  1  0  0  0  0
 21 16  2  0  0  0  0
 23 18  1  0  0  0  0
 24 26  1  0  0  0  0
 24 25  2  0  0  0  0
 26 27  2  0  0  0  0
 27 28  1  0  0  0  0
 29 28  1  0  0  0  0
M  END
>  <minimizedAffinity>
-5.2544322

$$$$

 OpenBabel03252504013D

 29 31  0  0  0  0  0  0  0  0999 V2000
   37.4560   29.6520   40.0070 C   0  0  0  0  0  0  0  0  0  0  0  0
   38.3100   29.7760   41.0950 C   0  0  0  0  0  0  0  0  0  0  0  0
   38.7610   31.0260   41.5030 C   0  0  0  0  0  0  0  0  0  0  0  0
   38.3300   32.1300   40.7940 C   0  0  0  0  0  0  0  0  0  0  0  0
   38.5800   33.4440   40.9330 N   0  0  0  0  0  0  0  0  0  0  0  0
   37.9350   34.1600   39.9980 C   0  0  0  0  0  0  0  0  0  0  0  0
   37.2240   33.2840   39.2000 C   0  0  0  0  0  0  0  0  0  0  0  0
   37.4700   32.0200   39.6950 C   0  0  0  0  0  0  0  0  0  0  0  0
   37.0450   30.7730   39.3180 C   0  0  0  0  0  0  0  0  0  0  0  0
   37.0850   28.6920   39.6590 H   0  0  0  0  0  0  0  0  0  0  0  0
   39.4250   31.1150   42.3520 H   0  0  0  0  0  0  0  0  0  0  0  0
   39.1790   33.9070   41.6430 H   0  0  0  0  0  0  0  0  0  0  0  0
   37.8710   35.2110   39.7690 H   0  0  0  0  0  0  0  0  0  0  0  0
   36.5880   33.4510   38.3530 H   0  0  0  0  0  0  0  0  0  0  0  0
   36.3800   30.6840   38.4700 H   0  0  0  0  0  0  0  0  0  0  0  0
   38.3950   26.2680   42.1260 C   0  0  0  0  0  0  0  0  0  0  0  0
   39.4330   26.2190   43.0610 C   0  0  0  0  0  0  0  0  0  0  0  0
   40.1040   27.4050   43.3330 C   0  0  0  0  0  0  0  0  0  0  0  0
   39.7250   28.5410   42.6880 N   0  0  0  0  0  0  0  0  0  0  0  0
   38.7130   28.5460   41.7870 C   0  0  0  0  0  0  0  0  0  0  0  0
   38.0450   27.4120   41.5030 N   0  0  0  0  0  0  0  0  0  0  0  0
   39.6990   25.2890   43.5500 H   0  0  0  0  0  0  0  0  0  0  0  0
   40.9110   27.3880   44.0540 H   0  0  0  0  0  0  0  0  0  0  0  0
   37.7220   25.0160   41.8700 C   0  0  0  0  0  0  0  0  0  0  0  0
   37.8640   23.9620   42.5630 O   0  0  0  0  0  0  0  0  0  0  0  0
   36.7970   24.8990   40.7430 C   0  0  0  0  0  3  0  0  0  0  0  0
   36.3990   23.7080   40.3430 C   0  0  0  0  0  3  0  0  0  0  0  0
   35.4650   23.4910   39.2130 C   0  0  0  0  0  2  0  0  0  0  0  0
   35.3280   24.4550   38.6890 H   0  0  0  0  0  0  0  0  0  0  0  0
  1  2  1  0  0  0  0
  2  3  2  0  0  0  0
  2 20  1  0  0  0  0
  3 11  1  0  0  0  0
  4  5  1  0  0  0  0
  4  3  1  0  0  0  0
  5 12  1  0  0  0  0
  6  5  1  0  0  0  0
  7  8  1  0  0  0  0
  7  6  2  0  0  0  0
  8  4  2  0  0  0  0
  9  8  1  0  0  0  0
  9  1  2  0  0  0  0
 10  1  1  0  0  0  0
 13  6  1  0  0  0  0
 14  7  1  0  0  0  0
 15  9  1  0  0  0  0
 16 17  1  0  0  0  0
 17 18  2  0  0  0  0
 17 22  1  0  0  0  0
 18 23  1  0  0  0  0
 19 18  1  0  0  0  0
 20 19  2  0  0  0  0
 21 20  1  0  0  0  0
 21 16  2  0  0  0  0
 24 16  1  0  0  0  0
 24 25  2  0  0  0  0
 26 24  1  0  0  0  0
 27 26  2  0  0  0  0
 28 27  1  0  0  0  0
 29 28  1  0  0  0  0
M  END
>  <minimizedAffinity>
-5.23117495

$$$$

 OpenBabel03252504013D

 29 31  0  0  0  0  0  0  0  0999 V2000
   39.5890   30.6560   41.9220 C   0  0  0  0  0  0  0  0  0  0  0  0
   38.3290   30.1120   41.7140 C   0  0  0  0  0  0  0  0  0  0  0  0
   37.3390   30.8410   41.0650 C   0  0  0  0  0  0  0  0  0  0  0  0
   37.6530   32.1170   40.6380 C   0  0  0  0  0  0  0  0  0  0  0  0
   36.9340   33.0540   39.9960 N   0  0  0  0  0  0  0  0  0  0  0  0
   37.6640   34.1610   39.7850 C   0  0  0  0  0  0  0  0  0  0  0  0
   38.9260   33.9520   40.3100 C   0  0  0  0  0  0  0  0  0  0  0  0
   38.9180   32.6790   40.8410 C   0  0  0  0  0  0  0  0  0  0  0  0
   39.8720   31.9330   41.4850 C   0  0  0  0  0  0  0  0  0  0  0  0
   40.3860   30.1170   42.4250 H   0  0  0  0  0  0  0  0  0  0  0  0
   36.3610   30.4100   40.9060 H   0  0  0  0  0  0  0  0  0  0  0  0
   35.9480   32.9940   39.6800 H   0  0  0  0  0  0  0  0  0  0  0  0
   37.4670   35.1120   39.3170 H   0  0  0  0  0  0  0  0  0  0  0  0
   39.7930   34.5810   40.3460 H   0  0  0  0  0  0  0  0  0  0  0  0
   40.8500   32.3640   41.6430 H   0  0  0  0  0  0  0  0  0  0  0  0
   38.9620   26.7000   42.8690 C   0  0  0  0  0  0  0  0  0  0  0  0
   37.6850   26.1880   43.1170 C   0  0  0  0  0  0  0  0  0  0  0  0
   36.6030   27.0290   42.8840 C   0  0  0  0  0  0  0  0  0  0  0  0
   36.8340   28.2900   42.4310 N   0  0  0  0  0  0  0  0  0  0  0  0
   38.0890   28.7480   42.2030 C   0  0  0  0  0  0  0  0  0  0  0  0
   39.1550   27.9570   42.4200 N   0  0  0  0  0  0  0  0  0  0  0  0
   37.5510   25.1750   43.4780 H   0  0  0  0  0  0  0  0  0  0  0  0
   35.6060   26.6510   43.0700 H   0  0  0  0  0  0  0  0  0  0  0  0
   40.0600   25.7960   43.1230 C   0  0  0  0  0  0  0  0  0  0  0  0
   39.9780   24.5300   43.0930 O   0  0  0  0  0  0  0  0  0  0  0  0
   41.3850   26.3260   43.4430 C   0  0  0  0  0  3  0  0  0  0  0  0
   42.4400   25.5400   43.3700 C   0  0  0  0  0  3  0  0  0  0  0  0
   43.8200   25.9870   43.6750 C   0  0  0  0  0  2  0  0  0  0  0  0
   43.7640   26.9950   44.1270 H   0  0  0  0  0  0  0  0  0  0  0  0
  1 10  1  0  0  0  0
  2  1  1  0  0  0  0
  2 20  1  0  0  0  0
  3  2  2  0  0  0  0
  4  8  2  0  0  0  0
  4  3  1  0  0  0  0
  5  4  1  0  0  0  0
  6  5  1  0  0  0  0
  6  7  2  0  0  0  0
  7 14  1  0  0  0  0
  7  8  1  0  0  0  0
  8  9  1  0  0  0  0
  9 15  1  0  0  0  0
  9  1  2  0  0  0  0
 11  3  1  0  0  0  0
 12  5  1  0  0  0  0
 13  6  1  0  0  0  0
 16 17  1  0  0  0  0
 16 24  1  0  0  0  0
 17 22  1  0  0  0  0
 18 23  1  0  0  0  0
 18 17  2  0  0  0  0
 19 18  1  0  0  0  0
 20 21  1  0  0  0  0
 20 19  2  0  0  0  0
 21 16  2  0  0  0  0
 24 26  1  0  0  0  0
 25 24  2  0  0  0  0
 27 26  2  0  0  0  0
 27 28  1  0  0  0  0
 28 29  1  0  0  0  0
M  END
>  <minimizedAffinity>
-5.22791862

$$$$

 OpenBabel03252504013D

 29 31  0  0  0  0  0  0  0  0999 V2000
   37.1200   29.1770   39.0030 C   0  0  0  0  0  0  0  0  0  0  0  0
   37.0860   29.2450   40.3890 C   0  0  0  0  0  0  0  0  0  0  0  0
   37.1040   30.4740   41.0400 C   0  0  0  0  0  0  0  0  0  0  0  0
   37.1570   31.6140   40.2620 C   0  0  0  0  0  0  0  0  0  0  0  0
   37.1860   32.9200   40.5800 N   0  0  0  0  0  0  0  0  0  0  0  0
   37.2380   33.6840   39.4770 C   0  0  0  0  0  0  0  0  0  0  0  0
   37.2440   32.8500   38.3750 C   0  0  0  0  0  0  0  0  0  0  0  0
   37.1940   31.5610   38.8640 C   0  0  0  0  0  0  0  0  0  0  0  0
   37.1750   30.3340   38.2540 C   0  0  0  0  0  0  0  0  0  0  0  0
   37.1090   28.2360   38.4610 H   0  0  0  0  0  0  0  0  0  0  0  0
   37.0750   30.5190   42.1190 H   0  0  0  0  0  0  0  0  0  0  0  0
   37.1730   33.3460   41.5260 H   0  0  0  0  0  0  0  0  0  0  0  0
   37.2730   34.7470   39.3010 H   0  0  0  0  0  0  0  0  0  0  0  0
   37.2780   33.0610   37.3250 H   0  0  0  0  0  0  0  0  0  0  0  0
   37.2020   30.2890   37.1740 H   0  0  0  0  0  0  0  0  0  0  0  0
   37.2480   25.6660   41.1200 C   0  0  0  0  0  0  0  0  0  0  0  0
   36.9350   25.5870   42.4790 C   0  0  0  0  0  0  0  0  0  0  0  0
   36.6670   26.7780   43.1430 C   0  0  0  0  0  0  0  0  0  0  0  0
   36.7210   27.9460   42.4500 N   0  0  0  0  0  0  0  0  0  0  0  0
   37.0290   27.9790   41.1310 C   0  0  0  0  0  0  0  0  0  0  0  0
   37.2930   26.8420   40.4620 N   0  0  0  0  0  0  0  0  0  0  0  0
   36.9040   24.6310   42.9910 H   0  0  0  0  0  0  0  0  0  0  0  0
   36.4220   26.7380   44.1970 H   0  0  0  0  0  0  0  0  0  0  0  0
   37.5210   24.4070   40.4650 C   0  0  0  0  0  0  0  0  0  0  0  0
   38.6580   24.0460   40.0330 O   0  0  0  0  0  0  0  0  0  0  0  0
   36.4430   23.4400   40.2610 C   0  0  0  0  0  3  0  0  0  0  0  0
   35.4760   23.7080   39.4060 C   0  0  0  0  0  3  0  0  0  0  0  0
   34.3430   22.7910   39.1330 C   0  0  0  0  0  2  0  0  0  0  0  0
   34.3720   21.9760   39.8800 H   0  0  0  0  0  0  0  0  0  0  0  0
  1  2  1  0  0  0  0
  2  3  2  0  0  0  0
  2 20  1  0  0  0  0
  3 11  1  0  0  0  0
  4  5  1  0  0  0  0
  4  3  1  0  0  0  0
  5 12  1  0  0  0  0
  6  5  1  0  0  0  0
  7  8  1  0  0  0  0
  7  6  2  0  0  0  0
  8  4  2  0  0  0  0
  9  8  1  0  0  0  0
  9  1  2  0  0  0  0
 10  1  1  0  0  0  0
 13  6  1  0  0  0  0
 14  7  1  0  0  0  0
 15  9  1  0  0  0  0
 16 17  1  0  0  0  0
 17 22  1  0  0  0  0
 17 18  2  0  0  0  0
 18 23  1  0  0  0  0
 19 18  1  0  0  0  0
 20 19  2  0  0  0  0
 21 16  2  0  0  0  0
 21 20  1  0  0  0  0
 24 16  1  0  0  0  0
 25 24  2  0  0  0  0
 26 24  1  0  0  0  0
 27 26  2  0  0  0  0
 28 27  1  0  0  0  0
 28 29  1  0  0  0  0
M  END
>  <minimizedAffinity>
-5.1201973

$$$$

 OpenBabel03252504013D

 29 31  0  0  0  0  0  0  0  0999 V2000
   40.5510   31.1270   39.5210 C   0  0  0  0  0  0  0  0  0  0  0  0
   39.8020   31.4130   38.3880 C   0  0  0  0  0  0  0  0  0  0  0  0
   40.2750   32.3030   37.4300 C   0  0  0  0  0  0  0  0  0  0  0  0
   41.5080   32.8870   37.6460 C   0  0  0  0  0  0  0  0  0  0  0  0
   42.2260   33.7680   36.9270 N   0  0  0  0  0  0  0  0  0  0  0  0
   43.3860   34.0570   37.5380 C   0  0  0  0  0  0  0  0  0  0  0  0
   43.4440   33.3380   38.7170 C   0  0  0  0  0  0  0  0  0  0  0  0
   42.2750   32.6090   38.7840 C   0  0  0  0  0  0  0  0  0  0  0  0
   41.7780   31.7270   39.7090 C   0  0  0  0  0  0  0  0  0  0  0  0
   40.2130   30.4390   40.2900 H   0  0  0  0  0  0  0  0  0  0  0  0
   39.6870   32.5200   36.5500 H   0  0  0  0  0  0  0  0  0  0  0  0
   41.9760   34.2030   36.0190 H   0  0  0  0  0  0  0  0  0  0  0  0
   44.2200   34.6980   37.3010 H   0  0  0  0  0  0  0  0  0  0  0  0
   44.1930   33.2870   39.4820 H   0  0  0  0  0  0  0  0  0  0  0  0
   42.3680   31.5100   40.5890 H   0  0  0  0  0  0  0  0  0  0  0  0
   36.6730   29.7330   39.2600 C   0  0  0  0  0  0  0  0  0  0  0  0
   36.0700   29.4860   38.0230 C   0  0  0  0  0  0  0  0  0  0  0  0
   36.7500   29.9050   36.8860 C   0  0  0  0  0  0  0  0  0  0  0  0
   37.9520   30.5240   37.0260 N   0  0  0  0  0  0  0  0  0  0  0  0
   38.5030   30.7440   38.2450 C   0  0  0  0  0  0  0  0  0  0  0  0
   37.8680   30.3500   39.3640 N   0  0  0  0  0  0  0  0  0  0  0  0
   35.1080   28.9890   37.9610 H   0  0  0  0  0  0  0  0  0  0  0  0
   36.2980   29.7230   35.9190 H   0  0  0  0  0  0  0  0  0  0  0  0
   35.9360   29.2830   40.4180 C   0  0  0  0  0  0  0  0  0  0  0  0
   34.6910   29.0360   40.4330 O   0  0  0  0  0  0  0  0  0  0  0  0
   36.6250   29.0820   41.6920 C   0  0  0  0  0  3  0  0  0  0  0  0
   36.6740   27.8800   42.2280 C   0  0  0  0  0  3  0  0  0  0  0  0
   37.3480   27.5800   43.5140 C   0  0  0  0  0  2  0  0  0  0  0  0
   37.6210   28.5390   43.9920 H   0  0  0  0  0  0  0  0  0  0  0  0
  1  9  1  0  0  0  0
  1 10  1  0  0  0  0
  2  1  2  0  0  0  0
  3  4  2  0  0  0  0
  3  2  1  0  0  0  0
  4  8  1  0  0  0  0
  5  6  1  0  0  0  0
  5  4  1  0  0  0  0
  6  7  2  0  0  0  0
  7  8  1  0  0  0  0
  7 14  1  0  0  0  0
  8  9  2  0  0  0  0
  9 15  1  0  0  0  0
 11  3  1  0  0  0  0
 12  5  1  0  0  0  0
 13  6  1  0  0  0  0
 16 21  1  0  0  0  0
 16 24  1  0  0  0  0
 17 16  2  0  0  0  0
 18 19  2  0  0  0  0
 18 17  1  0  0  0  0
 19 20  1  0  0  0  0
 20  2  1  0  0  0  0
 20 21  2  0  0  0  0
 22 17  1  0  0  0  0
 23 18  1  0  0  0  0
 24 25  2  0  0  0  0
 24 26  1  0  0  0  0
 26 27  2  0  0  0  0
 27 28  1  0  0  0  0
 28 29  1  0  0  0  0
M  END
>  <minimizedAffinity>
-5.03302431

$$$$
