
 OpenBabel03242511423D

 29 30  0  0  0  0  0  0  0  0999 V2000
   46.9460   32.8960   46.2570 C   0  0  0  0  0  0  0  0  0  0  0  0
   46.9110   33.9260   46.6310 H   0  0  0  0  0  0  0  0  0  0  0  0
   48.0300   32.5790   46.2200 H   0  0  0  0  0  0  0  0  0  0  0  0
   46.3080   32.0150   47.2310 C   0  0  0  0  0  0  0  0  0  0  0  0
   45.2600   32.2690   48.1020 C   0  0  0  0  0  0  0  0  0  0  0  0
   44.6990   31.3480   48.9470 C   0  0  0  0  0  0  0  0  0  0  0  0
   45.2160   30.0830   48.9240 C   0  0  0  0  0  0  0  0  0  0  0  0
   46.2670   29.8010   48.0620 C   0  0  0  0  0  0  0  0  0  0  0  0
   46.8170   30.7640   47.2180 C   0  0  0  0  0  0  0  0  0  0  0  0
   44.9300   33.3050   48.0330 H   0  0  0  0  0  0  0  0  0  0  0  0
   43.8970   31.7610   49.5400 H   0  0  0  0  0  0  0  0  0  0  0  0
   44.6800   29.4430   49.6420 H   0  0  0  0  0  0  0  0  0  0  0  0
   46.4730   28.7440   48.2510 H   0  0  0  0  0  0  0  0  0  0  0  0
   47.9560   30.0700   46.6360 C   0  0  0  0  0  3  0  0  0  0  0  0
   48.1520   29.4460   45.4950 C   0  0  0  0  0  3  0  0  0  0  0  0
   49.2990   28.7600   44.9360 C   0  0  0  0  0  2  0  0  0  0  0  0
   50.1420   28.8250   45.6800 H   0  0  0  0  0  0  0  0  0  0  0  0
   46.4220   32.7190   44.8730 C   0  0  0  0  0  0  0  0  0  0  0  0
   45.5030   32.1060   44.9020 H   0  0  0  0  0  0  0  0  0  0  0  0
   47.1910   32.4330   44.1350 H   0  0  0  0  0  0  0  0  0  0  0  0
   44.5270   35.8940   44.7440 C   0  0  0  0  0  0  0  0  0  0  0  0
   44.8950   36.4060   43.4750 C   0  0  0  0  0  0  0  0  0  0  0  0
   45.7810   35.6500   42.7330 C   0  0  0  0  0  0  0  0  0  0  0  0
   46.2400   34.4980   43.2290 N   0  0  0  0  0  0  0  0  0  0  0  0
   45.8530   34.0530   44.4540 C   0  0  0  0  0  0  0  0  0  0  0  0
   45.0140   34.7300   45.2040 N   0  0  0  0  0  0  0  0  0  0  0  0
   43.8200   36.5270   45.3020 H   0  0  0  0  0  0  0  0  0  0  0  0
   44.4950   37.3510   43.1090 H   0  0  0  0  0  0  0  0  0  0  0  0
   46.1070   35.9810   41.7520 H   0  0  0  0  0  0  0  0  0  0  0  0
  1  2  1  0  0  0  0
  1  4  1  0  0  0  0
  3  1  1  0  0  0  0
  4  5  1  0  0  0  0
  5  6  2  0  0  0  0
  6 11  1  0  0  0  0
  7  6  1  0  0  0  0
  7 12  1  0  0  0  0
  8 13  1  0  0  0  0
  8  7  2  0  0  0  0
  9  4  2  0  0  0  0
  9  8  1  0  0  0  0
 10  5  1  0  0  0  0
 14  9  1  0  0  0  0
 15 14  2  0  0  0  0
 16 15  1  0  0  0  0
 16 17  1  0  0  0  0
 18 19  1  0  0  0  0
 18  1  1  0  0  0  0
 20 18  1  0  0  0  0
 21 26  1  0  0  0  0
 21 27  1  0  0  0  0
 22 21  2  0  0  0  0
 23 24  2  0  0  0  0
 23 22  1  0  0  0  0
 24 25  1  0  0  0  0
 25 18  1  0  0  0  0
 25 26  2  0  0  0  0
 28 22  1  0  0  0  0
 29 23  1  0  0  0  0
M  END
>  <minimizedAffinity>
-4.57344866

>  <minimizedRMSD>
1.28656805

$$$$
