
 OpenBabel03252506173D

 18 18  0  0  0  0  0  0  0  0999 V2000
   44.8820   35.6820   44.0390 C   0  0  0  0  0  0  0  0  0  0  0  0
   44.3920   35.2610   42.7660 C   0  0  0  0  0  0  0  0  0  0  0  0
   44.4740   33.8910   42.4730 C   0  0  0  0  0  0  0  0  0  0  0  0
   45.0060   33.0520   43.4030 N   0  0  0  0  0  0  0  0  0  0  0  0
   45.4560   33.5010   44.5940 C   0  0  0  0  0  0  0  0  0  0  0  0
   45.3940   34.7940   44.9020 N   0  0  0  0  0  0  0  0  0  0  0  0
   43.9870   36.0120   42.1000 H   0  0  0  0  0  0  0  0  0  0  0  0
   44.1040   33.5640   41.5100 H   0  0  0  0  0  0  0  0  0  0  0  0
   44.7990   37.1170   44.3510 C   0  0  0  0  0  3  0  0  0  0  0  0
   45.4410   37.9580   43.5500 C   0  0  0  0  0  3  0  0  0  0  0  0
   45.3770   39.4260   43.8390 C   0  0  0  0  0  0  0  0  0  0  0  0
   45.8590   39.5590   44.8420 H   0  0  0  0  0  0  0  0  0  0  0  0
   44.3590   39.8110   43.9200 H   0  0  0  0  0  0  0  0  0  0  0  0
   45.9810   39.9870   43.1230 H   0  0  0  0  0  0  0  0  0  0  0  0
   46.0190   32.5660   45.5580 C   0  0  0  0  0  3  0  0  0  0  0  0
   46.1380   31.2720   45.3090 C   0  0  0  0  0  3  0  0  0  0  0  0
   46.7030   30.2860   46.2580 C   0  0  0  0  0  2  0  0  0  0  0  0
   46.9000   30.8290   47.2180 H   0  0  0  0  0  0  0  0  0  0  0  0
  1  9  1  0  0  0  0
  1  6  1  0  0  0  0
  2  1  2  0  0  0  0
  3  2  1  0  0  0  0
  3  4  2  0  0  0  0
  4  5  1  0  0  0  0
  5  6  2  0  0  0  0
  5 15  1  0  0  0  0
  7  2  1  0  0  0  0
  8  3  1  0  0  0  0
 10 11  1  0  0  0  0
 10  9  2  0  0  0  0
 11 13  1  0  0  0  0
 11 12  1  0  0  0  0
 14 11  1  0  0  0  0
 16 15  2  0  0  0  0
 16 17  1  0  0  0  0
 17 18  1  0  0  0  0
M  END
>  <minimizedAffinity>
-2.76905847

>  <minimizedRMSD>
1.12959182

$$$$
