
 OpenBabel03242521443D

 33 34  0  0  1  0  0  0  0  0999 V2000
   45.1740   35.1470   44.5370 C   0  0  0  0  0  0  0  0  0  0  0  0
   46.1450   34.5040   43.7590 C   0  0  0  0  0  0  0  0  0  0  0  0
   46.8420   33.4140   44.2930 C   0  0  0  0  0  0  0  0  0  0  0  0
   46.5350   33.0410   45.5340 N   0  0  0  0  0  0  0  0  0  0  0  0
   45.5950   33.6690   46.2750 C   0  0  0  0  0  0  0  0  0  0  0  0
   44.9120   34.7210   45.7820 N   0  0  0  0  0  0  0  0  0  0  0  0
   46.3110   34.8880   42.7730 H   0  0  0  0  0  0  0  0  0  0  0  0
   45.3830   33.3270   47.2760 H   0  0  0  0  0  0  0  0  0  0  0  0
   48.6690   33.7340   42.6380 C   0  0  2  0  0  0  0  0  0  0  0  0
   47.8430   32.7850   43.4330 C   0  0  2  0  0  0  0  0  0  0  0  0
   47.2830   31.9840   42.3940 O   0  0  0  0  0  0  0  0  0  0  0  0
   48.4060   31.6180   41.6780 C   0  0  0  0  0  0  0  0  0  0  0  0
   49.4480   32.6950   41.8030 C   0  0  1  0  0  0  0  0  0  0  0  0
   48.0900   34.2940   41.8730 H   0  0  0  0  0  0  0  0  0  0  0  0
   48.5000   32.0720   43.9680 H   0  0  0  0  0  0  0  0  0  0  0  0
   48.8140   30.7030   42.1560 H   0  0  0  0  0  0  0  0  0  0  0  0
   48.1700   31.3430   40.6240 H   0  0  0  0  0  0  0  0  0  0  0  0
   50.3270   32.3810   42.3780 H   0  0  0  0  0  0  0  0  0  0  0  0
   49.4600   34.5650   43.3710 O   0  0  0  0  0  0  0  0  0  0  0  0
   49.6480   35.3900   42.8450 H   0  0  0  0  0  0  0  0  0  0  0  0
   49.8090   33.2640   40.5910 O   0  0  0  0  0  0  0  0  0  0  0  0
   49.6290   32.6730   39.8180 H   0  0  0  0  0  0  0  0  0  0  0  0
   44.4440   36.3220   43.9440 C   0  0  0  0  0  0  0  0  0  0  0  0
   43.3720   36.2710   44.1370 H   0  0  0  0  0  0  0  0  0  0  0  0
   44.6380   36.3450   42.8500 H   0  0  0  0  0  0  0  0  0  0  0  0
   45.2390   38.7740   43.8770 C   0  0  0  0  0  0  0  0  0  0  0  0
   44.7940   38.8690   42.7000 O   0  0  0  0  0  0  0  0  0  0  0  0
   45.0540   37.5120   44.4930 N   0  0  0  0  0  0  0  0  0  0  0  0
   45.4080   37.4260   45.4920 H   0  0  0  0  0  0  0  0  0  0  0  0
   45.8860   39.8750   44.5370 C   0  0  0  0  0  3  0  0  0  0  0  0
   45.5770   40.2610   45.7400 C   0  0  0  0  0  3  0  0  0  0  0  0
   44.5230   39.5750   46.5070 C   0  0  0  0  0  2  0  0  0  0  0  0
   43.5110   39.6190   46.0210 H   0  0  0  0  0  0  0  0  0  0  0  0
  1  6  1  0  0  0  0
  2  3  1  0  0  0  0
  2  1  2  0  0  0  0
  3  4  2  0  0  0  0
  4  5  1  0  0  0  0
  5  8  1  0  0  0  0
  6  5  2  0  0  0  0
  7  2  1  0  0  0  0
  9 14  1  6  0  0  0
  9 19  1  0  0  0  0
  9 10  1  0  0  0  0
 10 15  1  1  0  0  0
 10  3  1  0  0  0  0
 11 10  1  0  0  0  0
 12 13  1  0  0  0  0
 12 16  1  0  0  0  0
 12 11  1  0  0  0  0
 13 18  1  1  0  0  0
 13  9  1  0  0  0  0
 17 12  1  0  0  0  0
 20 19  1  0  0  0  0
 21 13  1  0  0  0  0
 22 21  1  0  0  0  0
 23 24  1  0  0  0  0
 23 28  1  0  0  0  0
 23  1  1  0  0  0  0
 25 23  1  0  0  0  0
 26 28  1  0  0  0  0
 26 30  1  0  0  0  0
 27 26  2  0  0  0  0
 28 29  1  0  0  0  0
 30 31  2  0  0  0  0
 31 32  1  0  0  0  0
 33 32  1  0  0  0  0
M  END
>  <minimizedAffinity>
-3.34510875

>  <minimizedRMSD>
0.730470717

$$$$
