
 OpenBabel03252503093D

 22 23  0  0  0  0  0  0  0  0999 V2000
   45.1350   36.1470   43.4700 C   0  0  0  0  0  0  0  0  0  0  0  0
   45.7950   34.9600   43.0930 C   0  0  0  0  0  0  0  0  0  0  0  0
   45.8280   33.9720   44.0690 C   0  0  0  0  0  0  0  0  0  0  0  0
   45.2690   34.1360   45.2870 N   0  0  0  0  0  0  0  0  0  0  0  0
   44.6420   35.3060   45.6020 C   0  0  0  0  0  0  0  0  0  0  0  0
   44.5800   36.3040   44.6890 N   0  0  0  0  0  0  0  0  0  0  0  0
   45.0540   36.9760   42.7870 H   0  0  0  0  0  0  0  0  0  0  0  0
   44.2110   35.4030   46.5730 H   0  0  0  0  0  0  0  0  0  0  0  0
   46.4580   32.7640   43.7790 C   0  0  0  0  0  0  0  0  0  0  0  0
   47.7580   32.3110   43.8510 C   0  0  0  0  0  0  0  0  0  0  0  0
   48.1230   31.0870   43.5010 C   0  0  0  0  0  0  0  0  0  0  0  0
   47.1210   30.2530   43.0490 C   0  0  0  0  0  0  0  0  0  0  0  0
   45.6100   31.3210   43.1500 S   0  0  0  0  0  0  0  0  0  0  0  0
   48.6320   32.8280   44.2140 H   0  0  0  0  0  0  0  0  0  0  0  0
   49.0000   30.4970   43.4530 H   0  0  0  0  0  0  0  0  0  0  0  0
   46.9230   29.2690   42.6840 H   0  0  0  0  0  0  0  0  0  0  0  0
   46.3520   34.8340   41.7990 C   0  0  0  0  0  0  0  0  0  0  0  0
   47.6110   35.0450   41.7300 O   0  0  0  0  0  0  0  0  0  0  0  0
   45.1470   34.4850   40.9950 C   0  0  0  0  0  3  0  0  0  0  0  0
   44.6580   33.5970   40.1580 C   0  0  0  0  0  3  0  0  0  0  0  0
   43.2780   33.8520   39.6850 C   0  0  0  0  0  2  0  0  0  0  0  0
   42.5830   33.0290   39.9750 H   0  0  0  0  0  0  0  0  0  0  0  0
  1  6  1  0  0  0  0
  2  1  2  0  0  0  0
  2  3  1  0  0  0  0
  3  4  2  0  0  0  0
  4  5  1  0  0  0  0
  5  8  1  0  0  0  0
  6  5  2  0  0  0  0
  7  1  1  0  0  0  0
  9 10  2  0  0  0  0
  9  3  1  0  0  0  0
 10 14  1  0  0  0  0
 11 10  1  0  0  0  0
 12 13  1  0  0  0  0
 12 11  2  0  0  0  0
 13  9  1  0  0  0  0
 15 11  1  0  0  0  0
 16 12  1  0  0  0  0
 17  2  1  0  0  0  0
 18 17  2  0  0  0  0
 19 17  1  0  0  0  0
 20 19  2  0  0  0  0
 21 22  1  0  0  0  0
 21 20  1  0  0  0  0
M  END
>  <minimizedAffinity>
-3.97465801

>  <minimizedRMSD>
1.22003365

$$$$
