
 OpenBabel03252506173D

 18 18  0  0  0  0  0  0  0  0999 V2000
   44.8960   35.5760   44.1200 C   0  0  0  0  0  0  0  0  0  0  0  0
   44.4930   35.0920   42.8390 C   0  0  0  0  0  0  0  0  0  0  0  0
   44.6160   33.7130   42.6110 C   0  0  0  0  0  0  0  0  0  0  0  0
   45.1040   32.9240   43.6060 N   0  0  0  0  0  0  0  0  0  0  0  0
   45.4710   33.4310   44.8020 C   0  0  0  0  0  0  0  0  0  0  0  0
   45.3670   34.7340   45.0500 N   0  0  0  0  0  0  0  0  0  0  0  0
   44.1180   35.8060   42.1180 H   0  0  0  0  0  0  0  0  0  0  0  0
   44.3110   33.3390   41.6410 H   0  0  0  0  0  0  0  0  0  0  0  0
   44.7690   37.0200   44.3650 C   0  0  0  0  0  3  0  0  0  0  0  0
   45.4370   37.8400   43.5630 C   0  0  0  0  0  3  0  0  0  0  0  0
   45.3300   39.3170   43.7840 C   0  0  0  0  0  0  0  0  0  0  0  0
   45.7560   39.5030   44.8050 H   0  0  0  0  0  0  0  0  0  0  0  0
   44.3030   39.6840   43.7950 H   0  0  0  0  0  0  0  0  0  0  0  0
   45.9620   39.8600   43.0780 H   0  0  0  0  0  0  0  0  0  0  0  0
   45.9880   32.5480   45.8380 C   0  0  0  0  0  3  0  0  0  0  0  0
   46.9340   31.6530   45.6040 C   0  0  0  0  0  3  0  0  0  0  0  0
   47.4910   30.7360   46.6250 C   0  0  0  0  0  2  0  0  0  0  0  0
   46.8930   30.8870   47.5610 H   0  0  0  0  0  0  0  0  0  0  0  0
  1  9  1  0  0  0  0
  1  6  1  0  0  0  0
  2  1  2  0  0  0  0
  3  2  1  0  0  0  0
  3  4  2  0  0  0  0
  4  5  1  0  0  0  0
  5  6  2  0  0  0  0
  5 15  1  0  0  0  0
  7  2  1  0  0  0  0
  8  3  1  0  0  0  0
 10 11  1  0  0  0  0
 10  9  2  0  0  0  0
 11 13  1  0  0  0  0
 11 12  1  0  0  0  0
 14 11  1  0  0  0  0
 16 15  2  0  0  0  0
 16 17  1  0  0  0  0
 17 18  1  0  0  0  0
M  END
>  <minimizedAffinity>
-2.82664585

>  <minimizedRMSD>
1.39722955

$$$$
