
 OpenBabel03252501453D

 18 18  0  0  0  0  0  0  0  0999 V2000
   44.5950   35.8230   42.9640 C   0  0  0  0  0  0  0  0  0  0  0  0
   44.0960   34.9290   41.9950 C   0  0  0  0  0  0  0  0  0  0  0  0
   44.1840   33.5720   42.2520 C   0  0  0  0  0  0  0  0  0  0  0  0
   44.7390   33.1470   43.4140 N   0  0  0  0  0  0  0  0  0  0  0  0
   45.2100   34.0410   44.3270 C   0  0  0  0  0  0  0  0  0  0  0  0
   45.1360   35.3470   44.0980 N   0  0  0  0  0  0  0  0  0  0  0  0
   44.4930   36.8640   42.6950 H   0  0  0  0  0  0  0  0  0  0  0  0
   43.8180   32.8520   41.5460 H   0  0  0  0  0  0  0  0  0  0  0  0
   43.5010   35.4230   40.7490 C   0  0  0  0  0  3  0  0  0  0  0  0
   42.7990   34.6610   39.9120 C   0  0  0  0  0  3  0  0  0  0  0  0
   42.2240   35.2640   38.6520 C   0  0  0  0  0  0  0  0  0  0  0  0
   42.9890   35.3880   37.8850 H   0  0  0  0  0  0  0  0  0  0  0  0
   41.4970   34.5180   38.2710 H   0  0  0  0  0  0  0  0  0  0  0  0
   41.6640   36.1850   38.8810 H   0  0  0  0  0  0  0  0  0  0  0  0
   45.8150   33.6300   45.5890 C   0  0  0  0  0  3  0  0  0  0  0  0
   46.7920   32.7480   45.7130 C   0  0  0  0  0  3  0  0  0  0  0  0
   47.3900   32.0690   44.5570 C   0  0  0  0  0  2  0  0  0  0  0  0
   48.1850   31.3680   44.8850 H   0  0  0  0  0  0  0  0  0  0  0  0
  1  6  1  0  0  0  0
  2  3  1  0  0  0  0
  2  1  2  0  0  0  0
  3  4  2  0  0  0  0
  4  5  1  0  0  0  0
  5 15  1  0  0  0  0
  6  5  2  0  0  0  0
  7  1  1  0  0  0  0
  8  3  1  0  0  0  0
  9  2  1  0  0  0  0
 10  9  2  0  0  0  0
 11 14  1  0  0  0  0
 11 10  1  0  0  0  0
 12 11  1  0  0  0  0
 13 11  1  0  0  0  0
 15 16  2  0  0  0  0
 17 18  1  0  0  0  0
 17 16  1  0  0  0  0
M  END
>  <minimizedAffinity>
-3.64195538

>  <minimizedRMSD>
1.3640486

$$$$
