
 OpenBabel03242510063D

 13 13  0  0  0  0  0  0  0  0999 V2000
   36.5450   27.8130   42.1660 C   0  0  0  0  0  0  0  0  0  0  0  0
   37.6590   27.8640   43.0440 C   0  0  0  0  0  0  0  0  0  0  0  0
   38.3930   29.0480   43.0720 C   0  0  0  0  0  0  0  0  0  0  0  0
   38.0170   30.0860   42.2680 N   0  0  0  0  0  0  0  0  0  0  0  0
   36.9430   29.9890   41.4430 C   0  0  0  0  0  0  0  0  0  0  0  0
   36.2170   28.8670   41.3920 N   0  0  0  0  0  0  0  0  0  0  0  0
   35.9800   26.8870   42.1520 H   0  0  0  0  0  0  0  0  0  0  0  0
   37.9350   27.0400   43.6640 H   0  0  0  0  0  0  0  0  0  0  0  0
   39.2650   29.1800   43.7150 H   0  0  0  0  0  0  0  0  0  0  0  0
   36.6300   31.1580   40.6270 C   0  0  0  0  0  3  0  0  0  0  0  0
   37.5750   32.0070   40.3070 C   0  0  0  0  0  3  0  0  0  0  0  0
   37.2190   33.2020   39.4630 C   0  0  0  0  0  2  0  0  0  0  0  0
   38.1160   33.6820   39.0700 H   0  0  0  0  0  0  0  0  0  0  0  0
  1  2  1  0  0  0  0
  2  3  2  0  0  0  0
  2  8  1  0  0  0  0
  3  9  1  0  0  0  0
  4  3  1  0  0  0  0
  5  4  2  0  0  0  0
  6  5  1  0  0  0  0
  6  1  2  0  0  0  0
  7  1  1  0  0  0  0
 10  5  1  0  0  0  0
 11 10  2  0  0  0  0
 12 11  1  0  0  0  0
 13 12  1  0  0  0  0
M  END
>  <minimizedAffinity>
-3.2975266

$$$$

 OpenBabel03242510063D

 13 13  0  0  0  0  0  0  0  0999 V2000
   37.8320   26.8540   42.6810 C   0  0  0  0  0  0  0  0  0  0  0  0
   38.5680   27.8460   43.3810 C   0  0  0  0  0  0  0  0  0  0  0  0
   38.2290   29.1760   43.1420 C   0  0  0  0  0  0  0  0  0  0  0  0
   37.2250   29.4620   42.2620 N   0  0  0  0  0  0  0  0  0  0  0  0
   36.5490   28.4780   41.6160 C   0  0  0  0  0  0  0  0  0  0  0  0
   36.8500   27.1910   41.8210 N   0  0  0  0  0  0  0  0  0  0  0  0
   38.1040   25.8220   42.8730 H   0  0  0  0  0  0  0  0  0  0  0  0
   39.3500   27.5990   44.0650 H   0  0  0  0  0  0  0  0  0  0  0  0
   38.7390   30.0060   43.6350 H   0  0  0  0  0  0  0  0  0  0  0  0
   35.4940   28.8950   40.6970 C   0  0  0  0  0  3  0  0  0  0  0  0
   35.4940   28.4620   39.4600 C   0  0  0  0  0  3  0  0  0  0  0  0
   34.3910   28.9110   38.5380 C   0  0  0  0  0  2  0  0  0  0  0  0
   34.3670   28.2990   37.6340 H   0  0  0  0  0  0  0  0  0  0  0  0
  1  7  1  0  0  0  0
  1  2  1  0  0  0  0
  2  8  1  0  0  0  0
  3  2  2  0  0  0  0
  3  9  1  0  0  0  0
  4  3  1  0  0  0  0
  5  6  1  0  0  0  0
  5  4  2  0  0  0  0
  6  1  2  0  0  0  0
 10  5  1  0  0  0  0
 11 10  2  0  0  0  0
 12 11  1  0  0  0  0
 13 12  1  0  0  0  0
M  END
>  <minimizedAffinity>
-3.17741632

$$$$

 OpenBabel03242510063D

 13 13  0  0  0  0  0  0  0  0999 V2000
   38.3450   31.9130   40.6030 C   0  0  0  0  0  0  0  0  0  0  0  0
   36.9950   31.8090   40.1790 C   0  0  0  0  0  0  0  0  0  0  0  0
   36.2320   30.7820   40.7310 C   0  0  0  0  0  0  0  0  0  0  0  0
   36.8060   29.9360   41.6370 N   0  0  0  0  0  0  0  0  0  0  0  0
   38.1040   30.0760   42.0110 C   0  0  0  0  0  0  0  0  0  0  0  0
   38.8640   31.0510   41.5000 N   0  0  0  0  0  0  0  0  0  0  0  0
   38.9300   32.7160   40.1680 H   0  0  0  0  0  0  0  0  0  0  0  0
   36.5650   32.4820   39.4690 H   0  0  0  0  0  0  0  0  0  0  0  0
   35.1850   30.6240   40.4650 H   0  0  0  0  0  0  0  0  0  0  0  0
   38.6160   29.1180   42.9860 C   0  0  0  0  0  3  0  0  0  0  0  0
   38.7680   27.8600   42.6510 C   0  0  0  0  0  3  0  0  0  0  0  0
   39.3000   26.8980   43.6800 C   0  0  0  0  0  2  0  0  0  0  0  0
   39.6060   25.9600   43.2130 H   0  0  0  0  0  0  0  0  0  0  0  0
  1  6  1  0  0  0  0
  2  1  2  0  0  0  0
  2  3  1  0  0  0  0
  3  4  2  0  0  0  0
  4  5  1  0  0  0  0
  5 10  1  0  0  0  0
  6  5  2  0  0  0  0
  7  1  1  0  0  0  0
  8  2  1  0  0  0  0
  9  3  1  0  0  0  0
 11 10  2  0  0  0  0
 11 12  1  0  0  0  0
 13 12  1  0  0  0  0
M  END
>  <minimizedAffinity>
-3.1773839

$$$$

 OpenBabel03242510063D

 13 13  0  0  0  0  0  0  0  0999 V2000
   39.7530   26.4980   43.6800 C   0  0  0  0  0  0  0  0  0  0  0  0
   39.7580   25.1790   43.1560 C   0  0  0  0  0  0  0  0  0  0  0  0
   38.7040   24.8240   42.3150 C   0  0  0  0  0  0  0  0  0  0  0  0
   37.7310   25.7420   42.0400 N   0  0  0  0  0  0  0  0  0  0  0  0
   37.7700   26.9930   42.5670 C   0  0  0  0  0  0  0  0  0  0  0  0
   38.7660   27.3660   43.3770 N   0  0  0  0  0  0  0  0  0  0  0  0
   40.5770   26.7640   44.3320 H   0  0  0  0  0  0  0  0  0  0  0  0
   40.5300   24.4770   43.3840 H   0  0  0  0  0  0  0  0  0  0  0  0
   38.6240   23.8330   41.8650 H   0  0  0  0  0  0  0  0  0  0  0  0
   36.6790   27.8940   42.2070 C   0  0  0  0  0  3  0  0  0  0  0  0
   36.3770   28.0870   40.9470 C   0  0  0  0  0  3  0  0  0  0  0  0
   35.2460   29.0220   40.6100 C   0  0  0  0  0  2  0  0  0  0  0  0
   34.9420   28.9060   39.5680 H   0  0  0  0  0  0  0  0  0  0  0  0
  1  7  1  0  0  0  0
  2  8  1  0  0  0  0
  2  1  2  0  0  0  0
  3  2  1  0  0  0  0
  4  3  2  0  0  0  0
  4  5  1  0  0  0  0
  5  6  2  0  0  0  0
  6  1  1  0  0  0  0
  9  3  1  0  0  0  0
 10  5  1  0  0  0  0
 11 10  2  0  0  0  0
 12 11  1  0  0  0  0
 13 12  1  0  0  0  0
M  END
>  <minimizedAffinity>
-3.13221002

$$$$

 OpenBabel03242510063D

 13 13  0  0  0  0  0  0  0  0999 V2000
   37.1310   32.0000   40.2360 C   0  0  0  0  0  0  0  0  0  0  0  0
   37.0970   31.8560   38.8240 C   0  0  0  0  0  0  0  0  0  0  0  0
   36.7550   30.6010   38.3220 C   0  0  0  0  0  0  0  0  0  0  0  0
   36.4750   29.5870   39.1930 N   0  0  0  0  0  0  0  0  0  0  0  0
   36.5230   29.7750   40.5360 C   0  0  0  0  0  0  0  0  0  0  0  0
   36.8470   30.9650   41.0510 N   0  0  0  0  0  0  0  0  0  0  0  0
   37.3980   32.9810   40.6170 H   0  0  0  0  0  0  0  0  0  0  0  0
   37.3190   32.6630   38.1620 H   0  0  0  0  0  0  0  0  0  0  0  0
   36.7020   30.3950   37.2510 H   0  0  0  0  0  0  0  0  0  0  0  0
   36.2060   28.6230   41.3750 C   0  0  0  0  0  3  0  0  0  0  0  0
   36.9130   28.3810   42.4510 C   0  0  0  0  0  3  0  0  0  0  0  0
   36.5590   27.1850   43.2950 C   0  0  0  0  0  2  0  0  0  0  0  0
   37.0500   27.2380   44.2690 H   0  0  0  0  0  0  0  0  0  0  0  0
  1  7  1  0  0  0  0
  1  6  1  0  0  0  0
  2  1  2  0  0  0  0
  3  2  1  0  0  0  0
  3  4  2  0  0  0  0
  4  5  1  0  0  0  0
  5  6  2  0  0  0  0
  5 10  1  0  0  0  0
  8  2  1  0  0  0  0
  9  3  1  0  0  0  0
 10 11  2  0  0  0  0
 11 12  1  0  0  0  0
 12 13  1  0  0  0  0
M  END
>  <minimizedAffinity>
-3.1141386

$$$$

 OpenBabel03242510063D

 13 13  0  0  0  0  0  0  0  0999 V2000
   36.9370   30.5680   38.2390 C   0  0  0  0  0  0  0  0  0  0  0  0
   37.1520   31.8860   38.7210 C   0  0  0  0  0  0  0  0  0  0  0  0
   37.0000   32.0950   40.0910 C   0  0  0  0  0  0  0  0  0  0  0  0
   36.6560   31.0440   40.8920 N   0  0  0  0  0  0  0  0  0  0  0  0
   36.4610   29.8010   40.3830 C   0  0  0  0  0  0  0  0  0  0  0  0
   36.5980   29.5660   39.0740 N   0  0  0  0  0  0  0  0  0  0  0  0
   37.0580   30.4160   37.1720 H   0  0  0  0  0  0  0  0  0  0  0  0
   37.4210   32.6930   38.0760 H   0  0  0  0  0  0  0  0  0  0  0  0
   37.1450   33.0730   40.5520 H   0  0  0  0  0  0  0  0  0  0  0  0
   36.0960   28.7500   41.3300 C   0  0  0  0  0  3  0  0  0  0  0  0
   36.9330   28.4000   42.2750 C   0  0  0  0  0  3  0  0  0  0  0  0
   36.5260   27.3140   43.2350 C   0  0  0  0  0  2  0  0  0  0  0  0
   37.1900   27.2910   44.1010 H   0  0  0  0  0  0  0  0  0  0  0  0
  1  2  2  0  0  0  0
  1  6  1  0  0  0  0
  2  3  1  0  0  0  0
  3  9  1  0  0  0  0
  3  4  2  0  0  0  0
  5  4  1  0  0  0  0
  5 10  1  0  0  0  0
  6  5  2  0  0  0  0
  7  1  1  0  0  0  0
  8  2  1  0  0  0  0
 10 11  2  0  0  0  0
 11 12  1  0  0  0  0
 12 13  1  0  0  0  0
M  END
>  <minimizedAffinity>
-3.11175609

$$$$

 OpenBabel03242510063D

 13 13  0  0  0  0  0  0  0  0999 V2000
   35.4550   29.5830   40.3880 C   0  0  0  0  0  0  0  0  0  0  0  0
   36.2250   30.7180   40.7550 C   0  0  0  0  0  0  0  0  0  0  0  0
   37.2990   30.5060   41.6170 C   0  0  0  0  0  0  0  0  0  0  0  0
   37.5570   29.2410   42.0640 N   0  0  0  0  0  0  0  0  0  0  0  0
   36.7910   28.1870   41.6840 C   0  0  0  0  0  0  0  0  0  0  0  0
   35.7530   28.3550   40.8580 N   0  0  0  0  0  0  0  0  0  0  0  0
   34.6220   29.7590   39.7160 H   0  0  0  0  0  0  0  0  0  0  0  0
   36.0050   31.6990   40.3930 H   0  0  0  0  0  0  0  0  0  0  0  0
   37.9470   31.3170   41.9540 H   0  0  0  0  0  0  0  0  0  0  0  0
   37.1550   26.8790   42.2210 C   0  0  0  0  0  3  0  0  0  0  0  0
   37.0250   25.8070   41.4790 C   0  0  0  0  0  3  0  0  0  0  0  0
   37.4110   24.4730   42.0630 C   0  0  0  0  0  2  0  0  0  0  0  0
   37.4880   23.7150   41.2810 H   0  0  0  0  0  0  0  0  0  0  0  0
  1  2  2  0  0  0  0
  1  6  1  0  0  0  0
  2  3  1  0  0  0  0
  3  9  1  0  0  0  0
  3  4  2  0  0  0  0
  5  4  1  0  0  0  0
  5 10  1  0  0  0  0
  6  5  2  0  0  0  0
  7  1  1  0  0  0  0
  8  2  1  0  0  0  0
 11 12  1  0  0  0  0
 11 10  2  0  0  0  0
 13 12  1  0  0  0  0
M  END
>  <minimizedAffinity>
-3.07416701

$$$$

 OpenBabel03242510063D

 13 13  0  0  0  0  0  0  0  0999 V2000
   38.9280   28.0450   43.1810 C   0  0  0  0  0  0  0  0  0  0  0  0
   37.6050   28.4010   43.5540 C   0  0  0  0  0  0  0  0  0  0  0  0
   36.6020   27.4660   43.3090 C   0  0  0  0  0  0  0  0  0  0  0  0
   36.9280   26.2720   42.7310 N   0  0  0  0  0  0  0  0  0  0  0  0
   38.2090   25.9780   42.3910 C   0  0  0  0  0  0  0  0  0  0  0  0
   39.1960   26.8530   42.6120 N   0  0  0  0  0  0  0  0  0  0  0  0
   39.7020   28.7800   43.3770 H   0  0  0  0  0  0  0  0  0  0  0  0
   37.3730   29.3410   44.0060 H   0  0  0  0  0  0  0  0  0  0  0  0
   35.5560   27.6510   43.5620 H   0  0  0  0  0  0  0  0  0  0  0  0
   38.4460   24.6740   41.7790 C   0  0  0  0  0  3  0  0  0  0  0  0
   37.4800   24.0670   41.1340 C   0  0  0  0  0  3  0  0  0  0  0  0
   37.7580   22.7230   40.5140 C   0  0  0  0  0  2  0  0  0  0  0  0
   36.9670   22.4470   39.8140 H   0  0  0  0  0  0  0  0  0  0  0  0
  1  7  1  0  0  0  0
  1  2  1  0  0  0  0
  2  8  1  0  0  0  0
  3  2  2  0  0  0  0
  3  9  1  0  0  0  0
  4  3  1  0  0  0  0
  5  6  1  0  0  0  0
  5  4  2  0  0  0  0
  6  1  2  0  0  0  0
 10  5  1  0  0  0  0
 11 10  2  0  0  0  0
 12 11  1  0  0  0  0
 13 12  1  0  0  0  0
M  END
>  <minimizedAffinity>
-3.00590539

$$$$

 OpenBabel03242510063D

 13 13  0  0  0  0  0  0  0  0999 V2000
   40.1960   24.7890   43.2050 C   0  0  0  0  0  0  0  0  0  0  0  0
   40.2590   26.1250   43.6790 C   0  0  0  0  0  0  0  0  0  0  0  0
   39.1520   26.9380   43.4400 C   0  0  0  0  0  0  0  0  0  0  0  0
   38.0780   26.4230   42.7730 N   0  0  0  0  0  0  0  0  0  0  0  0
   38.0650   25.1380   42.3380 C   0  0  0  0  0  0  0  0  0  0  0  0
   39.1100   24.3310   42.5500 N   0  0  0  0  0  0  0  0  0  0  0  0
   41.0620   24.1640   43.3960 H   0  0  0  0  0  0  0  0  0  0  0  0
   41.1100   26.5070   44.1990 H   0  0  0  0  0  0  0  0  0  0  0  0
   39.1100   27.9780   43.7670 H   0  0  0  0  0  0  0  0  0  0  0  0
   36.8650   24.6910   41.6350 C   0  0  0  0  0  3  0  0  0  0  0  0
   36.9720   23.9180   40.5830 C   0  0  0  0  0  3  0  0  0  0  0  0
   35.7160   23.4740   39.8810 C   0  0  0  0  0  2  0  0  0  0  0  0
   35.9240   22.6550   39.1910 H   0  0  0  0  0  0  0  0  0  0  0  0
  1  7  1  0  0  0  0
  1  2  1  0  0  0  0
  2  8  1  0  0  0  0
  3  2  2  0  0  0  0
  3  9  1  0  0  0  0
  4  3  1  0  0  0  0
  5  6  1  0  0  0  0
  5  4  2  0  0  0  0
  6  1  2  0  0  0  0
 10  5  1  0  0  0  0
 11 10  2  0  0  0  0
 12 11  1  0  0  0  0
 13 12  1  0  0  0  0
M  END
>  <minimizedAffinity>
-2.97179747

$$$$
