
 OpenBabel03252505553D

 28 29  0  0  0  0  0  0  0  0999 V2000
   38.0980   28.0810   43.6450 C   0  0  0  0  0  0  0  0  0  0  0  0
   38.9200   28.8510   43.6860 H   0  0  0  0  0  0  0  0  0  0  0  0
   37.6240   28.1030   44.6480 H   0  0  0  0  0  0  0  0  0  0  0  0
   38.6180   26.7470   43.3200 C   0  0  0  0  0  0  0  0  0  0  0  0
   39.8170   26.1470   43.6070 C   0  0  0  0  0  0  0  0  0  0  0  0
   40.0490   24.8630   43.1640 C   0  0  0  0  0  0  0  0  0  0  0  0
   39.1310   24.1800   42.4590 N   0  0  0  0  0  0  0  0  0  0  0  0
   37.9640   24.7670   42.1810 C   0  0  0  0  0  0  0  0  0  0  0  0
   37.7080   26.0330   42.6050 N   0  0  0  0  0  0  0  0  0  0  0  0
   40.4670   26.7940   44.1770 H   0  0  0  0  0  0  0  0  0  0  0  0
   41.0340   24.4630   43.4380 H   0  0  0  0  0  0  0  0  0  0  0  0
   36.9370   24.0730   41.4220 C   0  0  0  0  0  3  0  0  0  0  0  0
   36.5760   24.3800   40.1960 C   0  0  0  0  0  3  0  0  0  0  0  0
   35.5050   23.6210   39.4660 C   0  0  0  0  0  2  0  0  0  0  0  0
   35.9120   22.9830   38.6830 H   0  0  0  0  0  0  0  0  0  0  0  0
   37.2040   28.4610   42.6240 O   0  0  0  0  0  0  0  0  0  0  0  0
   38.7890   31.4020   41.4240 C   0  0  0  0  0  0  0  0  0  0  0  0
   37.8130   32.0320   40.6580 C   0  0  0  0  0  0  0  0  0  0  0  0
   36.5720   31.3990   40.5690 C   0  0  0  0  0  0  0  0  0  0  0  0
   36.3730   30.2260   41.2140 N   0  0  0  0  0  0  0  0  0  0  0  0
   37.3600   29.6680   41.9400 C   0  0  0  0  0  0  0  0  0  0  0  0
   38.5720   30.2300   42.0620 N   0  0  0  0  0  0  0  0  0  0  0  0
   39.7800   31.8580   41.5260 H   0  0  0  0  0  0  0  0  0  0  0  0
   35.8210   31.8940   39.9680 H   0  0  0  0  0  0  0  0  0  0  0  0
   38.1670   33.3180   40.0010 C   0  0  0  0  0  0  0  0  0  0  0  0
   37.0070   33.7780   39.4290 F   0  0  0  0  0  0  0  0  0  0  0  0
   39.1150   32.9950   39.0130 F   0  0  0  0  0  0  0  0  0  0  0  0
   38.6870   34.1610   40.9500 F   0  0  0  0  0  0  0  0  0  0  0  0
  1  2  1  0  0  0  0
  1  3  1  0  0  0  0
  4  5  1  0  0  0  0
  4  1  1  0  0  0  0
  5 10  1  0  0  0  0
  6 11  1  0  0  0  0
  6  5  2  0  0  0  0
  7  6  1  0  0  0  0
  8  7  2  0  0  0  0
  8  9  1  0  0  0  0
  9  4  2  0  0  0  0
 12  8  1  0  0  0  0
 13 12  2  0  0  0  0
 14 13  1  0  0  0  0
 15 14  1  0  0  0  0
 16  1  1  0  0  0  0
 17 23  1  0  0  0  0
 17 22  1  0  0  0  0
 18 17  2  0  0  0  0
 19 18  1  0  0  0  0
 19 20  2  0  0  0  0
 20 21  1  0  0  0  0
 21 22  2  0  0  0  0
 21 16  1  0  0  0  0
 24 19  1  0  0  0  0
 25 18  1  0  0  0  0
 25 28  1  0  0  0  0
 26 25  1  0  0  0  0
 27 25  1  0  0  0  0
M  END
>  <minimizedAffinity>
-5.52401257

$$$$

 OpenBabel03252505553D

 28 29  0  0  0  0  0  0  0  0999 V2000
   36.6180   27.5970   42.9660 C   0  0  0  0  0  0  0  0  0  0  0  0
   36.0970   27.5590   43.9650 H   0  0  0  0  0  0  0  0  0  0  0  0
   35.8150   27.7760   42.2220 H   0  0  0  0  0  0  0  0  0  0  0  0
   37.3490   26.3540   42.6870 C   0  0  0  0  0  0  0  0  0  0  0  0
   36.9600   25.1920   42.0730 C   0  0  0  0  0  0  0  0  0  0  0  0
   37.8660   24.1610   41.9480 C   0  0  0  0  0  0  0  0  0  0  0  0
   39.1230   24.2640   42.4110 N   0  0  0  0  0  0  0  0  0  0  0  0
   39.4990   25.3980   43.0080 C   0  0  0  0  0  0  0  0  0  0  0  0
   38.6270   26.4300   43.1460 N   0  0  0  0  0  0  0  0  0  0  0  0
   35.9310   25.2320   41.7450 H   0  0  0  0  0  0  0  0  0  0  0  0
   37.4670   23.2700   41.4460 H   0  0  0  0  0  0  0  0  0  0  0  0
   40.8480   25.5610   43.5260 C   0  0  0  0  0  3  0  0  0  0  0  0
   41.9460   25.3370   42.8370 C   0  0  0  0  0  3  0  0  0  0  0  0
   43.3120   25.5250   43.4320 C   0  0  0  0  0  2  0  0  0  0  0  0
   43.8120   26.4120   43.0470 H   0  0  0  0  0  0  0  0  0  0  0  0
   37.5520   28.6520   43.0090 O   0  0  0  0  0  0  0  0  0  0  0  0
   38.7160   31.3330   40.9960 C   0  0  0  0  0  0  0  0  0  0  0  0
   37.5940   31.7370   40.2760 C   0  0  0  0  0  0  0  0  0  0  0  0
   36.4060   31.0420   40.5140 C   0  0  0  0  0  0  0  0  0  0  0  0
   36.3940   30.0290   41.4110 N   0  0  0  0  0  0  0  0  0  0  0  0
   37.5140   29.6880   42.0750 C   0  0  0  0  0  0  0  0  0  0  0  0
   38.6840   30.3190   41.8880 N   0  0  0  0  0  0  0  0  0  0  0  0
   39.6720   31.8460   40.8460 H   0  0  0  0  0  0  0  0  0  0  0  0
   35.5420   31.3600   39.9480 H   0  0  0  0  0  0  0  0  0  0  0  0
   37.7500   32.8650   39.3200 C   0  0  0  0  0  0  0  0  0  0  0  0
   37.0920   33.9280   39.8860 F   0  0  0  0  0  0  0  0  0  0  0  0
   37.1100   32.4540   38.1370 F   0  0  0  0  0  0  0  0  0  0  0  0
   39.0900   33.0850   39.1250 F   0  0  0  0  0  0  0  0  0  0  0  0
  1 16  1  0  0  0  0
  1  2  1  0  0  0  0
  3  1  1  0  0  0  0
  4  1  1  0  0  0  0
  4  9  1  0  0  0  0
  5  4  2  0  0  0  0
  6  5  1  0  0  0  0
  6  7  2  0  0  0  0
  7  8  1  0  0  0  0
  8  9  2  0  0  0  0
  8 12  1  0  0  0  0
 10  5  1  0  0  0  0
 11  6  1  0  0  0  0
 13 14  1  0  0  0  0
 13 12  2  0  0  0  0
 15 14  1  0  0  0  0
 17 22  1  0  0  0  0
 18 19  1  0  0  0  0
 18 17  2  0  0  0  0
 19 20  2  0  0  0  0
 20 21  1  0  0  0  0
 21 16  1  0  0  0  0
 22 21  2  0  0  0  0
 23 17  1  0  0  0  0
 24 19  1  0  0  0  0
 25 26  1  0  0  0  0
 25 18  1  0  0  0  0
 27 25  1  0  0  0  0
 28 25  1  0  0  0  0
M  END
>  <minimizedAffinity>
-5.40220165

$$$$

 OpenBabel03252505553D

 28 29  0  0  0  0  0  0  0  0999 V2000
   37.2910   27.9770   43.2800 C   0  0  0  0  0  0  0  0  0  0  0  0
   37.8910   28.9200   43.4230 H   0  0  0  0  0  0  0  0  0  0  0  0
   36.6470   27.8990   44.1800 H   0  0  0  0  0  0  0  0  0  0  0  0
   38.1560   26.8000   43.1290 C   0  0  0  0  0  0  0  0  0  0  0  0
   39.3750   26.4940   43.6780 C   0  0  0  0  0  0  0  0  0  0  0  0
   39.9790   25.2990   43.3520 C   0  0  0  0  0  0  0  0  0  0  0  0
   39.4060   24.4230   42.5090 N   0  0  0  0  0  0  0  0  0  0  0  0
   38.2180   24.7240   41.9760 C   0  0  0  0  0  0  0  0  0  0  0  0
   37.6000   25.8950   42.2800 N   0  0  0  0  0  0  0  0  0  0  0  0
   39.7290   27.2740   44.3370 H   0  0  0  0  0  0  0  0  0  0  0  0
   40.9510   25.1380   43.8360 H   0  0  0  0  0  0  0  0  0  0  0  0
   37.5550   23.8100   41.0600 C   0  0  0  0  0  3  0  0  0  0  0  0
   36.3460   23.9860   40.5740 C   0  0  0  0  0  3  0  0  0  0  0  0
   35.7160   23.0020   39.6290 C   0  0  0  0  0  2  0  0  0  0  0  0
   35.6710   23.3800   38.6090 H   0  0  0  0  0  0  0  0  0  0  0  0
   36.5400   28.1200   42.0960 O   0  0  0  0  0  0  0  0  0  0  0  0
   37.5660   29.7520   39.1160 C   0  0  0  0  0  0  0  0  0  0  0  0
   37.3290   31.1020   39.3610 C   0  0  0  0  0  0  0  0  0  0  0  0
   36.7950   31.4330   40.6090 C   0  0  0  0  0  0  0  0  0  0  0  0
   36.5360   30.4530   41.5050 N   0  0  0  0  0  0  0  0  0  0  0  0
   36.7890   29.1650   41.2060 C   0  0  0  0  0  0  0  0  0  0  0  0
   37.3010   28.7880   40.0240 N   0  0  0  0  0  0  0  0  0  0  0  0
   37.9840   29.4400   38.1530 H   0  0  0  0  0  0  0  0  0  0  0  0
   36.6100   32.4830   40.7890 H   0  0  0  0  0  0  0  0  0  0  0  0
   37.6580   32.0730   38.2850 C   0  0  0  0  0  0  0  0  0  0  0  0
   39.0060   32.3060   38.3920 F   0  0  0  0  0  0  0  0  0  0  0  0
   36.9260   33.2370   38.5830 F   0  0  0  0  0  0  0  0  0  0  0  0
   37.2850   31.5300   37.0820 F   0  0  0  0  0  0  0  0  0  0  0  0
  1  2  1  0  0  0  0
  1  3  1  0  0  0  0
  4  1  1  0  0  0  0
  4  5  1  0  0  0  0
  5 10  1  0  0  0  0
  6  5  2  0  0  0  0
  6 11  1  0  0  0  0
  7  6  1  0  0  0  0
  8  9  1  0  0  0  0
  8  7  2  0  0  0  0
  9  4  2  0  0  0  0
 12  8  1  0  0  0  0
 13 12  2  0  0  0  0
 14 13  1  0  0  0  0
 15 14  1  0  0  0  0
 16  1  1  0  0  0  0
 17 18  2  0  0  0  0
 17 22  1  0  0  0  0
 18 19  1  0  0  0  0
 19 24  1  0  0  0  0
 19 20  2  0  0  0  0
 21 20  1  0  0  0  0
 21 16  1  0  0  0  0
 22 21  2  0  0  0  0
 23 17  1  0  0  0  0
 25 26  1  0  0  0  0
 25 27  1  0  0  0  0
 25 18  1  0  0  0  0
 28 25  1  0  0  0  0
M  END
>  <minimizedAffinity>
-5.18469095

$$$$

 OpenBabel03252505553D

 28 29  0  0  0  0  0  0  0  0999 V2000
   39.8460   30.9070   41.8400 C   0  0  0  0  0  0  0  0  0  0  0  0
   40.6380   31.5010   42.3800 H   0  0  0  0  0  0  0  0  0  0  0  0
   40.3980   30.1460   41.2520 H   0  0  0  0  0  0  0  0  0  0  0  0
   39.0170   31.7620   40.9810 C   0  0  0  0  0  0  0  0  0  0  0  0
   38.8790   33.1250   40.9190 C   0  0  0  0  0  0  0  0  0  0  0  0
   38.0080   33.6720   40.0030 C   0  0  0  0  0  0  0  0  0  0  0  0
   37.2870   32.9060   39.1660 N   0  0  0  0  0  0  0  0  0  0  0  0
   37.4240   31.5790   39.2280 C   0  0  0  0  0  0  0  0  0  0  0  0
   38.2760   31.0120   40.1210 N   0  0  0  0  0  0  0  0  0  0  0  0
   39.5090   33.6280   41.6390 H   0  0  0  0  0  0  0  0  0  0  0  0
   37.9600   34.7690   40.0260 H   0  0  0  0  0  0  0  0  0  0  0  0
   36.6690   30.7060   38.3440 C   0  0  0  0  0  3  0  0  0  0  0  0
   35.9990   29.6440   38.7350 C   0  0  0  0  0  3  0  0  0  0  0  0
   35.2380   28.7810   37.7690 C   0  0  0  0  0  2  0  0  0  0  0  0
   34.1610   28.9130   37.8580 H   0  0  0  0  0  0  0  0  0  0  0  0
   39.0080   30.3250   42.8140 O   0  0  0  0  0  0  0  0  0  0  0  0
   39.0430   26.8900   41.9240 C   0  0  0  0  0  0  0  0  0  0  0  0
   37.8150   26.4060   42.3650 C   0  0  0  0  0  0  0  0  0  0  0  0
   36.9630   27.3200   42.9890 C   0  0  0  0  0  0  0  0  0  0  0  0
   37.3560   28.6060   43.1360 N   0  0  0  0  0  0  0  0  0  0  0  0
   38.5580   29.0110   42.6860 C   0  0  0  0  0  0  0  0  0  0  0  0
   39.4190   28.1780   42.0790 N   0  0  0  0  0  0  0  0  0  0  0  0
   39.7480   26.2130   41.4270 H   0  0  0  0  0  0  0  0  0  0  0  0
   36.0130   26.9340   43.3320 H   0  0  0  0  0  0  0  0  0  0  0  0
   37.5120   24.9680   42.1400 C   0  0  0  0  0  0  0  0  0  0  0  0
   38.5220   24.2720   42.7550 F   0  0  0  0  0  0  0  0  0  0  0  0
   37.5530   24.7810   40.7460 F   0  0  0  0  0  0  0  0  0  0  0  0
   36.2670   24.7020   42.6530 F   0  0  0  0  0  0  0  0  0  0  0  0
  1  2  1  0  0  0  0
  1 16  1  0  0  0  0
  3  1  1  0  0  0  0
  4  1  1  0  0  0  0
  5  4  1  0  0  0  0
  5 10  1  0  0  0  0
  6 11  1  0  0  0  0
  6  5  2  0  0  0  0
  7  8  2  0  0  0  0
  7  6  1  0  0  0  0
  8  9  1  0  0  0  0
  9  4  2  0  0  0  0
 12 13  2  0  0  0  0
 12  8  1  0  0  0  0
 14 15  1  0  0  0  0
 14 13  1  0  0  0  0
 17 22  2  0  0  0  0
 17 18  1  0  0  0  0
 18 19  2  0  0  0  0
 19 20  1  0  0  0  0
 19 24  1  0  0  0  0
 21 16  1  0  0  0  0
 21 20  2  0  0  0  0
 22 21  1  0  0  0  0
 23 17  1  0  0  0  0
 25 18  1  0  0  0  0
 25 28  1  0  0  0  0
 25 26  1  0  0  0  0
 27 25  1  0  0  0  0
M  END
>  <minimizedAffinity>
-5.15558052

$$$$

 OpenBabel03252505553D

 28 29  0  0  0  0  0  0  0  0999 V2000
   36.5840   31.1530   40.5500 C   0  0  0  0  0  0  0  0  0  0  0  0
   36.6060   30.4370   39.6810 H   0  0  0  0  0  0  0  0  0  0  0  0
   35.5800   31.6240   40.5190 H   0  0  0  0  0  0  0  0  0  0  0  0
   37.6560   32.1530   40.4580 C   0  0  0  0  0  0  0  0  0  0  0  0
   37.6630   33.4310   39.9610 C   0  0  0  0  0  0  0  0  0  0  0  0
   38.8330   34.1590   39.9930 C   0  0  0  0  0  0  0  0  0  0  0  0
   39.9690   33.6510   40.5000 N   0  0  0  0  0  0  0  0  0  0  0  0
   39.9580   32.4060   40.9830 C   0  0  0  0  0  0  0  0  0  0  0  0
   38.8200   31.6650   40.9640 N   0  0  0  0  0  0  0  0  0  0  0  0
   36.6940   33.7250   39.5840 H   0  0  0  0  0  0  0  0  0  0  0  0
   38.7460   35.1700   39.5730 H   0  0  0  0  0  0  0  0  0  0  0  0
   41.1600   31.8090   41.5440 C   0  0  0  0  0  3  0  0  0  0  0  0
   41.1960   31.0920   42.6460 C   0  0  0  0  0  3  0  0  0  0  0  0
   42.4730   30.5030   43.1710 C   0  0  0  0  0  2  0  0  0  0  0  0
   42.5200   29.4240   43.0280 H   0  0  0  0  0  0  0  0  0  0  0  0
   36.7860   30.4050   41.7280 O   0  0  0  0  0  0  0  0  0  0  0  0
   37.4170   27.1100   42.8870 C   0  0  0  0  0  0  0  0  0  0  0  0
   37.2750   26.3130   41.7550 C   0  0  0  0  0  0  0  0  0  0  0  0
   36.9500   26.9610   40.5620 C   0  0  0  0  0  0  0  0  0  0  0  0
   36.7890   28.3050   40.5540 N   0  0  0  0  0  0  0  0  0  0  0  0
   36.9410   29.0190   41.6850 C   0  0  0  0  0  0  0  0  0  0  0  0
   37.2530   28.4510   42.8600 N   0  0  0  0  0  0  0  0  0  0  0  0
   37.6720   26.6510   43.8490 H   0  0  0  0  0  0  0  0  0  0  0  0
   36.8380   26.3330   39.6890 H   0  0  0  0  0  0  0  0  0  0  0  0
   37.4780   24.8480   41.9070 C   0  0  0  0  0  0  0  0  0  0  0  0
   36.3160   24.3640   42.4540 F   0  0  0  0  0  0  0  0  0  0  0  0
   38.5510   24.7010   42.8040 F   0  0  0  0  0  0  0  0  0  0  0  0
   37.7680   24.3210   40.6740 F   0  0  0  0  0  0  0  0  0  0  0  0
  1 16  1  0  0  0  0
  2  1  1  0  0  0  0
  3  1  1  0  0  0  0
  4  1  1  0  0  0  0
  4  9  1  0  0  0  0
  5  6  1  0  0  0  0
  5  4  2  0  0  0  0
  6  7  2  0  0  0  0
  7  8  1  0  0  0  0
  8 12  1  0  0  0  0
  9  8  2  0  0  0  0
 10  5  1  0  0  0  0
 11  6  1  0  0  0  0
 12 13  2  0  0  0  0
 13 14  1  0  0  0  0
 15 14  1  0  0  0  0
 17 23  1  0  0  0  0
 18 25  1  0  0  0  0
 18 17  2  0  0  0  0
 19 18  1  0  0  0  0
 20 19  2  0  0  0  0
 20 21  1  0  0  0  0
 21 16  1  0  0  0  0
 21 22  2  0  0  0  0
 22 17  1  0  0  0  0
 24 19  1  0  0  0  0
 25 26  1  0  0  0  0
 25 27  1  0  0  0  0
 28 25  1  0  0  0  0
M  END
>  <minimizedAffinity>
-5.13762999

$$$$

 OpenBabel03252505553D

 28 29  0  0  0  0  0  0  0  0999 V2000
   37.7040   30.9190   37.8880 C   0  0  0  0  0  0  0  0  0  0  0  0
   37.9050   31.0600   36.7880 H   0  0  0  0  0  0  0  0  0  0  0  0
   36.6090   30.7690   37.9720 H   0  0  0  0  0  0  0  0  0  0  0  0
   38.1560   32.0730   38.6760 C   0  0  0  0  0  0  0  0  0  0  0  0
   37.4680   32.9530   39.4710 C   0  0  0  0  0  0  0  0  0  0  0  0
   38.1530   33.9700   40.1000 C   0  0  0  0  0  0  0  0  0  0  0  0
   39.4800   34.1230   39.9540 N   0  0  0  0  0  0  0  0  0  0  0  0
   40.1480   33.2650   39.1790 C   0  0  0  0  0  0  0  0  0  0  0  0
   39.4980   32.2530   38.5470 N   0  0  0  0  0  0  0  0  0  0  0  0
   36.4120   32.7250   39.5080 H   0  0  0  0  0  0  0  0  0  0  0  0
   37.5230   34.6260   40.7150 H   0  0  0  0  0  0  0  0  0  0  0  0
   41.5840   33.3870   38.9890 C   0  0  0  0  0  3  0  0  0  0  0  0
   42.4330   33.7660   39.9200 C   0  0  0  0  0  3  0  0  0  0  0  0
   43.9080   33.8710   39.6580 C   0  0  0  0  0  2  0  0  0  0  0  0
   44.4700   33.0700   40.1350 H   0  0  0  0  0  0  0  0  0  0  0  0
   38.4310   29.7890   38.3150 O   0  0  0  0  0  0  0  0  0  0  0  0
   38.4050   28.5070   41.6250 C   0  0  0  0  0  0  0  0  0  0  0  0
   37.3240   27.6300   41.6470 C   0  0  0  0  0  0  0  0  0  0  0  0
   36.5950   27.4950   40.4640 C   0  0  0  0  0  0  0  0  0  0  0  0
   36.9590   28.2050   39.3710 N   0  0  0  0  0  0  0  0  0  0  0  0
   38.0160   29.0370   39.4150 C   0  0  0  0  0  0  0  0  0  0  0  0
   38.7540   29.2070   40.5240 N   0  0  0  0  0  0  0  0  0  0  0  0
   39.0100   28.6480   42.5280 H   0  0  0  0  0  0  0  0  0  0  0  0
   35.7550   26.8150   40.4920 H   0  0  0  0  0  0  0  0  0  0  0  0
   37.0340   26.9150   42.9180 C   0  0  0  0  0  0  0  0  0  0  0  0
   38.1700   27.0290   43.6790 F   0  0  0  0  0  0  0  0  0  0  0  0
   36.8060   25.5740   42.5590 F   0  0  0  0  0  0  0  0  0  0  0  0
   35.9250   27.4850   43.4920 F   0  0  0  0  0  0  0  0  0  0  0  0
  1  3  1  0  0  0  0
  1 16  1  0  0  0  0
  1  4  1  0  0  0  0
  2  1  1  0  0  0  0
  4  5  1  0  0  0  0
  5 10  1  0  0  0  0
  5  6  2  0  0  0  0
  6 11  1  0  0  0  0
  7  6  1  0  0  0  0
  8  7  2  0  0  0  0
  9  4  2  0  0  0  0
  9  8  1  0  0  0  0
 12  8  1  0  0  0  0
 12 13  2  0  0  0  0
 14 13  1  0  0  0  0
 14 15  1  0  0  0  0
 16 21  1  0  0  0  0
 17 18  1  0  0  0  0
 17 23  1  0  0  0  0
 18 25  1  0  0  0  0
 19 24  1  0  0  0  0
 19 18  2  0  0  0  0
 20 21  2  0  0  0  0
 20 19  1  0  0  0  0
 21 22  1  0  0  0  0
 22 17  2  0  0  0  0
 25 28  1  0  0  0  0
 25 26  1  0  0  0  0
 27 25  1  0  0  0  0
M  END
>  <minimizedAffinity>
-4.85197973

$$$$

 OpenBabel03252505553D

 28 29  0  0  0  0  0  0  0  0999 V2000
   36.5800   31.3010   40.2820 C   0  0  0  0  0  0  0  0  0  0  0  0
   36.3660   30.5380   39.4800 H   0  0  0  0  0  0  0  0  0  0  0  0
   35.6820   31.9510   40.3180 H   0  0  0  0  0  0  0  0  0  0  0  0
   37.7960   32.0710   39.9880 C   0  0  0  0  0  0  0  0  0  0  0  0
   38.2230   33.2950   40.4330 C   0  0  0  0  0  0  0  0  0  0  0  0
   39.4260   33.7930   39.9810 C   0  0  0  0  0  0  0  0  0  0  0  0
   40.1930   33.1110   39.1140 N   0  0  0  0  0  0  0  0  0  0  0  0
   39.7750   31.9190   38.6830 C   0  0  0  0  0  0  0  0  0  0  0  0
   38.5930   31.4030   39.1110 N   0  0  0  0  0  0  0  0  0  0  0  0
   37.5230   33.7420   41.1240 H   0  0  0  0  0  0  0  0  0  0  0  0
   39.6870   34.7790   40.3880 H   0  0  0  0  0  0  0  0  0  0  0  0
   40.5680   31.1390   37.7460 C   0  0  0  0  0  3  0  0  0  0  0  0
   40.7860   29.8460   37.8440 C   0  0  0  0  0  3  0  0  0  0  0  0
   41.6170   29.1000   36.8410 C   0  0  0  0  0  2  0  0  0  0  0  0
   41.0110   28.4700   36.1900 H   0  0  0  0  0  0  0  0  0  0  0  0
   36.7860   30.6060   41.4910 O   0  0  0  0  0  0  0  0  0  0  0  0
   37.2830   27.3510   42.8160 C   0  0  0  0  0  0  0  0  0  0  0  0
   37.2610   26.5170   41.7020 C   0  0  0  0  0  0  0  0  0  0  0  0
   37.0660   27.1260   40.4600 C   0  0  0  0  0  0  0  0  0  0  0  0
   36.9100   28.4690   40.3920 N   0  0  0  0  0  0  0  0  0  0  0  0
   36.9420   29.2200   41.5090 C   0  0  0  0  0  0  0  0  0  0  0  0
   37.1250   28.6900   42.7290 N   0  0  0  0  0  0  0  0  0  0  0  0
   37.4330   26.9230   43.8140 H   0  0  0  0  0  0  0  0  0  0  0  0
   37.0470   26.4700   39.6010 H   0  0  0  0  0  0  0  0  0  0  0  0
   37.4440   25.0580   41.9210 C   0  0  0  0  0  0  0  0  0  0  0  0
   37.4670   24.4920   40.6710 F   0  0  0  0  0  0  0  0  0  0  0  0
   36.3110   24.6340   42.6390 F   0  0  0  0  0  0  0  0  0  0  0  0
   38.6000   24.8690   42.6350 F   0  0  0  0  0  0  0  0  0  0  0  0
  1  3  1  0  0  0  0
  1 16  1  0  0  0  0
  2  1  1  0  0  0  0
  4  1  1  0  0  0  0
  4  5  1  0  0  0  0
  5 10  1  0  0  0  0
  6 11  1  0  0  0  0
  6  5  2  0  0  0  0
  7  6  1  0  0  0  0
  8  9  1  0  0  0  0
  8  7  2  0  0  0  0
  9  4  2  0  0  0  0
 12 13  2  0  0  0  0
 12  8  1  0  0  0  0
 14 13  1  0  0  0  0
 15 14  1  0  0  0  0
 16 21  1  0  0  0  0
 17 23  1  0  0  0  0
 18 25  1  0  0  0  0
 18 17  2  0  0  0  0
 19 18  1  0  0  0  0
 20 19  2  0  0  0  0
 20 21  1  0  0  0  0
 21 22  2  0  0  0  0
 22 17  1  0  0  0  0
 24 19  1  0  0  0  0
 25 28  1  0  0  0  0
 25 27  1  0  0  0  0
 26 25  1  0  0  0  0
M  END
>  <minimizedAffinity>
-4.74564075

$$$$

 OpenBabel03252505553D

 28 29  0  0  0  0  0  0  0  0999 V2000
   36.8340   27.6690   43.0990 C   0  0  0  0  0  0  0  0  0  0  0  0
   36.4880   27.2920   44.1040 H   0  0  0  0  0  0  0  0  0  0  0  0
   35.9210   28.0470   42.5960 H   0  0  0  0  0  0  0  0  0  0  0  0
   37.4880   26.6120   42.3180 C   0  0  0  0  0  0  0  0  0  0  0  0
   38.5400   25.7840   42.6140 C   0  0  0  0  0  0  0  0  0  0  0  0
   38.9610   24.8690   41.6730 C   0  0  0  0  0  0  0  0  0  0  0  0
   38.3680   24.7650   40.4720 N   0  0  0  0  0  0  0  0  0  0  0  0
   37.3430   25.5720   40.1870 C   0  0  0  0  0  0  0  0  0  0  0  0
   36.9070   26.4840   41.0940 N   0  0  0  0  0  0  0  0  0  0  0  0
   38.9300   25.9630   43.6050 H   0  0  0  0  0  0  0  0  0  0  0  0
   39.8090   24.2500   41.9950 H   0  0  0  0  0  0  0  0  0  0  0  0
   36.6660   25.4990   38.9020 C   0  0  0  0  0  3  0  0  0  0  0  0
   35.8890   26.4390   38.4110 C   0  0  0  0  0  3  0  0  0  0  0  0
   35.2180   26.3010   37.0750 C   0  0  0  0  0  2  0  0  0  0  0  0
   35.6720   26.9370   36.3170 H   0  0  0  0  0  0  0  0  0  0  0  0
   37.7790   28.6900   43.3270 O   0  0  0  0  0  0  0  0  0  0  0  0
   36.8940   31.0840   40.8600 C   0  0  0  0  0  0  0  0  0  0  0  0
   38.0660   31.8020   40.6400 C   0  0  0  0  0  0  0  0  0  0  0  0
   39.1880   31.4260   41.3830 C   0  0  0  0  0  0  0  0  0  0  0  0
   39.0920   30.4050   42.2650 N   0  0  0  0  0  0  0  0  0  0  0  0
   37.9280   29.7490   42.4310 C   0  0  0  0  0  0  0  0  0  0  0  0
   36.8180   30.0660   41.7460 N   0  0  0  0  0  0  0  0  0  0  0  0
   35.9860   31.3380   40.3020 H   0  0  0  0  0  0  0  0  0  0  0  0
   40.0920   31.9920   41.2080 H   0  0  0  0  0  0  0  0  0  0  0  0
   38.0300   32.9030   39.6410 C   0  0  0  0  0  0  0  0  0  0  0  0
   38.0400   34.0670   40.3680 F   0  0  0  0  0  0  0  0  0  0  0  0
   36.8120   32.7550   38.9520 F   0  0  0  0  0  0  0  0  0  0  0  0
   39.1090   32.7650   38.8050 F   0  0  0  0  0  0  0  0  0  0  0  0
  1 16  1  0  0  0  0
  1  2  1  0  0  0  0
  3  1  1  0  0  0  0
  4  5  1  0  0  0  0
  4  1  1  0  0  0  0
  5 10  1  0  0  0  0
  6 11  1  0  0  0  0
  6  5  2  0  0  0  0
  7  6  1  0  0  0  0
  8  7  2  0  0  0  0
  8  9  1  0  0  0  0
  9  4  2  0  0  0  0
 12  8  1  0  0  0  0
 13 12  2  0  0  0  0
 14 13  1  0  0  0  0
 15 14  1  0  0  0  0
 17 22  1  0  0  0  0
 18 17  2  0  0  0  0
 18 19  1  0  0  0  0
 19 20  2  0  0  0  0
 20 21  1  0  0  0  0
 21 16  1  0  0  0  0
 22 21  2  0  0  0  0
 23 17  1  0  0  0  0
 24 19  1  0  0  0  0
 25 26  1  0  0  0  0
 25 18  1  0  0  0  0
 27 25  1  0  0  0  0
 28 25  1  0  0  0  0
M  END
>  <minimizedAffinity>
-4.73856735

$$$$

 OpenBabel03252505553D

 28 29  0  0  0  0  0  0  0  0999 V2000
   37.8710   30.8120   37.7150 C   0  0  0  0  0  0  0  0  0  0  0  0
   38.2100   29.7480   37.5660 H   0  0  0  0  0  0  0  0  0  0  0  0
   37.5040   31.1470   36.7240 H   0  0  0  0  0  0  0  0  0  0  0  0
   38.9610   31.6660   38.2060 C   0  0  0  0  0  0  0  0  0  0  0  0
   38.9840   32.6430   39.1680 C   0  0  0  0  0  0  0  0  0  0  0  0
   40.1650   33.3030   39.4270 C   0  0  0  0  0  0  0  0  0  0  0  0
   41.2970   33.0170   38.7620 N   0  0  0  0  0  0  0  0  0  0  0  0
   41.2720   32.0640   37.8260 C   0  0  0  0  0  0  0  0  0  0  0  0
   40.1210   31.3960   37.5490 N   0  0  0  0  0  0  0  0  0  0  0  0
   38.0170   32.7790   39.6300 H   0  0  0  0  0  0  0  0  0  0  0  0
   40.0910   34.0700   40.2100 H   0  0  0  0  0  0  0  0  0  0  0  0
   42.4690   31.7150   37.0790 C   0  0  0  0  0  3  0  0  0  0  0  0
   42.6030   30.6320   36.3450 C   0  0  0  0  0  3  0  0  0  0  0  0
   43.8700   30.3290   35.5960 C   0  0  0  0  0  2  0  0  0  0  0  0
   43.7590   30.4730   34.5220 H   0  0  0  0  0  0  0  0  0  0  0  0
   36.8510   30.8050   38.6880 O   0  0  0  0  0  0  0  0  0  0  0  0
   37.0720   27.6910   40.3780 C   0  0  0  0  0  0  0  0  0  0  0  0
   36.9380   28.0190   41.7240 C   0  0  0  0  0  0  0  0  0  0  0  0
   36.7670   29.3700   42.0320 C   0  0  0  0  0  0  0  0  0  0  0  0
   36.7390   30.2840   41.0340 N   0  0  0  0  0  0  0  0  0  0  0  0
   36.8740   29.9020   39.7510 C   0  0  0  0  0  0  0  0  0  0  0  0
   37.0410   28.6180   39.3950 N   0  0  0  0  0  0  0  0  0  0  0  0
   37.2080   26.6450   40.0820 H   0  0  0  0  0  0  0  0  0  0  0  0
   36.6680   29.6150   43.0810 H   0  0  0  0  0  0  0  0  0  0  0  0
   36.9900   26.9130   42.7170 C   0  0  0  0  0  0  0  0  0  0  0  0
   38.2740   26.9040   43.2000 F   0  0  0  0  0  0  0  0  0  0  0  0
   36.7190   25.7370   41.9950 F   0  0  0  0  0  0  0  0  0  0  0  0
   36.0400   27.1510   43.6790 F   0  0  0  0  0  0  0  0  0  0  0  0
  1  4  1  0  0  0  0
  1 16  1  0  0  0  0
  2  1  1  0  0  0  0
  3  1  1  0  0  0  0
  4  5  1  0  0  0  0
  5  6  2  0  0  0  0
  5 10  1  0  0  0  0
  6 11  1  0  0  0  0
  7  6  1  0  0  0  0
  8  7  2  0  0  0  0
  9  8  1  0  0  0  0
  9  4  2  0  0  0  0
 12  8  1  0  0  0  0
 13 12  2  0  0  0  0
 14 13  1  0  0  0  0
 15 14  1  0  0  0  0
 16 21  1  0  0  0  0
 17 18  1  0  0  0  0
 18 19  2  0  0  0  0
 18 25  1  0  0  0  0
 19 24  1  0  0  0  0
 20 19  1  0  0  0  0
 21 20  2  0  0  0  0
 22 21  1  0  0  0  0
 22 17  2  0  0  0  0
 23 17  1  0  0  0  0
 25 26  1  0  0  0  0
 25 28  1  0  0  0  0
 27 25  1  0  0  0  0
M  END
>  <minimizedAffinity>
-4.72756863

$$$$
