
 OpenBabel03252506253D

 40 43  0  0  0  0  0  0  0  0999 V2000
   46.0060   29.9350   48.2470 C   0  0  0  0  0  0  0  0  0  0  0  0
   45.4630   30.8970   48.3440 H   0  0  0  0  0  0  0  0  0  0  0  0
   46.1970   29.6270   49.3090 H   0  0  0  0  0  0  0  0  0  0  0  0
   45.0220   27.5780   47.9640 C   0  0  0  0  0  0  0  0  0  0  0  0
   45.1610   28.9020   47.6510 C   0  0  0  0  0  0  0  0  0  0  0  0
   44.3770   29.3630   46.5900 C   0  0  0  0  0  0  0  0  0  0  0  0
   43.5220   28.5310   45.9120 C   0  0  0  0  0  0  0  0  0  0  0  0
   42.6640   28.6910   44.8750 N   0  0  0  0  0  0  0  0  0  0  0  0
   42.0440   27.5430   44.5780 C   0  0  0  0  0  0  0  0  0  0  0  0
   42.4880   26.5700   45.4340 C   0  0  0  0  0  0  0  0  0  0  0  0
   43.4040   27.2170   46.2460 C   0  0  0  0  0  0  0  0  0  0  0  0
   44.1720   26.7400   47.2940 C   0  0  0  0  0  0  0  0  0  0  0  0
   45.6650   27.3190   48.7900 H   0  0  0  0  0  0  0  0  0  0  0  0
   44.3810   30.3780   46.2320 H   0  0  0  0  0  0  0  0  0  0  0  0
   42.5170   29.6000   44.3820 H   0  0  0  0  0  0  0  0  0  0  0  0
   41.3090   27.3750   43.7990 H   0  0  0  0  0  0  0  0  0  0  0  0
   42.2230   25.5270   45.5040 H   0  0  0  0  0  0  0  0  0  0  0  0
   44.0790   25.3410   47.6880 C   0  0  0  0  0  0  0  0  0  0  0  0
   44.8790   24.3340   47.4740 C   0  0  0  0  0  0  0  0  0  0  0  0
   46.1580   24.1130   46.7950 C   0  0  0  0  0  0  0  0  0  0  0  0
   46.0490   24.2840   45.7080 H   0  0  0  0  0  0  0  0  0  0  0  0
   47.3150   30.1820   47.6210 C   0  0  0  0  0  0  0  0  0  0  0  0
   47.9100   30.8100   48.3250 H   0  0  0  0  0  0  0  0  0  0  0  0
   47.9140   29.2910   47.4140 H   0  0  0  0  0  0  0  0  0  0  0  0
   46.5590   32.6470   45.1530 C   0  0  0  0  0  0  0  0  0  0  0  0
   47.2890   31.7150   44.4060 C   0  0  0  0  0  0  0  0  0  0  0  0
   47.6600   30.6850   45.2220 C   0  0  0  0  0  0  0  0  0  0  0  0
   47.1710   30.9880   46.4220 N   0  0  0  0  0  0  0  0  0  0  0  0
   46.5110   32.1550   46.3920 N   0  0  0  0  0  0  0  0  0  0  0  0
   47.5070   31.8270   43.3390 H   0  0  0  0  0  0  0  0  0  0  0  0
   48.2340   29.8330   44.8930 H   0  0  0  0  0  0  0  0  0  0  0  0
   44.5700   35.6910   44.8490 C   0  0  0  0  0  0  0  0  0  0  0  0
   44.9350   36.1960   43.6100 C   0  0  0  0  0  0  0  0  0  0  0  0
   45.8810   35.4750   42.8670 C   0  0  0  0  0  0  0  0  0  0  0  0
   46.3670   34.3350   43.4210 N   0  0  0  0  0  0  0  0  0  0  0  0
   45.9990   33.8780   44.6110 C   0  0  0  0  0  0  0  0  0  0  0  0
   45.0970   34.5610   45.3230 N   0  0  0  0  0  0  0  0  0  0  0  0
   43.8480   36.1680   45.5060 H   0  0  0  0  0  0  0  0  0  0  0  0
   44.5000   37.0990   43.2560 H   0  0  0  0  0  0  0  0  0  0  0  0
   46.1970   35.8330   41.8920 H   0  0  0  0  0  0  0  0  0  0  0  0
  1  2  1  0  0  0  0
  1  3  1  0  0  0  0
  4 13  1  0  0  0  0
  5  4  1  0  0  0  0
  5  1  1  0  0  0  0
  6  5  2  0  0  0  0
  7 11  2  0  0  0  0
  7  6  1  0  0  0  0
  8  7  1  0  0  0  0
  9  8  1  0  0  0  0
  9 10  2  0  0  0  0
 10 17  1  0  0  0  0
 10 11  1  0  0  0  0
 11 12  1  0  0  0  0
 12 18  1  0  0  0  0
 12  4  2  0  0  0  0
 14  6  1  0  0  0  0
 15  8  1  0  0  0  0
 16  9  1  0  0  0  0
 19 18  2  0  0  0  0
 20 19  1  0  0  0  0
 21 20  1  0  0  0  0
 22  1  1  0  0  0  0
 22 23  1  0  0  0  0
 24 22  1  0  0  0  0
 25 29  2  0  0  0  0
 26 25  1  0  0  0  0
 26 27  2  0  0  0  0
 27 28  1  0  0  0  0
 28 22  1  0  0  0  0
 29 28  1  0  0  0  0
 30 26  1  0  0  0  0
 31 27  1  0  0  0  0
 32 37  1  0  0  0  0
 32 38  1  0  0  0  0
 33 32  2  0  0  0  0
 34 35  2  0  0  0  0
 34 33  1  0  0  0  0
 35 36  1  0  0  0  0
 36 25  1  0  0  0  0
 36 37  2  0  0  0  0
 39 33  1  0  0  0  0
 40 34  1  0  0  0  0
M  END
>  <minimizedAffinity>
-5.35851526

>  <minimizedRMSD>
0.103560157

$$$$
