
 OpenBabel03252506253D

 40 43  0  0  0  0  0  0  0  0999 V2000
   46.3270   30.1100   48.2420 C   0  0  0  0  0  0  0  0  0  0  0  0
   45.7280   31.0320   48.3920 H   0  0  0  0  0  0  0  0  0  0  0  0
   46.5890   29.7880   49.2840 H   0  0  0  0  0  0  0  0  0  0  0  0
   45.6000   27.6830   47.8110 C   0  0  0  0  0  0  0  0  0  0  0  0
   45.5210   29.0400   47.6570 C   0  0  0  0  0  0  0  0  0  0  0  0
   44.5130   29.5000   46.8050 C   0  0  0  0  0  0  0  0  0  0  0  0
   43.6600   28.6340   46.1670 C   0  0  0  0  0  0  0  0  0  0  0  0
   42.6210   28.7850   45.3110 N   0  0  0  0  0  0  0  0  0  0  0  0
   42.1010   27.6000   44.9680 C   0  0  0  0  0  0  0  0  0  0  0  0
   42.8030   26.6110   45.6060 C   0  0  0  0  0  0  0  0  0  0  0  0
   43.7610   27.2880   46.3400 C   0  0  0  0  0  0  0  0  0  0  0  0
   44.7530   26.8120   47.1790 C   0  0  0  0  0  0  0  0  0  0  0  0
   46.4040   27.4290   48.4820 H   0  0  0  0  0  0  0  0  0  0  0  0
   44.3320   30.5380   46.5870 H   0  0  0  0  0  0  0  0  0  0  0  0
   42.2810   29.7120   44.9710 H   0  0  0  0  0  0  0  0  0  0  0  0
   41.2670   27.4160   44.3000 H   0  0  0  0  0  0  0  0  0  0  0  0
   42.6810   25.5400   45.5790 H   0  0  0  0  0  0  0  0  0  0  0  0
   44.9000   25.3800   47.3950 C   0  0  0  0  0  3  0  0  0  0  0  0
   45.1570   24.6960   48.4760 C   0  0  0  0  0  3  0  0  0  0  0  0
   45.4050   24.9890   49.8890 C   0  0  0  0  0  2  0  0  0  0  0  0
   46.3450   25.5610   50.0020 H   0  0  0  0  0  0  0  0  0  0  0  0
   47.5850   30.4580   47.5630 C   0  0  0  0  0  0  0  0  0  0  0  0
   48.1360   31.1690   48.2210 H   0  0  0  0  0  0  0  0  0  0  0  0
   48.2630   29.6220   47.3700 H   0  0  0  0  0  0  0  0  0  0  0  0
   46.6170   32.7950   45.0450 C   0  0  0  0  0  0  0  0  0  0  0  0
   47.2300   31.7960   44.2810 C   0  0  0  0  0  0  0  0  0  0  0  0
   47.6650   30.8050   45.1130 C   0  0  0  0  0  0  0  0  0  0  0  0
   47.3250   31.1950   46.3390 N   0  0  0  0  0  0  0  0  0  0  0  0
   46.6990   32.3800   46.3110 N   0  0  0  0  0  0  0  0  0  0  0  0
   47.3270   31.8370   43.1910 H   0  0  0  0  0  0  0  0  0  0  0  0
   48.1740   29.9160   44.7750 H   0  0  0  0  0  0  0  0  0  0  0  0
   44.5470   35.7820   44.7060 C   0  0  0  0  0  0  0  0  0  0  0  0
   44.9200   36.2980   43.4750 C   0  0  0  0  0  0  0  0  0  0  0  0
   45.9000   35.6050   42.7480 C   0  0  0  0  0  0  0  0  0  0  0  0
   46.4080   34.4790   43.3110 N   0  0  0  0  0  0  0  0  0  0  0  0
   46.0310   34.0100   44.4940 C   0  0  0  0  0  0  0  0  0  0  0  0
   45.0980   34.6660   45.1900 N   0  0  0  0  0  0  0  0  0  0  0  0
   43.7990   36.2370   45.3500 H   0  0  0  0  0  0  0  0  0  0  0  0
   44.4660   37.1890   43.1130 H   0  0  0  0  0  0  0  0  0  0  0  0
   46.2230   35.9730   41.7800 H   0  0  0  0  0  0  0  0  0  0  0  0
  1  2  1  0  0  0  0
  1  3  1  0  0  0  0
  4 13  1  0  0  0  0
  5  4  1  0  0  0  0
  5  1  1  0  0  0  0
  6  5  2  0  0  0  0
  7 11  2  0  0  0  0
  7  6  1  0  0  0  0
  8  7  1  0  0  0  0
  9  8  1  0  0  0  0
  9 10  2  0  0  0  0
 10 11  1  0  0  0  0
 11 12  1  0  0  0  0
 12 18  1  0  0  0  0
 12  4  2  0  0  0  0
 14  6  1  0  0  0  0
 15  8  1  0  0  0  0
 16  9  1  0  0  0  0
 17 10  1  0  0  0  0
 18 19  2  0  0  0  0
 19 20  1  0  0  0  0
 20 21  1  0  0  0  0
 22 23  1  0  0  0  0
 22  1  1  0  0  0  0
 24 22  1  0  0  0  0
 25 29  2  0  0  0  0
 26 25  1  0  0  0  0
 26 27  2  0  0  0  0
 27 28  1  0  0  0  0
 28 22  1  0  0  0  0
 29 28  1  0  0  0  0
 30 26  1  0  0  0  0
 31 27  1  0  0  0  0
 32 37  1  0  0  0  0
 32 38  1  0  0  0  0
 33 32  2  0  0  0  0
 34 35  2  0  0  0  0
 34 33  1  0  0  0  0
 35 36  1  0  0  0  0
 36 25  1  0  0  0  0
 36 37  2  0  0  0  0
 39 33  1  0  0  0  0
 40 34  1  0  0  0  0
M  END
>  <minimizedAffinity>
-5.33994055

>  <minimizedRMSD>
1.09461939

$$$$
