
 OpenBabel03242514433D

 16 16  0  0  0  0  0  0  0  0999 V2000
   45.4220   35.1780   43.9740 C   0  0  0  0  0  0  0  0  0  0  0  0
   46.4930   34.4820   43.4170 C   0  0  0  0  0  0  0  0  0  0  0  0
   47.0500   33.4340   44.1640 C   0  0  0  0  0  0  0  0  0  0  0  0
   46.5160   33.1650   45.3760 N   0  0  0  0  0  0  0  0  0  0  0  0
   45.4680   33.8720   45.8820 C   0  0  0  0  0  0  0  0  0  0  0  0
   44.9290   34.8770   45.1730 N   0  0  0  0  0  0  0  0  0  0  0  0
   47.8740   32.8350   43.8320 H   0  0  0  0  0  0  0  0  0  0  0  0
   45.1100   33.5720   46.8770 H   0  0  0  0  0  0  0  0  0  0  0  0
   44.8340   36.2960   43.1660 C   0  0  0  0  0  0  0  0  0  0  0  0
   44.7210   35.9860   42.1040 H   0  0  0  0  0  0  0  0  0  0  0  0
   45.4540   37.2090   43.2670 H   0  0  0  0  0  0  0  0  0  0  0  0
   43.8300   36.5760   43.5610 H   0  0  0  0  0  0  0  0  0  0  0  0
   47.0520   34.7850   42.1180 C   0  0  0  0  0  0  0  0  0  0  0  0
   48.2710   35.2440   41.9310 C   0  0  0  0  0  0  0  0  0  0  0  0
   48.8400   35.5540   40.5940 C   0  0  0  0  0  0  0  0  0  0  0  0
   49.0510   36.6460   40.5450 H   0  0  0  0  0  0  0  0  0  0  0  0
  1  6  1  0  0  0  0
  2  1  2  0  0  0  0
  2  3  1  0  0  0  0
  3  4  2  0  0  0  0
  4  5  1  0  0  0  0
  5  8  1  0  0  0  0
  6  5  2  0  0  0  0
  7  3  1  0  0  0  0
  9 11  1  0  0  0  0
  9 12  1  0  0  0  0
  9  1  1  0  0  0  0
 10  9  1  0  0  0  0
 13  2  1  0  0  0  0
 14 13  2  0  0  0  0
 15 14  1  0  0  0  0
 16 15  1  0  0  0  0
M  END
>  <minimizedAffinity>
-3.95574236

>  <minimizedRMSD>
0.288923323

$$$$
