
 OpenBabel03242519523D

 29 30  0  0  1  0  0  0  0  0999 V2000
   37.0510   27.3660   42.5590 C   0  0  2  0  0  0  0  0  0  0  0  0
   38.2670   27.4030   43.3910 C   0  0  0  0  0  0  0  0  0  0  0  0
   39.3690   26.5170   42.8910 C   0  0  0  0  0  0  0  0  0  0  0  0
   38.9200   25.0770   42.7100 C   0  0  0  0  0  0  0  0  0  0  0  0
   37.5280   24.9460   42.1820 C   0  0  1  0  0  0  0  0  0  0  0  0
   37.0630   26.2320   41.5400 C   0  0  0  0  0  0  0  0  0  0  0  0
   36.1070   27.1750   43.1500 H   0  0  0  0  0  0  0  0  0  0  0  0
   38.6780   28.3880   43.6120 H   0  0  0  0  0  0  0  0  0  0  0  0
   37.9790   26.9800   44.3990 H   0  0  0  0  0  0  0  0  0  0  0  0
   39.7780   26.8110   41.9090 H   0  0  0  0  0  0  0  0  0  0  0  0
   40.1910   26.5560   43.6350 H   0  0  0  0  0  0  0  0  0  0  0  0
   39.0480   24.5720   43.6930 H   0  0  0  0  0  0  0  0  0  0  0  0
   39.6350   24.5670   42.0320 H   0  0  0  0  0  0  0  0  0  0  0  0
   36.8710   24.7930   43.0850 H   0  0  0  0  0  0  0  0  0  0  0  0
   37.7760   26.5000   40.7510 H   0  0  0  0  0  0  0  0  0  0  0  0
   36.0380   26.0670   41.1630 H   0  0  0  0  0  0  0  0  0  0  0  0
   36.8170   28.6180   41.8180 C   0  0  0  0  0  0  0  0  0  0  0  0
   35.7430   28.6020   40.9090 C   0  0  0  0  0  0  0  0  0  0  0  0
   35.4450   29.7490   40.1700 C   0  0  0  0  0  0  0  0  0  0  0  0
   36.2420   30.8470   40.3880 N   0  0  0  0  0  0  0  0  0  0  0  0
   37.2720   30.8340   41.2730 C   0  0  0  0  0  0  0  0  0  0  0  0
   37.5470   29.7280   41.9730 N   0  0  0  0  0  0  0  0  0  0  0  0
   35.0710   27.8170   40.6620 H   0  0  0  0  0  0  0  0  0  0  0  0
   34.6550   29.8490   39.4530 H   0  0  0  0  0  0  0  0  0  0  0  0
   37.8720   31.7250   41.4100 H   0  0  0  0  0  0  0  0  0  0  0  0
   37.3240   23.8100   41.2810 C   0  0  0  0  0  3  0  0  0  0  0  0
   38.2530   23.0680   40.6830 C   0  0  0  0  0  3  0  0  0  0  0  0
   38.3060   21.9030   39.7580 C   0  0  0  0  0  2  0  0  0  0  0  0
   37.2470   21.6720   39.5120 H   0  0  0  0  0  0  0  0  0  0  0  0
  1  7  1  1  0  0  0
  1  2  1  0  0  0  0
  2  8  1  0  0  0  0
  2  9  1  0  0  0  0
  3  2  1  0  0  0  0
  3 11  1  0  0  0  0
  4  3  1  0  0  0  0
  4 12  1  0  0  0  0
  5  4  1  0  0  0  0
  5 14  1  1  0  0  0
  6  5  1  0  0  0  0
  6  1  1  0  0  0  0
 10  3  1  0  0  0  0
 13  4  1  0  0  0  0
 15  6  1  0  0  0  0
 16  6  1  0  0  0  0
 17 22  1  0  0  0  0
 17  1  1  0  0  0  0
 18 17  2  0  0  0  0
 19 20  2  0  0  0  0
 19 18  1  0  0  0  0
 20 21  1  0  0  0  0
 21 25  1  0  0  0  0
 21 22  2  0  0  0  0
 23 18  1  0  0  0  0
 24 19  1  0  0  0  0
 26  5  1  0  0  0  0
 27 26  2  0  0  0  0
 28 27  1  0  0  0  0
 29 28  1  0  0  0  0
M  END
>  <minimizedAffinity>
-4.85692644

$$$$

 OpenBabel03242519523D

 29 30  0  0  1  0  0  0  0  0999 V2000
   37.2700   29.4390   42.1730 C   0  0  2  0  0  0  0  0  0  0  0  0
   38.5180   29.6260   42.9320 C   0  0  0  0  0  0  0  0  0  0  0  0
   39.4510   28.4530   42.8600 C   0  0  0  0  0  0  0  0  0  0  0  0
   38.7860   27.1540   43.2850 C   0  0  0  0  0  0  0  0  0  0  0  0
   37.3640   27.0360   42.8380 C   0  0  1  0  0  0  0  0  0  0  0  0
   37.0620   28.0000   41.7150 C   0  0  0  0  0  0  0  0  0  0  0  0
   36.3390   29.6570   42.7750 H   0  0  0  0  0  0  0  0  0  0  0  0
   39.0800   30.5370   42.7310 H   0  0  0  0  0  0  0  0  0  0  0  0
   38.2240   29.7050   44.0210 H   0  0  0  0  0  0  0  0  0  0  0  0
   39.8480   28.2500   41.8500 H   0  0  0  0  0  0  0  0  0  0  0  0
   40.3070   28.6660   43.5330 H   0  0  0  0  0  0  0  0  0  0  0  0
   38.8890   27.0860   44.3900 H   0  0  0  0  0  0  0  0  0  0  0  0
   39.3820   26.3070   42.8890 H   0  0  0  0  0  0  0  0  0  0  0  0
   36.7400   27.3720   43.7140 H   0  0  0  0  0  0  0  0  0  0  0  0
   37.7650   27.8060   40.8960 H   0  0  0  0  0  0  0  0  0  0  0  0
   36.0060   27.8550   41.4250 H   0  0  0  0  0  0  0  0  0  0  0  0
   37.1840   30.2950   40.9760 C   0  0  0  0  0  0  0  0  0  0  0  0
   36.6970   29.6760   39.8110 C   0  0  0  0  0  0  0  0  0  0  0  0
   36.5750   30.4160   38.6330 C   0  0  0  0  0  0  0  0  0  0  0  0
   36.9490   31.7370   38.6940 N   0  0  0  0  0  0  0  0  0  0  0  0
   37.4160   32.3090   39.8340 C   0  0  0  0  0  0  0  0  0  0  0  0
   37.5280   31.5880   40.9540 N   0  0  0  0  0  0  0  0  0  0  0  0
   36.3850   28.6730   39.6510 H   0  0  0  0  0  0  0  0  0  0  0  0
   36.2180   30.0490   37.6910 H   0  0  0  0  0  0  0  0  0  0  0  0
   37.6980   33.3550   39.8320 H   0  0  0  0  0  0  0  0  0  0  0  0
   36.9500   25.6770   42.4850 C   0  0  0  0  0  3  0  0  0  0  0  0
   36.9490   25.1120   41.2800 C   0  0  0  0  0  3  0  0  0  0  0  0
   36.5910   23.7990   40.6800 C   0  0  0  0  0  2  0  0  0  0  0  0
   36.1840   23.1910   41.5170 H   0  0  0  0  0  0  0  0  0  0  0  0
  1  7  1  1  0  0  0
  1  2  1  0  0  0  0
  2  9  1  0  0  0  0
  3  2  1  0  0  0  0
  3  4  1  0  0  0  0
  3 11  1  0  0  0  0
  4 12  1  0  0  0  0
  5  4  1  0  0  0  0
  5 14  1  1  0  0  0
  6  1  1  0  0  0  0
  6  5  1  0  0  0  0
  8  2  1  0  0  0  0
 10  3  1  0  0  0  0
 13  4  1  0  0  0  0
 15  6  1  0  0  0  0
 16  6  1  0  0  0  0
 17  1  1  0  0  0  0
 18 17  2  0  0  0  0
 19 20  2  0  0  0  0
 19 18  1  0  0  0  0
 20 21  1  0  0  0  0
 21 22  2  0  0  0  0
 22 17  1  0  0  0  0
 23 18  1  0  0  0  0
 24 19  1  0  0  0  0
 25 21  1  0  0  0  0
 26  5  1  0  0  0  0
 27 26  2  0  0  0  0
 28 27  1  0  0  0  0
 28 29  1  0  0  0  0
M  END
>  <minimizedAffinity>
-4.82164431

$$$$

 OpenBabel03242519523D

 29 30  0  0  1  0  0  0  0  0999 V2000
   37.4070   29.0110   42.5630 C   0  0  2  0  0  0  0  0  0  0  0  0
   36.3110   28.1580   42.0720 C   0  0  0  0  0  0  0  0  0  0  0  0
   36.0100   28.3410   40.6130 C   0  0  0  0  0  0  0  0  0  0  0  0
   35.7260   29.7900   40.2560 C   0  0  0  0  0  0  0  0  0  0  0  0
   36.5850   30.7670   40.9930 C   0  0  1  0  0  0  0  0  0  0  0  0
   37.8080   30.0950   41.5690 C   0  0  0  0  0  0  0  0  0  0  0  0
   37.1400   29.5960   43.4920 H   0  0  0  0  0  0  0  0  0  0  0  0
   36.3890   27.0920   42.2860 H   0  0  0  0  0  0  0  0  0  0  0  0
   35.3760   28.4920   42.6130 H   0  0  0  0  0  0  0  0  0  0  0  0
   36.8290   28.0390   39.9390 H   0  0  0  0  0  0  0  0  0  0  0  0
   35.1200   27.7220   40.3770 H   0  0  0  0  0  0  0  0  0  0  0  0
   34.6420   29.9610   40.4350 H   0  0  0  0  0  0  0  0  0  0  0  0
   35.8580   29.9160   39.1620 H   0  0  0  0  0  0  0  0  0  0  0  0
   35.9710   31.1070   41.8760 H   0  0  0  0  0  0  0  0  0  0  0  0
   38.3530   29.6100   40.7490 H   0  0  0  0  0  0  0  0  0  0  0  0
   38.4020   30.8680   42.0880 H   0  0  0  0  0  0  0  0  0  0  0  0
   38.6260   28.2540   42.9000 C   0  0  0  0  0  0  0  0  0  0  0  0
   39.8440   28.9260   42.6910 C   0  0  0  0  0  0  0  0  0  0  0  0
   41.0480   28.2850   42.9930 C   0  0  0  0  0  0  0  0  0  0  0  0
   40.9590   27.0070   43.4880 N   0  0  0  0  0  0  0  0  0  0  0  0
   39.7680   26.3830   43.6800 C   0  0  0  0  0  0  0  0  0  0  0  0
   38.6230   27.0070   43.3860 N   0  0  0  0  0  0  0  0  0  0  0  0
   40.0290   29.9020   42.3160 H   0  0  0  0  0  0  0  0  0  0  0  0
   42.0290   28.6990   42.8740 H   0  0  0  0  0  0  0  0  0  0  0  0
   39.7490   25.3730   44.0730 H   0  0  0  0  0  0  0  0  0  0  0  0
   36.9560   31.9540   40.2200 C   0  0  0  0  0  3  0  0  0  0  0  0
   37.8710   32.8710   40.5240 C   0  0  0  0  0  3  0  0  0  0  0  0
   38.4170   34.1210   39.9310 C   0  0  0  0  0  2  0  0  0  0  0  0
   37.8240   34.2940   39.0060 H   0  0  0  0  0  0  0  0  0  0  0  0
  1 17  1  0  0  0  0
  1  7  1  1  0  0  0
  2  8  1  0  0  0  0
  2  1  1  0  0  0  0
  2  9  1  0  0  0  0
  3  2  1  0  0  0  0
  4 12  1  0  0  0  0
  4  3  1  0  0  0  0
  4  5  1  0  0  0  0
  5  6  1  0  0  0  0
  5 14  1  1  0  0  0
  6 16  1  0  0  0  0
  6  1  1  0  0  0  0
 10  3  1  0  0  0  0
 11  3  1  0  0  0  0
 13  4  1  0  0  0  0
 15  6  1  0  0  0  0
 17 22  1  0  0  0  0
 18 17  2  0  0  0  0
 18 19  1  0  0  0  0
 19 20  2  0  0  0  0
 20 21  1  0  0  0  0
 21 25  1  0  0  0  0
 22 21  2  0  0  0  0
 23 18  1  0  0  0  0
 24 19  1  0  0  0  0
 26 27  2  0  0  0  0
 26  5  1  0  0  0  0
 28 27  1  0  0  0  0
 29 28  1  0  0  0  0
M  END
>  <minimizedAffinity>
-4.78722143

$$$$

 OpenBabel03242519523D

 29 30  0  0  1  0  0  0  0  0999 V2000
   37.7280   28.1650   42.8070 C   0  0  2  0  0  0  0  0  0  0  0  0
   39.1170   27.9020   43.2230 C   0  0  0  0  0  0  0  0  0  0  0  0
   39.7550   26.7470   42.5080 C   0  0  0  0  0  0  0  0  0  0  0  0
   38.9390   25.4710   42.6210 C   0  0  0  0  0  0  0  0  0  0  0  0
   37.4630   25.6960   42.5560 C   0  0  1  0  0  0  0  0  0  0  0  0
   37.1410   27.0450   41.9560 C   0  0  0  0  0  0  0  0  0  0  0  0
   37.0050   28.2400   43.6720 H   0  0  0  0  0  0  0  0  0  0  0  0
   39.8010   28.7500   43.2050 H   0  0  0  0  0  0  0  0  0  0  0  0
   39.0740   27.5910   44.3090 H   0  0  0  0  0  0  0  0  0  0  0  0
   39.8870   26.9020   41.4230 H   0  0  0  0  0  0  0  0  0  0  0  0
   40.7550   26.5870   42.9590 H   0  0  0  0  0  0  0  0  0  0  0  0
   39.2490   24.9730   43.5660 H   0  0  0  0  0  0  0  0  0  0  0  0
   39.2550   24.7770   41.8160 H   0  0  0  0  0  0  0  0  0  0  0  0
   37.1130   25.7400   43.6270 H   0  0  0  0  0  0  0  0  0  0  0  0
   37.6070   27.0990   40.9640 H   0  0  0  0  0  0  0  0  0  0  0  0
   36.0410   27.1440   41.9260 H   0  0  0  0  0  0  0  0  0  0  0  0
   37.5780   29.4170   42.0450 C   0  0  0  0  0  0  0  0  0  0  0  0
   38.7310   30.2160   41.9410 C   0  0  0  0  0  0  0  0  0  0  0  0
   38.6790   31.4160   41.2290 C   0  0  0  0  0  0  0  0  0  0  0  0
   37.4720   31.7450   40.6620 N   0  0  0  0  0  0  0  0  0  0  0  0
   36.3740   30.9540   40.7790 C   0  0  0  0  0  0  0  0  0  0  0  0
   36.4370   29.8070   41.4640 N   0  0  0  0  0  0  0  0  0  0  0  0
   39.7050   30.0620   42.3370 H   0  0  0  0  0  0  0  0  0  0  0  0
   39.4920   32.1000   41.0860 H   0  0  0  0  0  0  0  0  0  0  0  0
   35.4430   31.2560   40.3130 H   0  0  0  0  0  0  0  0  0  0  0  0
   36.7150   24.6330   41.8830 C   0  0  0  0  0  3  0  0  0  0  0  0
   36.6540   24.3810   40.5770 C   0  0  0  0  0  3  0  0  0  0  0  0
   35.9930   23.4010   39.6740 C   0  0  0  0  0  2  0  0  0  0  0  0
   35.3670   22.7630   40.3360 H   0  0  0  0  0  0  0  0  0  0  0  0
  1  2  1  0  0  0  0
  1  7  1  1  0  0  0
  2  9  1  0  0  0  0
  3  4  1  0  0  0  0
  3 11  1  0  0  0  0
  3  2  1  0  0  0  0
  4 12  1  0  0  0  0
  5  4  1  0  0  0  0
  5 14  1  1  0  0  0
  6  5  1  0  0  0  0
  6  1  1  0  0  0  0
  8  2  1  0  0  0  0
 10  3  1  0  0  0  0
 13  4  1  0  0  0  0
 15  6  1  0  0  0  0
 16  6  1  0  0  0  0
 17  1  1  0  0  0  0
 18 17  1  0  0  0  0
 18 23  1  0  0  0  0
 19 18  2  0  0  0  0
 20 21  2  0  0  0  0
 20 19  1  0  0  0  0
 21 22  1  0  0  0  0
 22 17  2  0  0  0  0
 24 19  1  0  0  0  0
 25 21  1  0  0  0  0
 26  5  1  0  0  0  0
 27 26  2  0  0  0  0
 28 29  1  0  0  0  0
 28 27  1  0  0  0  0
M  END
>  <minimizedAffinity>
-4.73186588

$$$$

 OpenBabel03242519523D

 29 30  0  0  1  0  0  0  0  0999 V2000
   36.7690   30.2420   41.3460 C   0  0  2  0  0  0  0  0  0  0  0  0
   35.9820   29.9520   40.1350 C   0  0  0  0  0  0  0  0  0  0  0  0
   36.6320   30.4160   38.8650 C   0  0  0  0  0  0  0  0  0  0  0  0
   36.9870   31.8930   38.9000 C   0  0  0  0  0  0  0  0  0  0  0  0
   37.4800   32.3580   40.2320 C   0  0  1  0  0  0  0  0  0  0  0  0
   37.9290   31.1960   41.0860 C   0  0  0  0  0  0  0  0  0  0  0  0
   36.1770   30.7660   42.1530 H   0  0  0  0  0  0  0  0  0  0  0  0
   35.6470   28.9230   40.0050 H   0  0  0  0  0  0  0  0  0  0  0  0
   35.0290   30.5550   40.2190 H   0  0  0  0  0  0  0  0  0  0  0  0
   37.5800   29.9040   38.6270 H   0  0  0  0  0  0  0  0  0  0  0  0
   35.9180   30.2280   38.0370 H   0  0  0  0  0  0  0  0  0  0  0  0
   36.0840   32.4500   38.5650 H   0  0  0  0  0  0  0  0  0  0  0  0
   37.7510   32.0910   38.1200 H   0  0  0  0  0  0  0  0  0  0  0  0
   36.5830   32.8000   40.7530 H   0  0  0  0  0  0  0  0  0  0  0  0
   38.7000   30.6430   40.5360 H   0  0  0  0  0  0  0  0  0  0  0  0
   38.2900   31.6060   42.0460 H   0  0  0  0  0  0  0  0  0  0  0  0
   37.3300   29.0340   41.9770 C   0  0  0  0  0  0  0  0  0  0  0  0
   38.5960   29.1830   42.5730 C   0  0  0  0  0  0  0  0  0  0  0  0
   39.1970   28.0900   43.2010 C   0  0  0  0  0  0  0  0  0  0  0  0
   38.4920   26.9110   43.1960 N   0  0  0  0  0  0  0  0  0  0  0  0
   37.2710   26.7970   42.6130 C   0  0  0  0  0  0  0  0  0  0  0  0
   36.7070   27.8500   42.0140 N   0  0  0  0  0  0  0  0  0  0  0  0
   39.2240   30.0370   42.6330 H   0  0  0  0  0  0  0  0  0  0  0  0
   40.1540   28.0900   43.6850 H   0  0  0  0  0  0  0  0  0  0  0  0
   36.7530   25.8450   42.6350 H   0  0  0  0  0  0  0  0  0  0  0  0
   38.5160   33.3910   40.1690 C   0  0  0  0  0  3  0  0  0  0  0  0
   39.7330   33.2930   39.6400 C   0  0  0  0  0  3  0  0  0  0  0  0
   40.9270   34.1610   39.4560 C   0  0  0  0  0  2  0  0  0  0  0  0
   40.6750   35.1220   39.9550 H   0  0  0  0  0  0  0  0  0  0  0  0
  1 17  1  0  0  0  0
  1  7  1  1  0  0  0
  2  9  1  0  0  0  0
  2  1  1  0  0  0  0
  3  4  1  0  0  0  0
  3  2  1  0  0  0  0
  4  5  1  0  0  0  0
  5 14  1  1  0  0  0
  5  6  1  0  0  0  0
  6  1  1  0  0  0  0
  6 16  1  0  0  0  0
  8  2  1  0  0  0  0
 10  3  1  0  0  0  0
 11  3  1  0  0  0  0
 12  4  1  0  0  0  0
 13  4  1  0  0  0  0
 15  6  1  0  0  0  0
 17 22  2  0  0  0  0
 17 18  1  0  0  0  0
 18 23  1  0  0  0  0
 18 19  2  0  0  0  0
 19 24  1  0  0  0  0
 20 19  1  0  0  0  0
 21 25  1  0  0  0  0
 21 20  2  0  0  0  0
 22 21  1  0  0  0  0
 26  5  1  0  0  0  0
 27 26  2  0  0  0  0
 28 27  1  0  0  0  0
 28 29  1  0  0  0  0
M  END
>  <minimizedAffinity>
-4.60851383

$$$$

 OpenBabel03242519523D

 29 30  0  0  1  0  0  0  0  0999 V2000
   36.0790   29.5070   40.3370 C   0  0  2  0  0  0  0  0  0  0  0  0
   36.6880   30.5820   41.1390 C   0  0  0  0  0  0  0  0  0  0  0  0
   37.8540   30.1310   41.9690 C   0  0  0  0  0  0  0  0  0  0  0  0
   37.5070   28.9590   42.8700 C   0  0  0  0  0  0  0  0  0  0  0  0
   36.5850   27.9680   42.2350 C   0  0  1  0  0  0  0  0  0  0  0  0
   36.5710   28.1190   40.7320 C   0  0  0  0  0  0  0  0  0  0  0  0
   34.9590   29.4310   40.4630 H   0  0  0  0  0  0  0  0  0  0  0  0
   36.9650   31.4920   40.6060 H   0  0  0  0  0  0  0  0  0  0  0  0
   35.9040   30.9120   41.8830 H   0  0  0  0  0  0  0  0  0  0  0  0
   38.7240   29.7880   41.3820 H   0  0  0  0  0  0  0  0  0  0  0  0
   38.1730   30.9930   42.5910 H   0  0  0  0  0  0  0  0  0  0  0  0
   37.0870   29.3850   43.8080 H   0  0  0  0  0  0  0  0  0  0  0  0
   38.4480   28.4600   43.1800 H   0  0  0  0  0  0  0  0  0  0  0  0
   35.5500   28.2450   42.5860 H   0  0  0  0  0  0  0  0  0  0  0  0
   37.6000   28.0130   40.3660 H   0  0  0  0  0  0  0  0  0  0  0  0
   35.8840   27.3560   40.3250 H   0  0  0  0  0  0  0  0  0  0  0  0
   36.3120   29.6580   38.8900 C   0  0  0  0  0  0  0  0  0  0  0  0
   37.0920   30.7640   38.5050 C   0  0  0  0  0  0  0  0  0  0  0  0
   37.3700   30.9780   37.1530 C   0  0  0  0  0  0  0  0  0  0  0  0
   36.8490   30.0680   36.2650 N   0  0  0  0  0  0  0  0  0  0  0  0
   36.1000   29.0080   36.6660 C   0  0  0  0  0  0  0  0  0  0  0  0
   35.8410   28.8160   37.9630 N   0  0  0  0  0  0  0  0  0  0  0  0
   37.5380   31.5230   39.0990 H   0  0  0  0  0  0  0  0  0  0  0  0
   37.9490   31.7840   36.7490 H   0  0  0  0  0  0  0  0  0  0  0  0
   35.7110   28.3170   35.9270 H   0  0  0  0  0  0  0  0  0  0  0  0
   36.8320   26.5770   42.6180 C   0  0  0  0  0  3  0  0  0  0  0  0
   37.2650   25.5830   41.8440 C   0  0  0  0  0  3  0  0  0  0  0  0
   37.5840   24.1370   41.9850 C   0  0  0  0  0  2  0  0  0  0  0  0
   37.3310   23.8780   43.0360 H   0  0  0  0  0  0  0  0  0  0  0  0
  1  7  1  1  0  0  0
  1  6  1  0  0  0  0
  1  2  1  0  0  0  0
  2  9  1  0  0  0  0
  2  3  1  0  0  0  0
  3 11  1  0  0  0  0
  3  4  1  0  0  0  0
  4 13  1  0  0  0  0
  4 12  1  0  0  0  0
  5 14  1  1  0  0  0
  5 26  1  0  0  0  0
  5  4  1  0  0  0  0
  6  5  1  0  0  0  0
  8  2  1  0  0  0  0
 10  3  1  0  0  0  0
 15  6  1  0  0  0  0
 16  6  1  0  0  0  0
 17  1  1  0  0  0  0
 18 17  1  0  0  0  0
 18 23  1  0  0  0  0
 19 18  2  0  0  0  0
 20 21  2  0  0  0  0
 20 19  1  0  0  0  0
 21 22  1  0  0  0  0
 22 17  2  0  0  0  0
 24 19  1  0  0  0  0
 25 21  1  0  0  0  0
 27 28  1  0  0  0  0
 27 26  2  0  0  0  0
 28 29  1  0  0  0  0
M  END
>  <minimizedAffinity>
-4.56696177

$$$$

 OpenBabel03242519523D

 29 30  0  0  1  0  0  0  0  0999 V2000
   36.8580   27.3100   41.5970 C   0  0  2  0  0  0  0  0  0  0  0  0
   36.5840   26.6690   40.2990 C   0  0  0  0  0  0  0  0  0  0  0  0
   36.9090   27.5330   39.1160 C   0  0  0  0  0  0  0  0  0  0  0  0
   36.2140   28.8820   39.1740 C   0  0  0  0  0  0  0  0  0  0  0  0
   36.1390   29.4590   40.5510 C   0  0  1  0  0  0  0  0  0  0  0  0
   37.1400   28.8030   41.4740 C   0  0  0  0  0  0  0  0  0  0  0  0
   35.9850   27.2680   42.3130 H   0  0  0  0  0  0  0  0  0  0  0  0
   37.0140   25.6790   40.1430 H   0  0  0  0  0  0  0  0  0  0  0  0
   35.4660   26.5060   40.2500 H   0  0  0  0  0  0  0  0  0  0  0  0
   37.9820   27.7720   39.0100 H   0  0  0  0  0  0  0  0  0  0  0  0
   36.5840   26.9880   38.2060 H   0  0  0  0  0  0  0  0  0  0  0  0
   35.2090   28.7470   38.7170 H   0  0  0  0  0  0  0  0  0  0  0  0
   36.7450   29.5820   38.4960 H   0  0  0  0  0  0  0  0  0  0  0  0
   35.1210   29.1770   40.9450 H   0  0  0  0  0  0  0  0  0  0  0  0
   38.1390   28.9190   41.0360 H   0  0  0  0  0  0  0  0  0  0  0  0
   37.0410   29.2790   42.4660 H   0  0  0  0  0  0  0  0  0  0  0  0
   37.9960   26.7080   42.3130 C   0  0  0  0  0  0  0  0  0  0  0  0
   38.1510   25.3170   42.1630 C   0  0  0  0  0  0  0  0  0  0  0  0
   39.2090   24.6660   42.8010 C   0  0  0  0  0  0  0  0  0  0  0  0
   40.0510   25.4500   43.5530 N   0  0  0  0  0  0  0  0  0  0  0  0
   39.8780   26.7910   43.6800 C   0  0  0  0  0  0  0  0  0  0  0  0
   38.8600   27.4010   43.0640 N   0  0  0  0  0  0  0  0  0  0  0  0
   37.5650   24.6210   41.6150 H   0  0  0  0  0  0  0  0  0  0  0  0
   39.4220   23.6170   42.7570 H   0  0  0  0  0  0  0  0  0  0  0  0
   40.5690   27.3660   44.2830 H   0  0  0  0  0  0  0  0  0  0  0  0
   36.2550   30.9170   40.6060 C   0  0  0  0  0  3  0  0  0  0  0  0
   36.9950   31.7050   39.8300 C   0  0  0  0  0  3  0  0  0  0  0  0
   37.2780   33.1590   39.6870 C   0  0  0  0  0  2  0  0  0  0  0  0
   36.7150   33.6530   40.5090 H   0  0  0  0  0  0  0  0  0  0  0  0
  1 17  1  0  0  0  0
  1  7  1  1  0  0  0
  2  1  1  0  0  0  0
  3  4  1  0  0  0  0
  3  2  1  0  0  0  0
  4  5  1  0  0  0  0
  5 26  1  0  0  0  0
  5 14  1  1  0  0  0
  5  6  1  0  0  0  0
  6  1  1  0  0  0  0
  6 16  1  0  0  0  0
  8  2  1  0  0  0  0
  9  2  1  0  0  0  0
 10  3  1  0  0  0  0
 11  3  1  0  0  0  0
 12  4  1  0  0  0  0
 13  4  1  0  0  0  0
 15  6  1  0  0  0  0
 17 22  1  0  0  0  0
 18 17  2  0  0  0  0
 18 19  1  0  0  0  0
 19 20  2  0  0  0  0
 20 21  1  0  0  0  0
 21 25  1  0  0  0  0
 22 21  2  0  0  0  0
 23 18  1  0  0  0  0
 24 19  1  0  0  0  0
 27 26  2  0  0  0  0
 28 27  1  0  0  0  0
 28 29  1  0  0  0  0
M  END
>  <minimizedAffinity>
-4.56013298

$$$$

 OpenBabel03242519523D

 29 30  0  0  1  0  0  0  0  0999 V2000
   39.8160   26.1090   43.6800 C   0  0  2  0  0  0  0  0  0  0  0  0
   39.5750   24.7360   43.2030 C   0  0  0  0  0  0  0  0  0  0  0  0
   38.7090   24.6620   41.9810 C   0  0  0  0  0  0  0  0  0  0  0  0
   37.3810   25.3760   42.1660 C   0  0  0  0  0  0  0  0  0  0  0  0
   37.4850   26.6380   42.9610 C   0  0  1  0  0  0  0  0  0  0  0  0
   38.9100   27.1370   43.0100 C   0  0  0  0  0  0  0  0  0  0  0  0
   39.5990   26.2490   44.7800 H   0  0  0  0  0  0  0  0  0  0  0  0
   40.4550   24.1110   43.0510 H   0  0  0  0  0  0  0  0  0  0  0  0
   38.9890   24.2120   44.0150 H   0  0  0  0  0  0  0  0  0  0  0  0
   39.1530   25.1220   41.0810 H   0  0  0  0  0  0  0  0  0  0  0  0
   38.5240   23.5900   41.7670 H   0  0  0  0  0  0  0  0  0  0  0  0
   36.6820   24.6440   42.6260 H   0  0  0  0  0  0  0  0  0  0  0  0
   36.9520   25.5900   41.1650 H   0  0  0  0  0  0  0  0  0  0  0  0
   37.2170   26.3560   44.0190 H   0  0  0  0  0  0  0  0  0  0  0  0
   39.2630   27.2720   41.9810 H   0  0  0  0  0  0  0  0  0  0  0  0
   38.9170   28.0720   43.5990 H   0  0  0  0  0  0  0  0  0  0  0  0
   41.2060   26.5570   43.4830 C   0  0  0  0  0  0  0  0  0  0  0  0
   41.3700   27.8990   43.0940 C   0  0  0  0  0  0  0  0  0  0  0  0
   42.6540   28.4100   42.8940 C   0  0  0  0  0  0  0  0  0  0  0  0
   43.7010   27.5430   43.0980 N   0  0  0  0  0  0  0  0  0  0  0  0
   43.5120   26.2510   43.4740 C   0  0  0  0  0  0  0  0  0  0  0  0
   42.2770   25.7750   43.6620 N   0  0  0  0  0  0  0  0  0  0  0  0
   40.6410   28.6490   42.9080 H   0  0  0  0  0  0  0  0  0  0  0  0
   42.8960   29.4110   42.5980 H   0  0  0  0  0  0  0  0  0  0  0  0
   44.3700   25.6060   43.6230 H   0  0  0  0  0  0  0  0  0  0  0  0
   36.5740   27.7020   42.5350 C   0  0  0  0  0  3  0  0  0  0  0  0
   36.5010   28.2820   41.3390 C   0  0  0  0  0  3  0  0  0  0  0  0
   35.6960   29.3430   40.6760 C   0  0  0  0  0  2  0  0  0  0  0  0
   35.0220   29.7400   41.4660 H   0  0  0  0  0  0  0  0  0  0  0  0
  1  7  1  1  0  0  0
  2  1  1  0  0  0  0
  2  9  1  0  0  0  0
  3  4  1  0  0  0  0
  3  2  1  0  0  0  0
  4 12  1  0  0  0  0
  4  5  1  0  0  0  0
  5  6  1  0  0  0  0
  5 14  1  1  0  0  0
  6 16  1  0  0  0  0
  6  1  1  0  0  0  0
  8  2  1  0  0  0  0
 10  3  1  0  0  0  0
 11  3  1  0  0  0  0
 13  4  1  0  0  0  0
 15  6  1  0  0  0  0
 17 22  1  0  0  0  0
 17  1  1  0  0  0  0
 18 17  2  0  0  0  0
 19 18  1  0  0  0  0
 19 20  2  0  0  0  0
 20 21  1  0  0  0  0
 21 25  1  0  0  0  0
 21 22  2  0  0  0  0
 23 18  1  0  0  0  0
 24 19  1  0  0  0  0
 26  5  1  0  0  0  0
 27 26  2  0  0  0  0
 28 27  1  0  0  0  0
 28 29  1  0  0  0  0
M  END
>  <minimizedAffinity>
-4.47761774

$$$$

 OpenBabel03242519523D

 29 30  0  0  1  0  0  0  0  0999 V2000
   36.0540   29.4640   40.1860 C   0  0  2  0  0  0  0  0  0  0  0  0
   35.8240   29.3820   38.7330 C   0  0  0  0  0  0  0  0  0  0  0  0
   36.8680   30.0840   37.9150 C   0  0  0  0  0  0  0  0  0  0  0  0
   37.0430   31.5380   38.3200 C   0  0  0  0  0  0  0  0  0  0  0  0
   36.9390   31.7640   39.7940 C   0  0  1  0  0  0  0  0  0  0  0  0
   37.1310   30.4770   40.5610 C   0  0  0  0  0  0  0  0  0  0  0  0
   35.1510   29.8190   40.7660 H   0  0  0  0  0  0  0  0  0  0  0  0
   35.6620   28.3860   38.3210 H   0  0  0  0  0  0  0  0  0  0  0  0
   34.8610   29.9380   38.5280 H   0  0  0  0  0  0  0  0  0  0  0  0
   37.8770   29.6450   37.9930 H   0  0  0  0  0  0  0  0  0  0  0  0
   36.5480   30.0330   36.8540 H   0  0  0  0  0  0  0  0  0  0  0  0
   36.2910   32.1250   37.7480 H   0  0  0  0  0  0  0  0  0  0  0  0
   38.0260   31.8920   37.9480 H   0  0  0  0  0  0  0  0  0  0  0  0
   35.8740   32.0830   39.9800 H   0  0  0  0  0  0  0  0  0  0  0  0
   38.1020   30.0510   40.2800 H   0  0  0  0  0  0  0  0  0  0  0  0
   37.0540   30.7140   41.6370 H   0  0  0  0  0  0  0  0  0  0  0  0
   36.4380   28.1750   40.7880 C   0  0  0  0  0  0  0  0  0  0  0  0
   36.6080   28.1750   42.1850 C   0  0  0  0  0  0  0  0  0  0  0  0
   36.9630   26.9930   42.8380 C   0  0  0  0  0  0  0  0  0  0  0  0
   37.1270   25.8790   42.0510 N   0  0  0  0  0  0  0  0  0  0  0  0
   36.9550   25.9080   40.7040 C   0  0  0  0  0  0  0  0  0  0  0  0
   36.6160   27.0470   40.0910 N   0  0  0  0  0  0  0  0  0  0  0  0
   36.5110   28.9690   42.8830 H   0  0  0  0  0  0  0  0  0  0  0  0
   37.1190   26.8780   43.8920 H   0  0  0  0  0  0  0  0  0  0  0  0
   37.0950   25.0030   40.1260 H   0  0  0  0  0  0  0  0  0  0  0  0
   37.8190   32.8150   40.3100 C   0  0  0  0  0  3  0  0  0  0  0  0
   39.0200   33.1670   39.8580 C   0  0  0  0  0  3  0  0  0  0  0  0
   40.0750   34.1610   40.1920 C   0  0  0  0  0  2  0  0  0  0  0  0
   39.7080   34.6890   41.0990 H   0  0  0  0  0  0  0  0  0  0  0  0
  1  6  1  0  0  0  0
  1  7  1  1  0  0  0
  1 17  1  0  0  0  0
  2  1  1  0  0  0  0
  3 10  1  0  0  0  0
  3  4  1  0  0  0  0
  3  2  1  0  0  0  0
  4  5  1  0  0  0  0
  5 14  1  1  0  0  0
  5 26  1  0  0  0  0
  5  6  1  0  0  0  0
  6 16  1  0  0  0  0
  8  2  1  0  0  0  0
  9  2  1  0  0  0  0
 11  3  1  0  0  0  0
 12  4  1  0  0  0  0
 13  4  1  0  0  0  0
 15  6  1  0  0  0  0
 17 18  1  0  0  0  0
 18 19  2  0  0  0  0
 18 23  1  0  0  0  0
 19 24  1  0  0  0  0
 20 19  1  0  0  0  0
 21 20  2  0  0  0  0
 22 21  1  0  0  0  0
 22 17  2  0  0  0  0
 25 21  1  0  0  0  0
 27 28  1  0  0  0  0
 27 26  2  0  0  0  0
 28 29  1  0  0  0  0
M  END
>  <minimizedAffinity>
-4.4465704

$$$$
