
 OpenBabel03252503093D

 22 23  0  0  0  0  0  0  0  0999 V2000
   45.0120   36.1170   43.5360 C   0  0  0  0  0  0  0  0  0  0  0  0
   45.6600   34.9440   43.1020 C   0  0  0  0  0  0  0  0  0  0  0  0
   45.7630   33.9430   44.0590 C   0  0  0  0  0  0  0  0  0  0  0  0
   45.2770   34.0820   45.3110 N   0  0  0  0  0  0  0  0  0  0  0  0
   44.6570   35.2410   45.6810 C   0  0  0  0  0  0  0  0  0  0  0  0
   44.5290   36.2510   44.7890 N   0  0  0  0  0  0  0  0  0  0  0  0
   44.8800   36.9550   42.8720 H   0  0  0  0  0  0  0  0  0  0  0  0
   44.2850   35.3180   46.6770 H   0  0  0  0  0  0  0  0  0  0  0  0
   46.3880   32.7460   43.7140 C   0  0  0  0  0  0  0  0  0  0  0  0
   47.6870   32.2880   43.7550 C   0  0  0  0  0  0  0  0  0  0  0  0
   48.0470   31.0790   43.3520 C   0  0  0  0  0  0  0  0  0  0  0  0
   47.0390   30.2670   42.8750 C   0  0  0  0  0  0  0  0  0  0  0  0
   45.5310   31.3330   43.0330 S   0  0  0  0  0  0  0  0  0  0  0  0
   48.5660   32.7890   44.1310 H   0  0  0  0  0  0  0  0  0  0  0  0
   48.9220   30.4910   43.2710 H   0  0  0  0  0  0  0  0  0  0  0  0
   46.8350   29.2990   42.4710 H   0  0  0  0  0  0  0  0  0  0  0  0
   46.1390   34.8430   41.7750 C   0  0  0  0  0  0  0  0  0  0  0  0
   47.4000   35.0080   41.6420 O   0  0  0  0  0  0  0  0  0  0  0  0
   44.8790   34.5710   41.0300 C   0  0  0  0  0  3  0  0  0  0  0  0
   44.2990   33.7180   40.2150 C   0  0  0  0  0  3  0  0  0  0  0  0
   42.9160   34.0550   39.8080 C   0  0  0  0  0  2  0  0  0  0  0  0
   42.1870   33.2740   40.1290 H   0  0  0  0  0  0  0  0  0  0  0  0
  1  6  1  0  0  0  0
  2  1  2  0  0  0  0
  2  3  1  0  0  0  0
  3  4  2  0  0  0  0
  4  5  1  0  0  0  0
  5  8  1  0  0  0  0
  6  5  2  0  0  0  0
  7  1  1  0  0  0  0
  9 10  2  0  0  0  0
  9  3  1  0  0  0  0
 10 14  1  0  0  0  0
 11 10  1  0  0  0  0
 12 13  1  0  0  0  0
 12 11  2  0  0  0  0
 13  9  1  0  0  0  0
 15 11  1  0  0  0  0
 16 12  1  0  0  0  0
 17  2  1  0  0  0  0
 18 17  2  0  0  0  0
 19 17  1  0  0  0  0
 20 19  2  0  0  0  0
 21 22  1  0  0  0  0
 21 20  1  0  0  0  0
M  END
>  <minimizedAffinity>
-3.97882271

>  <minimizedRMSD>
1.2852093

$$$$
