
 OpenBabel03242511413D

 29 30  0  0  0  0  0  0  0  0999 V2000
   46.8250   32.7150   46.1020 C   0  0  0  0  0  0  0  0  0  0  0  0
   46.9540   33.7400   46.4670 H   0  0  0  0  0  0  0  0  0  0  0  0
   47.8540   32.2800   45.9260 H   0  0  0  0  0  0  0  0  0  0  0  0
   46.2280   31.9050   47.1590 C   0  0  0  0  0  0  0  0  0  0  0  0
   45.3620   32.2760   48.1760 C   0  0  0  0  0  0  0  0  0  0  0  0
   44.8140   31.4180   49.0950 C   0  0  0  0  0  0  0  0  0  0  0  0
   45.1510   30.0980   48.9950 C   0  0  0  0  0  0  0  0  0  0  0  0
   46.0190   29.7000   47.9860 C   0  0  0  0  0  0  0  0  0  0  0  0
   46.5600   30.6000   47.0700 C   0  0  0  0  0  0  0  0  0  0  0  0
   45.1640   33.3470   48.1570 H   0  0  0  0  0  0  0  0  0  0  0  0
   44.1700   31.9210   49.8000 H   0  0  0  0  0  0  0  0  0  0  0  0
   44.6470   29.5190   49.7840 H   0  0  0  0  0  0  0  0  0  0  0  0
   46.1090   28.6200   48.1420 H   0  0  0  0  0  0  0  0  0  0  0  0
   47.5000   29.7750   46.3250 C   0  0  0  0  0  3  0  0  0  0  0  0
   48.7720   29.4820   46.4800 C   0  0  0  0  0  3  0  0  0  0  0  0
   49.6890   28.6560   45.7230 C   0  0  0  0  0  2  0  0  0  0  0  0
   49.1250   28.2130   44.8540 H   0  0  0  0  0  0  0  0  0  0  0  0
   46.1080   32.6040   44.8000 C   0  0  0  0  0  0  0  0  0  0  0  0
   45.1250   32.1250   44.9600 H   0  0  0  0  0  0  0  0  0  0  0  0
   46.7290   32.2100   43.9780 H   0  0  0  0  0  0  0  0  0  0  0  0
   44.5600   35.9640   44.7830 C   0  0  0  0  0  0  0  0  0  0  0  0
   44.9630   36.4680   43.5210 C   0  0  0  0  0  0  0  0  0  0  0  0
   45.7520   35.6430   42.7450 C   0  0  0  0  0  0  0  0  0  0  0  0
   46.0930   34.4360   43.2050 N   0  0  0  0  0  0  0  0  0  0  0  0
   45.6780   34.0020   44.4250 C   0  0  0  0  0  0  0  0  0  0  0  0
   44.9270   34.7440   45.2050 N   0  0  0  0  0  0  0  0  0  0  0  0
   43.9330   36.6540   45.3690 H   0  0  0  0  0  0  0  0  0  0  0  0
   44.6600   37.4600   43.1870 H   0  0  0  0  0  0  0  0  0  0  0  0
   46.0970   35.9640   41.7680 H   0  0  0  0  0  0  0  0  0  0  0  0
  1  2  1  0  0  0  0
  1  4  1  0  0  0  0
  3  1  1  0  0  0  0
  4  5  1  0  0  0  0
  5  6  2  0  0  0  0
  6 11  1  0  0  0  0
  7  6  1  0  0  0  0
  7 12  1  0  0  0  0
  8 13  1  0  0  0  0
  8  7  2  0  0  0  0
  9  4  2  0  0  0  0
  9  8  1  0  0  0  0
 10  5  1  0  0  0  0
 14 15  2  0  0  0  0
 14  9  1  0  0  0  0
 16 15  1  0  0  0  0
 17 16  1  0  0  0  0
 18 19  1  0  0  0  0
 18  1  1  0  0  0  0
 20 18  1  0  0  0  0
 21 26  1  0  0  0  0
 21 27  1  0  0  0  0
 22 21  2  0  0  0  0
 23 24  2  0  0  0  0
 23 22  1  0  0  0  0
 24 25  1  0  0  0  0
 25 18  1  0  0  0  0
 25 26  2  0  0  0  0
 28 22  1  0  0  0  0
 29 23  1  0  0  0  0
M  END
>  <minimizedAffinity>
-4.6609211

>  <minimizedRMSD>
1.1537348

$$$$
