
 OpenBabel03242513533D

 34 35  0  0  1  0  0  0  0  0999 V2000
   39.4850   32.9130   39.3920 C   0  0  2  0  0  0  0  0  0  0  0  0
   38.7310   34.0610   39.9870 C   0  0  0  0  0  0  0  0  0  0  0  0
   37.3180   33.6220   39.6610 C   0  0  0  0  0  0  0  0  0  0  0  0
   37.3170   32.1820   39.8740 C   0  0  0  0  0  0  0  0  0  0  0  0
   38.8460   31.7410   40.0980 C   0  0  2  0  0  0  0  0  0  0  0  0
   39.1880   32.8000   38.3240 H   0  0  0  0  0  0  0  0  0  0  0  0
   38.7910   34.0870   41.0890 H   0  0  0  0  0  0  0  0  0  0  0  0
   38.9770   35.0350   39.5230 H   0  0  0  0  0  0  0  0  0  0  0  0
   36.5520   34.2050   40.2120 H   0  0  0  0  0  0  0  0  0  0  0  0
   37.1730   33.8380   38.5710 H   0  0  0  0  0  0  0  0  0  0  0  0
   36.9300   31.5590   39.0480 H   0  0  0  0  0  0  0  0  0  0  0  0
   36.7780   31.9210   40.7870 H   0  0  0  0  0  0  0  0  0  0  0  0
   38.9690   30.7760   39.6020 H   0  0  0  0  0  0  0  0  0  0  0  0
   43.1590   32.1540   39.4300 C   0  0  0  0  0  0  0  0  0  0  0  0
   41.7950   31.9700   39.1510 C   0  0  0  0  0  0  0  0  0  0  0  0
   40.9480   32.9220   39.6080 C   0  0  0  0  0  0  0  0  0  0  0  0
   41.4760   34.0070   40.3160 N   0  0  0  0  0  0  0  0  0  0  0  0
   42.7770   34.1550   40.5670 C   0  0  0  0  0  0  0  0  0  0  0  0
   43.6200   33.2230   40.1200 N   0  0  0  0  0  0  0  0  0  0  0  0
   43.8550   31.3920   39.0670 H   0  0  0  0  0  0  0  0  0  0  0  0
   41.4150   31.1250   38.6020 H   0  0  0  0  0  0  0  0  0  0  0  0
   43.0650   35.0330   41.1220 H   0  0  0  0  0  0  0  0  0  0  0  0
   39.0540   31.7450   41.4650 O   0  0  0  0  0  0  0  0  0  0  0  0
   39.3550   30.6530   42.2440 C   0  0  0  0  0  0  0  0  0  0  0  0
   40.6100   30.6630   42.4530 O   0  0  0  0  0  0  0  0  0  0  0  0
   38.8670   29.4550   42.9560 C   0  0  0  0  0  3  0  0  0  0  0  0
   37.6190   28.9520   42.9950 C   0  0  0  0  0  3  0  0  0  0  0  0
   37.0390   27.7770   43.6790 C   0  0  0  0  0  0  0  0  0  0  0  0
   37.6810   27.3950   44.4980 H   0  0  0  0  0  0  0  0  0  0  0  0
   36.1070   28.1240   44.1860 H   0  0  0  0  0  0  0  0  0  0  0  0
   36.6190   26.7090   42.7350 C   0  0  0  0  0  3  0  0  0  0  0  0
   37.4450   25.8500   42.1730 C   0  0  0  0  0  3  0  0  0  0  0  0
   37.0100   24.7840   41.2290 C   0  0  0  0  0  2  0  0  0  0  0  0
   37.7400   23.9690   41.1770 H   0  0  0  0  0  0  0  0  0  0  0  0
  1  6  1  6  0  0  0
  1 16  1  0  0  0  0
  1  2  1  0  0  0  0
  1  5  1  0  0  0  0
  2  7  1  0  0  0  0
  3  4  1  0  0  0  0
  3  2  1  0  0  0  0
  3  9  1  0  0  0  0
  4  5  1  0  0  0  0
  4 12  1  0  0  0  0
  5 13  1  6  0  0  0
  5 23  1  0  0  0  0
  8  2  1  0  0  0  0
 10  3  1  0  0  0  0
 11  4  1  0  0  0  0
 14 19  1  0  0  0  0
 15 14  2  0  0  0  0
 15 16  1  0  0  0  0
 16 17  2  0  0  0  0
 17 18  1  0  0  0  0
 18 22  1  0  0  0  0
 19 18  2  0  0  0  0
 20 14  1  0  0  0  0
 21 15  1  0  0  0  0
 23 24  1  0  0  0  0
 24 25  2  0  0  0  0
 24 26  1  0  0  0  0
 26 27  2  0  0  0  0
 27 28  1  0  0  0  0
 28 30  1  0  0  0  0
 28 29  1  0  0  0  0
 31 28  1  0  0  0  0
 32 31  2  0  0  0  0
 33 32  1  0  0  0  0
 34 33  1  0  0  0  0
M  END
>  <minimizedAffinity>
-4.83746624

$$$$

 OpenBabel03242513533D

 34 35  0  0  1  0  0  0  0  0999 V2000
   37.3920   30.7160   39.8130 C   0  0  2  0  0  0  0  0  0  0  0  0
   36.1990   30.9480   40.6880 C   0  0  0  0  0  0  0  0  0  0  0  0
   35.4490   29.6570   40.4270 C   0  0  0  0  0  0  0  0  0  0  0  0
   36.4820   28.6340   40.3620 C   0  0  0  0  0  0  0  0  0  0  0  0
   37.8960   29.3960   40.3440 C   0  0  2  0  0  0  0  0  0  0  0  0
   37.0440   30.4950   38.7790 H   0  0  0  0  0  0  0  0  0  0  0  0
   36.4490   30.9390   41.7630 H   0  0  0  0  0  0  0  0  0  0  0  0
   35.6060   31.8360   40.3950 H   0  0  0  0  0  0  0  0  0  0  0  0
   34.6280   29.4870   41.1520 H   0  0  0  0  0  0  0  0  0  0  0  0
   34.9760   29.7760   39.4180 H   0  0  0  0  0  0  0  0  0  0  0  0
   36.4710   27.9750   39.4760 H   0  0  0  0  0  0  0  0  0  0  0  0
   36.4730   28.0090   41.2580 H   0  0  0  0  0  0  0  0  0  0  0  0
   38.5440   28.8390   39.6640 H   0  0  0  0  0  0  0  0  0  0  0  0
   40.5450   32.7180   39.4590 C   0  0  0  0  0  0  0  0  0  0  0  0
   39.6740   31.6260   39.3150 C   0  0  0  0  0  0  0  0  0  0  0  0
   38.4490   31.7480   39.8800 C   0  0  0  0  0  0  0  0  0  0  0  0
   38.1370   32.9310   40.5580 N   0  0  0  0  0  0  0  0  0  0  0  0
   38.9860   33.9530   40.6790 C   0  0  0  0  0  0  0  0  0  0  0  0
   40.1940   33.8430   40.1260 N   0  0  0  0  0  0  0  0  0  0  0  0
   41.5380   32.6340   39.0080 H   0  0  0  0  0  0  0  0  0  0  0  0
   39.9400   30.7270   38.7870 H   0  0  0  0  0  0  0  0  0  0  0  0
   38.6310   34.8130   41.2250 H   0  0  0  0  0  0  0  0  0  0  0  0
   38.3190   29.4600   41.6590 O   0  0  0  0  0  0  0  0  0  0  0  0
   38.1820   28.4710   42.6050 C   0  0  0  0  0  0  0  0  0  0  0  0
   37.7350   29.0130   43.6660 O   0  0  0  0  0  0  0  0  0  0  0  0
   38.3260   27.0420   42.9460 C   0  0  0  0  0  3  0  0  0  0  0  0
   38.3680   25.9820   42.1180 C   0  0  0  0  0  3  0  0  0  0  0  0
   38.4980   24.5300   42.3640 C   0  0  0  0  0  0  0  0  0  0  0  0
   39.5530   24.1970   42.4260 H   0  0  0  0  0  0  0  0  0  0  0  0
   38.0760   24.3330   43.3780 H   0  0  0  0  0  0  0  0  0  0  0  0
   37.6940   23.7100   41.4200 C   0  0  0  0  0  3  0  0  0  0  0  0
   36.5790   24.1180   40.8500 C   0  0  0  0  0  3  0  0  0  0  0  0
   35.7820   23.2860   39.9050 C   0  0  0  0  0  2  0  0  0  0  0  0
   35.1400   23.9030   39.2690 H   0  0  0  0  0  0  0  0  0  0  0  0
  1  6  1  6  0  0  0
  1 16  1  0  0  0  0
  1  5  1  0  0  0  0
  1  2  1  0  0  0  0
  2  7  1  0  0  0  0
  3  2  1  0  0  0  0
  3  9  1  0  0  0  0
  4  3  1  0  0  0  0
  4 12  1  0  0  0  0
  5 13  1  6  0  0  0
  5  4  1  0  0  0  0
  5 23  1  0  0  0  0
  8  2  1  0  0  0  0
 10  3  1  0  0  0  0
 11  4  1  0  0  0  0
 14 19  1  0  0  0  0
 15 14  2  0  0  0  0
 15 16  1  0  0  0  0
 16 17  2  0  0  0  0
 17 18  1  0  0  0  0
 18 22  1  0  0  0  0
 19 18  2  0  0  0  0
 20 14  1  0  0  0  0
 21 15  1  0  0  0  0
 23 24  1  0  0  0  0
 24 26  1  0  0  0  0
 24 25  2  0  0  0  0
 27 28  1  0  0  0  0
 27 26  2  0  0  0  0
 28 29  1  0  0  0  0
 28 30  1  0  0  0  0
 31 28  1  0  0  0  0
 32 31  2  0  0  0  0
 33 32  1  0  0  0  0
 34 33  1  0  0  0  0
M  END
>  <minimizedAffinity>
-4.79146433

$$$$

 OpenBabel03242513533D

 34 35  0  0  1  0  0  0  0  0999 V2000
   38.8750   31.6250   39.9630 C   0  0  2  0  0  0  0  0  0  0  0  0
   38.7190   32.7710   40.9140 C   0  0  0  0  0  0  0  0  0  0  0  0
   38.0900   33.7830   39.9780 C   0  0  0  0  0  0  0  0  0  0  0  0
   37.1710   33.0080   39.1570 C   0  0  0  0  0  0  0  0  0  0  0  0
   37.4590   31.4580   39.4670 C   0  0  2  0  0  0  0  0  0  0  0  0
   39.4510   31.9690   39.0750 H   0  0  0  0  0  0  0  0  0  0  0  0
   37.9660   32.5770   41.6980 H   0  0  0  0  0  0  0  0  0  0  0  0
   39.6810   33.1330   41.3260 H   0  0  0  0  0  0  0  0  0  0  0  0
   37.6610   34.6520   40.5160 H   0  0  0  0  0  0  0  0  0  0  0  0
   38.9250   34.1720   39.3400 H   0  0  0  0  0  0  0  0  0  0  0  0
   37.2630   33.1300   38.0620 H   0  0  0  0  0  0  0  0  0  0  0  0
   36.1340   33.1990   39.4400 H   0  0  0  0  0  0  0  0  0  0  0  0
   37.3590   30.9250   38.5190 H   0  0  0  0  0  0  0  0  0  0  0  0
   40.0620   28.1190   40.5760 C   0  0  0  0  0  0  0  0  0  0  0  0
   39.5520   29.2140   39.8600 C   0  0  0  0  0  0  0  0  0  0  0  0
   39.3780   30.3650   40.5520 C   0  0  0  0  0  0  0  0  0  0  0  0
   39.7110   30.3890   41.9090 N   0  0  0  0  0  0  0  0  0  0  0  0
   40.1940   29.3320   42.5650 C   0  0  0  0  0  0  0  0  0  0  0  0
   40.3700   28.1950   41.8930 N   0  0  0  0  0  0  0  0  0  0  0  0
   40.2080   27.1830   40.0300 H   0  0  0  0  0  0  0  0  0  0  0  0
   39.3040   29.1680   38.8130 H   0  0  0  0  0  0  0  0  0  0  0  0
   40.4140   29.4720   43.6110 H   0  0  0  0  0  0  0  0  0  0  0  0
   36.5700   31.0900   40.4600 O   0  0  0  0  0  0  0  0  0  0  0  0
   35.9870   29.8540   40.6100 C   0  0  0  0  0  0  0  0  0  0  0  0
   35.0190   29.7830   39.7880 O   0  0  0  0  0  0  0  0  0  0  0  0
   35.9800   28.5540   41.3100 C   0  0  0  0  0  3  0  0  0  0  0  0
   36.7620   28.1440   42.3260 C   0  0  0  0  0  3  0  0  0  0  0  0
   36.8350   26.8730   43.0770 C   0  0  0  0  0  0  0  0  0  0  0  0
   37.2650   26.9950   44.0910 H   0  0  0  0  0  0  0  0  0  0  0  0
   35.7840   26.5380   43.2510 H   0  0  0  0  0  0  0  0  0  0  0  0
   37.4890   25.7840   42.3050 C   0  0  0  0  0  3  0  0  0  0  0  0
   36.8850   24.6740   41.9330 C   0  0  0  0  0  3  0  0  0  0  0  0
   37.5520   23.5900   41.1600 C   0  0  0  0  0  2  0  0  0  0  0  0
   36.8240   22.9630   40.6350 H   0  0  0  0  0  0  0  0  0  0  0  0
  1  6  1  6  0  0  0
  1 16  1  0  0  0  0
  1  2  1  0  0  0  0
  2  8  1  0  0  0  0
  2  7  1  0  0  0  0
  3  9  1  0  0  0  0
  3  2  1  0  0  0  0
  4 12  1  0  0  0  0
  4  5  1  0  0  0  0
  4  3  1  0  0  0  0
  5 13  1  6  0  0  0
  5  1  1  0  0  0  0
  5 23  1  0  0  0  0
 10  3  1  0  0  0  0
 11  4  1  0  0  0  0
 14 19  1  0  0  0  0
 15 16  1  0  0  0  0
 15 14  2  0  0  0  0
 16 17  2  0  0  0  0
 17 18  1  0  0  0  0
 18 22  1  0  0  0  0
 19 18  2  0  0  0  0
 20 14  1  0  0  0  0
 21 15  1  0  0  0  0
 23 24  1  0  0  0  0
 24 26  1  0  0  0  0
 25 24  2  0  0  0  0
 26 27  2  0  0  0  0
 27 28  1  0  0  0  0
 28 30  1  0  0  0  0
 28 29  1  0  0  0  0
 31 28  1  0  0  0  0
 32 31  2  0  0  0  0
 33 32  1  0  0  0  0
 34 33  1  0  0  0  0
M  END
>  <minimizedAffinity>
-4.74584484

$$$$

 OpenBabel03242513533D

 34 35  0  0  1  0  0  0  0  0999 V2000
   37.0670   32.0700   40.3150 C   0  0  2  0  0  0  0  0  0  0  0  0
   37.3940   32.9210   39.1270 C   0  0  0  0  0  0  0  0  0  0  0  0
   38.0660   34.0810   39.8330 C   0  0  0  0  0  0  0  0  0  0  0  0
   38.8510   33.4660   40.8940 C   0  0  0  0  0  0  0  0  0  0  0  0
   38.4260   31.9180   40.9530 C   0  0  2  0  0  0  0  0  0  0  0  0
   36.4760   32.6750   41.0410 H   0  0  0  0  0  0  0  0  0  0  0  0
   38.1690   32.4720   38.4800 H   0  0  0  0  0  0  0  0  0  0  0  0
   36.5000   33.2450   38.5600 H   0  0  0  0  0  0  0  0  0  0  0  0
   38.6120   34.7460   39.1350 H   0  0  0  0  0  0  0  0  0  0  0  0
   37.2380   34.6870   40.2840 H   0  0  0  0  0  0  0  0  0  0  0  0
   38.7070   33.8690   41.9120 H   0  0  0  0  0  0  0  0  0  0  0  0
   39.9170   33.4920   40.6580 H   0  0  0  0  0  0  0  0  0  0  0  0
   38.4160   31.6360   42.0080 H   0  0  0  0  0  0  0  0  0  0  0  0
   35.4980   28.6670   40.4910 C   0  0  0  0  0  0  0  0  0  0  0  0
   36.0580   29.8670   40.9570 C   0  0  0  0  0  0  0  0  0  0  0  0
   36.4750   30.7480   40.0170 C   0  0  0  0  0  0  0  0  0  0  0  0
   36.3240   30.4120   38.6680 N   0  0  0  0  0  0  0  0  0  0  0  0
   35.7880   29.2630   38.2540 C   0  0  0  0  0  0  0  0  0  0  0  0
   35.3730   28.3890   39.1710 N   0  0  0  0  0  0  0  0  0  0  0  0
   35.1570   27.9450   41.2390 H   0  0  0  0  0  0  0  0  0  0  0  0
   36.1620   30.1010   42.0030 H   0  0  0  0  0  0  0  0  0  0  0  0
   35.7240   29.1170   37.1870 H   0  0  0  0  0  0  0  0  0  0  0  0
   39.3310   31.2370   40.1590 O   0  0  0  0  0  0  0  0  0  0  0  0
   39.8650   29.9970   40.4160 C   0  0  0  0  0  0  0  0  0  0  0  0
   40.7130   29.7460   39.5010 O   0  0  0  0  0  0  0  0  0  0  0  0
   39.8950   28.8070   41.2910 C   0  0  0  0  0  3  0  0  0  0  0  0
   39.2660   28.6130   42.4650 C   0  0  0  0  0  3  0  0  0  0  0  0
   39.2430   27.4730   43.4050 C   0  0  0  0  0  0  0  0  0  0  0  0
   40.2160   27.3110   43.9110 H   0  0  0  0  0  0  0  0  0  0  0  0
   38.5370   27.7440   44.2270 H   0  0  0  0  0  0  0  0  0  0  0  0
   38.7030   26.2310   42.7940 C   0  0  0  0  0  3  0  0  0  0  0  0
   37.4560   26.0840   42.3950 C   0  0  0  0  0  3  0  0  0  0  0  0
   36.9270   24.8330   41.7830 C   0  0  0  0  0  2  0  0  0  0  0  0
   36.0260   25.0240   41.1910 H   0  0  0  0  0  0  0  0  0  0  0  0
  1  5  1  0  0  0  0
  1  6  1  1  0  0  0
  2  3  1  0  0  0  0
  2  1  1  0  0  0  0
  3 10  1  0  0  0  0
  3  4  1  0  0  0  0
  4  5  1  0  0  0  0
  4 11  1  0  0  0  0
  5 13  1  1  0  0  0
  7  2  1  0  0  0  0
  8  2  1  0  0  0  0
  9  3  1  0  0  0  0
 12  4  1  0  0  0  0
 14 15  1  0  0  0  0
 14 20  1  0  0  0  0
 15 21  1  0  0  0  0
 16  1  1  0  0  0  0
 16 15  2  0  0  0  0
 17 16  1  0  0  0  0
 18 17  2  0  0  0  0
 18 19  1  0  0  0  0
 19 14  2  0  0  0  0
 22 18  1  0  0  0  0
 23 24  1  0  0  0  0
 23  5  1  0  0  0  0
 24 26  1  0  0  0  0
 25 24  2  0  0  0  0
 26 27  2  0  0  0  0
 27 28  1  0  0  0  0
 28 29  1  0  0  0  0
 28 30  1  0  0  0  0
 31 28  1  0  0  0  0
 32 31  2  0  0  0  0
 33 32  1  0  0  0  0
 34 33  1  0  0  0  0
M  END
>  <minimizedAffinity>
-4.72291994

$$$$

 OpenBabel03242513533D

 34 35  0  0  1  0  0  0  0  0999 V2000
   37.3840   29.4890   42.2540 C   0  0  2  0  0  0  0  0  0  0  0  0
   38.6120   28.7590   42.7030 C   0  0  0  0  0  0  0  0  0  0  0  0
   37.9770   27.7870   43.6760 C   0  0  0  0  0  0  0  0  0  0  0  0
   36.7290   27.3880   43.0420 C   0  0  0  0  0  0  0  0  0  0  0  0
   36.5220   28.3480   41.7700 C   0  0  2  0  0  0  0  0  0  0  0  0
   36.8550   29.8890   43.1470 H   0  0  0  0  0  0  0  0  0  0  0  0
   39.0580   28.1390   41.9050 H   0  0  0  0  0  0  0  0  0  0  0  0
   39.3540   29.4140   43.1990 H   0  0  0  0  0  0  0  0  0  0  0  0
   38.6660   26.9700   43.9730 H   0  0  0  0  0  0  0  0  0  0  0  0
   37.7540   28.3800   44.6010 H   0  0  0  0  0  0  0  0  0  0  0  0
   35.8130   27.4760   43.6530 H   0  0  0  0  0  0  0  0  0  0  0  0
   36.7920   26.3670   42.6590 H   0  0  0  0  0  0  0  0  0  0  0  0
   35.4530   28.5650   41.7120 H   0  0  0  0  0  0  0  0  0  0  0  0
   36.9670   32.1210   39.6130 C   0  0  0  0  0  0  0  0  0  0  0  0
   36.5890   31.1980   40.6010 C   0  0  0  0  0  0  0  0  0  0  0  0
   37.5850   30.4870   41.1800 C   0  0  0  0  0  0  0  0  0  0  0  0
   38.9010   30.7120   40.7650 N   0  0  0  0  0  0  0  0  0  0  0  0
   39.2310   31.5960   39.8220 C   0  0  0  0  0  0  0  0  0  0  0  0
   38.2580   32.3020   39.2460 N   0  0  0  0  0  0  0  0  0  0  0  0
   36.1730   32.7030   39.1360 H   0  0  0  0  0  0  0  0  0  0  0  0
   35.5670   31.0450   40.9030 H   0  0  0  0  0  0  0  0  0  0  0  0
   40.2800   31.6820   39.5860 H   0  0  0  0  0  0  0  0  0  0  0  0
   37.0580   27.6760   40.6870 O   0  0  0  0  0  0  0  0  0  0  0  0
   36.3620   27.2000   39.6010 C   0  0  0  0  0  0  0  0  0  0  0  0
   36.4260   25.9300   39.6310 O   0  0  0  0  0  0  0  0  0  0  0  0
   35.5620   27.5070   38.3980 C   0  0  0  0  0  3  0  0  0  0  0  0
   35.0250   28.6830   38.0250 C   0  0  0  0  0  3  0  0  0  0  0  0
   34.2120   29.0810   36.8570 C   0  0  0  0  0  0  0  0  0  0  0  0
   34.5830   30.0030   36.3670 H   0  0  0  0  0  0  0  0  0  0  0  0
   34.3320   28.2810   36.0890 H   0  0  0  0  0  0  0  0  0  0  0  0
   32.7580   29.1410   37.1610 C   0  0  0  0  0  3  0  0  0  0  0  0
   31.8310   29.4680   36.2830 C   0  0  0  0  0  3  0  0  0  0  0  0
   30.3770   29.5240   36.6010 C   0  0  0  0  0  2  0  0  0  0  0  0
   29.7640   29.4350   35.6980 H   0  0  0  0  0  0  0  0  0  0  0  0
  1  2  1  0  0  0  0
  1  6  1  1  0  0  0
  2  8  1  0  0  0  0
  2  3  1  0  0  0  0
  3  9  1  0  0  0  0
  3 10  1  0  0  0  0
  4 11  1  0  0  0  0
  4  3  1  0  0  0  0
  5 13  1  6  0  0  0
  5  1  1  0  0  0  0
  5  4  1  0  0  0  0
  7  2  1  0  0  0  0
 12  4  1  0  0  0  0
 14 15  1  0  0  0  0
 15 21  1  0  0  0  0
 15 16  2  0  0  0  0
 16  1  1  0  0  0  0
 17 16  1  0  0  0  0
 18 17  2  0  0  0  0
 19 14  2  0  0  0  0
 19 18  1  0  0  0  0
 20 14  1  0  0  0  0
 22 18  1  0  0  0  0
 23  5  1  0  0  0  0
 24 25  2  0  0  0  0
 24 23  1  0  0  0  0
 26 24  1  0  0  0  0
 27 26  2  0  0  0  0
 28 31  1  0  0  0  0
 28 27  1  0  0  0  0
 29 28  1  0  0  0  0
 30 28  1  0  0  0  0
 32 33  1  0  0  0  0
 32 31  2  0  0  0  0
 34 33  1  0  0  0  0
M  END
>  <minimizedAffinity>
-4.69568682

$$$$

 OpenBabel03242513533D

 34 35  0  0  1  0  0  0  0  0999 V2000
   38.4460   32.1720   38.7190 C   0  0  2  0  0  0  0  0  0  0  0  0
   39.8950   32.3640   39.0430 C   0  0  0  0  0  0  0  0  0  0  0  0
   39.8150   33.7080   39.7390 C   0  0  0  0  0  0  0  0  0  0  0  0
   38.5940   33.6460   40.5280 C   0  0  0  0  0  0  0  0  0  0  0  0
   37.8160   32.3120   40.0840 C   0  0  2  0  0  0  0  0  0  0  0  0
   38.0840   33.0550   38.1450 H   0  0  0  0  0  0  0  0  0  0  0  0
   40.2610   31.6520   39.8040 H   0  0  0  0  0  0  0  0  0  0  0  0
   40.5440   32.4010   38.1470 H   0  0  0  0  0  0  0  0  0  0  0  0
   40.7460   33.9610   40.2850 H   0  0  0  0  0  0  0  0  0  0  0  0
   39.6960   34.4680   38.9240 H   0  0  0  0  0  0  0  0  0  0  0  0
   37.8800   34.4800   40.4020 H   0  0  0  0  0  0  0  0  0  0  0  0
   38.8180   33.5400   41.5910 H   0  0  0  0  0  0  0  0  0  0  0  0
   36.7520   32.5550   40.0830 H   0  0  0  0  0  0  0  0  0  0  0  0
   38.4690   28.7490   37.1850 C   0  0  0  0  0  0  0  0  0  0  0  0
   38.9890   29.9350   37.7280 C   0  0  0  0  0  0  0  0  0  0  0  0
   38.0890   30.8740   38.1060 C   0  0  0  0  0  0  0  0  0  0  0  0
   36.7270   30.6090   37.9330 N   0  0  0  0  0  0  0  0  0  0  0  0
   36.2620   29.4720   37.4120 C   0  0  0  0  0  0  0  0  0  0  0  0
   37.1390   28.5400   37.0380 N   0  0  0  0  0  0  0  0  0  0  0  0
   39.1830   27.9810   36.8750 H   0  0  0  0  0  0  0  0  0  0  0  0
   40.0430   30.1130   37.8510 H   0  0  0  0  0  0  0  0  0  0  0  0
   35.1910   29.3820   37.3290 H   0  0  0  0  0  0  0  0  0  0  0  0
   38.2050   31.3240   40.9700 O   0  0  0  0  0  0  0  0  0  0  0  0
   37.3770   30.4170   41.5890 C   0  0  0  0  0  0  0  0  0  0  0  0
   36.1780   30.7540   41.3340 O   0  0  0  0  0  0  0  0  0  0  0  0
   37.2560   29.2090   42.4300 C   0  0  0  0  0  3  0  0  0  0  0  0
   37.0500   27.9360   42.0460 C   0  0  0  0  0  3  0  0  0  0  0  0
   36.9070   26.6770   42.8060 C   0  0  0  0  0  0  0  0  0  0  0  0
   37.2170   26.7750   43.8660 H   0  0  0  0  0  0  0  0  0  0  0  0
   35.8160   26.4440   42.8490 H   0  0  0  0  0  0  0  0  0  0  0  0
   37.5470   25.5180   42.1290 C   0  0  0  0  0  3  0  0  0  0  0  0
   36.8860   24.4870   41.6440 C   0  0  0  0  0  3  0  0  0  0  0  0
   37.5400   23.3320   40.9670 C   0  0  0  0  0  2  0  0  0  0  0  0
   36.8390   22.7950   40.3200 H   0  0  0  0  0  0  0  0  0  0  0  0
  1  6  1  6  0  0  0
  1  2  1  0  0  0  0
  1  5  1  0  0  0  0
  2  3  1  0  0  0  0
  2  7  1  0  0  0  0
  3  9  1  0  0  0  0
  3  4  1  0  0  0  0
  4 12  1  0  0  0  0
  5 13  1  6  0  0  0
  5  4  1  0  0  0  0
  5 23  1  0  0  0  0
  8  2  1  0  0  0  0
 10  3  1  0  0  0  0
 11  4  1  0  0  0  0
 14 15  1  0  0  0  0
 15 21  1  0  0  0  0
 15 16  2  0  0  0  0
 16  1  1  0  0  0  0
 17 16  1  0  0  0  0
 18 17  2  0  0  0  0
 19 14  2  0  0  0  0
 19 18  1  0  0  0  0
 20 14  1  0  0  0  0
 22 18  1  0  0  0  0
 23 24  1  0  0  0  0
 24 26  1  0  0  0  0
 25 24  2  0  0  0  0
 27 26  2  0  0  0  0
 27 28  1  0  0  0  0
 28 30  1  0  0  0  0
 28 29  1  0  0  0  0
 31 28  1  0  0  0  0
 32 31  2  0  0  0  0
 33 32  1  0  0  0  0
 34 33  1  0  0  0  0
M  END
>  <minimizedAffinity>
-4.67746973

$$$$

 OpenBabel03242513533D

 34 35  0  0  1  0  0  0  0  0999 V2000
   37.6070   24.8670   41.8760 C   0  0  2  0  0  0  0  0  0  0  0  0
   38.8400   24.2520   41.2900 C   0  0  0  0  0  0  0  0  0  0  0  0
   38.2470   22.9560   40.7760 C   0  0  0  0  0  0  0  0  0  0  0  0
   36.9430   23.3270   40.2470 C   0  0  0  0  0  0  0  0  0  0  0  0
   36.6750   24.8480   40.6890 C   0  0  2  0  0  0  0  0  0  0  0  0
   37.1590   24.1540   42.6040 H   0  0  0  0  0  0  0  0  0  0  0  0
   39.2050   24.7910   40.3970 H   0  0  0  0  0  0  0  0  0  0  0  0
   39.6390   24.0730   42.0360 H   0  0  0  0  0  0  0  0  0  0  0  0
   38.9280   22.4200   40.0850 H   0  0  0  0  0  0  0  0  0  0  0  0
   38.1130   22.3020   41.6770 H   0  0  0  0  0  0  0  0  0  0  0  0
   36.0780   22.7400   40.6050 H   0  0  0  0  0  0  0  0  0  0  0  0
   36.9440   23.3120   39.1550 H   0  0  0  0  0  0  0  0  0  0  0  0
   35.6120   24.9210   40.9320 H   0  0  0  0  0  0  0  0  0  0  0  0
   37.1760   28.1630   43.6150 C   0  0  0  0  0  0  0  0  0  0  0  0
   36.8530   26.8650   43.1880 C   0  0  0  0  0  0  0  0  0  0  0  0
   37.7610   26.2410   42.4020 C   0  0  0  0  0  0  0  0  0  0  0  0
   38.9410   26.9160   42.0720 N   0  0  0  0  0  0  0  0  0  0  0  0
   39.2210   28.1500   42.4920 C   0  0  0  0  0  0  0  0  0  0  0  0
   38.3340   28.7740   43.2680 N   0  0  0  0  0  0  0  0  0  0  0  0
   36.4510   28.6800   44.2510 H   0  0  0  0  0  0  0  0  0  0  0  0
   35.9370   26.3680   43.4580 H   0  0  0  0  0  0  0  0  0  0  0  0
   40.1630   28.5670   42.1720 H   0  0  0  0  0  0  0  0  0  0  0  0
   37.1060   25.6390   39.6400 O   0  0  0  0  0  0  0  0  0  0  0  0
   36.4770   26.7620   39.1560 C   0  0  0  0  0  0  0  0  0  0  0  0
   35.7400   26.4010   38.1850 O   0  0  0  0  0  0  0  0  0  0  0  0
   36.2710   28.2200   39.2610 C   0  0  0  0  0  3  0  0  0  0  0  0
   35.9400   28.9450   40.3460 C   0  0  0  0  0  3  0  0  0  0  0  0
   35.7060   30.3910   40.5440 C   0  0  0  0  0  0  0  0  0  0  0  0
   35.1070   30.8460   39.7300 H   0  0  0  0  0  0  0  0  0  0  0  0
   35.0730   30.4960   41.4570 H   0  0  0  0  0  0  0  0  0  0  0  0
   36.9570   31.1450   40.8230 C   0  0  0  0  0  3  0  0  0  0  0  0
   37.2870   32.2750   40.2340 C   0  0  0  0  0  3  0  0  0  0  0  0
   38.5440   33.0210   40.5240 C   0  0  0  0  0  2  0  0  0  0  0  0
   38.4610   34.0750   40.2430 H   0  0  0  0  0  0  0  0  0  0  0  0
  1 16  1  0  0  0  0
  1  6  1  1  0  0  0
  2  1  1  0  0  0  0
  2  8  1  0  0  0  0
  3  2  1  0  0  0  0
  3 10  1  0  0  0  0
  4 11  1  0  0  0  0
  4  5  1  0  0  0  0
  4  3  1  0  0  0  0
  5 13  1  1  0  0  0
  5  1  1  0  0  0  0
  7  2  1  0  0  0  0
  9  3  1  0  0  0  0
 12  4  1  0  0  0  0
 14 20  1  0  0  0  0
 15 21  1  0  0  0  0
 15 14  2  0  0  0  0
 16 15  1  0  0  0  0
 17 16  2  0  0  0  0
 17 18  1  0  0  0  0
 18 19  2  0  0  0  0
 19 14  1  0  0  0  0
 22 18  1  0  0  0  0
 23  5  1  0  0  0  0
 24 26  1  0  0  0  0
 24 23  1  0  0  0  0
 25 24  2  0  0  0  0
 26 27  2  0  0  0  0
 27 28  1  0  0  0  0
 28 31  1  0  0  0  0
 28 30  1  0  0  0  0
 29 28  1  0  0  0  0
 32 33  1  0  0  0  0
 32 31  2  0  0  0  0
 34 33  1  0  0  0  0
M  END
>  <minimizedAffinity>
-4.66202736

$$$$

 OpenBabel03242513533D

 34 35  0  0  1  0  0  0  0  0999 V2000
   37.3180   29.4790   42.3250 C   0  0  2  0  0  0  0  0  0  0  0  0
   38.4990   28.7360   42.8700 C   0  0  0  0  0  0  0  0  0  0  0  0
   37.7720   27.6770   43.6740 C   0  0  0  0  0  0  0  0  0  0  0  0
   36.6260   27.3100   42.8550 C   0  0  0  0  0  0  0  0  0  0  0  0
   36.5560   28.3660   41.6470 C   0  0  2  0  0  0  0  0  0  0  0  0
   36.6690   29.7960   43.1720 H   0  0  0  0  0  0  0  0  0  0  0  0
   39.0580   28.1910   42.0890 H   0  0  0  0  0  0  0  0  0  0  0  0
   39.1540   29.3600   43.5070 H   0  0  0  0  0  0  0  0  0  0  0  0
   38.4390   26.8510   43.9920 H   0  0  0  0  0  0  0  0  0  0  0  0
   37.4180   28.1890   44.6060 H   0  0  0  0  0  0  0  0  0  0  0  0
   35.6380   27.3330   43.3490 H   0  0  0  0  0  0  0  0  0  0  0  0
   36.7650   26.3250   42.4040 H   0  0  0  0  0  0  0  0  0  0  0  0
   35.4970   28.5690   41.4690 H   0  0  0  0  0  0  0  0  0  0  0  0
   37.1700   32.2480   39.7980 C   0  0  0  0  0  0  0  0  0  0  0  0
   36.6980   31.2290   40.6400 C   0  0  0  0  0  0  0  0  0  0  0  0
   37.6270   30.5640   41.3680 C   0  0  0  0  0  0  0  0  0  0  0  0
   38.9700   30.9280   41.2360 N   0  0  0  0  0  0  0  0  0  0  0  0
   39.3900   31.9010   40.4260 C   0  0  0  0  0  0  0  0  0  0  0  0
   38.4840   32.5620   39.7060 N   0  0  0  0  0  0  0  0  0  0  0  0
   36.4310   32.7940   39.2030 H   0  0  0  0  0  0  0  0  0  0  0  0
   35.6560   30.9690   40.7240 H   0  0  0  0  0  0  0  0  0  0  0  0
   40.4510   32.0910   40.4080 H   0  0  0  0  0  0  0  0  0  0  0  0
   37.2430   27.7940   40.5920 O   0  0  0  0  0  0  0  0  0  0  0  0
   36.8020   26.7590   39.8010 C   0  0  0  0  0  0  0  0  0  0  0  0
   35.9040   27.2220   39.0270 O   0  0  0  0  0  0  0  0  0  0  0  0
   36.9050   25.3300   39.4440 C   0  0  0  0  0  3  0  0  0  0  0  0
   36.0090   24.3470   39.6500 C   0  0  0  0  0  3  0  0  0  0  0  0
   36.0270   22.9020   39.3390 C   0  0  0  0  0  0  0  0  0  0  0  0
   36.7090   22.6500   38.5030 H   0  0  0  0  0  0  0  0  0  0  0  0
   36.4610   22.3840   40.2270 H   0  0  0  0  0  0  0  0  0  0  0  0
   34.6650   22.3340   39.1580 C   0  0  0  0  0  3  0  0  0  0  0  0
   33.5740   22.8420   39.6920 C   0  0  0  0  0  3  0  0  0  0  0  0
   32.2150   22.2620   39.5020 C   0  0  0  0  0  2  0  0  0  0  0  0
   31.4310   23.0040   39.6870 H   0  0  0  0  0  0  0  0  0  0  0  0
  1  2  1  0  0  0  0
  1  6  1  1  0  0  0
  2  8  1  0  0  0  0
  2  3  1  0  0  0  0
  3  9  1  0  0  0  0
  3 10  1  0  0  0  0
  4 11  1  0  0  0  0
  4  3  1  0  0  0  0
  5 13  1  6  0  0  0
  5  1  1  0  0  0  0
  5  4  1  0  0  0  0
  7  2  1  0  0  0  0
 12  4  1  0  0  0  0
 14 15  1  0  0  0  0
 15 21  1  0  0  0  0
 15 16  2  0  0  0  0
 16  1  1  0  0  0  0
 17 16  1  0  0  0  0
 18 17  2  0  0  0  0
 19 14  2  0  0  0  0
 19 18  1  0  0  0  0
 20 14  1  0  0  0  0
 22 18  1  0  0  0  0
 23  5  1  0  0  0  0
 24 23  1  0  0  0  0
 25 24  2  0  0  0  0
 26 27  2  0  0  0  0
 26 24  1  0  0  0  0
 28 27  1  0  0  0  0
 28 30  1  0  0  0  0
 29 28  1  0  0  0  0
 31 28  1  0  0  0  0
 31 32  2  0  0  0  0
 33 34  1  0  0  0  0
 33 32  1  0  0  0  0
M  END
>  <minimizedAffinity>
-4.61637735

$$$$

 OpenBabel03242513533D

 34 35  0  0  1  0  0  0  0  0999 V2000
   39.1280   29.3930   42.6220 C   0  0  2  0  0  0  0  0  0  0  0  0
   39.4720   27.9470   42.4440 C   0  0  0  0  0  0  0  0  0  0  0  0
   38.7180   27.3680   43.6230 C   0  0  0  0  0  0  0  0  0  0  0  0
   37.4730   28.1190   43.6740 C   0  0  0  0  0  0  0  0  0  0  0  0
   37.6190   29.3380   42.6360 C   0  0  2  0  0  0  0  0  0  0  0  0
   39.4120   29.7080   43.6510 H   0  0  0  0  0  0  0  0  0  0  0  0
   39.0100   27.5040   41.5430 H   0  0  0  0  0  0  0  0  0  0  0  0
   40.5590   27.7430   42.5090 H   0  0  0  0  0  0  0  0  0  0  0  0
   38.6280   26.2640   43.5710 H   0  0  0  0  0  0  0  0  0  0  0  0
   39.3350   27.6040   44.5280 H   0  0  0  0  0  0  0  0  0  0  0  0
   37.2050   28.5680   44.6470 H   0  0  0  0  0  0  0  0  0  0  0  0
   36.6330   27.5120   43.3300 H   0  0  0  0  0  0  0  0  0  0  0  0
   37.1260   30.1990   43.0930 H   0  0  0  0  0  0  0  0  0  0  0  0
   40.6180   30.9050   39.5290 C   0  0  0  0  0  0  0  0  0  0  0  0
   40.2530   29.9010   40.4400 C   0  0  0  0  0  0  0  0  0  0  0  0
   39.6100   30.3050   41.5620 C   0  0  0  0  0  0  0  0  0  0  0  0
   39.3570   31.6690   41.7380 N   0  0  0  0  0  0  0  0  0  0  0  0
   39.7170   32.6010   40.8540 C   0  0  0  0  0  0  0  0  0  0  0  0
   40.3500   32.2140   39.7460 N   0  0  0  0  0  0  0  0  0  0  0  0
   41.1390   30.5940   38.6180 H   0  0  0  0  0  0  0  0  0  0  0  0
   40.4590   28.8570   40.2800 H   0  0  0  0  0  0  0  0  0  0  0  0
   39.4670   33.6210   41.0990 H   0  0  0  0  0  0  0  0  0  0  0  0
   37.0750   28.8980   41.4430 O   0  0  0  0  0  0  0  0  0  0  0  0
   35.9700   29.4200   40.8130 C   0  0  0  0  0  0  0  0  0  0  0  0
   35.9770   30.6770   41.0040 O   0  0  0  0  0  0  0  0  0  0  0  0
   34.7610   29.1700   40.0030 C   0  0  0  0  0  3  0  0  0  0  0  0
   34.6590   29.0300   38.6680 C   0  0  0  0  0  3  0  0  0  0  0  0
   33.5050   28.7890   37.7770 C   0  0  0  0  0  0  0  0  0  0  0  0
   32.5650   28.5970   38.3320 H   0  0  0  0  0  0  0  0  0  0  0  0
   33.3190   29.7400   37.2230 H   0  0  0  0  0  0  0  0  0  0  0  0
   33.7800   27.7590   36.7420 C   0  0  0  0  0  3  0  0  0  0  0  0
   33.9230   26.4740   36.9950 C   0  0  0  0  0  3  0  0  0  0  0  0
   34.1980   25.4520   35.9470 C   0  0  0  0  0  2  0  0  0  0  0  0
   33.9090   24.4490   36.2780 H   0  0  0  0  0  0  0  0  0  0  0  0
  1  5  1  0  0  0  0
  1  6  1  1  0  0  0
  2  8  1  0  0  0  0
  2  1  1  0  0  0  0
  2  3  1  0  0  0  0
  3  4  1  0  0  0  0
  3 10  1  0  0  0  0
  4 11  1  0  0  0  0
  5 13  1  1  0  0  0
  5  4  1  0  0  0  0
  7  2  1  0  0  0  0
  9  3  1  0  0  0  0
 12  4  1  0  0  0  0
 14 19  2  0  0  0  0
 14 15  1  0  0  0  0
 15 16  2  0  0  0  0
 16 17  1  0  0  0  0
 16  1  1  0  0  0  0
 18 22  1  0  0  0  0
 18 17  2  0  0  0  0
 19 18  1  0  0  0  0
 20 14  1  0  0  0  0
 21 15  1  0  0  0  0
 23  5  1  0  0  0  0
 24 25  2  0  0  0  0
 24 23  1  0  0  0  0
 26 24  1  0  0  0  0
 27 26  2  0  0  0  0
 28 29  1  0  0  0  0
 28 27  1  0  0  0  0
 30 28  1  0  0  0  0
 31 32  2  0  0  0  0
 31 28  1  0  0  0  0
 33 34  1  0  0  0  0
 33 32  1  0  0  0  0
M  END
>  <minimizedAffinity>
-4.60289335

$$$$
