
 OpenBabel03252508433D

 26 27  0  0  0  0  0  0  0  0999 V2000
   46.2600   34.2970   41.3010 C   0  0  0  0  0  0  0  0  0  0  0  0
   47.5280   34.7460   40.9700 C   0  0  0  0  0  0  0  0  0  0  0  0
   48.0620   34.4630   39.7320 C   0  0  0  0  0  0  0  0  0  0  0  0
   47.3180   33.7350   38.8510 C   0  0  0  0  0  0  0  0  0  0  0  0
   46.0590   33.2690   39.1300 C   0  0  0  0  0  0  0  0  0  0  0  0
   45.5540   33.5800   40.4020 C   0  0  0  0  0  0  0  0  0  0  0  0
   49.0550   34.8010   39.4420 H   0  0  0  0  0  0  0  0  0  0  0  0
   47.6980   33.4890   37.8660 H   0  0  0  0  0  0  0  0  0  0  0  0
   45.4110   32.6850   38.4800 H   0  0  0  0  0  0  0  0  0  0  0  0
   44.5710   33.2600   40.7240 H   0  0  0  0  0  0  0  0  0  0  0  0
   44.6620   36.0330   44.2480 C   0  0  0  0  0  0  0  0  0  0  0  0
   45.0900   35.8060   42.9160 C   0  0  0  0  0  0  0  0  0  0  0  0
   45.7720   34.6400   42.6270 C   0  0  0  0  0  0  0  0  0  0  0  0
   45.9840   33.7870   43.6530 N   0  0  0  0  0  0  0  0  0  0  0  0
   45.5790   33.9990   44.9210 C   0  0  0  0  0  0  0  0  0  0  0  0
   44.9090   35.1360   45.2230 N   0  0  0  0  0  0  0  0  0  0  0  0
   44.1280   36.9450   44.4810 H   0  0  0  0  0  0  0  0  0  0  0  0
   44.9050   36.5040   42.1300 H   0  0  0  0  0  0  0  0  0  0  0  0
   45.8470   33.1870   45.6070 H   0  0  0  0  0  0  0  0  0  0  0  0
   48.3190   35.5430   41.9620 C   0  0  0  0  0  0  0  0  0  0  0  0
   48.3640   36.6070   41.6590 H   0  0  0  0  0  0  0  0  0  0  0  0
   47.7330   35.5110   42.9050 H   0  0  0  0  0  0  0  0  0  0  0  0
   49.6430   34.9600   42.2230 C   0  0  0  0  0  0  0  0  0  0  0  0
   49.8400   33.6260   42.2160 C   0  0  0  0  0  0  0  0  0  0  0  0
   51.1250   32.9070   42.4630 C   0  0  0  0  0  0  0  0  0  0  0  0
   50.9190   31.9610   42.9670 H   0  0  0  0  0  0  0  0  0  0  0  0
  1 13  1  0  0  0  0
  2  1  1  0  0  0  0
  2 20  1  0  0  0  0
  3  2  2  0  0  0  0
  4  5  2  0  0  0  0
  4  3  1  0  0  0  0
  5  6  1  0  0  0  0
  6 10  1  0  0  0  0
  6  1  2  0  0  0  0
  7  3  1  0  0  0  0
  8  4  1  0  0  0  0
  9  5  1  0  0  0  0
 11 17  1  0  0  0  0
 11 16  1  0  0  0  0
 12 11  2  0  0  0  0
 13 12  1  0  0  0  0
 13 14  2  0  0  0  0
 14 15  1  0  0  0  0
 15 16  2  0  0  0  0
 15 19  1  0  0  0  0
 18 12  1  0  0  0  0
 20 23  1  0  0  0  0
 20 22  1  0  0  0  0
 21 20  1  0  0  0  0
 24 23  2  0  0  0  0
 24 25  1  0  0  0  0
 25 26  1  0  0  0  0
M  END
>  <minimizedAffinity>
-5.3000555

>  <minimizedRMSD>
1.16780388

$$$$
