
 OpenBabel03252508473D

 40 41  0  0  0  0  0  0  0  0999 V2000
   43.1510   32.5160   41.6120 C   0  0  0  0  0  0  0  0  0  0  0  0
   43.8340   31.9240   40.9510 H   0  0  0  0  0  0  0  0  0  0  0  0
   42.3710   32.9480   40.9770 H   0  0  0  0  0  0  0  0  0  0  0  0
   43.6850   34.9510   41.8910 C   0  0  0  0  0  0  0  0  0  0  0  0
   43.9750   33.6170   42.1760 C   0  0  0  0  0  0  0  0  0  0  0  0
   45.0540   33.3600   43.0010 C   0  0  0  0  0  0  0  0  0  0  0  0
   45.7970   34.3840   43.5080 C   0  0  0  0  0  0  0  0  0  0  0  0
   45.5290   35.6970   43.2400 C   0  0  0  0  0  0  0  0  0  0  0  0
   44.4460   35.9220   42.4140 C   0  0  0  0  0  0  0  0  0  0  0  0
   45.3050   32.3460   43.2410 H   0  0  0  0  0  0  0  0  0  0  0  0
   46.6400   34.1430   44.1540 H   0  0  0  0  0  0  0  0  0  0  0  0
   46.1080   36.5260   43.6330 H   0  0  0  0  0  0  0  0  0  0  0  0
   44.2020   36.9610   42.1780 H   0  0  0  0  0  0  0  0  0  0  0  0
   40.2430   35.7570   40.5220 C   0  0  0  0  0  0  0  0  0  0  0  0
   41.2840   35.5680   41.4550 C   0  0  0  0  0  0  0  0  0  0  0  0
   42.5360   35.1760   41.0140 C   0  0  0  0  0  0  0  0  0  0  0  0
   42.7000   34.9910   39.6780 N   0  0  0  0  0  0  0  0  0  0  0  0
   41.6880   35.1790   38.7910 C   0  0  0  0  0  0  0  0  0  0  0  0
   40.4680   35.5610   39.2290 N   0  0  0  0  0  0  0  0  0  0  0  0
   39.2960   36.0640   40.9530 H   0  0  0  0  0  0  0  0  0  0  0  0
   41.1760   35.7080   42.5250 H   0  0  0  0  0  0  0  0  0  0  0  0
   41.9430   35.0010   37.7600 H   0  0  0  0  0  0  0  0  0  0  0  0
   42.6170   31.6210   42.6010 N   0  0  0  0  0  0  0  0  0  0  0  0
   43.1540   30.7300   42.6760 H   0  0  0  0  0  0  0  0  0  0  0  0
   40.9560   31.3030   42.3500 S   0  0  0  0  0  0  0  0  0  0  0  0
   40.1420   32.5710   42.5080 O   0  0  0  0  0  0  0  0  0  0  0  0
   39.2610   32.6500   42.9530 H   0  0  0  0  0  0  0  0  0  0  0  0
   40.4690   30.2570   43.3040 O   0  0  0  0  0  0  0  0  0  0  0  0
   41.0560   29.6030   43.7850 H   0  0  0  0  0  0  0  0  0  0  0  0
   40.7640   30.7470   40.7820 O   0  0  0  0  0  0  0  0  0  0  0  0
   39.8420   31.5700   40.1510 C   0  0  0  0  0  0  0  0  0  0  0  0
   40.3170   31.9060   39.1900 H   0  0  0  0  0  0  0  0  0  0  0  0
   39.4810   32.4080   40.7440 H   0  0  0  0  0  0  0  0  0  0  0  0
   38.6450   30.7160   39.6820 C   0  0  0  0  0  0  0  0  0  0  0  0
   38.2990   31.0530   38.6920 H   0  0  0  0  0  0  0  0  0  0  0  0
   38.9240   29.6440   39.6940 H   0  0  0  0  0  0  0  0  0  0  0  0
   37.6000   30.9240   40.7230 C   0  0  0  0  0  3  0  0  0  0  0  0
   37.2040   30.0240   41.5850 C   0  0  0  0  0  3  0  0  0  0  0  0
   37.8020   28.6770   41.5790 C   0  0  0  0  0  2  0  0  0  0  0  0
   37.6300   28.2130   42.5930 H   0  0  0  0  0  0  0  0  0  0  0  0
  1  5  1  0  0  0  0
  1 23  1  0  0  0  0
  2  1  1  0  0  0  0
  3  1  1  0  0  0  0
  4  5  2  0  0  0  0
  4  9  1  0  0  0  0
  5  6  1  0  0  0  0
  6 10  1  0  0  0  0
  6  7  2  0  0  0  0
  7 11  1  0  0  0  0
  8  7  1  0  0  0  0
  8 12  1  0  0  0  0
  9  8  2  0  0  0  0
 13  9  1  0  0  0  0
 14 20  1  0  0  0  0
 14 15  1  0  0  0  0
 15 21  1  0  0  0  0
 16 15  2  0  0  0  0
 16  4  1  0  0  0  0
 17 16  1  0  0  0  0
 18 19  1  0  0  0  0
 18 17  2  0  0  0  0
 19 14  2  0  0  0  0
 22 18  1  0  0  0  0
 23 24  1  0  0  0  0
 25 26  1  0  0  0  0
 25 23  1  0  0  0  0
 25 28  1  0  0  0  0
 26 27  1  0  0  0  0
 28 29  1  0  0  0  0
 30 25  1  0  0  0  0
 31 33  1  0  0  0  0
 31 30  1  0  0  0  0
 32 31  1  0  0  0  0
 34 36  1  0  0  0  0
 34 31  1  0  0  0  0
 34 37  1  0  0  0  0
 35 34  1  0  0  0  0
 37 38  2  0  0  0  0
 39 38  1  0  0  0  0
 39 40  1  0  0  0  0
M  END
>  <minimizedAffinity>
-5.20382595

>  <minimizedRMSD>
1.74256337

$$$$
