
 OpenBabel03252509303D

 16 16  0  0  0  0  0  0  0  0999 V2000
   44.5600   35.9740   44.4700 C   0  0  0  0  0  0  0  0  0  0  0  0
   45.3540   35.9380   43.2900 C   0  0  0  0  0  0  0  0  0  0  0  0
   46.2790   34.9110   43.1730 C   0  0  0  0  0  0  0  0  0  0  0  0
   46.3840   33.9970   44.1760 N   0  0  0  0  0  0  0  0  0  0  0  0
   45.6000   34.0670   45.2940 C   0  0  0  0  0  0  0  0  0  0  0  0
   44.7000   35.0570   45.4210 N   0  0  0  0  0  0  0  0  0  0  0  0
   43.8290   36.7720   44.5800 H   0  0  0  0  0  0  0  0  0  0  0  0
   45.1890   36.7130   42.5580 H   0  0  0  0  0  0  0  0  0  0  0  0
   45.7900   33.2770   46.0090 H   0  0  0  0  0  0  0  0  0  0  0  0
   47.0880   34.8840   41.9600 C   0  0  0  0  0  0  0  0  0  0  0  0
   48.0090   34.3360   42.1770 H   0  0  0  0  0  0  0  0  0  0  0  0
   47.3080   35.9120   41.6160 H   0  0  0  0  0  0  0  0  0  0  0  0
   46.4150   34.1870   40.8200 C   0  0  0  0  0  3  0  0  0  0  0  0
   46.9490   33.6970   39.7040 C   0  0  0  0  0  3  0  0  0  0  0  0
   46.2030   33.0130   38.6140 C   0  0  0  0  0  2  0  0  0  0  0  0
   46.3200   31.9100   38.6550 H   0  0  0  0  0  0  0  0  0  0  0  0
  1  7  1  0  0  0  0
  1  6  1  0  0  0  0
  2  1  2  0  0  0  0
  3  2  1  0  0  0  0
  3  4  2  0  0  0  0
  4  5  1  0  0  0  0
  5  6  2  0  0  0  0
  5  9  1  0  0  0  0
  8  2  1  0  0  0  0
 10 11  1  0  0  0  0
 10  3  1  0  0  0  0
 12 10  1  0  0  0  0
 13 10  1  0  0  0  0
 14 13  2  0  0  0  0
 15 16  1  0  0  0  0
 15 14  1  0  0  0  0
M  END
>  <minimizedAffinity>
-3.50863123

>  <minimizedRMSD>
0.172143847

$$$$
