
 OpenBabel03242514173D

 36 37  0  0  0  0  0  0  0  0999 V2000
   46.0600   34.5810   43.5840 C   0  0  0  0  0  0  0  0  0  0  0  0
   46.0300   33.8100   44.7340 C   0  0  0  0  0  0  0  0  0  0  0  0
   45.2360   34.2480   45.7580 C   0  0  0  0  0  0  0  0  0  0  0  0
   44.5190   35.4070   45.6000 N   0  0  0  0  0  0  0  0  0  0  0  0
   44.5540   36.1370   44.4920 C   0  0  0  0  0  0  0  0  0  0  0  0
   45.3220   35.7090   43.5140 N   0  0  0  0  0  0  0  0  0  0  0  0
   45.0470   33.8440   46.7240 H   0  0  0  0  0  0  0  0  0  0  0  0
   43.9990   37.0500   44.3470 H   0  0  0  0  0  0  0  0  0  0  0  0
   46.9510   34.1040   42.5260 C   0  0  0  0  0  0  0  0  0  0  0  0
   48.3090   34.6190   42.5560 C   0  0  0  0  0  0  0  0  0  0  0  0
   48.6530   35.4870   41.4360 C   0  0  0  0  0  0  0  0  0  0  0  0
   48.4250   34.7820   40.0980 C   0  0  0  0  0  0  0  0  0  0  0  0
   47.1520   33.9990   40.0510 C   0  0  0  0  0  0  0  0  0  0  0  0
   46.2500   34.3560   41.1990 C   0  0  0  0  0  0  0  0  0  0  0  0
   47.0020   32.9840   42.5260 H   0  0  0  0  0  0  0  0  0  0  0  0
   49.1190   33.8380   42.6450 H   0  0  0  0  0  0  0  0  0  0  0  0
   48.4340   35.2150   43.5080 H   0  0  0  0  0  0  0  0  0  0  0  0
   49.7680   35.6640   41.4690 H   0  0  0  0  0  0  0  0  0  0  0  0
   48.2080   36.4950   41.4410 H   0  0  0  0  0  0  0  0  0  0  0  0
   49.2650   34.1110   39.8500 H   0  0  0  0  0  0  0  0  0  0  0  0
   48.3570   35.5990   39.3360 H   0  0  0  0  0  0  0  0  0  0  0  0
   46.5930   34.2110   39.1080 H   0  0  0  0  0  0  0  0  0  0  0  0
   47.3290   32.9060   40.0450 H   0  0  0  0  0  0  0  0  0  0  0  0
   45.3720   33.6850   41.1690 H   0  0  0  0  0  0  0  0  0  0  0  0
   45.8810   35.3930   41.1110 H   0  0  0  0  0  0  0  0  0  0  0  0
   46.6340   32.6850   45.0760 O   0  0  0  0  0  0  0  0  0  0  0  0
   47.1470   32.1780   46.2350 C   0  0  0  0  0  0  0  0  0  0  0  0
   48.2690   32.2350   46.2020 H   0  0  0  0  0  0  0  0  0  0  0  0
   46.8350   32.7240   47.1480 H   0  0  0  0  0  0  0  0  0  0  0  0
   46.8180   30.7240   46.5000 C   0  0  0  0  0  0  0  0  0  0  0  0
   46.3760   30.2670   45.5810 H   0  0  0  0  0  0  0  0  0  0  0  0
   46.1020   30.5940   47.3120 H   0  0  0  0  0  0  0  0  0  0  0  0
   48.0870   30.0290   46.8280 C   0  0  0  0  0  0  0  0  0  0  0  0
   48.7450   30.0030   47.9750 C   0  0  0  0  0  0  0  0  0  0  0  0
   48.2860   30.7130   49.1960 C   0  0  0  0  0  0  0  0  0  0  0  0
   49.1960   31.0990   49.7090 H   0  0  0  0  0  0  0  0  0  0  0  0
  1  2  1  0  0  0  0
  2 26  1  0  0  0  0
  2  3  2  0  0  0  0
  3  7  1  0  0  0  0
  4  3  1  0  0  0  0
  5  4  2  0  0  0  0
  6  1  2  0  0  0  0
  6  5  1  0  0  0  0
  8  5  1  0  0  0  0
  9 15  1  0  0  0  0
  9 10  1  0  0  0  0
  9  1  1  0  0  0  0
 10 16  1  0  0  0  0
 10 17  1  0  0  0  0
 11 19  1  0  0  0  0
 11 18  1  0  0  0  0
 11 10  1  0  0  0  0
 12 11  1  0  0  0  0
 13 12  1  0  0  0  0
 13 14  1  0  0  0  0
 14  9  1  0  0  0  0
 20 12  1  0  0  0  0
 21 12  1  0  0  0  0
 22 13  1  0  0  0  0
 23 13  1  0  0  0  0
 24 14  1  0  0  0  0
 25 14  1  0  0  0  0
 26 27  1  0  0  0  0
 27 30  1  0  0  0  0
 27 29  1  0  0  0  0
 28 27  1  0  0  0  0
 30 33  1  0  0  0  0
 30 32  1  0  0  0  0
 31 30  1  0  0  0  0
 33 34  2  0  0  0  0
 34 35  1  0  0  0  0
 35 36  1  0  0  0  0
M  END
>  <minimizedAffinity>
-5.19277382

>  <minimizedRMSD>
1.63338542

$$$$
