
 OpenBabel03252503433D

 29 30  0  0  1  0  0  0  0  0999 V2000
   44.9700   35.1080   44.9960 C   0  0  0  0  0  0  0  0  0  0  0  0
   45.4610   34.7460   43.7280 C   0  0  0  0  0  0  0  0  0  0  0  0
   46.0770   33.4890   43.6330 C   0  0  0  0  0  0  0  0  0  0  0  0
   46.1620   32.7210   44.7230 N   0  0  0  0  0  0  0  0  0  0  0  0
   45.6810   33.1010   45.9160 C   0  0  0  0  0  0  0  0  0  0  0  0
   45.0820   34.2990   46.0620 N   0  0  0  0  0  0  0  0  0  0  0  0
   44.4820   36.0610   45.1550 H   0  0  0  0  0  0  0  0  0  0  0  0
   46.4360   33.2500   42.6640 H   0  0  0  0  0  0  0  0  0  0  0  0
   47.2800   32.0390   47.5230 C   0  0  2  0  0  0  0  0  0  0  0  0
   45.8200   32.1570   47.0220 C   0  0  1  0  0  0  0  0  0  0  0  0
   45.1840   32.5150   48.1780 O   0  0  0  0  0  0  0  0  0  0  0  0
   45.6750   31.7060   49.1690 C   0  0  0  0  0  0  0  0  0  0  0  0
   46.9910   31.1190   48.7230 C   0  0  2  0  0  0  0  0  0  0  0  0
   47.9270   31.5770   46.7790 H   0  0  0  0  0  0  0  0  0  0  0  0
   45.5290   31.1580   46.6430 H   0  0  0  0  0  0  0  0  0  0  0  0
   45.8840   32.2610   50.1100 H   0  0  0  0  0  0  0  0  0  0  0  0
   44.9280   30.9360   49.4260 H   0  0  0  0  0  0  0  0  0  0  0  0
   46.8120   30.1210   48.3050 H   0  0  0  0  0  0  0  0  0  0  0  0
   47.6520   33.2380   48.0330 O   0  0  0  0  0  0  0  0  0  0  0  0
   47.5440   34.0150   47.4180 H   0  0  0  0  0  0  0  0  0  0  0  0
   47.9870   31.1660   49.6680 O   0  0  0  0  0  0  0  0  0  0  0  0
   47.5410   31.4010   50.5310 H   0  0  0  0  0  0  0  0  0  0  0  0
   45.2560   35.7170   42.6340 C   0  0  0  0  0  0  0  0  0  0  0  0
   45.5590   36.7170   43.0150 H   0  0  0  0  0  0  0  0  0  0  0  0
   45.9800   35.5180   41.7950 H   0  0  0  0  0  0  0  0  0  0  0  0
   43.8540   35.7130   42.1560 C   0  0  0  0  0  3  0  0  0  0  0  0
   43.1270   35.1910   41.1910 C   0  0  0  0  0  3  0  0  0  0  0  0
   43.3720   34.2960   40.0370 C   0  0  0  0  0  2  0  0  0  0  0  0
   44.3770   33.8550   39.9940 H   0  0  0  0  0  0  0  0  0  0  0  0
  1  7  1  0  0  0  0
  1  6  1  0  0  0  0
  2  1  2  0  0  0  0
  3  2  1  0  0  0  0
  3  4  2  0  0  0  0
  4  5  1  0  0  0  0
  5  6  2  0  0  0  0
  5 10  1  0  0  0  0
  8  3  1  0  0  0  0
  9 14  1  6  0  0  0
  9 19  1  0  0  0  0
  9 13  1  0  0  0  0
 10 15  1  6  0  0  0
 10  9  1  0  0  0  0
 10 11  1  0  0  0  0
 11 12  1  0  0  0  0
 12 17  1  0  0  0  0
 12 16  1  0  0  0  0
 13 18  1  6  0  0  0
 13 12  1  0  0  0  0
 13 21  1  0  0  0  0
 20 19  1  0  0  0  0
 21 22  1  0  0  0  0
 23 24  1  0  0  0  0
 23  2  1  0  0  0  0
 25 23  1  0  0  0  0
 26 23  1  0  0  0  0
 27 26  2  0  0  0  0
 28 27  1  0  0  0  0
 29 28  1  0  0  0  0
M  END
>  <minimizedAffinity>
-5.54573345

>  <minimizedRMSD>
0.736770749

$$$$
