
 OpenBabel03252508473D

 40 41  0  0  0  0  0  0  0  0999 V2000
   43.0730   32.5410   41.6330 C   0  0  0  0  0  0  0  0  0  0  0  0
   43.6840   32.0480   40.8350 H   0  0  0  0  0  0  0  0  0  0  0  0
   42.1930   32.9800   41.1510 H   0  0  0  0  0  0  0  0  0  0  0  0
   43.6460   34.9710   41.8800 C   0  0  0  0  0  0  0  0  0  0  0  0
   43.9170   33.6370   42.1800 C   0  0  0  0  0  0  0  0  0  0  0  0
   44.9960   33.3730   43.0020 C   0  0  0  0  0  0  0  0  0  0  0  0
   45.7580   34.3910   43.4930 C   0  0  0  0  0  0  0  0  0  0  0  0
   45.5090   35.7040   43.2100 C   0  0  0  0  0  0  0  0  0  0  0  0
   44.4240   35.9370   42.3870 C   0  0  0  0  0  0  0  0  0  0  0  0
   45.2330   32.3580   43.2530 H   0  0  0  0  0  0  0  0  0  0  0  0
   46.6000   34.1450   44.1380 H   0  0  0  0  0  0  0  0  0  0  0  0
   46.1020   36.5290   43.5900 H   0  0  0  0  0  0  0  0  0  0  0  0
   44.1960   36.9760   42.1400 H   0  0  0  0  0  0  0  0  0  0  0  0
   40.1920   35.7490   40.5250 C   0  0  0  0  0  0  0  0  0  0  0  0
   41.2330   35.5480   41.4550 C   0  0  0  0  0  0  0  0  0  0  0  0
   42.4960   35.2030   41.0070 C   0  0  0  0  0  0  0  0  0  0  0  0
   42.6710   35.0750   39.6650 N   0  0  0  0  0  0  0  0  0  0  0  0
   41.6580   35.2730   38.7800 C   0  0  0  0  0  0  0  0  0  0  0  0
   40.4270   35.6090   39.2270 N   0  0  0  0  0  0  0  0  0  0  0  0
   39.2360   36.0160   40.9630 H   0  0  0  0  0  0  0  0  0  0  0  0
   41.1170   35.6440   42.5300 H   0  0  0  0  0  0  0  0  0  0  0  0
   41.9220   35.1420   37.7450 H   0  0  0  0  0  0  0  0  0  0  0  0
   42.7230   31.5370   42.5990 N   0  0  0  0  0  0  0  0  0  0  0  0
   43.3070   30.6770   42.5220 H   0  0  0  0  0  0  0  0  0  0  0  0
   41.0600   31.1430   42.5430 S   0  0  0  0  0  0  0  0  0  0  0  0
   40.2160   32.4000   42.4990 O   0  0  0  0  0  0  0  0  0  0  0  0
   39.3660   32.5520   42.9820 H   0  0  0  0  0  0  0  0  0  0  0  0
   40.6750   30.3070   43.7230 O   0  0  0  0  0  0  0  0  0  0  0  0
   41.3160   29.7760   44.2830 H   0  0  0  0  0  0  0  0  0  0  0  0
   40.7800   30.2720   41.1400 O   0  0  0  0  0  0  0  0  0  0  0  0
   39.4100   30.0820   41.0260 C   0  0  0  0  0  0  0  0  0  0  0  0
   39.0780   30.6690   40.1280 H   0  0  0  0  0  0  0  0  0  0  0  0
   38.8290   30.3270   41.9130 H   0  0  0  0  0  0  0  0  0  0  0  0
   39.1400   28.6170   40.6210 C   0  0  0  0  0  0  0  0  0  0  0  0
   38.9150   28.5540   39.5440 H   0  0  0  0  0  0  0  0  0  0  0  0
   39.9990   27.9830   40.9140 H   0  0  0  0  0  0  0  0  0  0  0  0
   37.9690   28.2050   41.4450 C   0  0  0  0  0  3  0  0  0  0  0  0
   37.0600   27.3390   41.0840 C   0  0  0  0  0  3  0  0  0  0  0  0
   37.1430   26.6810   39.7670 C   0  0  0  0  0  2  0  0  0  0  0  0
   36.5360   25.7300   39.8110 H   0  0  0  0  0  0  0  0  0  0  0  0
  1  5  1  0  0  0  0
  1 23  1  0  0  0  0
  2  1  1  0  0  0  0
  3  1  1  0  0  0  0
  4  5  2  0  0  0  0
  4  9  1  0  0  0  0
  5  6  1  0  0  0  0
  6 10  1  0  0  0  0
  6  7  2  0  0  0  0
  7 11  1  0  0  0  0
  8  7  1  0  0  0  0
  8 12  1  0  0  0  0
  9  8  2  0  0  0  0
 13  9  1  0  0  0  0
 14 20  1  0  0  0  0
 14 15  1  0  0  0  0
 15 21  1  0  0  0  0
 16 15  2  0  0  0  0
 16  4  1  0  0  0  0
 17 16  1  0  0  0  0
 18 19  1  0  0  0  0
 18 17  2  0  0  0  0
 19 14  2  0  0  0  0
 22 18  1  0  0  0  0
 24 23  1  0  0  0  0
 25 23  1  0  0  0  0
 25 28  1  0  0  0  0
 26 25  1  0  0  0  0
 26 27  1  0  0  0  0
 28 29  1  0  0  0  0
 30 25  1  0  0  0  0
 31 30  1  0  0  0  0
 31 33  1  0  0  0  0
 32 31  1  0  0  0  0
 34 36  1  0  0  0  0
 34 31  1  0  0  0  0
 34 37  1  0  0  0  0
 35 34  1  0  0  0  0
 38 37  2  0  0  0  0
 39 40  1  0  0  0  0
 39 38  1  0  0  0  0
M  END
>  <minimizedAffinity>
-4.93282652

>  <minimizedRMSD>
1.37278128

$$$$
