
 OpenBabel03242523433D

 19 19  0  0  1  0  0  0  0  0999 V2000
   45.9290   35.3050   42.4500 C   0  0  1  0  0  0  0  0  0  0  0  0
   45.8380   36.4060   42.4880 H   0  0  0  0  0  0  0  0  0  0  0  0
   44.8620   35.3360   44.6590 C   0  0  0  0  0  0  0  0  0  0  0  0
   45.8040   34.7700   43.7760 C   0  0  0  0  0  0  0  0  0  0  0  0
   46.5590   33.6970   44.2420 C   0  0  0  0  0  0  0  0  0  0  0  0
   46.3510   33.2490   45.5180 N   0  0  0  0  0  0  0  0  0  0  0  0
   45.4390   33.8150   46.3320 C   0  0  0  0  0  0  0  0  0  0  0  0
   44.6830   34.8660   45.9120 N   0  0  0  0  0  0  0  0  0  0  0  0
   44.2260   36.1710   44.3990 H   0  0  0  0  0  0  0  0  0  0  0  0
   47.2890   33.2340   43.6070 H   0  0  0  0  0  0  0  0  0  0  0  0
   45.2730   33.4580   47.3450 H   0  0  0  0  0  0  0  0  0  0  0  0
   47.2890   34.9640   41.8980 C   0  0  0  0  0  0  0  0  0  0  0  0
   47.4480   33.8980   41.7370 H   0  0  0  0  0  0  0  0  0  0  0  0
   47.3280   35.4270   40.8690 H   0  0  0  0  0  0  0  0  0  0  0  0
   48.0840   35.4690   42.4690 H   0  0  0  0  0  0  0  0  0  0  0  0
   44.8780   34.7840   41.5130 C   0  0  0  0  0  3  0  0  0  0  0  0
   43.7630   35.4160   41.1560 C   0  0  0  0  0  3  0  0  0  0  0  0
   42.7500   34.8720   40.2290 C   0  0  0  0  0  2  0  0  0  0  0  0
   41.7490   35.0950   40.6300 H   0  0  0  0  0  0  0  0  0  0  0  0
  1  2  1  1  0  0  0
  1  4  1  0  0  0  0
  3  8  1  0  0  0  0
  4  5  1  0  0  0  0
  4  3  2  0  0  0  0
  5  6  2  0  0  0  0
  6  7  1  0  0  0  0
  7 11  1  0  0  0  0
  8  7  2  0  0  0  0
  9  3  1  0  0  0  0
 10  5  1  0  0  0  0
 12  1  1  0  0  0  0
 12 15  1  0  0  0  0
 13 12  1  0  0  0  0
 14 12  1  0  0  0  0
 16  1  1  0  0  0  0
 17 16  2  0  0  0  0
 18 19  1  0  0  0  0
 18 17  1  0  0  0  0
M  END
>  <minimizedAffinity>
-3.82158136

>  <minimizedRMSD>
1.29279089

$$$$
