
 OpenBabel03252508473D

 40 41  0  0  0  0  0  0  0  0999 V2000
   43.0670   32.5530   41.6300 C   0  0  0  0  0  0  0  0  0  0  0  0
   43.6710   32.0650   40.8230 H   0  0  0  0  0  0  0  0  0  0  0  0
   42.1860   32.9980   41.1590 H   0  0  0  0  0  0  0  0  0  0  0  0
   43.6610   34.9770   41.8820 C   0  0  0  0  0  0  0  0  0  0  0  0
   43.9190   33.6400   42.1810 C   0  0  0  0  0  0  0  0  0  0  0  0
   44.9940   33.3660   43.0060 C   0  0  0  0  0  0  0  0  0  0  0  0
   45.7630   34.3760   43.4990 C   0  0  0  0  0  0  0  0  0  0  0  0
   45.5250   35.6920   43.2190 C   0  0  0  0  0  0  0  0  0  0  0  0
   44.4450   35.9350   42.3930 C   0  0  0  0  0  0  0  0  0  0  0  0
   45.2220   32.3490   43.2550 H   0  0  0  0  0  0  0  0  0  0  0  0
   46.6020   34.1220   44.1470 H   0  0  0  0  0  0  0  0  0  0  0  0
   46.1250   36.5110   43.6020 H   0  0  0  0  0  0  0  0  0  0  0  0
   44.2270   36.9770   42.1470 H   0  0  0  0  0  0  0  0  0  0  0  0
   40.2200   35.8000   40.5180 C   0  0  0  0  0  0  0  0  0  0  0  0
   41.2570   35.5890   41.4510 C   0  0  0  0  0  0  0  0  0  0  0  0
   42.5150   35.2200   41.0060 C   0  0  0  0  0  0  0  0  0  0  0  0
   42.6880   35.0780   39.6660 N   0  0  0  0  0  0  0  0  0  0  0  0
   41.6790   35.2850   38.7790 C   0  0  0  0  0  0  0  0  0  0  0  0
   40.4540   35.6450   39.2220 N   0  0  0  0  0  0  0  0  0  0  0  0
   39.2690   36.0860   40.9530 H   0  0  0  0  0  0  0  0  0  0  0  0
   41.1420   35.6970   42.5250 H   0  0  0  0  0  0  0  0  0  0  0  0
   41.9410   35.1400   37.7450 H   0  0  0  0  0  0  0  0  0  0  0  0
   42.7220   31.5410   42.5890 N   0  0  0  0  0  0  0  0  0  0  0  0
   43.3000   30.6780   42.4970 H   0  0  0  0  0  0  0  0  0  0  0  0
   41.0560   31.1550   42.5430 S   0  0  0  0  0  0  0  0  0  0  0  0
   40.2190   32.4160   42.4850 O   0  0  0  0  0  0  0  0  0  0  0  0
   39.3720   32.5800   42.9680 H   0  0  0  0  0  0  0  0  0  0  0  0
   40.6710   30.3370   43.7370 O   0  0  0  0  0  0  0  0  0  0  0  0
   41.3110   29.8110   44.3010 H   0  0  0  0  0  0  0  0  0  0  0  0
   40.7670   30.2660   41.1530 O   0  0  0  0  0  0  0  0  0  0  0  0
   39.3960   30.0760   41.0510 C   0  0  0  0  0  0  0  0  0  0  0  0
   39.0570   30.6620   40.1540 H   0  0  0  0  0  0  0  0  0  0  0  0
   38.8220   30.3230   41.9410 H   0  0  0  0  0  0  0  0  0  0  0  0
   39.1210   28.6120   40.6490 C   0  0  0  0  0  0  0  0  0  0  0  0
   39.4520   28.4310   39.6140 H   0  0  0  0  0  0  0  0  0  0  0  0
   39.6040   27.9280   41.3760 H   0  0  0  0  0  0  0  0  0  0  0  0
   37.6470   28.4510   40.7840 C   0  0  0  0  0  3  0  0  0  0  0  0
   37.0300   27.3250   41.0310 C   0  0  0  0  0  3  0  0  0  0  0  0
   37.7990   26.0790   41.1980 C   0  0  0  0  0  2  0  0  0  0  0  0
   37.1590   25.3470   41.7710 H   0  0  0  0  0  0  0  0  0  0  0  0
  1  5  1  0  0  0  0
  1 23  1  0  0  0  0
  2  1  1  0  0  0  0
  3  1  1  0  0  0  0
  4  5  2  0  0  0  0
  4  9  1  0  0  0  0
  5  6  1  0  0  0  0
  6 10  1  0  0  0  0
  6  7  2  0  0  0  0
  7 11  1  0  0  0  0
  8  7  1  0  0  0  0
  8 12  1  0  0  0  0
  9  8  2  0  0  0  0
 13  9  1  0  0  0  0
 14 20  1  0  0  0  0
 14 15  1  0  0  0  0
 15 21  1  0  0  0  0
 16 15  2  0  0  0  0
 16  4  1  0  0  0  0
 17 16  1  0  0  0  0
 18 19  1  0  0  0  0
 18 17  2  0  0  0  0
 19 14  2  0  0  0  0
 22 18  1  0  0  0  0
 24 23  1  0  0  0  0
 25 23  1  0  0  0  0
 25 28  1  0  0  0  0
 26 25  1  0  0  0  0
 26 27  1  0  0  0  0
 28 29  1  0  0  0  0
 30 25  1  0  0  0  0
 31 30  1  0  0  0  0
 31 33  1  0  0  0  0
 32 31  1  0  0  0  0
 34 37  1  0  0  0  0
 34 31  1  0  0  0  0
 34 36  1  0  0  0  0
 35 34  1  0  0  0  0
 37 38  2  0  0  0  0
 38 39  1  0  0  0  0
 39 40  1  0  0  0  0
M  END
>  <minimizedAffinity>
-4.98257732

>  <minimizedRMSD>
1.46117747

$$$$
