
 OpenBabel03252504293D

 22 22  0  0  0  0  0  0  0  0999 V2000
   44.3760   35.1230   41.5490 C   0  0  0  0  0  0  0  0  0  0  0  0
   44.5960   34.3210   40.8160 H   0  0  0  0  0  0  0  0  0  0  0  0
   45.1270   35.9330   41.2630 H   0  0  0  0  0  0  0  0  0  0  0  0
   44.4180   35.7570   43.8340 C   0  0  0  0  0  0  0  0  0  0  0  0
   44.6940   34.7360   42.9100 C   0  0  0  0  0  0  0  0  0  0  0  0
   45.2030   33.5790   43.4390 C   0  0  0  0  0  0  0  0  0  0  0  0
   45.3970   33.5020   44.7560 N   0  0  0  0  0  0  0  0  0  0  0  0
   45.1300   34.4780   45.6170 C   0  0  0  0  0  0  0  0  0  0  0  0
   44.6130   35.6900   45.1930 N   0  0  0  0  0  0  0  0  0  0  0  0
   44.0080   36.7470   43.5790 H   0  0  0  0  0  0  0  0  0  0  0  0
   45.3950   32.8300   42.6820 H   0  0  0  0  0  0  0  0  0  0  0  0
   45.3680   34.1930   46.6470 H   0  0  0  0  0  0  0  0  0  0  0  0
   43.1290   35.7140   41.3750 O   0  0  0  0  0  0  0  0  0  0  0  0
   41.9040   35.0970   41.3840 C   0  0  0  0  0  0  0  0  0  0  0  0
   40.9240   35.6930   40.6580 C   0  0  0  0  0  0  0  0  0  0  0  0
   39.5140   35.1750   40.4950 C   0  0  0  0  0  0  0  0  0  0  0  0
   38.8150   36.0170   40.6430 H   0  0  0  0  0  0  0  0  0  0  0  0
   39.3560   34.4170   41.2640 H   0  0  0  0  0  0  0  0  0  0  0  0
   39.3660   34.5860   39.1150 C   0  0  0  0  0  0  0  0  0  0  0  0
   38.4120   33.8460   38.5800 C   0  0  0  0  0  0  0  0  0  0  0  0
   38.1530   33.2130   37.2520 C   0  0  0  0  0  0  0  0  0  0  0  0
   37.2190   33.5760   36.7810 H   0  0  0  0  0  0  0  0  0  0  0  0
  1  5  1  0  0  0  0
  2  1  1  0  0  0  0
  3  1  1  0  0  0  0
  4  9  1  0  0  0  0
  5  6  1  0  0  0  0
  5  4  2  0  0  0  0
  6  7  2  0  0  0  0
  7  8  1  0  0  0  0
  8 12  1  0  0  0  0
  9  8  2  0  0  0  0
 10  4  1  0  0  0  0
 11  6  1  0  0  0  0
 13 14  1  0  0  0  0
 13  1  1  0  0  0  0
 15 14  2  0  0  0  0
 16 17  1  0  0  0  0
 16 15  1  0  0  0  0
 16 18  1  0  0  0  0
 19 16  1  0  0  0  0
 20 19  2  0  0  0  0
 21 20  1  0  0  0  0
 22 21  1  0  0  0  0
M  END
>  <minimizedAffinity>
-4.43870497

>  <minimizedRMSD>
1.28842568

$$$$
