
 OpenBabel03252509303D

 16 16  0  0  0  0  0  0  0  0999 V2000
   44.5810   36.0330   44.5330 C   0  0  0  0  0  0  0  0  0  0  0  0
   45.3420   36.0290   43.3310 C   0  0  0  0  0  0  0  0  0  0  0  0
   46.2220   34.9740   43.1350 C   0  0  0  0  0  0  0  0  0  0  0  0
   46.3160   34.0050   44.0870 N   0  0  0  0  0  0  0  0  0  0  0  0
   45.5650   34.0470   45.2280 C   0  0  0  0  0  0  0  0  0  0  0  0
   44.7090   35.0620   45.4310 N   0  0  0  0  0  0  0  0  0  0  0  0
   43.8850   36.8520   44.7040 H   0  0  0  0  0  0  0  0  0  0  0  0
   45.1890   36.8460   42.6440 H   0  0  0  0  0  0  0  0  0  0  0  0
   45.7410   33.2130   45.8970 H   0  0  0  0  0  0  0  0  0  0  0  0
   46.9980   34.9800   41.9010 C   0  0  0  0  0  0  0  0  0  0  0  0
   47.9950   34.5910   42.1230 H   0  0  0  0  0  0  0  0  0  0  0  0
   47.0520   36.0010   41.4800 H   0  0  0  0  0  0  0  0  0  0  0  0
   46.4120   34.1090   40.8350 C   0  0  0  0  0  3  0  0  0  0  0  0
   45.1350   33.9420   40.4970 C   0  0  0  0  0  3  0  0  0  0  0  0
   44.6330   33.0500   39.4170 C   0  0  0  0  0  2  0  0  0  0  0  0
   44.3670   33.6160   38.4980 H   0  0  0  0  0  0  0  0  0  0  0  0
  1  7  1  0  0  0  0
  1  6  1  0  0  0  0
  2  1  2  0  0  0  0
  3  2  1  0  0  0  0
  3  4  2  0  0  0  0
  4  5  1  0  0  0  0
  5  6  2  0  0  0  0
  5  9  1  0  0  0  0
  8  2  1  0  0  0  0
 10 11  1  0  0  0  0
 10  3  1  0  0  0  0
 12 10  1  0  0  0  0
 13 10  1  0  0  0  0
 14 13  2  0  0  0  0
 15 14  1  0  0  0  0
 16 15  1  0  0  0  0
M  END
>  <minimizedAffinity>
-3.42156434

>  <minimizedRMSD>
0.156304821

$$$$
