
 OpenBabel03252509303D

 16 16  0  0  0  0  0  0  0  0999 V2000
   44.5540   36.0290   44.5270 C   0  0  0  0  0  0  0  0  0  0  0  0
   45.3260   35.9020   43.3390 C   0  0  0  0  0  0  0  0  0  0  0  0
   46.1910   34.8210   43.2510 C   0  0  0  0  0  0  0  0  0  0  0  0
   46.2620   33.9430   44.2880 N   0  0  0  0  0  0  0  0  0  0  0  0
   45.5010   34.1010   45.4130 C   0  0  0  0  0  0  0  0  0  0  0  0
   44.6590   35.1430   45.5120 N   0  0  0  0  0  0  0  0  0  0  0  0
   43.8700   36.8690   44.6150 H   0  0  0  0  0  0  0  0  0  0  0  0
   45.1920   36.6550   42.5790 H   0  0  0  0  0  0  0  0  0  0  0  0
   45.6580   33.3300   46.1570 H   0  0  0  0  0  0  0  0  0  0  0  0
   46.9790   34.7020   42.0290 C   0  0  0  0  0  0  0  0  0  0  0  0
   47.7010   33.8930   42.1670 H   0  0  0  0  0  0  0  0  0  0  0  0
   47.4880   35.6560   41.7990 H   0  0  0  0  0  0  0  0  0  0  0  0
   46.1530   34.3590   40.8300 C   0  0  0  0  0  3  0  0  0  0  0  0
   45.3020   33.3500   40.6600 C   0  0  0  0  0  3  0  0  0  0  0  0
   44.5140   33.0770   39.4270 C   0  0  0  0  0  2  0  0  0  0  0  0
   43.4560   33.4020   39.5250 H   0  0  0  0  0  0  0  0  0  0  0  0
  1  7  1  0  0  0  0
  1  6  1  0  0  0  0
  2  1  2  0  0  0  0
  3  2  1  0  0  0  0
  3  4  2  0  0  0  0
  4  5  1  0  0  0  0
  5  6  2  0  0  0  0
  5  9  1  0  0  0  0
  8  2  1  0  0  0  0
 10 11  1  0  0  0  0
 10  3  1  0  0  0  0
 12 10  1  0  0  0  0
 13 10  1  0  0  0  0
 14 13  2  0  0  0  0
 15 16  1  0  0  0  0
 15 14  1  0  0  0  0
M  END
>  <minimizedAffinity>
-3.3325994

>  <minimizedRMSD>
0.324150711

$$$$
