
 OpenBabel03252509303D

 16 16  0  0  0  0  0  0  0  0999 V2000
   44.5620   36.0110   44.4990 C   0  0  0  0  0  0  0  0  0  0  0  0
   45.3140   35.9540   43.2930 C   0  0  0  0  0  0  0  0  0  0  0  0
   46.2110   34.9070   43.1480 C   0  0  0  0  0  0  0  0  0  0  0  0
   46.3310   33.9930   44.1500 N   0  0  0  0  0  0  0  0  0  0  0  0
   45.5880   34.0840   45.2940 C   0  0  0  0  0  0  0  0  0  0  0  0
   44.7150   35.0940   45.4480 N   0  0  0  0  0  0  0  0  0  0  0  0
   43.8530   36.8250   44.6310 H   0  0  0  0  0  0  0  0  0  0  0  0
   45.1410   36.7300   42.5640 H   0  0  0  0  0  0  0  0  0  0  0  0
   45.7840   33.2920   46.0050 H   0  0  0  0  0  0  0  0  0  0  0  0
   46.9770   34.8580   41.9080 C   0  0  0  0  0  0  0  0  0  0  0  0
   47.9270   34.3550   42.1130 H   0  0  0  0  0  0  0  0  0  0  0  0
   47.1440   35.8780   41.5130 H   0  0  0  0  0  0  0  0  0  0  0  0
   46.2930   34.0860   40.8240 C   0  0  0  0  0  3  0  0  0  0  0  0
   45.4570   33.0580   40.9290 C   0  0  0  0  0  3  0  0  0  0  0  0
   44.8140   32.3420   39.7940 C   0  0  0  0  0  2  0  0  0  0  0  0
   43.7560   32.6470   39.6510 H   0  0  0  0  0  0  0  0  0  0  0  0
  1  7  1  0  0  0  0
  1  6  1  0  0  0  0
  2  1  2  0  0  0  0
  3  2  1  0  0  0  0
  3  4  2  0  0  0  0
  4  5  1  0  0  0  0
  5  6  2  0  0  0  0
  5  9  1  0  0  0  0
  8  2  1  0  0  0  0
 10 11  1  0  0  0  0
 10  3  1  0  0  0  0
 12 10  1  0  0  0  0
 13 14  2  0  0  0  0
 13 10  1  0  0  0  0
 15 14  1  0  0  0  0
 16 15  1  0  0  0  0
M  END
>  <minimizedAffinity>
-3.28378963

>  <minimizedRMSD>
0.0859062076

$$$$
