
 OpenBabel03252508473D

 40 41  0  0  0  0  0  0  0  0999 V2000
   42.9850   32.4170   41.7040 C   0  0  0  0  0  0  0  0  0  0  0  0
   43.5410   31.9380   40.8580 H   0  0  0  0  0  0  0  0  0  0  0  0
   42.0930   32.8910   41.2860 H   0  0  0  0  0  0  0  0  0  0  0  0
   43.6820   34.8160   41.9290 C   0  0  0  0  0  0  0  0  0  0  0  0
   43.8830   33.4720   42.2420 C   0  0  0  0  0  0  0  0  0  0  0  0
   44.9470   33.1620   43.0700 C   0  0  0  0  0  0  0  0  0  0  0  0
   45.7580   34.1440   43.5520 C   0  0  0  0  0  0  0  0  0  0  0  0
   45.5770   35.4660   43.2560 C   0  0  0  0  0  0  0  0  0  0  0  0
   44.5080   35.7450   42.4290 C   0  0  0  0  0  0  0  0  0  0  0  0
   45.1310   32.1390   43.3310 H   0  0  0  0  0  0  0  0  0  0  0  0
   46.5860   33.8610   44.2010 H   0  0  0  0  0  0  0  0  0  0  0  0
   46.2120   36.2620   43.6300 H   0  0  0  0  0  0  0  0  0  0  0  0
   44.3330   36.7920   42.1710 H   0  0  0  0  0  0  0  0  0  0  0  0
   40.2640   35.7240   40.5610 C   0  0  0  0  0  0  0  0  0  0  0  0
   41.2910   35.4740   41.4960 C   0  0  0  0  0  0  0  0  0  0  0  0
   42.5470   35.0980   41.0510 C   0  0  0  0  0  0  0  0  0  0  0  0
   42.7280   34.9870   39.7090 N   0  0  0  0  0  0  0  0  0  0  0  0
   41.7290   35.2310   38.8200 C   0  0  0  0  0  0  0  0  0  0  0  0
   40.5060   35.5980   39.2630 N   0  0  0  0  0  0  0  0  0  0  0  0
   39.3140   36.0130   40.9960 H   0  0  0  0  0  0  0  0  0  0  0  0
   41.1690   35.5560   42.5710 H   0  0  0  0  0  0  0  0  0  0  0  0
   41.9970   35.1090   37.7850 H   0  0  0  0  0  0  0  0  0  0  0  0
   42.6630   31.3870   42.6520 N   0  0  0  0  0  0  0  0  0  0  0  0
   43.2420   30.5280   42.5320 H   0  0  0  0  0  0  0  0  0  0  0  0
   40.9980   30.9970   42.6360 S   0  0  0  0  0  0  0  0  0  0  0  0
   40.1680   32.2210   42.3070 O   0  0  0  0  0  0  0  0  0  0  0  0
   39.3080   32.4750   42.7250 H   0  0  0  0  0  0  0  0  0  0  0  0
   40.5760   30.4300   43.9560 O   0  0  0  0  0  0  0  0  0  0  0  0
   41.1970   30.0260   44.6310 H   0  0  0  0  0  0  0  0  0  0  0  0
   40.7440   29.8520   41.4410 O   0  0  0  0  0  0  0  0  0  0  0  0
   40.1990   28.7260   42.0420 C   0  0  0  0  0  0  0  0  0  0  0  0
   39.5200   28.2530   41.2810 H   0  0  0  0  0  0  0  0  0  0  0  0
   39.6930   28.9000   42.9890 H   0  0  0  0  0  0  0  0  0  0  0  0
   41.3110   27.6740   42.2360 C   0  0  0  0  0  0  0  0  0  0  0  0
   41.4180   27.0580   41.3280 H   0  0  0  0  0  0  0  0  0  0  0  0
   42.2560   28.1770   42.5230 H   0  0  0  0  0  0  0  0  0  0  0  0
   40.8610   26.8560   43.3970 C   0  0  0  0  0  3  0  0  0  0  0  0
   41.3960   26.8830   44.5900 C   0  0  0  0  0  3  0  0  0  0  0  0
   42.5370   27.7710   44.8710 C   0  0  0  0  0  2  0  0  0  0  0  0
   42.5860   27.9360   45.9870 H   0  0  0  0  0  0  0  0  0  0  0  0
  1  5  1  0  0  0  0
  1 23  1  0  0  0  0
  2  1  1  0  0  0  0
  3  1  1  0  0  0  0
  4  5  2  0  0  0  0
  4  9  1  0  0  0  0
  5  6  1  0  0  0  0
  6 10  1  0  0  0  0
  6  7  2  0  0  0  0
  7 11  1  0  0  0  0
  8  7  1  0  0  0  0
  8 12  1  0  0  0  0
  9  8  2  0  0  0  0
 13  9  1  0  0  0  0
 14 20  1  0  0  0  0
 14 15  1  0  0  0  0
 15 21  1  0  0  0  0
 16 15  2  0  0  0  0
 16  4  1  0  0  0  0
 17 16  1  0  0  0  0
 18 19  1  0  0  0  0
 18 17  2  0  0  0  0
 19 14  2  0  0  0  0
 22 18  1  0  0  0  0
 24 23  1  0  0  0  0
 25 23  1  0  0  0  0
 25 28  1  0  0  0  0
 26 25  1  0  0  0  0
 26 27  1  0  0  0  0
 28 29  1  0  0  0  0
 30 31  1  0  0  0  0
 30 25  1  0  0  0  0
 31 34  1  0  0  0  0
 31 33  1  0  0  0  0
 32 31  1  0  0  0  0
 34 36  1  0  0  0  0
 34 37  1  0  0  0  0
 35 34  1  0  0  0  0
 37 38  2  0  0  0  0
 38 39  1  0  0  0  0
 39 40  1  0  0  0  0
M  END
>  <minimizedAffinity>
-4.74289656

>  <minimizedRMSD>
0.791355252

$$$$
