
 OpenBabel03242514183D

 36 37  0  0  0  0  0  0  0  0999 V2000
   37.5830   31.6880   40.0120 C   0  0  0  0  0  0  0  0  0  0  0  0
   38.7320   31.8190   40.7730 C   0  0  0  0  0  0  0  0  0  0  0  0
   39.2380   33.0800   40.9260 C   0  0  0  0  0  0  0  0  0  0  0  0
   38.5950   34.1360   40.3310 N   0  0  0  0  0  0  0  0  0  0  0  0
   37.4930   33.9990   39.6040 C   0  0  0  0  0  0  0  0  0  0  0  0
   37.0150   32.7820   39.4620 N   0  0  0  0  0  0  0  0  0  0  0  0
   40.0920   33.4370   41.4510 H   0  0  0  0  0  0  0  0  0  0  0  0
   36.9730   34.8140   39.1280 H   0  0  0  0  0  0  0  0  0  0  0  0
   37.0940   30.3200   39.8360 C   0  0  0  0  0  0  0  0  0  0  0  0
   37.0570   29.8260   38.4710 C   0  0  0  0  0  0  0  0  0  0  0  0
   35.7180   29.5850   37.9490 C   0  0  0  0  0  0  0  0  0  0  0  0
   34.9410   28.6170   38.8410 C   0  0  0  0  0  0  0  0  0  0  0  0
   35.1170   28.8860   40.3010 C   0  0  0  0  0  0  0  0  0  0  0  0
   35.7440   30.2320   40.5350 C   0  0  0  0  0  0  0  0  0  0  0  0
   37.6950   29.6020   40.4510 H   0  0  0  0  0  0  0  0  0  0  0  0
   37.6730   28.9000   38.2770 H   0  0  0  0  0  0  0  0  0  0  0  0
   37.5540   30.5960   37.8090 H   0  0  0  0  0  0  0  0  0  0  0  0
   35.8250   29.0330   36.9690 H   0  0  0  0  0  0  0  0  0  0  0  0
   35.1180   30.4770   37.7040 H   0  0  0  0  0  0  0  0  0  0  0  0
   35.2210   27.5690   38.6360 H   0  0  0  0  0  0  0  0  0  0  0  0
   33.8620   28.7750   38.5890 H   0  0  0  0  0  0  0  0  0  0  0  0
   34.1320   28.8790   40.8260 H   0  0  0  0  0  0  0  0  0  0  0  0
   35.7200   28.1050   40.8050 H   0  0  0  0  0  0  0  0  0  0  0  0
   35.9380   30.3380   41.6190 H   0  0  0  0  0  0  0  0  0  0  0  0
   35.0640   31.0470   40.2360 H   0  0  0  0  0  0  0  0  0  0  0  0
   39.4860   30.9450   41.4180 O   0  0  0  0  0  0  0  0  0  0  0  0
   39.4760   30.3990   42.6690 C   0  0  0  0  0  0  0  0  0  0  0  0
   40.5050   30.4690   43.1140 H   0  0  0  0  0  0  0  0  0  0  0  0
   38.7940   30.9060   43.3810 H   0  0  0  0  0  0  0  0  0  0  0  0
   39.1030   28.9330   42.7250 C   0  0  0  0  0  0  0  0  0  0  0  0
   39.8810   28.3700   43.2980 H   0  0  0  0  0  0  0  0  0  0  0  0
   39.0260   28.4780   41.7360 H   0  0  0  0  0  0  0  0  0  0  0  0
   37.8050   28.8260   43.4340 C   0  0  0  0  0  3  0  0  0  0  0  0
   36.9150   27.8480   43.3930 C   0  0  0  0  0  3  0  0  0  0  0  0
   37.0890   26.6210   42.5750 C   0  0  0  0  0  2  0  0  0  0  0  0
   36.0840   26.3480   42.1800 H   0  0  0  0  0  0  0  0  0  0  0  0
  1  2  1  0  0  0  0
  2  3  2  0  0  0  0
  2 26  1  0  0  0  0
  3  7  1  0  0  0  0
  4  3  1  0  0  0  0
  5  4  2  0  0  0  0
  6  5  1  0  0  0  0
  6  1  2  0  0  0  0
  8  5  1  0  0  0  0
  9  1  1  0  0  0  0
  9 15  1  0  0  0  0
  9 14  1  0  0  0  0
 10  9  1  0  0  0  0
 11 10  1  0  0  0  0
 11 12  1  0  0  0  0
 12 13  1  0  0  0  0
 13 14  1  0  0  0  0
 13 23  1  0  0  0  0
 13 22  1  0  0  0  0
 14 24  1  0  0  0  0
 16 10  1  0  0  0  0
 17 10  1  0  0  0  0
 18 11  1  0  0  0  0
 19 11  1  0  0  0  0
 20 12  1  0  0  0  0
 21 12  1  0  0  0  0
 25 14  1  0  0  0  0
 26 27  1  0  0  0  0
 27 30  1  0  0  0  0
 27 28  1  0  0  0  0
 27 29  1  0  0  0  0
 30 31  1  0  0  0  0
 30 33  1  0  0  0  0
 32 30  1  0  0  0  0
 34 33  2  0  0  0  0
 35 34  1  0  0  0  0
 36 35  1  0  0  0  0
M  END
>  <minimizedAffinity>
-4.97469091

$$$$

 OpenBabel03242514183D

 36 37  0  0  0  0  0  0  0  0999 V2000
   38.3950   27.9520   41.8700 C   0  0  0  0  0  0  0  0  0  0  0  0
   38.0570   29.2740   42.1070 C   0  0  0  0  0  0  0  0  0  0  0  0
   39.0620   30.1150   42.4960 C   0  0  0  0  0  0  0  0  0  0  0  0
   40.3350   29.6190   42.6310 N   0  0  0  0  0  0  0  0  0  0  0  0
   40.6480   28.3500   42.4010 C   0  0  0  0  0  0  0  0  0  0  0  0
   39.6740   27.5490   42.0270 N   0  0  0  0  0  0  0  0  0  0  0  0
   39.0600   31.1520   42.7350 H   0  0  0  0  0  0  0  0  0  0  0  0
   41.6400   27.9400   42.5010 H   0  0  0  0  0  0  0  0  0  0  0  0
   37.2870   27.0740   41.4930 C   0  0  0  0  0  0  0  0  0  0  0  0
   36.9850   25.9960   42.4190 C   0  0  0  0  0  0  0  0  0  0  0  0
   37.2500   24.6600   41.9000 C   0  0  0  0  0  0  0  0  0  0  0  0
   36.4920   24.4120   40.5950 C   0  0  0  0  0  0  0  0  0  0  0  0
   36.5260   25.5770   39.6600 C   0  0  0  0  0  0  0  0  0  0  0  0
   37.5630   26.5820   40.0790 C   0  0  0  0  0  0  0  0  0  0  0  0
   36.3500   27.6660   41.3300 H   0  0  0  0  0  0  0  0  0  0  0  0
   35.9380   26.0000   42.8380 H   0  0  0  0  0  0  0  0  0  0  0  0
   37.6220   26.1410   43.3420 H   0  0  0  0  0  0  0  0  0  0  0  0
   36.8040   23.9160   42.6240 H   0  0  0  0  0  0  0  0  0  0  0  0
   38.3080   24.3670   41.8130 H   0  0  0  0  0  0  0  0  0  0  0  0
   35.4390   24.1410   40.7880 H   0  0  0  0  0  0  0  0  0  0  0  0
   37.0170   23.5560   40.1010 H   0  0  0  0  0  0  0  0  0  0  0  0
   36.7810   25.2460   38.6250 H   0  0  0  0  0  0  0  0  0  0  0  0
   35.5420   26.0770   39.5710 H   0  0  0  0  0  0  0  0  0  0  0  0
   37.4810   27.4610   39.4140 H   0  0  0  0  0  0  0  0  0  0  0  0
   38.5830   26.1740   39.9700 H   0  0  0  0  0  0  0  0  0  0  0  0
   36.9140   29.9350   42.0330 O   0  0  0  0  0  0  0  0  0  0  0  0
   36.3510   30.7920   41.1320 C   0  0  0  0  0  0  0  0  0  0  0  0
   35.3110   31.0540   41.4670 H   0  0  0  0  0  0  0  0  0  0  0  0
   36.8910   31.7530   41.0180 H   0  0  0  0  0  0  0  0  0  0  0  0
   36.2030   30.2410   39.7290 C   0  0  0  0  0  0  0  0  0  0  0  0
   37.1060   29.6370   39.4670 H   0  0  0  0  0  0  0  0  0  0  0  0
   36.0980   31.0240   38.9770 H   0  0  0  0  0  0  0  0  0  0  0  0
   35.0090   29.3620   39.7160 C   0  0  0  0  0  3  0  0  0  0  0  0
   34.4870   28.6870   38.7040 C   0  0  0  0  0  3  0  0  0  0  0  0
   35.0540   28.7070   37.3310 C   0  0  0  0  0  2  0  0  0  0  0  0
   34.1940   28.6870   36.6240 H   0  0  0  0  0  0  0  0  0  0  0  0
  1  6  2  0  0  0  0
  1  2  1  0  0  0  0
  2  3  2  0  0  0  0
  3  4  1  0  0  0  0
  3  7  1  0  0  0  0
  5  8  1  0  0  0  0
  5  4  2  0  0  0  0
  6  5  1  0  0  0  0
  9  1  1  0  0  0  0
  9 10  1  0  0  0  0
 10 16  1  0  0  0  0
 10 17  1  0  0  0  0
 11 10  1  0  0  0  0
 11 18  1  0  0  0  0
 12 20  1  0  0  0  0
 12 11  1  0  0  0  0
 13 14  1  0  0  0  0
 13 12  1  0  0  0  0
 14  9  1  0  0  0  0
 15  9  1  0  0  0  0
 19 11  1  0  0  0  0
 21 12  1  0  0  0  0
 22 13  1  0  0  0  0
 23 13  1  0  0  0  0
 24 14  1  0  0  0  0
 25 14  1  0  0  0  0
 26  2  1  0  0  0  0
 27 28  1  0  0  0  0
 27 26  1  0  0  0  0
 29 27  1  0  0  0  0
 30 27  1  0  0  0  0
 31 30  1  0  0  0  0
 32 30  1  0  0  0  0
 33 30  1  0  0  0  0
 34 33  2  0  0  0  0
 35 34  1  0  0  0  0
 36 35  1  0  0  0  0
M  END
>  <minimizedAffinity>
-4.55257177

$$$$

 OpenBabel03242514183D

 36 37  0  0  0  0  0  0  0  0999 V2000
   38.1020   30.7720   40.2140 C   0  0  0  0  0  0  0  0  0  0  0  0
   38.8530   30.5580   41.3570 C   0  0  0  0  0  0  0  0  0  0  0  0
   39.7550   31.5260   41.7000 C   0  0  0  0  0  0  0  0  0  0  0  0
   39.8720   32.6420   40.9110 N   0  0  0  0  0  0  0  0  0  0  0  0
   39.1460   32.8370   39.8170 C   0  0  0  0  0  0  0  0  0  0  0  0
   38.2810   31.9000   39.4950 N   0  0  0  0  0  0  0  0  0  0  0  0
   40.4380   31.5950   42.5140 H   0  0  0  0  0  0  0  0  0  0  0  0
   39.2210   33.7060   39.1840 H   0  0  0  0  0  0  0  0  0  0  0  0
   37.1750   29.6980   39.8560 C   0  0  0  0  0  0  0  0  0  0  0  0
   37.1440   29.3230   38.4520 C   0  0  0  0  0  0  0  0  0  0  0  0
   35.8910   29.6290   37.7720 C   0  0  0  0  0  0  0  0  0  0  0  0
   34.7020   28.9770   38.4800 C   0  0  0  0  0  0  0  0  0  0  0  0
   34.7680   29.0850   39.9680 C   0  0  0  0  0  0  0  0  0  0  0  0
   35.8060   30.0850   40.3980 C   0  0  0  0  0  0  0  0  0  0  0  0
   37.3850   28.7760   40.4580 H   0  0  0  0  0  0  0  0  0  0  0  0
   37.3980   28.2460   38.2350 H   0  0  0  0  0  0  0  0  0  0  0  0
   37.9710   29.8850   37.9240 H   0  0  0  0  0  0  0  0  0  0  0  0
   35.9190   29.1280   36.7600 H   0  0  0  0  0  0  0  0  0  0  0  0
   35.6970   30.6910   37.5530 H   0  0  0  0  0  0  0  0  0  0  0  0
   34.6060   27.9120   38.2040 H   0  0  0  0  0  0  0  0  0  0  0  0
   33.8000   29.5400   38.1320 H   0  0  0  0  0  0  0  0  0  0  0  0
   33.7880   29.4210   40.3840 H   0  0  0  0  0  0  0  0  0  0  0  0
   34.9710   28.1100   40.4540 H   0  0  0  0  0  0  0  0  0  0  0  0
   35.8790   30.0550   41.5000 H   0  0  0  0  0  0  0  0  0  0  0  0
   35.5160   31.1100   40.1090 H   0  0  0  0  0  0  0  0  0  0  0  0
   38.8880   29.5710   42.2360 O   0  0  0  0  0  0  0  0  0  0  0  0
   38.1230   29.2000   43.3040 C   0  0  0  0  0  0  0  0  0  0  0  0
   38.5450   29.6550   44.2400 H   0  0  0  0  0  0  0  0  0  0  0  0
   37.0670   29.5350   43.2450 H   0  0  0  0  0  0  0  0  0  0  0  0
   38.0610   27.7100   43.5620 C   0  0  0  0  0  0  0  0  0  0  0  0
   37.8410   27.5260   44.6430 H   0  0  0  0  0  0  0  0  0  0  0  0
   38.9950   27.2010   43.3220 H   0  0  0  0  0  0  0  0  0  0  0  0
   36.9570   27.1570   42.7410 C   0  0  0  0  0  3  0  0  0  0  0  0
   37.0220   26.5370   41.5730 C   0  0  0  0  0  3  0  0  0  0  0  0
   38.2970   26.2810   40.8550 C   0  0  0  0  0  2  0  0  0  0  0  0
   38.0880   26.4060   39.7690 H   0  0  0  0  0  0  0  0  0  0  0  0
  1  2  1  0  0  0  0
  2  3  2  0  0  0  0
  2 26  1  0  0  0  0
  3  7  1  0  0  0  0
  4  3  1  0  0  0  0
  5  4  2  0  0  0  0
  6  5  1  0  0  0  0
  6  1  2  0  0  0  0
  8  5  1  0  0  0  0
  9  1  1  0  0  0  0
  9 14  1  0  0  0  0
  9 15  1  0  0  0  0
 10  9  1  0  0  0  0
 11 10  1  0  0  0  0
 11 12  1  0  0  0  0
 12 13  1  0  0  0  0
 13 22  1  0  0  0  0
 13 14  1  0  0  0  0
 13 23  1  0  0  0  0
 14 24  1  0  0  0  0
 16 10  1  0  0  0  0
 17 10  1  0  0  0  0
 18 11  1  0  0  0  0
 19 11  1  0  0  0  0
 20 12  1  0  0  0  0
 21 12  1  0  0  0  0
 25 14  1  0  0  0  0
 26 27  1  0  0  0  0
 27 30  1  0  0  0  0
 27 28  1  0  0  0  0
 29 27  1  0  0  0  0
 30 31  1  0  0  0  0
 32 30  1  0  0  0  0
 33 30  1  0  0  0  0
 34 33  2  0  0  0  0
 35 34  1  0  0  0  0
 36 35  1  0  0  0  0
M  END
>  <minimizedAffinity>
-4.49721527

$$$$

 OpenBabel03242514183D

 36 37  0  0  0  0  0  0  0  0999 V2000
   38.6770   30.2270   41.7610 C   0  0  0  0  0  0  0  0  0  0  0  0
   38.3070   31.1880   40.8360 C   0  0  0  0  0  0  0  0  0  0  0  0
   39.2020   32.1920   40.5890 C   0  0  0  0  0  0  0  0  0  0  0  0
   40.4010   32.1990   41.2560 N   0  0  0  0  0  0  0  0  0  0  0  0
   40.7450   31.2710   42.1410 C   0  0  0  0  0  0  0  0  0  0  0  0
   39.8780   30.3100   42.3720 N   0  0  0  0  0  0  0  0  0  0  0  0
   39.1550   33.0320   39.9380 H   0  0  0  0  0  0  0  0  0  0  0  0
   41.6810   31.2570   42.6760 H   0  0  0  0  0  0  0  0  0  0  0  0
   37.6790   29.1910   42.0290 C   0  0  0  0  0  0  0  0  0  0  0  0
   37.5460   28.7760   43.4150 C   0  0  0  0  0  0  0  0  0  0  0  0
   37.9630   27.4040   43.6790 C   0  0  0  0  0  0  0  0  0  0  0  0
   37.2010   26.4140   42.7960 C   0  0  0  0  0  0  0  0  0  0  0  0
   37.0570   26.8730   41.3820 C   0  0  0  0  0  0  0  0  0  0  0  0
   37.9700   28.0310   41.0880 C   0  0  0  0  0  0  0  0  0  0  0  0
   36.6680   29.5090   41.6630 H   0  0  0  0  0  0  0  0  0  0  0  0
   36.5210   28.9150   43.8640 H   0  0  0  0  0  0  0  0  0  0  0  0
   38.1880   29.4600   44.0460 H   0  0  0  0  0  0  0  0  0  0  0  0
   37.6390   27.1430   44.7290 H   0  0  0  0  0  0  0  0  0  0  0  0
   39.0470   27.2070   43.6630 H   0  0  0  0  0  0  0  0  0  0  0  0
   36.1990   26.2000   43.2060 H   0  0  0  0  0  0  0  0  0  0  0  0
   37.8160   25.4790   42.7960 H   0  0  0  0  0  0  0  0  0  0  0  0
   37.3190   26.0510   40.6710 H   0  0  0  0  0  0  0  0  0  0  0  0
   36.0140   27.1510   41.1320 H   0  0  0  0  0  0  0  0  0  0  0  0
   37.7550   28.3880   40.0640 H   0  0  0  0  0  0  0  0  0  0  0  0
   39.0290   27.7220   41.1190 H   0  0  0  0  0  0  0  0  0  0  0  0
   37.2220   31.3550   40.1000 O   0  0  0  0  0  0  0  0  0  0  0  0
   36.9640   31.4260   38.7610 C   0  0  0  0  0  0  0  0  0  0  0  0
   36.1620   32.1900   38.5760 H   0  0  0  0  0  0  0  0  0  0  0  0
   37.8340   31.7330   38.1460 H   0  0  0  0  0  0  0  0  0  0  0  0
   36.4590   30.1420   38.1370 C   0  0  0  0  0  0  0  0  0  0  0  0
   37.3160   29.4420   37.9750 H   0  0  0  0  0  0  0  0  0  0  0  0
   35.9760   30.3030   37.1730 H   0  0  0  0  0  0  0  0  0  0  0  0
   35.5020   29.5270   39.0880 C   0  0  0  0  0  3  0  0  0  0  0  0
   34.3320   28.9600   38.8370 C   0  0  0  0  0  3  0  0  0  0  0  0
   33.7580   28.8440   37.4720 C   0  0  0  0  0  2  0  0  0  0  0  0
   32.6590   28.9910   37.5690 H   0  0  0  0  0  0  0  0  0  0  0  0
  1  9  1  0  0  0  0
  1  6  1  0  0  0  0
  2  1  2  0  0  0  0
  3  2  1  0  0  0  0
  3  4  2  0  0  0  0
  4  5  1  0  0  0  0
  5  6  2  0  0  0  0
  5  8  1  0  0  0  0
  7  3  1  0  0  0  0
  9 10  1  0  0  0  0
 10 11  1  0  0  0  0
 10 16  1  0  0  0  0
 10 17  1  0  0  0  0
 11 18  1  0  0  0  0
 12 20  1  0  0  0  0
 12 11  1  0  0  0  0
 13 12  1  0  0  0  0
 14 25  1  0  0  0  0
 14 13  1  0  0  0  0
 14  9  1  0  0  0  0
 15  9  1  0  0  0  0
 19 11  1  0  0  0  0
 21 12  1  0  0  0  0
 22 13  1  0  0  0  0
 23 13  1  0  0  0  0
 24 14  1  0  0  0  0
 26  2  1  0  0  0  0
 27 26  1  0  0  0  0
 28 27  1  0  0  0  0
 29 27  1  0  0  0  0
 30 27  1  0  0  0  0
 30 33  1  0  0  0  0
 31 30  1  0  0  0  0
 32 30  1  0  0  0  0
 34 33  2  0  0  0  0
 35 36  1  0  0  0  0
 35 34  1  0  0  0  0
M  END
>  <minimizedAffinity>
-4.45278645

$$$$

 OpenBabel03242514183D

 36 37  0  0  0  0  0  0  0  0999 V2000
   36.7850   30.2930   38.9850 C   0  0  0  0  0  0  0  0  0  0  0  0
   37.1500   29.9920   40.2860 C   0  0  0  0  0  0  0  0  0  0  0  0
   37.6270   31.0190   41.0530 C   0  0  0  0  0  0  0  0  0  0  0  0
   37.7180   32.2750   40.5080 N   0  0  0  0  0  0  0  0  0  0  0  0
   37.3640   32.5510   39.2590 C   0  0  0  0  0  0  0  0  0  0  0  0
   36.9070   31.5570   38.5290 N   0  0  0  0  0  0  0  0  0  0  0  0
   37.9680   31.0460   42.0610 H   0  0  0  0  0  0  0  0  0  0  0  0
   37.4270   33.5300   38.8110 H   0  0  0  0  0  0  0  0  0  0  0  0
   36.3170   29.1620   38.1830 C   0  0  0  0  0  0  0  0  0  0  0  0
   36.7240   29.1580   36.7880 C   0  0  0  0  0  0  0  0  0  0  0  0
   35.6320   29.3320   35.8380 C   0  0  0  0  0  0  0  0  0  0  0  0
   34.5500   28.2680   36.0360 C   0  0  0  0  0  0  0  0  0  0  0  0
   34.2330   28.0080   37.4730 C   0  0  0  0  0  0  0  0  0  0  0  0
   34.8080   29.0770   38.3610 C   0  0  0  0  0  0  0  0  0  0  0  0
   36.6370   28.1900   38.6420 H   0  0  0  0  0  0  0  0  0  0  0  0
   37.3210   28.2580   36.4630 H   0  0  0  0  0  0  0  0  0  0  0  0
   37.4540   30.0080   36.6360 H   0  0  0  0  0  0  0  0  0  0  0  0
   36.0380   29.1230   34.8050 H   0  0  0  0  0  0  0  0  0  0  0  0
   35.1960   30.3410   35.7690 H   0  0  0  0  0  0  0  0  0  0  0  0
   34.8320   27.3160   35.5560 H   0  0  0  0  0  0  0  0  0  0  0  0
   33.6310   28.6800   35.5480 H   0  0  0  0  0  0  0  0  0  0  0  0
   33.1280   27.9960   37.6380 H   0  0  0  0  0  0  0  0  0  0  0  0
   34.5880   27.0150   37.8120 H   0  0  0  0  0  0  0  0  0  0  0  0
   34.6260   28.7860   39.4120 H   0  0  0  0  0  0  0  0  0  0  0  0
   34.3110   30.0480   38.1920 H   0  0  0  0  0  0  0  0  0  0  0  0
   37.1370   28.8710   40.9860 O   0  0  0  0  0  0  0  0  0  0  0  0
   36.2060   28.2100   41.7350 C   0  0  0  0  0  0  0  0  0  0  0  0
   35.4260   28.9390   42.0870 H   0  0  0  0  0  0  0  0  0  0  0  0
   35.6620   27.4150   41.1870 H   0  0  0  0  0  0  0  0  0  0  0  0
   36.7420   27.5470   42.9860 C   0  0  0  0  0  0  0  0  0  0  0  0
   35.9900   26.8170   43.3740 H   0  0  0  0  0  0  0  0  0  0  0  0
   36.9550   28.2600   43.7840 H   0  0  0  0  0  0  0  0  0  0  0  0
   37.9790   26.8190   42.6130 C   0  0  0  0  0  3  0  0  0  0  0  0
   38.1150   25.5630   42.2170 C   0  0  0  0  0  3  0  0  0  0  0  0
   36.9730   24.6240   42.0750 C   0  0  0  0  0  2  0  0  0  0  0  0
   37.3340   23.6230   42.4010 H   0  0  0  0  0  0  0  0  0  0  0  0
  1  2  1  0  0  0  0
  2 26  1  0  0  0  0
  2  3  2  0  0  0  0
  3  7  1  0  0  0  0
  4  3  1  0  0  0  0
  5  4  2  0  0  0  0
  6  1  2  0  0  0  0
  6  5  1  0  0  0  0
  8  5  1  0  0  0  0
  9 14  1  0  0  0  0
  9 15  1  0  0  0  0
  9  1  1  0  0  0  0
 10  9  1  0  0  0  0
 11 12  1  0  0  0  0
 11 10  1  0  0  0  0
 12 13  1  0  0  0  0
 13 22  1  0  0  0  0
 13 23  1  0  0  0  0
 13 14  1  0  0  0  0
 14 24  1  0  0  0  0
 16 10  1  0  0  0  0
 17 10  1  0  0  0  0
 18 11  1  0  0  0  0
 19 11  1  0  0  0  0
 20 12  1  0  0  0  0
 21 12  1  0  0  0  0
 25 14  1  0  0  0  0
 26 27  1  0  0  0  0
 27 28  1  0  0  0  0
 27 30  1  0  0  0  0
 29 27  1  0  0  0  0
 30 31  1  0  0  0  0
 30 32  1  0  0  0  0
 33 30  1  0  0  0  0
 34 33  2  0  0  0  0
 35 34  1  0  0  0  0
 35 36  1  0  0  0  0
M  END
>  <minimizedAffinity>
-4.34713602

$$$$

 OpenBabel03242514183D

 36 37  0  0  0  0  0  0  0  0999 V2000
   39.1740   29.8660   41.6010 C   0  0  0  0  0  0  0  0  0  0  0  0
   38.8100   28.9520   42.5750 C   0  0  0  0  0  0  0  0  0  0  0  0
   39.8050   28.1860   43.1150 C   0  0  0  0  0  0  0  0  0  0  0  0
   41.0940   28.3550   42.6740 N   0  0  0  0  0  0  0  0  0  0  0  0
   41.4320   29.2350   41.7400 C   0  0  0  0  0  0  0  0  0  0  0  0
   40.4670   29.9670   41.2260 N   0  0  0  0  0  0  0  0  0  0  0  0
   39.7830   27.4280   43.8610 H   0  0  0  0  0  0  0  0  0  0  0  0
   42.4360   29.3840   41.3790 H   0  0  0  0  0  0  0  0  0  0  0  0
   38.0780   30.6400   41.0180 C   0  0  0  0  0  0  0  0  0  0  0  0
   37.4540   30.0730   39.8350 C   0  0  0  0  0  0  0  0  0  0  0  0
   37.6630   30.8400   38.6130 C   0  0  0  0  0  0  0  0  0  0  0  0
   37.1830   32.2830   38.7760 C   0  0  0  0  0  0  0  0  0  0  0  0
   37.5600   32.8870   40.0900 C   0  0  0  0  0  0  0  0  0  0  0  0
   38.5930   32.0550   40.7970 C   0  0  0  0  0  0  0  0  0  0  0  0
   37.2760   30.8270   41.7790 H   0  0  0  0  0  0  0  0  0  0  0  0
   36.3490   29.8660   39.9250 H   0  0  0  0  0  0  0  0  0  0  0  0
   37.8880   29.0410   39.6750 H   0  0  0  0  0  0  0  0  0  0  0  0
   36.9850   30.4110   37.8180 H   0  0  0  0  0  0  0  0  0  0  0  0
   38.6730   30.7980   38.1730 H   0  0  0  0  0  0  0  0  0  0  0  0
   36.0900   32.3580   38.6500 H   0  0  0  0  0  0  0  0  0  0  0  0
   37.6970   32.8630   37.9690 H   0  0  0  0  0  0  0  0  0  0  0  0
   37.9920   33.9070   39.9470 H   0  0  0  0  0  0  0  0  0  0  0  0
   36.6850   33.0330   40.7540 H   0  0  0  0  0  0  0  0  0  0  0  0
   38.7630   32.4930   41.7980 H   0  0  0  0  0  0  0  0  0  0  0  0
   39.5560   32.0700   40.2570 H   0  0  0  0  0  0  0  0  0  0  0  0
   37.6490   28.6440   43.1270 O   0  0  0  0  0  0  0  0  0  0  0  0
   36.6490   27.7580   42.8430 C   0  0  0  0  0  0  0  0  0  0  0  0
   36.4910   27.0800   43.7250 H   0  0  0  0  0  0  0  0  0  0  0  0
   35.6680   28.2300   42.6350 H   0  0  0  0  0  0  0  0  0  0  0  0
   36.9180   26.8440   41.6670 C   0  0  0  0  0  0  0  0  0  0  0  0
   37.8120   27.2110   41.1050 H   0  0  0  0  0  0  0  0  0  0  0  0
   36.0820   26.7990   40.9670 H   0  0  0  0  0  0  0  0  0  0  0  0
   37.2020   25.4920   42.2040 C   0  0  0  0  0  3  0  0  0  0  0  0
   36.9660   24.3130   41.6510 C   0  0  0  0  0  3  0  0  0  0  0  0
   36.3360   24.1490   40.3160 C   0  0  0  0  0  2  0  0  0  0  0  0
   35.6760   23.2550   40.3760 H   0  0  0  0  0  0  0  0  0  0  0  0
  1  2  1  0  0  0  0
  2  3  2  0  0  0  0
  2 26  1  0  0  0  0
  3  7  1  0  0  0  0
  4  3  1  0  0  0  0
  5  4  2  0  0  0  0
  6  1  2  0  0  0  0
  6  5  1  0  0  0  0
  8  5  1  0  0  0  0
  9  1  1  0  0  0  0
  9 15  1  0  0  0  0
 10 16  1  0  0  0  0
 10  9  1  0  0  0  0
 11 12  1  0  0  0  0
 11 10  1  0  0  0  0
 12 13  1  0  0  0  0
 13 23  1  0  0  0  0
 13 14  1  0  0  0  0
 14  9  1  0  0  0  0
 14 24  1  0  0  0  0
 17 10  1  0  0  0  0
 18 11  1  0  0  0  0
 19 11  1  0  0  0  0
 20 12  1  0  0  0  0
 21 12  1  0  0  0  0
 22 13  1  0  0  0  0
 25 14  1  0  0  0  0
 27 26  1  0  0  0  0
 27 28  1  0  0  0  0
 29 27  1  0  0  0  0
 30 33  1  0  0  0  0
 30 27  1  0  0  0  0
 31 30  1  0  0  0  0
 32 30  1  0  0  0  0
 34 33  2  0  0  0  0
 35 36  1  0  0  0  0
 35 34  1  0  0  0  0
M  END
>  <minimizedAffinity>
-4.32751465

$$$$

 OpenBabel03242514183D

 36 37  0  0  0  0  0  0  0  0999 V2000
   36.8670   27.7220   40.7510 C   0  0  0  0  0  0  0  0  0  0  0  0
   37.1720   28.7620   41.6120 C   0  0  0  0  0  0  0  0  0  0  0  0
   36.5430   29.9560   41.3950 C   0  0  0  0  0  0  0  0  0  0  0  0
   35.6550   30.0660   40.3550 N   0  0  0  0  0  0  0  0  0  0  0  0
   35.3700   29.0610   39.5360 C   0  0  0  0  0  0  0  0  0  0  0  0
   35.9800   27.9160   39.7520 N   0  0  0  0  0  0  0  0  0  0  0  0
   36.6060   30.8880   41.9050 H   0  0  0  0  0  0  0  0  0  0  0  0
   34.6760   29.1250   38.7130 H   0  0  0  0  0  0  0  0  0  0  0  0
   37.5880   26.4710   40.9890 C   0  0  0  0  0  0  0  0  0  0  0  0
   37.9710   25.7200   39.8060 C   0  0  0  0  0  0  0  0  0  0  0  0
   37.2910   24.4390   39.6560 C   0  0  0  0  0  0  0  0  0  0  0  0
   37.4990   23.5540   40.8860 C   0  0  0  0  0  0  0  0  0  0  0  0
   37.3770   24.2980   42.1770 C   0  0  0  0  0  0  0  0  0  0  0  0
   36.7600   25.6530   41.9700 C   0  0  0  0  0  0  0  0  0  0  0  0
   38.5110   26.6560   41.5990 H   0  0  0  0  0  0  0  0  0  0  0  0
   39.0780   25.5370   39.6880 H   0  0  0  0  0  0  0  0  0  0  0  0
   37.7260   26.3510   38.9000 H   0  0  0  0  0  0  0  0  0  0  0  0
   37.8020   23.8750   38.8210 H   0  0  0  0  0  0  0  0  0  0  0  0
   36.2300   24.4770   39.3610 H   0  0  0  0  0  0  0  0  0  0  0  0
   38.4800   23.0500   40.8570 H   0  0  0  0  0  0  0  0  0  0  0  0
   36.6810   22.7910   40.8480 H   0  0  0  0  0  0  0  0  0  0  0  0
   36.7270   23.7400   42.8940 H   0  0  0  0  0  0  0  0  0  0  0  0
   38.3500   24.4100   42.6940 H   0  0  0  0  0  0  0  0  0  0  0  0
   36.7810   26.1930   42.9340 H   0  0  0  0  0  0  0  0  0  0  0  0
   35.7050   25.5680   41.6570 H   0  0  0  0  0  0  0  0  0  0  0  0
   37.9810   28.8570   42.6540 O   0  0  0  0  0  0  0  0  0  0  0  0
   39.2770   29.2440   42.8380 C   0  0  0  0  0  0  0  0  0  0  0  0
   39.5410   30.0330   42.0830 H   0  0  0  0  0  0  0  0  0  0  0  0
   39.4840   29.6850   43.8340 H   0  0  0  0  0  0  0  0  0  0  0  0
   40.3050   28.1460   42.6600 C   0  0  0  0  0  0  0  0  0  0  0  0
   41.3300   28.5620   42.8260 H   0  0  0  0  0  0  0  0  0  0  0  0
   40.2840   27.7060   41.6620 H   0  0  0  0  0  0  0  0  0  0  0  0
   40.0320   27.1060   43.6800 C   0  0  0  0  0  3  0  0  0  0  0  0
   40.3070   25.8120   43.6390 C   0  0  0  0  0  3  0  0  0  0  0  0
   40.9780   25.1560   42.4880 C   0  0  0  0  0  2  0  0  0  0  0  0
   40.5140   24.1510   42.3710 H   0  0  0  0  0  0  0  0  0  0  0  0
  1  9  1  0  0  0  0
  1  2  1  0  0  0  0
  2 26  1  0  0  0  0
  3  2  2  0  0  0  0
  3  7  1  0  0  0  0
  4  3  1  0  0  0  0
  5  6  1  0  0  0  0
  5  4  2  0  0  0  0
  6  1  2  0  0  0  0
  8  5  1  0  0  0  0
  9 15  1  0  0  0  0
  9 14  1  0  0  0  0
 10  9  1  0  0  0  0
 11 10  1  0  0  0  0
 11 12  1  0  0  0  0
 12 13  1  0  0  0  0
 13 23  1  0  0  0  0
 13 22  1  0  0  0  0
 14 13  1  0  0  0  0
 14 24  1  0  0  0  0
 16 10  1  0  0  0  0
 17 10  1  0  0  0  0
 18 11  1  0  0  0  0
 19 11  1  0  0  0  0
 20 12  1  0  0  0  0
 21 12  1  0  0  0  0
 25 14  1  0  0  0  0
 26 27  1  0  0  0  0
 27 29  1  0  0  0  0
 28 27  1  0  0  0  0
 30 31  1  0  0  0  0
 30 27  1  0  0  0  0
 30 33  1  0  0  0  0
 32 30  1  0  0  0  0
 34 33  2  0  0  0  0
 35 34  1  0  0  0  0
 36 35  1  0  0  0  0
M  END
>  <minimizedAffinity>
-4.26078558

$$$$

 OpenBabel03242514183D

 36 37  0  0  0  0  0  0  0  0999 V2000
   36.9220   25.9310   40.6020 C   0  0  0  0  0  0  0  0  0  0  0  0
   36.4720   25.9720   39.2940 C   0  0  0  0  0  0  0  0  0  0  0  0
   36.2560   24.7740   38.6710 C   0  0  0  0  0  0  0  0  0  0  0  0
   36.4890   23.6100   39.3590 N   0  0  0  0  0  0  0  0  0  0  0  0
   36.9200   23.5830   40.6140 C   0  0  0  0  0  0  0  0  0  0  0  0
   37.1260   24.7400   41.2040 N   0  0  0  0  0  0  0  0  0  0  0  0
   35.9190   24.5430   37.6880 H   0  0  0  0  0  0  0  0  0  0  0  0
   37.1100   22.6810   41.1720 H   0  0  0  0  0  0  0  0  0  0  0  0
   37.1800   27.2310   41.2230 C   0  0  0  0  0  0  0  0  0  0  0  0
   38.4730   27.8290   40.9360 C   0  0  0  0  0  0  0  0  0  0  0  0
   39.3620   27.9310   42.0860 C   0  0  0  0  0  0  0  0  0  0  0  0
   38.7050   28.7080   43.2280 C   0  0  0  0  0  0  0  0  0  0  0  0
   37.2720   28.3430   43.4440 C   0  0  0  0  0  0  0  0  0  0  0  0
   36.9150   27.0780   42.7140 C   0  0  0  0  0  0  0  0  0  0  0  0
   36.3840   27.9690   40.9440 H   0  0  0  0  0  0  0  0  0  0  0  0
   38.4350   28.8420   40.4410 H   0  0  0  0  0  0  0  0  0  0  0  0
   38.9860   27.1910   40.1560 H   0  0  0  0  0  0  0  0  0  0  0  0
   40.2410   28.5730   41.7850 H   0  0  0  0  0  0  0  0  0  0  0  0
   39.8110   26.9910   42.4450 H   0  0  0  0  0  0  0  0  0  0  0  0
   38.7740   29.7970   43.0640 H   0  0  0  0  0  0  0  0  0  0  0  0
   39.2750   28.4280   44.1490 H   0  0  0  0  0  0  0  0  0  0  0  0
   37.0670   28.1730   44.5290 H   0  0  0  0  0  0  0  0  0  0  0  0
   36.5790   29.1520   43.1410 H   0  0  0  0  0  0  0  0  0  0  0  0
   35.8290   26.9080   42.8300 H   0  0  0  0  0  0  0  0  0  0  0  0
   37.4380   26.2070   43.1450 H   0  0  0  0  0  0  0  0  0  0  0  0
   36.1900   26.9690   38.4720 O   0  0  0  0  0  0  0  0  0  0  0  0
   35.0590   27.6590   38.1430 C   0  0  0  0  0  0  0  0  0  0  0  0
   35.1030   27.9510   37.0600 H   0  0  0  0  0  0  0  0  0  0  0  0
   34.1210   27.0820   38.2720 H   0  0  0  0  0  0  0  0  0  0  0  0
   34.8500   28.9490   38.9080 C   0  0  0  0  0  0  0  0  0  0  0  0
   34.8120   28.7330   40.0040 H   0  0  0  0  0  0  0  0  0  0  0  0
   33.9210   29.4540   38.6380 H   0  0  0  0  0  0  0  0  0  0  0  0
   36.0070   29.8310   38.6250 C   0  0  0  0  0  3  0  0  0  0  0  0
   36.6370   30.6610   39.4410 C   0  0  0  0  0  3  0  0  0  0  0  0
   36.2560   30.8520   40.8640 C   0  0  0  0  0  2  0  0  0  0  0  0
   36.4010   31.9310   41.0970 H   0  0  0  0  0  0  0  0  0  0  0  0
  1  6  1  0  0  0  0
  1  9  1  0  0  0  0
  2  1  2  0  0  0  0
  3  2  1  0  0  0  0
  3  4  2  0  0  0  0
  4  5  1  0  0  0  0
  5  8  1  0  0  0  0
  5  6  2  0  0  0  0
  7  3  1  0  0  0  0
  9 14  1  0  0  0  0
 10  9  1  0  0  0  0
 10 11  1  0  0  0  0
 11 19  1  0  0  0  0
 11 12  1  0  0  0  0
 12 13  1  0  0  0  0
 12 21  1  0  0  0  0
 13 22  1  0  0  0  0
 14 24  1  0  0  0  0
 14 25  1  0  0  0  0
 14 13  1  0  0  0  0
 15  9  1  0  0  0  0
 16 10  1  0  0  0  0
 17 10  1  0  0  0  0
 18 11  1  0  0  0  0
 20 12  1  0  0  0  0
 23 13  1  0  0  0  0
 26  2  1  0  0  0  0
 27 29  1  0  0  0  0
 27 26  1  0  0  0  0
 27 30  1  0  0  0  0
 28 27  1  0  0  0  0
 30 31  1  0  0  0  0
 32 30  1  0  0  0  0
 33 30  1  0  0  0  0
 33 34  2  0  0  0  0
 34 35  1  0  0  0  0
 35 36  1  0  0  0  0
M  END
>  <minimizedAffinity>
-4.25278759

$$$$

 OpenBabel03242514183D

 36 37  0  0  0  0  0  0  0  0999 V2000
   37.6700   29.4170   41.4370 C   0  0  0  0  0  0  0  0  0  0  0  0
   37.2050   28.2460   40.8650 C   0  0  0  0  0  0  0  0  0  0  0  0
   36.9260   27.2070   41.7090 C   0  0  0  0  0  0  0  0  0  0  0  0
   37.1150   27.3720   43.0580 N   0  0  0  0  0  0  0  0  0  0  0  0
   37.5610   28.5010   43.5960 C   0  0  0  0  0  0  0  0  0  0  0  0
   37.8270   29.4940   42.7760 N   0  0  0  0  0  0  0  0  0  0  0  0
   36.5660   26.2240   41.5200 H   0  0  0  0  0  0  0  0  0  0  0  0
   37.7170   28.6510   44.6520 H   0  0  0  0  0  0  0  0  0  0  0  0
   37.9960   30.4930   40.5000 C   0  0  0  0  0  0  0  0  0  0  0  0
   39.2920   31.1250   40.6800 C   0  0  0  0  0  0  0  0  0  0  0  0
   39.2340   32.5160   41.1080 C   0  0  0  0  0  0  0  0  0  0  0  0
   38.4070   33.3610   40.1380 C   0  0  0  0  0  0  0  0  0  0  0  0
   37.1550   32.6850   39.6830 C   0  0  0  0  0  0  0  0  0  0  0  0
   36.8430   31.4850   40.5350 C   0  0  0  0  0  0  0  0  0  0  0  0
   37.9290   30.1310   39.4410 H   0  0  0  0  0  0  0  0  0  0  0  0
   39.9830   31.0680   39.7890 H   0  0  0  0  0  0  0  0  0  0  0  0
   39.8570   30.5420   41.4680 H   0  0  0  0  0  0  0  0  0  0  0  0
   40.2760   32.9440   41.0290 H   0  0  0  0  0  0  0  0  0  0  0  0
   38.9360   32.6970   42.1540 H   0  0  0  0  0  0  0  0  0  0  0  0
   38.9990   33.6470   39.2510 H   0  0  0  0  0  0  0  0  0  0  0  0
   38.1170   34.2780   40.7100 H   0  0  0  0  0  0  0  0  0  0  0  0
   36.2830   33.3800   39.7520 H   0  0  0  0  0  0  0  0  0  0  0  0
   37.2000   32.3810   38.6190 H   0  0  0  0  0  0  0  0  0  0  0  0
   35.9660   30.9720   40.0990 H   0  0  0  0  0  0  0  0  0  0  0  0
   36.5780   31.7840   41.5640 H   0  0  0  0  0  0  0  0  0  0  0  0
   36.9590   27.8940   39.6140 O   0  0  0  0  0  0  0  0  0  0  0  0
   35.8320   27.7470   38.8570 C   0  0  0  0  0  0  0  0  0  0  0  0
   36.0670   27.1140   37.9590 H   0  0  0  0  0  0  0  0  0  0  0  0
   34.9940   27.2450   39.3800 H   0  0  0  0  0  0  0  0  0  0  0  0
   35.2550   29.0360   38.3100 C   0  0  0  0  0  0  0  0  0  0  0  0
   35.0840   29.7550   39.1490 H   0  0  0  0  0  0  0  0  0  0  0  0
   34.3020   28.8890   37.8000 H   0  0  0  0  0  0  0  0  0  0  0  0
   36.2490   29.6100   37.3720 C   0  0  0  0  0  3  0  0  0  0  0  0
   36.2540   29.5800   36.0480 C   0  0  0  0  0  3  0  0  0  0  0  0
   35.1950   28.9200   35.2430 C   0  0  0  0  0  2  0  0  0  0  0  0
   35.6970   28.4530   34.3660 H   0  0  0  0  0  0  0  0  0  0  0  0
  1  6  1  0  0  0  0
  2  1  2  0  0  0  0
  2  3  1  0  0  0  0
  3  4  2  0  0  0  0
  4  5  1  0  0  0  0
  5  8  1  0  0  0  0
  6  5  2  0  0  0  0
  7  3  1  0  0  0  0
  9 14  1  0  0  0  0
  9 10  1  0  0  0  0
  9  1  1  0  0  0  0
 10 11  1  0  0  0  0
 10 17  1  0  0  0  0
 11 19  1  0  0  0  0
 12 21  1  0  0  0  0
 12 11  1  0  0  0  0
 13 22  1  0  0  0  0
 13 12  1  0  0  0  0
 13 14  1  0  0  0  0
 14 25  1  0  0  0  0
 15  9  1  0  0  0  0
 16 10  1  0  0  0  0
 18 11  1  0  0  0  0
 20 12  1  0  0  0  0
 23 13  1  0  0  0  0
 24 14  1  0  0  0  0
 26  2  1  0  0  0  0
 27 29  1  0  0  0  0
 27 26  1  0  0  0  0
 28 27  1  0  0  0  0
 30 27  1  0  0  0  0
 30 31  1  0  0  0  0
 32 30  1  0  0  0  0
 33 30  1  0  0  0  0
 34 33  2  0  0  0  0
 35 34  1  0  0  0  0
 36 35  1  0  0  0  0
M  END
>  <minimizedAffinity>
-4.24920893

$$$$
