
 OpenBabel03252508473D

 40 41  0  0  0  0  0  0  0  0999 V2000
   42.9770   32.4830   41.6450 C   0  0  0  0  0  0  0  0  0  0  0  0
   43.5380   32.0230   40.7910 H   0  0  0  0  0  0  0  0  0  0  0  0
   42.0690   32.9370   41.2360 H   0  0  0  0  0  0  0  0  0  0  0  0
   43.6170   34.8980   41.8730 C   0  0  0  0  0  0  0  0  0  0  0  0
   43.8530   33.5590   42.1800 C   0  0  0  0  0  0  0  0  0  0  0  0
   44.9300   33.2720   42.9990 C   0  0  0  0  0  0  0  0  0  0  0  0
   45.7200   34.2720   43.4790 C   0  0  0  0  0  0  0  0  0  0  0  0
   45.5050   35.5900   43.1900 C   0  0  0  0  0  0  0  0  0  0  0  0
   44.4230   35.8460   42.3700 C   0  0  0  0  0  0  0  0  0  0  0  0
   45.1410   32.2530   43.2550 H   0  0  0  0  0  0  0  0  0  0  0  0
   46.5590   34.0070   44.1220 H   0  0  0  0  0  0  0  0  0  0  0  0
   46.1220   36.4000   43.5620 H   0  0  0  0  0  0  0  0  0  0  0  0
   44.2210   36.8890   42.1180 H   0  0  0  0  0  0  0  0  0  0  0  0
   40.1680   35.7230   40.5330 C   0  0  0  0  0  0  0  0  0  0  0  0
   41.2060   35.4950   41.4590 C   0  0  0  0  0  0  0  0  0  0  0  0
   42.4690   35.1560   41.0040 C   0  0  0  0  0  0  0  0  0  0  0  0
   42.6450   35.0580   39.6600 N   0  0  0  0  0  0  0  0  0  0  0  0
   41.6340   35.2810   38.7790 C   0  0  0  0  0  0  0  0  0  0  0  0
   40.4040   35.6120   39.2320 N   0  0  0  0  0  0  0  0  0  0  0  0
   39.2130   35.9840   40.9750 H   0  0  0  0  0  0  0  0  0  0  0  0
   41.0890   35.5670   42.5360 H   0  0  0  0  0  0  0  0  0  0  0  0
   41.8990   35.1730   37.7410 H   0  0  0  0  0  0  0  0  0  0  0  0
   42.6900   31.4410   42.5900 N   0  0  0  0  0  0  0  0  0  0  0  0
   43.2650   30.5850   42.4400 H   0  0  0  0  0  0  0  0  0  0  0  0
   41.0260   31.0480   42.6260 S   0  0  0  0  0  0  0  0  0  0  0  0
   40.1810   32.2990   42.5010 O   0  0  0  0  0  0  0  0  0  0  0  0
   39.3480   32.4960   42.9980 H   0  0  0  0  0  0  0  0  0  0  0  0
   40.6830   30.3210   43.8890 O   0  0  0  0  0  0  0  0  0  0  0  0
   41.3430   29.8400   44.4710 H   0  0  0  0  0  0  0  0  0  0  0  0
   40.6970   30.0580   41.3170 O   0  0  0  0  0  0  0  0  0  0  0  0
   39.4160   30.3540   40.8730 C   0  0  0  0  0  0  0  0  0  0  0  0
   39.4120   30.1780   39.7630 H   0  0  0  0  0  0  0  0  0  0  0  0
   39.0490   31.3450   41.1320 H   0  0  0  0  0  0  0  0  0  0  0  0
   38.4400   29.2860   41.4110 C   0  0  0  0  0  0  0  0  0  0  0  0
   38.7370   28.2850   41.0570 H   0  0  0  0  0  0  0  0  0  0  0  0
   38.3880   29.3490   42.5150 H   0  0  0  0  0  0  0  0  0  0  0  0
   37.1100   29.6810   40.8690 C   0  0  0  0  0  3  0  0  0  0  0  0
   36.4580   29.0460   39.9320 C   0  0  0  0  0  3  0  0  0  0  0  0
   37.0310   27.8340   39.3200 C   0  0  0  0  0  2  0  0  0  0  0  0
   36.1890   27.2420   38.8560 H   0  0  0  0  0  0  0  0  0  0  0  0
  1  5  1  0  0  0  0
  1 23  1  0  0  0  0
  2  1  1  0  0  0  0
  3  1  1  0  0  0  0
  4  5  2  0  0  0  0
  4  9  1  0  0  0  0
  5  6  1  0  0  0  0
  6 10  1  0  0  0  0
  6  7  2  0  0  0  0
  7 11  1  0  0  0  0
  8  7  1  0  0  0  0
  8 12  1  0  0  0  0
  9  8  2  0  0  0  0
 13  9  1  0  0  0  0
 14 20  1  0  0  0  0
 14 15  1  0  0  0  0
 15 21  1  0  0  0  0
 16 15  2  0  0  0  0
 16  4  1  0  0  0  0
 17 16  1  0  0  0  0
 18 19  1  0  0  0  0
 18 17  2  0  0  0  0
 19 14  2  0  0  0  0
 22 18  1  0  0  0  0
 23 25  1  0  0  0  0
 24 23  1  0  0  0  0
 25 28  1  0  0  0  0
 26 25  1  0  0  0  0
 26 27  1  0  0  0  0
 28 29  1  0  0  0  0
 30 25  1  0  0  0  0
 31 33  1  0  0  0  0
 31 30  1  0  0  0  0
 31 34  1  0  0  0  0
 32 31  1  0  0  0  0
 34 36  1  0  0  0  0
 35 34  1  0  0  0  0
 37 34  1  0  0  0  0
 38 37  2  0  0  0  0
 39 38  1  0  0  0  0
 40 39  1  0  0  0  0
M  END
>  <minimizedAffinity>
-5.11055565

>  <minimizedRMSD>
1.69644403

$$$$
