
 OpenBabel03252503433D

 29 30  0  0  1  0  0  0  0  0999 V2000
   44.7040   35.2510   45.3520 C   0  0  0  0  0  0  0  0  0  0  0  0
   45.4430   35.1030   44.1640 C   0  0  0  0  0  0  0  0  0  0  0  0
   46.2720   33.9740   44.0820 C   0  0  0  0  0  0  0  0  0  0  0  0
   46.3140   33.1200   45.1090 N   0  0  0  0  0  0  0  0  0  0  0  0
   45.5930   33.2960   46.2260 C   0  0  0  0  0  0  0  0  0  0  0  0
   44.7820   34.3630   46.3570 N   0  0  0  0  0  0  0  0  0  0  0  0
   44.0410   36.0950   45.4970 H   0  0  0  0  0  0  0  0  0  0  0  0
   46.8150   33.8960   43.1740 H   0  0  0  0  0  0  0  0  0  0  0  0
   47.1880   31.9350   47.5940 C   0  0  2  0  0  0  0  0  0  0  0  0
   45.7150   32.2750   47.2650 C   0  0  1  0  0  0  0  0  0  0  0  0
   45.2580   32.6430   48.5000 O   0  0  0  0  0  0  0  0  0  0  0  0
   45.7340   31.7170   49.3910 C   0  0  0  0  0  0  0  0  0  0  0  0
   46.9020   30.9900   48.7730 C   0  0  2  0  0  0  0  0  0  0  0  0
   47.6840   31.4380   46.7610 H   0  0  0  0  0  0  0  0  0  0  0  0
   45.2510   31.3490   46.8740 H   0  0  0  0  0  0  0  0  0  0  0  0
   46.1140   32.1800   50.3270 H   0  0  0  0  0  0  0  0  0  0  0  0
   44.9190   31.0380   49.6940 H   0  0  0  0  0  0  0  0  0  0  0  0
   46.5450   30.0520   48.3320 H   0  0  0  0  0  0  0  0  0  0  0  0
   47.7740   33.0400   48.1140 O   0  0  0  0  0  0  0  0  0  0  0  0
   47.7110   33.8620   47.5510 H   0  0  0  0  0  0  0  0  0  0  0  0
   47.9880   30.8470   49.6030 O   0  0  0  0  0  0  0  0  0  0  0  0
   47.6720   31.0850   50.5200 H   0  0  0  0  0  0  0  0  0  0  0  0
   45.2510   36.1380   43.1280 C   0  0  0  0  0  0  0  0  0  0  0  0
   44.9770   37.0830   43.6480 H   0  0  0  0  0  0  0  0  0  0  0  0
   46.2310   36.3790   42.6300 H   0  0  0  0  0  0  0  0  0  0  0  0
   44.2220   35.7380   42.1410 C   0  0  0  0  0  3  0  0  0  0  0  0
   44.0670   34.8910   41.1450 C   0  0  0  0  0  3  0  0  0  0  0  0
   44.8960   33.8580   40.4850 C   0  0  0  0  0  2  0  0  0  0  0  0
   45.8540   33.6440   40.9790 H   0  0  0  0  0  0  0  0  0  0  0  0
  1  7  1  0  0  0  0
  1  6  1  0  0  0  0
  2  1  2  0  0  0  0
  3  2  1  0  0  0  0
  3  4  2  0  0  0  0
  4  5  1  0  0  0  0
  5  6  2  0  0  0  0
  5 10  1  0  0  0  0
  8  3  1  0  0  0  0
  9 14  1  6  0  0  0
  9 19  1  0  0  0  0
  9 13  1  0  0  0  0
 10 15  1  6  0  0  0
 10  9  1  0  0  0  0
 10 11  1  0  0  0  0
 11 12  1  0  0  0  0
 12 17  1  0  0  0  0
 12 16  1  0  0  0  0
 13 18  1  6  0  0  0
 13 12  1  0  0  0  0
 13 21  1  0  0  0  0
 20 19  1  0  0  0  0
 21 22  1  0  0  0  0
 23 24  1  0  0  0  0
 23  2  1  0  0  0  0
 25 23  1  0  0  0  0
 26 23  1  0  0  0  0
 27 26  2  0  0  0  0
 28 29  1  0  0  0  0
 28 27  1  0  0  0  0
M  END
>  <minimizedAffinity>
-5.74029684

>  <minimizedRMSD>
0.75573957

$$$$
