
 OpenBabel03252503443D

 29 30  0  0  1  0  0  0  0  0999 V2000
   44.6570   35.3520   45.2270 C   0  0  0  0  0  0  0  0  0  0  0  0
   45.3990   35.2140   44.0400 C   0  0  0  0  0  0  0  0  0  0  0  0
   46.2520   34.1020   43.9640 C   0  0  0  0  0  0  0  0  0  0  0  0
   46.3130   33.2550   44.9960 N   0  0  0  0  0  0  0  0  0  0  0  0
   45.5880   33.4220   46.1120 C   0  0  0  0  0  0  0  0  0  0  0  0
   44.7540   34.4720   46.2370 N   0  0  0  0  0  0  0  0  0  0  0  0
   43.9760   36.1820   45.3670 H   0  0  0  0  0  0  0  0  0  0  0  0
   46.7970   34.0300   43.0570 H   0  0  0  0  0  0  0  0  0  0  0  0
   47.2110   32.1330   47.5170 C   0  0  2  0  0  0  0  0  0  0  0  0
   45.7320   32.4100   47.1570 C   0  0  1  0  0  0  0  0  0  0  0  0
   45.2340   32.7610   48.3820 O   0  0  0  0  0  0  0  0  0  0  0  0
   45.7300   31.8590   49.2850 C   0  0  0  0  0  0  0  0  0  0  0  0
   46.9410   31.1800   48.6940 C   0  0  2  0  0  0  0  0  0  0  0  0
   47.7440   31.6560   46.6970 H   0  0  0  0  0  0  0  0  0  0  0  0
   45.3150   31.4640   46.7600 H   0  0  0  0  0  0  0  0  0  0  0  0
   46.0710   32.3410   50.2280 H   0  0  0  0  0  0  0  0  0  0  0  0
   44.9390   31.1470   49.5740 H   0  0  0  0  0  0  0  0  0  0  0  0
   46.6320   30.2270   48.2490 H   0  0  0  0  0  0  0  0  0  0  0  0
   47.7390   33.2640   48.0450 O   0  0  0  0  0  0  0  0  0  0  0  0
   47.6520   34.0800   47.4790 H   0  0  0  0  0  0  0  0  0  0  0  0
   48.0140   31.0850   49.5460 O   0  0  0  0  0  0  0  0  0  0  0  0
   47.6690   31.3120   50.4560 H   0  0  0  0  0  0  0  0  0  0  0  0
   45.1850   36.2380   42.9980 C   0  0  0  0  0  0  0  0  0  0  0  0
   44.8880   37.1790   43.5120 H   0  0  0  0  0  0  0  0  0  0  0  0
   46.1600   36.4990   42.5010 H   0  0  0  0  0  0  0  0  0  0  0  0
   44.1670   35.8080   42.0110 C   0  0  0  0  0  3  0  0  0  0  0  0
   44.0180   34.9180   41.0530 C   0  0  0  0  0  3  0  0  0  0  0  0
   44.8420   33.8450   40.4560 C   0  0  0  0  0  2  0  0  0  0  0  0
   45.7880   33.6400   40.9770 H   0  0  0  0  0  0  0  0  0  0  0  0
  1  7  1  0  0  0  0
  1  6  1  0  0  0  0
  2  1  2  0  0  0  0
  3  2  1  0  0  0  0
  3  4  2  0  0  0  0
  4  5  1  0  0  0  0
  5  6  2  0  0  0  0
  5 10  1  0  0  0  0
  8  3  1  0  0  0  0
  9 14  1  6  0  0  0
  9 19  1  0  0  0  0
  9 13  1  0  0  0  0
 10 15  1  6  0  0  0
 10  9  1  0  0  0  0
 10 11  1  0  0  0  0
 11 12  1  0  0  0  0
 12 17  1  0  0  0  0
 12 16  1  0  0  0  0
 13 18  1  6  0  0  0
 13 12  1  0  0  0  0
 13 21  1  0  0  0  0
 20 19  1  0  0  0  0
 21 22  1  0  0  0  0
 23 24  1  0  0  0  0
 23  2  1  0  0  0  0
 25 23  1  0  0  0  0
 26 23  1  0  0  0  0
 27 26  2  0  0  0  0
 28 29  1  0  0  0  0
 28 27  1  0  0  0  0
M  END
>  <minimizedAffinity>
-5.74260044

>  <minimizedRMSD>
0.441599697

$$$$
