
 OpenBabel03242519313D

 43 45  0  0  0  0  0  0  0  0999 V2000
   47.9090   33.8470   42.8400 C   0  0  0  0  0  0  0  0  0  0  0  0
   48.5770   35.0900   42.6370 C   0  0  0  0  0  0  0  0  0  0  0  0
   49.9420   35.1040   42.3280 C   0  0  0  0  0  0  0  0  0  0  0  0
   50.5600   33.8820   42.2410 N   0  0  0  0  0  0  0  0  0  0  0  0
   49.8750   32.7090   42.4460 C   0  0  0  0  0  0  0  0  0  0  0  0
   48.5850   32.7120   42.7360 N   0  0  0  0  0  0  0  0  0  0  0  0
   48.1450   36.0810   42.6930 H   0  0  0  0  0  0  0  0  0  0  0  0
   50.4870   36.0020   42.1670 H   0  0  0  0  0  0  0  0  0  0  0  0
   46.4860   33.9760   43.1600 C   0  0  0  0  0  0  0  0  0  0  0  0
   45.7780   34.9890   42.4180 C   0  0  0  0  0  0  0  0  0  0  0  0
   45.3130   36.1380   43.2280 C   0  0  0  0  0  0  0  0  0  0  0  0
   44.4420   35.6660   44.3940 C   0  0  0  0  0  0  0  0  0  0  0  0
   44.9790   34.4710   45.0950 C   0  0  0  0  0  0  0  0  0  0  0  0
   46.4270   34.1980   44.7100 C   0  0  0  0  0  0  0  0  0  0  0  0
   46.0200   32.9550   43.0210 H   0  0  0  0  0  0  0  0  0  0  0  0
   46.4290   35.4100   41.6010 H   0  0  0  0  0  0  0  0  0  0  0  0
   44.8870   34.5840   41.8870 H   0  0  0  0  0  0  0  0  0  0  0  0
   46.0600   36.7990   43.6530 H   0  0  0  0  0  0  0  0  0  0  0  0
   44.6410   36.7890   42.6050 H   0  0  0  0  0  0  0  0  0  0  0  0
   43.4150   35.4950   43.9910 H   0  0  0  0  0  0  0  0  0  0  0  0
   44.3310   36.4810   45.1460 H   0  0  0  0  0  0  0  0  0  0  0  0
   44.4200   33.5350   44.8610 H   0  0  0  0  0  0  0  0  0  0  0  0
   44.9740   34.5870   46.1870 H   0  0  0  0  0  0  0  0  0  0  0  0
   46.7150   33.2280   45.1460 H   0  0  0  0  0  0  0  0  0  0  0  0
   47.0930   35.0370   44.9820 H   0  0  0  0  0  0  0  0  0  0  0  0
   50.7040   31.5170   42.3150 C   0  0  0  0  0  0  0  0  0  0  0  0
   51.2960   31.2550   41.1390 N   0  0  0  0  0  0  0  0  0  0  0  0
   52.0110   30.1050   41.2530 C   0  0  0  0  0  0  0  0  0  0  0  0
   51.8450   29.6670   42.5160 N   0  0  0  0  0  0  0  0  0  0  0  0
   51.0520   30.5180   43.1700 N   0  0  0  0  0  0  0  0  0  0  0  0
   52.6060   29.6240   40.4660 H   0  0  0  0  0  0  0  0  0  0  0  0
   52.4250   28.4920   43.1230 C   0  0  0  0  0  0  0  0  0  0  0  0
   52.4430   27.6220   42.4910 H   0  0  0  0  0  0  0  0  0  0  0  0
   51.7880   28.2080   44.0090 H   0  0  0  0  0  0  0  0  0  0  0  0
   53.7490   28.8130   43.6520 C   0  0  0  0  0  3  0  0  0  0  0  0
   54.2060   29.5940   44.6020 C   0  0  0  0  0  3  0  0  0  0  0  0
   55.6460   29.7670   45.1020 C   0  0  0  0  0  0  0  0  0  0  0  0
   55.8540   30.8360   44.8940 H   0  0  0  0  0  0  0  0  0  0  0  0
   55.6190   29.5350   46.1930 H   0  0  0  0  0  0  0  0  0  0  0  0
   56.4940   28.8760   44.3070 C   0  0  0  0  0  2  0  0  0  0  0  0
   57.3210   28.0370   43.7130 C   0  0  0  0  0  2  0  0  0  0  0  0
   57.5980   27.5530   42.3120 C   0  0  0  0  0  2  0  0  0  0  0  0
   56.9040   28.1470   41.6370 H   0  0  0  0  0  0  0  0  0  0  0  0
  1  9  1  0  0  0  0
  2  7  1  0  0  0  0
  2  1  2  0  0  0  0
  3  2  1  0  0  0  0
  4  3  2  0  0  0  0
  4  5  1  0  0  0  0
  5  6  2  0  0  0  0
  6  1  1  0  0  0  0
  8  3  1  0  0  0  0
  9 14  1  0  0  0  0
 10  9  1  0  0  0  0
 10 11  1  0  0  0  0
 11 18  1  0  0  0  0
 11 12  1  0  0  0  0
 12 13  1  0  0  0  0
 12 21  1  0  0  0  0
 13 23  1  0  0  0  0
 14 25  1  0  0  0  0
 14 13  1  0  0  0  0
 14 24  1  0  0  0  0
 15  9  1  0  0  0  0
 16 10  1  0  0  0  0
 17 10  1  0  0  0  0
 19 11  1  0  0  0  0
 20 12  1  0  0  0  0
 22 13  1  0  0  0  0
 26  5  1  0  0  0  0
 26 30  2  0  0  0  0
 27 28  2  0  0  0  0
 27 26  1  0  0  0  0
 28 29  1  0  0  0  0
 29 32  1  0  0  0  0
 29 30  1  0  0  0  0
 31 28  1  0  0  0  0
 32 35  1  0  0  0  0
 32 34  1  0  0  0  0
 33 32  1  0  0  0  0
 35 36  2  0  0  0  0
 36 37  1  0  0  0  0
 37 39  1  0  0  0  0
 38 37  1  0  0  0  0
 40 37  1  0  0  0  0
 41 40  1  0  0  0  0
 42 41  1  0  0  0  0
 43 42  1  0  0  0  0
M  END
>  <minimizedAffinity>
-3.84358835

>  <minimizedRMSD>
0.125730947

$$$$
