
 OpenBabel03242519483D

 33 34  0  0  1  0  0  0  0  0999 V2000
   39.0220   30.8430   39.2240 C   0  0  2  0  0  0  0  0  0  0  0  0
   39.0170   32.3120   39.3740 C   0  0  1  0  0  0  0  0  0  0  0  0
   38.4000   32.5250   40.6900 O   0  0  0  0  0  0  0  0  0  0  0  0
   37.2170   31.8030   40.4410 C   0  0  0  0  0  0  0  0  0  0  0  0
   37.8450   30.4080   40.0840 C   0  0  2  0  0  0  0  0  0  0  0  0
   38.9380   30.4760   38.1960 H   0  0  0  0  0  0  0  0  0  0  0  0
   38.2950   32.7960   38.6880 H   0  0  0  0  0  0  0  0  0  0  0  0
   36.6910   32.1610   39.5240 H   0  0  0  0  0  0  0  0  0  0  0  0
   36.5820   31.7300   41.3190 H   0  0  0  0  0  0  0  0  0  0  0  0
   37.0460   29.8690   39.5290 H   0  0  0  0  0  0  0  0  0  0  0  0
   42.0280   33.8350   37.9620 C   0  0  0  0  0  0  0  0  0  0  0  0
   42.7930   34.1570   39.0850 C   0  0  0  0  0  0  0  0  0  0  0  0
   42.2700   33.8420   40.3660 C   0  0  0  0  0  0  0  0  0  0  0  0
   41.0450   33.2400   40.4570 N   0  0  0  0  0  0  0  0  0  0  0  0
   40.3360   32.9450   39.3400 C   0  0  0  0  0  0  0  0  0  0  0  0
   40.8110   33.2340   38.1000 N   0  0  0  0  0  0  0  0  0  0  0  0
   43.7520   34.6300   38.9740 H   0  0  0  0  0  0  0  0  0  0  0  0
   42.8340   34.0780   41.2500 H   0  0  0  0  0  0  0  0  0  0  0  0
   42.4820   34.1150   36.6710 O   0  0  0  0  0  0  0  0  0  0  0  0
   41.8520   34.2890   35.9280 H   0  0  0  0  0  0  0  0  0  0  0  0
   40.2200   30.3070   39.8170 O   0  0  0  0  0  0  0  0  0  0  0  0
   40.0430   30.4140   40.7900 H   0  0  0  0  0  0  0  0  0  0  0  0
   38.2500   29.8710   41.2500 O   0  0  0  0  0  0  0  0  0  0  0  0
   37.3280   29.4770   42.1760 C   0  0  0  0  0  0  0  0  0  0  0  0
   36.6510   30.2770   42.4490 H   0  0  0  0  0  0  0  0  0  0  0  0
   36.5680   28.7800   41.5740 H   0  0  0  0  0  0  0  0  0  0  0  0
   37.8200   28.6070   43.2560 C   0  0  0  0  0  0  0  0  0  0  0  0
   38.9100   28.5980   43.3720 H   0  0  0  0  0  0  0  0  0  0  0  0
   37.3660   28.8760   44.2420 H   0  0  0  0  0  0  0  0  0  0  0  0
   37.2620   27.2300   42.9730 C   0  0  0  0  0  3  0  0  0  0  0  0
   37.6600   26.2190   42.2470 C   0  0  0  0  0  3  0  0  0  0  0  0
   36.9240   24.9100   42.1100 C   0  0  0  0  0  2  0  0  0  0  0  0
   37.4740   24.1720   42.7050 H   0  0  0  0  0  0  0  0  0  0  0  0
  1  6  1  6  0  0  0
  1  2  1  0  0  0  0
  1 21  1  0  0  0  0
  1  5  1  0  0  0  0
  2  7  1  6  0  0  0
  2  3  1  0  0  0  0
  4  3  1  0  0  0  0
  4  9  1  0  0  0  0
  5 10  1  6  0  0  0
  5  4  1  0  0  0  0
  5 23  1  0  0  0  0
  8  4  1  0  0  0  0
 11 16  2  0  0  0  0
 11 12  1  0  0  0  0
 12 13  2  0  0  0  0
 13 14  1  0  0  0  0
 13 18  1  0  0  0  0
 15  2  1  0  0  0  0
 15 14  2  0  0  0  0
 16 15  1  0  0  0  0
 17 12  1  0  0  0  0
 19 11  1  0  0  0  0
 20 19  1  0  0  0  0
 21 22  1  0  0  0  0
 23 24  1  0  0  0  0
 24 25  1  0  0  0  0
 24 27  1  0  0  0  0
 26 24  1  0  0  0  0
 27 28  1  0  0  0  0
 27 29  1  0  0  0  0
 30 27  1  0  0  0  0
 31 30  2  0  0  0  0
 32 31  1  0  0  0  0
 32 33  1  0  0  0  0
M  END
>  <minimizedAffinity>
-5.06275415

$$$$

 OpenBabel03242519483D

 33 34  0  0  1  0  0  0  0  0999 V2000
   36.4370   28.5380   41.8170 C   0  0  2  0  0  0  0  0  0  0  0  0
   37.5550   29.4100   42.2290 C   0  0  1  0  0  0  0  0  0  0  0  0
   38.6240   28.4640   42.5770 O   0  0  0  0  0  0  0  0  0  0  0  0
   37.8860   27.7140   43.5130 C   0  0  0  0  0  0  0  0  0  0  0  0
   36.7010   27.2560   42.5910 C   0  0  2  0  0  0  0  0  0  0  0  0
   35.4360   28.9370   42.0100 H   0  0  0  0  0  0  0  0  0  0  0  0
   37.3550   29.9120   43.1950 H   0  0  0  0  0  0  0  0  0  0  0  0
   37.4410   28.3570   44.3100 H   0  0  0  0  0  0  0  0  0  0  0  0
   38.4410   26.8580   43.8890 H   0  0  0  0  0  0  0  0  0  0  0  0
   35.8880   26.9680   43.2920 H   0  0  0  0  0  0  0  0  0  0  0  0
   37.6150   32.3540   40.0600 C   0  0  0  0  0  0  0  0  0  0  0  0
   38.7880   32.1970   39.3200 C   0  0  0  0  0  0  0  0  0  0  0  0
   39.5850   31.0470   39.5630 C   0  0  0  0  0  0  0  0  0  0  0  0
   39.1810   30.1430   40.5050 N   0  0  0  0  0  0  0  0  0  0  0  0
   38.0340   30.3360   41.2010 C   0  0  0  0  0  0  0  0  0  0  0  0
   37.2500   31.4260   40.9900 N   0  0  0  0  0  0  0  0  0  0  0  0
   39.0730   32.9300   38.5870 H   0  0  0  0  0  0  0  0  0  0  0  0
   40.4940   30.8970   39.0100 H   0  0  0  0  0  0  0  0  0  0  0  0
   36.7820   33.4610   39.8720 O   0  0  0  0  0  0  0  0  0  0  0  0
   36.2170   33.8140   40.6040 H   0  0  0  0  0  0  0  0  0  0  0  0
   36.5590   28.2370   40.4140 O   0  0  0  0  0  0  0  0  0  0  0  0
   37.3290   27.6070   40.3970 H   0  0  0  0  0  0  0  0  0  0  0  0
   37.1980   26.2870   41.7970 O   0  0  0  0  0  0  0  0  0  0  0  0
   36.9730   24.9760   42.1010 C   0  0  0  0  0  0  0  0  0  0  0  0
   36.6290   24.8420   43.1200 H   0  0  0  0  0  0  0  0  0  0  0  0
   35.9670   24.6950   41.5210 H   0  0  0  0  0  0  0  0  0  0  0  0
   37.9560   24.0100   41.5860 C   0  0  0  0  0  0  0  0  0  0  0  0
   37.8250   22.9860   41.9570 H   0  0  0  0  0  0  0  0  0  0  0  0
   37.9590   23.9790   40.4690 H   0  0  0  0  0  0  0  0  0  0  0  0
   39.3170   24.5730   41.9280 C   0  0  0  0  0  3  0  0  0  0  0  0
   40.0350   24.6170   43.0190 C   0  0  0  0  0  3  0  0  0  0  0  0
   41.4010   25.2470   43.1300 C   0  0  0  0  0  2  0  0  0  0  0  0
   42.1270   24.4270   43.1730 H   0  0  0  0  0  0  0  0  0  0  0  0
  1  6  1  1  0  0  0
  1  2  1  0  0  0  0
  1  5  1  0  0  0  0
  2  3  1  0  0  0  0
  2  7  1  1  0  0  0
  3  4  1  0  0  0  0
  4  9  1  0  0  0  0
  4  8  1  0  0  0  0
  5 10  1  1  0  0  0
  5  4  1  0  0  0  0
 11 16  1  0  0  0  0
 12 13  1  0  0  0  0
 12 11  2  0  0  0  0
 13 14  2  0  0  0  0
 14 15  1  0  0  0  0
 15  2  1  0  0  0  0
 16 15  2  0  0  0  0
 17 12  1  0  0  0  0
 18 13  1  0  0  0  0
 19 11  1  0  0  0  0
 19 20  1  0  0  0  0
 21  1  1  0  0  0  0
 22 21  1  0  0  0  0
 23 24  1  0  0  0  0
 23  5  1  0  0  0  0
 24 25  1  0  0  0  0
 26 24  1  0  0  0  0
 27 30  1  0  0  0  0
 27 28  1  0  0  0  0
 27 24  1  0  0  0  0
 29 27  1  0  0  0  0
 30 31  2  0  0  0  0
 31 32  1  0  0  0  0
 32 33  1  0  0  0  0
M  END
>  <minimizedAffinity>
-4.85392475

$$$$

 OpenBabel03242519483D

 33 34  0  0  1  0  0  0  0  0999 V2000
   36.8880   28.8920   41.0660 C   0  0  2  0  0  0  0  0  0  0  0  0
   37.3370   30.0160   41.9140 C   0  0  1  0  0  0  0  0  0  0  0  0
   38.2620   29.3850   42.8650 O   0  0  0  0  0  0  0  0  0  0  0  0
   37.3700   28.4070   43.3440 C   0  0  0  0  0  0  0  0  0  0  0  0
   37.0280   27.6910   41.9890 C   0  0  2  0  0  0  0  0  0  0  0  0
   35.8750   28.9860   40.6630 H   0  0  0  0  0  0  0  0  0  0  0  0
   36.5290   30.3860   42.5730 H   0  0  0  0  0  0  0  0  0  0  0  0
   36.4180   28.8540   43.7190 H   0  0  0  0  0  0  0  0  0  0  0  0
   37.8430   27.7190   44.0400 H   0  0  0  0  0  0  0  0  0  0  0  0
   36.0780   27.1490   42.1830 H   0  0  0  0  0  0  0  0  0  0  0  0
   37.7530   33.0330   39.8890 C   0  0  0  0  0  0  0  0  0  0  0  0
   39.1380   33.2060   39.8320 C   0  0  0  0  0  0  0  0  0  0  0  0
   39.9590   32.2610   40.5020 C   0  0  0  0  0  0  0  0  0  0  0  0
   39.3720   31.2250   41.1740 N   0  0  0  0  0  0  0  0  0  0  0  0
   38.0230   31.0950   41.2030 C   0  0  0  0  0  0  0  0  0  0  0  0
   37.2110   31.9840   40.5710 N   0  0  0  0  0  0  0  0  0  0  0  0
   39.5620   34.0330   39.2940 H   0  0  0  0  0  0  0  0  0  0  0  0
   41.0280   32.3660   40.4780 H   0  0  0  0  0  0  0  0  0  0  0  0
   36.8860   33.9240   39.2520 O   0  0  0  0  0  0  0  0  0  0  0  0
   35.9690   34.0840   39.5900 H   0  0  0  0  0  0  0  0  0  0  0  0
   37.8120   28.7190   39.9760 O   0  0  0  0  0  0  0  0  0  0  0  0
   38.6080   28.3300   40.4300 H   0  0  0  0  0  0  0  0  0  0  0  0
   38.1070   26.9470   41.6770 O   0  0  0  0  0  0  0  0  0  0  0  0
   38.2070   25.6670   42.1410 C   0  0  0  0  0  0  0  0  0  0  0  0
   39.1070   25.1730   41.7940 H   0  0  0  0  0  0  0  0  0  0  0  0
   38.4850   25.7810   43.2980 H   0  0  0  0  0  0  0  0  0  0  0  0
   36.9650   24.8790   42.1560 C   0  0  0  0  0  0  0  0  0  0  0  0
   36.7130   24.4460   43.1300 H   0  0  0  0  0  0  0  0  0  0  0  0
   36.0900   25.4800   41.8030 H   0  0  0  0  0  0  0  0  0  0  0  0
   37.1240   23.8250   41.0830 C   0  0  0  0  0  3  0  0  0  0  0  0
   38.0980   23.0300   40.7280 C   0  0  0  0  0  3  0  0  0  0  0  0
   38.0320   22.0320   39.5980 C   0  0  0  0  0  2  0  0  0  0  0  0
   37.9360   21.0400   40.0550 H   0  0  0  0  0  0  0  0  0  0  0  0
  1  6  1  6  0  0  0
  1  2  1  0  0  0  0
  1  5  1  0  0  0  0
  2  7  1  1  0  0  0
  2  3  1  0  0  0  0
  3  4  1  0  0  0  0
  4  8  1  0  0  0  0
  4  9  1  0  0  0  0
  5 10  1  1  0  0  0
  5  4  1  0  0  0  0
 11 16  1  0  0  0  0
 12 11  2  0  0  0  0
 12 13  1  0  0  0  0
 13 14  2  0  0  0  0
 14 15  1  0  0  0  0
 15  2  1  0  0  0  0
 16 15  2  0  0  0  0
 17 12  1  0  0  0  0
 18 13  1  0  0  0  0
 19 20  1  0  0  0  0
 19 11  1  0  0  0  0
 21 22  1  0  0  0  0
 21  1  1  0  0  0  0
 23  5  1  0  0  0  0
 23 24  1  0  0  0  0
 24 27  1  0  0  0  0
 24 26  1  0  0  0  0
 25 24  1  0  0  0  0
 27 28  1  0  0  0  0
 29 27  1  0  0  0  0
 30 27  1  0  0  0  0
 31 30  2  0  0  0  0
 32 33  1  0  0  0  0
 32 31  1  0  0  0  0
M  END
>  <minimizedAffinity>
-4.82890368

$$$$

 OpenBabel03242519483D

 33 34  0  0  1  0  0  0  0  0999 V2000
   37.3180   29.5740   42.1760 C   0  0  2  0  0  0  0  0  0  0  0  0
   36.8610   28.1710   42.2310 C   0  0  1  0  0  0  0  0  0  0  0  0
   36.4200   27.8950   40.8570 O   0  0  0  0  0  0  0  0  0  0  0  0
   35.5110   28.9650   40.7530 C   0  0  0  0  0  0  0  0  0  0  0  0
   36.4930   30.1580   41.0390 C   0  0  2  0  0  0  0  0  0  0  0  0
   37.1990   30.1420   43.1040 H   0  0  0  0  0  0  0  0  0  0  0  0
   35.9250   28.0630   42.8110 H   0  0  0  0  0  0  0  0  0  0  0  0
   34.7630   28.9630   41.5810 H   0  0  0  0  0  0  0  0  0  0  0  0
   35.0780   29.0480   39.7600 H   0  0  0  0  0  0  0  0  0  0  0  0
   35.8360   31.0040   41.3370 H   0  0  0  0  0  0  0  0  0  0  0  0
   38.5680   24.9480   42.5060 C   0  0  0  0  0  0  0  0  0  0  0  0
   39.7120   25.2410   43.2510 C   0  0  0  0  0  0  0  0  0  0  0  0
   39.9070   26.5800   43.6800 C   0  0  0  0  0  0  0  0  0  0  0  0
   38.9790   27.5280   43.3500 N   0  0  0  0  0  0  0  0  0  0  0  0
   37.8830   27.2000   42.6240 C   0  0  0  0  0  0  0  0  0  0  0  0
   37.6680   25.9260   42.2000 N   0  0  0  0  0  0  0  0  0  0  0  0
   40.4190   24.4680   43.4910 H   0  0  0  0  0  0  0  0  0  0  0  0
   40.7780   26.8380   44.2550 H   0  0  0  0  0  0  0  0  0  0  0  0
   38.3110   23.6510   42.0530 O   0  0  0  0  0  0  0  0  0  0  0  0
   37.7890   23.4860   41.2280 H   0  0  0  0  0  0  0  0  0  0  0  0
   38.7010   29.6110   41.7780 O   0  0  0  0  0  0  0  0  0  0  0  0
   38.6520   29.3720   40.8130 H   0  0  0  0  0  0  0  0  0  0  0  0
   37.2260   30.3150   39.9200 O   0  0  0  0  0  0  0  0  0  0  0  0
   37.0610   31.4280   39.1480 C   0  0  0  0  0  0  0  0  0  0  0  0
   37.4780   31.3060   38.1560 H   0  0  0  0  0  0  0  0  0  0  0  0
   35.9000   31.4380   38.8690 H   0  0  0  0  0  0  0  0  0  0  0  0
   37.2710   32.7220   39.8170 C   0  0  0  0  0  0  0  0  0  0  0  0
   36.8830   33.5870   39.2660 H   0  0  0  0  0  0  0  0  0  0  0  0
   36.8260   32.7340   40.8430 H   0  0  0  0  0  0  0  0  0  0  0  0
   38.7570   32.8250   40.0750 C   0  0  0  0  0  3  0  0  0  0  0  0
   39.6230   33.8020   40.0220 C   0  0  0  0  0  3  0  0  0  0  0  0
   41.0950   33.6710   40.3290 C   0  0  0  0  0  2  0  0  0  0  0  0
   41.2560   34.1250   41.3130 H   0  0  0  0  0  0  0  0  0  0  0  0
  1  2  1  0  0  0  0
  1  6  1  1  0  0  0
  2 15  1  0  0  0  0
  2  7  1  1  0  0  0
  3  2  1  0  0  0  0
  4  3  1  0  0  0  0
  4  5  1  0  0  0  0
  4  8  1  0  0  0  0
  5 10  1  1  0  0  0
  5  1  1  0  0  0  0
  9  4  1  0  0  0  0
 11 12  1  0  0  0  0
 12 17  1  0  0  0  0
 12 13  2  0  0  0  0
 13 18  1  0  0  0  0
 14 13  1  0  0  0  0
 15 14  2  0  0  0  0
 16 11  2  0  0  0  0
 16 15  1  0  0  0  0
 19 11  1  0  0  0  0
 20 19  1  0  0  0  0
 21  1  1  0  0  0  0
 22 21  1  0  0  0  0
 23  5  1  0  0  0  0
 24 27  1  0  0  0  0
 24 23  1  0  0  0  0
 25 24  1  0  0  0  0
 26 24  1  0  0  0  0
 27 30  1  0  0  0  0
 27 29  1  0  0  0  0
 28 27  1  0  0  0  0
 31 30  2  0  0  0  0
 31 32  1  0  0  0  0
 32 33  1  0  0  0  0
M  END
>  <minimizedAffinity>
-4.79279757

$$$$

 OpenBabel03242519483D

 33 34  0  0  1  0  0  0  0  0999 V2000
   40.4800   29.8850   42.3480 C   0  0  2  0  0  0  0  0  0  0  0  0
   40.2680   30.1840   40.9170 C   0  0  1  0  0  0  0  0  0  0  0  0
   39.1340   29.3260   40.5480 O   0  0  0  0  0  0  0  0  0  0  0  0
   39.6970   28.1090   40.9730 C   0  0  0  0  0  0  0  0  0  0  0  0
   39.9550   28.4640   42.4810 C   0  0  2  0  0  0  0  0  0  0  0  0
   41.5130   29.9770   42.6970 H   0  0  0  0  0  0  0  0  0  0  0  0
   41.0850   29.7880   40.2860 H   0  0  0  0  0  0  0  0  0  0  0  0
   40.6980   27.9250   40.5130 H   0  0  0  0  0  0  0  0  0  0  0  0
   39.0050   27.2760   40.8820 H   0  0  0  0  0  0  0  0  0  0  0  0
   40.7130   27.7250   42.8230 H   0  0  0  0  0  0  0  0  0  0  0  0
   38.2230   33.1280   40.1910 C   0  0  0  0  0  0  0  0  0  0  0  0
   39.1580   34.1580   40.0620 C   0  0  0  0  0  0  0  0  0  0  0  0
   40.5320   33.8390   40.2230 C   0  0  0  0  0  0  0  0  0  0  0  0
   40.8900   32.5480   40.4970 N   0  0  0  0  0  0  0  0  0  0  0  0
   39.9480   31.5800   40.6140 C   0  0  0  0  0  0  0  0  0  0  0  0
   38.6250   31.8540   40.4650 N   0  0  0  0  0  0  0  0  0  0  0  0
   38.8380   35.1600   39.8460 H   0  0  0  0  0  0  0  0  0  0  0  0
   41.2760   34.6090   40.1300 H   0  0  0  0  0  0  0  0  0  0  0  0
   36.8550   33.3700   40.0450 O   0  0  0  0  0  0  0  0  0  0  0  0
   36.1790   32.8180   40.5120 H   0  0  0  0  0  0  0  0  0  0  0  0
   39.6380   30.7400   43.1440 O   0  0  0  0  0  0  0  0  0  0  0  0
   38.7330   30.3580   42.9850 H   0  0  0  0  0  0  0  0  0  0  0  0
   38.7510   28.4310   43.0840 O   0  0  0  0  0  0  0  0  0  0  0  0
   38.2410   27.2440   43.5220 C   0  0  0  0  0  0  0  0  0  0  0  0
   38.9800   26.4520   43.5180 H   0  0  0  0  0  0  0  0  0  0  0  0
   38.1140   27.3810   44.7020 H   0  0  0  0  0  0  0  0  0  0  0  0
   36.8850   26.9070   43.0610 C   0  0  0  0  0  0  0  0  0  0  0  0
   36.1720   26.6910   43.8650 H   0  0  0  0  0  0  0  0  0  0  0  0
   36.4540   27.7150   42.4200 H   0  0  0  0  0  0  0  0  0  0  0  0
   37.0420   25.7440   42.1070 C   0  0  0  0  0  3  0  0  0  0  0  0
   37.6120   24.5710   42.1900 C   0  0  0  0  0  3  0  0  0  0  0  0
   37.6460   23.5460   41.0830 C   0  0  0  0  0  2  0  0  0  0  0  0
   36.9290   22.7630   41.3530 H   0  0  0  0  0  0  0  0  0  0  0  0
  1  5  1  0  0  0  0
  1  6  1  1  0  0  0
  1 21  1  0  0  0  0
  2  7  1  6  0  0  0
  2  1  1  0  0  0  0
  3  2  1  0  0  0  0
  3  4  1  0  0  0  0
  4  5  1  0  0  0  0
  5 10  1  1  0  0  0
  5 23  1  0  0  0  0
  8  4  1  0  0  0  0
  9  4  1  0  0  0  0
 11 16  1  0  0  0  0
 12 11  2  0  0  0  0
 12 13  1  0  0  0  0
 13 14  2  0  0  0  0
 14 15  1  0  0  0  0
 15  2  1  0  0  0  0
 16 15  2  0  0  0  0
 17 12  1  0  0  0  0
 18 13  1  0  0  0  0
 19 11  1  0  0  0  0
 19 20  1  0  0  0  0
 22 21  1  0  0  0  0
 23 24  1  0  0  0  0
 24 26  1  0  0  0  0
 25 24  1  0  0  0  0
 27 24  1  0  0  0  0
 27 28  1  0  0  0  0
 29 27  1  0  0  0  0
 30 31  2  0  0  0  0
 30 27  1  0  0  0  0
 32 33  1  0  0  0  0
 32 31  1  0  0  0  0
M  END
>  <minimizedAffinity>
-4.73586512

$$$$

 OpenBabel03242519483D

 33 34  0  0  1  0  0  0  0  0999 V2000
   37.3970   29.2730   42.5730 C   0  0  2  0  0  0  0  0  0  0  0  0
   38.5130   29.6720   41.6920 C   0  0  1  0  0  0  0  0  0  0  0  0
   39.1300   28.3930   41.3140 O   0  0  0  0  0  0  0  0  0  0  0  0
   39.3520   27.9200   42.6210 C   0  0  0  0  0  0  0  0  0  0  0  0
   37.8750   27.9530   43.1550 C   0  0  2  0  0  0  0  0  0  0  0  0
   37.1350   29.9960   43.3520 H   0  0  0  0  0  0  0  0  0  0  0  0
   39.3240   30.1740   42.2520 H   0  0  0  0  0  0  0  0  0  0  0  0
   39.9310   28.6480   43.2390 H   0  0  0  0  0  0  0  0  0  0  0  0
   39.7490   26.9090   42.6350 H   0  0  0  0  0  0  0  0  0  0  0  0
   37.9710   27.9470   44.2630 H   0  0  0  0  0  0  0  0  0  0  0  0
   37.3200   32.4490   39.6320 C   0  0  0  0  0  0  0  0  0  0  0  0
   37.3690   31.9420   38.3320 C   0  0  0  0  0  0  0  0  0  0  0  0
   37.8190   30.6080   38.1490 C   0  0  0  0  0  0  0  0  0  0  0  0
   38.1860   29.8730   39.2410 N   0  0  0  0  0  0  0  0  0  0  0  0
   38.1230   30.4050   40.4870 C   0  0  0  0  0  0  0  0  0  0  0  0
   37.6960   31.6780   40.6930 N   0  0  0  0  0  0  0  0  0  0  0  0
   37.0710   32.5510   37.4980 H   0  0  0  0  0  0  0  0  0  0  0  0
   37.8680   30.1890   37.1610 H   0  0  0  0  0  0  0  0  0  0  0  0
   36.8860   33.7520   39.8860 O   0  0  0  0  0  0  0  0  0  0  0  0
   37.2120   34.2630   40.6690 H   0  0  0  0  0  0  0  0  0  0  0  0
   36.2300   29.0040   41.7730 O   0  0  0  0  0  0  0  0  0  0  0  0
   36.4660   28.1410   41.3360 H   0  0  0  0  0  0  0  0  0  0  0  0
   37.2500   26.9020   42.5880 O   0  0  0  0  0  0  0  0  0  0  0  0
   37.8880   25.6990   42.4960 C   0  0  0  0  0  0  0  0  0  0  0  0
   38.9080   25.7450   42.8580 H   0  0  0  0  0  0  0  0  0  0  0  0
   37.4080   25.0300   43.3600 H   0  0  0  0  0  0  0  0  0  0  0  0
   37.6390   24.9220   41.2710 C   0  0  0  0  0  0  0  0  0  0  0  0
   38.5450   24.5870   40.7530 H   0  0  0  0  0  0  0  0  0  0  0  0
   37.0000   24.0270   41.4730 H   0  0  0  0  0  0  0  0  0  0  0  0
   36.7640   25.7900   40.3940 C   0  0  0  0  0  3  0  0  0  0  0  0
   36.9260   26.3600   39.2290 C   0  0  0  0  0  3  0  0  0  0  0  0
   35.8900   27.2020   38.5270 C   0  0  0  0  0  2  0  0  0  0  0  0
   35.4810   26.5910   37.7150 H   0  0  0  0  0  0  0  0  0  0  0  0
  1  5  1  0  0  0  0
  1  6  1  1  0  0  0
  2  7  1  1  0  0  0
  2  1  1  0  0  0  0
  3  2  1  0  0  0  0
  3  4  1  0  0  0  0
  4  9  1  0  0  0  0
  4  5  1  0  0  0  0
  4  8  1  0  0  0  0
  5 10  1  1  0  0  0
 11 19  1  0  0  0  0
 11 16  1  0  0  0  0
 12 11  2  0  0  0  0
 13 12  1  0  0  0  0
 13 14  2  0  0  0  0
 14 15  1  0  0  0  0
 15 16  2  0  0  0  0
 15  2  1  0  0  0  0
 17 12  1  0  0  0  0
 18 13  1  0  0  0  0
 19 20  1  0  0  0  0
 21  1  1  0  0  0  0
 22 21  1  0  0  0  0
 23  5  1  0  0  0  0
 24 23  1  0  0  0  0
 24 25  1  0  0  0  0
 24 26  1  0  0  0  0
 27 29  1  0  0  0  0
 27 24  1  0  0  0  0
 28 27  1  0  0  0  0
 30 27  1  0  0  0  0
 31 30  2  0  0  0  0
 32 31  1  0  0  0  0
 33 32  1  0  0  0  0
M  END
>  <minimizedAffinity>
-4.73118687

$$$$

 OpenBabel03242519483D

 33 34  0  0  1  0  0  0  0  0999 V2000
   37.1540   27.1620   41.4030 C   0  0  2  0  0  0  0  0  0  0  0  0
   36.5120   28.4640   41.6730 C   0  0  1  0  0  0  0  0  0  0  0  0
   37.2030   28.9490   42.8760 O   0  0  0  0  0  0  0  0  0  0  0  0
   36.9530   27.8210   43.6800 C   0  0  0  0  0  0  0  0  0  0  0  0
   37.6210   26.7190   42.7810 C   0  0  2  0  0  0  0  0  0  0  0  0
   36.5130   26.4140   40.9250 H   0  0  0  0  0  0  0  0  0  0  0  0
   35.4690   28.3470   42.0250 H   0  0  0  0  0  0  0  0  0  0  0  0
   35.8660   27.5740   43.7330 H   0  0  0  0  0  0  0  0  0  0  0  0
   37.4440   27.8840   44.6470 H   0  0  0  0  0  0  0  0  0  0  0  0
   37.1780   25.7600   43.1290 H   0  0  0  0  0  0  0  0  0  0  0  0
   36.9570   31.7320   40.0900 C   0  0  0  0  0  0  0  0  0  0  0  0
   36.9130   31.4470   38.7240 C   0  0  0  0  0  0  0  0  0  0  0  0
   36.7210   30.0970   38.3270 C   0  0  0  0  0  0  0  0  0  0  0  0
   36.5880   29.1320   39.2850 N   0  0  0  0  0  0  0  0  0  0  0  0
   36.6370   29.4530   40.6010 C   0  0  0  0  0  0  0  0  0  0  0  0
   36.8190   30.7360   41.0130 N   0  0  0  0  0  0  0  0  0  0  0  0
   37.0220   32.2330   38.0000 H   0  0  0  0  0  0  0  0  0  0  0  0
   36.6830   29.8450   37.2830 H   0  0  0  0  0  0  0  0  0  0  0  0
   37.1420   33.0370   40.5530 O   0  0  0  0  0  0  0  0  0  0  0  0
   37.5770   33.2210   41.4230 H   0  0  0  0  0  0  0  0  0  0  0  0
   38.3240   27.3670   40.5880 O   0  0  0  0  0  0  0  0  0  0  0  0
   38.9610   27.7820   41.2300 H   0  0  0  0  0  0  0  0  0  0  0  0
   38.9510   26.8710   42.9300 O   0  0  0  0  0  0  0  0  0  0  0  0
   39.6680   25.9430   43.6280 C   0  0  0  0  0  0  0  0  0  0  0  0
   39.1740   25.6470   44.5460 H   0  0  0  0  0  0  0  0  0  0  0  0
   39.5450   24.9300   43.0080 H   0  0  0  0  0  0  0  0  0  0  0  0
   41.1240   26.1480   43.6790 C   0  0  0  0  0  0  0  0  0  0  0  0
   41.5720   25.9830   44.6650 H   0  0  0  0  0  0  0  0  0  0  0  0
   41.6580   25.5020   42.9390 H   0  0  0  0  0  0  0  0  0  0  0  0
   41.3690   27.5500   43.1660 C   0  0  0  0  0  3  0  0  0  0  0  0
   42.2090   28.4990   43.4810 C   0  0  0  0  0  3  0  0  0  0  0  0
   42.2740   29.8520   42.8170 C   0  0  0  0  0  2  0  0  0  0  0  0
   43.1570   29.8470   42.1680 H   0  0  0  0  0  0  0  0  0  0  0  0
  1  6  1  6  0  0  0
  1  2  1  0  0  0  0
  1  5  1  0  0  0  0
  2  7  1  1  0  0  0
  2  3  1  0  0  0  0
  3  4  1  0  0  0  0
  4  8  1  0  0  0  0
  4  9  1  0  0  0  0
  5 23  1  0  0  0  0
  5 10  1  1  0  0  0
  5  4  1  0  0  0  0
 11 19  1  0  0  0  0
 11 16  1  0  0  0  0
 12 11  2  0  0  0  0
 13 12  1  0  0  0  0
 13 14  2  0  0  0  0
 14 15  1  0  0  0  0
 15 16  2  0  0  0  0
 15  2  1  0  0  0  0
 17 12  1  0  0  0  0
 18 13  1  0  0  0  0
 19 20  1  0  0  0  0
 21 22  1  0  0  0  0
 21  1  1  0  0  0  0
 23 24  1  0  0  0  0
 24 27  1  0  0  0  0
 24 25  1  0  0  0  0
 26 24  1  0  0  0  0
 27 28  1  0  0  0  0
 29 27  1  0  0  0  0
 30 31  2  0  0  0  0
 30 27  1  0  0  0  0
 32 31  1  0  0  0  0
 33 32  1  0  0  0  0
M  END
>  <minimizedAffinity>
-4.72195721

$$$$

 OpenBabel03242519483D

 33 34  0  0  1  0  0  0  0  0999 V2000
   38.2090   27.1020   38.4180 C   0  0  2  0  0  0  0  0  0  0  0  0
   36.9230   27.8170   38.2880 C   0  0  1  0  0  0  0  0  0  0  0  0
   36.0260   27.0850   39.1930 O   0  0  0  0  0  0  0  0  0  0  0  0
   36.2230   25.8090   38.6300 C   0  0  0  0  0  0  0  0  0  0  0  0
   37.7800   25.6950   38.8050 C   0  0  2  0  0  0  0  0  0  0  0  0
   38.8400   27.1080   37.5240 H   0  0  0  0  0  0  0  0  0  0  0  0
   36.4550   27.6510   37.2990 H   0  0  0  0  0  0  0  0  0  0  0  0
   36.0230   25.7990   37.5320 H   0  0  0  0  0  0  0  0  0  0  0  0
   35.7110   25.0280   39.1840 H   0  0  0  0  0  0  0  0  0  0  0  0
   38.0910   24.9060   38.0860 H   0  0  0  0  0  0  0  0  0  0  0  0
   36.3000   30.8260   40.2710 C   0  0  0  0  0  0  0  0  0  0  0  0
   36.9330   31.8380   39.5460 C   0  0  0  0  0  0  0  0  0  0  0  0
   37.5910   31.4850   38.3380 C   0  0  0  0  0  0  0  0  0  0  0  0
   37.5840   30.1800   37.9310 N   0  0  0  0  0  0  0  0  0  0  0  0
   36.9560   29.2300   38.6660 C   0  0  0  0  0  0  0  0  0  0  0  0
   36.3170   29.5370   39.8260 N   0  0  0  0  0  0  0  0  0  0  0  0
   36.9180   32.8530   39.8990 H   0  0  0  0  0  0  0  0  0  0  0  0
   38.0880   32.2410   37.7570 H   0  0  0  0  0  0  0  0  0  0  0  0
   35.6320   31.1020   41.4670 O   0  0  0  0  0  0  0  0  0  0  0  0
   35.5460   30.4200   42.1800 H   0  0  0  0  0  0  0  0  0  0  0  0
   38.9520   27.6540   39.5210 O   0  0  0  0  0  0  0  0  0  0  0  0
   38.4480   27.3150   40.3090 H   0  0  0  0  0  0  0  0  0  0  0  0
   37.9920   25.4510   40.1130 O   0  0  0  0  0  0  0  0  0  0  0  0
   37.2960   24.4610   40.7420 C   0  0  0  0  0  0  0  0  0  0  0  0
   36.5690   23.9900   40.0910 H   0  0  0  0  0  0  0  0  0  0  0  0
   38.0720   23.5590   40.8470 H   0  0  0  0  0  0  0  0  0  0  0  0
   36.8850   24.7330   42.1290 C   0  0  0  0  0  0  0  0  0  0  0  0
   35.8170   24.5860   42.3240 H   0  0  0  0  0  0  0  0  0  0  0  0
   37.4630   24.1140   42.8600 H   0  0  0  0  0  0  0  0  0  0  0  0
   37.3340   26.1460   42.4300 C   0  0  0  0  0  3  0  0  0  0  0  0
   36.7680   27.1780   42.9970 C   0  0  0  0  0  3  0  0  0  0  0  0
   37.4220   28.5220   43.1960 C   0  0  0  0  0  2  0  0  0  0  0  0
   37.6810   28.5970   44.2580 H   0  0  0  0  0  0  0  0  0  0  0  0
  1  6  1  6  0  0  0
  1  5  1  0  0  0  0
  1 21  1  0  0  0  0
  2  7  1  6  0  0  0
  2  1  1  0  0  0  0
  2 15  1  0  0  0  0
  2  3  1  0  0  0  0
  4  5  1  0  0  0  0
  4  9  1  0  0  0  0
  4  3  1  0  0  0  0
  5 10  1  6  0  0  0
  5 23  1  0  0  0  0
  8  4  1  0  0  0  0
 11 19  1  0  0  0  0
 12 17  1  0  0  0  0
 12 11  2  0  0  0  0
 13 12  1  0  0  0  0
 14 13  2  0  0  0  0
 14 15  1  0  0  0  0
 15 16  2  0  0  0  0
 16 11  1  0  0  0  0
 18 13  1  0  0  0  0
 19 20  1  0  0  0  0
 21 22  1  0  0  0  0
 23 24  1  0  0  0  0
 24 26  1  0  0  0  0
 24 27  1  0  0  0  0
 25 24  1  0  0  0  0
 27 28  1  0  0  0  0
 27 30  1  0  0  0  0
 27 29  1  0  0  0  0
 30 31  2  0  0  0  0
 31 32  1  0  0  0  0
 32 33  1  0  0  0  0
M  END
>  <minimizedAffinity>
-4.71840763

$$$$

 OpenBabel03242519483D

 33 34  0  0  1  0  0  0  0  0999 V2000
   35.3420   28.6190   39.1960 C   0  0  2  0  0  0  0  0  0  0  0  0
   36.4620   29.3130   38.5290 C   0  0  1  0  0  0  0  0  0  0  0  0
   35.8440   29.8970   37.3310 O   0  0  0  0  0  0  0  0  0  0  0  0
   35.3050   28.7010   36.8200 C   0  0  0  0  0  0  0  0  0  0  0  0
   34.4100   28.2860   38.0420 C   0  0  2  0  0  0  0  0  0  0  0  0
   35.6180   27.7300   39.7720 H   0  0  0  0  0  0  0  0  0  0  0  0
   37.1940   28.6020   38.1010 H   0  0  0  0  0  0  0  0  0  0  0  0
   36.0800   27.9060   36.7050 H   0  0  0  0  0  0  0  0  0  0  0  0
   34.7000   28.8650   35.9320 H   0  0  0  0  0  0  0  0  0  0  0  0
   34.2230   27.1990   37.9020 H   0  0  0  0  0  0  0  0  0  0  0  0
   37.3180   32.6940   39.6310 C   0  0  0  0  0  0  0  0  0  0  0  0
   38.1860   32.4830   40.7050 C   0  0  0  0  0  0  0  0  0  0  0  0
   38.4950   31.1440   41.0640 C   0  0  0  0  0  0  0  0  0  0  0  0
   37.9360   30.1170   40.3540 N   0  0  0  0  0  0  0  0  0  0  0  0
   37.0980   30.3680   39.3190 C   0  0  0  0  0  0  0  0  0  0  0  0
   36.7840   31.6390   38.9510 N   0  0  0  0  0  0  0  0  0  0  0  0
   38.6050   33.3150   41.2390 H   0  0  0  0  0  0  0  0  0  0  0  0
   39.1590   30.9480   41.8850 H   0  0  0  0  0  0  0  0  0  0  0  0
   36.9720   33.9840   39.2230 O   0  0  0  0  0  0  0  0  0  0  0  0
   36.1020   34.1730   38.7890 H   0  0  0  0  0  0  0  0  0  0  0  0
   34.6560   29.5430   40.0620 O   0  0  0  0  0  0  0  0  0  0  0  0
   34.1790   30.1290   39.4130 H   0  0  0  0  0  0  0  0  0  0  0  0
   33.3380   29.1010   38.0140 O   0  0  0  0  0  0  0  0  0  0  0  0
   32.4890   29.0730   36.9470 C   0  0  0  0  0  0  0  0  0  0  0  0
   32.9930   29.2920   36.0130 H   0  0  0  0  0  0  0  0  0  0  0  0
   32.2540   27.9150   36.7710 H   0  0  0  0  0  0  0  0  0  0  0  0
   31.1600   29.6710   37.1550 C   0  0  0  0  0  0  0  0  0  0  0  0
   30.3220   28.9830   36.9960 H   0  0  0  0  0  0  0  0  0  0  0  0
   31.0620   30.1120   38.1780 H   0  0  0  0  0  0  0  0  0  0  0  0
   31.0950   30.8760   36.2430 C   0  0  0  0  0  3  0  0  0  0  0  0
   31.3290   31.0670   34.9720 C   0  0  0  0  0  3  0  0  0  0  0  0
   31.1940   32.3890   34.2570 C   0  0  0  0  0  2  0  0  0  0  0  0
   30.2760   32.3360   33.6610 H   0  0  0  0  0  0  0  0  0  0  0  0
  1  6  1  1  0  0  0
  1 21  1  0  0  0  0
  2  7  1  6  0  0  0
  2  1  1  0  0  0  0
  2 15  1  0  0  0  0
  3  2  1  0  0  0  0
  4  3  1  0  0  0  0
  4  5  1  0  0  0  0
  5 10  1  6  0  0  0
  5  1  1  0  0  0  0
  8  4  1  0  0  0  0
  9  4  1  0  0  0  0
 11 12  1  0  0  0  0
 12 13  2  0  0  0  0
 12 17  1  0  0  0  0
 13 18  1  0  0  0  0
 14 13  1  0  0  0  0
 15 14  2  0  0  0  0
 16 15  1  0  0  0  0
 16 11  2  0  0  0  0
 19 11  1  0  0  0  0
 20 19  1  0  0  0  0
 22 21  1  0  0  0  0
 23  5  1  0  0  0  0
 24 27  1  0  0  0  0
 24 23  1  0  0  0  0
 25 24  1  0  0  0  0
 26 24  1  0  0  0  0
 27 29  1  0  0  0  0
 28 27  1  0  0  0  0
 30 27  1  0  0  0  0
 31 30  2  0  0  0  0
 32 31  1  0  0  0  0
 33 32  1  0  0  0  0
M  END
>  <minimizedAffinity>
-4.64057255

$$$$
