
 OpenBabel03252509303D

 16 16  0  0  0  0  0  0  0  0999 V2000
   44.5680   35.9010   44.3980 C   0  0  0  0  0  0  0  0  0  0  0  0
   45.3870   35.8920   43.2350 C   0  0  0  0  0  0  0  0  0  0  0  0
   46.3520   34.9000   43.1400 C   0  0  0  0  0  0  0  0  0  0  0  0
   46.4720   33.9930   44.1480 N   0  0  0  0  0  0  0  0  0  0  0  0
   45.6640   34.0370   45.2500 C   0  0  0  0  0  0  0  0  0  0  0  0
   44.7240   34.9930   45.3550 N   0  0  0  0  0  0  0  0  0  0  0  0
   43.8060   36.6710   44.4910 H   0  0  0  0  0  0  0  0  0  0  0  0
   45.2070   36.6580   42.4970 H   0  0  0  0  0  0  0  0  0  0  0  0
   45.8680   33.2570   45.9720 H   0  0  0  0  0  0  0  0  0  0  0  0
   47.1860   34.9010   41.9430 C   0  0  0  0  0  0  0  0  0  0  0  0
   48.1120   34.3680   42.1730 H   0  0  0  0  0  0  0  0  0  0  0  0
   47.3930   35.9360   41.6130 H   0  0  0  0  0  0  0  0  0  0  0  0
   46.5490   34.2020   40.7840 C   0  0  0  0  0  3  0  0  0  0  0  0
   47.1110   33.7510   39.6670 C   0  0  0  0  0  3  0  0  0  0  0  0
   46.4020   33.0610   38.5550 C   0  0  0  0  0  2  0  0  0  0  0  0
   46.5560   31.9610   38.5790 H   0  0  0  0  0  0  0  0  0  0  0  0
  1  7  1  0  0  0  0
  1  6  1  0  0  0  0
  2  1  2  0  0  0  0
  3  2  1  0  0  0  0
  3  4  2  0  0  0  0
  4  5  1  0  0  0  0
  5  6  2  0  0  0  0
  5  9  1  0  0  0  0
  8  2  1  0  0  0  0
 10 11  1  0  0  0  0
 10  3  1  0  0  0  0
 12 10  1  0  0  0  0
 13 10  1  0  0  0  0
 14 13  2  0  0  0  0
 15 16  1  0  0  0  0
 15 14  1  0  0  0  0
M  END
>  <minimizedAffinity>
-3.49538088

>  <minimizedRMSD>
0.660532951

$$$$
