
 OpenBabel03242519553D

 35 36  0  0  1  0  0  0  0  0999 V2000
   37.8360   30.3100   40.1820 C   0  0  2  0  0  0  0  0  0  0  0  0
   37.5440   29.7430   38.8450 C   0  0  0  0  0  0  0  0  0  0  0  0
   36.0830   29.6420   38.5660 C   0  0  0  0  0  0  0  0  0  0  0  0
   35.3070   28.9040   39.6290 C   0  0  0  0  0  0  0  0  0  0  0  0
   35.8130   29.1190   41.0190 C   0  0  2  0  0  0  0  0  0  0  0  0
   36.6660   30.3690   41.1050 C   0  0  0  0  0  0  0  0  0  0  0  0
   38.5980   29.6080   40.6480 H   0  0  0  0  0  0  0  0  0  0  0  0
   37.9500   30.4640   38.0910 H   0  0  0  0  0  0  0  0  0  0  0  0
   38.0800   28.7970   38.6330 H   0  0  0  0  0  0  0  0  0  0  0  0
   35.9840   29.0160   37.6310 H   0  0  0  0  0  0  0  0  0  0  0  0
   35.6510   30.6240   38.3160 H   0  0  0  0  0  0  0  0  0  0  0  0
   34.2680   29.2980   39.5710 H   0  0  0  0  0  0  0  0  0  0  0  0
   35.2250   27.8190   39.4120 H   0  0  0  0  0  0  0  0  0  0  0  0
   34.9490   29.3080   41.7230 H   0  0  0  0  0  0  0  0  0  0  0  0
   37.0530   30.4000   42.1710 H   0  0  0  0  0  0  0  0  0  0  0  0
   35.9740   31.1890   41.0230 H   0  0  0  0  0  0  0  0  0  0  0  0
   38.4790   31.6340   40.1270 C   0  0  0  0  0  0  0  0  0  0  0  0
   37.5800   32.6970   40.0730 C   0  0  0  0  0  0  0  0  0  0  0  0
   38.0530   34.0110   40.0370 C   0  0  0  0  0  0  0  0  0  0  0  0
   39.4290   34.1610   40.0570 N   0  0  0  0  0  0  0  0  0  0  0  0
   40.2660   33.1050   40.1070 C   0  0  0  0  0  0  0  0  0  0  0  0
   39.7830   31.8620   40.1420 N   0  0  0  0  0  0  0  0  0  0  0  0
   36.5080   32.8170   40.0380 H   0  0  0  0  0  0  0  0  0  0  0  0
   37.5650   34.9490   39.9970 H   0  0  0  0  0  0  0  0  0  0  0  0
   41.3300   33.2710   40.1200 H   0  0  0  0  0  0  0  0  0  0  0  0
   36.4850   27.8920   41.5020 C   0  0  0  0  0  0  0  0  0  0  0  0
   37.5340   27.9050   41.1220 H   0  0  0  0  0  0  0  0  0  0  0  0
   36.0010   27.0260   41.0390 H   0  0  0  0  0  0  0  0  0  0  0  0
   36.5410   27.6990   42.9680 C   0  0  0  0  0  0  0  0  0  0  0  0
   36.0180   26.7610   43.2700 H   0  0  0  0  0  0  0  0  0  0  0  0
   36.0050   28.5310   43.4560 H   0  0  0  0  0  0  0  0  0  0  0  0
   37.8980   27.6600   43.5320 C   0  0  0  0  0  3  0  0  0  0  0  0
   38.9800   27.4920   42.7770 C   0  0  0  0  0  3  0  0  0  0  0  0
   40.3490   27.4530   43.3550 C   0  0  0  0  0  2  0  0  0  0  0  0
   40.4440   26.6230   44.0850 H   0  0  0  0  0  0  0  0  0  0  0  0
  1  7  1  1  0  0  0
  1  6  1  0  0  0  0
  2  1  1  0  0  0  0
  3  2  1  0  0  0  0
  3  4  1  0  0  0  0
  4  5  1  0  0  0  0
  5  6  1  0  0  0  0
  5 26  1  0  0  0  0
  5 14  1  1  0  0  0
  6 15  1  0  0  0  0
  8  2  1  0  0  0  0
  9  2  1  0  0  0  0
 10  3  1  0  0  0  0
 11  3  1  0  0  0  0
 12  4  1  0  0  0  0
 13  4  1  0  0  0  0
 16  6  1  0  0  0  0
 17 22  1  0  0  0  0
 17  1  1  0  0  0  0
 18 17  2  0  0  0  0
 19 20  2  0  0  0  0
 19 18  1  0  0  0  0
 20 21  1  0  0  0  0
 21 25  1  0  0  0  0
 21 22  2  0  0  0  0
 23 18  1  0  0  0  0
 24 19  1  0  0  0  0
 26 29  1  0  0  0  0
 27 26  1  0  0  0  0
 28 26  1  0  0  0  0
 29 30  1  0  0  0  0
 29 31  1  0  0  0  0
 29 32  1  0  0  0  0
 33 34  1  0  0  0  0
 33 32  2  0  0  0  0
 34 35  1  0  0  0  0
M  END
>  <minimizedAffinity>
-4.84950256

$$$$

 OpenBabel03242519553D

 35 36  0  0  1  0  0  0  0  0999 V2000
   37.9630   30.1490   41.0880 C   0  0  2  0  0  0  0  0  0  0  0  0
   38.6260   29.1930   40.1710 C   0  0  0  0  0  0  0  0  0  0  0  0
   37.6590   28.4100   39.3510 C   0  0  0  0  0  0  0  0  0  0  0  0
   36.5970   27.7080   40.1620 C   0  0  0  0  0  0  0  0  0  0  0  0
   36.1490   28.4630   41.3720 C   0  0  2  0  0  0  0  0  0  0  0  0
   36.4970   29.9340   41.2600 C   0  0  0  0  0  0  0  0  0  0  0  0
   38.4480   29.9830   42.1020 H   0  0  0  0  0  0  0  0  0  0  0  0
   39.2220   29.8010   39.4450 H   0  0  0  0  0  0  0  0  0  0  0  0
   39.3780   28.5470   40.6660 H   0  0  0  0  0  0  0  0  0  0  0  0
   38.2560   27.5880   38.8590 H   0  0  0  0  0  0  0  0  0  0  0  0
   37.2470   29.0140   38.5270 H   0  0  0  0  0  0  0  0  0  0  0  0
   35.7250   27.5910   39.4800 H   0  0  0  0  0  0  0  0  0  0  0  0
   36.8960   26.6760   40.4400 H   0  0  0  0  0  0  0  0  0  0  0  0
   35.0210   28.4360   41.4500 H   0  0  0  0  0  0  0  0  0  0  0  0
   36.1810   30.3970   42.2460 H   0  0  0  0  0  0  0  0  0  0  0  0
   35.8190   30.3290   40.5240 H   0  0  0  0  0  0  0  0  0  0  0  0
   38.2100   31.5590   40.7410 C   0  0  0  0  0  0  0  0  0  0  0  0
   37.1940   32.1410   39.9870 C   0  0  0  0  0  0  0  0  0  0  0  0
   37.2880   33.4820   39.6030 C   0  0  0  0  0  0  0  0  0  0  0  0
   38.4280   34.1510   40.0170 N   0  0  0  0  0  0  0  0  0  0  0  0
   39.3900   33.5490   40.7440 C   0  0  0  0  0  0  0  0  0  0  0  0
   39.2700   32.2680   41.0950 N   0  0  0  0  0  0  0  0  0  0  0  0
   36.2550   31.8250   39.5570 H   0  0  0  0  0  0  0  0  0  0  0  0
   36.6520   34.1160   39.0460 H   0  0  0  0  0  0  0  0  0  0  0  0
   40.2600   34.1100   41.0420 H   0  0  0  0  0  0  0  0  0  0  0  0
   36.6690   27.8080   42.5920 C   0  0  0  0  0  0  0  0  0  0  0  0
   35.8350   27.7480   43.3300 H   0  0  0  0  0  0  0  0  0  0  0  0
   37.4280   28.4590   43.0390 H   0  0  0  0  0  0  0  0  0  0  0  0
   37.2230   26.4460   42.4290 C   0  0  0  0  0  0  0  0  0  0  0  0
   37.1530   26.1070   41.3680 H   0  0  0  0  0  0  0  0  0  0  0  0
   36.6150   25.7430   43.0250 H   0  0  0  0  0  0  0  0  0  0  0  0
   38.6200   26.2930   42.8610 C   0  0  0  0  0  3  0  0  0  0  0  0
   39.3650   27.3260   43.2450 C   0  0  0  0  0  3  0  0  0  0  0  0
   40.7770   27.1650   43.6790 C   0  0  0  0  0  2  0  0  0  0  0  0
   41.3900   26.7260   42.8650 H   0  0  0  0  0  0  0  0  0  0  0  0
  1  6  1  0  0  0  0
  1  7  1  1  0  0  0
  2  9  1  0  0  0  0
  2  1  1  0  0  0  0
  3  4  1  0  0  0  0
  3  2  1  0  0  0  0
  4 13  1  0  0  0  0
  4  5  1  0  0  0  0
  5 14  1  1  0  0  0
  5 26  1  0  0  0  0
  6  5  1  0  0  0  0
  6 15  1  0  0  0  0
  8  2  1  0  0  0  0
 10  3  1  0  0  0  0
 11  3  1  0  0  0  0
 12  4  1  0  0  0  0
 16  6  1  0  0  0  0
 17  1  1  0  0  0  0
 17 22  1  0  0  0  0
 18 17  2  0  0  0  0
 19 18  1  0  0  0  0
 19 20  2  0  0  0  0
 20 21  1  0  0  0  0
 21 25  1  0  0  0  0
 21 22  2  0  0  0  0
 23 18  1  0  0  0  0
 24 19  1  0  0  0  0
 26 28  1  0  0  0  0
 26 27  1  0  0  0  0
 29 26  1  0  0  0  0
 29 32  1  0  0  0  0
 29 31  1  0  0  0  0
 30 29  1  0  0  0  0
 32 33  2  0  0  0  0
 33 34  1  0  0  0  0
 35 34  1  0  0  0  0
M  END
>  <minimizedAffinity>
-4.79507303

$$$$

 OpenBabel03242519553D

 35 36  0  0  1  0  0  0  0  0999 V2000
   37.4920   26.5840   40.8190 C   0  0  2  0  0  0  0  0  0  0  0  0
   37.2200   25.8780   39.5460 C   0  0  0  0  0  0  0  0  0  0  0  0
   36.2970   24.7190   39.7120 C   0  0  0  0  0  0  0  0  0  0  0  0
   36.7310   23.7380   40.7730 C   0  0  0  0  0  0  0  0  0  0  0  0
   37.4010   24.3660   41.9540 C   0  0  2  0  0  0  0  0  0  0  0  0
   37.0750   25.8440   42.0460 C   0  0  0  0  0  0  0  0  0  0  0  0
   38.6210   26.7020   40.8650 H   0  0  0  0  0  0  0  0  0  0  0  0
   36.6860   26.6020   38.8810 H   0  0  0  0  0  0  0  0  0  0  0  0
   38.1330   25.6110   38.9790 H   0  0  0  0  0  0  0  0  0  0  0  0
   36.3320   24.1470   38.7400 H   0  0  0  0  0  0  0  0  0  0  0  0
   35.2530   25.0490   39.8270 H   0  0  0  0  0  0  0  0  0  0  0  0
   35.7990   23.2410   41.1240 H   0  0  0  0  0  0  0  0  0  0  0  0
   37.3630   22.9250   40.3600 H   0  0  0  0  0  0  0  0  0  0  0  0
   36.9980   23.9200   42.9110 H   0  0  0  0  0  0  0  0  0  0  0  0
   37.6810   26.2340   42.9220 H   0  0  0  0  0  0  0  0  0  0  0  0
   36.0470   25.8870   42.3610 H   0  0  0  0  0  0  0  0  0  0  0  0
   36.9350   27.9470   40.8620 C   0  0  0  0  0  0  0  0  0  0  0  0
   37.6910   28.8420   41.6160 C   0  0  0  0  0  0  0  0  0  0  0  0
   37.2880   30.1760   41.7270 C   0  0  0  0  0  0  0  0  0  0  0  0
   36.1270   30.5160   41.0530 N   0  0  0  0  0  0  0  0  0  0  0  0
   35.4230   29.6180   40.3360 C   0  0  0  0  0  0  0  0  0  0  0  0
   35.8340   28.3510   40.2490 N   0  0  0  0  0  0  0  0  0  0  0  0
   38.5890   28.8030   42.2130 H   0  0  0  0  0  0  0  0  0  0  0  0
   37.6980   31.0100   42.2310 H   0  0  0  0  0  0  0  0  0  0  0  0
   34.5250   29.9290   39.8310 H   0  0  0  0  0  0  0  0  0  0  0  0
   38.8490   24.0640   41.9270 C   0  0  0  0  0  0  0  0  0  0  0  0
   39.3080   24.6680   41.1100 H   0  0  0  0  0  0  0  0  0  0  0  0
   38.9790   23.0140   41.6440 H   0  0  0  0  0  0  0  0  0  0  0  0
   39.6060   24.3370   43.1680 C   0  0  0  0  0  0  0  0  0  0  0  0
   40.1570   23.4290   43.5110 H   0  0  0  0  0  0  0  0  0  0  0  0
   38.8930   24.5950   43.9690 H   0  0  0  0  0  0  0  0  0  0  0  0
   40.5730   25.4410   43.0690 C   0  0  0  0  0  3  0  0  0  0  0  0
   40.3770   26.6150   43.6630 C   0  0  0  0  0  3  0  0  0  0  0  0
   41.3580   27.7270   43.5590 C   0  0  0  0  0  2  0  0  0  0  0  0
   41.5030   28.0240   42.5000 H   0  0  0  0  0  0  0  0  0  0  0  0
  1 17  1  0  0  0  0
  1  7  1  1  0  0  0
  1  6  1  0  0  0  0
  2  3  1  0  0  0  0
  2  1  1  0  0  0  0
  3 11  1  0  0  0  0
  3  4  1  0  0  0  0
  4 12  1  0  0  0  0
  4  5  1  0  0  0  0
  5  6  1  0  0  0  0
  5 14  1  1  0  0  0
  6 16  1  0  0  0  0
  6 15  1  0  0  0  0
  8  2  1  0  0  0  0
  9  2  1  0  0  0  0
 10  3  1  0  0  0  0
 13  4  1  0  0  0  0
 17 18  1  0  0  0  0
 18 19  2  0  0  0  0
 18 23  1  0  0  0  0
 19 24  1  0  0  0  0
 20 19  1  0  0  0  0
 21 20  2  0  0  0  0
 22 21  1  0  0  0  0
 22 17  2  0  0  0  0
 25 21  1  0  0  0  0
 26  5  1  0  0  0  0
 26 29  1  0  0  0  0
 27 26  1  0  0  0  0
 28 26  1  0  0  0  0
 29 30  1  0  0  0  0
 29 31  1  0  0  0  0
 32 29  1  0  0  0  0
 32 33  2  0  0  0  0
 34 33  1  0  0  0  0
 35 34  1  0  0  0  0
M  END
>  <minimizedAffinity>
-4.70075703

$$$$

 OpenBabel03242519553D

 35 36  0  0  1  0  0  0  0  0999 V2000
   38.1520   28.7350   41.0320 C   0  0  2  0  0  0  0  0  0  0  0  0
   37.0270   27.7990   41.2610 C   0  0  0  0  0  0  0  0  0  0  0  0
   36.5630   27.7870   42.6770 C   0  0  0  0  0  0  0  0  0  0  0  0
   37.6630   27.5380   43.6800 C   0  0  0  0  0  0  0  0  0  0  0  0
   38.9820   28.1360   43.3050 C   0  0  2  0  0  0  0  0  0  0  0  0
   38.8120   29.2340   42.2730 C   0  0  0  0  0  0  0  0  0  0  0  0
   38.9280   28.1400   40.4540 H   0  0  0  0  0  0  0  0  0  0  0  0
   36.1620   28.1780   40.6590 H   0  0  0  0  0  0  0  0  0  0  0  0
   37.2060   26.7790   40.8680 H   0  0  0  0  0  0  0  0  0  0  0  0
   35.8640   26.9060   42.7730 H   0  0  0  0  0  0  0  0  0  0  0  0
   35.9560   28.6760   42.9110 H   0  0  0  0  0  0  0  0  0  0  0  0
   37.3220   28.0130   44.6270 H   0  0  0  0  0  0  0  0  0  0  0  0
   37.7820   26.4610   43.9140 H   0  0  0  0  0  0  0  0  0  0  0  0
   39.4450   28.6490   44.2000 H   0  0  0  0  0  0  0  0  0  0  0  0
   39.8640   29.5680   42.0090 H   0  0  0  0  0  0  0  0  0  0  0  0
   38.3720   30.0580   42.8070 H   0  0  0  0  0  0  0  0  0  0  0  0
   37.7940   29.8810   40.1780 C   0  0  0  0  0  0  0  0  0  0  0  0
   37.6440   31.0780   40.8730 C   0  0  0  0  0  0  0  0  0  0  0  0
   37.3240   32.2510   40.1840 C   0  0  0  0  0  0  0  0  0  0  0  0
   37.1750   32.1260   38.8130 N   0  0  0  0  0  0  0  0  0  0  0  0
   37.3250   30.9470   38.1780 C   0  0  0  0  0  0  0  0  0  0  0  0
   37.6320   29.8450   38.8640 N   0  0  0  0  0  0  0  0  0  0  0  0
   37.7000   31.4010   41.9010 H   0  0  0  0  0  0  0  0  0  0  0  0
   37.1680   33.2490   40.4980 H   0  0  0  0  0  0  0  0  0  0  0  0
   37.1980   30.8990   37.1100 H   0  0  0  0  0  0  0  0  0  0  0  0
   39.9210   27.0660   42.9030 C   0  0  0  0  0  0  0  0  0  0  0  0
   40.9200   27.3080   43.3350 H   0  0  0  0  0  0  0  0  0  0  0  0
   40.0410   27.1000   41.8150 H   0  0  0  0  0  0  0  0  0  0  0  0
   39.5740   25.6890   43.3170 C   0  0  0  0  0  0  0  0  0  0  0  0
   38.7160   25.6880   44.0310 H   0  0  0  0  0  0  0  0  0  0  0  0
   40.4330   25.2540   43.8570 H   0  0  0  0  0  0  0  0  0  0  0  0
   39.2430   24.7780   42.2120 C   0  0  0  0  0  3  0  0  0  0  0  0
   38.0320   24.2480   42.0630 C   0  0  0  0  0  3  0  0  0  0  0  0
   37.7040   23.3260   40.9440 C   0  0  0  0  0  2  0  0  0  0  0  0
   38.3500   22.4240   40.9760 H   0  0  0  0  0  0  0  0  0  0  0  0
  1  7  1  6  0  0  0
  1  2  1  0  0  0  0
  1  6  1  0  0  0  0
  2  3  1  0  0  0  0
  3 10  1  0  0  0  0
  3 11  1  0  0  0  0
  3  4  1  0  0  0  0
  4 13  1  0  0  0  0
  4 12  1  0  0  0  0
  5  4  1  0  0  0  0
  5 14  1  1  0  0  0
  6 16  1  0  0  0  0
  6  5  1  0  0  0  0
  8  2  1  0  0  0  0
  9  2  1  0  0  0  0
 15  6  1  0  0  0  0
 17 18  1  0  0  0  0
 17  1  1  0  0  0  0
 18 23  1  0  0  0  0
 19 24  1  0  0  0  0
 19 18  2  0  0  0  0
 20 19  1  0  0  0  0
 21 20  2  0  0  0  0
 21 22  1  0  0  0  0
 22 17  2  0  0  0  0
 25 21  1  0  0  0  0
 26  5  1  0  0  0  0
 26 29  1  0  0  0  0
 26 27  1  0  0  0  0
 28 26  1  0  0  0  0
 29 31  1  0  0  0  0
 29 30  1  0  0  0  0
 32 29  1  0  0  0  0
 33 32  2  0  0  0  0
 34 35  1  0  0  0  0
 34 33  1  0  0  0  0
M  END
>  <minimizedAffinity>
-4.68439388

$$$$

 OpenBabel03242519553D

 35 36  0  0  1  0  0  0  0  0999 V2000
   37.0670   27.4240   41.9690 C   0  0  2  0  0  0  0  0  0  0  0  0
   37.4320   27.5920   43.3950 C   0  0  0  0  0  0  0  0  0  0  0  0
   38.8530   27.2400   43.6730 C   0  0  0  0  0  0  0  0  0  0  0  0
   39.2510   25.8670   43.1890 C   0  0  0  0  0  0  0  0  0  0  0  0
   38.5890   25.4510   41.9150 C   0  0  2  0  0  0  0  0  0  0  0  0
   38.0510   26.6500   41.1590 C   0  0  0  0  0  0  0  0  0  0  0  0
   36.0960   26.8330   41.9730 H   0  0  0  0  0  0  0  0  0  0  0  0
   37.3340   28.6820   43.6280 H   0  0  0  0  0  0  0  0  0  0  0  0
   36.7310   27.1000   44.0970 H   0  0  0  0  0  0  0  0  0  0  0  0
   38.9540   27.2040   44.7970 H   0  0  0  0  0  0  0  0  0  0  0  0
   39.5390   28.0340   43.3370 H   0  0  0  0  0  0  0  0  0  0  0  0
   40.3480   25.9160   43.0130 H   0  0  0  0  0  0  0  0  0  0  0  0
   39.1100   25.0910   43.9680 H   0  0  0  0  0  0  0  0  0  0  0  0
   39.3470   24.9840   41.2180 H   0  0  0  0  0  0  0  0  0  0  0  0
   37.5140   26.2240   40.2550 H   0  0  0  0  0  0  0  0  0  0  0  0
   38.9200   27.1510   40.7700 H   0  0  0  0  0  0  0  0  0  0  0  0
   36.7700   28.6960   41.2880 C   0  0  0  0  0  0  0  0  0  0  0  0
   36.0960   28.5460   40.0790 C   0  0  0  0  0  0  0  0  0  0  0  0
   35.7350   29.6720   39.3350 C   0  0  0  0  0  0  0  0  0  0  0  0
   36.0890   30.8960   39.8780 N   0  0  0  0  0  0  0  0  0  0  0  0
   36.7440   30.9980   41.0510 C   0  0  0  0  0  0  0  0  0  0  0  0
   37.0750   29.9030   41.7390 N   0  0  0  0  0  0  0  0  0  0  0  0
   35.7390   27.7240   39.4760 H   0  0  0  0  0  0  0  0  0  0  0  0
   35.2290   29.7930   38.4140 H   0  0  0  0  0  0  0  0  0  0  0  0
   36.9990   31.9720   41.4340 H   0  0  0  0  0  0  0  0  0  0  0  0
   37.5790   24.4070   42.1930 C   0  0  0  0  0  0  0  0  0  0  0  0
   36.9570   24.7540   43.0520 H   0  0  0  0  0  0  0  0  0  0  0  0
   38.0970   23.5040   42.5350 H   0  0  0  0  0  0  0  0  0  0  0  0
   36.6610   24.0580   41.0870 C   0  0  0  0  0  0  0  0  0  0  0  0
   36.1230   24.9610   40.7110 H   0  0  0  0  0  0  0  0  0  0  0  0
   35.8900   23.3680   41.4700 H   0  0  0  0  0  0  0  0  0  0  0  0
   37.3030   23.4050   39.9370 C   0  0  0  0  0  3  0  0  0  0  0  0
   38.2120   22.4440   40.0790 C   0  0  0  0  0  3  0  0  0  0  0  0
   38.8590   21.7880   38.9120 C   0  0  0  0  0  2  0  0  0  0  0  0
   39.4020   22.5320   38.2940 H   0  0  0  0  0  0  0  0  0  0  0  0
  1  7  1  6  0  0  0
  1  2  1  0  0  0  0
  2  8  1  0  0  0  0
  2  3  1  0  0  0  0
  2  9  1  0  0  0  0
  3 10  1  0  0  0  0
  4  3  1  0  0  0  0
  4 13  1  0  0  0  0
  5 14  1  6  0  0  0
  5 26  1  0  0  0  0
  5  4  1  0  0  0  0
  6  5  1  0  0  0  0
  6  1  1  0  0  0  0
 11  3  1  0  0  0  0
 12  4  1  0  0  0  0
 15  6  1  0  0  0  0
 16  6  1  0  0  0  0
 17 22  1  0  0  0  0
 17  1  1  0  0  0  0
 18 17  2  0  0  0  0
 19 20  2  0  0  0  0
 19 18  1  0  0  0  0
 20 21  1  0  0  0  0
 21 25  1  0  0  0  0
 21 22  2  0  0  0  0
 23 18  1  0  0  0  0
 24 19  1  0  0  0  0
 26 28  1  0  0  0  0
 26 27  1  0  0  0  0
 29 31  1  0  0  0  0
 29 26  1  0  0  0  0
 30 29  1  0  0  0  0
 32 33  2  0  0  0  0
 32 29  1  0  0  0  0
 34 33  1  0  0  0  0
 35 34  1  0  0  0  0
M  END
>  <minimizedAffinity>
-4.61654758

$$$$

 OpenBabel03242519553D

 35 36  0  0  1  0  0  0  0  0999 V2000
   37.1920   29.1690   41.3660 C   0  0  2  0  0  0  0  0  0  0  0  0
   35.8270   28.7970   40.9290 C   0  0  0  0  0  0  0  0  0  0  0  0
   35.6870   28.7480   39.4450 C   0  0  0  0  0  0  0  0  0  0  0  0
   36.1350   30.0080   38.7470 C   0  0  0  0  0  0  0  0  0  0  0  0
   37.3040   30.6840   39.3890 C   0  0  2  0  0  0  0  0  0  0  0  0
   38.0610   29.7290   40.2910 C   0  0  0  0  0  0  0  0  0  0  0  0
   37.0490   29.9860   42.1420 H   0  0  0  0  0  0  0  0  0  0  0  0
   35.6450   27.7520   41.2880 H   0  0  0  0  0  0  0  0  0  0  0  0
   35.0250   29.3920   41.4080 H   0  0  0  0  0  0  0  0  0  0  0  0
   34.5800   28.6640   39.2360 H   0  0  0  0  0  0  0  0  0  0  0  0
   36.1400   27.8350   39.0270 H   0  0  0  0  0  0  0  0  0  0  0  0
   36.4330   29.6940   37.7210 H   0  0  0  0  0  0  0  0  0  0  0  0
   35.3030   30.7280   38.6060 H   0  0  0  0  0  0  0  0  0  0  0  0
   38.0530   30.9960   38.6020 H   0  0  0  0  0  0  0  0  0  0  0  0
   38.8750   30.3510   40.7770 H   0  0  0  0  0  0  0  0  0  0  0  0
   38.5700   29.0550   39.6240 H   0  0  0  0  0  0  0  0  0  0  0  0
   37.9050   28.0750   42.0480 C   0  0  0  0  0  0  0  0  0  0  0  0
   37.5150   26.8030   41.6360 C   0  0  0  0  0  0  0  0  0  0  0  0
   38.1250   25.6730   42.1870 C   0  0  0  0  0  0  0  0  0  0  0  0
   39.1040   25.9150   43.1360 N   0  0  0  0  0  0  0  0  0  0  0  0
   39.4510   27.1620   43.5090 C   0  0  0  0  0  0  0  0  0  0  0  0
   38.8500   28.2220   42.9630 N   0  0  0  0  0  0  0  0  0  0  0  0
   36.7960   26.3870   40.9470 H   0  0  0  0  0  0  0  0  0  0  0  0
   37.9930   24.6360   42.0270 H   0  0  0  0  0  0  0  0  0  0  0  0
   40.2180   27.3010   44.2510 H   0  0  0  0  0  0  0  0  0  0  0  0
   36.8580   31.9250   40.0590 C   0  0  0  0  0  0  0  0  0  0  0  0
   37.1930   31.8780   41.1220 H   0  0  0  0  0  0  0  0  0  0  0  0
   35.7630   31.9330   40.0820 H   0  0  0  0  0  0  0  0  0  0  0  0
   37.3480   33.1990   39.4890 C   0  0  0  0  0  0  0  0  0  0  0  0
   36.5490   33.9790   39.5020 H   0  0  0  0  0  0  0  0  0  0  0  0
   37.6120   33.0360   38.4300 H   0  0  0  0  0  0  0  0  0  0  0  0
   38.5330   33.7570   40.1560 C   0  0  0  0  0  3  0  0  0  0  0  0
   39.7690   33.5330   39.7180 C   0  0  0  0  0  3  0  0  0  0  0  0
   40.9640   34.0990   40.3980 C   0  0  0  0  0  2  0  0  0  0  0  0
   41.0220   33.7460   41.4480 H   0  0  0  0  0  0  0  0  0  0  0  0
  1 17  1  0  0  0  0
  1  7  1  1  0  0  0
  2  8  1  0  0  0  0
  2  1  1  0  0  0  0
  2  9  1  0  0  0  0
  3  2  1  0  0  0  0
  4  5  1  0  0  0  0
  4  3  1  0  0  0  0
  5 14  1  6  0  0  0
  5 26  1  0  0  0  0
  5  6  1  0  0  0  0
  6 15  1  0  0  0  0
  6  1  1  0  0  0  0
 10  3  1  0  0  0  0
 11  3  1  0  0  0  0
 12  4  1  0  0  0  0
 13  4  1  0  0  0  0
 16  6  1  0  0  0  0
 17 22  1  0  0  0  0
 18 17  2  0  0  0  0
 18 19  1  0  0  0  0
 19 20  2  0  0  0  0
 20 21  1  0  0  0  0
 21 25  1  0  0  0  0
 22 21  2  0  0  0  0
 23 18  1  0  0  0  0
 24 19  1  0  0  0  0
 26 28  1  0  0  0  0
 26 27  1  0  0  0  0
 29 30  1  0  0  0  0
 29 26  1  0  0  0  0
 29 32  1  0  0  0  0
 31 29  1  0  0  0  0
 33 32  2  0  0  0  0
 33 34  1  0  0  0  0
 34 35  1  0  0  0  0
M  END
>  <minimizedAffinity>
-4.58476686

$$$$

 OpenBabel03242519553D

 35 36  0  0  1  0  0  0  0  0999 V2000
   37.1280   28.0090   40.7460 C   0  0  2  0  0  0  0  0  0  0  0  0
   37.2850   26.7500   41.5080 C   0  0  0  0  0  0  0  0  0  0  0  0
   36.8100   26.8610   42.9170 C   0  0  0  0  0  0  0  0  0  0  0  0
   37.4200   28.0130   43.6780 C   0  0  0  0  0  0  0  0  0  0  0  0
   37.6710   29.2330   42.8490 C   0  0  2  0  0  0  0  0  0  0  0  0
   36.8420   29.2130   41.5800 C   0  0  0  0  0  0  0  0  0  0  0  0
   38.1290   28.1830   40.2380 H   0  0  0  0  0  0  0  0  0  0  0  0
   36.6220   25.9910   41.0210 H   0  0  0  0  0  0  0  0  0  0  0  0
   38.2990   26.3080   41.4390 H   0  0  0  0  0  0  0  0  0  0  0  0
   37.1670   25.9290   43.4450 H   0  0  0  0  0  0  0  0  0  0  0  0
   35.7110   26.8360   42.9750 H   0  0  0  0  0  0  0  0  0  0  0  0
   36.6830   28.2750   44.4700 H   0  0  0  0  0  0  0  0  0  0  0  0
   38.3420   27.7180   44.2180 H   0  0  0  0  0  0  0  0  0  0  0  0
   37.3290   30.1570   43.4050 H   0  0  0  0  0  0  0  0  0  0  0  0
   37.1550   30.1340   40.9980 H   0  0  0  0  0  0  0  0  0  0  0  0
   35.8310   29.4010   41.9000 H   0  0  0  0  0  0  0  0  0  0  0  0
   36.1300   27.9190   39.6660 C   0  0  0  0  0  0  0  0  0  0  0  0
   35.1680   28.9250   39.7000 C   0  0  0  0  0  0  0  0  0  0  0  0
   34.1700   28.9710   38.7230 C   0  0  0  0  0  0  0  0  0  0  0  0
   34.2180   27.9760   37.7610 N   0  0  0  0  0  0  0  0  0  0  0  0
   35.1650   27.0180   37.7650 C   0  0  0  0  0  0  0  0  0  0  0  0
   36.1050   27.0010   38.7120 N   0  0  0  0  0  0  0  0  0  0  0  0
   34.9340   29.7670   40.3340 H   0  0  0  0  0  0  0  0  0  0  0  0
   33.3600   29.6290   38.5550 H   0  0  0  0  0  0  0  0  0  0  0  0
   35.1610   26.2630   36.9970 H   0  0  0  0  0  0  0  0  0  0  0  0
   39.1240   29.3930   42.6220 C   0  0  0  0  0  0  0  0  0  0  0  0
   39.3720   28.9080   41.6490 H   0  0  0  0  0  0  0  0  0  0  0  0
   39.6600   28.8280   43.3920 H   0  0  0  0  0  0  0  0  0  0  0  0
   39.6400   30.7780   42.5780 C   0  0  0  0  0  0  0  0  0  0  0  0
   40.7000   30.8230   42.9220 H   0  0  0  0  0  0  0  0  0  0  0  0
   39.0540   31.3970   43.2800 H   0  0  0  0  0  0  0  0  0  0  0  0
   39.5660   31.4220   41.2590 C   0  0  0  0  0  3  0  0  0  0  0  0
   39.0940   32.6550   41.0930 C   0  0  0  0  0  3  0  0  0  0  0  0
   39.0210   33.3000   39.7550 C   0  0  0  0  0  2  0  0  0  0  0  0
   38.3770   32.7110   39.0700 H   0  0  0  0  0  0  0  0  0  0  0  0
  1  7  1  6  0  0  0
  1  2  1  0  0  0  0
  1  6  1  0  0  0  0
  2  3  1  0  0  0  0
  3 11  1  0  0  0  0
  3 10  1  0  0  0  0
  3  4  1  0  0  0  0
  4 13  1  0  0  0  0
  4 12  1  0  0  0  0
  5 14  1  1  0  0  0
  5  4  1  0  0  0  0
  6 16  1  0  0  0  0
  6  5  1  0  0  0  0
  8  2  1  0  0  0  0
  9  2  1  0  0  0  0
 15  6  1  0  0  0  0
 17 18  1  0  0  0  0
 17  1  1  0  0  0  0
 18 23  1  0  0  0  0
 19 18  2  0  0  0  0
 20 21  2  0  0  0  0
 20 19  1  0  0  0  0
 21 22  1  0  0  0  0
 22 17  2  0  0  0  0
 24 19  1  0  0  0  0
 25 21  1  0  0  0  0
 26  5  1  0  0  0  0
 26 28  1  0  0  0  0
 27 26  1  0  0  0  0
 29 26  1  0  0  0  0
 29 30  1  0  0  0  0
 29 31  1  0  0  0  0
 32 29  1  0  0  0  0
 33 32  2  0  0  0  0
 34 33  1  0  0  0  0
 35 34  1  0  0  0  0
M  END
>  <minimizedAffinity>
-4.5397892

$$$$

 OpenBabel03242519553D

 35 36  0  0  1  0  0  0  0  0999 V2000
   38.3500   29.4720   41.4820 C   0  0  2  0  0  0  0  0  0  0  0  0
   37.3710   28.5750   40.8250 C   0  0  0  0  0  0  0  0  0  0  0  0
   36.3100   28.0950   41.7560 C   0  0  0  0  0  0  0  0  0  0  0  0
   36.8440   27.4540   43.0140 C   0  0  0  0  0  0  0  0  0  0  0  0
   38.1020   28.0750   43.5320 C   0  0  2  0  0  0  0  0  0  0  0  0
   38.2950   29.4710   42.9730 C   0  0  0  0  0  0  0  0  0  0  0  0
   39.3720   29.0750   41.1830 H   0  0  0  0  0  0  0  0  0  0  0  0
   36.8440   29.1850   40.0490 H   0  0  0  0  0  0  0  0  0  0  0  0
   37.8350   27.7490   40.2520 H   0  0  0  0  0  0  0  0  0  0  0  0
   35.7610   27.2730   41.2100 H   0  0  0  0  0  0  0  0  0  0  0  0
   35.5600   28.8770   41.9520 H   0  0  0  0  0  0  0  0  0  0  0  0
   36.0480   27.5860   43.7800 H   0  0  0  0  0  0  0  0  0  0  0  0
   36.9720   26.3580   42.9050 H   0  0  0  0  0  0  0  0  0  0  0  0
   38.0320   28.2180   44.6520 H   0  0  0  0  0  0  0  0  0  0  0  0
   39.3000   29.8200   43.3680 H   0  0  0  0  0  0  0  0  0  0  0  0
   37.5600   30.0790   43.4710 H   0  0  0  0  0  0  0  0  0  0  0  0
   38.2900   30.8600   40.9940 C   0  0  0  0  0  0  0  0  0  0  0  0
   37.2920   31.0840   40.0490 C   0  0  0  0  0  0  0  0  0  0  0  0
   37.1100   32.3630   39.5140 C   0  0  0  0  0  0  0  0  0  0  0  0
   37.9680   33.3430   39.9830 N   0  0  0  0  0  0  0  0  0  0  0  0
   38.9230   33.0840   40.8980 C   0  0  0  0  0  0  0  0  0  0  0  0
   39.0710   31.8530   41.3900 N   0  0  0  0  0  0  0  0  0  0  0  0
   36.5410   30.4940   39.5450 H   0  0  0  0  0  0  0  0  0  0  0  0
   36.4310   32.7540   38.8040 H   0  0  0  0  0  0  0  0  0  0  0  0
   39.5680   33.8790   41.2320 H   0  0  0  0  0  0  0  0  0  0  0  0
   39.2440   27.1640   43.2970 C   0  0  0  0  0  0  0  0  0  0  0  0
   39.8110   27.0750   44.2530 H   0  0  0  0  0  0  0  0  0  0  0  0
   39.9230   27.6370   42.5800 H   0  0  0  0  0  0  0  0  0  0  0  0
   38.9180   25.7960   42.8390 C   0  0  0  0  0  0  0  0  0  0  0  0
   37.8170   25.6680   42.7050 H   0  0  0  0  0  0  0  0  0  0  0  0
   39.2260   25.0780   43.6180 H   0  0  0  0  0  0  0  0  0  0  0  0
   39.5740   25.3930   41.5860 C   0  0  0  0  0  3  0  0  0  0  0  0
   40.2730   26.2460   40.8410 C   0  0  0  0  0  3  0  0  0  0  0  0
   40.9340   25.8320   39.5750 C   0  0  0  0  0  2  0  0  0  0  0  0
   40.1870   25.4480   38.8500 H   0  0  0  0  0  0  0  0  0  0  0  0
  1  7  1  6  0  0  0
  1  6  1  0  0  0  0
  2  1  1  0  0  0  0
  2  3  1  0  0  0  0
  3 11  1  0  0  0  0
  3  4  1  0  0  0  0
  4  5  1  0  0  0  0
  4 12  1  0  0  0  0
  5 14  1  1  0  0  0
  6 15  1  0  0  0  0
  6 16  1  0  0  0  0
  6  5  1  0  0  0  0
  8  2  1  0  0  0  0
  9  2  1  0  0  0  0
 10  3  1  0  0  0  0
 13  4  1  0  0  0  0
 17 22  1  0  0  0  0
 17  1  1  0  0  0  0
 18 17  2  0  0  0  0
 19 20  2  0  0  0  0
 19 18  1  0  0  0  0
 20 21  1  0  0  0  0
 21 25  1  0  0  0  0
 21 22  2  0  0  0  0
 23 18  1  0  0  0  0
 24 19  1  0  0  0  0
 26  5  1  0  0  0  0
 26 27  1  0  0  0  0
 28 26  1  0  0  0  0
 29 26  1  0  0  0  0
 29 31  1  0  0  0  0
 30 29  1  0  0  0  0
 32 29  1  0  0  0  0
 33 32  2  0  0  0  0
 34 33  1  0  0  0  0
 35 34  1  0  0  0  0
M  END
>  <minimizedAffinity>
-4.53850555

$$$$

 OpenBabel03242519553D

 35 36  0  0  1  0  0  0  0  0999 V2000
   37.6830   28.3920   41.1130 C   0  0  2  0  0  0  0  0  0  0  0  0
   36.6780   28.0520   42.1460 C   0  0  0  0  0  0  0  0  0  0  0  0
   37.2440   28.0460   43.5250 C   0  0  0  0  0  0  0  0  0  0  0  0
   38.4700   27.1780   43.6800 C   0  0  0  0  0  0  0  0  0  0  0  0
   39.3610   27.1550   42.4790 C   0  0  2  0  0  0  0  0  0  0  0  0
   39.0990   28.3470   41.5790 C   0  0  0  0  0  0  0  0  0  0  0  0
   37.5690   27.6000   40.3070 H   0  0  0  0  0  0  0  0  0  0  0  0
   35.9110   28.8670   42.1330 H   0  0  0  0  0  0  0  0  0  0  0  0
   36.1010   27.1330   41.9240 H   0  0  0  0  0  0  0  0  0  0  0  0
   36.4580   27.5780   44.1870 H   0  0  0  0  0  0  0  0  0  0  0  0
   37.3860   29.0690   43.9070 H   0  0  0  0  0  0  0  0  0  0  0  0
   39.0410   27.6120   44.5300 H   0  0  0  0  0  0  0  0  0  0  0  0
   38.2150   26.1440   43.9900 H   0  0  0  0  0  0  0  0  0  0  0  0
   40.4410   27.2630   42.7960 H   0  0  0  0  0  0  0  0  0  0  0  0
   39.7680   28.1980   40.6750 H   0  0  0  0  0  0  0  0  0  0  0  0
   39.5050   29.1930   42.1050 H   0  0  0  0  0  0  0  0  0  0  0  0
   37.4290   29.6860   40.4550 C   0  0  0  0  0  0  0  0  0  0  0  0
   37.2440   29.5920   39.0780 C   0  0  0  0  0  0  0  0  0  0  0  0
   36.9760   30.7410   38.3290 C   0  0  0  0  0  0  0  0  0  0  0  0
   36.9130   31.9270   39.0410 N   0  0  0  0  0  0  0  0  0  0  0  0
   37.1010   31.9750   40.3740 C   0  0  0  0  0  0  0  0  0  0  0  0
   37.3550   30.8600   41.0620 N   0  0  0  0  0  0  0  0  0  0  0  0
   37.2570   28.8080   38.3350 H   0  0  0  0  0  0  0  0  0  0  0  0
   36.8030   30.9020   37.2980 H   0  0  0  0  0  0  0  0  0  0  0  0
   37.0440   32.9210   40.8850 H   0  0  0  0  0  0  0  0  0  0  0  0
   39.2520   25.8460   41.8000 C   0  0  0  0  0  0  0  0  0  0  0  0
   40.2860   25.4700   41.6150 H   0  0  0  0  0  0  0  0  0  0  0  0
   38.8020   26.0030   40.8140 H   0  0  0  0  0  0  0  0  0  0  0  0
   38.5100   24.7860   42.5160 C   0  0  0  0  0  0  0  0  0  0  0  0
   38.0960   25.1660   43.4810 H   0  0  0  0  0  0  0  0  0  0  0  0
   39.2110   23.9730   42.7720 H   0  0  0  0  0  0  0  0  0  0  0  0
   37.4030   24.1870   41.7560 C   0  0  0  0  0  3  0  0  0  0  0  0
   37.0330   24.6390   40.5610 C   0  0  0  0  0  3  0  0  0  0  0  0
   35.9120   24.0290   39.7980 C   0  0  0  0  0  2  0  0  0  0  0  0
   34.9650   24.0910   40.3730 H   0  0  0  0  0  0  0  0  0  0  0  0
  1  7  1  6  0  0  0
  1  6  1  0  0  0  0
  1  2  1  0  0  0  0
  2  3  1  0  0  0  0
  3  4  1  0  0  0  0
  3 11  1  0  0  0  0
  3 10  1  0  0  0  0
  4 13  1  0  0  0  0
  4 12  1  0  0  0  0
  5 14  1  1  0  0  0
  5  4  1  0  0  0  0
  6 16  1  0  0  0  0
  6  5  1  0  0  0  0
  8  2  1  0  0  0  0
  9  2  1  0  0  0  0
 15  6  1  0  0  0  0
 17 22  1  0  0  0  0
 17  1  1  0  0  0  0
 18 17  2  0  0  0  0
 19 20  2  0  0  0  0
 19 18  1  0  0  0  0
 20 21  1  0  0  0  0
 21 25  1  0  0  0  0
 21 22  2  0  0  0  0
 23 18  1  0  0  0  0
 24 19  1  0  0  0  0
 26  5  1  0  0  0  0
 26 29  1  0  0  0  0
 27 26  1  0  0  0  0
 28 26  1  0  0  0  0
 29 31  1  0  0  0  0
 29 30  1  0  0  0  0
 32 29  1  0  0  0  0
 33 32  2  0  0  0  0
 34 35  1  0  0  0  0
 34 33  1  0  0  0  0
M  END
>  <minimizedAffinity>
-4.53092575

$$$$
