
 OpenBabel03242519323D

 43 45  0  0  0  0  0  0  0  0999 V2000
   47.9090   33.8360   42.8530 C   0  0  0  0  0  0  0  0  0  0  0  0
   48.5750   35.0800   42.6460 C   0  0  0  0  0  0  0  0  0  0  0  0
   49.9400   35.0940   42.3350 C   0  0  0  0  0  0  0  0  0  0  0  0
   50.5590   33.8730   42.2500 N   0  0  0  0  0  0  0  0  0  0  0  0
   49.8760   32.6990   42.4590 C   0  0  0  0  0  0  0  0  0  0  0  0
   48.5860   32.7020   42.7510 N   0  0  0  0  0  0  0  0  0  0  0  0
   48.1430   36.0700   42.7000 H   0  0  0  0  0  0  0  0  0  0  0  0
   50.4840   35.9930   42.1710 H   0  0  0  0  0  0  0  0  0  0  0  0
   46.4870   33.9640   43.1740 C   0  0  0  0  0  0  0  0  0  0  0  0
   45.7740   34.9690   42.4250 C   0  0  0  0  0  0  0  0  0  0  0  0
   45.3070   36.1240   43.2240 C   0  0  0  0  0  0  0  0  0  0  0  0
   44.4400   35.6610   44.3970 C   0  0  0  0  0  0  0  0  0  0  0  0
   44.9820   34.4740   45.1080 C   0  0  0  0  0  0  0  0  0  0  0  0
   46.4300   34.2010   44.7230 C   0  0  0  0  0  0  0  0  0  0  0  0
   46.0230   32.9410   43.0460 H   0  0  0  0  0  0  0  0  0  0  0  0
   46.4220   35.3840   41.6020 H   0  0  0  0  0  0  0  0  0  0  0  0
   44.8830   34.5560   41.8990 H   0  0  0  0  0  0  0  0  0  0  0  0
   46.0540   36.7910   43.6410 H   0  0  0  0  0  0  0  0  0  0  0  0
   44.6330   36.7670   42.5960 H   0  0  0  0  0  0  0  0  0  0  0  0
   43.4130   35.4830   43.9970 H   0  0  0  0  0  0  0  0  0  0  0  0
   44.3290   36.4830   45.1410 H   0  0  0  0  0  0  0  0  0  0  0  0
   44.4250   33.5350   44.8830 H   0  0  0  0  0  0  0  0  0  0  0  0
   44.9790   34.6010   46.1980 H   0  0  0  0  0  0  0  0  0  0  0  0
   46.7210   33.2360   45.1670 H   0  0  0  0  0  0  0  0  0  0  0  0
   47.0940   35.0450   44.9860 H   0  0  0  0  0  0  0  0  0  0  0  0
   50.7060   31.5080   42.3300 C   0  0  0  0  0  0  0  0  0  0  0  0
   51.3770   31.2970   41.1870 N   0  0  0  0  0  0  0  0  0  0  0  0
   52.0760   30.1370   41.2960 C   0  0  0  0  0  0  0  0  0  0  0  0
   51.8200   29.6420   42.5220 N   0  0  0  0  0  0  0  0  0  0  0  0
   50.9880   30.4680   43.1590 N   0  0  0  0  0  0  0  0  0  0  0  0
   52.7230   29.6880   40.5300 H   0  0  0  0  0  0  0  0  0  0  0  0
   52.3500   28.4340   43.1120 C   0  0  0  0  0  0  0  0  0  0  0  0
   52.3580   27.5800   42.4580 H   0  0  0  0  0  0  0  0  0  0  0  0
   51.6840   28.1470   43.9750 H   0  0  0  0  0  0  0  0  0  0  0  0
   53.6700   28.7010   43.6790 C   0  0  0  0  0  3  0  0  0  0  0  0
   54.1660   29.6000   44.4970 C   0  0  0  0  0  3  0  0  0  0  0  0
   55.5840   29.7040   45.0740 C   0  0  0  0  0  0  0  0  0  0  0  0
   55.7750   30.7960   45.0650 H   0  0  0  0  0  0  0  0  0  0  0  0
   55.5240   29.2830   46.1050 H   0  0  0  0  0  0  0  0  0  0  0  0
   56.4780   28.9800   44.1680 C   0  0  0  0  0  2  0  0  0  0  0  0
   57.3930   28.3820   43.4280 C   0  0  0  0  0  2  0  0  0  0  0  0
   57.4280   27.4620   42.2340 C   0  0  0  0  0  2  0  0  0  0  0  0
   56.3470   27.3310   41.9130 H   0  0  0  0  0  0  0  0  0  0  0  0
  1  9  1  0  0  0  0
  2  7  1  0  0  0  0
  2  1  2  0  0  0  0
  3  2  1  0  0  0  0
  4  3  2  0  0  0  0
  4  5  1  0  0  0  0
  5  6  2  0  0  0  0
  6  1  1  0  0  0  0
  8  3  1  0  0  0  0
  9 14  1  0  0  0  0
 10  9  1  0  0  0  0
 10 11  1  0  0  0  0
 11 18  1  0  0  0  0
 11 12  1  0  0  0  0
 12 13  1  0  0  0  0
 12 21  1  0  0  0  0
 13 23  1  0  0  0  0
 14 25  1  0  0  0  0
 14 13  1  0  0  0  0
 14 24  1  0  0  0  0
 15  9  1  0  0  0  0
 16 10  1  0  0  0  0
 17 10  1  0  0  0  0
 19 11  1  0  0  0  0
 20 12  1  0  0  0  0
 22 13  1  0  0  0  0
 26  5  1  0  0  0  0
 26 30  2  0  0  0  0
 27 28  2  0  0  0  0
 27 26  1  0  0  0  0
 28 29  1  0  0  0  0
 29 32  1  0  0  0  0
 29 30  1  0  0  0  0
 31 28  1  0  0  0  0
 32 35  1  0  0  0  0
 32 34  1  0  0  0  0
 33 32  1  0  0  0  0
 35 36  2  0  0  0  0
 36 37  1  0  0  0  0
 37 39  1  0  0  0  0
 38 37  1  0  0  0  0
 40 37  1  0  0  0  0
 41 40  1  0  0  0  0
 42 41  1  0  0  0  0
 43 42  1  0  0  0  0
M  END
>  <minimizedAffinity>
-3.8530128

>  <minimizedRMSD>
0.220555723

$$$$
