
 OpenBabel03242519293D

 38 40  0  0  0  0  0  0  0  0999 V2000
   47.9150   33.8610   42.8630 C   0  0  0  0  0  0  0  0  0  0  0  0
   48.5670   35.1000   42.6470 C   0  0  0  0  0  0  0  0  0  0  0  0
   49.9290   35.1180   42.3250 C   0  0  0  0  0  0  0  0  0  0  0  0
   50.5560   33.9020   42.2380 N   0  0  0  0  0  0  0  0  0  0  0  0
   49.8780   32.7190   42.4570 C   0  0  0  0  0  0  0  0  0  0  0  0
   48.5910   32.7190   42.7600 N   0  0  0  0  0  0  0  0  0  0  0  0
   48.1590   36.0880   42.6940 H   0  0  0  0  0  0  0  0  0  0  0  0
   50.4930   36.0110   42.1460 H   0  0  0  0  0  0  0  0  0  0  0  0
   46.4890   33.9720   43.1980 C   0  0  0  0  0  0  0  0  0  0  0  0
   45.7690   34.9810   42.4410 C   0  0  0  0  0  0  0  0  0  0  0  0
   45.2980   36.1320   43.2380 C   0  0  0  0  0  0  0  0  0  0  0  0
   44.4270   35.6490   44.4060 C   0  0  0  0  0  0  0  0  0  0  0  0
   44.9860   34.4740   45.1330 C   0  0  0  0  0  0  0  0  0  0  0  0
   46.4260   34.2010   44.7310 C   0  0  0  0  0  0  0  0  0  0  0  0
   46.0400   32.9400   43.1060 H   0  0  0  0  0  0  0  0  0  0  0  0
   44.8580   34.5110   41.9840 H   0  0  0  0  0  0  0  0  0  0  0  0
   46.3430   35.3580   41.5680 H   0  0  0  0  0  0  0  0  0  0  0  0
   44.6120   36.7440   42.5930 H   0  0  0  0  0  0  0  0  0  0  0  0
   46.0510   36.7860   43.6740 H   0  0  0  0  0  0  0  0  0  0  0  0
   44.1670   36.5180   45.0490 H   0  0  0  0  0  0  0  0  0  0  0  0
   43.4650   35.3320   43.9280 H   0  0  0  0  0  0  0  0  0  0  0  0
   45.0470   34.7360   46.2240 H   0  0  0  0  0  0  0  0  0  0  0  0
   44.3800   33.5630   45.0650 H   0  0  0  0  0  0  0  0  0  0  0  0
   47.0450   35.0840   44.9840 H   0  0  0  0  0  0  0  0  0  0  0  0
   46.7540   33.2680   45.2200 H   0  0  0  0  0  0  0  0  0  0  0  0
   50.7120   31.5310   42.3280 C   0  0  0  0  0  0  0  0  0  0  0  0
   51.3530   31.3190   41.1550 N   0  0  0  0  0  0  0  0  0  0  0  0
   52.0670   30.1710   41.2520 C   0  0  0  0  0  0  0  0  0  0  0  0
   51.8580   29.6760   42.5070 N   0  0  0  0  0  0  0  0  0  0  0  0
   51.0310   30.5030   43.1650 N   0  0  0  0  0  0  0  0  0  0  0  0
   52.6870   29.7310   40.4810 H   0  0  0  0  0  0  0  0  0  0  0  0
   52.4210   28.4560   43.0680 C   0  0  0  0  0  0  0  0  0  0  0  0
   52.6990   27.7910   42.2130 H   0  0  0  0  0  0  0  0  0  0  0  0
   51.6790   27.9130   43.6870 H   0  0  0  0  0  0  0  0  0  0  0  0
   53.6470   28.8020   43.8220 C   0  0  0  0  0  0  0  0  0  0  0  0
   54.1630   29.6540   44.6910 C   0  0  0  0  0  0  0  0  0  0  0  0
   55.5380   29.7380   45.2990 C   0  0  0  0  0  0  0  0  0  0  0  0
   55.5180   29.4880   46.3700 H   0  0  0  0  0  0  0  0  0  0  0  0
  1  9  1  0  0  0  0
  2  7  1  0  0  0  0
  2  1  2  0  0  0  0
  3  2  1  0  0  0  0
  4  3  2  0  0  0  0
  4  5  1  0  0  0  0
  5  6  2  0  0  0  0
  6  1  1  0  0  0  0
  8  3  1  0  0  0  0
  9 14  1  0  0  0  0
 10  9  1  0  0  0  0
 10 11  1  0  0  0  0
 11 19  1  0  0  0  0
 11 12  1  0  0  0  0
 12 20  1  0  0  0  0
 12 13  1  0  0  0  0
 13 22  1  0  0  0  0
 14 24  1  0  0  0  0
 14 13  1  0  0  0  0
 14 25  1  0  0  0  0
 15  9  1  0  0  0  0
 16 10  1  0  0  0  0
 17 10  1  0  0  0  0
 18 11  1  0  0  0  0
 21 12  1  0  0  0  0
 23 13  1  0  0  0  0
 26  5  1  0  0  0  0
 26 30  2  0  0  0  0
 27 28  2  0  0  0  0
 27 26  1  0  0  0  0
 28 29  1  0  0  0  0
 29 32  1  0  0  0  0
 29 30  1  0  0  0  0
 31 28  1  0  0  0  0
 32 34  1  0  0  0  0
 32 35  1  0  0  0  0
 33 32  1  0  0  0  0
 35 36  2  0  0  0  0
 36 37  1  0  0  0  0
 37 38  1  0  0  0  0
M  END
>  <minimizedAffinity>
-4.12059641

>  <minimizedRMSD>
0.931034565

$$$$
