
 OpenBabel03252509303D

 16 16  0  0  0  0  0  0  0  0999 V2000
   44.5640   35.9940   44.4820 C   0  0  0  0  0  0  0  0  0  0  0  0
   45.3310   35.9010   43.2880 C   0  0  0  0  0  0  0  0  0  0  0  0
   46.2250   34.8450   43.1820 C   0  0  0  0  0  0  0  0  0  0  0  0
   46.3270   33.9580   44.2090 N   0  0  0  0  0  0  0  0  0  0  0  0
   45.5700   34.0830   45.3400 C   0  0  0  0  0  0  0  0  0  0  0  0
   44.7000   35.1010   45.4570 N   0  0  0  0  0  0  0  0  0  0  0  0
   43.8580   36.8150   44.5830 H   0  0  0  0  0  0  0  0  0  0  0  0
   45.1720   36.6580   42.5360 H   0  0  0  0  0  0  0  0  0  0  0  0
   45.7530   33.3090   46.0750 H   0  0  0  0  0  0  0  0  0  0  0  0
   47.0060   34.7610   41.9530 C   0  0  0  0  0  0  0  0  0  0  0  0
   47.8230   34.0520   42.1170 H   0  0  0  0  0  0  0  0  0  0  0  0
   47.3940   35.7570   41.6690 H   0  0  0  0  0  0  0  0  0  0  0  0
   46.2140   34.2610   40.7870 C   0  0  0  0  0  3  0  0  0  0  0  0
   46.0300   33.0110   40.3730 C   0  0  0  0  0  3  0  0  0  0  0  0
   45.2220   32.5960   39.1950 C   0  0  0  0  0  2  0  0  0  0  0  0
   44.2260   32.2000   39.4890 H   0  0  0  0  0  0  0  0  0  0  0  0
  1  7  1  0  0  0  0
  1  6  1  0  0  0  0
  2  1  2  0  0  0  0
  3  2  1  0  0  0  0
  3  4  2  0  0  0  0
  4  5  1  0  0  0  0
  5  6  2  0  0  0  0
  5  9  1  0  0  0  0
  8  2  1  0  0  0  0
 10 11  1  0  0  0  0
 10  3  1  0  0  0  0
 12 10  1  0  0  0  0
 13 10  1  0  0  0  0
 14 13  2  0  0  0  0
 15 16  1  0  0  0  0
 15 14  1  0  0  0  0
M  END
>  <minimizedAffinity>
-3.33026624

>  <minimizedRMSD>
0.325049371

$$$$
