
 OpenBabel03242513533D

 34 35  0  0  1  0  0  0  0  0999 V2000
   46.2980   34.7990   43.4280 C   0  0  2  0  0  0  0  0  0  0  0  0
   45.7690   33.8570   44.4650 C   0  0  0  0  0  0  0  0  0  0  0  0
   45.0260   34.8470   45.3390 C   0  0  0  0  0  0  0  0  0  0  0  0
   44.4150   35.7810   44.4060 C   0  0  0  0  0  0  0  0  0  0  0  0
   45.0270   35.4610   42.9550 C   0  0  2  0  0  0  0  0  0  0  0  0
   46.8710   35.6080   43.9340 H   0  0  0  0  0  0  0  0  0  0  0  0
   45.0010   33.1700   44.0670 H   0  0  0  0  0  0  0  0  0  0  0  0
   46.5650   33.3290   45.0250 H   0  0  0  0  0  0  0  0  0  0  0  0
   44.3450   34.3510   46.0610 H   0  0  0  0  0  0  0  0  0  0  0  0
   45.8100   35.3760   45.9400 H   0  0  0  0  0  0  0  0  0  0  0  0
   44.5960   36.8550   44.5920 H   0  0  0  0  0  0  0  0  0  0  0  0
   43.3380   35.6190   44.3360 H   0  0  0  0  0  0  0  0  0  0  0  0
   45.1620   36.4220   42.4530 H   0  0  0  0  0  0  0  0  0  0  0  0
   48.2790   34.1020   40.3200 C   0  0  0  0  0  0  0  0  0  0  0  0
   47.6220   34.8620   41.3010 C   0  0  0  0  0  0  0  0  0  0  0  0
   47.0170   34.1730   42.2970 C   0  0  0  0  0  0  0  0  0  0  0  0
   47.0850   32.7760   42.2860 N   0  0  0  0  0  0  0  0  0  0  0  0
   47.7170   32.0810   41.3400 C   0  0  0  0  0  0  0  0  0  0  0  0
   48.3160   32.7490   40.3540 N   0  0  0  0  0  0  0  0  0  0  0  0
   48.7720   34.6450   39.5080 H   0  0  0  0  0  0  0  0  0  0  0  0
   47.5860   35.9380   41.2860 H   0  0  0  0  0  0  0  0  0  0  0  0
   47.7010   31.0070   41.4370 H   0  0  0  0  0  0  0  0  0  0  0  0
   44.1450   34.5860   42.3480 O   0  0  0  0  0  0  0  0  0  0  0  0
   43.5530   34.7520   41.1180 C   0  0  0  0  0  0  0  0  0  0  0  0
   44.2470   34.1090   40.2670 O   0  0  0  0  0  0  0  0  0  0  0  0
   42.4570   35.3520   40.3310 C   0  0  0  0  0  0  0  0  0  0  0  0
   42.2110   35.2370   39.0120 C   0  0  0  0  0  0  0  0  0  0  0  0
   41.1560   35.8010   38.1440 C   0  0  0  0  0  0  0  0  0  0  0  0
   40.6420   36.6710   38.6000 H   0  0  0  0  0  0  0  0  0  0  0  0
   41.6650   36.2130   37.2400 H   0  0  0  0  0  0  0  0  0  0  0  0
   40.2070   34.7720   37.6460 C   0  0  0  0  0  0  0  0  0  0  0  0
   39.1320   34.3780   38.2980 C   0  0  0  0  0  0  0  0  0  0  0  0
   38.1880   33.3450   37.7870 C   0  0  0  0  0  0  0  0  0  0  0  0
   37.2030   33.4320   38.2560 H   0  0  0  0  0  0  0  0  0  0  0  0
  1  6  1  1  0  0  0
  1  2  1  0  0  0  0
  2  8  1  0  0  0  0
  2  3  1  0  0  0  0
  3 10  1  0  0  0  0
  3  9  1  0  0  0  0
  4 11  1  0  0  0  0
  4  3  1  0  0  0  0
  5 13  1  6  0  0  0
  5  1  1  0  0  0  0
  5  4  1  0  0  0  0
  7  2  1  0  0  0  0
 12  4  1  0  0  0  0
 14 19  2  0  0  0  0
 14 15  1  0  0  0  0
 15 16  2  0  0  0  0
 16  1  1  0  0  0  0
 17 16  1  0  0  0  0
 18 22  1  0  0  0  0
 18 17  2  0  0  0  0
 19 18  1  0  0  0  0
 20 14  1  0  0  0  0
 21 15  1  0  0  0  0
 23  5  1  0  0  0  0
 24 23  1  0  0  0  0
 25 24  2  0  0  0  0
 26 24  1  0  0  0  0
 27 26  2  0  0  0  0
 28 29  1  0  0  0  0
 28 27  1  0  0  0  0
 30 28  1  0  0  0  0
 31 28  1  0  0  0  0
 31 32  2  0  0  0  0
 33 34  1  0  0  0  0
 33 32  1  0  0  0  0
M  END
>  <minimizedAffinity>
-5.44401884

>  <minimizedRMSD>
1.5081743

$$$$
