
 OpenBabel03252509303D

 16 16  0  0  0  0  0  0  0  0999 V2000
   39.3890   30.8460   41.9140 C   0  0  0  0  0  0  0  0  0  0  0  0
   39.0050   29.8250   42.8260 C   0  0  0  0  0  0  0  0  0  0  0  0
   37.7120   29.3330   42.7290 C   0  0  0  0  0  0  0  0  0  0  0  0
   36.8790   29.8420   41.7790 N   0  0  0  0  0  0  0  0  0  0  0  0
   37.2890   30.8240   40.9200 C   0  0  0  0  0  0  0  0  0  0  0  0
   38.5390   31.3100   41.0030 N   0  0  0  0  0  0  0  0  0  0  0  0
   40.4000   31.2440   41.9740 H   0  0  0  0  0  0  0  0  0  0  0  0
   39.7440   29.4940   43.5390 H   0  0  0  0  0  0  0  0  0  0  0  0
   36.5260   31.1350   40.2170 H   0  0  0  0  0  0  0  0  0  0  0  0
   37.3290   28.2870   43.6690 C   0  0  0  0  0  0  0  0  0  0  0  0
   36.5150   28.6700   44.2910 H   0  0  0  0  0  0  0  0  0  0  0  0
   38.1940   27.9840   44.2880 H   0  0  0  0  0  0  0  0  0  0  0  0
   36.8280   27.0480   42.9970 C   0  0  0  0  0  3  0  0  0  0  0  0
   37.5200   26.0700   42.4220 C   0  0  0  0  0  3  0  0  0  0  0  0
   36.9400   24.8630   41.7700 C   0  0  0  0  0  2  0  0  0  0  0  0
   37.0110   23.9630   42.4190 H   0  0  0  0  0  0  0  0  0  0  0  0
  1  7  1  0  0  0  0
  1  2  1  0  0  0  0
  2  8  1  0  0  0  0
  3  2  2  0  0  0  0
  3 10  1  0  0  0  0
  4  3  1  0  0  0  0
  5  6  1  0  0  0  0
  5  4  2  0  0  0  0
  6  1  2  0  0  0  0
  9  5  1  0  0  0  0
 10 12  1  0  0  0  0
 10 11  1  0  0  0  0
 13 10  1  0  0  0  0
 14 13  2  0  0  0  0
 15 16  1  0  0  0  0
 15 14  1  0  0  0  0
M  END
>  <minimizedAffinity>
-3.63794589

$$$$

 OpenBabel03252509303D

 16 16  0  0  0  0  0  0  0  0999 V2000
   35.5490   28.6930   40.6590 C   0  0  0  0  0  0  0  0  0  0  0  0
   36.4150   28.3880   41.7460 C   0  0  0  0  0  0  0  0  0  0  0  0
   37.2750   29.3880   42.1770 C   0  0  0  0  0  0  0  0  0  0  0  0
   37.2530   30.5970   41.5520 N   0  0  0  0  0  0  0  0  0  0  0  0
   36.4030   30.8480   40.5110 C   0  0  0  0  0  0  0  0  0  0  0  0
   35.5650   29.8900   40.0820 N   0  0  0  0  0  0  0  0  0  0  0  0
   34.8670   27.9220   40.3070 H   0  0  0  0  0  0  0  0  0  0  0  0
   36.3510   27.3980   42.1680 H   0  0  0  0  0  0  0  0  0  0  0  0
   36.4910   31.8500   40.1080 H   0  0  0  0  0  0  0  0  0  0  0  0
   38.1590   29.0650   43.2910 C   0  0  0  0  0  0  0  0  0  0  0  0
   37.6430   29.3200   44.2210 H   0  0  0  0  0  0  0  0  0  0  0  0
   39.1150   29.6140   43.2020 H   0  0  0  0  0  0  0  0  0  0  0  0
   38.5070   27.6110   43.3630 C   0  0  0  0  0  3  0  0  0  0  0  0
   39.6900   27.0430   43.5720 C   0  0  0  0  0  3  0  0  0  0  0  0
   39.9520   25.5780   43.6290 C   0  0  0  0  0  2  0  0  0  0  0  0
   40.0610   25.2130   44.6730 H   0  0  0  0  0  0  0  0  0  0  0  0
  1  2  1  0  0  0  0
  2  8  1  0  0  0  0
  2  3  2  0  0  0  0
  3 10  1  0  0  0  0
  4  3  1  0  0  0  0
  5  4  2  0  0  0  0
  6  5  1  0  0  0  0
  6  1  2  0  0  0  0
  7  1  1  0  0  0  0
  9  5  1  0  0  0  0
 10 13  1  0  0  0  0
 10 11  1  0  0  0  0
 12 10  1  0  0  0  0
 13 14  2  0  0  0  0
 14 15  1  0  0  0  0
 15 16  1  0  0  0  0
M  END
>  <minimizedAffinity>
-3.54973817

$$$$

 OpenBabel03252509303D

 16 16  0  0  0  0  0  0  0  0999 V2000
   35.5580   29.7560   40.2180 C   0  0  0  0  0  0  0  0  0  0  0  0
   35.6920   28.5850   41.0140 C   0  0  0  0  0  0  0  0  0  0  0  0
   36.7040   28.5690   41.9630 C   0  0  0  0  0  0  0  0  0  0  0  0
   37.5110   29.6580   42.0900 N   0  0  0  0  0  0  0  0  0  0  0  0
   37.3470   30.7650   41.3050 C   0  0  0  0  0  0  0  0  0  0  0  0
   36.3720   30.7940   40.3810 N   0  0  0  0  0  0  0  0  0  0  0  0
   34.7700   29.7880   39.4690 H   0  0  0  0  0  0  0  0  0  0  0  0
   34.9990   27.7790   40.8310 H   0  0  0  0  0  0  0  0  0  0  0  0
   38.0580   31.5550   41.5120 H   0  0  0  0  0  0  0  0  0  0  0  0
   36.8330   27.3630   42.7730 C   0  0  0  0  0  0  0  0  0  0  0  0
   35.8460   27.1140   43.1730 H   0  0  0  0  0  0  0  0  0  0  0  0
   37.5660   27.5160   43.5860 H   0  0  0  0  0  0  0  0  0  0  0  0
   37.3040   26.1780   41.9900 C   0  0  0  0  0  3  0  0  0  0  0  0
   36.9760   24.8970   42.1310 C   0  0  0  0  0  3  0  0  0  0  0  0
   37.4950   23.7720   41.3050 C   0  0  0  0  0  2  0  0  0  0  0  0
   36.7600   23.4430   40.5390 H   0  0  0  0  0  0  0  0  0  0  0  0
  1  6  2  0  0  0  0
  1  2  1  0  0  0  0
  2  3  2  0  0  0  0
  3  4  1  0  0  0  0
  3 10  1  0  0  0  0
  5  9  1  0  0  0  0
  5  4  2  0  0  0  0
  6  5  1  0  0  0  0
  7  1  1  0  0  0  0
  8  2  1  0  0  0  0
 10 11  1  0  0  0  0
 10 12  1  0  0  0  0
 13 14  2  0  0  0  0
 13 10  1  0  0  0  0
 15 14  1  0  0  0  0
 16 15  1  0  0  0  0
M  END
>  <minimizedAffinity>
-3.50804448

$$$$

 OpenBabel03252509303D

 16 16  0  0  0  0  0  0  0  0999 V2000
   38.4280   28.7040   43.3010 C   0  0  0  0  0  0  0  0  0  0  0  0
   37.7040   29.5650   42.4300 C   0  0  0  0  0  0  0  0  0  0  0  0
   36.7530   28.9860   41.6020 C   0  0  0  0  0  0  0  0  0  0  0  0
   36.5570   27.6400   41.6600 N   0  0  0  0  0  0  0  0  0  0  0  0
   37.2740   26.8480   42.5130 C   0  0  0  0  0  0  0  0  0  0  0  0
   38.1990   27.3960   43.3200 N   0  0  0  0  0  0  0  0  0  0  0  0
   39.1770   29.1400   43.9570 H   0  0  0  0  0  0  0  0  0  0  0  0
   37.9390   30.6170   42.4650 H   0  0  0  0  0  0  0  0  0  0  0  0
   37.0160   25.7980   42.4540 H   0  0  0  0  0  0  0  0  0  0  0  0
   36.0180   29.8770   40.7130 C   0  0  0  0  0  0  0  0  0  0  0  0
   34.9900   29.9510   41.0790 H   0  0  0  0  0  0  0  0  0  0  0  0
   36.0450   29.5000   39.6740 H   0  0  0  0  0  0  0  0  0  0  0  0
   36.5770   31.2650   40.6790 C   0  0  0  0  0  3  0  0  0  0  0  0
   36.9830   31.9780   39.6330 C   0  0  0  0  0  3  0  0  0  0  0  0
   37.5300   33.3620   39.6860 C   0  0  0  0  0  2  0  0  0  0  0  0
   36.7780   34.1210   39.3810 H   0  0  0  0  0  0  0  0  0  0  0  0
  1  6  1  0  0  0  0
  1  7  1  0  0  0  0
  2  8  1  0  0  0  0
  2  1  2  0  0  0  0
  3  4  2  0  0  0  0
  3  2  1  0  0  0  0
  4  5  1  0  0  0  0
  5  6  2  0  0  0  0
  9  5  1  0  0  0  0
 10 11  1  0  0  0  0
 10  3  1  0  0  0  0
 12 10  1  0  0  0  0
 13 10  1  0  0  0  0
 14 15  1  0  0  0  0
 14 13  2  0  0  0  0
 16 15  1  0  0  0  0
M  END
>  <minimizedAffinity>
-3.4926722

$$$$

 OpenBabel03252509303D

 16 16  0  0  0  0  0  0  0  0999 V2000
   37.2850   24.9120   42.1040 C   0  0  0  0  0  0  0  0  0  0  0  0
   37.2640   26.3010   42.4120 C   0  0  0  0  0  0  0  0  0  0  0  0
   38.3930   26.8410   43.0090 C   0  0  0  0  0  0  0  0  0  0  0  0
   39.4570   26.0310   43.2700 N   0  0  0  0  0  0  0  0  0  0  0  0
   39.4360   24.7000   42.9570 C   0  0  0  0  0  0  0  0  0  0  0  0
   38.3480   24.1630   42.3790 N   0  0  0  0  0  0  0  0  0  0  0  0
   36.4090   24.4710   41.6350 H   0  0  0  0  0  0  0  0  0  0  0  0
   36.3700   26.8500   42.1630 H   0  0  0  0  0  0  0  0  0  0  0  0
   40.3470   24.1770   43.2200 H   0  0  0  0  0  0  0  0  0  0  0  0
   38.3600   28.2650   43.3210 C   0  0  0  0  0  0  0  0  0  0  0  0
   39.3180   28.7010   43.0240 H   0  0  0  0  0  0  0  0  0  0  0  0
   38.1680   28.4230   44.3990 H   0  0  0  0  0  0  0  0  0  0  0  0
   37.2900   29.0030   42.5820 C   0  0  0  0  0  3  0  0  0  0  0  0
   37.4080   30.0130   41.7260 C   0  0  0  0  0  3  0  0  0  0  0  0
   36.2840   30.6970   41.0290 C   0  0  0  0  0  2  0  0  0  0  0  0
   36.1810   30.3640   39.9740 H   0  0  0  0  0  0  0  0  0  0  0  0
  1  6  2  0  0  0  0
  1  2  1  0  0  0  0
  2  3  2  0  0  0  0
  3  4  1  0  0  0  0
  3 10  1  0  0  0  0
  5  9  1  0  0  0  0
  5  4  2  0  0  0  0
  6  5  1  0  0  0  0
  7  1  1  0  0  0  0
  8  2  1  0  0  0  0
 10 12  1  0  0  0  0
 11 10  1  0  0  0  0
 13 10  1  0  0  0  0
 14 13  2  0  0  0  0
 15 14  1  0  0  0  0
 16 15  1  0  0  0  0
M  END
>  <minimizedAffinity>
-3.34956908

$$$$

 OpenBabel03252509303D

 16 16  0  0  0  0  0  0  0  0999 V2000
   37.2700   31.3370   38.1460 C   0  0  0  0  0  0  0  0  0  0  0  0
   36.5070   30.2520   38.6590 C   0  0  0  0  0  0  0  0  0  0  0  0
   36.1920   30.2730   40.0100 C   0  0  0  0  0  0  0  0  0  0  0  0
   36.6200   31.3150   40.7740 N   0  0  0  0  0  0  0  0  0  0  0  0
   37.3520   32.3390   40.2410 C   0  0  0  0  0  0  0  0  0  0  0  0
   37.6650   32.3320   38.9340 N   0  0  0  0  0  0  0  0  0  0  0  0
   37.5270   31.3380   37.0900 H   0  0  0  0  0  0  0  0  0  0  0  0
   36.2190   29.4770   37.9660 H   0  0  0  0  0  0  0  0  0  0  0  0
   37.6260   33.1000   40.9610 H   0  0  0  0  0  0  0  0  0  0  0  0
   35.4090   29.1550   40.5240 C   0  0  0  0  0  0  0  0  0  0  0  0
   35.1950   28.4780   39.6930 H   0  0  0  0  0  0  0  0  0  0  0  0
   34.4750   29.5180   40.9940 H   0  0  0  0  0  0  0  0  0  0  0  0
   36.1320   28.3630   41.5670 C   0  0  0  0  0  3  0  0  0  0  0  0
   36.9070   27.2930   41.4170 C   0  0  0  0  0  3  0  0  0  0  0  0
   37.5940   26.5580   42.5150 C   0  0  0  0  0  2  0  0  0  0  0  0
   38.6740   26.8130   42.5770 H   0  0  0  0  0  0  0  0  0  0  0  0
  1  2  2  0  0  0  0
  1  6  1  0  0  0  0
  2  3  1  0  0  0  0
  3 10  1  0  0  0  0
  3  4  2  0  0  0  0
  5  4  1  0  0  0  0
  5  9  1  0  0  0  0
  6  5  2  0  0  0  0
  7  1  1  0  0  0  0
  8  2  1  0  0  0  0
 10 12  1  0  0  0  0
 10 13  1  0  0  0  0
 11 10  1  0  0  0  0
 14 13  2  0  0  0  0
 14 15  1  0  0  0  0
 15 16  1  0  0  0  0
M  END
>  <minimizedAffinity>
-3.33140349

$$$$

 OpenBabel03252509303D

 16 16  0  0  0  0  0  0  0  0999 V2000
   40.0980   25.4530   43.5270 C   0  0  0  0  0  0  0  0  0  0  0  0
   39.4000   26.6870   43.6450 C   0  0  0  0  0  0  0  0  0  0  0  0
   38.1610   26.7820   43.0280 C   0  0  0  0  0  0  0  0  0  0  0  0
   37.6750   25.7070   42.3480 N   0  0  0  0  0  0  0  0  0  0  0  0
   38.3780   24.5390   42.2600 C   0  0  0  0  0  0  0  0  0  0  0  0
   39.5800   24.4320   42.8530 N   0  0  0  0  0  0  0  0  0  0  0  0
   41.0710   25.3590   44.0050 H   0  0  0  0  0  0  0  0  0  0  0  0
   39.8770   27.4740   44.2070 H   0  0  0  0  0  0  0  0  0  0  0  0
   37.8740   23.7680   41.6910 H   0  0  0  0  0  0  0  0  0  0  0  0
   37.4550   28.0520   43.1550 C   0  0  0  0  0  0  0  0  0  0  0  0
   36.9130   28.0470   44.1050 H   0  0  0  0  0  0  0  0  0  0  0  0
   36.7650   28.2000   42.3030 H   0  0  0  0  0  0  0  0  0  0  0  0
   38.3710   29.2340   43.1740 C   0  0  0  0  0  3  0  0  0  0  0  0
   38.7120   30.0450   42.1780 C   0  0  0  0  0  3  0  0  0  0  0  0
   39.6370   31.2070   42.2820 C   0  0  0  0  0  2  0  0  0  0  0  0
   39.0910   32.1740   42.3240 H   0  0  0  0  0  0  0  0  0  0  0  0
  1  2  1  0  0  0  0
  1  7  1  0  0  0  0
  2  8  1  0  0  0  0
  3 10  1  0  0  0  0
  3  2  2  0  0  0  0
  4  3  1  0  0  0  0
  5  4  2  0  0  0  0
  5  6  1  0  0  0  0
  6  1  2  0  0  0  0
  9  5  1  0  0  0  0
 10 13  1  0  0  0  0
 10 11  1  0  0  0  0
 12 10  1  0  0  0  0
 14 15  1  0  0  0  0
 14 13  2  0  0  0  0
 15 16  1  0  0  0  0
M  END
>  <minimizedAffinity>
-3.32726455

$$$$

 OpenBabel03252509303D

 16 16  0  0  0  0  0  0  0  0999 V2000
   37.3850   32.2280   39.9530 C   0  0  0  0  0  0  0  0  0  0  0  0
   37.6320   31.2240   40.9300 C   0  0  0  0  0  0  0  0  0  0  0  0
   38.8550   31.2530   41.5820 C   0  0  0  0  0  0  0  0  0  0  0  0
   39.7530   32.2260   41.2640 N   0  0  0  0  0  0  0  0  0  0  0  0
   39.4750   33.1740   40.3180 C   0  0  0  0  0  0  0  0  0  0  0  0
   38.2940   33.1570   39.6780 N   0  0  0  0  0  0  0  0  0  0  0  0
   36.4310   32.2210   39.4310 H   0  0  0  0  0  0  0  0  0  0  0  0
   36.8520   30.5000   41.1040 H   0  0  0  0  0  0  0  0  0  0  0  0
   40.2770   33.8850   40.1660 H   0  0  0  0  0  0  0  0  0  0  0  0
   39.0980   30.2190   42.5810 C   0  0  0  0  0  0  0  0  0  0  0  0
   39.0790   30.6880   43.5690 H   0  0  0  0  0  0  0  0  0  0  0  0
   40.0660   29.7180   42.3960 H   0  0  0  0  0  0  0  0  0  0  0  0
   38.0550   29.1460   42.5810 C   0  0  0  0  0  3  0  0  0  0  0  0
   37.5740   28.4460   43.6040 C   0  0  0  0  0  3  0  0  0  0  0  0
   36.5300   27.3890   43.5180 C   0  0  0  0  0  2  0  0  0  0  0  0
   35.5340   27.7570   43.8450 H   0  0  0  0  0  0  0  0  0  0  0  0
  1  2  1  0  0  0  0
  2  8  1  0  0  0  0
  2  3  2  0  0  0  0
  3 10  1  0  0  0  0
  4  3  1  0  0  0  0
  5  4  2  0  0  0  0
  6  1  2  0  0  0  0
  6  5  1  0  0  0  0
  7  1  1  0  0  0  0
  9  5  1  0  0  0  0
 10 13  1  0  0  0  0
 10 11  1  0  0  0  0
 12 10  1  0  0  0  0
 13 14  2  0  0  0  0
 15 14  1  0  0  0  0
 15 16  1  0  0  0  0
M  END
>  <minimizedAffinity>
-3.27199841

$$$$

 OpenBabel03252509303D

 16 16  0  0  0  0  0  0  0  0999 V2000
   39.6240   25.3680   42.0730 C   0  0  0  0  0  0  0  0  0  0  0  0
   38.8360   26.4770   42.4850 C   0  0  0  0  0  0  0  0  0  0  0  0
   37.4600   26.3040   42.5290 C   0  0  0  0  0  0  0  0  0  0  0  0
   36.9330   25.0970   42.1820 N   0  0  0  0  0  0  0  0  0  0  0  0
   37.7270   24.0550   41.7920 C   0  0  0  0  0  0  0  0  0  0  0  0
   39.0620   24.2090   41.7440 N   0  0  0  0  0  0  0  0  0  0  0  0
   40.7050   25.4850   42.0320 H   0  0  0  0  0  0  0  0  0  0  0  0
   39.3550   27.3880   42.7380 H   0  0  0  0  0  0  0  0  0  0  0  0
   37.1770   23.1560   41.5440 H   0  0  0  0  0  0  0  0  0  0  0  0
   36.6620   27.4480   42.9530 C   0  0  0  0  0  0  0  0  0  0  0  0
   37.1350   27.8850   43.8360 H   0  0  0  0  0  0  0  0  0  0  0  0
   35.6220   27.1390   43.1690 H   0  0  0  0  0  0  0  0  0  0  0  0
   36.5810   28.5230   41.9160 C   0  0  0  0  0  3  0  0  0  0  0  0
   35.6870   28.6850   40.9460 C   0  0  0  0  0  3  0  0  0  0  0  0
   35.6780   29.7900   39.9480 C   0  0  0  0  0  2  0  0  0  0  0  0
   34.9270   30.5720   40.1970 H   0  0  0  0  0  0  0  0  0  0  0  0
  1  2  1  0  0  0  0
  2  3  2  0  0  0  0
  2  8  1  0  0  0  0
  3 10  1  0  0  0  0
  4  3  1  0  0  0  0
  5  4  2  0  0  0  0
  6  5  1  0  0  0  0
  6  1  2  0  0  0  0
  7  1  1  0  0  0  0
  9  5  1  0  0  0  0
 10 12  1  0  0  0  0
 10 11  1  0  0  0  0
 13 10  1  0  0  0  0
 14 13  2  0  0  0  0
 15 16  1  0  0  0  0
 15 14  1  0  0  0  0
M  END
>  <minimizedAffinity>
-3.19937587

$$$$
