
 OpenBabel03252503433D

 29 30  0  0  1  0  0  0  0  0999 V2000
   44.9760   35.0990   44.9830 C   0  0  0  0  0  0  0  0  0  0  0  0
   45.4160   34.7100   43.7050 C   0  0  0  0  0  0  0  0  0  0  0  0
   45.9930   33.4350   43.6050 C   0  0  0  0  0  0  0  0  0  0  0  0
   46.0900   32.6760   44.7010 N   0  0  0  0  0  0  0  0  0  0  0  0
   45.6570   33.0830   45.9030 C   0  0  0  0  0  0  0  0  0  0  0  0
   45.0970   34.2990   46.0540 N   0  0  0  0  0  0  0  0  0  0  0  0
   44.5200   36.0680   45.1460 H   0  0  0  0  0  0  0  0  0  0  0  0
   46.3150   33.1760   42.6280 H   0  0  0  0  0  0  0  0  0  0  0  0
   47.2650   32.0330   47.5090 C   0  0  2  0  0  0  0  0  0  0  0  0
   45.8030   32.1470   47.0160 C   0  0  1  0  0  0  0  0  0  0  0  0
   45.1730   32.5130   48.1730 O   0  0  0  0  0  0  0  0  0  0  0  0
   45.6700   31.7110   49.1660 C   0  0  0  0  0  0  0  0  0  0  0  0
   46.9840   31.1210   48.7160 C   0  0  2  0  0  0  0  0  0  0  0  0
   47.9080   31.5660   46.7650 H   0  0  0  0  0  0  0  0  0  0  0  0
   45.5100   31.1450   46.6450 H   0  0  0  0  0  0  0  0  0  0  0  0
   45.8840   32.2730   50.1020 H   0  0  0  0  0  0  0  0  0  0  0  0
   44.9250   30.9430   49.4330 H   0  0  0  0  0  0  0  0  0  0  0  0
   46.8030   30.1210   48.3070 H   0  0  0  0  0  0  0  0  0  0  0  0
   47.6400   33.2350   48.0080 O   0  0  0  0  0  0  0  0  0  0  0  0
   47.5280   34.0080   47.3880 H   0  0  0  0  0  0  0  0  0  0  0  0
   47.9850   31.1760   49.6560 O   0  0  0  0  0  0  0  0  0  0  0  0
   47.5440   31.4160   50.5190 H   0  0  0  0  0  0  0  0  0  0  0  0
   45.2060   35.6750   42.6060 C   0  0  0  0  0  0  0  0  0  0  0  0
   45.5010   36.6790   42.9840 H   0  0  0  0  0  0  0  0  0  0  0  0
   45.9320   35.4780   41.7690 H   0  0  0  0  0  0  0  0  0  0  0  0
   43.8050   35.6600   42.1270 C   0  0  0  0  0  3  0  0  0  0  0  0
   43.0880   35.1500   41.1470 C   0  0  0  0  0  3  0  0  0  0  0  0
   43.3480   34.2900   39.9710 C   0  0  0  0  0  2  0  0  0  0  0  0
   44.3620   33.8680   39.9180 H   0  0  0  0  0  0  0  0  0  0  0  0
  1  7  1  0  0  0  0
  1  6  1  0  0  0  0
  2  1  2  0  0  0  0
  3  2  1  0  0  0  0
  3  4  2  0  0  0  0
  4  5  1  0  0  0  0
  5  6  2  0  0  0  0
  5 10  1  0  0  0  0
  8  3  1  0  0  0  0
  9 14  1  6  0  0  0
  9 19  1  0  0  0  0
  9 13  1  0  0  0  0
 10 15  1  6  0  0  0
 10  9  1  0  0  0  0
 10 11  1  0  0  0  0
 11 12  1  0  0  0  0
 12 17  1  0  0  0  0
 12 16  1  0  0  0  0
 13 18  1  6  0  0  0
 13 12  1  0  0  0  0
 13 21  1  0  0  0  0
 20 19  1  0  0  0  0
 21 22  1  0  0  0  0
 23 24  1  0  0  0  0
 23  2  1  0  0  0  0
 25 23  1  0  0  0  0
 26 23  1  0  0  0  0
 27 26  2  0  0  0  0
 28 27  1  0  0  0  0
 29 28  1  0  0  0  0
M  END
>  <minimizedAffinity>
-5.52674913

>  <minimizedRMSD>
0.824347913

$$$$
