
 OpenBabel03242517553D

 38 39  0  0  0  0  0  0  0  0999 V2000
   45.3150   34.2490   43.7710 C   0  0  0  0  0  0  0  0  0  0  0  0
   46.4750   34.7530   43.1490 C   0  0  0  0  0  0  0  0  0  0  0  0
   47.6590   34.0790   43.2860 C   0  0  0  0  0  0  0  0  0  0  0  0
   47.6230   32.9580   44.0240 N   0  0  0  0  0  0  0  0  0  0  0  0
   46.5350   32.4850   44.6080 C   0  0  0  0  0  0  0  0  0  0  0  0
   45.3790   33.1300   44.4830 N   0  0  0  0  0  0  0  0  0  0  0  0
   44.3740   34.7740   43.6690 H   0  0  0  0  0  0  0  0  0  0  0  0
   46.3260   35.6610   42.5920 H   0  0  0  0  0  0  0  0  0  0  0  0
   48.9150   34.5090   42.6630 C   0  0  0  0  0  0  0  0  0  0  0  0
   49.5730   34.8620   43.5090 H   0  0  0  0  0  0  0  0  0  0  0  0
   49.4720   33.6840   42.1730 H   0  0  0  0  0  0  0  0  0  0  0  0
   48.7400   35.6650   41.7240 C   0  0  0  0  0  0  0  0  0  0  0  0
   48.0020   36.3760   42.0430 H   0  0  0  0  0  0  0  0  0  0  0  0
   49.7310   36.2240   41.7720 H   0  0  0  0  0  0  0  0  0  0  0  0
   48.6030   35.2650   40.3230 C   0  0  0  0  0  3  0  0  0  0  0  0
   48.0380   34.3440   39.5520 C   0  0  0  0  0  3  0  0  0  0  0  0
   48.2350   34.1920   38.0530 C   0  0  0  0  0  0  0  0  0  0  0  0
   48.4570   33.1090   37.8720 H   0  0  0  0  0  0  0  0  0  0  0  0
   47.3660   34.5770   37.5270 H   0  0  0  0  0  0  0  0  0  0  0  0
   49.1550   34.7760   37.8060 H   0  0  0  0  0  0  0  0  0  0  0  0
   46.5130   31.3340   45.3610 O   0  0  0  0  0  0  0  0  0  0  0  0
   45.4550   30.1550   47.2500 C   0  0  0  0  0  0  0  0  0  0  0  0
   46.0650   31.2180   46.6700 C   0  0  0  0  0  0  0  0  0  0  0  0
   46.2920   32.3430   47.4410 C   0  0  0  0  0  0  0  0  0  0  0  0
   45.9240   32.4180   48.7640 C   0  0  0  0  0  0  0  0  0  0  0  0
   45.3050   31.3280   49.3450 C   0  0  0  0  0  0  0  0  0  0  0  0
   45.0770   30.2000   48.5710 C   0  0  0  0  0  0  0  0  0  0  0  0
   46.7700   33.2370   47.0630 H   0  0  0  0  0  0  0  0  0  0  0  0
   46.1020   33.3040   49.3730 H   0  0  0  0  0  0  0  0  0  0  0  0
   45.0140   31.3820   50.3880 H   0  0  0  0  0  0  0  0  0  0  0  0
   44.5920   29.3470   49.0240 H   0  0  0  0  0  0  0  0  0  0  0  0
   45.1040   28.8140   46.2090 S   0  0  0  0  0  0  0  0  0  0  0  0
   44.2740   29.1350   45.0330 O   0  0  0  0  0  0  0  0  0  0  0  0
   44.2570   27.8320   47.0490 O   0  0  0  0  0  0  0  0  0  0  0  0
   46.5490   27.9520   45.7340 C   0  0  0  0  0  3  0  0  0  0  0  0
   46.7960   27.1840   44.6920 C   0  0  0  0  0  3  0  0  0  0  0  0
   48.1020   26.5110   44.4280 C   0  0  0  0  0  2  0  0  0  0  0  0
   48.5770   26.1760   45.3720 H   0  0  0  0  0  0  0  0  0  0  0  0
  1  6  1  0  0  0  0
  2  3  1  0  0  0  0
  2  1  2  0  0  0  0
  3  4  2  0  0  0  0
  4  5  1  0  0  0  0
  5 21  1  0  0  0  0
  6  5  2  0  0  0  0
  7  1  1  0  0  0  0
  8  2  1  0  0  0  0
  9  3  1  0  0  0  0
  9 10  1  0  0  0  0
 11  9  1  0  0  0  0
 12 14  1  0  0  0  0
 12 13  1  0  0  0  0
 12  9  1  0  0  0  0
 15 12  1  0  0  0  0
 16 15  2  0  0  0  0
 17 16  1  0  0  0  0
 18 17  1  0  0  0  0
 19 17  1  0  0  0  0
 20 17  1  0  0  0  0
 21 23  1  0  0  0  0
 22 27  1  0  0  0  0
 23 22  2  0  0  0  0
 23 24  1  0  0  0  0
 24 25  2  0  0  0  0
 25 26  1  0  0  0  0
 25 29  1  0  0  0  0
 26 30  1  0  0  0  0
 27 31  1  0  0  0  0
 27 26  2  0  0  0  0
 28 24  1  0  0  0  0
 32 34  2  0  0  0  0
 32 22  1  0  0  0  0
 33 32  2  0  0  0  0
 35 32  1  0  0  0  0
 36 35  2  0  0  0  0
 37 36  1  0  0  0  0
 37 38  1  0  0  0  0
M  END
>  <minimizedAffinity>
-5.40163183

>  <minimizedRMSD>
0.875724614

$$$$
