
 OpenBabel03242517573D

 38 39  0  0  0  0  0  0  0  0999 V2000
   37.0220   29.2560   36.6480 C   0  0  0  0  0  0  0  0  0  0  0  0
   35.6200   29.2740   36.7900 C   0  0  0  0  0  0  0  0  0  0  0  0
   35.0600   28.8990   37.9820 C   0  0  0  0  0  0  0  0  0  0  0  0
   35.9140   28.5310   38.9510 N   0  0  0  0  0  0  0  0  0  0  0  0
   37.2290   28.5140   38.8180 C   0  0  0  0  0  0  0  0  0  0  0  0
   37.7860   28.8760   37.6650 N   0  0  0  0  0  0  0  0  0  0  0  0
   37.4760   29.5510   35.7100 H   0  0  0  0  0  0  0  0  0  0  0  0
   35.0860   29.5990   35.9160 H   0  0  0  0  0  0  0  0  0  0  0  0
   33.6160   28.9020   38.2370 C   0  0  0  0  0  0  0  0  0  0  0  0
   33.3850   27.9060   38.7160 H   0  0  0  0  0  0  0  0  0  0  0  0
   33.2970   29.6700   38.9730 H   0  0  0  0  0  0  0  0  0  0  0  0
   32.7980   28.9930   36.9840 C   0  0  0  0  0  0  0  0  0  0  0  0
   33.3820   29.0930   36.0890 H   0  0  0  0  0  0  0  0  0  0  0  0
   32.2950   27.9750   36.8970 H   0  0  0  0  0  0  0  0  0  0  0  0
   31.6930   29.9490   37.0740 C   0  0  0  0  0  3  0  0  0  0  0  0
   30.9840   30.7950   36.3370 C   0  0  0  0  0  3  0  0  0  0  0  0
   29.9260   31.7560   36.8520 C   0  0  0  0  0  0  0  0  0  0  0  0
   30.1600   32.7550   36.4000 H   0  0  0  0  0  0  0  0  0  0  0  0
   28.9360   31.3700   36.6240 H   0  0  0  0  0  0  0  0  0  0  0  0
   30.0930   31.8310   37.9540 H   0  0  0  0  0  0  0  0  0  0  0  0
   38.0920   28.1350   39.8190 O   0  0  0  0  0  0  0  0  0  0  0  0
   38.3520   29.0860   42.0780 C   0  0  0  0  0  0  0  0  0  0  0  0
   37.8470   28.2010   41.1840 C   0  0  0  0  0  0  0  0  0  0  0  0
   36.9750   27.2320   41.6440 C   0  0  0  0  0  0  0  0  0  0  0  0
   36.6050   27.1370   42.9640 C   0  0  0  0  0  0  0  0  0  0  0  0
   37.1250   28.0450   43.8670 C   0  0  0  0  0  0  0  0  0  0  0  0
   38.0000   29.0170   43.4050 C   0  0  0  0  0  0  0  0  0  0  0  0
   36.5260   26.4840   41.0020 H   0  0  0  0  0  0  0  0  0  0  0  0
   35.9180   26.3730   43.3270 H   0  0  0  0  0  0  0  0  0  0  0  0
   36.8350   27.9750   44.9090 H   0  0  0  0  0  0  0  0  0  0  0  0
   38.4070   29.7280   44.1110 H   0  0  0  0  0  0  0  0  0  0  0  0
   39.5170   30.2120   41.4650 S   0  0  0  0  0  0  0  0  0  0  0  0
   40.7100   29.6040   40.8440 O   0  0  0  0  0  0  0  0  0  0  0  0
   40.0480   30.9890   42.6910 O   0  0  0  0  0  0  0  0  0  0  0  0
   38.7960   31.3930   40.3970 C   0  0  0  0  0  3  0  0  0  0  0  0
   37.5590   31.8390   40.3060 C   0  0  0  0  0  3  0  0  0  0  0  0
   37.0990   32.8650   39.3250 C   0  0  0  0  0  2  0  0  0  0  0  0
   37.6230   32.7520   38.3530 H   0  0  0  0  0  0  0  0  0  0  0  0
  1  2  2  0  0  0  0
  1  6  1  0  0  0  0
  2  3  1  0  0  0  0
  3  9  1  0  0  0  0
  3  4  2  0  0  0  0
  5  4  1  0  0  0  0
  5 21  1  0  0  0  0
  6  5  2  0  0  0  0
  7  1  1  0  0  0  0
  8  2  1  0  0  0  0
  9 10  1  0  0  0  0
  9 11  1  0  0  0  0
 12 15  1  0  0  0  0
 12  9  1  0  0  0  0
 13 12  1  0  0  0  0
 14 12  1  0  0  0  0
 16 17  1  0  0  0  0
 16 15  2  0  0  0  0
 17 20  1  0  0  0  0
 18 17  1  0  0  0  0
 19 17  1  0  0  0  0
 21 23  1  0  0  0  0
 22 27  1  0  0  0  0
 23 24  1  0  0  0  0
 23 22  2  0  0  0  0
 24 25  2  0  0  0  0
 25 29  1  0  0  0  0
 25 26  1  0  0  0  0
 26 30  1  0  0  0  0
 27 26  2  0  0  0  0
 27 31  1  0  0  0  0
 28 24  1  0  0  0  0
 32 22  1  0  0  0  0
 32 34  2  0  0  0  0
 33 32  2  0  0  0  0
 35 32  1  0  0  0  0
 36 35  2  0  0  0  0
 37 36  1  0  0  0  0
 38 37  1  0  0  0  0
M  END
>  <minimizedAffinity>
-5.32873917

$$$$

 OpenBabel03242517573D

 38 39  0  0  0  0  0  0  0  0999 V2000
   35.6770   27.3080   37.7460 C   0  0  0  0  0  0  0  0  0  0  0  0
   34.5190   27.8250   37.1330 C   0  0  0  0  0  0  0  0  0  0  0  0
   33.7280   28.7050   37.8240 C   0  0  0  0  0  0  0  0  0  0  0  0
   34.1290   29.0150   39.0670 N   0  0  0  0  0  0  0  0  0  0  0  0
   35.2160   28.5300   39.6420 C   0  0  0  0  0  0  0  0  0  0  0  0
   35.9930   27.6750   38.9820 N   0  0  0  0  0  0  0  0  0  0  0  0
   36.3100   26.6130   37.2090 H   0  0  0  0  0  0  0  0  0  0  0  0
   34.3470   27.4750   36.1310 H   0  0  0  0  0  0  0  0  0  0  0  0
   32.5140   29.3130   37.2690 C   0  0  0  0  0  0  0  0  0  0  0  0
   31.6500   28.7800   37.7620 H   0  0  0  0  0  0  0  0  0  0  0  0
   32.3960   30.3850   37.5320 H   0  0  0  0  0  0  0  0  0  0  0  0
   32.3770   29.1100   35.7910 C   0  0  0  0  0  0  0  0  0  0  0  0
   33.2300   28.6440   35.3350 H   0  0  0  0  0  0  0  0  0  0  0  0
   31.5340   28.3520   35.6830 H   0  0  0  0  0  0  0  0  0  0  0  0
   31.9050   30.2980   35.0770 C   0  0  0  0  0  3  0  0  0  0  0  0
   31.0930   31.3390   35.2090 C   0  0  0  0  0  3  0  0  0  0  0  0
   30.7680   32.3580   34.1310 C   0  0  0  0  0  0  0  0  0  0  0  0
   29.6520   32.4610   34.1190 H   0  0  0  0  0  0  0  0  0  0  0  0
   31.3120   33.2800   34.3200 H   0  0  0  0  0  0  0  0  0  0  0  0
   31.0780   31.8900   33.1650 H   0  0  0  0  0  0  0  0  0  0  0  0
   35.6160   28.8560   40.9160 O   0  0  0  0  0  0  0  0  0  0  0  0
   37.7730   28.9560   42.1050 C   0  0  0  0  0  0  0  0  0  0  0  0
   36.8210   29.4460   41.2740 C   0  0  0  0  0  0  0  0  0  0  0  0
   37.0380   30.6780   40.6850 C   0  0  0  0  0  0  0  0  0  0  0  0
   38.1770   31.4150   40.9120 C   0  0  0  0  0  0  0  0  0  0  0  0
   39.1410   30.9040   41.7600 C   0  0  0  0  0  0  0  0  0  0  0  0
   38.9220   29.6690   42.3510 C   0  0  0  0  0  0  0  0  0  0  0  0
   36.3340   31.1470   40.0100 H   0  0  0  0  0  0  0  0  0  0  0  0
   38.3480   32.3860   40.4490 H   0  0  0  0  0  0  0  0  0  0  0  0
   40.0400   31.4820   41.9410 H   0  0  0  0  0  0  0  0  0  0  0  0
   39.6760   29.2690   43.0150 H   0  0  0  0  0  0  0  0  0  0  0  0
   37.4010   27.4580   42.8930 S   0  0  0  0  0  0  0  0  0  0  0  0
   36.1910   27.4770   43.7360 O   0  0  0  0  0  0  0  0  0  0  0  0
   38.5700   27.1850   43.8670 O   0  0  0  0  0  0  0  0  0  0  0  0
   37.3580   26.1160   41.7740 C   0  0  0  0  0  3  0  0  0  0  0  0
   36.9230   24.8800   41.9180 C   0  0  0  0  0  3  0  0  0  0  0  0
   36.9570   23.8400   40.8490 C   0  0  0  0  0  2  0  0  0  0  0  0
   37.8670   23.9410   40.2220 H   0  0  0  0  0  0  0  0  0  0  0  0
  1  6  1  0  0  0  0
  2  1  2  0  0  0  0
  2  3  1  0  0  0  0
  3  4  2  0  0  0  0
  4  5  1  0  0  0  0
  5 21  1  0  0  0  0
  6  5  2  0  0  0  0
  7  1  1  0  0  0  0
  8  2  1  0  0  0  0
  9 11  1  0  0  0  0
  9 10  1  0  0  0  0
  9  3  1  0  0  0  0
 12  9  1  0  0  0  0
 13 12  1  0  0  0  0
 14 12  1  0  0  0  0
 15 16  2  0  0  0  0
 15 12  1  0  0  0  0
 17 19  1  0  0  0  0
 17 16  1  0  0  0  0
 18 17  1  0  0  0  0
 20 17  1  0  0  0  0
 21 23  1  0  0  0  0
 22 27  1  0  0  0  0
 22 32  1  0  0  0  0
 23 22  2  0  0  0  0
 24 25  2  0  0  0  0
 24 23  1  0  0  0  0
 25 26  1  0  0  0  0
 26 30  1  0  0  0  0
 26 27  2  0  0  0  0
 27 31  1  0  0  0  0
 28 24  1  0  0  0  0
 29 25  1  0  0  0  0
 32 33  2  0  0  0  0
 32 34  2  0  0  0  0
 35 36  2  0  0  0  0
 35 32  1  0  0  0  0
 37 36  1  0  0  0  0
 38 37  1  0  0  0  0
M  END
>  <minimizedAffinity>
-5.2621336

$$$$

 OpenBabel03242517573D

 38 39  0  0  0  0  0  0  0  0999 V2000
   41.3230   27.9540   42.7380 C   0  0  0  0  0  0  0  0  0  0  0  0
   40.1450   27.6090   43.4290 C   0  0  0  0  0  0  0  0  0  0  0  0
   38.9510   28.1520   43.0350 C   0  0  0  0  0  0  0  0  0  0  0  0
   38.9960   28.9950   41.9910 N   0  0  0  0  0  0  0  0  0  0  0  0
   40.1020   29.3180   41.3420 C   0  0  0  0  0  0  0  0  0  0  0  0
   41.2680   28.7980   41.7140 N   0  0  0  0  0  0  0  0  0  0  0  0
   42.2730   27.5310   43.0400 H   0  0  0  0  0  0  0  0  0  0  0  0
   40.2870   26.9180   44.2400 H   0  0  0  0  0  0  0  0  0  0  0  0
   37.6680   27.8430   43.6750 C   0  0  0  0  0  0  0  0  0  0  0  0
   37.8690   26.9740   44.3660 H   0  0  0  0  0  0  0  0  0  0  0  0
   37.2880   28.6610   44.3230 H   0  0  0  0  0  0  0  0  0  0  0  0
   36.6160   27.4040   42.7020 C   0  0  0  0  0  0  0  0  0  0  0  0
   35.6150   27.4610   43.0870 H   0  0  0  0  0  0  0  0  0  0  0  0
   36.6570   28.1780   41.8680 H   0  0  0  0  0  0  0  0  0  0  0  0
   36.9200   26.1300   42.0470 C   0  0  0  0  0  3  0  0  0  0  0  0
   37.1950   24.8600   42.3140 C   0  0  0  0  0  3  0  0  0  0  0  0
   37.5900   23.8010   41.2990 C   0  0  0  0  0  0  0  0  0  0  0  0
   38.4960   23.2880   41.7140 H   0  0  0  0  0  0  0  0  0  0  0  0
   36.7430   23.1480   41.1010 H   0  0  0  0  0  0  0  0  0  0  0  0
   37.9000   24.3570   40.3820 H   0  0  0  0  0  0  0  0  0  0  0  0
   40.1340   30.1820   40.2730 O   0  0  0  0  0  0  0  0  0  0  0  0
   38.2140   31.1970   39.1070 C   0  0  0  0  0  0  0  0  0  0  0  0
   39.2250   31.1990   40.0100 C   0  0  0  0  0  0  0  0  0  0  0  0
   39.4060   32.3270   40.7880 C   0  0  0  0  0  0  0  0  0  0  0  0
   38.6020   33.4370   40.6780 C   0  0  0  0  0  0  0  0  0  0  0  0
   37.5740   33.4230   39.7550 C   0  0  0  0  0  0  0  0  0  0  0  0
   37.3930   32.2920   38.9750 C   0  0  0  0  0  0  0  0  0  0  0  0
   40.1870   32.4170   41.5320 H   0  0  0  0  0  0  0  0  0  0  0  0
   38.7440   34.3270   41.2900 H   0  0  0  0  0  0  0  0  0  0  0  0
   36.9370   34.2960   39.6660 H   0  0  0  0  0  0  0  0  0  0  0  0
   36.5890   32.2810   38.2520 H   0  0  0  0  0  0  0  0  0  0  0  0
   38.0990   29.7990   38.0900 S   0  0  0  0  0  0  0  0  0  0  0  0
   37.7950   28.5370   38.7920 O   0  0  0  0  0  0  0  0  0  0  0  0
   39.5050   29.5960   37.4810 O   0  0  0  0  0  0  0  0  0  0  0  0
   37.0030   30.0440   36.7500 C   0  0  0  0  0  3  0  0  0  0  0  0
   36.4320   29.1860   35.9290 C   0  0  0  0  0  3  0  0  0  0  0  0
   35.5070   29.5630   34.8200 C   0  0  0  0  0  2  0  0  0  0  0  0
   35.8160   30.5190   34.3500 H   0  0  0  0  0  0  0  0  0  0  0  0
  1  7  1  0  0  0  0
  1  2  1  0  0  0  0
  2  8  1  0  0  0  0
  3  2  2  0  0  0  0
  3  9  1  0  0  0  0
  4  3  1  0  0  0  0
  5  6  1  0  0  0  0
  5  4  2  0  0  0  0
  6  1  2  0  0  0  0
  9 11  1  0  0  0  0
  9 10  1  0  0  0  0
 12 13  1  0  0  0  0
 12  9  1  0  0  0  0
 14 12  1  0  0  0  0
 15 16  2  0  0  0  0
 15 12  1  0  0  0  0
 17 18  1  0  0  0  0
 17 16  1  0  0  0  0
 19 17  1  0  0  0  0
 20 17  1  0  0  0  0
 21  5  1  0  0  0  0
 22 23  1  0  0  0  0
 23 21  1  0  0  0  0
 23 24  2  0  0  0  0
 24 28  1  0  0  0  0
 25 24  1  0  0  0  0
 25 29  1  0  0  0  0
 26 25  2  0  0  0  0
 27 22  2  0  0  0  0
 27 26  1  0  0  0  0
 30 26  1  0  0  0  0
 31 27  1  0  0  0  0
 32 33  2  0  0  0  0
 32 22  1  0  0  0  0
 34 32  2  0  0  0  0
 35 32  1  0  0  0  0
 36 35  2  0  0  0  0
 37 36  1  0  0  0  0
 38 37  1  0  0  0  0
M  END
>  <minimizedAffinity>
-5.13314533

$$$$

 OpenBabel03242517573D

 38 39  0  0  0  0  0  0  0  0999 V2000
   36.7070   29.7540   36.0510 C   0  0  0  0  0  0  0  0  0  0  0  0
   35.4470   29.1840   35.7790 C   0  0  0  0  0  0  0  0  0  0  0  0
   34.5720   28.9630   36.8090 C   0  0  0  0  0  0  0  0  0  0  0  0
   34.9940   29.3170   38.0340 N   0  0  0  0  0  0  0  0  0  0  0  0
   36.1750   29.8520   38.2890 C   0  0  0  0  0  0  0  0  0  0  0  0
   37.0350   30.0710   37.2970 N   0  0  0  0  0  0  0  0  0  0  0  0
   37.4060   29.9330   35.2440 H   0  0  0  0  0  0  0  0  0  0  0  0
   35.2690   28.9640   34.7420 H   0  0  0  0  0  0  0  0  0  0  0  0
   33.2320   28.3940   36.6290 C   0  0  0  0  0  0  0  0  0  0  0  0
   33.0960   28.2730   35.5150 H   0  0  0  0  0  0  0  0  0  0  0  0
   33.1230   27.3760   37.0570 H   0  0  0  0  0  0  0  0  0  0  0  0
   32.1390   29.2960   37.1160 C   0  0  0  0  0  0  0  0  0  0  0  0
   31.3350   28.7810   37.6060 H   0  0  0  0  0  0  0  0  0  0  0  0
   32.6290   29.9240   37.9300 H   0  0  0  0  0  0  0  0  0  0  0  0
   31.6910   30.2660   36.1140 C   0  0  0  0  0  3  0  0  0  0  0  0
   30.9160   31.3330   35.9720 C   0  0  0  0  0  3  0  0  0  0  0  0
   30.6000   32.0370   34.6630 C   0  0  0  0  0  0  0  0  0  0  0  0
   29.4870   32.1740   34.6380 H   0  0  0  0  0  0  0  0  0  0  0  0
   31.1770   32.9550   34.5900 H   0  0  0  0  0  0  0  0  0  0  0  0
   30.8740   31.3150   33.8550 H   0  0  0  0  0  0  0  0  0  0  0  0
   36.5950   30.2100   39.5480 O   0  0  0  0  0  0  0  0  0  0  0  0
   38.6960   31.1550   40.4260 C   0  0  0  0  0  0  0  0  0  0  0  0
   37.4670   31.2450   39.8610 C   0  0  0  0  0  0  0  0  0  0  0  0
   36.9870   32.4990   39.5360 C   0  0  0  0  0  0  0  0  0  0  0  0
   37.7070   33.6480   39.7640 C   0  0  0  0  0  0  0  0  0  0  0  0
   38.9590   33.5440   40.3390 C   0  0  0  0  0  0  0  0  0  0  0  0
   39.4400   32.2860   40.6650 C   0  0  0  0  0  0  0  0  0  0  0  0
   36.0170   32.6660   39.0840 H   0  0  0  0  0  0  0  0  0  0  0  0
   37.3280   34.6370   39.5090 H   0  0  0  0  0  0  0  0  0  0  0  0
   39.5300   34.4480   40.5200 H   0  0  0  0  0  0  0  0  0  0  0  0
   40.4200   32.2030   41.1160 H   0  0  0  0  0  0  0  0  0  0  0  0
   39.2030   29.5690   40.9060 S   0  0  0  0  0  0  0  0  0  0  0  0
   40.5330   29.5010   41.5410 O   0  0  0  0  0  0  0  0  0  0  0  0
   39.3330   28.7490   39.6020 O   0  0  0  0  0  0  0  0  0  0  0  0
   38.0040   28.7600   41.8880 C   0  0  0  0  0  3  0  0  0  0  0  0
   37.9960   28.4540   43.1700 C   0  0  0  0  0  3  0  0  0  0  0  0
   36.8770   27.7530   43.8660 C   0  0  0  0  0  2  0  0  0  0  0  0
   36.4090   26.9940   43.2050 H   0  0  0  0  0  0  0  0  0  0  0  0
  1  6  1  0  0  0  0
  2  1  2  0  0  0  0
  2  3  1  0  0  0  0
  3  4  2  0  0  0  0
  4  5  1  0  0  0  0
  5 21  1  0  0  0  0
  6  5  2  0  0  0  0
  7  1  1  0  0  0  0
  8  2  1  0  0  0  0
  9  3  1  0  0  0  0
  9 11  1  0  0  0  0
  9 12  1  0  0  0  0
 10  9  1  0  0  0  0
 12 13  1  0  0  0  0
 12 14  1  0  0  0  0
 15 12  1  0  0  0  0
 16 15  2  0  0  0  0
 17 16  1  0  0  0  0
 18 17  1  0  0  0  0
 19 17  1  0  0  0  0
 20 17  1  0  0  0  0
 21 23  1  0  0  0  0
 22 27  1  0  0  0  0
 22 32  1  0  0  0  0
 23 22  2  0  0  0  0
 24 25  2  0  0  0  0
 24 23  1  0  0  0  0
 25 26  1  0  0  0  0
 26 30  1  0  0  0  0
 26 27  2  0  0  0  0
 27 31  1  0  0  0  0
 28 24  1  0  0  0  0
 29 25  1  0  0  0  0
 32 33  2  0  0  0  0
 32 35  1  0  0  0  0
 34 32  2  0  0  0  0
 35 36  2  0  0  0  0
 36 37  1  0  0  0  0
 38 37  1  0  0  0  0
M  END
>  <minimizedAffinity>
-5.09695005

$$$$

 OpenBabel03242517573D

 38 39  0  0  0  0  0  0  0  0999 V2000
   41.4680   27.4550   41.8080 C   0  0  0  0  0  0  0  0  0  0  0  0
   40.4250   27.2540   42.7340 C   0  0  0  0  0  0  0  0  0  0  0  0
   39.3270   28.0720   42.6980 C   0  0  0  0  0  0  0  0  0  0  0  0
   39.3290   29.0300   41.7580 N   0  0  0  0  0  0  0  0  0  0  0  0
   40.3080   29.2180   40.8890 C   0  0  0  0  0  0  0  0  0  0  0  0
   41.3800   28.4310   40.9130 N   0  0  0  0  0  0  0  0  0  0  0  0
   42.3400   26.8140   41.8270 H   0  0  0  0  0  0  0  0  0  0  0  0
   40.5830   26.4390   43.4170 H   0  0  0  0  0  0  0  0  0  0  0  0
   38.1810   27.9340   43.6040 C   0  0  0  0  0  0  0  0  0  0  0  0
   38.5300   27.2620   44.4410 H   0  0  0  0  0  0  0  0  0  0  0  0
   37.8820   28.8870   44.0880 H   0  0  0  0  0  0  0  0  0  0  0  0
   37.0020   27.2690   42.9620 C   0  0  0  0  0  0  0  0  0  0  0  0
   37.2120   26.2910   42.5720 H   0  0  0  0  0  0  0  0  0  0  0  0
   36.2700   27.0960   43.8170 H   0  0  0  0  0  0  0  0  0  0  0  0
   36.2820   28.1320   42.0230 C   0  0  0  0  0  3  0  0  0  0  0  0
   36.0620   28.3050   40.7260 C   0  0  0  0  0  3  0  0  0  0  0  0
   35.2980   29.4590   40.0980 C   0  0  0  0  0  0  0  0  0  0  0  0
   35.9370   29.8420   39.2610 H   0  0  0  0  0  0  0  0  0  0  0  0
   34.3060   29.1260   39.8030 H   0  0  0  0  0  0  0  0  0  0  0  0
   35.2480   30.2530   40.8810 H   0  0  0  0  0  0  0  0  0  0  0  0
   40.2980   30.2040   39.9300 O   0  0  0  0  0  0  0  0  0  0  0  0
   38.6050   31.6320   38.8470 C   0  0  0  0  0  0  0  0  0  0  0  0
   39.2710   30.4660   39.0320 C   0  0  0  0  0  0  0  0  0  0  0  0
   38.9210   29.3810   38.2490 C   0  0  0  0  0  0  0  0  0  0  0  0
   37.9300   29.4450   37.2980 C   0  0  0  0  0  0  0  0  0  0  0  0
   37.2590   30.6390   37.1180 C   0  0  0  0  0  0  0  0  0  0  0  0
   37.6100   31.7260   37.9030 C   0  0  0  0  0  0  0  0  0  0  0  0
   39.3980   28.4120   38.3290 H   0  0  0  0  0  0  0  0  0  0  0  0
   37.6540   28.5900   36.6820 H   0  0  0  0  0  0  0  0  0  0  0  0
   36.4770   30.6940   36.3680 H   0  0  0  0  0  0  0  0  0  0  0  0
   37.0850   32.6610   37.7630 H   0  0  0  0  0  0  0  0  0  0  0  0
   39.0150   32.9250   39.9240 S   0  0  0  0  0  0  0  0  0  0  0  0
   39.1050   32.5500   41.3480 O   0  0  0  0  0  0  0  0  0  0  0  0
   37.8480   33.9360   39.8430 O   0  0  0  0  0  0  0  0  0  0  0  0
   40.4530   33.7790   39.4150 C   0  0  0  0  0  3  0  0  0  0  0  0
   41.2640   33.5790   38.3960 C   0  0  0  0  0  3  0  0  0  0  0  0
   42.4670   34.4100   38.0960 C   0  0  0  0  0  2  0  0  0  0  0  0
   42.9680   34.7390   39.0290 H   0  0  0  0  0  0  0  0  0  0  0  0
  1  7  1  0  0  0  0
  1  2  1  0  0  0  0
  2  8  1  0  0  0  0
  3  2  2  0  0  0  0
  3  9  1  0  0  0  0
  4  3  1  0  0  0  0
  5  6  1  0  0  0  0
  5  4  2  0  0  0  0
  6  1  2  0  0  0  0
  9 11  1  0  0  0  0
  9 10  1  0  0  0  0
 12  9  1  0  0  0  0
 12 14  1  0  0  0  0
 13 12  1  0  0  0  0
 15 12  1  0  0  0  0
 16 15  2  0  0  0  0
 17 16  1  0  0  0  0
 17 20  1  0  0  0  0
 18 17  1  0  0  0  0
 19 17  1  0  0  0  0
 21  5  1  0  0  0  0
 22 23  1  0  0  0  0
 22 32  1  0  0  0  0
 23 21  1  0  0  0  0
 24 28  1  0  0  0  0
 24 23  2  0  0  0  0
 25 24  1  0  0  0  0
 26 25  2  0  0  0  0
 26 27  1  0  0  0  0
 27 22  2  0  0  0  0
 29 25  1  0  0  0  0
 30 26  1  0  0  0  0
 31 27  1  0  0  0  0
 32 33  2  0  0  0  0
 34 32  2  0  0  0  0
 35 32  1  0  0  0  0
 36 35  2  0  0  0  0
 37 36  1  0  0  0  0
 37 38  1  0  0  0  0
M  END
>  <minimizedAffinity>
-4.97443485

$$$$

 OpenBabel03242517573D

 38 39  0  0  0  0  0  0  0  0999 V2000
   38.3380   28.5900   43.4510 C   0  0  0  0  0  0  0  0  0  0  0  0
   38.1520   27.1950   43.3840 C   0  0  0  0  0  0  0  0  0  0  0  0
   37.2460   26.6790   42.4960 C   0  0  0  0  0  0  0  0  0  0  0  0
   36.5860   27.5670   41.7360 N   0  0  0  0  0  0  0  0  0  0  0  0
   36.7610   28.8760   41.7990 C   0  0  0  0  0  0  0  0  0  0  0  0
   37.6380   29.3900   42.6570 N   0  0  0  0  0  0  0  0  0  0  0  0
   39.0520   29.0080   44.1500 H   0  0  0  0  0  0  0  0  0  0  0  0
   38.7650   26.6280   44.0620 H   0  0  0  0  0  0  0  0  0  0  0  0
   36.9930   25.2430   42.3360 C   0  0  0  0  0  0  0  0  0  0  0  0
   37.4890   24.7430   43.2170 H   0  0  0  0  0  0  0  0  0  0  0  0
   35.9180   24.9730   42.4030 H   0  0  0  0  0  0  0  0  0  0  0  0
   37.6090   24.6720   41.0950 C   0  0  0  0  0  0  0  0  0  0  0  0
   38.6180   24.9970   40.9210 H   0  0  0  0  0  0  0  0  0  0  0  0
   37.6900   23.5550   41.3030 H   0  0  0  0  0  0  0  0  0  0  0  0
   36.7490   24.7710   39.9140 C   0  0  0  0  0  3  0  0  0  0  0  0
   36.4400   25.5890   38.9160 C   0  0  0  0  0  3  0  0  0  0  0  0
   35.3420   25.3660   37.8890 C   0  0  0  0  0  0  0  0  0  0  0  0
   34.7580   26.3220   37.8390 H   0  0  0  0  0  0  0  0  0  0  0  0
   35.7800   25.0460   36.9470 H   0  0  0  0  0  0  0  0  0  0  0  0
   34.6770   24.5800   38.3190 H   0  0  0  0  0  0  0  0  0  0  0  0
   36.0790   29.7760   41.0130 O   0  0  0  0  0  0  0  0  0  0  0  0
   36.4290   29.8220   38.5730 C   0  0  0  0  0  0  0  0  0  0  0  0
   35.6980   29.5890   39.6910 C   0  0  0  0  0  0  0  0  0  0  0  0
   34.4130   29.1020   39.5430 C   0  0  0  0  0  0  0  0  0  0  0  0
   33.8560   28.8470   38.3110 C   0  0  0  0  0  0  0  0  0  0  0  0
   34.6120   29.0870   37.1790 C   0  0  0  0  0  0  0  0  0  0  0  0
   35.9000   29.5750   37.3290 C   0  0  0  0  0  0  0  0  0  0  0  0
   33.7580   28.8890   40.3780 H   0  0  0  0  0  0  0  0  0  0  0  0
   32.8440   28.4630   38.1940 H   0  0  0  0  0  0  0  0  0  0  0  0
   34.1770   28.8860   36.2060 H   0  0  0  0  0  0  0  0  0  0  0  0
   36.4920   29.7630   36.4430 H   0  0  0  0  0  0  0  0  0  0  0  0
   37.9930   30.5270   38.8160 S   0  0  0  0  0  0  0  0  0  0  0  0
   38.0210   31.6910   39.7220 O   0  0  0  0  0  0  0  0  0  0  0  0
   38.4340   31.0730   37.4390 O   0  0  0  0  0  0  0  0  0  0  0  0
   39.1860   29.3420   39.2910 C   0  0  0  0  0  3  0  0  0  0  0  0
   39.1400   28.0250   39.3090 C   0  0  0  0  0  3  0  0  0  0  0  0
   40.2620   27.1450   39.7490 C   0  0  0  0  0  2  0  0  0  0  0  0
   40.8200   27.6000   40.5930 H   0  0  0  0  0  0  0  0  0  0  0  0
  1  7  1  0  0  0  0
  2  1  1  0  0  0  0
  2  8  1  0  0  0  0
  3  2  2  0  0  0  0
  4  5  2  0  0  0  0
  4  3  1  0  0  0  0
  5  6  1  0  0  0  0
  6  1  2  0  0  0  0
  9 11  1  0  0  0  0
  9  3  1  0  0  0  0
  9 10  1  0  0  0  0
 12 14  1  0  0  0  0
 12  9  1  0  0  0  0
 13 12  1  0  0  0  0
 15 12  1  0  0  0  0
 16 15  2  0  0  0  0
 17 20  1  0  0  0  0
 17 16  1  0  0  0  0
 18 17  1  0  0  0  0
 19 17  1  0  0  0  0
 21  5  1  0  0  0  0
 22 32  1  0  0  0  0
 22 23  1  0  0  0  0
 23 21  1  0  0  0  0
 24 23  2  0  0  0  0
 24 28  1  0  0  0  0
 25 24  1  0  0  0  0
 26 27  1  0  0  0  0
 26 25  2  0  0  0  0
 27 22  2  0  0  0  0
 29 25  1  0  0  0  0
 30 26  1  0  0  0  0
 31 27  1  0  0  0  0
 32 35  1  0  0  0  0
 32 33  2  0  0  0  0
 34 32  2  0  0  0  0
 35 36  2  0  0  0  0
 36 37  1  0  0  0  0
 37 38  1  0  0  0  0
M  END
>  <minimizedAffinity>
-4.93057251

$$$$

 OpenBabel03242517573D

 38 39  0  0  0  0  0  0  0  0999 V2000
   37.5280   30.4170   37.4350 C   0  0  0  0  0  0  0  0  0  0  0  0
   37.3920   31.7430   37.8930 C   0  0  0  0  0  0  0  0  0  0  0  0
   37.7750   32.0560   39.1700 C   0  0  0  0  0  0  0  0  0  0  0  0
   38.2650   31.0470   39.9090 N   0  0  0  0  0  0  0  0  0  0  0  0
   38.3930   29.8030   39.4790 C   0  0  0  0  0  0  0  0  0  0  0  0
   38.0240   29.4860   38.2410 N   0  0  0  0  0  0  0  0  0  0  0  0
   37.2290   30.1580   36.4270 H   0  0  0  0  0  0  0  0  0  0  0  0
   36.9850   32.4270   37.1710 H   0  0  0  0  0  0  0  0  0  0  0  0
   37.6920   33.4070   39.7350 C   0  0  0  0  0  0  0  0  0  0  0  0
   37.6390   34.1070   38.8520 H   0  0  0  0  0  0  0  0  0  0  0  0
   36.7640   33.5870   40.3170 H   0  0  0  0  0  0  0  0  0  0  0  0
   38.9030   33.7870   40.5320 C   0  0  0  0  0  0  0  0  0  0  0  0
   38.6970   34.4610   41.3420 H   0  0  0  0  0  0  0  0  0  0  0  0
   39.2330   32.8180   41.0300 H   0  0  0  0  0  0  0  0  0  0  0  0
   40.0430   34.1910   39.7080 C   0  0  0  0  0  3  0  0  0  0  0  0
   41.1700   33.7220   39.1860 C   0  0  0  0  0  3  0  0  0  0  0  0
   42.2100   34.5360   38.4350 C   0  0  0  0  0  0  0  0  0  0  0  0
   43.2030   34.2670   38.8810 H   0  0  0  0  0  0  0  0  0  0  0  0
   42.1210   34.3510   37.3670 H   0  0  0  0  0  0  0  0  0  0  0  0
   42.0010   35.6040   38.6850 H   0  0  0  0  0  0  0  0  0  0  0  0
   38.8970   28.7790   40.2460 O   0  0  0  0  0  0  0  0  0  0  0  0
   39.0470   27.9430   42.5600 C   0  0  0  0  0  0  0  0  0  0  0  0
   38.3720   28.3160   41.4450 C   0  0  0  0  0  0  0  0  0  0  0  0
   36.9920   28.2450   41.4630 C   0  0  0  0  0  0  0  0  0  0  0  0
   36.2870   27.8150   42.5620 C   0  0  0  0  0  0  0  0  0  0  0  0
   36.9870   27.4400   43.6940 C   0  0  0  0  0  0  0  0  0  0  0  0
   38.3710   27.5100   43.6760 C   0  0  0  0  0  0  0  0  0  0  0  0
   36.3720   28.5200   40.6190 H   0  0  0  0  0  0  0  0  0  0  0  0
   35.1990   27.7590   42.5770 H   0  0  0  0  0  0  0  0  0  0  0  0
   36.4350   27.1010   44.5640 H   0  0  0  0  0  0  0  0  0  0  0  0
   38.9190   27.2160   44.5610 H   0  0  0  0  0  0  0  0  0  0  0  0
   40.7770   27.9550   42.4460 S   0  0  0  0  0  0  0  0  0  0  0  0
   41.3480   26.9790   41.4980 O   0  0  0  0  0  0  0  0  0  0  0  0
   41.3000   27.5270   43.8360 O   0  0  0  0  0  0  0  0  0  0  0  0
   41.4080   29.5570   42.1430 C   0  0  0  0  0  3  0  0  0  0  0  0
   41.9770   30.4310   42.9490 C   0  0  0  0  0  3  0  0  0  0  0  0
   42.4680   31.7750   42.5280 C   0  0  0  0  0  2  0  0  0  0  0  0
   41.8060   32.2190   41.7560 H   0  0  0  0  0  0  0  0  0  0  0  0
  1  2  2  0  0  0  0
  1  6  1  0  0  0  0
  2  3  1  0  0  0  0
  3  9  1  0  0  0  0
  3  4  2  0  0  0  0
  5  4  1  0  0  0  0
  5 21  1  0  0  0  0
  6  5  2  0  0  0  0
  7  1  1  0  0  0  0
  8  2  1  0  0  0  0
  9 11  1  0  0  0  0
  9 12  1  0  0  0  0
 10  9  1  0  0  0  0
 12 14  1  0  0  0  0
 12 13  1  0  0  0  0
 15 12  1  0  0  0  0
 16 15  2  0  0  0  0
 17 20  1  0  0  0  0
 17 18  1  0  0  0  0
 17 16  1  0  0  0  0
 19 17  1  0  0  0  0
 21 23  1  0  0  0  0
 22 27  1  0  0  0  0
 23 24  1  0  0  0  0
 23 22  2  0  0  0  0
 24 25  2  0  0  0  0
 25 29  1  0  0  0  0
 25 26  1  0  0  0  0
 26 30  1  0  0  0  0
 27 26  2  0  0  0  0
 27 31  1  0  0  0  0
 28 24  1  0  0  0  0
 32 22  1  0  0  0  0
 32 34  2  0  0  0  0
 33 32  2  0  0  0  0
 35 32  1  0  0  0  0
 35 36  2  0  0  0  0
 37 36  1  0  0  0  0
 38 37  1  0  0  0  0
M  END
>  <minimizedAffinity>
-4.91829967

$$$$

 OpenBabel03242517573D

 38 39  0  0  0  0  0  0  0  0999 V2000
   41.7780   28.3110   42.5040 C   0  0  0  0  0  0  0  0  0  0  0  0
   40.7170   27.7770   43.2630 C   0  0  0  0  0  0  0  0  0  0  0  0
   39.4260   28.0470   42.8970 C   0  0  0  0  0  0  0  0  0  0  0  0
   39.2640   28.8230   41.8130 N   0  0  0  0  0  0  0  0  0  0  0  0
   40.2590   29.3240   41.1010 C   0  0  0  0  0  0  0  0  0  0  0  0
   41.5180   29.0690   41.4460 N   0  0  0  0  0  0  0  0  0  0  0  0
   42.8030   28.1030   42.7840 H   0  0  0  0  0  0  0  0  0  0  0  0
   41.0230   27.1730   44.0980 H   0  0  0  0  0  0  0  0  0  0  0  0
   38.2540   27.5240   43.6080 C   0  0  0  0  0  0  0  0  0  0  0  0
   38.5680   26.5240   44.0260 H   0  0  0  0  0  0  0  0  0  0  0  0
   37.9580   28.1370   44.4840 H   0  0  0  0  0  0  0  0  0  0  0  0
   37.0800   27.2810   42.7080 C   0  0  0  0  0  0  0  0  0  0  0  0
   36.1340   27.5280   43.1500 H   0  0  0  0  0  0  0  0  0  0  0  0
   37.2130   28.0270   41.8570 H   0  0  0  0  0  0  0  0  0  0  0  0
   37.1010   25.9680   42.0600 C   0  0  0  0  0  3  0  0  0  0  0  0
   37.6280   24.7560   42.1780 C   0  0  0  0  0  3  0  0  0  0  0  0
   37.4900   23.6230   41.1760 C   0  0  0  0  0  0  0  0  0  0  0  0
   38.5230   23.2210   41.0090 H   0  0  0  0  0  0  0  0  0  0  0  0
   36.7680   22.8960   41.5400 H   0  0  0  0  0  0  0  0  0  0  0  0
   37.1490   24.0970   40.2240 H   0  0  0  0  0  0  0  0  0  0  0  0
   40.0800   30.1170   39.9920 O   0  0  0  0  0  0  0  0  0  0  0  0
   39.7470   32.5590   39.9750 C   0  0  0  0  0  0  0  0  0  0  0  0
   39.3170   31.2750   39.9250 C   0  0  0  0  0  0  0  0  0  0  0  0
   37.9610   31.0440   39.7850 C   0  0  0  0  0  0  0  0  0  0  0  0
   37.0430   32.0640   39.6960 C   0  0  0  0  0  0  0  0  0  0  0  0
   37.4940   33.3700   39.7470 C   0  0  0  0  0  0  0  0  0  0  0  0
   38.8540   33.6000   39.8870 C   0  0  0  0  0  0  0  0  0  0  0  0
   37.5280   30.0530   39.7380 H   0  0  0  0  0  0  0  0  0  0  0  0
   35.9740   31.8830   39.5870 H   0  0  0  0  0  0  0  0  0  0  0  0
   36.7740   34.1770   39.6760 H   0  0  0  0  0  0  0  0  0  0  0  0
   39.2080   34.6220   39.9270 H   0  0  0  0  0  0  0  0  0  0  0  0
   41.4430   32.7870   40.2530 S   0  0  0  0  0  0  0  0  0  0  0  0
   41.9200   32.3730   41.5860 O   0  0  0  0  0  0  0  0  0  0  0  0
   41.6850   34.3120   40.1900 O   0  0  0  0  0  0  0  0  0  0  0  0
   42.4210   32.0710   38.9930 C   0  0  0  0  0  3  0  0  0  0  0  0
   42.2660   32.0440   37.6850 C   0  0  0  0  0  3  0  0  0  0  0  0
   43.2050   31.3810   36.7340 C   0  0  0  0  0  2  0  0  0  0  0  0
   43.6230   30.4500   37.1700 H   0  0  0  0  0  0  0  0  0  0  0  0
  1  7  1  0  0  0  0
  1  2  1  0  0  0  0
  2  8  1  0  0  0  0
  3  2  2  0  0  0  0
  3  9  1  0  0  0  0
  4  3  1  0  0  0  0
  5  6  1  0  0  0  0
  5  4  2  0  0  0  0
  6  1  2  0  0  0  0
  9 10  1  0  0  0  0
  9 11  1  0  0  0  0
 12 13  1  0  0  0  0
 12  9  1  0  0  0  0
 14 12  1  0  0  0  0
 15 16  2  0  0  0  0
 15 12  1  0  0  0  0
 17 19  1  0  0  0  0
 17 16  1  0  0  0  0
 18 17  1  0  0  0  0
 20 17  1  0  0  0  0
 21  5  1  0  0  0  0
 22 32  1  0  0  0  0
 23 22  1  0  0  0  0
 23 21  1  0  0  0  0
 24 23  2  0  0  0  0
 25 26  2  0  0  0  0
 25 24  1  0  0  0  0
 26 27  1  0  0  0  0
 27 31  1  0  0  0  0
 27 22  2  0  0  0  0
 28 24  1  0  0  0  0
 29 25  1  0  0  0  0
 30 26  1  0  0  0  0
 32 33  2  0  0  0  0
 34 32  2  0  0  0  0
 35 32  1  0  0  0  0
 36 35  2  0  0  0  0
 37 38  1  0  0  0  0
 37 36  1  0  0  0  0
M  END
>  <minimizedAffinity>
-4.91458178

$$$$

 OpenBabel03242517573D

 38 39  0  0  0  0  0  0  0  0999 V2000
   40.4570   31.1090   42.0780 C   0  0  0  0  0  0  0  0  0  0  0  0
   39.6620   31.8810   41.2070 C   0  0  0  0  0  0  0  0  0  0  0  0
   38.3830   31.4790   40.9290 C   0  0  0  0  0  0  0  0  0  0  0  0
   37.9730   30.3480   41.5230 N   0  0  0  0  0  0  0  0  0  0  0  0
   38.7180   29.6230   42.3400 C   0  0  0  0  0  0  0  0  0  0  0  0
   39.9620   30.0020   42.6190 N   0  0  0  0  0  0  0  0  0  0  0  0
   41.4690   31.4180   42.3050 H   0  0  0  0  0  0  0  0  0  0  0  0
   40.1460   32.7600   40.8210 H   0  0  0  0  0  0  0  0  0  0  0  0
   37.4710   32.2220   40.0520 C   0  0  0  0  0  0  0  0  0  0  0  0
   36.4540   32.1530   40.5370 H   0  0  0  0  0  0  0  0  0  0  0  0
   37.7020   33.3050   39.9890 H   0  0  0  0  0  0  0  0  0  0  0  0
   37.3530   31.6220   38.6830 C   0  0  0  0  0  0  0  0  0  0  0  0
   37.2880   32.3470   37.8940 H   0  0  0  0  0  0  0  0  0  0  0  0
   38.3470   31.0920   38.5170 H   0  0  0  0  0  0  0  0  0  0  0  0
   36.3440   30.5650   38.5920 C   0  0  0  0  0  3  0  0  0  0  0  0
   35.8730   29.6430   37.7620 C   0  0  0  0  0  3  0  0  0  0  0  0
   34.6640   28.7560   38.0080 C   0  0  0  0  0  0  0  0  0  0  0  0
   34.0360   28.8140   37.0820 H   0  0  0  0  0  0  0  0  0  0  0  0
   34.9910   27.7560   38.2790 H   0  0  0  0  0  0  0  0  0  0  0  0
   34.0950   29.2400   38.8390 H   0  0  0  0  0  0  0  0  0  0  0  0
   38.2850   28.4650   42.9430 O   0  0  0  0  0  0  0  0  0  0  0  0
   38.6400   26.2790   41.8610 C   0  0  0  0  0  0  0  0  0  0  0  0
   38.8640   27.2090   42.8220 C   0  0  0  0  0  0  0  0  0  0  0  0
   39.7750   26.9140   43.8180 C   0  0  0  0  0  0  0  0  0  0  0  0
   40.4570   25.7210   43.8670 C   0  0  0  0  0  0  0  0  0  0  0  0
   40.2210   24.7810   42.8810 C   0  0  0  0  0  0  0  0  0  0  0  0
   39.3060   25.0770   41.8830 C   0  0  0  0  0  0  0  0  0  0  0  0
   40.0150   27.5950   44.6250 H   0  0  0  0  0  0  0  0  0  0  0  0
   41.1750   25.4870   44.6520 H   0  0  0  0  0  0  0  0  0  0  0  0
   40.7570   23.8390   42.9150 H   0  0  0  0  0  0  0  0  0  0  0  0
   39.1210   24.3420   41.1110 H   0  0  0  0  0  0  0  0  0  0  0  0
   37.4140   26.6610   40.6980 S   0  0  0  0  0  0  0  0  0  0  0  0
   36.3040   27.4900   41.2070 O   0  0  0  0  0  0  0  0  0  0  0  0
   36.7670   25.3150   40.3000 O   0  0  0  0  0  0  0  0  0  0  0  0
   38.0810   27.3490   39.2360 C   0  0  0  0  0  3  0  0  0  0  0  0
   39.1660   28.0700   39.0330 C   0  0  0  0  0  3  0  0  0  0  0  0
   39.6020   28.5870   37.7040 C   0  0  0  0  0  2  0  0  0  0  0  0
   38.7310   28.8760   37.0810 H   0  0  0  0  0  0  0  0  0  0  0  0
  1  7  1  0  0  0  0
  1  6  1  0  0  0  0
  2  1  2  0  0  0  0
  3  2  1  0  0  0  0
  3  4  2  0  0  0  0
  4  5  1  0  0  0  0
  5  6  2  0  0  0  0
  5 21  1  0  0  0  0
  8  2  1  0  0  0  0
  9 10  1  0  0  0  0
  9  3  1  0  0  0  0
 11  9  1  0  0  0  0
 12  9  1  0  0  0  0
 13 12  1  0  0  0  0
 14 12  1  0  0  0  0
 15 12  1  0  0  0  0
 16 17  1  0  0  0  0
 16 15  2  0  0  0  0
 17 19  1  0  0  0  0
 17 20  1  0  0  0  0
 18 17  1  0  0  0  0
 22 27  2  0  0  0  0
 22 23  1  0  0  0  0
 23 21  1  0  0  0  0
 23 24  2  0  0  0  0
 24 25  1  0  0  0  0
 24 28  1  0  0  0  0
 25 29  1  0  0  0  0
 26 30  1  0  0  0  0
 26 25  2  0  0  0  0
 27 26  1  0  0  0  0
 31 27  1  0  0  0  0
 32 33  2  0  0  0  0
 32 22  1  0  0  0  0
 34 32  2  0  0  0  0
 35 32  1  0  0  0  0
 36 35  2  0  0  0  0
 37 36  1  0  0  0  0
 38 37  1  0  0  0  0
M  END
>  <minimizedAffinity>
-4.88205767

$$$$
