
 OpenBabel03242517543D

 38 39  0  0  0  0  0  0  0  0999 V2000
   45.3210   34.2500   43.7700 C   0  0  0  0  0  0  0  0  0  0  0  0
   46.4790   34.7570   43.1460 C   0  0  0  0  0  0  0  0  0  0  0  0
   47.6640   34.0850   43.2820 C   0  0  0  0  0  0  0  0  0  0  0  0
   47.6320   32.9650   44.0210 N   0  0  0  0  0  0  0  0  0  0  0  0
   46.5460   32.4900   44.6060 C   0  0  0  0  0  0  0  0  0  0  0  0
   45.3880   33.1320   44.4820 N   0  0  0  0  0  0  0  0  0  0  0  0
   44.3780   34.7730   43.6690 H   0  0  0  0  0  0  0  0  0  0  0  0
   46.3270   35.6630   42.5880 H   0  0  0  0  0  0  0  0  0  0  0  0
   48.9190   34.5180   42.6570 C   0  0  0  0  0  0  0  0  0  0  0  0
   49.5770   34.8720   43.5020 H   0  0  0  0  0  0  0  0  0  0  0  0
   49.4770   33.6930   42.1670 H   0  0  0  0  0  0  0  0  0  0  0  0
   48.7410   35.6720   41.7180 C   0  0  0  0  0  0  0  0  0  0  0  0
   48.0010   36.3820   42.0360 H   0  0  0  0  0  0  0  0  0  0  0  0
   49.7300   36.2340   41.7640 H   0  0  0  0  0  0  0  0  0  0  0  0
   48.6030   35.2710   40.3160 C   0  0  0  0  0  3  0  0  0  0  0  0
   48.0410   34.3470   39.5470 C   0  0  0  0  0  3  0  0  0  0  0  0
   48.2380   34.1950   38.0480 C   0  0  0  0  0  0  0  0  0  0  0  0
   48.4640   33.1120   37.8670 H   0  0  0  0  0  0  0  0  0  0  0  0
   47.3660   34.5760   37.5220 H   0  0  0  0  0  0  0  0  0  0  0  0
   49.1540   34.7820   37.8000 H   0  0  0  0  0  0  0  0  0  0  0  0
   46.5260   31.3400   45.3600 O   0  0  0  0  0  0  0  0  0  0  0  0
   45.4480   30.1600   47.2370 C   0  0  0  0  0  0  0  0  0  0  0  0
   46.0700   31.2210   46.6660 C   0  0  0  0  0  0  0  0  0  0  0  0
   46.3010   32.3400   47.4440 C   0  0  0  0  0  0  0  0  0  0  0  0
   45.9260   32.4130   48.7650 C   0  0  0  0  0  0  0  0  0  0  0  0
   45.2940   31.3250   49.3360 C   0  0  0  0  0  0  0  0  0  0  0  0
   45.0620   30.2030   48.5560 C   0  0  0  0  0  0  0  0  0  0  0  0
   46.7890   33.2320   47.0720 H   0  0  0  0  0  0  0  0  0  0  0  0
   46.1070   33.2940   49.3780 H   0  0  0  0  0  0  0  0  0  0  0  0
   44.9970   31.3770   50.3780 H   0  0  0  0  0  0  0  0  0  0  0  0
   44.5670   29.3510   49.0020 H   0  0  0  0  0  0  0  0  0  0  0  0
   45.0930   28.8270   46.1880 S   0  0  0  0  0  0  0  0  0  0  0  0
   44.2930   29.1650   44.9950 O   0  0  0  0  0  0  0  0  0  0  0  0
   44.2090   27.8610   47.0100 O   0  0  0  0  0  0  0  0  0  0  0  0
   46.5290   27.9370   45.7420 C   0  0  0  0  0  3  0  0  0  0  0  0
   47.7010   27.8280   46.3360 C   0  0  0  0  0  3  0  0  0  0  0  0
   48.8400   27.0150   45.8150 C   0  0  0  0  0  2  0  0  0  0  0  0
   48.8840   27.0520   44.7080 H   0  0  0  0  0  0  0  0  0  0  0  0
  1  6  1  0  0  0  0
  2  3  1  0  0  0  0
  2  1  2  0  0  0  0
  3  4  2  0  0  0  0
  4  5  1  0  0  0  0
  5 21  1  0  0  0  0
  6  5  2  0  0  0  0
  7  1  1  0  0  0  0
  8  2  1  0  0  0  0
  9  3  1  0  0  0  0
  9 10  1  0  0  0  0
 11  9  1  0  0  0  0
 12 14  1  0  0  0  0
 12 13  1  0  0  0  0
 12  9  1  0  0  0  0
 15 12  1  0  0  0  0
 16 15  2  0  0  0  0
 17 16  1  0  0  0  0
 18 17  1  0  0  0  0
 19 17  1  0  0  0  0
 20 17  1  0  0  0  0
 21 23  1  0  0  0  0
 22 27  1  0  0  0  0
 23 22  2  0  0  0  0
 23 24  1  0  0  0  0
 24 25  2  0  0  0  0
 25 26  1  0  0  0  0
 25 29  1  0  0  0  0
 26 30  1  0  0  0  0
 27 31  1  0  0  0  0
 27 26  2  0  0  0  0
 28 24  1  0  0  0  0
 32 34  2  0  0  0  0
 32 22  1  0  0  0  0
 33 32  2  0  0  0  0
 35 32  1  0  0  0  0
 35 36  2  0  0  0  0
 37 36  1  0  0  0  0
 38 37  1  0  0  0  0
M  END
>  <minimizedAffinity>
-5.43984032

>  <minimizedRMSD>
1.33057368

$$$$
