
 OpenBabel03242517543D

 38 39  0  0  0  0  0  0  0  0999 V2000
   45.4310   34.1870   43.8670 C   0  0  0  0  0  0  0  0  0  0  0  0
   46.5390   34.6980   43.1610 C   0  0  0  0  0  0  0  0  0  0  0  0
   47.7490   34.0650   43.2590 C   0  0  0  0  0  0  0  0  0  0  0  0
   47.7890   32.9760   44.0430 N   0  0  0  0  0  0  0  0  0  0  0  0
   46.7510   32.4960   44.7050 C   0  0  0  0  0  0  0  0  0  0  0  0
   45.5690   33.1010   44.6190 N   0  0  0  0  0  0  0  0  0  0  0  0
   44.4700   34.6790   43.7970 H   0  0  0  0  0  0  0  0  0  0  0  0
   46.3310   35.5770   42.5780 H   0  0  0  0  0  0  0  0  0  0  0  0
   48.9560   34.5060   42.5510 C   0  0  0  0  0  0  0  0  0  0  0  0
   49.6720   34.8560   43.3500 H   0  0  0  0  0  0  0  0  0  0  0  0
   49.4790   33.6870   42.0150 H   0  0  0  0  0  0  0  0  0  0  0  0
   48.7090   35.6680   41.6360 C   0  0  0  0  0  0  0  0  0  0  0  0
   47.9360   36.3320   41.9750 H   0  0  0  0  0  0  0  0  0  0  0  0
   49.6680   36.2790   41.6850 H   0  0  0  0  0  0  0  0  0  0  0  0
   48.5790   35.2870   40.2280 C   0  0  0  0  0  3  0  0  0  0  0  0
   48.0720   34.3430   39.4470 C   0  0  0  0  0  3  0  0  0  0  0  0
   48.2560   34.2360   37.9420 C   0  0  0  0  0  0  0  0  0  0  0  0
   48.5550   33.1760   37.7340 H   0  0  0  0  0  0  0  0  0  0  0  0
   47.3520   34.5650   37.4360 H   0  0  0  0  0  0  0  0  0  0  0  0
   49.1250   34.8920   37.6940 H   0  0  0  0  0  0  0  0  0  0  0  0
   46.8050   31.3780   45.5040 O   0  0  0  0  0  0  0  0  0  0  0  0
   45.5110   30.1940   47.2360 C   0  0  0  0  0  0  0  0  0  0  0  0
   46.2340   31.2380   46.7620 C   0  0  0  0  0  0  0  0  0  0  0  0
   46.4560   32.3140   47.6000 C   0  0  0  0  0  0  0  0  0  0  0  0
   45.9740   32.3600   48.8880 C   0  0  0  0  0  0  0  0  0  0  0  0
   45.2400   31.2890   49.3600 C   0  0  0  0  0  0  0  0  0  0  0  0
   45.0170   30.2100   48.5190 C   0  0  0  0  0  0  0  0  0  0  0  0
   47.0190   33.1910   47.3060 H   0  0  0  0  0  0  0  0  0  0  0  0
   46.1480   33.2080   49.5490 H   0  0  0  0  0  0  0  0  0  0  0  0
   44.8600   31.3200   50.3750 H   0  0  0  0  0  0  0  0  0  0  0  0
   44.4430   29.3710   48.8880 H   0  0  0  0  0  0  0  0  0  0  0  0
   45.1780   28.9210   46.1090 S   0  0  0  0  0  0  0  0  0  0  0  0
   44.5690   29.3540   44.8360 O   0  0  0  0  0  0  0  0  0  0  0  0
   44.1160   28.0210   46.7810 O   0  0  0  0  0  0  0  0  0  0  0  0
   46.5770   27.9140   45.8170 C   0  0  0  0  0  3  0  0  0  0  0  0
   47.7000   27.7730   46.4920 C   0  0  0  0  0  3  0  0  0  0  0  0
   48.8120   26.8580   46.1030 C   0  0  0  0  0  2  0  0  0  0  0  0
   48.9260   26.8140   45.0000 H   0  0  0  0  0  0  0  0  0  0  0  0
  1  6  1  0  0  0  0
  2  3  1  0  0  0  0
  2  1  2  0  0  0  0
  3  4  2  0  0  0  0
  4  5  1  0  0  0  0
  5 21  1  0  0  0  0
  6  5  2  0  0  0  0
  7  1  1  0  0  0  0
  8  2  1  0  0  0  0
  9  3  1  0  0  0  0
  9 10  1  0  0  0  0
 11  9  1  0  0  0  0
 12 14  1  0  0  0  0
 12 13  1  0  0  0  0
 12  9  1  0  0  0  0
 15 12  1  0  0  0  0
 16 15  2  0  0  0  0
 17 16  1  0  0  0  0
 18 17  1  0  0  0  0
 19 17  1  0  0  0  0
 20 17  1  0  0  0  0
 21 23  1  0  0  0  0
 22 27  1  0  0  0  0
 23 22  2  0  0  0  0
 23 24  1  0  0  0  0
 24 25  2  0  0  0  0
 25 26  1  0  0  0  0
 25 29  1  0  0  0  0
 26 30  1  0  0  0  0
 27 31  1  0  0  0  0
 27 26  2  0  0  0  0
 28 24  1  0  0  0  0
 32 34  2  0  0  0  0
 32 22  1  0  0  0  0
 33 32  2  0  0  0  0
 35 32  1  0  0  0  0
 35 36  2  0  0  0  0
 37 36  1  0  0  0  0
 38 37  1  0  0  0  0
M  END
>  <minimizedAffinity>
-5.40574265

>  <minimizedRMSD>
1.16125906

$$$$
