
 OpenBabel03242517543D

 38 39  0  0  0  0  0  0  0  0999 V2000
   45.3180   34.2490   43.7610 C   0  0  0  0  0  0  0  0  0  0  0  0
   46.4770   34.7570   43.1410 C   0  0  0  0  0  0  0  0  0  0  0  0
   47.6630   34.0860   43.2810 C   0  0  0  0  0  0  0  0  0  0  0  0
   47.6300   32.9660   44.0200 N   0  0  0  0  0  0  0  0  0  0  0  0
   46.5430   32.4890   44.6010 C   0  0  0  0  0  0  0  0  0  0  0  0
   45.3840   33.1300   44.4730 N   0  0  0  0  0  0  0  0  0  0  0  0
   44.3750   34.7700   43.6560 H   0  0  0  0  0  0  0  0  0  0  0  0
   46.3260   35.6630   42.5830 H   0  0  0  0  0  0  0  0  0  0  0  0
   48.9200   34.5210   42.6610 C   0  0  0  0  0  0  0  0  0  0  0  0
   49.5740   34.8790   43.5090 H   0  0  0  0  0  0  0  0  0  0  0  0
   49.4820   33.6970   42.1750 H   0  0  0  0  0  0  0  0  0  0  0  0
   48.7420   35.6730   41.7190 C   0  0  0  0  0  0  0  0  0  0  0  0
   48.0030   36.3850   42.0360 H   0  0  0  0  0  0  0  0  0  0  0  0
   49.7320   36.2350   41.7650 H   0  0  0  0  0  0  0  0  0  0  0  0
   48.6050   35.2690   40.3190 C   0  0  0  0  0  3  0  0  0  0  0  0
   48.0380   34.3470   39.5510 C   0  0  0  0  0  3  0  0  0  0  0  0
   48.2370   34.1900   38.0530 C   0  0  0  0  0  0  0  0  0  0  0  0
   48.4560   33.1050   37.8750 H   0  0  0  0  0  0  0  0  0  0  0  0
   47.3690   34.5750   37.5240 H   0  0  0  0  0  0  0  0  0  0  0  0
   49.1580   34.7710   37.8050 H   0  0  0  0  0  0  0  0  0  0  0  0
   46.5220   31.3390   45.3550 O   0  0  0  0  0  0  0  0  0  0  0  0
   45.4470   30.1600   47.2340 C   0  0  0  0  0  0  0  0  0  0  0  0
   46.0670   31.2210   46.6620 C   0  0  0  0  0  0  0  0  0  0  0  0
   46.2980   32.3410   47.4390 C   0  0  0  0  0  0  0  0  0  0  0  0
   45.9250   32.4140   48.7600 C   0  0  0  0  0  0  0  0  0  0  0  0
   45.2950   31.3260   49.3330 C   0  0  0  0  0  0  0  0  0  0  0  0
   45.0630   30.2030   48.5530 C   0  0  0  0  0  0  0  0  0  0  0  0
   46.7850   33.2330   47.0650 H   0  0  0  0  0  0  0  0  0  0  0  0
   46.1070   33.2960   49.3720 H   0  0  0  0  0  0  0  0  0  0  0  0
   45.0000   31.3790   50.3750 H   0  0  0  0  0  0  0  0  0  0  0  0
   44.5690   29.3510   49.0010 H   0  0  0  0  0  0  0  0  0  0  0  0
   45.0920   28.8260   46.1870 S   0  0  0  0  0  0  0  0  0  0  0  0
   44.2930   29.1630   44.9930 O   0  0  0  0  0  0  0  0  0  0  0  0
   44.2070   27.8610   47.0090 O   0  0  0  0  0  0  0  0  0  0  0  0
   46.5280   27.9350   45.7420 C   0  0  0  0  0  3  0  0  0  0  0  0
   47.7010   27.8300   46.3330 C   0  0  0  0  0  3  0  0  0  0  0  0
   48.8390   27.0160   45.8150 C   0  0  0  0  0  2  0  0  0  0  0  0
   48.8810   27.0450   44.7070 H   0  0  0  0  0  0  0  0  0  0  0  0
  1  6  1  0  0  0  0
  2  3  1  0  0  0  0
  2  1  2  0  0  0  0
  3  4  2  0  0  0  0
  4  5  1  0  0  0  0
  5 21  1  0  0  0  0
  6  5  2  0  0  0  0
  7  1  1  0  0  0  0
  8  2  1  0  0  0  0
  9  3  1  0  0  0  0
  9 10  1  0  0  0  0
 11  9  1  0  0  0  0
 12 14  1  0  0  0  0
 12 13  1  0  0  0  0
 12  9  1  0  0  0  0
 15 12  1  0  0  0  0
 16 15  2  0  0  0  0
 17 16  1  0  0  0  0
 18 17  1  0  0  0  0
 19 17  1  0  0  0  0
 20 17  1  0  0  0  0
 21 23  1  0  0  0  0
 22 27  1  0  0  0  0
 23 22  2  0  0  0  0
 23 24  1  0  0  0  0
 24 25  2  0  0  0  0
 25 26  1  0  0  0  0
 25 29  1  0  0  0  0
 26 30  1  0  0  0  0
 27 31  1  0  0  0  0
 27 26  2  0  0  0  0
 28 24  1  0  0  0  0
 32 34  2  0  0  0  0
 32 22  1  0  0  0  0
 33 32  2  0  0  0  0
 35 32  1  0  0  0  0
 35 36  2  0  0  0  0
 37 36  1  0  0  0  0
 38 37  1  0  0  0  0
M  END
>  <minimizedAffinity>
-5.43974543

>  <minimizedRMSD>
1.12119877

$$$$
