
 OpenBabel03252507033D

 42 44  0  0  0  0  0  0  0  0999 V2000
   43.2980   32.8420   40.7380 C   0  0  0  0  0  0  0  0  0  0  0  0
   43.2210   33.0650   39.6460 H   0  0  0  0  0  0  0  0  0  0  0  0
   43.7790   31.8300   40.8480 H   0  0  0  0  0  0  0  0  0  0  0  0
   44.1840   33.7870   41.4380 C   0  0  0  0  0  0  0  0  0  0  0  0
   43.6740   34.9220   42.0220 C   0  0  0  0  0  0  0  0  0  0  0  0
   44.5490   35.7860   42.6680 C   0  0  0  0  0  0  0  0  0  0  0  0
   45.8800   35.4570   42.6910 N   0  0  0  0  0  0  0  0  0  0  0  0
   46.3330   34.3480   42.1180 C   0  0  0  0  0  0  0  0  0  0  0  0
   45.4720   33.5380   41.5030 N   0  0  0  0  0  0  0  0  0  0  0  0
   42.6840   35.3330   42.1210 H   0  0  0  0  0  0  0  0  0  0  0  0
   44.3280   36.7160   43.1750 H   0  0  0  0  0  0  0  0  0  0  0  0
   47.7640   34.0680   42.2140 C   0  0  0  0  0  0  0  0  0  0  0  0
   48.2290   32.7560   42.2050 C   0  0  0  0  0  0  0  0  0  0  0  0
   49.5810   32.5040   42.3090 C   0  0  0  0  0  0  0  0  0  0  0  0
   50.3640   33.6160   42.4160 C   0  0  0  0  0  0  0  0  0  0  0  0
   49.9540   34.9440   42.4300 C   0  0  0  0  0  0  0  0  0  0  0  0
   48.6130   35.1180   42.3240 N   0  0  0  0  0  0  0  0  0  0  0  0
   47.5020   31.9410   42.1140 H   0  0  0  0  0  0  0  0  0  0  0  0
   49.9780   31.5190   42.3060 H   0  0  0  0  0  0  0  0  0  0  0  0
   51.4450   33.4770   42.5010 H   0  0  0  0  0  0  0  0  0  0  0  0
   50.6460   35.7670   42.5180 H   0  0  0  0  0  0  0  0  0  0  0  0
   41.9800   32.8380   41.4330 C   0  0  0  0  0  0  0  0  0  0  0  0
   42.0700   32.1910   42.3360 H   0  0  0  0  0  0  0  0  0  0  0  0
   41.8990   33.8810   41.8910 H   0  0  0  0  0  0  0  0  0  0  0  0
   40.9620   32.5020   40.6480 N   0  0  0  0  0  0  0  0  0  0  0  0
   40.5750   31.2350   40.1670 C   0  0  0  0  0  0  0  0  0  0  0  0
   39.3470   31.0120   41.0820 C   0  0  0  0  0  0  0  0  0  0  0  0
   38.3080   32.0040   40.8730 C   0  0  0  0  0  0  0  0  0  0  0  0
   38.6510   33.3170   40.3680 C   0  0  0  0  0  0  0  0  0  0  0  0
   40.1100   33.6450   40.2410 C   0  0  0  0  0  0  0  0  0  0  0  0
   41.3400   30.4780   40.4530 H   0  0  0  0  0  0  0  0  0  0  0  0
   40.3600   31.0860   39.1220 H   0  0  0  0  0  0  0  0  0  0  0  0
   39.0190   29.9640   40.8780 H   0  0  0  0  0  0  0  0  0  0  0  0
   39.7280   31.0250   42.1230 H   0  0  0  0  0  0  0  0  0  0  0  0
   37.7500   32.1550   41.8440 H   0  0  0  0  0  0  0  0  0  0  0  0
   37.5170   31.5650   40.2020 H   0  0  0  0  0  0  0  0  0  0  0  0
   37.9950   34.1000   40.0860 H   0  0  0  0  0  0  0  0  0  0  0  0
   40.6570   35.2250   39.7050 S   0  0  0  0  0  0  0  0  0  0  0  0
   40.7380   35.4080   37.9540 C   0  0  0  0  0  3  0  0  0  0  0  0
   41.0800   36.6100   37.5120 C   0  0  0  0  0  3  0  0  0  0  0  0
   41.2130   36.9990   36.0800 C   0  0  0  0  0  2  0  0  0  0  0  0
   42.2790   37.3150   35.8940 H   0  0  0  0  0  0  0  0  0  0  0  0
  1  3  1  0  0  0  0
  1 22  1  0  0  0  0
  1  4  1  0  0  0  0
  2  1  1  0  0  0  0
  4  9  2  0  0  0  0
  4  5  1  0  0  0  0
  5 10  1  0  0  0  0
  5  6  2  0  0  0  0
  6  7  1  0  0  0  0
  6 11  1  0  0  0  0
  8 12  1  0  0  0  0
  8  7  2  0  0  0  0
  9  8  1  0  0  0  0
 12 17  1  0  0  0  0
 13 12  2  0  0  0  0
 13 14  1  0  0  0  0
 14 15  2  0  0  0  0
 15 16  1  0  0  0  0
 15 20  1  0  0  0  0
 16 21  1  0  0  0  0
 17 16  2  0  0  0  0
 18 13  1  0  0  0  0
 19 14  1  0  0  0  0
 22 24  1  0  0  0  0
 22 23  1  0  0  0  0
 25 22  1  0  0  0  0
 26 31  1  0  0  0  0
 26 25  1  0  0  0  0
 26 27  1  0  0  0  0
 27 34  1  0  0  0  0
 28 27  1  0  0  0  0
 28 35  1  0  0  0  0
 29 28  1  0  0  0  0
 30 29  2  0  0  0  0
 30 25  1  0  0  0  0
 32 26  1  0  0  0  0
 33 27  1  0  0  0  0
 36 28  1  0  0  0  0
 37 29  1  0  0  0  0
 38 30  1  0  0  0  0
 39 38  1  0  0  0  0
 40 39  2  0  0  0  0
 41 40  1  0  0  0  0
 42 41  1  0  0  0  0
M  END
>  <minimizedAffinity>
-5.42881203

>  <minimizedRMSD>
1.08557475

$$$$
