
 OpenBabel03252507033D

 42 44  0  0  0  0  0  0  0  0999 V2000
   43.0930   33.0180   41.3820 C   0  0  0  0  0  0  0  0  0  0  0  0
   43.3500   32.6180   40.3700 H   0  0  0  0  0  0  0  0  0  0  0  0
   43.0910   32.1530   42.1020 H   0  0  0  0  0  0  0  0  0  0  0  0
   44.1120   33.9560   41.8840 C   0  0  0  0  0  0  0  0  0  0  0  0
   43.7470   35.1860   42.3790 C   0  0  0  0  0  0  0  0  0  0  0  0
   44.7440   36.0380   42.8380 C   0  0  0  0  0  0  0  0  0  0  0  0
   46.0430   35.6040   42.7740 N   0  0  0  0  0  0  0  0  0  0  0  0
   46.3540   34.4070   42.2920 C   0  0  0  0  0  0  0  0  0  0  0  0
   45.3790   33.6090   41.8570 N   0  0  0  0  0  0  0  0  0  0  0  0
   42.8050   35.6860   42.5210 H   0  0  0  0  0  0  0  0  0  0  0  0
   44.6430   37.0320   43.2520 H   0  0  0  0  0  0  0  0  0  0  0  0
   47.7630   34.0210   42.2870 C   0  0  0  0  0  0  0  0  0  0  0  0
   48.1280   32.6820   42.1730 C   0  0  0  0  0  0  0  0  0  0  0  0
   49.4610   32.3290   42.1810 C   0  0  0  0  0  0  0  0  0  0  0  0
   50.3300   33.3730   42.3070 C   0  0  0  0  0  0  0  0  0  0  0  0
   50.0200   34.7230   42.4250 C   0  0  0  0  0  0  0  0  0  0  0  0
   48.6920   34.9990   42.4090 N   0  0  0  0  0  0  0  0  0  0  0  0
   47.3390   31.9280   42.0770 H   0  0  0  0  0  0  0  0  0  0  0  0
   49.7830   31.3200   42.0960 H   0  0  0  0  0  0  0  0  0  0  0  0
   51.4000   33.1530   42.3200 H   0  0  0  0  0  0  0  0  0  0  0  0
   50.7750   35.4880   42.5210 H   0  0  0  0  0  0  0  0  0  0  0  0
   41.7700   33.7010   41.4280 C   0  0  0  0  0  0  0  0  0  0  0  0
   41.3940   33.6500   42.4750 H   0  0  0  0  0  0  0  0  0  0  0  0
   42.0200   34.8100   41.3160 H   0  0  0  0  0  0  0  0  0  0  0  0
   40.9000   33.2410   40.5360 N   0  0  0  0  0  0  0  0  0  0  0  0
   40.1160   32.0690   40.5630 C   0  0  0  0  0  0  0  0  0  0  0  0
   38.7490   32.7200   40.8820 C   0  0  0  0  0  0  0  0  0  0  0  0
   38.3090   33.6350   39.8430 C   0  0  0  0  0  0  0  0  0  0  0  0
   39.2830   34.2890   38.9950 C   0  0  0  0  0  0  0  0  0  0  0  0
   40.7320   34.1140   39.3500 C   0  0  0  0  0  0  0  0  0  0  0  0
   40.4000   31.4520   41.4440 H   0  0  0  0  0  0  0  0  0  0  0  0
   40.0860   31.4100   39.7130 H   0  0  0  0  0  0  0  0  0  0  0  0
   38.0520   31.8650   41.0550 H   0  0  0  0  0  0  0  0  0  0  0  0
   38.8670   33.2310   41.8590 H   0  0  0  0  0  0  0  0  0  0  0  0
   37.6790   34.4450   40.3150 H   0  0  0  0  0  0  0  0  0  0  0  0
   37.5690   33.1030   39.1820 H   0  0  0  0  0  0  0  0  0  0  0  0
   39.1060   34.9030   38.1510 H   0  0  0  0  0  0  0  0  0  0  0  0
   42.0060   34.9100   38.4410 S   0  0  0  0  0  0  0  0  0  0  0  0
   41.5920   36.5270   37.8770 C   0  0  0  0  0  3  0  0  0  0  0  0
   41.0740   36.6020   36.6590 C   0  0  0  0  0  3  0  0  0  0  0  0
   40.6500   37.8550   35.9750 C   0  0  0  0  0  2  0  0  0  0  0  0
   39.5440   37.7870   35.7630 H   0  0  0  0  0  0  0  0  0  0  0  0
  1 22  1  0  0  0  0
  1  4  1  0  0  0  0
  1  3  1  0  0  0  0
  2  1  1  0  0  0  0
  4  5  1  0  0  0  0
  5 10  1  0  0  0  0
  5  6  2  0  0  0  0
  6 11  1  0  0  0  0
  7  6  1  0  0  0  0
  8  7  2  0  0  0  0
  9  4  2  0  0  0  0
  9  8  1  0  0  0  0
 12  8  1  0  0  0  0
 12 17  1  0  0  0  0
 13 14  1  0  0  0  0
 13 12  2  0  0  0  0
 14 15  2  0  0  0  0
 15 20  1  0  0  0  0
 15 16  1  0  0  0  0
 16 21  1  0  0  0  0
 17 16  2  0  0  0  0
 18 13  1  0  0  0  0
 19 14  1  0  0  0  0
 22 23  1  0  0  0  0
 24 22  1  0  0  0  0
 25 26  1  0  0  0  0
 25 22  1  0  0  0  0
 26 27  1  0  0  0  0
 26 31  1  0  0  0  0
 27 33  1  0  0  0  0
 27 34  1  0  0  0  0
 28 35  1  0  0  0  0
 28 27  1  0  0  0  0
 29 30  2  0  0  0  0
 29 28  1  0  0  0  0
 30 25  1  0  0  0  0
 32 26  1  0  0  0  0
 36 28  1  0  0  0  0
 37 29  1  0  0  0  0
 38 30  1  0  0  0  0
 39 38  1  0  0  0  0
 40 39  2  0  0  0  0
 41 40  1  0  0  0  0
 42 41  1  0  0  0  0
M  END
>  <minimizedAffinity>
-5.25873899

>  <minimizedRMSD>
0.486066401

$$$$
