
 OpenBabel03252505473D

 24 25  0  0  1  0  0  0  0  0999 V2000
   46.0700   32.8690   44.0730 C   0  0  0  0  0  0  0  0  0  0  0  0
   46.6580   31.6930   43.5260 C   0  0  0  0  0  0  0  0  0  0  0  0
   47.4000   30.8190   44.3330 C   0  0  0  0  0  0  0  0  0  0  0  0
   47.5030   31.1840   45.6450 N   0  0  0  0  0  0  0  0  0  0  0  0
   46.9210   32.3260   46.1320 C   0  0  0  0  0  0  0  0  0  0  0  0
   46.2270   33.1340   45.3550 N   0  0  0  0  0  0  0  0  0  0  0  0
   46.5570   31.4320   42.4740 H   0  0  0  0  0  0  0  0  0  0  0  0
   47.8540   29.9230   43.9470 H   0  0  0  0  0  0  0  0  0  0  0  0
   45.3170   33.7500   43.1640 C   0  0  1  0  0  0  0  0  0  0  0  0
   45.9170   35.2020   43.1540 C   0  0  1  0  0  0  0  0  0  0  0  0
   45.8060   34.2920   41.9540 C   0  0  0  0  0  0  0  0  0  0  0  0
   44.2120   33.7470   43.3850 H   0  0  0  0  0  0  0  0  0  0  0  0
   46.8790   35.3620   43.6340 H   0  0  0  0  0  0  0  0  0  0  0  0
   45.1710   34.5750   41.1120 H   0  0  0  0  0  0  0  0  0  0  0  0
   46.8190   33.9430   41.5930 H   0  0  0  0  0  0  0  0  0  0  0  0
   44.8750   36.2930   43.1900 C   0  0  0  0  0  0  0  0  0  0  0  0
   45.4060   37.5510   43.2350 F   0  0  0  0  0  0  0  0  0  0  0  0
   44.0910   36.2010   42.0260 F   0  0  0  0  0  0  0  0  0  0  0  0
   43.9840   36.0860   44.2330 F   0  0  0  0  0  0  0  0  0  0  0  0
   47.1320   32.5420   47.4950 O   0  0  0  0  0  0  0  0  0  0  0  0
   47.4940   31.4520   48.2650 C   0  0  0  0  0  3  0  0  0  0  0  0
   48.6230   31.5670   48.9700 C   0  0  0  0  0  3  0  0  0  0  0  0
   49.2250   30.5470   49.8690 C   0  0  0  0  0  2  0  0  0  0  0  0
   48.4460   29.7610   50.0250 H   0  0  0  0  0  0  0  0  0  0  0  0
  1  6  1  0  0  0  0
  2  1  2  0  0  0  0
  2  3  1  0  0  0  0
  3  4  2  0  0  0  0
  4  5  1  0  0  0  0
  5 20  1  0  0  0  0
  6  5  2  0  0  0  0
  7  2  1  0  0  0  0
  8  3  1  0  0  0  0
  9 12  1  1  0  0  0
  9  1  1  0  0  0  0
 10  9  1  0  0  0  0
 10 16  1  0  0  0  0
 10 13  1  1  0  0  0
 11 10  1  0  0  0  0
 11  9  1  0  0  0  0
 14 11  1  0  0  0  0
 15 11  1  0  0  0  0
 16 17  1  0  0  0  0
 16 19  1  0  0  0  0
 18 16  1  0  0  0  0
 20 21  1  0  0  0  0
 21 22  2  0  0  0  0
 22 23  1  0  0  0  0
 23 24  1  0  0  0  0
M  END
>  <minimizedAffinity>
-4.47471952

>  <minimizedRMSD>
0.816139936

$$$$
