
 OpenBabel03252505473D

 24 25  0  0  1  0  0  0  0  0999 V2000
   45.9280   32.6840   44.5360 C   0  0  0  0  0  0  0  0  0  0  0  0
   46.3510   31.4120   44.0550 C   0  0  0  0  0  0  0  0  0  0  0  0
   47.1210   30.5600   44.8580 C   0  0  0  0  0  0  0  0  0  0  0  0
   47.4190   31.0430   46.1010 N   0  0  0  0  0  0  0  0  0  0  0  0
   46.9920   32.2740   46.5260 C   0  0  0  0  0  0  0  0  0  0  0  0
   46.2680   33.0600   45.7530 N   0  0  0  0  0  0  0  0  0  0  0  0
   46.0970   31.0580   43.0570 H   0  0  0  0  0  0  0  0  0  0  0  0
   47.4530   29.5940   44.5210 H   0  0  0  0  0  0  0  0  0  0  0  0
   45.1350   33.5350   43.6330 C   0  0  1  0  0  0  0  0  0  0  0  0
   45.8300   34.9260   43.4050 C   0  0  1  0  0  0  0  0  0  0  0  0
   45.5110   33.9190   42.3250 C   0  0  0  0  0  0  0  0  0  0  0  0
   44.0670   33.6430   43.9760 H   0  0  0  0  0  0  0  0  0  0  0  0
   46.8510   35.0510   43.7540 H   0  0  0  0  0  0  0  0  0  0  0  0
   44.8000   34.1720   41.5360 H   0  0  0  0  0  0  0  0  0  0  0  0
   46.4460   33.4560   41.8900 H   0  0  0  0  0  0  0  0  0  0  0  0
   44.8790   36.0960   43.4460 C   0  0  0  0  0  0  0  0  0  0  0  0
   45.4850   37.2980   43.2130 F   0  0  0  0  0  0  0  0  0  0  0  0
   43.8990   35.9120   42.4540 F   0  0  0  0  0  0  0  0  0  0  0  0
   44.1730   36.1130   44.6400 F   0  0  0  0  0  0  0  0  0  0  0  0
   47.3900   32.6040   47.8220 O   0  0  0  0  0  0  0  0  0  0  0  0
   47.7350   31.5650   48.6670 C   0  0  0  0  0  3  0  0  0  0  0  0
   48.9680   31.5980   49.1830 C   0  0  0  0  0  3  0  0  0  0  0  0
   49.5780   30.6090   50.1100 C   0  0  0  0  0  2  0  0  0  0  0  0
   48.7430   29.9610   50.4770 H   0  0  0  0  0  0  0  0  0  0  0  0
  1  6  1  0  0  0  0
  2  1  2  0  0  0  0
  2  3  1  0  0  0  0
  3  4  2  0  0  0  0
  4  5  1  0  0  0  0
  5 20  1  0  0  0  0
  6  5  2  0  0  0  0
  7  2  1  0  0  0  0
  8  3  1  0  0  0  0
  9 12  1  1  0  0  0
  9  1  1  0  0  0  0
 10 16  1  0  0  0  0
 10  9  1  0  0  0  0
 10 13  1  1  0  0  0
 11 10  1  0  0  0  0
 11  9  1  0  0  0  0
 14 11  1  0  0  0  0
 15 11  1  0  0  0  0
 16 19  1  0  0  0  0
 17 16  1  0  0  0  0
 18 16  1  0  0  0  0
 20 21  1  0  0  0  0
 21 22  2  0  0  0  0
 22 23  1  0  0  0  0
 23 24  1  0  0  0  0
M  END
>  <minimizedAffinity>
-4.55502939

>  <minimizedRMSD>
0.829164267

$$$$
