
 OpenBabel03242518273D

 16 16  0  0  0  0  0  0  0  0999 V2000
   46.0620   34.0870   44.6390 C   0  0  0  0  0  0  0  0  0  0  0  0
   46.5070   34.4130   43.3670 C   0  0  0  0  0  0  0  0  0  0  0  0
   45.9030   35.4750   42.6890 C   0  0  0  0  0  0  0  0  0  0  0  0
   44.8940   36.1430   43.3220 N   0  0  0  0  0  0  0  0  0  0  0  0
   44.4880   35.7970   44.5590 C   0  0  0  0  0  0  0  0  0  0  0  0
   45.0690   34.7700   45.2190 N   0  0  0  0  0  0  0  0  0  0  0  0
   47.2970   33.9130   42.8360 H   0  0  0  0  0  0  0  0  0  0  0  0
   46.2160   35.7610   41.7060 H   0  0  0  0  0  0  0  0  0  0  0  0
   43.6960   36.3620   44.9900 H   0  0  0  0  0  0  0  0  0  0  0  0
   46.7390   32.9940   45.2420 C   0  0  0  0  0  0  0  0  0  0  0  0
   47.3160   32.0430   44.6520 O   0  0  0  0  0  0  0  0  0  0  0  0
   46.7480   33.0010   46.6250 O   0  0  0  0  0  0  0  0  0  0  0  0
   46.1200   31.9940   47.3850 C   0  0  0  0  0  0  0  0  0  0  0  0
   45.8340   32.2850   48.6460 C   0  0  0  0  0  0  0  0  0  0  0  0
   45.1670   31.2900   49.5420 C   0  0  0  0  0  0  0  0  0  0  0  0
   45.6210   30.2890   49.3230 H   0  0  0  0  0  0  0  0  0  0  0  0
  1  6  1  0  0  0  0
  1 10  1  0  0  0  0
  2  1  2  0  0  0  0
  3  4  2  0  0  0  0
  3  2  1  0  0  0  0
  4  5  1  0  0  0  0
  5  9  1  0  0  0  0
  5  6  2  0  0  0  0
  7  2  1  0  0  0  0
  8  3  1  0  0  0  0
 10 12  1  0  0  0  0
 11 10  2  0  0  0  0
 12 13  1  0  0  0  0
 13 14  2  0  0  0  0
 14 15  1  0  0  0  0
 16 15  1  0  0  0  0
M  END
>  <minimizedAffinity>
-4.02424717

>  <minimizedRMSD>
5.98633528

$$$$
