
 OpenBabel03252507033D

 42 44  0  0  0  0  0  0  0  0999 V2000
   43.3950   32.4740   41.3530 C   0  0  0  0  0  0  0  0  0  0  0  0
   43.5080   32.2680   40.2610 H   0  0  0  0  0  0  0  0  0  0  0  0
   43.6650   31.5340   41.9100 H   0  0  0  0  0  0  0  0  0  0  0  0
   44.3350   33.5050   41.8260 C   0  0  0  0  0  0  0  0  0  0  0  0
   43.8740   34.7260   42.2590 C   0  0  0  0  0  0  0  0  0  0  0  0
   44.7990   35.6670   42.6930 C   0  0  0  0  0  0  0  0  0  0  0  0
   46.1270   35.3270   42.6660 N   0  0  0  0  0  0  0  0  0  0  0  0
   46.5310   34.1350   42.2430 C   0  0  0  0  0  0  0  0  0  0  0  0
   45.6240   33.2500   41.8310 N   0  0  0  0  0  0  0  0  0  0  0  0
   42.8960   35.1610   42.3670 H   0  0  0  0  0  0  0  0  0  0  0  0
   44.6200   36.6690   43.0600 H   0  0  0  0  0  0  0  0  0  0  0  0
   47.9650   33.8530   42.2740 C   0  0  0  0  0  0  0  0  0  0  0  0
   48.4320   32.5510   42.1170 C   0  0  0  0  0  0  0  0  0  0  0  0
   49.7860   32.2950   42.1610 C   0  0  0  0  0  0  0  0  0  0  0  0
   50.5700   33.3930   42.3630 C   0  0  0  0  0  0  0  0  0  0  0  0
   50.1580   34.7100   42.5260 C   0  0  0  0  0  0  0  0  0  0  0  0
   48.8140   34.8890   42.4720 N   0  0  0  0  0  0  0  0  0  0  0  0
   47.7040   31.7460   41.9600 H   0  0  0  0  0  0  0  0  0  0  0  0
   50.1840   31.3170   42.0440 H   0  0  0  0  0  0  0  0  0  0  0  0
   51.6520   33.2510   42.4060 H   0  0  0  0  0  0  0  0  0  0  0  0
   50.8500   35.5230   42.6820 H   0  0  0  0  0  0  0  0  0  0  0  0
   42.0170   32.8920   41.7350 C   0  0  0  0  0  0  0  0  0  0  0  0
   41.8180   32.5190   42.7650 H   0  0  0  0  0  0  0  0  0  0  0  0
   42.0990   34.0200   41.8980 H   0  0  0  0  0  0  0  0  0  0  0  0
   41.0870   32.5310   40.8580 N   0  0  0  0  0  0  0  0  0  0  0  0
   40.5430   31.2560   40.5940 C   0  0  0  0  0  0  0  0  0  0  0  0
   39.1700   31.4500   41.2790 C   0  0  0  0  0  0  0  0  0  0  0  0
   38.3830   32.5050   40.6660 C   0  0  0  0  0  0  0  0  0  0  0  0
   39.0430   33.5870   39.9670 C   0  0  0  0  0  0  0  0  0  0  0  0
   40.5400   33.6530   40.0580 C   0  0  0  0  0  0  0  0  0  0  0  0
   41.0970   30.4870   41.1780 H   0  0  0  0  0  0  0  0  0  0  0  0
   40.4680   30.8900   39.5840 H   0  0  0  0  0  0  0  0  0  0  0  0
   38.6840   30.4460   41.2460 H   0  0  0  0  0  0  0  0  0  0  0  0
   39.3820   31.6610   42.3480 H   0  0  0  0  0  0  0  0  0  0  0  0
   37.7220   32.9700   41.4550 H   0  0  0  0  0  0  0  0  0  0  0  0
   37.6360   32.0380   39.9640 H   0  0  0  0  0  0  0  0  0  0  0  0
   38.6000   34.3660   39.4020 H   0  0  0  0  0  0  0  0  0  0  0  0
   41.4540   34.9540   39.3120 S   0  0  0  0  0  0  0  0  0  0  0  0
   40.8150   35.4900   37.7590 C   0  0  0  0  0  3  0  0  0  0  0  0
   41.3800   36.5710   37.2410 C   0  0  0  0  0  3  0  0  0  0  0  0
   41.0090   37.2040   35.9460 C   0  0  0  0  0  2  0  0  0  0  0  0
   41.9060   37.1720   35.2630 H   0  0  0  0  0  0  0  0  0  0  0  0
  1 22  1  0  0  0  0
  1  4  1  0  0  0  0
  1  3  1  0  0  0  0
  2  1  1  0  0  0  0
  4  9  2  0  0  0  0
  4  5  1  0  0  0  0
  5 10  1  0  0  0  0
  5  6  2  0  0  0  0
  6 11  1  0  0  0  0
  7  6  1  0  0  0  0
  8 12  1  0  0  0  0
  8  7  2  0  0  0  0
  9  8  1  0  0  0  0
 12 17  1  0  0  0  0
 13 14  1  0  0  0  0
 13 12  2  0  0  0  0
 14 15  2  0  0  0  0
 15 20  1  0  0  0  0
 15 16  1  0  0  0  0
 16 21  1  0  0  0  0
 17 16  2  0  0  0  0
 18 13  1  0  0  0  0
 19 14  1  0  0  0  0
 22 24  1  0  0  0  0
 22 23  1  0  0  0  0
 25 22  1  0  0  0  0
 26 25  1  0  0  0  0
 26 31  1  0  0  0  0
 26 27  1  0  0  0  0
 27 34  1  0  0  0  0
 28 27  1  0  0  0  0
 28 35  1  0  0  0  0
 29 30  2  0  0  0  0
 29 28  1  0  0  0  0
 30 25  1  0  0  0  0
 32 26  1  0  0  0  0
 33 27  1  0  0  0  0
 36 28  1  0  0  0  0
 37 29  1  0  0  0  0
 38 30  1  0  0  0  0
 39 38  1  0  0  0  0
 40 39  2  0  0  0  0
 41 40  1  0  0  0  0
 42 41  1  0  0  0  0
M  END
>  <minimizedAffinity>
-5.33886576

>  <minimizedRMSD>
0.881898284

$$$$
