
 OpenBabel03242518293D

 16 16  0  0  0  0  0  0  0  0999 V2000
   37.0800   27.9030   41.8640 C   0  0  0  0  0  0  0  0  0  0  0  0
   37.9230   28.2820   42.8970 C   0  0  0  0  0  0  0  0  0  0  0  0
   38.7650   27.3270   43.4710 C   0  0  0  0  0  0  0  0  0  0  0  0
   38.7130   26.0540   42.9780 N   0  0  0  0  0  0  0  0  0  0  0  0
   37.8810   25.7220   41.9730 C   0  0  0  0  0  0  0  0  0  0  0  0
   37.0640   26.6430   41.4150 N   0  0  0  0  0  0  0  0  0  0  0  0
   37.9940   29.2720   43.3120 H   0  0  0  0  0  0  0  0  0  0  0  0
   39.4320   27.5770   44.2700 H   0  0  0  0  0  0  0  0  0  0  0  0
   37.8940   24.7110   41.6400 H   0  0  0  0  0  0  0  0  0  0  0  0
   36.2650   28.9460   41.3500 C   0  0  0  0  0  0  0  0  0  0  0  0
   35.1630   28.8200   40.7520 O   0  0  0  0  0  0  0  0  0  0  0  0
   36.7580   30.2240   41.5390 O   0  0  0  0  0  0  0  0  0  0  0  0
   36.4920   31.2720   40.6370 C   0  0  0  0  0  3  0  0  0  0  0  0
   37.4650   32.1480   40.4310 C   0  0  0  0  0  3  0  0  0  0  0  0
   37.2890   33.3000   39.4930 C   0  0  0  0  0  2  0  0  0  0  0  0
   36.2500   33.6940   39.6410 H   0  0  0  0  0  0  0  0  0  0  0  0
  1  2  1  0  0  0  0
  2  7  1  0  0  0  0
  2  3  2  0  0  0  0
  3  8  1  0  0  0  0
  4  3  1  0  0  0  0
  5  4  2  0  0  0  0
  6  1  2  0  0  0  0
  6  5  1  0  0  0  0
  9  5  1  0  0  0  0
 10 12  1  0  0  0  0
 10  1  1  0  0  0  0
 11 10  2  0  0  0  0
 13 12  1  0  0  0  0
 14 13  2  0  0  0  0
 15 16  1  0  0  0  0
 15 14  1  0  0  0  0
M  END
>  <minimizedAffinity>
-3.61824417

$$$$

 OpenBabel03242518293D

 16 16  0  0  0  0  0  0  0  0999 V2000
   38.2830   29.9490   41.9870 C   0  0  0  0  0  0  0  0  0  0  0  0
   39.0360   31.0000   41.4890 C   0  0  0  0  0  0  0  0  0  0  0  0
   38.4020   31.9950   40.7410 C   0  0  0  0  0  0  0  0  0  0  0  0
   37.0560   31.8770   40.5370 N   0  0  0  0  0  0  0  0  0  0  0  0
   36.3570   30.8400   41.0360 C   0  0  0  0  0  0  0  0  0  0  0  0
   36.9660   29.8750   41.7600 N   0  0  0  0  0  0  0  0  0  0  0  0
   40.0950   31.1290   41.6280 H   0  0  0  0  0  0  0  0  0  0  0  0
   38.9450   32.8240   40.3390 H   0  0  0  0  0  0  0  0  0  0  0  0
   35.3120   30.8140   40.8370 H   0  0  0  0  0  0  0  0  0  0  0  0
   39.0200   28.9910   42.7330 C   0  0  0  0  0  0  0  0  0  0  0  0
   40.2720   28.9380   42.8680 O   0  0  0  0  0  0  0  0  0  0  0  0
   38.2580   28.0260   43.3650 O   0  0  0  0  0  0  0  0  0  0  0  0
   38.2570   26.6800   42.9510 C   0  0  0  0  0  3  0  0  0  0  0  0
   37.1040   26.1840   42.5260 C   0  0  0  0  0  3  0  0  0  0  0  0
   36.9900   24.7660   42.0630 C   0  0  0  0  0  2  0  0  0  0  0  0
   37.6080   24.1390   42.7570 H   0  0  0  0  0  0  0  0  0  0  0  0
  1 10  1  0  0  0  0
  2  7  1  0  0  0  0
  2  1  2  0  0  0  0
  3  2  1  0  0  0  0
  4  3  2  0  0  0  0
  4  5  1  0  0  0  0
  5  6  2  0  0  0  0
  6  1  1  0  0  0  0
  8  3  1  0  0  0  0
  9  5  1  0  0  0  0
 10 11  2  0  0  0  0
 10 12  1  0  0  0  0
 13 12  1  0  0  0  0
 14 13  2  0  0  0  0
 15 14  1  0  0  0  0
 15 16  1  0  0  0  0
M  END
>  <minimizedAffinity>
-3.59774089

$$$$

 OpenBabel03242518293D

 16 16  0  0  0  0  0  0  0  0999 V2000
   38.1920   26.7760   42.8820 C   0  0  0  0  0  0  0  0  0  0  0  0
   39.3770   26.7790   43.6010 C   0  0  0  0  0  0  0  0  0  0  0  0
   40.1290   25.6050   43.6750 C   0  0  0  0  0  0  0  0  0  0  0  0
   39.6520   24.5020   43.0250 N   0  0  0  0  0  0  0  0  0  0  0  0
   38.4960   24.5360   42.3360 C   0  0  0  0  0  0  0  0  0  0  0  0
   37.7640   25.6700   42.2620 N   0  0  0  0  0  0  0  0  0  0  0  0
   39.7860   27.6250   44.1240 H   0  0  0  0  0  0  0  0  0  0  0  0
   41.0500   25.5630   44.2180 H   0  0  0  0  0  0  0  0  0  0  0  0
   38.1860   23.6380   41.8550 H   0  0  0  0  0  0  0  0  0  0  0  0
   37.5020   28.0170   42.8690 C   0  0  0  0  0  0  0  0  0  0  0  0
   37.8660   29.0910   43.4190 O   0  0  0  0  0  0  0  0  0  0  0  0
   36.3080   28.0170   42.1720 O   0  0  0  0  0  0  0  0  0  0  0  0
   36.0500   28.9220   41.1240 C   0  0  0  0  0  3  0  0  0  0  0  0
   35.7820   28.4030   39.9350 C   0  0  0  0  0  3  0  0  0  0  0  0
   35.4920   29.2730   38.7530 C   0  0  0  0  0  2  0  0  0  0  0  0
   36.1990   30.1420   38.7990 H   0  0  0  0  0  0  0  0  0  0  0  0
  1  2  1  0  0  0  0
  2  3  2  0  0  0  0
  2  7  1  0  0  0  0
  3  8  1  0  0  0  0
  4  3  1  0  0  0  0
  5  4  2  0  0  0  0
  6  5  1  0  0  0  0
  6  1  2  0  0  0  0
  9  5  1  0  0  0  0
 10  1  1  0  0  0  0
 10 11  2  0  0  0  0
 12 10  1  0  0  0  0
 13 12  1  0  0  0  0
 14 13  2  0  0  0  0
 15 16  1  0  0  0  0
 15 14  1  0  0  0  0
M  END
>  <minimizedAffinity>
-3.59600902

$$$$

 OpenBabel03242518293D

 16 16  0  0  0  0  0  0  0  0999 V2000
   36.9670   28.7030   41.9780 C   0  0  0  0  0  0  0  0  0  0  0  0
   35.8820   28.3290   41.2010 C   0  0  0  0  0  0  0  0  0  0  0  0
   35.3130   29.2660   40.3360 C   0  0  0  0  0  0  0  0  0  0  0  0
   35.8610   30.5170   40.3010 N   0  0  0  0  0  0  0  0  0  0  0  0
   36.9160   30.8440   41.0720 C   0  0  0  0  0  0  0  0  0  0  0  0
   37.4700   29.9410   41.9110 N   0  0  0  0  0  0  0  0  0  0  0  0
   35.4230   27.3560   41.1980 H   0  0  0  0  0  0  0  0  0  0  0  0
   34.4750   29.0190   39.7170 H   0  0  0  0  0  0  0  0  0  0  0  0
   37.2900   31.8370   40.9930 H   0  0  0  0  0  0  0  0  0  0  0  0
   37.4730   27.6800   42.8230 C   0  0  0  0  0  0  0  0  0  0  0  0
   38.3970   27.7890   43.6730 O   0  0  0  0  0  0  0  0  0  0  0  0
   36.8690   26.4450   42.6750 O   0  0  0  0  0  0  0  0  0  0  0  0
   37.5670   25.3210   42.1950 C   0  0  0  0  0  3  0  0  0  0  0  0
   36.8940   24.4830   41.4190 C   0  0  0  0  0  3  0  0  0  0  0  0
   37.5390   23.2580   40.8530 C   0  0  0  0  0  2  0  0  0  0  0  0
   38.1880   22.8230   41.6570 H   0  0  0  0  0  0  0  0  0  0  0  0
  1 10  1  0  0  0  0
  2  1  2  0  0  0  0
  3  2  1  0  0  0  0
  4  3  2  0  0  0  0
  4  5  1  0  0  0  0
  5  6  2  0  0  0  0
  6  1  1  0  0  0  0
  7  2  1  0  0  0  0
  8  3  1  0  0  0  0
  9  5  1  0  0  0  0
 10 11  2  0  0  0  0
 12 10  1  0  0  0  0
 13 12  1  0  0  0  0
 14 13  2  0  0  0  0
 15 14  1  0  0  0  0
 15 16  1  0  0  0  0
M  END
>  <minimizedAffinity>
-3.58298826

$$$$

 OpenBabel03242518293D

 16 16  0  0  0  0  0  0  0  0999 V2000
   36.8220   30.5280   40.3480 C   0  0  0  0  0  0  0  0  0  0  0  0
   36.8290   30.0870   39.0340 C   0  0  0  0  0  0  0  0  0  0  0  0
   37.1000   31.0000   38.0130 C   0  0  0  0  0  0  0  0  0  0  0  0
   37.3470   32.2960   38.3680 N   0  0  0  0  0  0  0  0  0  0  0  0
   37.3320   32.6890   39.6560 C   0  0  0  0  0  0  0  0  0  0  0  0
   37.0690   31.8080   40.6470 N   0  0  0  0  0  0  0  0  0  0  0  0
   36.6410   29.0770   38.7150 H   0  0  0  0  0  0  0  0  0  0  0  0
   37.1160   30.7020   36.9860 H   0  0  0  0  0  0  0  0  0  0  0  0
   37.5330   33.7140   39.8570 H   0  0  0  0  0  0  0  0  0  0  0  0
   36.5360   29.5240   41.3100 C   0  0  0  0  0  0  0  0  0  0  0  0
   35.7030   28.5850   41.1990 O   0  0  0  0  0  0  0  0  0  0  0  0
   37.2620   29.6110   42.4840 O   0  0  0  0  0  0  0  0  0  0  0  0
   38.4370   28.8660   42.6970 C   0  0  0  0  0  3  0  0  0  0  0  0
   38.3200   27.7460   43.3950 C   0  0  0  0  0  3  0  0  0  0  0  0
   39.5040   26.8770   43.6790 C   0  0  0  0  0  2  0  0  0  0  0  0
   40.3640   27.5560   43.9160 H   0  0  0  0  0  0  0  0  0  0  0  0
  1  6  1  0  0  0  0
  1 10  1  0  0  0  0
  2  1  2  0  0  0  0
  3  4  2  0  0  0  0
  3  2  1  0  0  0  0
  4  5  1  0  0  0  0
  5  9  1  0  0  0  0
  5  6  2  0  0  0  0
  7  2  1  0  0  0  0
  8  3  1  0  0  0  0
 10 12  1  0  0  0  0
 11 10  2  0  0  0  0
 12 13  1  0  0  0  0
 13 14  2  0  0  0  0
 14 15  1  0  0  0  0
 15 16  1  0  0  0  0
M  END
>  <minimizedAffinity>
-3.58062291

$$$$

 OpenBabel03242518293D

 16 16  0  0  0  0  0  0  0  0999 V2000
   38.2210   26.8210   42.9220 C   0  0  0  0  0  0  0  0  0  0  0  0
   37.6380   25.7430   42.2750 C   0  0  0  0  0  0  0  0  0  0  0  0
   38.2780   24.5030   42.3110 C   0  0  0  0  0  0  0  0  0  0  0  0
   39.4600   24.4160   42.9890 N   0  0  0  0  0  0  0  0  0  0  0  0
   39.9980   25.4860   43.6070 C   0  0  0  0  0  0  0  0  0  0  0  0
   39.3810   26.6880   43.5750 N   0  0  0  0  0  0  0  0  0  0  0  0
   36.7090   25.7700   41.7320 H   0  0  0  0  0  0  0  0  0  0  0  0
   37.8630   23.6440   41.8250 H   0  0  0  0  0  0  0  0  0  0  0  0
   40.9210   25.3440   44.1160 H   0  0  0  0  0  0  0  0  0  0  0  0
   37.4920   28.0360   42.8270 C   0  0  0  0  0  0  0  0  0  0  0  0
   37.8190   29.1540   43.3080 O   0  0  0  0  0  0  0  0  0  0  0  0
   36.3020   27.9530   42.1280 O   0  0  0  0  0  0  0  0  0  0  0  0
   35.9620   28.8680   41.1120 C   0  0  0  0  0  3  0  0  0  0  0  0
   35.8120   28.3780   39.8900 C   0  0  0  0  0  3  0  0  0  0  0  0
   35.4510   29.2600   38.7370 C   0  0  0  0  0  2  0  0  0  0  0  0
   36.0300   30.2130   38.8540 H   0  0  0  0  0  0  0  0  0  0  0  0
  1  6  1  0  0  0  0
  2  3  1  0  0  0  0
  2  1  2  0  0  0  0
  3  4  2  0  0  0  0
  4  5  1  0  0  0  0
  5  9  1  0  0  0  0
  6  5  2  0  0  0  0
  7  2  1  0  0  0  0
  8  3  1  0  0  0  0
 10  1  1  0  0  0  0
 10 11  2  0  0  0  0
 12 10  1  0  0  0  0
 13 12  1  0  0  0  0
 14 13  2  0  0  0  0
 15 16  1  0  0  0  0
 15 14  1  0  0  0  0
M  END
>  <minimizedAffinity>
-3.55492973

$$$$

 OpenBabel03242518293D

 16 16  0  0  0  0  0  0  0  0999 V2000
   37.0490   29.1570   41.8910 C   0  0  0  0  0  0  0  0  0  0  0  0
   36.5590   27.9050   42.2290 C   0  0  0  0  0  0  0  0  0  0  0  0
   37.3550   27.0500   42.9940 C   0  0  0  0  0  0  0  0  0  0  0  0
   38.5890   27.4970   43.3720 N   0  0  0  0  0  0  0  0  0  0  0  0
   39.0320   28.7200   43.0240 C   0  0  0  0  0  0  0  0  0  0  0  0
   38.2650   29.5520   42.2840 N   0  0  0  0  0  0  0  0  0  0  0  0
   35.5950   27.5170   41.9530 H   0  0  0  0  0  0  0  0  0  0  0  0
   37.0160   26.0750   43.2790 H   0  0  0  0  0  0  0  0  0  0  0  0
   40.0040   29.0010   43.3530 H   0  0  0  0  0  0  0  0  0  0  0  0
   36.1640   29.9500   41.1130 C   0  0  0  0  0  0  0  0  0  0  0  0
   36.2030   31.2000   40.9600 O   0  0  0  0  0  0  0  0  0  0  0  0
   35.1620   29.2490   40.4660 O   0  0  0  0  0  0  0  0  0  0  0  0
   35.0860   29.1710   39.0620 C   0  0  0  0  0  3  0  0  0  0  0  0
   33.8960   28.9150   38.5390 C   0  0  0  0  0  3  0  0  0  0  0  0
   33.7010   28.8120   37.0600 C   0  0  0  0  0  2  0  0  0  0  0  0
   34.5860   28.2620   36.6460 H   0  0  0  0  0  0  0  0  0  0  0  0
  1  2  2  0  0  0  0
  1  6  1  0  0  0  0
  2  3  1  0  0  0  0
  3  8  1  0  0  0  0
  3  4  2  0  0  0  0
  5  9  1  0  0  0  0
  5  4  1  0  0  0  0
  6  5  2  0  0  0  0
  7  2  1  0  0  0  0
 10  1  1  0  0  0  0
 11 10  2  0  0  0  0
 12 10  1  0  0  0  0
 13 12  1  0  0  0  0
 14 13  2  0  0  0  0
 15 14  1  0  0  0  0
 16 15  1  0  0  0  0
M  END
>  <minimizedAffinity>
-3.54827976

$$$$

 OpenBabel03242518293D

 16 16  0  0  0  0  0  0  0  0999 V2000
   37.5810   30.7820   41.1160 C   0  0  0  0  0  0  0  0  0  0  0  0
   36.8000   31.5070   40.2300 C   0  0  0  0  0  0  0  0  0  0  0  0
   37.3230   32.6690   39.6590 C   0  0  0  0  0  0  0  0  0  0  0  0
   38.5910   33.0350   40.0090 N   0  0  0  0  0  0  0  0  0  0  0  0
   39.3210   32.3060   40.8740 C   0  0  0  0  0  0  0  0  0  0  0  0
   38.8190   31.1800   41.4290 N   0  0  0  0  0  0  0  0  0  0  0  0
   35.7990   31.2520   39.9290 H   0  0  0  0  0  0  0  0  0  0  0  0
   36.7540   33.2580   38.9700 H   0  0  0  0  0  0  0  0  0  0  0  0
   40.3020   32.6520   41.1010 H   0  0  0  0  0  0  0  0  0  0  0  0
   36.9590   29.6180   41.6410 C   0  0  0  0  0  0  0  0  0  0  0  0
   36.1270   28.8750   41.0550 O   0  0  0  0  0  0  0  0  0  0  0  0
   37.3240   29.2900   42.9340 O   0  0  0  0  0  0  0  0  0  0  0  0
   37.7480   27.9940   43.2890 C   0  0  0  0  0  3  0  0  0  0  0  0
   39.0540   27.7770   43.3140 C   0  0  0  0  0  3  0  0  0  0  0  0
   39.6140   26.4380   43.6780 C   0  0  0  0  0  2  0  0  0  0  0  0
   38.9610   25.6640   43.1980 H   0  0  0  0  0  0  0  0  0  0  0  0
  1  6  1  0  0  0  0
  1 10  1  0  0  0  0
  2  1  2  0  0  0  0
  3  4  2  0  0  0  0
  3  2  1  0  0  0  0
  4  5  1  0  0  0  0
  5  9  1  0  0  0  0
  5  6  2  0  0  0  0
  7  2  1  0  0  0  0
  8  3  1  0  0  0  0
 10 12  1  0  0  0  0
 11 10  2  0  0  0  0
 12 13  1  0  0  0  0
 13 14  2  0  0  0  0
 14 15  1  0  0  0  0
 16 15  1  0  0  0  0
M  END
>  <minimizedAffinity>
-3.54384041

$$$$

 OpenBabel03242518293D

 16 16  0  0  0  0  0  0  0  0999 V2000
   37.2900   31.6890   40.0670 C   0  0  0  0  0  0  0  0  0  0  0  0
   38.3820   31.3600   40.8550 C   0  0  0  0  0  0  0  0  0  0  0  0
   39.2990   32.3570   41.1950 C   0  0  0  0  0  0  0  0  0  0  0  0
   39.0680   33.6190   40.7270 N   0  0  0  0  0  0  0  0  0  0  0  0
   37.9960   33.9020   39.9630 C   0  0  0  0  0  0  0  0  0  0  0  0
   37.1060   32.9400   39.6310 N   0  0  0  0  0  0  0  0  0  0  0  0
   38.5980   30.3800   41.2430 H   0  0  0  0  0  0  0  0  0  0  0  0
   40.1550   32.1470   41.8010 H   0  0  0  0  0  0  0  0  0  0  0  0
   37.8810   34.9080   39.6340 H   0  0  0  0  0  0  0  0  0  0  0  0
   36.4190   30.6060   39.7780 C   0  0  0  0  0  0  0  0  0  0  0  0
   36.1370   30.1440   38.6400 O   0  0  0  0  0  0  0  0  0  0  0  0
   35.8300   30.0150   40.8810 O   0  0  0  0  0  0  0  0  0  0  0  0
   35.9440   28.6360   41.1450 C   0  0  0  0  0  3  0  0  0  0  0  0
   36.7460   28.2800   42.1370 C   0  0  0  0  0  3  0  0  0  0  0  0
   36.9400   26.8420   42.5030 C   0  0  0  0  0  2  0  0  0  0  0  0
   36.9970   26.2610   41.5470 H   0  0  0  0  0  0  0  0  0  0  0  0
  1  2  1  0  0  0  0
  2  3  2  0  0  0  0
  2  7  1  0  0  0  0
  3  8  1  0  0  0  0
  4  3  1  0  0  0  0
  5  4  2  0  0  0  0
  6  5  1  0  0  0  0
  6  1  2  0  0  0  0
  9  5  1  0  0  0  0
 10  1  1  0  0  0  0
 10 12  1  0  0  0  0
 11 10  2  0  0  0  0
 12 13  1  0  0  0  0
 13 14  2  0  0  0  0
 14 15  1  0  0  0  0
 16 15  1  0  0  0  0
M  END
>  <minimizedAffinity>
-3.45981789

$$$$
