
 OpenBabel03252507033D

 42 44  0  0  0  0  0  0  0  0999 V2000
   43.2980   32.8490   40.7260 C   0  0  0  0  0  0  0  0  0  0  0  0
   43.2150   33.0830   39.6360 H   0  0  0  0  0  0  0  0  0  0  0  0
   43.7840   31.8390   40.8240 H   0  0  0  0  0  0  0  0  0  0  0  0
   44.1830   33.7910   41.4310 C   0  0  0  0  0  0  0  0  0  0  0  0
   43.6730   34.9250   42.0180 C   0  0  0  0  0  0  0  0  0  0  0  0
   44.5480   35.7850   42.6690 C   0  0  0  0  0  0  0  0  0  0  0  0
   45.8790   35.4570   42.6930 N   0  0  0  0  0  0  0  0  0  0  0  0
   46.3320   34.3500   42.1160 C   0  0  0  0  0  0  0  0  0  0  0  0
   45.4720   33.5420   41.4960 N   0  0  0  0  0  0  0  0  0  0  0  0
   42.6830   35.3360   42.1180 H   0  0  0  0  0  0  0  0  0  0  0  0
   44.3260   36.7140   43.1790 H   0  0  0  0  0  0  0  0  0  0  0  0
   47.7630   34.0690   42.2130 C   0  0  0  0  0  0  0  0  0  0  0  0
   48.2270   32.7570   42.2060 C   0  0  0  0  0  0  0  0  0  0  0  0
   49.5780   32.5040   42.3110 C   0  0  0  0  0  0  0  0  0  0  0  0
   50.3630   33.6150   42.4170 C   0  0  0  0  0  0  0  0  0  0  0  0
   49.9530   34.9430   42.4290 C   0  0  0  0  0  0  0  0  0  0  0  0
   48.6120   35.1180   42.3220 N   0  0  0  0  0  0  0  0  0  0  0  0
   47.5000   31.9420   42.1160 H   0  0  0  0  0  0  0  0  0  0  0  0
   49.9740   31.5180   42.3090 H   0  0  0  0  0  0  0  0  0  0  0  0
   51.4430   33.4750   42.5020 H   0  0  0  0  0  0  0  0  0  0  0  0
   50.6450   35.7660   42.5160 H   0  0  0  0  0  0  0  0  0  0  0  0
   41.9840   32.8330   41.4270 C   0  0  0  0  0  0  0  0  0  0  0  0
   42.0820   32.1800   42.3240 H   0  0  0  0  0  0  0  0  0  0  0  0
   41.8990   33.8720   41.8930 H   0  0  0  0  0  0  0  0  0  0  0  0
   40.9640   32.4980   40.6440 N   0  0  0  0  0  0  0  0  0  0  0  0
   40.5760   31.2300   40.1630 C   0  0  0  0  0  0  0  0  0  0  0  0
   39.3510   31.0060   41.0810 C   0  0  0  0  0  0  0  0  0  0  0  0
   38.3110   31.9970   40.8760 C   0  0  0  0  0  0  0  0  0  0  0  0
   38.6520   33.3110   40.3710 C   0  0  0  0  0  0  0  0  0  0  0  0
   40.1100   33.6400   40.2410 C   0  0  0  0  0  0  0  0  0  0  0  0
   41.3430   30.4740   40.4460 H   0  0  0  0  0  0  0  0  0  0  0  0
   40.3590   31.0830   39.1190 H   0  0  0  0  0  0  0  0  0  0  0  0
   39.0230   29.9580   40.8770 H   0  0  0  0  0  0  0  0  0  0  0  0
   39.7340   31.0180   42.1220 H   0  0  0  0  0  0  0  0  0  0  0  0
   37.7550   32.1470   41.8490 H   0  0  0  0  0  0  0  0  0  0  0  0
   37.5190   31.5590   40.2060 H   0  0  0  0  0  0  0  0  0  0  0  0
   37.9940   34.0930   40.0920 H   0  0  0  0  0  0  0  0  0  0  0  0
   40.6550   35.2210   39.7040 S   0  0  0  0  0  0  0  0  0  0  0  0
   40.7240   35.4080   37.9530 C   0  0  0  0  0  3  0  0  0  0  0  0
   41.0850   36.6040   37.5110 C   0  0  0  0  0  3  0  0  0  0  0  0
   41.2130   36.9950   36.0800 C   0  0  0  0  0  2  0  0  0  0  0  0
   42.2830   37.2900   35.8860 H   0  0  0  0  0  0  0  0  0  0  0  0
  1  3  1  0  0  0  0
  1 22  1  0  0  0  0
  1  4  1  0  0  0  0
  2  1  1  0  0  0  0
  4  9  2  0  0  0  0
  4  5  1  0  0  0  0
  5 10  1  0  0  0  0
  5  6  2  0  0  0  0
  6  7  1  0  0  0  0
  6 11  1  0  0  0  0
  8 12  1  0  0  0  0
  8  7  2  0  0  0  0
  9  8  1  0  0  0  0
 12 17  1  0  0  0  0
 13 12  2  0  0  0  0
 13 14  1  0  0  0  0
 14 15  2  0  0  0  0
 15 16  1  0  0  0  0
 15 20  1  0  0  0  0
 16 21  1  0  0  0  0
 17 16  2  0  0  0  0
 18 13  1  0  0  0  0
 19 14  1  0  0  0  0
 22 24  1  0  0  0  0
 22 23  1  0  0  0  0
 25 22  1  0  0  0  0
 26 31  1  0  0  0  0
 26 25  1  0  0  0  0
 26 27  1  0  0  0  0
 27 34  1  0  0  0  0
 28 27  1  0  0  0  0
 28 35  1  0  0  0  0
 29 28  1  0  0  0  0
 30 29  2  0  0  0  0
 30 25  1  0  0  0  0
 32 26  1  0  0  0  0
 33 27  1  0  0  0  0
 36 28  1  0  0  0  0
 37 29  1  0  0  0  0
 38 30  1  0  0  0  0
 39 38  1  0  0  0  0
 40 39  2  0  0  0  0
 41 40  1  0  0  0  0
 42 41  1  0  0  0  0
M  END
>  <minimizedAffinity>
-5.43435001

>  <minimizedRMSD>
1.0659138

$$$$
