
 OpenBabel03252507033D

 42 44  0  0  0  0  0  0  0  0999 V2000
   43.3080   32.6450   41.4240 C   0  0  0  0  0  0  0  0  0  0  0  0
   43.4710   32.3970   40.3470 H   0  0  0  0  0  0  0  0  0  0  0  0
   43.4790   31.7070   42.0220 H   0  0  0  0  0  0  0  0  0  0  0  0
   44.2870   33.6250   41.9250 C   0  0  0  0  0  0  0  0  0  0  0  0
   43.8710   34.8350   42.4280 C   0  0  0  0  0  0  0  0  0  0  0  0
   44.8310   35.7280   42.8860 C   0  0  0  0  0  0  0  0  0  0  0  0
   46.1480   35.3530   42.8120 N   0  0  0  0  0  0  0  0  0  0  0  0
   46.5090   34.1730   42.3220 C   0  0  0  0  0  0  0  0  0  0  0  0
   45.5680   33.3350   41.8880 N   0  0  0  0  0  0  0  0  0  0  0  0
   42.9080   35.2910   42.5800 H   0  0  0  0  0  0  0  0  0  0  0  0
   44.6890   36.7150   43.3060 H   0  0  0  0  0  0  0  0  0  0  0  0
   47.9340   33.8500   42.3060 C   0  0  0  0  0  0  0  0  0  0  0  0
   48.3590   32.5390   42.1110 C   0  0  0  0  0  0  0  0  0  0  0  0
   49.7060   32.2450   42.1100 C   0  0  0  0  0  0  0  0  0  0  0  0
   50.5270   33.3160   42.3100 C   0  0  0  0  0  0  0  0  0  0  0  0
   50.1570   34.6410   42.5100 C   0  0  0  0  0  0  0  0  0  0  0  0
   48.8180   34.8580   42.4980 N   0  0  0  0  0  0  0  0  0  0  0  0
   47.6050   31.7580   41.9600 H   0  0  0  0  0  0  0  0  0  0  0  0
   50.0730   31.2590   41.9640 H   0  0  0  0  0  0  0  0  0  0  0  0
   51.6050   33.1430   42.3190 H   0  0  0  0  0  0  0  0  0  0  0  0
   50.8760   35.4310   42.6610 H   0  0  0  0  0  0  0  0  0  0  0  0
   41.9420   33.1660   41.7090 C   0  0  0  0  0  0  0  0  0  0  0  0
   41.5890   32.7040   42.6590 H   0  0  0  0  0  0  0  0  0  0  0  0
   42.1120   34.2530   42.0180 H   0  0  0  0  0  0  0  0  0  0  0  0
   41.0890   33.0100   40.7020 N   0  0  0  0  0  0  0  0  0  0  0  0
   40.3790   31.8620   40.2920 C   0  0  0  0  0  0  0  0  0  0  0  0
   38.9790   32.2650   40.8130 C   0  0  0  0  0  0  0  0  0  0  0  0
   38.4700   33.4660   40.1750 C   0  0  0  0  0  0  0  0  0  0  0  0
   39.3900   34.4440   39.6330 C   0  0  0  0  0  0  0  0  0  0  0  0
   40.8510   34.2430   39.9140 C   0  0  0  0  0  0  0  0  0  0  0  0
   40.7130   30.9850   40.8900 H   0  0  0  0  0  0  0  0  0  0  0  0
   40.3790   31.5570   39.2590 H   0  0  0  0  0  0  0  0  0  0  0  0
   38.3400   31.3640   40.6550 H   0  0  0  0  0  0  0  0  0  0  0  0
   39.0790   32.3910   41.9100 H   0  0  0  0  0  0  0  0  0  0  0  0
   37.7970   34.0070   40.9040 H   0  0  0  0  0  0  0  0  0  0  0  0
   37.7550   33.1660   39.3570 H   0  0  0  0  0  0  0  0  0  0  0  0
   39.1630   35.3110   39.0690 H   0  0  0  0  0  0  0  0  0  0  0  0
   42.0620   35.3930   39.3710 S   0  0  0  0  0  0  0  0  0  0  0  0
   42.0040   35.7450   37.6450 C   0  0  0  0  0  3  0  0  0  0  0  0
   41.1880   36.7240   37.2790 C   0  0  0  0  0  3  0  0  0  0  0  0
   40.9750   37.1960   35.8840 C   0  0  0  0  0  2  0  0  0  0  0  0
   41.2870   38.2780   35.8230 H   0  0  0  0  0  0  0  0  0  0  0  0
  1 22  1  0  0  0  0
  1  4  1  0  0  0  0
  1  3  1  0  0  0  0
  2  1  1  0  0  0  0
  4  5  1  0  0  0  0
  5 10  1  0  0  0  0
  5  6  2  0  0  0  0
  6 11  1  0  0  0  0
  7  6  1  0  0  0  0
  8  7  2  0  0  0  0
  9  4  2  0  0  0  0
  9  8  1  0  0  0  0
 12  8  1  0  0  0  0
 12 17  1  0  0  0  0
 13 12  2  0  0  0  0
 14 13  1  0  0  0  0
 14 15  2  0  0  0  0
 15 20  1  0  0  0  0
 15 16  1  0  0  0  0
 16 21  1  0  0  0  0
 17 16  2  0  0  0  0
 18 13  1  0  0  0  0
 19 14  1  0  0  0  0
 22 24  1  0  0  0  0
 22 23  1  0  0  0  0
 25 22  1  0  0  0  0
 26 25  1  0  0  0  0
 26 27  1  0  0  0  0
 26 31  1  0  0  0  0
 27 34  1  0  0  0  0
 28 27  1  0  0  0  0
 28 35  1  0  0  0  0
 29 30  2  0  0  0  0
 29 28  1  0  0  0  0
 30 25  1  0  0  0  0
 32 26  1  0  0  0  0
 33 27  1  0  0  0  0
 36 28  1  0  0  0  0
 37 29  1  0  0  0  0
 38 30  1  0  0  0  0
 39 38  1  0  0  0  0
 40 39  2  0  0  0  0
 41 40  1  0  0  0  0
 42 41  1  0  0  0  0
M  END
>  <minimizedAffinity>
-5.22000504

>  <minimizedRMSD>
0.763491452

$$$$
