
 OpenBabel03252505493D

 17 17  0  0  0  0  0  0  0  0999 V2000
   45.9730   33.9150   44.9640 C   0  0  0  0  0  0  0  0  0  0  0  0
   45.5760   34.9680   44.1350 C   0  0  0  0  0  0  0  0  0  0  0  0
   46.2340   35.0810   42.9070 C   0  0  0  0  0  0  0  0  0  0  0  0
   47.1990   34.1940   42.5820 N   0  0  0  0  0  0  0  0  0  0  0  0
   47.5480   33.1960   43.4130 C   0  0  0  0  0  0  0  0  0  0  0  0
   46.9470   33.0420   44.6060 N   0  0  0  0  0  0  0  0  0  0  0  0
   45.5320   33.7270   45.9460 H   0  0  0  0  0  0  0  0  0  0  0  0
   45.8990   35.9020   42.3030 H   0  0  0  0  0  0  0  0  0  0  0  0
   44.4900   35.8590   44.6350 C   0  0  0  0  0  0  0  0  0  0  0  0
   44.2180   35.4570   45.9070 F   0  0  0  0  0  0  0  0  0  0  0  0
   43.3880   35.6550   43.8130 F   0  0  0  0  0  0  0  0  0  0  0  0
   44.9360   37.1550   44.5210 F   0  0  0  0  0  0  0  0  0  0  0  0
   48.5320   32.2890   43.0770 O   0  0  0  0  0  0  0  0  0  0  0  0
   48.9000   32.0170   41.7800 C   0  0  0  0  0  2  0  0  0  0  0  0
   50.0750   32.4420   41.3120 C   0  0  0  0  0  2  0  0  0  0  0  0
   50.9110   33.2090   42.2980 C   0  0  0  0  0  2  0  0  0  0  0  0
   51.9650   33.2810   41.9340 H   0  0  0  0  0  0  0  0  0  0  0  0
  1  7  1  0  0  0  0
  2  9  1  0  0  0  0
  2  1  2  0  0  0  0
  3  2  1  0  0  0  0
  4  3  2  0  0  0  0
  4  5  1  0  0  0  0
  5  6  2  0  0  0  0
  6  1  1  0  0  0  0
  8  3  1  0  0  0  0
  9 10  1  0  0  0  0
 11  9  1  0  0  0  0
 12  9  1  0  0  0  0
 13  5  1  0  0  0  0
 14 13  1  0  0  0  0
 15 14  1  0  0  0  0
 15 16  1  0  0  0  0
 17 16  1  0  0  0  0
M  END
>  <minimizedAffinity>
-4.09880924

>  <minimizedRMSD>
5.02853203

$$$$
