
 OpenBabel03252505493D

 17 17  0  0  0  0  0  0  0  0999 V2000
   45.0840   34.7160   45.2170 C   0  0  0  0  0  0  0  0  0  0  0  0
   45.8750   34.6090   44.0700 C   0  0  0  0  0  0  0  0  0  0  0  0
   46.8320   33.5910   44.0620 C   0  0  0  0  0  0  0  0  0  0  0  0
   46.9500   32.7760   45.1330 N   0  0  0  0  0  0  0  0  0  0  0  0
   46.1660   32.9170   46.2160 C   0  0  0  0  0  0  0  0  0  0  0  0
   45.2290   33.8800   46.2760 N   0  0  0  0  0  0  0  0  0  0  0  0
   44.3040   35.4720   45.3400 H   0  0  0  0  0  0  0  0  0  0  0  0
   47.4180   33.5450   43.1640 H   0  0  0  0  0  0  0  0  0  0  0  0
   45.6180   35.5830   42.9710 C   0  0  0  0  0  0  0  0  0  0  0  0
   45.1510   36.7160   43.5610 F   0  0  0  0  0  0  0  0  0  0  0  0
   44.6430   35.0210   42.1530 F   0  0  0  0  0  0  0  0  0  0  0  0
   46.7930   35.7360   42.2740 F   0  0  0  0  0  0  0  0  0  0  0  0
   46.2860   32.0820   47.3070 O   0  0  0  0  0  0  0  0  0  0  0  0
   45.8580   32.4190   48.5710 C   0  0  0  0  0  3  0  0  0  0  0  0
   45.2740   31.5040   49.3470 C   0  0  0  0  0  3  0  0  0  0  0  0
   45.1390   30.1400   48.7310 C   0  0  0  0  0  2  0  0  0  0  0  0
   44.9090   29.3830   49.5210 H   0  0  0  0  0  0  0  0  0  0  0  0
  1  7  1  0  0  0  0
  1  6  1  0  0  0  0
  2  1  2  0  0  0  0
  3  2  1  0  0  0  0
  3  4  2  0  0  0  0
  4  5  1  0  0  0  0
  5  6  2  0  0  0  0
  5 13  1  0  0  0  0
  8  3  1  0  0  0  0
  9 10  1  0  0  0  0
  9  2  1  0  0  0  0
 11  9  1  0  0  0  0
 12  9  1  0  0  0  0
 13 14  1  0  0  0  0
 14 15  2  0  0  0  0
 16 15  1  0  0  0  0
 16 17  1  0  0  0  0
M  END
>  <minimizedAffinity>
-4.64460373

>  <minimizedRMSD>
1.06284511

$$$$
