
 OpenBabel03252505493D

 17 17  0  0  0  0  0  0  0  0999 V2000
   44.4340   33.6890   42.0520 C   0  0  0  0  0  0  0  0  0  0  0  0
   44.5990   35.0740   42.1480 C   0  0  0  0  0  0  0  0  0  0  0  0
   43.6200   35.8640   41.5400 C   0  0  0  0  0  0  0  0  0  0  0  0
   42.5860   35.2750   40.9010 N   0  0  0  0  0  0  0  0  0  0  0  0
   42.4690   33.9370   40.8350 C   0  0  0  0  0  0  0  0  0  0  0  0
   43.3820   33.1300   41.4020 N   0  0  0  0  0  0  0  0  0  0  0  0
   45.1330   32.9700   42.4860 H   0  0  0  0  0  0  0  0  0  0  0  0
   43.7850   36.9210   41.6370 H   0  0  0  0  0  0  0  0  0  0  0  0
   45.7920   35.5690   42.8920 C   0  0  0  0  0  0  0  0  0  0  0  0
   46.8690   35.3320   42.0940 F   0  0  0  0  0  0  0  0  0  0  0  0
   45.8780   34.8220   44.0620 F   0  0  0  0  0  0  0  0  0  0  0  0
   45.5720   36.8940   43.1870 F   0  0  0  0  0  0  0  0  0  0  0  0
   41.4100   33.3380   40.1850 O   0  0  0  0  0  0  0  0  0  0  0  0
   40.6440   33.9760   39.2370 C   0  0  0  0  0  2  0  0  0  0  0  0
   40.1630   33.2970   38.1930 C   0  0  0  0  0  2  0  0  0  0  0  0
   40.5250   31.8380   38.1640 C   0  0  0  0  0  2  0  0  0  0  0  0
   39.8690   31.2940   37.4410 H   0  0  0  0  0  0  0  0  0  0  0  0
  1  2  1  0  0  0  0
  1  7  1  0  0  0  0
  2  9  1  0  0  0  0
  3  8  1  0  0  0  0
  3  2  2  0  0  0  0
  4  3  1  0  0  0  0
  5  4  2  0  0  0  0
  5  6  1  0  0  0  0
  6  1  2  0  0  0  0
  9 12  1  0  0  0  0
  9 11  1  0  0  0  0
 10  9  1  0  0  0  0
 13  5  1  0  0  0  0
 14 13  1  0  0  0  0
 15 14  1  0  0  0  0
 16 15  1  0  0  0  0
 17 16  1  0  0  0  0
M  END
>  <minimizedAffinity>
-3.67280793

>  <minimizedRMSD>
6.89088917

$$$$
