
 OpenBabel03252505483D

 17 17  0  0  0  0  0  0  0  0999 V2000
   45.1470   34.7760   44.9720 C   0  0  0  0  0  0  0  0  0  0  0  0
   46.0170   34.5770   43.8960 C   0  0  0  0  0  0  0  0  0  0  0  0
   46.9500   33.5450   44.0290 C   0  0  0  0  0  0  0  0  0  0  0  0
   46.9730   32.8050   45.1590 N   0  0  0  0  0  0  0  0  0  0  0  0
   46.1150   33.0340   46.1680 C   0  0  0  0  0  0  0  0  0  0  0  0
   45.1970   34.0140   46.0930 N   0  0  0  0  0  0  0  0  0  0  0  0
   44.3760   35.5510   44.9840 H   0  0  0  0  0  0  0  0  0  0  0  0
   47.5980   33.4270   43.1810 H   0  0  0  0  0  0  0  0  0  0  0  0
   45.8610   35.4750   42.7160 C   0  0  0  0  0  0  0  0  0  0  0  0
   45.3360   36.6390   43.1860 F   0  0  0  0  0  0  0  0  0  0  0  0
   44.9690   34.8520   41.8500 F   0  0  0  0  0  0  0  0  0  0  0  0
   47.0960   35.5940   42.1240 F   0  0  0  0  0  0  0  0  0  0  0  0
   46.1380   32.2750   47.3200 O   0  0  0  0  0  0  0  0  0  0  0  0
   47.1560   32.3310   48.2440 C   0  0  0  0  0  3  0  0  0  0  0  0
   47.8060   31.2180   48.5950 C   0  0  0  0  0  3  0  0  0  0  0  0
   47.3360   29.9650   47.9110 C   0  0  0  0  0  2  0  0  0  0  0  0
   48.0920   29.1530   48.0380 H   0  0  0  0  0  0  0  0  0  0  0  0
  1  7  1  0  0  0  0
  1  6  1  0  0  0  0
  2  3  1  0  0  0  0
  2  1  2  0  0  0  0
  3  4  2  0  0  0  0
  4  5  1  0  0  0  0
  5 13  1  0  0  0  0
  6  5  2  0  0  0  0
  8  3  1  0  0  0  0
  9 10  1  0  0  0  0
  9  2  1  0  0  0  0
 11  9  1  0  0  0  0
 12  9  1  0  0  0  0
 13 14  1  0  0  0  0
 14 15  2  0  0  0  0
 16 17  1  0  0  0  0
 16 15  1  0  0  0  0
M  END
>  <minimizedAffinity>
-4.23216009

>  <minimizedRMSD>
1.70386446

$$$$
