
 OpenBabel03252505103D

 39 41  0  0  1  0  0  0  0  0999 V2000
   44.5610   35.5740   44.5960 C   0  0  0  0  0  0  0  0  0  0  0  0
   45.2370   35.6040   43.3590 C   0  0  0  0  0  0  0  0  0  0  0  0
   46.3450   34.7110   43.1840 C   0  0  0  0  0  0  0  0  0  0  0  0
   46.6850   33.8910   44.2080 N   0  0  0  0  0  0  0  0  0  0  0  0
   46.0170   33.8920   45.3680 C   0  0  0  0  0  0  0  0  0  0  0  0
   44.9480   34.7360   45.5720 N   0  0  0  0  0  0  0  0  0  0  0  0
   43.7240   36.2260   44.7720 H   0  0  0  0  0  0  0  0  0  0  0  0
   44.9260   36.2800   42.5720 H   0  0  0  0  0  0  0  0  0  0  0  0
   46.4330   32.9750   46.4650 C   0  0  2  0  0  0  0  0  0  0  0  0
   46.9480   31.7380   45.7590 C   0  0  0  0  0  0  0  0  0  0  0  0
   46.0690   30.5630   45.7750 C   0  0  0  0  0  0  0  0  0  0  0  0
   45.7910   30.3050   47.2570 C   0  0  0  0  0  0  0  0  0  0  0  0
   44.9860   31.3740   47.8740 C   0  0  0  0  0  0  0  0  0  0  0  0
   45.3820   32.7350   47.4080 C   0  0  0  0  0  0  0  0  0  0  0  0
   47.2980   33.4740   46.9510 H   0  0  0  0  0  0  0  0  0  0  0  0
   47.2400   31.9320   44.7040 H   0  0  0  0  0  0  0  0  0  0  0  0
   47.9150   31.4340   46.2420 H   0  0  0  0  0  0  0  0  0  0  0  0
   46.6330   29.6940   45.4300 H   0  0  0  0  0  0  0  0  0  0  0  0
   45.1430   30.7150   45.2090 H   0  0  0  0  0  0  0  0  0  0  0  0
   45.1970   29.3990   47.3390 H   0  0  0  0  0  0  0  0  0  0  0  0
   46.7720   30.2600   47.7580 H   0  0  0  0  0  0  0  0  0  0  0  0
   44.1910   31.3550   48.5750 H   0  0  0  0  0  0  0  0  0  0  0  0
   44.6850   33.8760   47.9190 N   0  0  0  0  0  0  0  0  0  0  0  0
   43.6510   33.8400   47.7140 H   0  0  0  0  0  0  0  0  0  0  0  0
   45.3000   34.5600   48.4100 H   0  0  0  0  0  0  0  0  0  0  0  0
   47.0560   34.7150   41.9200 C   0  0  0  0  0  0  0  0  0  0  0  0
   48.1840   35.4460   41.8070 C   0  0  0  0  0  0  0  0  0  0  0  0
   48.8320   35.4160   40.5630 C   0  0  0  0  0  0  0  0  0  0  0  0
   48.2550   34.6490   39.5890 C   0  0  0  0  0  0  0  0  0  0  0  0
   47.1230   33.9140   39.7000 C   0  0  0  0  0  0  0  0  0  0  0  0
   46.5260   33.9690   40.9170 N   0  0  0  0  0  0  0  0  0  0  0  0
   48.5690   36.0290   42.6430 H   0  0  0  0  0  0  0  0  0  0  0  0
   49.7360   35.9870   40.4390 H   0  0  0  0  0  0  0  0  0  0  0  0
   48.7960   34.6580   38.6430 H   0  0  0  0  0  0  0  0  0  0  0  0
   46.5960   33.1560   38.6570 O   0  0  0  0  0  0  0  0  0  0  0  0
   46.9020   33.3590   37.3430 C   0  0  0  0  0  0  0  0  0  0  0  0
   47.7670   32.6370   36.6690 C   0  0  0  0  0  0  0  0  0  0  0  0
   48.3080   32.5900   35.2980 C   0  0  0  0  0  0  0  0  0  0  0  0
   48.1870   31.5810   34.8280 H   0  0  0  0  0  0  0  0  0  0  0  0
  1  7  1  0  0  0  0
  1  6  1  0  0  0  0
  2  1  2  0  0  0  0
  3  2  1  0  0  0  0
  3  4  2  0  0  0  0
  4  5  1  0  0  0  0
  5  6  2  0  0  0  0
  5  9  1  0  0  0  0
  8  2  1  0  0  0  0
  9 15  1  1  0  0  0
  9 14  1  0  0  0  0
 10 11  1  0  0  0  0
 10 17  1  0  0  0  0
 10  9  1  0  0  0  0
 11 12  1  0  0  0  0
 12 20  1  0  0  0  0
 12 21  1  0  0  0  0
 12 13  1  0  0  0  0
 13 22  1  0  0  0  0
 14 13  2  0  0  0  0
 14 23  1  0  0  0  0
 16 10  1  0  0  0  0
 18 11  1  0  0  0  0
 19 11  1  0  0  0  0
 23 25  1  0  0  0  0
 24 23  1  0  0  0  0
 26  3  1  0  0  0  0
 27 26  1  0  0  0  0
 27 32  1  0  0  0  0
 28 27  2  0  0  0  0
 29 30  2  0  0  0  0
 29 28  1  0  0  0  0
 30 31  1  0  0  0  0
 31 26  2  0  0  0  0
 33 28  1  0  0  0  0
 34 29  1  0  0  0  0
 35 30  1  0  0  0  0
 36 35  1  0  0  0  0
 37 36  2  0  0  0  0
 38 37  1  0  0  0  0
 39 38  1  0  0  0  0
M  END
>  <minimizedAffinity>
-6.91278076

>  <minimizedRMSD>
0.277566135

$$$$
