
 OpenBabel03252504263D

 17 17  0  0  0  0  0  0  0  0999 V2000
   44.2580   35.7380   44.2040 C   0  0  0  0  0  0  0  0  0  0  0  0
   44.4350   34.9410   43.0760 C   0  0  0  0  0  0  0  0  0  0  0  0
   45.0910   33.7390   43.2520 C   0  0  0  0  0  0  0  0  0  0  0  0
   45.5080   33.4220   44.4800 N   0  0  0  0  0  0  0  0  0  0  0  0
   45.3330   34.1950   45.5600 C   0  0  0  0  0  0  0  0  0  0  0  0
   44.6870   35.4050   45.4530 N   0  0  0  0  0  0  0  0  0  0  0  0
   43.7530   36.7070   44.1800 H   0  0  0  0  0  0  0  0  0  0  0  0
   45.2140   33.1420   42.3590 H   0  0  0  0  0  0  0  0  0  0  0  0
   45.6850   33.8970   46.5210 H   0  0  0  0  0  0  0  0  0  0  0  0
   43.8940   35.4920   41.8330 C   0  0  0  0  0  0  0  0  0  0  0  0
   44.6470   35.3710   41.0030 H   0  0  0  0  0  0  0  0  0  0  0  0
   43.7330   36.5850   41.9160 H   0  0  0  0  0  0  0  0  0  0  0  0
   42.7070   34.9010   41.4250 O   0  0  0  0  0  0  0  0  0  0  0  0
   41.8170   35.4080   40.5100 C   0  0  0  0  0  3  0  0  0  0  0  0
   42.0360   35.2460   39.1940 C   0  0  0  0  0  3  0  0  0  0  0  0
   41.2170   35.7050   38.0300 C   0  0  0  0  0  2  0  0  0  0  0  0
   41.8000   36.5040   37.5320 H   0  0  0  0  0  0  0  0  0  0  0  0
  1  6  1  0  0  0  0
  2  3  1  0  0  0  0
  2  1  2  0  0  0  0
  3  4  2  0  0  0  0
  4  5  1  0  0  0  0
  5  9  1  0  0  0  0
  6  5  2  0  0  0  0
  7  1  1  0  0  0  0
  8  3  1  0  0  0  0
 10 12  1  0  0  0  0
 10  2  1  0  0  0  0
 11 10  1  0  0  0  0
 13 10  1  0  0  0  0
 14 13  1  0  0  0  0
 15 14  2  0  0  0  0
 16 15  1  0  0  0  0
 17 16  1  0  0  0  0
M  END
>  <minimizedAffinity>
-3.46637106

>  <minimizedRMSD>
0.447478861

$$$$
