
 OpenBabel03252505103D

 39 41  0  0  1  0  0  0  0  0999 V2000
   44.5600   35.5610   44.6120 C   0  0  0  0  0  0  0  0  0  0  0  0
   45.2440   35.6010   43.3800 C   0  0  0  0  0  0  0  0  0  0  0  0
   46.3570   34.7140   43.2070 C   0  0  0  0  0  0  0  0  0  0  0  0
   46.6950   33.8910   44.2280 N   0  0  0  0  0  0  0  0  0  0  0  0
   46.0210   33.8830   45.3840 C   0  0  0  0  0  0  0  0  0  0  0  0
   44.9460   34.7200   45.5860 N   0  0  0  0  0  0  0  0  0  0  0  0
   43.7200   36.2080   44.7870 H   0  0  0  0  0  0  0  0  0  0  0  0
   44.9340   36.2800   42.5940 H   0  0  0  0  0  0  0  0  0  0  0  0
   46.4350   32.9630   46.4790 C   0  0  2  0  0  0  0  0  0  0  0  0
   46.9460   31.7250   45.7700 C   0  0  0  0  0  0  0  0  0  0  0  0
   46.0650   30.5530   45.7840 C   0  0  0  0  0  0  0  0  0  0  0  0
   45.7860   30.2920   47.2660 C   0  0  0  0  0  0  0  0  0  0  0  0
   44.9850   31.3610   47.8850 C   0  0  0  0  0  0  0  0  0  0  0  0
   45.3840   32.7230   47.4220 C   0  0  0  0  0  0  0  0  0  0  0  0
   47.3020   33.4580   46.9660 H   0  0  0  0  0  0  0  0  0  0  0  0
   47.2380   31.9210   44.7150 H   0  0  0  0  0  0  0  0  0  0  0  0
   47.9130   31.4180   46.2520 H   0  0  0  0  0  0  0  0  0  0  0  0
   46.6260   29.6830   45.4370 H   0  0  0  0  0  0  0  0  0  0  0  0
   45.1380   30.7080   45.2190 H   0  0  0  0  0  0  0  0  0  0  0  0
   45.1900   29.3870   47.3460 H   0  0  0  0  0  0  0  0  0  0  0  0
   46.7680   30.2440   47.7660 H   0  0  0  0  0  0  0  0  0  0  0  0
   44.1900   31.3430   48.5870 H   0  0  0  0  0  0  0  0  0  0  0  0
   44.6900   33.8650   47.9360 N   0  0  0  0  0  0  0  0  0  0  0  0
   43.6560   33.8310   47.7310 H   0  0  0  0  0  0  0  0  0  0  0  0
   45.3070   34.5460   48.4280 H   0  0  0  0  0  0  0  0  0  0  0  0
   47.0750   34.7280   41.9470 C   0  0  0  0  0  0  0  0  0  0  0  0
   48.1950   35.4710   41.8410 C   0  0  0  0  0  0  0  0  0  0  0  0
   48.8520   35.4510   40.6000 C   0  0  0  0  0  0  0  0  0  0  0  0
   48.2880   34.6790   39.6220 C   0  0  0  0  0  0  0  0  0  0  0  0
   47.1630   33.9320   39.7260 C   0  0  0  0  0  0  0  0  0  0  0  0
   46.5590   33.9780   40.9390 N   0  0  0  0  0  0  0  0  0  0  0  0
   48.5690   36.0570   42.6800 H   0  0  0  0  0  0  0  0  0  0  0  0
   49.7490   36.0320   40.4830 H   0  0  0  0  0  0  0  0  0  0  0  0
   48.8340   34.6960   38.6790 H   0  0  0  0  0  0  0  0  0  0  0  0
   46.6510   33.1700   38.6780 O   0  0  0  0  0  0  0  0  0  0  0  0
   47.4260   32.5390   37.7500 C   0  0  0  0  0  3  0  0  0  0  0  0
   47.6430   32.9970   36.5380 C   0  0  0  0  0  3  0  0  0  0  0  0
   48.3960   32.5820   35.3390 C   0  0  0  0  0  2  0  0  0  0  0  0
   49.1060   33.3760   34.9900 H   0  0  0  0  0  0  0  0  0  0  0  0
  1  7  1  0  0  0  0
  1  6  1  0  0  0  0
  2  1  2  0  0  0  0
  3  2  1  0  0  0  0
  3  4  2  0  0  0  0
  4  5  1  0  0  0  0
  5  6  2  0  0  0  0
  5  9  1  0  0  0  0
  8  2  1  0  0  0  0
  9 15  1  1  0  0  0
  9 14  1  0  0  0  0
 10 11  1  0  0  0  0
 10 17  1  0  0  0  0
 10  9  1  0  0  0  0
 11 12  1  0  0  0  0
 12 20  1  0  0  0  0
 12 21  1  0  0  0  0
 12 13  1  0  0  0  0
 13 22  1  0  0  0  0
 14 13  2  0  0  0  0
 14 23  1  0  0  0  0
 16 10  1  0  0  0  0
 18 11  1  0  0  0  0
 19 11  1  0  0  0  0
 23 25  1  0  0  0  0
 24 23  1  0  0  0  0
 26  3  1  0  0  0  0
 27 26  1  0  0  0  0
 27 32  1  0  0  0  0
 28 27  2  0  0  0  0
 29 30  2  0  0  0  0
 29 28  1  0  0  0  0
 30 31  1  0  0  0  0
 31 26  2  0  0  0  0
 33 28  1  0  0  0  0
 34 29  1  0  0  0  0
 35 30  1  0  0  0  0
 36 35  1  0  0  0  0
 37 36  2  0  0  0  0
 38 37  1  0  0  0  0
 39 38  1  0  0  0  0
M  END
>  <minimizedAffinity>
-6.85029411

>  <minimizedRMSD>
0.411542624

$$$$
