
 OpenBabel03252505133D

 39 41  0  0  1  0  0  0  0  0999 V2000
   36.2290   31.0360   40.7130 C   0  0  0  0  0  0  0  0  0  0  0  0
   37.1920   32.0370   40.4700 C   0  0  0  0  0  0  0  0  0  0  0  0
   38.5470   31.7640   40.8460 C   0  0  0  0  0  0  0  0  0  0  0  0
   38.8340   30.5680   41.4140 N   0  0  0  0  0  0  0  0  0  0  0  0
   37.8920   29.6420   41.6290 C   0  0  0  0  0  0  0  0  0  0  0  0
   36.5790   29.8690   41.2800 N   0  0  0  0  0  0  0  0  0  0  0  0
   35.2000   31.1960   40.4480 H   0  0  0  0  0  0  0  0  0  0  0  0
   36.9100   32.9790   40.0130 H   0  0  0  0  0  0  0  0  0  0  0  0
   38.2560   28.3440   42.2630 C   0  0  2  0  0  0  0  0  0  0  0  0
   38.4160   27.3820   41.1030 C   0  0  0  0  0  0  0  0  0  0  0  0
   37.3310   26.4170   40.9010 C   0  0  0  0  0  0  0  0  0  0  0  0
   37.2020   25.6870   42.2400 C   0  0  0  0  0  0  0  0  0  0  0  0
   36.7160   26.5670   43.3170 C   0  0  0  0  0  0  0  0  0  0  0  0
   37.3110   27.9340   43.2580 C   0  0  0  0  0  0  0  0  0  0  0  0
   39.2590   28.5070   42.7090 H   0  0  0  0  0  0  0  0  0  0  0  0
   38.6000   27.8970   40.1360 H   0  0  0  0  0  0  0  0  0  0  0  0
   39.3580   26.7910   41.2650 H   0  0  0  0  0  0  0  0  0  0  0  0
   37.6590   25.6580   40.1880 H   0  0  0  0  0  0  0  0  0  0  0  0
   36.3870   26.8900   40.6060 H   0  0  0  0  0  0  0  0  0  0  0  0
   36.4550   24.9050   42.1320 H   0  0  0  0  0  0  0  0  0  0  0  0
   38.2120   25.3280   42.5000 H   0  0  0  0  0  0  0  0  0  0  0  0
   36.0310   26.4110   44.1120 H   0  0  0  0  0  0  0  0  0  0  0  0
   36.9290   28.9030   44.2400 N   0  0  0  0  0  0  0  0  0  0  0  0
   35.8910   29.0900   44.2360 H   0  0  0  0  0  0  0  0  0  0  0  0
   37.7270   29.2710   44.8000 H   0  0  0  0  0  0  0  0  0  0  0  0
   39.5600   32.7730   40.6020 C   0  0  0  0  0  0  0  0  0  0  0  0
   39.1840   33.9710   40.1120 C   0  0  0  0  0  0  0  0  0  0  0  0
   40.2030   34.9110   39.8930 C   0  0  0  0  0  0  0  0  0  0  0  0
   41.4770   34.5170   40.1980 C   0  0  0  0  0  0  0  0  0  0  0  0
   41.8560   33.3140   40.6910 C   0  0  0  0  0  0  0  0  0  0  0  0
   40.8430   32.4340   40.8890 N   0  0  0  0  0  0  0  0  0  0  0  0
   38.1390   34.1940   39.8970 H   0  0  0  0  0  0  0  0  0  0  0  0
   39.9370   35.8780   39.5030 H   0  0  0  0  0  0  0  0  0  0  0  0
   42.2310   35.2810   40.0120 H   0  0  0  0  0  0  0  0  0  0  0  0
   43.1800   32.9880   40.9780 O   0  0  0  0  0  0  0  0  0  0  0  0
   44.0740   33.8600   41.5250 C   0  0  0  0  0  3  0  0  0  0  0  0
   44.2570   34.0140   42.8170 C   0  0  0  0  0  3  0  0  0  0  0  0
   45.1040   34.8320   43.7050 C   0  0  0  0  0  2  0  0  0  0  0  0
   45.6920   34.2070   44.4240 H   0  0  0  0  0  0  0  0  0  0  0  0
  1  6  1  0  0  0  0
  2  1  2  0  0  0  0
  2  3  1  0  0  0  0
  3  4  2  0  0  0  0
  4  5  1  0  0  0  0
  5  9  1  0  0  0  0
  6  5  2  0  0  0  0
  7  1  1  0  0  0  0
  8  2  1  0  0  0  0
  9 15  1  1  0  0  0
  9 14  1  0  0  0  0
 10 17  1  0  0  0  0
 10  9  1  0  0  0  0
 11 10  1  0  0  0  0
 11 12  1  0  0  0  0
 12 21  1  0  0  0  0
 12 13  1  0  0  0  0
 13 22  1  0  0  0  0
 14 13  2  0  0  0  0
 14 23  1  0  0  0  0
 16 10  1  0  0  0  0
 18 11  1  0  0  0  0
 19 11  1  0  0  0  0
 20 12  1  0  0  0  0
 23 25  1  0  0  0  0
 24 23  1  0  0  0  0
 26  3  1  0  0  0  0
 26 31  1  0  0  0  0
 27 26  2  0  0  0  0
 28 27  1  0  0  0  0
 28 29  2  0  0  0  0
 29 30  1  0  0  0  0
 30 31  2  0  0  0  0
 30 35  1  0  0  0  0
 32 27  1  0  0  0  0
 33 28  1  0  0  0  0
 34 29  1  0  0  0  0
 35 36  1  0  0  0  0
 36 37  2  0  0  0  0
 37 38  1  0  0  0  0
 38 39  1  0  0  0  0
M  END
>  <minimizedAffinity>
-6.12473345

$$$$

 OpenBabel03252505133D

 39 41  0  0  1  0  0  0  0  0999 V2000
   38.3210   32.6320   40.3670 C   0  0  0  0  0  0  0  0  0  0  0  0
   37.4610   31.9880   39.4540 C   0  0  0  0  0  0  0  0  0  0  0  0
   37.1760   30.6010   39.6720 C   0  0  0  0  0  0  0  0  0  0  0  0
   37.7430   29.9810   40.7340 N   0  0  0  0  0  0  0  0  0  0  0  0
   38.5550   30.6260   41.5800 C   0  0  0  0  0  0  0  0  0  0  0  0
   38.8520   31.9600   41.4020 N   0  0  0  0  0  0  0  0  0  0  0  0
   38.5640   33.6720   40.2440 H   0  0  0  0  0  0  0  0  0  0  0  0
   37.0330   32.5290   38.6180 H   0  0  0  0  0  0  0  0  0  0  0  0
   39.1600   29.8990   42.7310 C   0  0  2  0  0  0  0  0  0  0  0  0
   40.5170   29.4480   42.2310 C   0  0  0  0  0  0  0  0  0  0  0  0
   40.6510   28.0270   41.8960 C   0  0  0  0  0  0  0  0  0  0  0  0
   40.2300   27.2850   43.1670 C   0  0  0  0  0  0  0  0  0  0  0  0
   38.8000   27.4570   43.4730 C   0  0  0  0  0  0  0  0  0  0  0  0
   38.3190   28.8470   43.2180 C   0  0  0  0  0  0  0  0  0  0  0  0
   39.3240   30.6710   43.5110 H   0  0  0  0  0  0  0  0  0  0  0  0
   40.8760   30.0390   41.3620 H   0  0  0  0  0  0  0  0  0  0  0  0
   41.2770   29.6730   43.0270 H   0  0  0  0  0  0  0  0  0  0  0  0
   41.7080   27.7920   41.7600 H   0  0  0  0  0  0  0  0  0  0  0  0
   40.0410   27.7320   41.0350 H   0  0  0  0  0  0  0  0  0  0  0  0
   40.3750   26.2200   43.0040 H   0  0  0  0  0  0  0  0  0  0  0  0
   40.8270   27.7110   43.9910 H   0  0  0  0  0  0  0  0  0  0  0  0
   38.0610   26.7880   43.8340 H   0  0  0  0  0  0  0  0  0  0  0  0
   36.9460   29.1660   43.4670 N   0  0  0  0  0  0  0  0  0  0  0  0
   36.2870   28.5710   42.8970 H   0  0  0  0  0  0  0  0  0  0  0  0
   36.8100   29.9270   44.1650 H   0  0  0  0  0  0  0  0  0  0  0  0
   36.2890   29.9140   38.7520 C   0  0  0  0  0  0  0  0  0  0  0  0
   35.1850   29.3110   39.2360 C   0  0  0  0  0  0  0  0  0  0  0  0
   34.3620   28.6600   38.3030 C   0  0  0  0  0  0  0  0  0  0  0  0
   34.7630   28.7020   36.9960 C   0  0  0  0  0  0  0  0  0  0  0  0
   35.8720   29.3080   36.5080 C   0  0  0  0  0  0  0  0  0  0  0  0
   36.6410   29.9250   37.4400 N   0  0  0  0  0  0  0  0  0  0  0  0
   34.9470   29.3300   40.2990 H   0  0  0  0  0  0  0  0  0  0  0  0
   33.4720   28.1690   38.6560 H   0  0  0  0  0  0  0  0  0  0  0  0
   34.0920   28.1840   36.3130 H   0  0  0  0  0  0  0  0  0  0  0  0
   36.2140   29.3060   35.1580 O   0  0  0  0  0  0  0  0  0  0  0  0
   36.0850   30.3910   34.3420 C   0  0  0  0  0  3  0  0  0  0  0  0
   36.5270   30.4390   33.1060 C   0  0  0  0  0  3  0  0  0  0  0  0
   36.5520   31.4120   31.9980 C   0  0  0  0  0  2  0  0  0  0  0  0
   36.1020   30.9990   31.0600 H   0  0  0  0  0  0  0  0  0  0  0  0
  1  6  1  0  0  0  0
  2  3  1  0  0  0  0
  2  1  2  0  0  0  0
  3  4  2  0  0  0  0
  4  5  1  0  0  0  0
  5  9  1  0  0  0  0
  6  5  2  0  0  0  0
  7  1  1  0  0  0  0
  8  2  1  0  0  0  0
  9 14  1  0  0  0  0
  9 15  1  1  0  0  0
 10  9  1  0  0  0  0
 10 17  1  0  0  0  0
 11 10  1  0  0  0  0
 11 12  1  0  0  0  0
 12 13  1  0  0  0  0
 12 21  1  0  0  0  0
 13 22  1  0  0  0  0
 14 23  1  0  0  0  0
 14 13  2  0  0  0  0
 16 10  1  0  0  0  0
 18 11  1  0  0  0  0
 19 11  1  0  0  0  0
 20 12  1  0  0  0  0
 23 25  1  0  0  0  0
 24 23  1  0  0  0  0
 26 27  1  0  0  0  0
 26  3  1  0  0  0  0
 27 32  1  0  0  0  0
 28 33  1  0  0  0  0
 28 27  2  0  0  0  0
 29 28  1  0  0  0  0
 30 29  2  0  0  0  0
 30 31  1  0  0  0  0
 31 26  2  0  0  0  0
 34 29  1  0  0  0  0
 35 30  1  0  0  0  0
 36 35  1  0  0  0  0
 37 36  2  0  0  0  0
 38 37  1  0  0  0  0
 39 38  1  0  0  0  0
M  END
>  <minimizedAffinity>
-6.1133666

$$$$

 OpenBabel03252505133D

 39 41  0  0  1  0  0  0  0  0999 V2000
   37.5090   32.7260   39.9730 C   0  0  0  0  0  0  0  0  0  0  0  0
   37.1120   31.5560   40.6530 C   0  0  0  0  0  0  0  0  0  0  0  0
   38.0840   30.5150   40.8090 C   0  0  0  0  0  0  0  0  0  0  0  0
   39.3250   30.7030   40.2990 N   0  0  0  0  0  0  0  0  0  0  0  0
   39.6640   31.8280   39.6590 C   0  0  0  0  0  0  0  0  0  0  0  0
   38.7570   32.8510   39.4900 N   0  0  0  0  0  0  0  0  0  0  0  0
   36.8140   33.5340   39.8320 H   0  0  0  0  0  0  0  0  0  0  0  0
   36.1060   31.4550   41.0420 H   0  0  0  0  0  0  0  0  0  0  0  0
   41.0390   31.9850   39.1110 C   0  0  2  0  0  0  0  0  0  0  0  0
   41.8440   32.5740   40.2520 C   0  0  0  0  0  0  0  0  0  0  0  0
   42.1710   34.0010   40.1520 C   0  0  0  0  0  0  0  0  0  0  0  0
   42.8890   34.1430   38.8090 C   0  0  0  0  0  0  0  0  0  0  0  0
   41.9980   33.8900   37.6630 C   0  0  0  0  0  0  0  0  0  0  0  0
   41.0640   32.7510   37.9000 C   0  0  0  0  0  0  0  0  0  0  0  0
   41.4050   30.9520   38.9360 H   0  0  0  0  0  0  0  0  0  0  0  0
   41.3780   32.3990   41.2450 H   0  0  0  0  0  0  0  0  0  0  0  0
   42.8160   32.0160   40.3210 H   0  0  0  0  0  0  0  0  0  0  0  0
   42.9190   34.2460   40.9080 H   0  0  0  0  0  0  0  0  0  0  0  0
   41.2880   34.6470   40.2100 H   0  0  0  0  0  0  0  0  0  0  0  0
   43.2210   35.1730   38.7070 H   0  0  0  0  0  0  0  0  0  0  0  0
   43.7000   33.3950   38.8050 H   0  0  0  0  0  0  0  0  0  0  0  0
   41.8990   34.3610   36.7180 H   0  0  0  0  0  0  0  0  0  0  0  0
   40.1330   32.3890   36.8750 N   0  0  0  0  0  0  0  0  0  0  0  0
   39.4880   33.1830   36.6200 H   0  0  0  0  0  0  0  0  0  0  0  0
   40.2350   31.4060   36.5420 H   0  0  0  0  0  0  0  0  0  0  0  0
   37.7060   29.3020   41.5100 C   0  0  0  0  0  0  0  0  0  0  0  0
   37.7240   29.2930   42.8580 C   0  0  0  0  0  0  0  0  0  0  0  0
   37.3500   28.0950   43.4860 C   0  0  0  0  0  0  0  0  0  0  0  0
   37.0050   27.0550   42.6670 C   0  0  0  0  0  0  0  0  0  0  0  0
   36.9850   27.0620   41.3130 C   0  0  0  0  0  0  0  0  0  0  0  0
   37.3530   28.2370   40.7440 N   0  0  0  0  0  0  0  0  0  0  0  0
   38.0160   30.1750   43.4280 H   0  0  0  0  0  0  0  0  0  0  0  0
   37.3540   28.0540   44.5620 H   0  0  0  0  0  0  0  0  0  0  0  0
   36.7230   26.1490   43.2020 H   0  0  0  0  0  0  0  0  0  0  0  0
   36.6200   25.9580   40.5480 O   0  0  0  0  0  0  0  0  0  0  0  0
   37.4800   24.9550   40.2050 C   0  0  0  0  0  3  0  0  0  0  0  0
   37.3420   23.7060   40.5860 C   0  0  0  0  0  3  0  0  0  0  0  0
   38.0580   22.4290   40.4040 C   0  0  0  0  0  2  0  0  0  0  0  0
   37.3940   21.6250   39.9960 H   0  0  0  0  0  0  0  0  0  0  0  0
  1  2  1  0  0  0  0
  2  3  2  0  0  0  0
  2  8  1  0  0  0  0
  3 26  1  0  0  0  0
  4  3  1  0  0  0  0
  5  4  2  0  0  0  0
  6  5  1  0  0  0  0
  6  1  2  0  0  0  0
  7  1  1  0  0  0  0
  9 15  1  6  0  0  0
  9  5  1  0  0  0  0
  9 10  1  0  0  0  0
 10 17  1  0  0  0  0
 10 16  1  0  0  0  0
 11 19  1  0  0  0  0
 11 10  1  0  0  0  0
 11 18  1  0  0  0  0
 12 11  1  0  0  0  0
 13 14  2  0  0  0  0
 13 12  1  0  0  0  0
 14  9  1  0  0  0  0
 20 12  1  0  0  0  0
 21 12  1  0  0  0  0
 22 13  1  0  0  0  0
 23 14  1  0  0  0  0
 24 23  1  0  0  0  0
 25 23  1  0  0  0  0
 26 27  1  0  0  0  0
 27 32  1  0  0  0  0
 27 28  2  0  0  0  0
 28 33  1  0  0  0  0
 29 34  1  0  0  0  0
 29 28  1  0  0  0  0
 30 29  2  0  0  0  0
 31 30  1  0  0  0  0
 31 26  2  0  0  0  0
 35 30  1  0  0  0  0
 36 35  1  0  0  0  0
 36 37  2  0  0  0  0
 38 37  1  0  0  0  0
 39 38  1  0  0  0  0
M  END
>  <minimizedAffinity>
-6.08497381

$$$$

 OpenBabel03252505133D

 39 41  0  0  1  0  0  0  0  0999 V2000
   37.6370   32.9940   39.9460 C   0  0  0  0  0  0  0  0  0  0  0  0
   37.1760   31.8410   40.6150 C   0  0  0  0  0  0  0  0  0  0  0  0
   38.0890   30.7470   40.7620 C   0  0  0  0  0  0  0  0  0  0  0  0
   39.3390   30.8720   40.2560 N   0  0  0  0  0  0  0  0  0  0  0  0
   39.7400   31.9830   39.6270 C   0  0  0  0  0  0  0  0  0  0  0  0
   38.8900   33.0550   39.4660 N   0  0  0  0  0  0  0  0  0  0  0  0
   36.9870   33.8390   39.8120 H   0  0  0  0  0  0  0  0  0  0  0  0
   36.1650   31.7910   41.0020 H   0  0  0  0  0  0  0  0  0  0  0  0
   41.1230   32.0700   39.0820 C   0  0  2  0  0  0  0  0  0  0  0  0
   41.9390   32.6910   40.1980 C   0  0  0  0  0  0  0  0  0  0  0  0
   42.3100   34.1000   40.0300 C   0  0  0  0  0  0  0  0  0  0  0  0
   43.0410   34.1520   38.6860 C   0  0  0  0  0  0  0  0  0  0  0  0
   42.1500   33.8700   37.5480 C   0  0  0  0  0  0  0  0  0  0  0  0
   41.1790   32.7730   37.8350 C   0  0  0  0  0  0  0  0  0  0  0  0
   41.4580   31.0180   38.9610 H   0  0  0  0  0  0  0  0  0  0  0  0
   41.4610   32.5800   41.1950 H   0  0  0  0  0  0  0  0  0  0  0  0
   42.8930   32.1070   40.3020 H   0  0  0  0  0  0  0  0  0  0  0  0
   43.0610   34.3600   40.7780 H   0  0  0  0  0  0  0  0  0  0  0  0
   41.4470   34.7750   40.0480 H   0  0  0  0  0  0  0  0  0  0  0  0
   43.4050   35.1660   38.5360 H   0  0  0  0  0  0  0  0  0  0  0  0
   43.8280   33.3810   38.7260 H   0  0  0  0  0  0  0  0  0  0  0  0
   42.0710   34.2950   36.5800 H   0  0  0  0  0  0  0  0  0  0  0  0
   40.2430   32.3880   36.8220 N   0  0  0  0  0  0  0  0  0  0  0  0
   39.6250   33.1890   36.5230 H   0  0  0  0  0  0  0  0  0  0  0  0
   40.3170   31.3880   36.5400 H   0  0  0  0  0  0  0  0  0  0  0  0
   37.6440   29.5500   41.4510 C   0  0  0  0  0  0  0  0  0  0  0  0
   36.4370   29.0320   41.1470 C   0  0  0  0  0  0  0  0  0  0  0  0
   36.0540   27.8740   41.8430 C   0  0  0  0  0  0  0  0  0  0  0  0
   36.9440   27.3880   42.7610 C   0  0  0  0  0  0  0  0  0  0  0  0
   38.1570   27.9080   43.0680 C   0  0  0  0  0  0  0  0  0  0  0  0
   38.4900   29.0250   42.3740 N   0  0  0  0  0  0  0  0  0  0  0  0
   35.7940   29.4920   40.3980 H   0  0  0  0  0  0  0  0  0  0  0  0
   35.0970   27.4340   41.6240 H   0  0  0  0  0  0  0  0  0  0  0  0
   36.6010   26.4900   43.2740 H   0  0  0  0  0  0  0  0  0  0  0  0
   39.0090   27.3520   44.0190 O   0  0  0  0  0  0  0  0  0  0  0  0
   40.2910   26.9680   43.7570 C   0  0  0  0  0  3  0  0  0  0  0  0
   40.6180   25.8270   43.1950 C   0  0  0  0  0  3  0  0  0  0  0  0
   41.8520   25.1300   42.7880 C   0  0  0  0  0  2  0  0  0  0  0  0
   41.8340   24.8320   41.7090 H   0  0  0  0  0  0  0  0  0  0  0  0
  1  2  1  0  0  0  0
  2  3  2  0  0  0  0
  2  8  1  0  0  0  0
  3 26  1  0  0  0  0
  4  3  1  0  0  0  0
  5  4  2  0  0  0  0
  6  5  1  0  0  0  0
  6  1  2  0  0  0  0
  7  1  1  0  0  0  0
  9 15  1  6  0  0  0
  9  5  1  0  0  0  0
  9 10  1  0  0  0  0
 10 17  1  0  0  0  0
 10 16  1  0  0  0  0
 11 19  1  0  0  0  0
 11 10  1  0  0  0  0
 11 18  1  0  0  0  0
 12 21  1  0  0  0  0
 12 11  1  0  0  0  0
 13 14  2  0  0  0  0
 13 12  1  0  0  0  0
 14  9  1  0  0  0  0
 20 12  1  0  0  0  0
 22 13  1  0  0  0  0
 23 14  1  0  0  0  0
 24 23  1  0  0  0  0
 25 23  1  0  0  0  0
 26 31  1  0  0  0  0
 27 26  2  0  0  0  0
 27 28  1  0  0  0  0
 28 29  2  0  0  0  0
 29 30  1  0  0  0  0
 29 34  1  0  0  0  0
 30 35  1  0  0  0  0
 31 30  2  0  0  0  0
 32 27  1  0  0  0  0
 33 28  1  0  0  0  0
 36 35  1  0  0  0  0
 37 36  2  0  0  0  0
 38 37  1  0  0  0  0
 39 38  1  0  0  0  0
M  END
>  <minimizedAffinity>
-5.96473503

$$$$

 OpenBabel03252505133D

 39 41  0  0  1  0  0  0  0  0999 V2000
   36.2400   29.2070   37.7400 C   0  0  0  0  0  0  0  0  0  0  0  0
   36.3140   28.5380   38.9790 C   0  0  0  0  0  0  0  0  0  0  0  0
   37.0660   29.1610   40.0280 C   0  0  0  0  0  0  0  0  0  0  0  0
   37.6650   30.3500   39.7790 N   0  0  0  0  0  0  0  0  0  0  0  0
   37.5710   30.9540   38.5890 C   0  0  0  0  0  0  0  0  0  0  0  0
   36.8570   30.3860   37.5570 N   0  0  0  0  0  0  0  0  0  0  0  0
   35.6870   28.7780   36.9240 H   0  0  0  0  0  0  0  0  0  0  0  0
   35.8170   27.5860   39.1270 H   0  0  0  0  0  0  0  0  0  0  0  0
   38.2530   32.2590   38.3620 C   0  0  2  0  0  0  0  0  0  0  0  0
   39.6380   31.8900   37.8710 C   0  0  0  0  0  0  0  0  0  0  0  0
   40.7340   32.0430   38.8340 C   0  0  0  0  0  0  0  0  0  0  0  0
   40.6550   33.5020   39.2860 C   0  0  0  0  0  0  0  0  0  0  0  0
   39.4390   33.7850   40.0680 C   0  0  0  0  0  0  0  0  0  0  0  0
   38.2310   33.0990   39.5220 C   0  0  0  0  0  0  0  0  0  0  0  0
   37.7080   32.7310   37.5180 H   0  0  0  0  0  0  0  0  0  0  0  0
   39.6890   30.8610   37.4560 H   0  0  0  0  0  0  0  0  0  0  0  0
   39.8810   32.5380   36.9870 H   0  0  0  0  0  0  0  0  0  0  0  0
   41.6850   31.9550   38.3040 H   0  0  0  0  0  0  0  0  0  0  0  0
   40.6590   31.3510   39.6810 H   0  0  0  0  0  0  0  0  0  0  0  0
   41.4910   33.6980   39.9530 H   0  0  0  0  0  0  0  0  0  0  0  0
   40.6430   34.1150   38.3700 H   0  0  0  0  0  0  0  0  0  0  0  0
   39.2660   34.3750   40.9320 H   0  0  0  0  0  0  0  0  0  0  0  0
   36.9720   33.2760   40.1810 N   0  0  0  0  0  0  0  0  0  0  0  0
   36.9970   32.9610   41.1860 H   0  0  0  0  0  0  0  0  0  0  0  0
   36.2320   33.6860   39.5710 H   0  0  0  0  0  0  0  0  0  0  0  0
   37.1550   28.4980   41.3160 C   0  0  0  0  0  0  0  0  0  0  0  0
   37.4240   29.2350   42.4120 C   0  0  0  0  0  0  0  0  0  0  0  0
   37.5000   28.5440   43.6320 C   0  0  0  0  0  0  0  0  0  0  0  0
   37.2950   27.1930   43.5860 C   0  0  0  0  0  0  0  0  0  0  0  0
   37.0240   26.4520   42.4850 C   0  0  0  0  0  0  0  0  0  0  0  0
   36.9590   27.1540   41.3270 N   0  0  0  0  0  0  0  0  0  0  0  0
   37.5740   30.3120   42.3500 H   0  0  0  0  0  0  0  0  0  0  0  0
   37.7120   29.1030   44.5280 H   0  0  0  0  0  0  0  0  0  0  0  0
   37.3640   26.7040   44.5580 H   0  0  0  0  0  0  0  0  0  0  0  0
   36.8280   25.0730   42.5210 O   0  0  0  0  0  0  0  0  0  0  0  0
   37.7360   24.1660   42.0600 C   0  0  0  0  0  3  0  0  0  0  0  0
   37.5520   23.4140   40.9980 C   0  0  0  0  0  3  0  0  0  0  0  0
   38.2950   22.3770   40.2590 C   0  0  0  0  0  2  0  0  0  0  0  0
   38.4100   22.6300   39.1740 H   0  0  0  0  0  0  0  0  0  0  0  0
  1  2  1  0  0  0  0
  2  8  1  0  0  0  0
  2  3  2  0  0  0  0
  3 26  1  0  0  0  0
  4  3  1  0  0  0  0
  5  4  2  0  0  0  0
  6  1  2  0  0  0  0
  6  5  1  0  0  0  0
  7  1  1  0  0  0  0
  9 15  1  6  0  0  0
  9  5  1  0  0  0  0
  9 14  1  0  0  0  0
 10  9  1  0  0  0  0
 10 11  1  0  0  0  0
 11 12  1  0  0  0  0
 11 19  1  0  0  0  0
 12 20  1  0  0  0  0
 12 13  1  0  0  0  0
 13 22  1  0  0  0  0
 14 13  2  0  0  0  0
 14 23  1  0  0  0  0
 16 10  1  0  0  0  0
 17 10  1  0  0  0  0
 18 11  1  0  0  0  0
 21 12  1  0  0  0  0
 23 24  1  0  0  0  0
 25 23  1  0  0  0  0
 26 31  2  0  0  0  0
 26 27  1  0  0  0  0
 27 28  2  0  0  0  0
 28 33  1  0  0  0  0
 29 28  1  0  0  0  0
 29 34  1  0  0  0  0
 30 35  1  0  0  0  0
 30 29  2  0  0  0  0
 31 30  1  0  0  0  0
 32 27  1  0  0  0  0
 36 35  1  0  0  0  0
 37 36  2  0  0  0  0
 38 37  1  0  0  0  0
 39 38  1  0  0  0  0
M  END
>  <minimizedAffinity>
-5.95907307

$$$$

 OpenBabel03252505133D

 39 41  0  0  1  0  0  0  0  0999 V2000
   35.8240   29.7470   40.7720 C   0  0  0  0  0  0  0  0  0  0  0  0
   36.4730   28.7120   41.4770 C   0  0  0  0  0  0  0  0  0  0  0  0
   37.9050   28.7310   41.5200 C   0  0  0  0  0  0  0  0  0  0  0  0
   38.5600   29.7330   40.8850 N   0  0  0  0  0  0  0  0  0  0  0  0
   37.9080   30.6980   40.2250 C   0  0  0  0  0  0  0  0  0  0  0  0
   36.5320   30.7120   40.1630 N   0  0  0  0  0  0  0  0  0  0  0  0
   34.7510   29.7730   40.7130 H   0  0  0  0  0  0  0  0  0  0  0  0
   35.9020   27.9320   41.9690 H   0  0  0  0  0  0  0  0  0  0  0  0
   38.6730   31.7750   39.5380 C   0  0  2  0  0  0  0  0  0  0  0  0
   40.1280   31.3850   39.7120 C   0  0  0  0  0  0  0  0  0  0  0  0
   40.8940   32.1490   40.7020 C   0  0  0  0  0  0  0  0  0  0  0  0
   40.7380   33.6100   40.2740 C   0  0  0  0  0  0  0  0  0  0  0  0
   39.3560   34.0970   40.4250 C   0  0  0  0  0  0  0  0  0  0  0  0
   38.3390   33.0810   40.0220 C   0  0  0  0  0  0  0  0  0  0  0  0
   38.4210   31.6720   38.4610 H   0  0  0  0  0  0  0  0  0  0  0  0
   40.2620   30.3050   39.9360 H   0  0  0  0  0  0  0  0  0  0  0  0
   40.6460   31.5110   38.7240 H   0  0  0  0  0  0  0  0  0  0  0  0
   41.9550   31.9230   40.5800 H   0  0  0  0  0  0  0  0  0  0  0  0
   40.5460   31.9890   41.7290 H   0  0  0  0  0  0  0  0  0  0  0  0
   41.3450   34.2250   40.9330 H   0  0  0  0  0  0  0  0  0  0  0  0
   41.0200   33.6570   39.2090 H   0  0  0  0  0  0  0  0  0  0  0  0
   38.9560   35.0190   40.7620 H   0  0  0  0  0  0  0  0  0  0  0  0
   36.9490   33.4100   40.1170 N   0  0  0  0  0  0  0  0  0  0  0  0
   36.6640   33.6620   41.1000 H   0  0  0  0  0  0  0  0  0  0  0  0
   36.4390   33.3490   39.2100 H   0  0  0  0  0  0  0  0  0  0  0  0
   38.5990   27.6830   42.2440 C   0  0  0  0  0  0  0  0  0  0  0  0
   39.5050   28.0250   43.1810 C   0  0  0  0  0  0  0  0  0  0  0  0
   40.1480   26.9720   43.8510 C   0  0  0  0  0  0  0  0  0  0  0  0
   39.7920   25.7040   43.4840 C   0  0  0  0  0  0  0  0  0  0  0  0
   38.8810   25.3580   42.5430 C   0  0  0  0  0  0  0  0  0  0  0  0
   38.2820   26.4020   41.9190 N   0  0  0  0  0  0  0  0  0  0  0  0
   39.7250   29.0690   43.4040 H   0  0  0  0  0  0  0  0  0  0  0  0
   40.8770   27.2110   44.6060 H   0  0  0  0  0  0  0  0  0  0  0  0
   40.3180   24.9230   44.0330 H   0  0  0  0  0  0  0  0  0  0  0  0
   38.5730   24.0370   42.2260 O   0  0  0  0  0  0  0  0  0  0  0  0
   37.6990   23.6780   41.2420 C   0  0  0  0  0  3  0  0  0  0  0  0
   37.8440   22.6190   40.4790 C   0  0  0  0  0  3  0  0  0  0  0  0
   37.1180   21.9700   39.3720 C   0  0  0  0  0  2  0  0  0  0  0  0
   36.8890   20.8950   39.5870 H   0  0  0  0  0  0  0  0  0  0  0  0
  1  2  1  0  0  0  0
  2  3  2  0  0  0  0
  2  8  1  0  0  0  0
  3 26  1  0  0  0  0
  4  3  1  0  0  0  0
  5  4  2  0  0  0  0
  6  5  1  0  0  0  0
  6  1  2  0  0  0  0
  7  1  1  0  0  0  0
  9 15  1  6  0  0  0
  9 10  1  0  0  0  0
  9 14  1  0  0  0  0
  9  5  1  0  0  0  0
 10 16  1  0  0  0  0
 10 11  1  0  0  0  0
 11 19  1  0  0  0  0
 12 13  1  0  0  0  0
 12 11  1  0  0  0  0
 12 20  1  0  0  0  0
 13 22  1  0  0  0  0
 14 23  1  0  0  0  0
 14 13  2  0  0  0  0
 17 10  1  0  0  0  0
 18 11  1  0  0  0  0
 21 12  1  0  0  0  0
 23 24  1  0  0  0  0
 25 23  1  0  0  0  0
 26 27  1  0  0  0  0
 27 32  1  0  0  0  0
 27 28  2  0  0  0  0
 28 33  1  0  0  0  0
 29 28  1  0  0  0  0
 29 34  1  0  0  0  0
 30 29  2  0  0  0  0
 31 26  2  0  0  0  0
 31 30  1  0  0  0  0
 35 30  1  0  0  0  0
 36 35  1  0  0  0  0
 37 36  2  0  0  0  0
 38 39  1  0  0  0  0
 38 37  1  0  0  0  0
M  END
>  <minimizedAffinity>
-5.93611956

$$$$

 OpenBabel03252505133D

 39 41  0  0  1  0  0  0  0  0999 V2000
   36.0400   30.7770   40.4280 C   0  0  0  0  0  0  0  0  0  0  0  0
   36.9320   31.8120   40.0790 C   0  0  0  0  0  0  0  0  0  0  0  0
   38.3170   31.6350   40.4030 C   0  0  0  0  0  0  0  0  0  0  0  0
   38.6970   30.4920   41.0230 N   0  0  0  0  0  0  0  0  0  0  0  0
   37.8190   29.5320   41.3370 C   0  0  0  0  0  0  0  0  0  0  0  0
   36.4800   29.6670   41.0420 N   0  0  0  0  0  0  0  0  0  0  0  0
   34.9920   30.8670   40.2050 H   0  0  0  0  0  0  0  0  0  0  0  0
   36.5770   32.7090   39.5840 H   0  0  0  0  0  0  0  0  0  0  0  0
   38.2850   28.2950   42.0240 C   0  0  2  0  0  0  0  0  0  0  0  0
   38.4820   27.2870   40.9110 C   0  0  0  0  0  0  0  0  0  0  0  0
   37.4590   26.2430   40.7860 C   0  0  0  0  0  0  0  0  0  0  0  0
   37.4120   25.5770   42.1630 C   0  0  0  0  0  0  0  0  0  0  0  0
   36.8930   26.4760   43.2070 C   0  0  0  0  0  0  0  0  0  0  0  0
   37.3930   27.8750   43.0640 C   0  0  0  0  0  0  0  0  0  0  0  0
   39.2850   28.5470   42.4350 H   0  0  0  0  0  0  0  0  0  0  0  0
   38.6080   27.7620   39.9140 H   0  0  0  0  0  0  0  0  0  0  0  0
   39.4650   26.7690   41.0760 H   0  0  0  0  0  0  0  0  0  0  0  0
   37.8210   25.4720   40.1030 H   0  0  0  0  0  0  0  0  0  0  0  0
   36.4790   26.6370   40.4930 H   0  0  0  0  0  0  0  0  0  0  0  0
   36.7170   24.7430   42.1140 H   0  0  0  0  0  0  0  0  0  0  0  0
   38.4500   25.2980   42.4130 H   0  0  0  0  0  0  0  0  0  0  0  0
   36.2400   26.3170   44.0270 H   0  0  0  0  0  0  0  0  0  0  0  0
   36.9700   28.8660   44.0060 N   0  0  0  0  0  0  0  0  0  0  0  0
   35.9220   28.9830   44.0220 H   0  0  0  0  0  0  0  0  0  0  0  0
   37.7550   29.3150   44.5260 H   0  0  0  0  0  0  0  0  0  0  0  0
   39.2590   32.6800   40.0510 C   0  0  0  0  0  0  0  0  0  0  0  0
   39.0330   33.9360   40.4850 C   0  0  0  0  0  0  0  0  0  0  0  0
   39.9740   34.9100   40.1160 C   0  0  0  0  0  0  0  0  0  0  0  0
   41.0270   34.4870   39.3520 C   0  0  0  0  0  0  0  0  0  0  0  0
   41.2550   33.2250   38.9150 C   0  0  0  0  0  0  0  0  0  0  0  0
   40.3240   32.3140   39.2930 N   0  0  0  0  0  0  0  0  0  0  0  0
   38.1610   34.1790   41.0920 H   0  0  0  0  0  0  0  0  0  0  0  0
   39.8240   35.9230   40.4460 H   0  0  0  0  0  0  0  0  0  0  0  0
   41.7290   35.2790   39.0920 H   0  0  0  0  0  0  0  0  0  0  0  0
   42.3550   32.8730   38.1370 O   0  0  0  0  0  0  0  0  0  0  0  0
   42.2740   32.1030   37.0140 C   0  0  0  0  0  3  0  0  0  0  0  0
   42.7700   30.8910   36.9140 C   0  0  0  0  0  3  0  0  0  0  0  0
   42.8540   29.8320   35.8910 C   0  0  0  0  0  2  0  0  0  0  0  0
   42.4410   28.8570   36.2550 H   0  0  0  0  0  0  0  0  0  0  0  0
  1  6  1  0  0  0  0
  2  3  1  0  0  0  0
  2  1  2  0  0  0  0
  3  4  2  0  0  0  0
  4  5  1  0  0  0  0
  5  9  1  0  0  0  0
  6  5  2  0  0  0  0
  7  1  1  0  0  0  0
  8  2  1  0  0  0  0
  9 15  1  1  0  0  0
  9 14  1  0  0  0  0
 10 17  1  0  0  0  0
 10  9  1  0  0  0  0
 11 10  1  0  0  0  0
 11 12  1  0  0  0  0
 12 21  1  0  0  0  0
 12 13  1  0  0  0  0
 13 22  1  0  0  0  0
 14 13  2  0  0  0  0
 14 23  1  0  0  0  0
 16 10  1  0  0  0  0
 18 11  1  0  0  0  0
 19 11  1  0  0  0  0
 20 12  1  0  0  0  0
 23 24  1  0  0  0  0
 23 25  1  0  0  0  0
 26  3  1  0  0  0  0
 26 27  1  0  0  0  0
 27 32  1  0  0  0  0
 28 33  1  0  0  0  0
 28 27  2  0  0  0  0
 29 28  1  0  0  0  0
 30 31  1  0  0  0  0
 30 29  2  0  0  0  0
 31 26  2  0  0  0  0
 34 29  1  0  0  0  0
 35 30  1  0  0  0  0
 36 35  1  0  0  0  0
 37 36  2  0  0  0  0
 38 39  1  0  0  0  0
 38 37  1  0  0  0  0
M  END
>  <minimizedAffinity>
-5.88737202

$$$$

 OpenBabel03252505133D

 39 41  0  0  1  0  0  0  0  0999 V2000
   35.2480   28.2900   37.2980 C   0  0  0  0  0  0  0  0  0  0  0  0
   35.6260   27.2560   38.1800 C   0  0  0  0  0  0  0  0  0  0  0  0
   36.4030   27.6130   39.3300 C   0  0  0  0  0  0  0  0  0  0  0  0
   36.7340   28.9130   39.5120 N   0  0  0  0  0  0  0  0  0  0  0  0
   36.3560   29.8670   38.6520 C   0  0  0  0  0  0  0  0  0  0  0  0
   35.6090   29.5620   37.5360 N   0  0  0  0  0  0  0  0  0  0  0  0
   34.6650   28.0700   36.4220 H   0  0  0  0  0  0  0  0  0  0  0  0
   35.3360   26.2300   37.9890 H   0  0  0  0  0  0  0  0  0  0  0  0
   36.7500   31.2830   38.8930 C   0  0  2  0  0  0  0  0  0  0  0  0
   37.9820   31.4910   38.0350 C   0  0  0  0  0  0  0  0  0  0  0  0
   39.2680   31.5270   38.7380 C   0  0  0  0  0  0  0  0  0  0  0  0
   39.1070   32.6280   39.7890 C   0  0  0  0  0  0  0  0  0  0  0  0
   38.1300   32.2730   40.8320 C   0  0  0  0  0  0  0  0  0  0  0  0
   36.9300   31.5740   40.2840 C   0  0  0  0  0  0  0  0  0  0  0  0
   35.9290   31.8930   38.4610 H   0  0  0  0  0  0  0  0  0  0  0  0
   38.0640   30.7500   37.2110 H   0  0  0  0  0  0  0  0  0  0  0  0
   37.8720   32.4690   37.4940 H   0  0  0  0  0  0  0  0  0  0  0  0
   40.0360   31.8910   38.0530 H   0  0  0  0  0  0  0  0  0  0  0  0
   39.5340   30.5670   39.1950 H   0  0  0  0  0  0  0  0  0  0  0  0
   40.0580   32.7520   40.3000 H   0  0  0  0  0  0  0  0  0  0  0  0
   38.7510   33.5240   39.2530 H   0  0  0  0  0  0  0  0  0  0  0  0
   38.1200   32.4190   41.8820 H   0  0  0  0  0  0  0  0  0  0  0  0
   35.8930   31.1630   41.1800 N   0  0  0  0  0  0  0  0  0  0  0  0
   36.2440   30.5000   41.9220 H   0  0  0  0  0  0  0  0  0  0  0  0
   34.9610   31.5780   40.9650 H   0  0  0  0  0  0  0  0  0  0  0  0
   36.8010   26.5700   40.2580 C   0  0  0  0  0  0  0  0  0  0  0  0
   36.5460   25.2840   39.9440 C   0  0  0  0  0  0  0  0  0  0  0  0
   36.9510   24.3160   40.8760 C   0  0  0  0  0  0  0  0  0  0  0  0
   37.5630   24.7740   42.0100 C   0  0  0  0  0  0  0  0  0  0  0  0
   37.8190   26.0660   42.3270 C   0  0  0  0  0  0  0  0  0  0  0  0
   37.4130   26.9710   41.4020 N   0  0  0  0  0  0  0  0  0  0  0  0
   36.0510   25.0140   39.0120 H   0  0  0  0  0  0  0  0  0  0  0  0
   36.7640   23.2790   40.6560 H   0  0  0  0  0  0  0  0  0  0  0  0
   37.8580   23.9850   42.7010 H   0  0  0  0  0  0  0  0  0  0  0  0
   38.4490   26.4540   43.5070 O   0  0  0  0  0  0  0  0  0  0  0  0
   39.7060   26.9810   43.5580 C   0  0  0  0  0  3  0  0  0  0  0  0
   40.7500   26.3490   44.0440 C   0  0  0  0  0  3  0  0  0  0  0  0
   42.1860   26.6160   44.2420 C   0  0  0  0  0  2  0  0  0  0  0  0
   42.8330   25.8320   43.7710 H   0  0  0  0  0  0  0  0  0  0  0  0
  1  6  2  0  0  0  0
  1  2  1  0  0  0  0
  2  3  2  0  0  0  0
  3  4  1  0  0  0  0
  3 26  1  0  0  0  0
  5  9  1  0  0  0  0
  5  4  2  0  0  0  0
  6  5  1  0  0  0  0
  7  1  1  0  0  0  0
  8  2  1  0  0  0  0
  9 15  1  6  0  0  0
  9 14  1  0  0  0  0
 10 11  1  0  0  0  0
 10  9  1  0  0  0  0
 11 19  1  0  0  0  0
 11 12  1  0  0  0  0
 12 20  1  0  0  0  0
 12 13  1  0  0  0  0
 13 22  1  0  0  0  0
 14 13  2  0  0  0  0
 14 23  1  0  0  0  0
 16 10  1  0  0  0  0
 17 10  1  0  0  0  0
 18 11  1  0  0  0  0
 21 12  1  0  0  0  0
 23 24  1  0  0  0  0
 25 23  1  0  0  0  0
 26 31  1  0  0  0  0
 27 26  2  0  0  0  0
 27 28  1  0  0  0  0
 28 29  2  0  0  0  0
 29 30  1  0  0  0  0
 29 34  1  0  0  0  0
 30 35  1  0  0  0  0
 31 30  2  0  0  0  0
 32 27  1  0  0  0  0
 33 28  1  0  0  0  0
 35 36  1  0  0  0  0
 36 37  2  0  0  0  0
 37 38  1  0  0  0  0
 39 38  1  0  0  0  0
M  END
>  <minimizedAffinity>
-5.87129927

$$$$

 OpenBabel03252505133D

 39 41  0  0  1  0  0  0  0  0999 V2000
   35.3140   29.4900   40.0480 C   0  0  0  0  0  0  0  0  0  0  0  0
   36.0970   30.6530   39.9040 C   0  0  0  0  0  0  0  0  0  0  0  0
   37.2880   30.7570   40.6940 C   0  0  0  0  0  0  0  0  0  0  0  0
   37.5990   29.7410   41.5350 N   0  0  0  0  0  0  0  0  0  0  0  0
   36.8290   28.6520   41.6440 C   0  0  0  0  0  0  0  0  0  0  0  0
   35.6770   28.5170   40.9010 N   0  0  0  0  0  0  0  0  0  0  0  0
   34.4120   29.3690   39.4760 H   0  0  0  0  0  0  0  0  0  0  0  0
   35.8040   31.4390   39.2170 H   0  0  0  0  0  0  0  0  0  0  0  0
   37.2100   27.5640   42.5870 C   0  0  2  0  0  0  0  0  0  0  0  0
   38.2020   28.2070   43.5360 C   0  0  0  0  0  0  0  0  0  0  0  0
   39.6130   27.8610   43.3380 C   0  0  0  0  0  0  0  0  0  0  0  0
   39.6540   26.3330   43.4130 C   0  0  0  0  0  0  0  0  0  0  0  0
   38.9590   25.6950   42.2830 C   0  0  0  0  0  0  0  0  0  0  0  0
   37.6950   26.3970   41.9130 C   0  0  0  0  0  0  0  0  0  0  0  0
   36.2880   27.3380   43.1630 H   0  0  0  0  0  0  0  0  0  0  0  0
   38.1220   29.3150   43.5590 H   0  0  0  0  0  0  0  0  0  0  0  0
   37.9310   27.9070   44.5840 H   0  0  0  0  0  0  0  0  0  0  0  0
   40.1870   28.2090   44.1990 H   0  0  0  0  0  0  0  0  0  0  0  0
   40.0160   28.2310   42.3880 H   0  0  0  0  0  0  0  0  0  0  0  0
   40.6920   26.0170   43.3430 H   0  0  0  0  0  0  0  0  0  0  0  0
   39.1490   26.0510   44.3520 H   0  0  0  0  0  0  0  0  0  0  0  0
   39.1860   24.8430   41.6930 H   0  0  0  0  0  0  0  0  0  0  0  0
   36.9090   25.8930   40.8280 N   0  0  0  0  0  0  0  0  0  0  0  0
   37.4480   25.8680   39.9210 H   0  0  0  0  0  0  0  0  0  0  0  0
   35.9370   25.6310   41.0970 H   0  0  0  0  0  0  0  0  0  0  0  0
   38.1170   31.9400   40.5610 C   0  0  0  0  0  0  0  0  0  0  0  0
   37.5550   33.0860   40.1280 C   0  0  0  0  0  0  0  0  0  0  0  0
   38.4010   34.2010   40.0170 C   0  0  0  0  0  0  0  0  0  0  0  0
   39.7120   34.0110   40.3590 C   0  0  0  0  0  0  0  0  0  0  0  0
   40.2780   32.8610   40.7940 C   0  0  0  0  0  0  0  0  0  0  0  0
   39.4280   31.8080   40.8880 N   0  0  0  0  0  0  0  0  0  0  0  0
   36.4960   33.1400   39.8780 H   0  0  0  0  0  0  0  0  0  0  0  0
   37.9850   35.1320   39.6750 H   0  0  0  0  0  0  0  0  0  0  0  0
   40.3270   34.9050   40.2560 H   0  0  0  0  0  0  0  0  0  0  0  0
   41.6270   32.7480   41.1240 O   0  0  0  0  0  0  0  0  0  0  0  0
   42.1980   31.6050   41.5990 C   0  0  0  0  0  3  0  0  0  0  0  0
   42.3560   31.3360   42.8750 C   0  0  0  0  0  3  0  0  0  0  0  0
   42.9100   30.2430   43.6960 C   0  0  0  0  0  2  0  0  0  0  0  0
   42.1710   29.8560   44.4430 H   0  0  0  0  0  0  0  0  0  0  0  0
  1  6  1  0  0  0  0
  2  1  2  0  0  0  0
  2  3  1  0  0  0  0
  3  4  2  0  0  0  0
  4  5  1  0  0  0  0
  5  9  1  0  0  0  0
  6  5  2  0  0  0  0
  7  1  1  0  0  0  0
  8  2  1  0  0  0  0
  9 15  1  1  0  0  0
  9 10  1  0  0  0  0
 10 16  1  0  0  0  0
 10 17  1  0  0  0  0
 11 12  1  0  0  0  0
 11 10  1  0  0  0  0
 11 18  1  0  0  0  0
 12 21  1  0  0  0  0
 13 12  1  0  0  0  0
 14 13  2  0  0  0  0
 14  9  1  0  0  0  0
 19 11  1  0  0  0  0
 20 12  1  0  0  0  0
 22 13  1  0  0  0  0
 23 25  1  0  0  0  0
 23 14  1  0  0  0  0
 24 23  1  0  0  0  0
 26  3  1  0  0  0  0
 26 31  1  0  0  0  0
 27 26  2  0  0  0  0
 28 27  1  0  0  0  0
 28 29  2  0  0  0  0
 29 30  1  0  0  0  0
 30 31  2  0  0  0  0
 30 35  1  0  0  0  0
 32 27  1  0  0  0  0
 33 28  1  0  0  0  0
 34 29  1  0  0  0  0
 35 36  1  0  0  0  0
 36 37  2  0  0  0  0
 37 38  1  0  0  0  0
 38 39  1  0  0  0  0
M  END
>  <minimizedAffinity>
-5.81552362

$$$$
