
 OpenBabel03242523093D

 41 44  0  0  1  0  0  0  0  0999 V2000
   45.2250   36.0320   43.4540 C   0  0  0  0  0  0  0  0  0  0  0  0
   46.0390   34.9260   43.2210 C   0  0  0  0  0  0  0  0  0  0  0  0
   46.1270   33.9560   44.1760 C   0  0  0  0  0  0  0  0  0  0  0  0
   45.3970   34.1390   45.3220 N   0  0  0  0  0  0  0  0  0  0  0  0
   44.6210   35.2000   45.5360 C   0  0  0  0  0  0  0  0  0  0  0  0
   44.5380   36.1320   44.6140 N   0  0  0  0  0  0  0  0  0  0  0  0
   45.1410   36.8170   42.7040 H   0  0  0  0  0  0  0  0  0  0  0  0
   44.0250   35.3970   46.4170 H   0  0  0  0  0  0  0  0  0  0  0  0
   46.7350   34.8830   42.0180 N   0  0  0  0  0  0  0  0  0  0  0  0
   48.0190   35.4800   41.8590 C   0  0  0  0  0  0  0  0  0  0  0  0
   48.6920   35.1830   40.5450 C   0  0  0  0  0  0  0  0  0  0  0  0
   48.5450   33.8830   40.0810 N   0  0  0  0  0  0  0  0  0  0  0  0
   47.2890   33.3280   40.1970 C   0  0  0  0  0  0  0  0  0  0  0  0
   46.2910   34.2760   40.8270 C   0  0  0  0  0  0  0  0  0  0  0  0
   47.8930   36.5830   41.8920 H   0  0  0  0  0  0  0  0  0  0  0  0
   48.7280   35.2570   42.6940 H   0  0  0  0  0  0  0  0  0  0  0  0
   48.3580   35.9280   39.7850 H   0  0  0  0  0  0  0  0  0  0  0  0
   49.7860   35.4070   40.6990 H   0  0  0  0  0  0  0  0  0  0  0  0
   48.9690   33.7810   39.1490 H   0  0  0  0  0  0  0  0  0  0  0  0
   46.8880   33.1030   39.1660 H   0  0  0  0  0  0  0  0  0  0  0  0
   47.2190   32.3620   40.7390 H   0  0  0  0  0  0  0  0  0  0  0  0
   45.3330   33.7200   40.9310 H   0  0  0  0  0  0  0  0  0  0  0  0
   46.0560   35.0850   40.0820 H   0  0  0  0  0  0  0  0  0  0  0  0
   46.4020   31.9300   45.3350 C   0  0  0  0  0  0  0  0  0  0  0  0
   46.8250   32.7470   44.2660 C   0  0  0  0  0  0  0  0  0  0  0  0
   47.8700   32.1740   43.5800 C   0  0  0  0  0  0  0  0  0  0  0  0
   48.4540   30.9780   43.8620 C   0  0  0  0  0  0  0  0  0  0  0  0
   47.9800   30.2330   44.9380 C   0  0  0  0  0  0  0  0  0  0  0  0
   46.9350   30.7200   45.6850 C   0  0  0  0  0  0  0  0  0  0  0  0
   48.7710   29.0960   44.9620 O   0  0  0  0  0  0  0  0  0  0  0  0
   49.6970   29.1220   43.9020 C   0  0  2  0  0  0  0  0  0  0  0  0
   49.5000   30.3530   43.2110 O   0  0  0  0  0  0  0  0  0  0  0  0
   45.5850   32.0890   46.0700 H   0  0  0  0  0  0  0  0  0  0  0  0
   48.1960   32.7640   42.7830 H   0  0  0  0  0  0  0  0  0  0  0  0
   46.6610   30.0650   46.4740 H   0  0  0  0  0  0  0  0  0  0  0  0
   50.7390   29.0050   44.2350 H   0  0  0  0  0  0  0  0  0  0  0  0
   49.3250   28.0710   43.0200 O   0  0  0  0  0  0  0  0  0  0  0  0
   50.2830   27.6450   42.1160 C   0  0  0  0  0  0  0  0  0  0  0  0
   51.0090   27.7530   41.0170 C   0  0  0  0  0  0  0  0  0  0  0  0
   50.7620   28.9640   40.1960 C   0  0  0  0  0  0  0  0  0  0  0  0
   51.1720   28.7630   39.1740 H   0  0  0  0  0  0  0  0  0  0  0  0
  1  6  1  0  0  0  0
  2  1  2  0  0  0  0
  2  3  1  0  0  0  0
  3 25  1  0  0  0  0
  3  4  2  0  0  0  0
  4  5  1  0  0  0  0
  5  8  1  0  0  0  0
  6  5  2  0  0  0  0
  7  1  1  0  0  0  0
  9  2  1  0  0  0  0
 10 15  1  0  0  0  0
 10  9  1  0  0  0  0
 10 16  1  0  0  0  0
 11 18  1  0  0  0  0
 11 10  1  0  0  0  0
 12 13  1  0  0  0  0
 12 11  1  0  0  0  0
 13 21  1  0  0  0  0
 13 14  1  0  0  0  0
 14 22  1  0  0  0  0
 14  9  1  0  0  0  0
 17 11  1  0  0  0  0
 19 12  1  0  0  0  0
 20 13  1  0  0  0  0
 23 14  1  0  0  0  0
 24 29  1  0  0  0  0
 24 33  1  0  0  0  0
 25 24  2  0  0  0  0
 26 27  2  0  0  0  0
 26 25  1  0  0  0  0
 27 28  1  0  0  0  0
 28 30  1  0  0  0  0
 28 29  2  0  0  0  0
 29 35  1  0  0  0  0
 31 36  1  1  0  0  0
 31 30  1  0  0  0  0
 32 27  1  0  0  0  0
 32 31  1  0  0  0  0
 34 26  1  0  0  0  0
 37 31  1  0  0  0  0
 38 37  1  0  0  0  0
 39 38  2  0  0  0  0
 40 39  1  0  0  0  0
 41 40  1  0  0  0  0
M  END
>  <minimizedAffinity>
-4.7480216

>  <minimizedRMSD>
0.362059951

$$$$
