
 OpenBabel03252505093D

 39 41  0  0  1  0  0  0  0  0999 V2000
   44.5580   35.5530   44.6180 C   0  0  0  0  0  0  0  0  0  0  0  0
   45.2460   35.5980   43.3880 C   0  0  0  0  0  0  0  0  0  0  0  0
   46.3630   34.7160   43.2170 C   0  0  0  0  0  0  0  0  0  0  0  0
   46.7010   33.8910   44.2370 N   0  0  0  0  0  0  0  0  0  0  0  0
   46.0220   33.8780   45.3910 C   0  0  0  0  0  0  0  0  0  0  0  0
   44.9430   34.7110   45.5910 N   0  0  0  0  0  0  0  0  0  0  0  0
   43.7140   36.1960   44.7920 H   0  0  0  0  0  0  0  0  0  0  0  0
   44.9360   36.2780   42.6030 H   0  0  0  0  0  0  0  0  0  0  0  0
   46.4360   32.9560   46.4850 C   0  0  2  0  0  0  0  0  0  0  0  0
   46.9450   31.7190   45.7740 C   0  0  0  0  0  0  0  0  0  0  0  0
   46.0620   30.5480   45.7880 C   0  0  0  0  0  0  0  0  0  0  0  0
   45.7840   30.2860   47.2700 C   0  0  0  0  0  0  0  0  0  0  0  0
   44.9840   31.3560   47.8910 C   0  0  0  0  0  0  0  0  0  0  0  0
   45.3850   32.7170   47.4290 C   0  0  0  0  0  0  0  0  0  0  0  0
   47.3030   33.4500   46.9710 H   0  0  0  0  0  0  0  0  0  0  0  0
   47.2360   31.9150   44.7200 H   0  0  0  0  0  0  0  0  0  0  0  0
   47.9110   31.4100   46.2560 H   0  0  0  0  0  0  0  0  0  0  0  0
   46.6220   29.6780   45.4400 H   0  0  0  0  0  0  0  0  0  0  0  0
   45.1360   30.7040   45.2240 H   0  0  0  0  0  0  0  0  0  0  0  0
   45.1870   29.3820   47.3500 H   0  0  0  0  0  0  0  0  0  0  0  0
   46.7660   30.2360   47.7690 H   0  0  0  0  0  0  0  0  0  0  0  0
   44.1900   31.3380   48.5930 H   0  0  0  0  0  0  0  0  0  0  0  0
   44.6930   33.8600   47.9440 N   0  0  0  0  0  0  0  0  0  0  0  0
   43.6590   33.8280   47.7390 H   0  0  0  0  0  0  0  0  0  0  0  0
   45.3110   34.5400   48.4360 H   0  0  0  0  0  0  0  0  0  0  0  0
   47.0860   34.7370   41.9590 C   0  0  0  0  0  0  0  0  0  0  0  0
   48.2060   35.4810   41.8610 C   0  0  0  0  0  0  0  0  0  0  0  0
   48.8660   35.4660   40.6230 C   0  0  0  0  0  0  0  0  0  0  0  0
   48.3070   34.6980   39.6390 C   0  0  0  0  0  0  0  0  0  0  0  0
   47.1830   33.9500   39.7360 C   0  0  0  0  0  0  0  0  0  0  0  0
   46.5740   33.9900   40.9470 N   0  0  0  0  0  0  0  0  0  0  0  0
   48.5760   36.0640   42.7040 H   0  0  0  0  0  0  0  0  0  0  0  0
   49.7640   36.0490   40.5110 H   0  0  0  0  0  0  0  0  0  0  0  0
   48.8570   34.7200   38.6980 H   0  0  0  0  0  0  0  0  0  0  0  0
   46.6750   33.1920   38.6830 O   0  0  0  0  0  0  0  0  0  0  0  0
   47.4550   32.5610   37.7580 C   0  0  0  0  0  3  0  0  0  0  0  0
   47.6510   33.0010   36.5370 C   0  0  0  0  0  3  0  0  0  0  0  0
   48.4000   32.5830   35.3370 C   0  0  0  0  0  2  0  0  0  0  0  0
   49.0910   33.3840   34.9680 H   0  0  0  0  0  0  0  0  0  0  0  0
  1  7  1  0  0  0  0
  1  6  1  0  0  0  0
  2  1  2  0  0  0  0
  3  2  1  0  0  0  0
  3  4  2  0  0  0  0
  4  5  1  0  0  0  0
  5  6  2  0  0  0  0
  5  9  1  0  0  0  0
  8  2  1  0  0  0  0
  9 15  1  1  0  0  0
  9 14  1  0  0  0  0
 10 11  1  0  0  0  0
 10 17  1  0  0  0  0
 10  9  1  0  0  0  0
 11 12  1  0  0  0  0
 12 20  1  0  0  0  0
 12 21  1  0  0  0  0
 12 13  1  0  0  0  0
 13 22  1  0  0  0  0
 14 13  2  0  0  0  0
 14 23  1  0  0  0  0
 16 10  1  0  0  0  0
 18 11  1  0  0  0  0
 19 11  1  0  0  0  0
 23 25  1  0  0  0  0
 24 23  1  0  0  0  0
 26  3  1  0  0  0  0
 27 26  1  0  0  0  0
 27 32  1  0  0  0  0
 28 27  2  0  0  0  0
 29 30  2  0  0  0  0
 29 28  1  0  0  0  0
 30 31  1  0  0  0  0
 31 26  2  0  0  0  0
 33 28  1  0  0  0  0
 34 29  1  0  0  0  0
 35 30  1  0  0  0  0
 36 35  1  0  0  0  0
 37 36  2  0  0  0  0
 38 37  1  0  0  0  0
 39 38  1  0  0  0  0
M  END
>  <minimizedAffinity>
-6.84404087

>  <minimizedRMSD>
0.514303684

$$$$
