
 OpenBabel03242517503D

 14 14  0  0  0  0  0  0  0  0999 V2000
   44.5460   36.0170   44.5440 C   0  0  0  0  0  0  0  0  0  0  0  0
   45.2710   35.8520   43.3420 C   0  0  0  0  0  0  0  0  0  0  0  0
   46.1330   34.7280   43.2720 C   0  0  0  0  0  0  0  0  0  0  0  0
   46.2100   33.9010   44.3330 N   0  0  0  0  0  0  0  0  0  0  0  0
   45.4940   34.1040   45.4600 C   0  0  0  0  0  0  0  0  0  0  0  0
   44.6750   35.1470   45.5650 N   0  0  0  0  0  0  0  0  0  0  0  0
   43.8730   36.8540   44.6590 H   0  0  0  0  0  0  0  0  0  0  0  0
   45.1180   36.5820   42.5770 H   0  0  0  0  0  0  0  0  0  0  0  0
   46.6750   34.6130   42.3600 H   0  0  0  0  0  0  0  0  0  0  0  0
   45.5580   33.2670   46.5600 O   0  0  0  0  0  0  0  0  0  0  0  0
   46.7680   32.6590   46.8650 C   0  0  0  0  0  0  0  0  0  0  0  0
   46.9970   32.2880   48.1340 C   0  0  0  0  0  0  0  0  0  0  0  0
   48.2140   31.6300   48.6680 C   0  0  0  0  0  0  0  0  0  0  0  0
   49.0590   31.6380   47.9490 H   0  0  0  0  0  0  0  0  0  0  0  0
  1  7  1  0  0  0  0
  1  6  1  0  0  0  0
  2  1  2  0  0  0  0
  3  2  1  0  0  0  0
  3  4  2  0  0  0  0
  4  5  1  0  0  0  0
  5  6  2  0  0  0  0
  5 10  1  0  0  0  0
  8  2  1  0  0  0  0
  9  3  1  0  0  0  0
 10 11  1  0  0  0  0
 11 12  2  0  0  0  0
 12 13  1  0  0  0  0
 14 13  1  0  0  0  0
M  END
>  <minimizedAffinity>
-3.7648375

>  <minimizedRMSD>
1.41806841

$$$$
