
 OpenBabel03252505103D

 39 41  0  0  1  0  0  0  0  0999 V2000
   44.5600   35.5610   44.6130 C   0  0  0  0  0  0  0  0  0  0  0  0
   45.2440   35.6000   43.3810 C   0  0  0  0  0  0  0  0  0  0  0  0
   46.3570   34.7150   43.2080 C   0  0  0  0  0  0  0  0  0  0  0  0
   46.6960   33.8910   44.2290 N   0  0  0  0  0  0  0  0  0  0  0  0
   46.0210   33.8820   45.3850 C   0  0  0  0  0  0  0  0  0  0  0  0
   44.9460   34.7190   45.5870 N   0  0  0  0  0  0  0  0  0  0  0  0
   43.7190   36.2070   44.7880 H   0  0  0  0  0  0  0  0  0  0  0  0
   44.9340   36.2790   42.5950 H   0  0  0  0  0  0  0  0  0  0  0  0
   46.4350   32.9620   46.4800 C   0  0  2  0  0  0  0  0  0  0  0  0
   46.9460   31.7240   45.7700 C   0  0  0  0  0  0  0  0  0  0  0  0
   46.0650   30.5530   45.7840 C   0  0  0  0  0  0  0  0  0  0  0  0
   45.7860   30.2920   47.2660 C   0  0  0  0  0  0  0  0  0  0  0  0
   44.9850   31.3610   47.8860 C   0  0  0  0  0  0  0  0  0  0  0  0
   45.3840   32.7220   47.4230 C   0  0  0  0  0  0  0  0  0  0  0  0
   47.3020   33.4570   46.9660 H   0  0  0  0  0  0  0  0  0  0  0  0
   47.2380   31.9200   44.7160 H   0  0  0  0  0  0  0  0  0  0  0  0
   47.9130   31.4170   46.2530 H   0  0  0  0  0  0  0  0  0  0  0  0
   46.6260   29.6830   45.4370 H   0  0  0  0  0  0  0  0  0  0  0  0
   45.1380   30.7080   45.2190 H   0  0  0  0  0  0  0  0  0  0  0  0
   45.1900   29.3860   47.3460 H   0  0  0  0  0  0  0  0  0  0  0  0
   46.7680   30.2430   47.7660 H   0  0  0  0  0  0  0  0  0  0  0  0
   44.1900   31.3420   48.5880 H   0  0  0  0  0  0  0  0  0  0  0  0
   44.6900   33.8640   47.9370 N   0  0  0  0  0  0  0  0  0  0  0  0
   43.6570   33.8310   47.7320 H   0  0  0  0  0  0  0  0  0  0  0  0
   45.3070   34.5450   48.4300 H   0  0  0  0  0  0  0  0  0  0  0  0
   47.0760   34.7290   41.9480 C   0  0  0  0  0  0  0  0  0  0  0  0
   48.1970   35.4720   41.8440 C   0  0  0  0  0  0  0  0  0  0  0  0
   48.8530   35.4520   40.6030 C   0  0  0  0  0  0  0  0  0  0  0  0
   48.2900   34.6810   39.6240 C   0  0  0  0  0  0  0  0  0  0  0  0
   47.1650   33.9340   39.7270 C   0  0  0  0  0  0  0  0  0  0  0  0
   46.5600   33.9800   40.9400 N   0  0  0  0  0  0  0  0  0  0  0  0
   48.5700   36.0580   42.6830 H   0  0  0  0  0  0  0  0  0  0  0  0
   49.7510   36.0330   40.4860 H   0  0  0  0  0  0  0  0  0  0  0  0
   48.8360   34.6990   38.6810 H   0  0  0  0  0  0  0  0  0  0  0  0
   46.6530   33.1730   38.6790 O   0  0  0  0  0  0  0  0  0  0  0  0
   47.4280   32.5420   37.7510 C   0  0  0  0  0  3  0  0  0  0  0  0
   47.6440   32.9980   36.5390 C   0  0  0  0  0  3  0  0  0  0  0  0
   48.3960   32.5830   35.3390 C   0  0  0  0  0  2  0  0  0  0  0  0
   49.1060   33.3760   34.9880 H   0  0  0  0  0  0  0  0  0  0  0  0
  1  7  1  0  0  0  0
  1  6  1  0  0  0  0
  2  1  2  0  0  0  0
  3  2  1  0  0  0  0
  3  4  2  0  0  0  0
  4  5  1  0  0  0  0
  5  6  2  0  0  0  0
  5  9  1  0  0  0  0
  8  2  1  0  0  0  0
  9 15  1  1  0  0  0
  9 14  1  0  0  0  0
 10 11  1  0  0  0  0
 10 17  1  0  0  0  0
 10  9  1  0  0  0  0
 11 12  1  0  0  0  0
 12 20  1  0  0  0  0
 12 21  1  0  0  0  0
 12 13  1  0  0  0  0
 13 22  1  0  0  0  0
 14 13  2  0  0  0  0
 14 23  1  0  0  0  0
 16 10  1  0  0  0  0
 18 11  1  0  0  0  0
 19 11  1  0  0  0  0
 23 25  1  0  0  0  0
 24 23  1  0  0  0  0
 26  3  1  0  0  0  0
 27 26  1  0  0  0  0
 27 32  1  0  0  0  0
 28 27  2  0  0  0  0
 29 30  2  0  0  0  0
 29 28  1  0  0  0  0
 30 31  1  0  0  0  0
 31 26  2  0  0  0  0
 33 28  1  0  0  0  0
 34 29  1  0  0  0  0
 35 30  1  0  0  0  0
 36 35  1  0  0  0  0
 37 36  2  0  0  0  0
 38 37  1  0  0  0  0
 39 38  1  0  0  0  0
M  END
>  <minimizedAffinity>
-6.8491044

>  <minimizedRMSD>
0.436151385

$$$$
