
 OpenBabel03252504263D

 17 17  0  0  0  0  0  0  0  0999 V2000
   44.3090   35.7620   44.1430 C   0  0  0  0  0  0  0  0  0  0  0  0
   44.5450   34.9050   43.0710 C   0  0  0  0  0  0  0  0  0  0  0  0
   45.1570   33.6990   43.3540 C   0  0  0  0  0  0  0  0  0  0  0  0
   45.4800   33.4390   44.6220 N   0  0  0  0  0  0  0  0  0  0  0  0
   45.2500   34.2700   45.6470 C   0  0  0  0  0  0  0  0  0  0  0  0
   44.6440   35.4870   45.4340 N   0  0  0  0  0  0  0  0  0  0  0  0
   43.8320   36.7400   44.0340 H   0  0  0  0  0  0  0  0  0  0  0  0
   45.3260   33.0540   42.5040 H   0  0  0  0  0  0  0  0  0  0  0  0
   45.5280   34.0160   46.6440 H   0  0  0  0  0  0  0  0  0  0  0  0
   44.1040   35.4010   41.7670 C   0  0  0  0  0  0  0  0  0  0  0  0
   44.3580   34.6480   40.9670 H   0  0  0  0  0  0  0  0  0  0  0  0
   44.6560   36.3180   41.4810 H   0  0  0  0  0  0  0  0  0  0  0  0
   42.7440   35.6630   41.6940 O   0  0  0  0  0  0  0  0  0  0  0  0
   41.8340   35.0270   40.8860 C   0  0  0  0  0  0  0  0  0  0  0  0
   40.5970   35.5300   40.7330 C   0  0  0  0  0  0  0  0  0  0  0  0
   39.4560   35.0160   39.9160 C   0  0  0  0  0  0  0  0  0  0  0  0
   38.6930   34.6570   40.6320 H   0  0  0  0  0  0  0  0  0  0  0  0
  1  6  1  0  0  0  0
  2  3  1  0  0  0  0
  2  1  2  0  0  0  0
  3  4  2  0  0  0  0
  4  5  1  0  0  0  0
  5  9  1  0  0  0  0
  6  5  2  0  0  0  0
  7  1  1  0  0  0  0
  8  3  1  0  0  0  0
 10  2  1  0  0  0  0
 11 10  1  0  0  0  0
 12 10  1  0  0  0  0
 13 10  1  0  0  0  0
 14 13  1  0  0  0  0
 15 14  2  0  0  0  0
 16 17  1  0  0  0  0
 16 15  1  0  0  0  0
M  END
>  <minimizedAffinity>
-3.59622788

>  <minimizedRMSD>
0.719285369

$$$$
