
 OpenBabel03252504083D

 17 17  0  0  0  0  0  0  0  0999 V2000
   47.0020   33.2170   43.2010 C   0  0  0  0  0  0  0  0  0  0  0  0
   48.3900   33.3920   43.2640 C   0  0  0  0  0  0  0  0  0  0  0  0
   48.9900   34.1900   42.2820 C   0  0  0  0  0  0  0  0  0  0  0  0
   48.2110   34.7500   41.3270 N   0  0  0  0  0  0  0  0  0  0  0  0
   46.8790   34.5540   41.3050 C   0  0  0  0  0  0  0  0  0  0  0  0
   46.2590   33.7870   42.2390 N   0  0  0  0  0  0  0  0  0  0  0  0
   50.0600   34.3280   42.3280 H   0  0  0  0  0  0  0  0  0  0  0  0
   46.3680   35.0410   40.5090 H   0  0  0  0  0  0  0  0  0  0  0  0
   49.1480   32.7320   44.3540 C   0  0  0  0  0  0  0  0  0  0  0  0
   48.7050   33.1910   45.5880 F   0  0  0  0  0  0  0  0  0  0  0  0
   48.8680   31.3750   44.3100 F   0  0  0  0  0  0  0  0  0  0  0  0
   50.4960   32.9370   44.2970 F   0  0  0  0  0  0  0  0  0  0  0  0
   46.4190   32.4450   44.1570 O   0  0  0  0  0  0  0  0  0  0  0  0
   45.3940   33.0390   44.9020 C   0  0  0  0  0  3  0  0  0  0  0  0
   44.8250   34.1970   44.6930 C   0  0  0  0  0  3  0  0  0  0  0  0
   45.2890   35.0030   43.5520 C   0  0  0  0  0  2  0  0  0  0  0  0
   46.1990   35.5700   43.8560 H   0  0  0  0  0  0  0  0  0  0  0  0
  1  2  1  0  0  0  0
  1 13  1  0  0  0  0
  2  9  1  0  0  0  0
  3  7  1  0  0  0  0
  3  2  2  0  0  0  0
  4  3  1  0  0  0  0
  5  4  2  0  0  0  0
  5  6  1  0  0  0  0
  6  1  2  0  0  0  0
  8  5  1  0  0  0  0
  9 10  1  0  0  0  0
 11  9  1  0  0  0  0
 12  9  1  0  0  0  0
 13 14  1  0  0  0  0
 15 14  2  0  0  0  0
 16 17  1  0  0  0  0
 16 15  1  0  0  0  0
M  END
>  <minimizedAffinity>
4.45563412

>  <minimizedRMSD>
4.38446569

$$$$
