
 OpenBabel03252504083D

 17 17  0  0  0  0  0  0  0  0999 V2000
   46.2120   34.5860   43.3610 C   0  0  0  0  0  0  0  0  0  0  0  0
   46.1040   33.8420   44.5430 C   0  0  0  0  0  0  0  0  0  0  0  0
   45.2480   34.3250   45.5400 C   0  0  0  0  0  0  0  0  0  0  0  0
   44.5700   35.4760   45.3190 N   0  0  0  0  0  0  0  0  0  0  0  0
   44.7050   36.1600   44.1670 C   0  0  0  0  0  0  0  0  0  0  0  0
   45.5260   35.7250   43.1760 N   0  0  0  0  0  0  0  0  0  0  0  0
   45.1610   33.7550   46.4520 H   0  0  0  0  0  0  0  0  0  0  0  0
   44.1260   37.0500   44.1030 H   0  0  0  0  0  0  0  0  0  0  0  0
   46.8930   32.5940   44.6800 C   0  0  0  0  0  0  0  0  0  0  0  0
   46.3010   31.5740   43.9470 F   0  0  0  0  0  0  0  0  0  0  0  0
   48.1420   32.8130   44.1220 F   0  0  0  0  0  0  0  0  0  0  0  0
   47.0220   32.1560   45.9670 F   0  0  0  0  0  0  0  0  0  0  0  0
   47.0420   34.1150   42.3920 O   0  0  0  0  0  0  0  0  0  0  0  0
   47.5500   35.0570   41.4920 C   0  0  0  0  0  3  0  0  0  0  0  0
   48.7620   35.5450   41.4470 C   0  0  0  0  0  3  0  0  0  0  0  0
   49.7370   35.0740   42.4440 C   0  0  0  0  0  2  0  0  0  0  0  0
   49.6000   35.6550   43.3860 H   0  0  0  0  0  0  0  0  0  0  0  0
  1  2  1  0  0  0  0
  2  9  1  0  0  0  0
  2  3  2  0  0  0  0
  3  7  1  0  0  0  0
  4  3  1  0  0  0  0
  5  4  2  0  0  0  0
  6  1  2  0  0  0  0
  6  5  1  0  0  0  0
  8  5  1  0  0  0  0
  9 12  1  0  0  0  0
 10  9  1  0  0  0  0
 11  9  1  0  0  0  0
 13  1  1  0  0  0  0
 14 13  1  0  0  0  0
 15 14  2  0  0  0  0
 15 16  1  0  0  0  0
 16 17  1  0  0  0  0
M  END
>  <minimizedAffinity>
-4.50331354

>  <minimizedRMSD>
4.66571569

$$$$
