
 OpenBabel03252504083D

 17 17  0  0  0  0  0  0  0  0999 V2000
   48.4580   33.3510   42.3660 C   0  0  0  0  0  0  0  0  0  0  0  0
   48.6440   33.4760   40.9830 C   0  0  0  0  0  0  0  0  0  0  0  0
   49.3250   32.4460   40.3240 C   0  0  0  0  0  0  0  0  0  0  0  0
   49.7690   31.3890   41.0430 N   0  0  0  0  0  0  0  0  0  0  0  0
   49.5680   31.3110   42.3720 C   0  0  0  0  0  0  0  0  0  0  0  0
   48.9120   32.2890   43.0490 N   0  0  0  0  0  0  0  0  0  0  0  0
   49.4700   32.5380   39.2580 H   0  0  0  0  0  0  0  0  0  0  0  0
   49.9600   30.4370   42.8340 H   0  0  0  0  0  0  0  0  0  0  0  0
   48.1170   34.6780   40.2940 C   0  0  0  0  0  0  0  0  0  0  0  0
   46.7410   34.7610   40.4670 F   0  0  0  0  0  0  0  0  0  0  0  0
   48.6630   35.7960   40.9030 F   0  0  0  0  0  0  0  0  0  0  0  0
   48.3660   34.7030   38.9520 F   0  0  0  0  0  0  0  0  0  0  0  0
   47.7920   34.3500   43.0060 O   0  0  0  0  0  0  0  0  0  0  0  0
   46.6870   33.9720   43.7750 C   0  0  0  0  0  3  0  0  0  0  0  0
   45.5470   34.6020   43.8990 C   0  0  0  0  0  3  0  0  0  0  0  0
   45.3670   35.8610   43.1580 C   0  0  0  0  0  2  0  0  0  0  0  0
   45.8230   36.6930   43.7430 H   0  0  0  0  0  0  0  0  0  0  0  0
  1 13  1  0  0  0  0
  1  6  1  0  0  0  0
  2  1  2  0  0  0  0
  3  2  1  0  0  0  0
  3  4  2  0  0  0  0
  4  5  1  0  0  0  0
  5  8  1  0  0  0  0
  5  6  2  0  0  0  0
  7  3  1  0  0  0  0
  9 10  1  0  0  0  0
  9 11  1  0  0  0  0
  9  2  1  0  0  0  0
 12  9  1  0  0  0  0
 13 14  1  0  0  0  0
 14 15  2  0  0  0  0
 16 17  1  0  0  0  0
 16 15  1  0  0  0  0
M  END
>  <minimizedAffinity>
-3.83990145

>  <minimizedRMSD>
4.32479572

$$$$
