
 OpenBabel03242514193D

 44 45  0  0  0  0  0  0  0  0999 V2000
   46.1240   34.5400   43.6360 C   0  0  0  0  0  0  0  0  0  0  0  0
   46.1030   33.7730   44.7750 C   0  0  0  0  0  0  0  0  0  0  0  0
   45.2890   34.1780   45.7890 C   0  0  0  0  0  0  0  0  0  0  0  0
   44.5410   35.3070   45.6360 N   0  0  0  0  0  0  0  0  0  0  0  0
   44.5600   36.0410   44.5470 C   0  0  0  0  0  0  0  0  0  0  0  0
   45.3500   35.6440   43.5660 N   0  0  0  0  0  0  0  0  0  0  0  0
   45.1220   33.7320   46.7560 H   0  0  0  0  0  0  0  0  0  0  0  0
   43.9600   36.9480   44.4200 H   0  0  0  0  0  0  0  0  0  0  0  0
   46.9470   34.0600   42.5180 C   0  0  0  0  0  0  0  0  0  0  0  0
   48.3420   34.6070   42.5820 C   0  0  0  0  0  0  0  0  0  0  0  0
   48.6550   35.4890   41.4570 C   0  0  0  0  0  0  0  0  0  0  0  0
   48.4330   34.7990   40.1280 C   0  0  0  0  0  0  0  0  0  0  0  0
   47.1750   34.0240   40.0630 C   0  0  0  0  0  0  0  0  0  0  0  0
   46.2640   34.3390   41.2280 C   0  0  0  0  0  0  0  0  0  0  0  0
   47.1080   32.9730   42.6490 H   0  0  0  0  0  0  0  0  0  0  0  0
   49.1090   33.8160   42.6380 H   0  0  0  0  0  0  0  0  0  0  0  0
   48.4380   35.1770   43.5280 H   0  0  0  0  0  0  0  0  0  0  0  0
   48.1650   36.4810   41.4970 H   0  0  0  0  0  0  0  0  0  0  0  0
   49.7580   35.7250   41.4950 H   0  0  0  0  0  0  0  0  0  0  0  0
   48.3610   35.6200   39.3640 H   0  0  0  0  0  0  0  0  0  0  0  0
   49.3170   34.1470   39.9450 H   0  0  0  0  0  0  0  0  0  0  0  0
   47.3820   32.9210   40.1040 H   0  0  0  0  0  0  0  0  0  0  0  0
   46.5750   34.1900   39.1420 H   0  0  0  0  0  0  0  0  0  0  0  0
   46.0880   35.4490   41.1590 H   0  0  0  0  0  0  0  0  0  0  0  0
   45.3010   33.8130   41.1080 H   0  0  0  0  0  0  0  0  0  0  0  0
   46.7550   32.6610   45.1010 O   0  0  0  0  0  0  0  0  0  0  0  0
   47.2570   32.1550   46.2750 C   0  0  0  0  0  0  0  0  0  0  0  0
   46.8900   32.5930   47.2110 H   0  0  0  0  0  0  0  0  0  0  0  0
   48.3660   32.3700   46.2770 H   0  0  0  0  0  0  0  0  0  0  0  0
   47.1640   30.6490   46.3950 C   0  0  0  0  0  0  0  0  0  0  0  0
   47.1270   30.3840   47.4580 H   0  0  0  0  0  0  0  0  0  0  0  0
   48.0900   30.2060   45.9320 H   0  0  0  0  0  0  0  0  0  0  0  0
   46.0570   30.1080   45.6390 N   0  0  0  0  0  0  0  0  0  0  0  0
   45.5760   30.8120   45.0780 H   0  0  0  0  0  0  0  0  0  0  0  0
   44.8260   29.6450   46.7870 S   0  0  0  0  0  0  0  0  0  0  0  0
   43.6050   29.1350   46.0820 O   0  0  0  0  0  0  0  0  0  0  0  0
   43.6050   28.3320   45.5070 H   0  0  0  0  0  0  0  0  0  0  0  0
   44.4980   30.8650   47.5930 O   0  0  0  0  0  0  0  0  0  0  0  0
   44.2400   30.7940   48.5450 H   0  0  0  0  0  0  0  0  0  0  0  0
   45.4050   28.4930   47.8420 O   0  0  0  0  0  0  0  0  0  0  0  0
   45.9020   27.2640   47.5120 C   0  0  0  0  0  3  0  0  0  0  0  0
   46.9010   26.5480   47.0180 C   0  0  0  0  0  3  0  0  0  0  0  0
   46.8800   25.0860   46.8870 C   0  0  0  0  0  2  0  0  0  0  0  0
   47.4020   24.5320   47.6800 H   0  0  0  0  0  0  0  0  0  0  0  0
  1  2  1  0  0  0  0
  2 26  1  0  0  0  0
  2  3  2  0  0  0  0
  3  7  1  0  0  0  0
  4  3  1  0  0  0  0
  5  4  2  0  0  0  0
  6  1  2  0  0  0  0
  6  5  1  0  0  0  0
  8  5  1  0  0  0  0
  9 10  1  0  0  0  0
  9 15  1  0  0  0  0
  9  1  1  0  0  0  0
 10 16  1  0  0  0  0
 10 17  1  0  0  0  0
 11 19  1  0  0  0  0
 11 18  1  0  0  0  0
 11 10  1  0  0  0  0
 12 11  1  0  0  0  0
 13 22  1  0  0  0  0
 13 12  1  0  0  0  0
 13 14  1  0  0  0  0
 14  9  1  0  0  0  0
 20 12  1  0  0  0  0
 21 12  1  0  0  0  0
 23 13  1  0  0  0  0
 24 14  1  0  0  0  0
 25 14  1  0  0  0  0
 26 27  1  0  0  0  0
 27 29  1  0  0  0  0
 27 30  1  0  0  0  0
 27 28  1  0  0  0  0
 30 31  1  0  0  0  0
 32 30  1  0  0  0  0
 33 30  1  0  0  0  0
 33 35  1  0  0  0  0
 34 33  1  0  0  0  0
 35 38  1  0  0  0  0
 35 40  1  0  0  0  0
 36 35  1  0  0  0  0
 37 36  1  0  0  0  0
 38 39  1  0  0  0  0
 41 40  1  0  0  0  0
 42 41  2  0  0  0  0
 43 42  1  0  0  0  0
 43 44  1  0  0  0  0
M  END
>  <minimizedAffinity>
-5.24774218

>  <minimizedRMSD>
0.943397224

$$$$
