
 OpenBabel03242514193D

 44 45  0  0  0  0  0  0  0  0999 V2000
   46.1610   34.5640   43.6150 C   0  0  0  0  0  0  0  0  0  0  0  0
   46.1520   33.7940   44.7530 C   0  0  0  0  0  0  0  0  0  0  0  0
   45.3220   34.1780   45.7620 C   0  0  0  0  0  0  0  0  0  0  0  0
   44.5490   35.2890   45.6070 N   0  0  0  0  0  0  0  0  0  0  0  0
   44.5580   36.0260   44.5200 C   0  0  0  0  0  0  0  0  0  0  0  0
   45.3630   35.6510   43.5440 N   0  0  0  0  0  0  0  0  0  0  0  0
   45.1590   33.7240   46.7270 H   0  0  0  0  0  0  0  0  0  0  0  0
   43.9370   36.9190   44.3920 H   0  0  0  0  0  0  0  0  0  0  0  0
   47.0030   34.1070   42.5020 C   0  0  0  0  0  0  0  0  0  0  0  0
   48.3900   34.6700   42.5870 C   0  0  0  0  0  0  0  0  0  0  0  0
   48.7040   35.5690   41.4760 C   0  0  0  0  0  0  0  0  0  0  0  0
   48.5060   34.8910   40.1360 C   0  0  0  0  0  0  0  0  0  0  0  0
   47.2580   34.1010   40.0490 C   0  0  0  0  0  0  0  0  0  0  0  0
   46.3300   34.3920   41.2080 C   0  0  0  0  0  0  0  0  0  0  0  0
   47.1760   33.0200   42.6220 H   0  0  0  0  0  0  0  0  0  0  0  0
   49.1670   33.8880   42.6430 H   0  0  0  0  0  0  0  0  0  0  0  0
   48.4690   35.2300   43.5400 H   0  0  0  0  0  0  0  0  0  0  0  0
   48.2030   36.5540   41.5210 H   0  0  0  0  0  0  0  0  0  0  0  0
   49.8040   35.8170   41.5280 H   0  0  0  0  0  0  0  0  0  0  0  0
   48.4320   35.7190   39.3810 H   0  0  0  0  0  0  0  0  0  0  0  0
   49.4000   34.2510   39.9560 H   0  0  0  0  0  0  0  0  0  0  0  0
   47.4790   33.0000   40.0800 H   0  0  0  0  0  0  0  0  0  0  0  0
   46.6660   34.2700   39.1230 H   0  0  0  0  0  0  0  0  0  0  0  0
   46.1420   35.5000   41.1480 H   0  0  0  0  0  0  0  0  0  0  0  0
   45.3750   33.8560   41.0710 H   0  0  0  0  0  0  0  0  0  0  0  0
   46.8270   32.6960   45.0800 O   0  0  0  0  0  0  0  0  0  0  0  0
   47.2640   32.1600   46.2650 C   0  0  0  0  0  0  0  0  0  0  0  0
   46.8440   32.5720   47.1910 H   0  0  0  0  0  0  0  0  0  0  0  0
   48.3710   32.3770   46.3360 H   0  0  0  0  0  0  0  0  0  0  0  0
   47.1710   30.6510   46.3400 C   0  0  0  0  0  0  0  0  0  0  0  0
   47.1690   30.3520   47.3940 H   0  0  0  0  0  0  0  0  0  0  0  0
   48.0790   30.2210   45.8310 H   0  0  0  0  0  0  0  0  0  0  0  0
   46.0370   30.1370   45.6050 N   0  0  0  0  0  0  0  0  0  0  0  0
   45.5380   30.8610   45.0850 H   0  0  0  0  0  0  0  0  0  0  0  0
   44.8460   29.6360   46.7780 S   0  0  0  0  0  0  0  0  0  0  0  0
   43.6220   29.1000   46.0990 O   0  0  0  0  0  0  0  0  0  0  0  0
   43.6290   28.3000   45.5180 H   0  0  0  0  0  0  0  0  0  0  0  0
   44.5060   30.8420   47.6000 O   0  0  0  0  0  0  0  0  0  0  0  0
   44.2730   30.7590   48.5570 H   0  0  0  0  0  0  0  0  0  0  0  0
   45.4790   28.4930   47.8110 O   0  0  0  0  0  0  0  0  0  0  0  0
   45.9410   27.2530   47.4680 C   0  0  0  0  0  3  0  0  0  0  0  0
   46.9760   26.4470   47.2840 C   0  0  0  0  0  3  0  0  0  0  0  0
   46.8630   25.0450   46.8640 C   0  0  0  0  0  2  0  0  0  0  0  0
   46.9380   24.3020   47.6700 H   0  0  0  0  0  0  0  0  0  0  0  0
  1  2  1  0  0  0  0
  2 26  1  0  0  0  0
  2  3  2  0  0  0  0
  3  7  1  0  0  0  0
  4  3  1  0  0  0  0
  5  4  2  0  0  0  0
  6  1  2  0  0  0  0
  6  5  1  0  0  0  0
  8  5  1  0  0  0  0
  9 10  1  0  0  0  0
  9 15  1  0  0  0  0
  9  1  1  0  0  0  0
 10 16  1  0  0  0  0
 10 17  1  0  0  0  0
 11 18  1  0  0  0  0
 11 19  1  0  0  0  0
 11 10  1  0  0  0  0
 12 11  1  0  0  0  0
 13 22  1  0  0  0  0
 13 12  1  0  0  0  0
 13 14  1  0  0  0  0
 14  9  1  0  0  0  0
 20 12  1  0  0  0  0
 21 12  1  0  0  0  0
 23 13  1  0  0  0  0
 24 14  1  0  0  0  0
 25 14  1  0  0  0  0
 26 27  1  0  0  0  0
 27 29  1  0  0  0  0
 27 30  1  0  0  0  0
 27 28  1  0  0  0  0
 30 31  1  0  0  0  0
 32 30  1  0  0  0  0
 33 30  1  0  0  0  0
 33 35  1  0  0  0  0
 34 33  1  0  0  0  0
 35 38  1  0  0  0  0
 35 40  1  0  0  0  0
 36 35  1  0  0  0  0
 37 36  1  0  0  0  0
 38 39  1  0  0  0  0
 41 40  1  0  0  0  0
 42 41  2  0  0  0  0
 43 42  1  0  0  0  0
 43 44  1  0  0  0  0
M  END
>  <minimizedAffinity>
-5.28008938

>  <minimizedRMSD>
0.91305697

$$$$
