
 OpenBabel03242514193D

 44 45  0  0  0  0  0  0  0  0999 V2000
   46.1640   34.5690   43.6080 C   0  0  0  0  0  0  0  0  0  0  0  0
   46.1580   33.8030   44.7480 C   0  0  0  0  0  0  0  0  0  0  0  0
   45.3280   34.1860   45.7580 C   0  0  0  0  0  0  0  0  0  0  0  0
   44.5500   35.2940   45.5990 N   0  0  0  0  0  0  0  0  0  0  0  0
   44.5540   36.0270   44.5100 C   0  0  0  0  0  0  0  0  0  0  0  0
   45.3600   35.6520   43.5340 N   0  0  0  0  0  0  0  0  0  0  0  0
   45.1680   33.7360   46.7240 H   0  0  0  0  0  0  0  0  0  0  0  0
   43.9300   36.9170   44.3790 H   0  0  0  0  0  0  0  0  0  0  0  0
   47.0060   34.1120   42.4960 C   0  0  0  0  0  0  0  0  0  0  0  0
   48.3920   34.6770   42.5810 C   0  0  0  0  0  0  0  0  0  0  0  0
   48.7060   35.5750   41.4690 C   0  0  0  0  0  0  0  0  0  0  0  0
   48.5090   34.8950   40.1300 C   0  0  0  0  0  0  0  0  0  0  0  0
   47.2630   34.1030   40.0440 C   0  0  0  0  0  0  0  0  0  0  0  0
   46.3340   34.3940   41.2010 C   0  0  0  0  0  0  0  0  0  0  0  0
   47.1810   33.0260   42.6180 H   0  0  0  0  0  0  0  0  0  0  0  0
   49.1700   33.8960   42.6380 H   0  0  0  0  0  0  0  0  0  0  0  0
   48.4710   35.2390   43.5340 H   0  0  0  0  0  0  0  0  0  0  0  0
   48.2030   36.5590   41.5130 H   0  0  0  0  0  0  0  0  0  0  0  0
   49.8050   35.8250   41.5210 H   0  0  0  0  0  0  0  0  0  0  0  0
   48.4340   35.7220   39.3740 H   0  0  0  0  0  0  0  0  0  0  0  0
   49.4040   34.2570   39.9510 H   0  0  0  0  0  0  0  0  0  0  0  0
   47.4840   33.0020   40.0760 H   0  0  0  0  0  0  0  0  0  0  0  0
   46.6710   34.2700   39.1170 H   0  0  0  0  0  0  0  0  0  0  0  0
   46.1430   35.5020   41.1400 H   0  0  0  0  0  0  0  0  0  0  0  0
   45.3800   33.8570   41.0650 H   0  0  0  0  0  0  0  0  0  0  0  0
   46.8390   32.7090   45.0790 O   0  0  0  0  0  0  0  0  0  0  0  0
   47.2550   32.1640   46.2680 C   0  0  0  0  0  0  0  0  0  0  0  0
   46.8170   32.5680   47.1890 H   0  0  0  0  0  0  0  0  0  0  0  0
   48.3600   32.3820   46.3610 H   0  0  0  0  0  0  0  0  0  0  0  0
   47.1620   30.6550   46.3290 C   0  0  0  0  0  0  0  0  0  0  0  0
   47.1680   30.3450   47.3800 H   0  0  0  0  0  0  0  0  0  0  0  0
   48.0660   30.2290   45.8090 H   0  0  0  0  0  0  0  0  0  0  0  0
   46.0220   30.1480   45.5980 N   0  0  0  0  0  0  0  0  0  0  0  0
   45.5120   30.8780   45.0990 H   0  0  0  0  0  0  0  0  0  0  0  0
   44.8490   29.6150   46.7760 S   0  0  0  0  0  0  0  0  0  0  0  0
   43.6230   29.0770   46.1010 O   0  0  0  0  0  0  0  0  0  0  0  0
   43.6320   28.2870   45.5080 H   0  0  0  0  0  0  0  0  0  0  0  0
   44.5060   30.8040   47.6210 O   0  0  0  0  0  0  0  0  0  0  0  0
   44.2850   30.7030   48.5790 H   0  0  0  0  0  0  0  0  0  0  0  0
   45.5060   28.4620   47.7830 O   0  0  0  0  0  0  0  0  0  0  0  0
   45.8850   27.1970   47.4330 C   0  0  0  0  0  3  0  0  0  0  0  0
   46.3470   26.0140   47.8100 C   0  0  0  0  0  3  0  0  0  0  0  0
   46.5910   24.8950   46.8920 C   0  0  0  0  0  2  0  0  0  0  0  0
   45.8010   24.1300   46.8560 H   0  0  0  0  0  0  0  0  0  0  0  0
  1  2  1  0  0  0  0
  2 26  1  0  0  0  0
  2  3  2  0  0  0  0
  3  7  1  0  0  0  0
  4  3  1  0  0  0  0
  5  4  2  0  0  0  0
  6  1  2  0  0  0  0
  6  5  1  0  0  0  0
  8  5  1  0  0  0  0
  9 10  1  0  0  0  0
  9 15  1  0  0  0  0
  9  1  1  0  0  0  0
 10 16  1  0  0  0  0
 10 17  1  0  0  0  0
 11 18  1  0  0  0  0
 11 19  1  0  0  0  0
 11 10  1  0  0  0  0
 12 11  1  0  0  0  0
 13 22  1  0  0  0  0
 13 12  1  0  0  0  0
 13 14  1  0  0  0  0
 14  9  1  0  0  0  0
 20 12  1  0  0  0  0
 21 12  1  0  0  0  0
 23 13  1  0  0  0  0
 24 14  1  0  0  0  0
 25 14  1  0  0  0  0
 26 27  1  0  0  0  0
 27 30  1  0  0  0  0
 27 29  1  0  0  0  0
 27 28  1  0  0  0  0
 30 31  1  0  0  0  0
 32 30  1  0  0  0  0
 33 30  1  0  0  0  0
 33 35  1  0  0  0  0
 34 33  1  0  0  0  0
 35 38  1  0  0  0  0
 35 40  1  0  0  0  0
 36 35  1  0  0  0  0
 37 36  1  0  0  0  0
 38 39  1  0  0  0  0
 41 40  1  0  0  0  0
 41 42  2  0  0  0  0
 43 42  1  0  0  0  0
 44 43  1  0  0  0  0
M  END
>  <minimizedAffinity>
-5.29704905

>  <minimizedRMSD>
0.979919076

$$$$
