
 OpenBabel03242514193D

 44 45  0  0  0  0  0  0  0  0999 V2000
   46.1670   34.5610   43.6130 C   0  0  0  0  0  0  0  0  0  0  0  0
   46.1630   33.7910   44.7510 C   0  0  0  0  0  0  0  0  0  0  0  0
   45.3330   34.1710   45.7620 C   0  0  0  0  0  0  0  0  0  0  0  0
   44.5540   35.2790   45.6070 N   0  0  0  0  0  0  0  0  0  0  0  0
   44.5570   36.0150   44.5200 C   0  0  0  0  0  0  0  0  0  0  0  0
   45.3630   35.6430   43.5420 N   0  0  0  0  0  0  0  0  0  0  0  0
   45.1740   33.7180   46.7270 H   0  0  0  0  0  0  0  0  0  0  0  0
   43.9310   36.9050   44.3920 H   0  0  0  0  0  0  0  0  0  0  0  0
   47.0090   34.1070   42.4990 C   0  0  0  0  0  0  0  0  0  0  0  0
   48.3950   34.6730   42.5840 C   0  0  0  0  0  0  0  0  0  0  0  0
   48.7070   35.5740   41.4750 C   0  0  0  0  0  0  0  0  0  0  0  0
   48.5100   34.8980   40.1340 C   0  0  0  0  0  0  0  0  0  0  0  0
   47.2640   34.1060   40.0460 C   0  0  0  0  0  0  0  0  0  0  0  0
   46.3360   34.3930   41.2050 C   0  0  0  0  0  0  0  0  0  0  0  0
   47.1850   33.0210   42.6180 H   0  0  0  0  0  0  0  0  0  0  0  0
   49.1740   33.8920   42.6390 H   0  0  0  0  0  0  0  0  0  0  0  0
   48.4730   35.2320   43.5390 H   0  0  0  0  0  0  0  0  0  0  0  0
   48.2040   36.5580   41.5220 H   0  0  0  0  0  0  0  0  0  0  0  0
   49.8060   35.8250   41.5270 H   0  0  0  0  0  0  0  0  0  0  0  0
   48.4340   35.7270   39.3800 H   0  0  0  0  0  0  0  0  0  0  0  0
   49.4050   34.2610   39.9530 H   0  0  0  0  0  0  0  0  0  0  0  0
   47.4870   33.0050   40.0750 H   0  0  0  0  0  0  0  0  0  0  0  0
   46.6710   34.2750   39.1200 H   0  0  0  0  0  0  0  0  0  0  0  0
   46.1450   35.5010   41.1480 H   0  0  0  0  0  0  0  0  0  0  0  0
   45.3820   33.8550   41.0680 H   0  0  0  0  0  0  0  0  0  0  0  0
   46.8450   32.6980   45.0780 O   0  0  0  0  0  0  0  0  0  0  0  0
   47.2680   32.1530   46.2650 C   0  0  0  0  0  0  0  0  0  0  0  0
   46.8420   32.5640   47.1890 H   0  0  0  0  0  0  0  0  0  0  0  0
   48.3750   32.3620   46.3470 H   0  0  0  0  0  0  0  0  0  0  0  0
   47.1630   30.6440   46.3320 C   0  0  0  0  0  0  0  0  0  0  0  0
   47.1650   30.3390   47.3840 H   0  0  0  0  0  0  0  0  0  0  0  0
   48.0640   30.2100   45.8150 H   0  0  0  0  0  0  0  0  0  0  0  0
   46.0200   30.1440   45.6020 N   0  0  0  0  0  0  0  0  0  0  0  0
   45.5170   30.8760   45.0980 H   0  0  0  0  0  0  0  0  0  0  0  0
   44.8400   29.6280   46.7800 S   0  0  0  0  0  0  0  0  0  0  0  0
   43.6100   29.0990   46.1070 O   0  0  0  0  0  0  0  0  0  0  0  0
   43.6120   28.3060   45.5170 H   0  0  0  0  0  0  0  0  0  0  0  0
   44.5080   30.8240   47.6200 O   0  0  0  0  0  0  0  0  0  0  0  0
   44.2840   30.7300   48.5780 H   0  0  0  0  0  0  0  0  0  0  0  0
   45.4840   28.4730   47.7940 O   0  0  0  0  0  0  0  0  0  0  0  0
   45.8980   27.2200   47.4400 C   0  0  0  0  0  3  0  0  0  0  0  0
   46.0700   26.3180   46.4870 C   0  0  0  0  0  3  0  0  0  0  0  0
   46.6220   24.9760   46.7120 C   0  0  0  0  0  2  0  0  0  0  0  0
   47.6880   24.8540   46.4680 H   0  0  0  0  0  0  0  0  0  0  0  0
  1  2  1  0  0  0  0
  2 26  1  0  0  0  0
  2  3  2  0  0  0  0
  3  7  1  0  0  0  0
  4  3  1  0  0  0  0
  5  4  2  0  0  0  0
  6  1  2  0  0  0  0
  6  5  1  0  0  0  0
  8  5  1  0  0  0  0
  9 10  1  0  0  0  0
  9 15  1  0  0  0  0
  9  1  1  0  0  0  0
 10 16  1  0  0  0  0
 10 17  1  0  0  0  0
 11 18  1  0  0  0  0
 11 19  1  0  0  0  0
 11 10  1  0  0  0  0
 12 11  1  0  0  0  0
 13 22  1  0  0  0  0
 13 12  1  0  0  0  0
 13 14  1  0  0  0  0
 14  9  1  0  0  0  0
 20 12  1  0  0  0  0
 21 12  1  0  0  0  0
 23 13  1  0  0  0  0
 24 14  1  0  0  0  0
 25 14  1  0  0  0  0
 26 27  1  0  0  0  0
 27 30  1  0  0  0  0
 27 29  1  0  0  0  0
 27 28  1  0  0  0  0
 30 31  1  0  0  0  0
 32 30  1  0  0  0  0
 33 30  1  0  0  0  0
 33 35  1  0  0  0  0
 34 33  1  0  0  0  0
 35 38  1  0  0  0  0
 35 40  1  0  0  0  0
 36 35  1  0  0  0  0
 37 36  1  0  0  0  0
 38 39  1  0  0  0  0
 41 40  1  0  0  0  0
 42 43  1  0  0  0  0
 42 41  2  0  0  0  0
 44 43  1  0  0  0  0
M  END
>  <minimizedAffinity>
-5.26241684

>  <minimizedRMSD>
1.00507367

$$$$
