
 OpenBabel03252504083D

 17 17  0  0  0  0  0  0  0  0999 V2000
   47.1770   33.8650   43.6160 C   0  0  0  0  0  0  0  0  0  0  0  0
   46.5570   34.7870   42.7620 C   0  0  0  0  0  0  0  0  0  0  0  0
   47.2730   35.2170   41.6390 C   0  0  0  0  0  0  0  0  0  0  0  0
   48.5180   34.7280   41.4300 N   0  0  0  0  0  0  0  0  0  0  0  0
   49.0760   33.8430   42.2770 C   0  0  0  0  0  0  0  0  0  0  0  0
   48.4140   33.4020   43.3790 N   0  0  0  0  0  0  0  0  0  0  0  0
   46.7990   35.9260   40.9780 H   0  0  0  0  0  0  0  0  0  0  0  0
   50.0570   33.5280   42.0150 H   0  0  0  0  0  0  0  0  0  0  0  0
   45.1890   35.2580   43.0860 C   0  0  0  0  0  0  0  0  0  0  0  0
   44.3480   34.1720   43.2950 F   0  0  0  0  0  0  0  0  0  0  0  0
   45.2470   35.9520   44.2850 F   0  0  0  0  0  0  0  0  0  0  0  0
   44.6250   36.0370   42.1180 F   0  0  0  0  0  0  0  0  0  0  0  0
   46.4790   33.4460   44.7060 O   0  0  0  0  0  0  0  0  0  0  0  0
   47.0460   32.4040   45.4470 C   0  0  0  0  0  3  0  0  0  0  0  0
   46.7060   31.1410   45.4380 C   0  0  0  0  0  3  0  0  0  0  0  0
   45.6020   30.7260   44.5580 C   0  0  0  0  0  2  0  0  0  0  0  0
   44.6350   30.9230   45.0760 H   0  0  0  0  0  0  0  0  0  0  0  0
  1 13  1  0  0  0  0
  2  9  1  0  0  0  0
  2  1  2  0  0  0  0
  3  2  1  0  0  0  0
  4  3  2  0  0  0  0
  4  5  1  0  0  0  0
  5  6  2  0  0  0  0
  6  1  1  0  0  0  0
  7  3  1  0  0  0  0
  8  5  1  0  0  0  0
  9 10  1  0  0  0  0
  9 11  1  0  0  0  0
 12  9  1  0  0  0  0
 13 14  1  0  0  0  0
 15 14  2  0  0  0  0
 16 17  1  0  0  0  0
 16 15  1  0  0  0  0
M  END
>  <minimizedAffinity>
-3.35027432

>  <minimizedRMSD>
3.50448942

$$$$
