
 OpenBabel03252508463D

 44 46  0  0  0  0  0  0  0  0999 V2000
   43.0720   32.5060   41.6630 C   0  0  0  0  0  0  0  0  0  0  0  0
   43.5530   32.0540   40.7450 H   0  0  0  0  0  0  0  0  0  0  0  0
   42.1020   32.9520   41.3440 H   0  0  0  0  0  0  0  0  0  0  0  0
   43.6350   34.9290   41.8720 C   0  0  0  0  0  0  0  0  0  0  0  0
   43.9190   33.6070   42.1950 C   0  0  0  0  0  0  0  0  0  0  0  0
   44.9930   33.3650   43.0110 C   0  0  0  0  0  0  0  0  0  0  0  0
   45.7570   34.3900   43.4900 C   0  0  0  0  0  0  0  0  0  0  0  0
   45.4930   35.6920   43.1820 C   0  0  0  0  0  0  0  0  0  0  0  0
   44.4000   35.9100   42.3540 C   0  0  0  0  0  0  0  0  0  0  0  0
   45.2040   32.3230   43.2570 H   0  0  0  0  0  0  0  0  0  0  0  0
   46.6110   34.2100   44.1370 H   0  0  0  0  0  0  0  0  0  0  0  0
   46.0430   36.5630   43.5140 H   0  0  0  0  0  0  0  0  0  0  0  0
   44.1300   36.9230   42.0670 H   0  0  0  0  0  0  0  0  0  0  0  0
   40.1680   35.6610   40.5420 C   0  0  0  0  0  0  0  0  0  0  0  0
   41.2160   35.4810   41.4630 C   0  0  0  0  0  0  0  0  0  0  0  0
   42.4780   35.1400   40.9970 C   0  0  0  0  0  0  0  0  0  0  0  0
   42.6320   34.9980   39.6540 N   0  0  0  0  0  0  0  0  0  0  0  0
   41.6150   35.1750   38.7800 C   0  0  0  0  0  0  0  0  0  0  0  0
   40.3950   35.5040   39.2320 N   0  0  0  0  0  0  0  0  0  0  0  0
   39.1870   35.9270   40.9190 H   0  0  0  0  0  0  0  0  0  0  0  0
   41.0790   35.5970   42.5270 H   0  0  0  0  0  0  0  0  0  0  0  0
   41.8400   35.0380   37.7210 H   0  0  0  0  0  0  0  0  0  0  0  0
   42.7600   31.4830   42.6280 N   0  0  0  0  0  0  0  0  0  0  0  0
   42.9370   31.8620   43.5910 H   0  0  0  0  0  0  0  0  0  0  0  0
   41.0990   31.0630   42.6020 S   0  0  0  0  0  0  0  0  0  0  0  0
   40.2350   32.2810   42.4450 O   0  0  0  0  0  0  0  0  0  0  0  0
   39.4210   32.3540   41.8640 H   0  0  0  0  0  0  0  0  0  0  0  0
   40.7200   30.3140   43.8300 O   0  0  0  0  0  0  0  0  0  0  0  0
   40.6710   30.8000   44.7130 H   0  0  0  0  0  0  0  0  0  0  0  0
   40.8660   30.0550   41.2830 O   0  0  0  0  0  0  0  0  0  0  0  0
   39.9660   29.0700   41.6170 C   0  0  0  0  0  0  0  0  0  0  0  0
   38.9370   29.4370   41.5730 H   0  0  0  0  0  0  0  0  0  0  0  0
   40.1020   28.6210   42.6100 H   0  0  0  0  0  0  0  0  0  0  0  0
   40.1390   27.8870   40.6490 C   0  0  0  0  0  0  0  0  0  0  0  0
   41.1810   27.7520   40.3650 H   0  0  0  0  0  0  0  0  0  0  0  0
   39.8050   26.9690   41.2050 H   0  0  0  0  0  0  0  0  0  0  0  0
   39.2590   28.0710   39.4820 C   0  0  0  0  0  0  0  0  0  0  0  0
   39.2260   27.2940   38.3570 C   0  0  0  0  0  0  0  0  0  0  0  0
   39.8330   26.4160   38.1270 H   0  0  0  0  0  0  0  0  0  0  0  0
   38.2420   27.8520   37.5370 C   0  0  0  0  0  0  0  0  0  0  0  0
   38.0190   27.4080   36.5660 H   0  0  0  0  0  0  0  0  0  0  0  0
   37.7370   28.9470   38.2330 C   0  0  0  0  0  0  0  0  0  0  0  0
   36.9570   29.4820   37.7100 H   0  0  0  0  0  0  0  0  0  0  0  0
   38.3630   29.0450   39.3760 O   0  0  0  0  0  0  0  0  0  0  0  0
  1  5  1  0  0  0  0
  1 23  1  0  0  0  0
  2  1  1  0  0  0  0
  3  1  1  0  0  0  0
  4  5  2  0  0  0  0
  4  9  1  0  0  0  0
  5  6  1  0  0  0  0
  6 10  1  0  0  0  0
  6  7  2  0  0  0  0
  7 11  1  0  0  0  0
  8  7  1  0  0  0  0
  8 12  1  0  0  0  0
  9  8  2  0  0  0  0
 13  9  1  0  0  0  0
 14 20  1  0  0  0  0
 14 15  1  0  0  0  0
 15 21  1  0  0  0  0
 16 15  2  0  0  0  0
 16  4  1  0  0  0  0
 17 16  1  0  0  0  0
 18 19  1  0  0  0  0
 18 17  2  0  0  0  0
 19 14  2  0  0  0  0
 22 18  1  0  0  0  0
 23 24  1  0  0  0  0
 25 23  1  0  0  0  0
 25 28  1  0  0  0  0
 26 25  1  0  0  0  0
 27 26  1  0  0  0  0
 28 29  1  0  0  0  0
 30 31  1  0  0  0  0
 30 25  1  0  0  0  0
 31 33  1  0  0  0  0
 32 31  1  0  0  0  0
 34 36  1  0  0  0  0
 34 31  1  0  0  0  0
 35 34  1  0  0  0  0
 37 34  1  0  0  0  0
 38 37  2  0  0  0  0
 39 38  1  0  0  0  0
 40 42  2  0  0  0  0
 40 38  1  0  0  0  0
 41 40  1  0  0  0  0
 42 44  1  0  0  0  0
 43 42  1  0  0  0  0
 44 37  1  0  0  0  0
M  END
>  <minimizedAffinity>
-4.80511904

>  <minimizedRMSD>
1.32112765

$$$$
