
 OpenBabel03242515413D

 35 38  0  0  0  0  0  0  0  0999 V2000
   37.0050   28.7940   41.9250 C   0  0  0  0  0  0  0  0  0  0  0  0
   37.8070   29.9100   41.7710 C   0  0  0  0  0  0  0  0  0  0  0  0
   37.3810   30.8750   40.8460 C   0  0  0  0  0  0  0  0  0  0  0  0
   36.2390   30.6830   40.1630 N   0  0  0  0  0  0  0  0  0  0  0  0
   35.4840   29.5770   40.3440 C   0  0  0  0  0  0  0  0  0  0  0  0
   35.8940   28.6700   41.2210 N   0  0  0  0  0  0  0  0  0  0  0  0
   38.7270   30.0890   42.3060 H   0  0  0  0  0  0  0  0  0  0  0  0
   38.1800   32.0740   40.6350 C   0  0  0  0  0  0  0  0  0  0  0  0
   37.7260   33.2610   40.0980 C   0  0  0  0  0  0  0  0  0  0  0  0
   36.7140   33.4610   39.7600 H   0  0  0  0  0  0  0  0  0  0  0  0
   38.7960   34.1610   40.0650 C   0  0  0  0  0  0  0  0  0  0  0  0
   38.7560   35.1580   39.7030 H   0  0  0  0  0  0  0  0  0  0  0  0
   39.8440   33.4310   40.5970 C   0  0  0  0  0  0  0  0  0  0  0  0
   40.8550   33.8260   40.7260 H   0  0  0  0  0  0  0  0  0  0  0  0
   39.4510   32.2140   40.9220 O   0  0  0  0  0  0  0  0  0  0  0  0
   37.5980   27.5850   43.1260 S   0  0  0  0  0  0  0  0  0  0  0  0
   39.1020   25.4380   42.5640 C   0  0  0  0  0  0  0  0  0  0  0  0
   37.8490   25.9980   42.3530 C   0  0  0  0  0  0  0  0  0  0  0  0
   36.9090   25.3440   41.6000 C   0  0  0  0  0  0  0  0  0  0  0  0
   37.1450   24.1160   41.0180 C   0  0  0  0  0  0  0  0  0  0  0  0
   38.4230   23.5500   41.2360 C   0  0  0  0  0  0  0  0  0  0  0  0
   39.3930   24.1830   41.9890 C   0  0  0  0  0  0  0  0  0  0  0  0
   38.4300   22.3110   40.5530 O   0  0  0  0  0  0  0  0  0  0  0  0
   37.3440   22.3340   39.6670 C   0  0  0  0  0  0  0  0  0  0  0  0
   36.4100   23.2370   40.2260 O   0  0  0  0  0  0  0  0  0  0  0  0
   39.9090   25.8720   43.1390 H   0  0  0  0  0  0  0  0  0  0  0  0
   35.9470   25.8280   41.4680 H   0  0  0  0  0  0  0  0  0  0  0  0
   40.3590   23.7270   42.1380 H   0  0  0  0  0  0  0  0  0  0  0  0
   37.6880   22.8240   38.7250 H   0  0  0  0  0  0  0  0  0  0  0  0
   36.9150   21.3400   39.4510 H   0  0  0  0  0  0  0  0  0  0  0  0
   34.3070   29.3020   39.6890 O   0  0  0  0  0  0  0  0  0  0  0  0
   34.3760   28.7190   38.4030 C   0  0  0  0  0  0  0  0  0  0  0  0
   35.0170   27.5190   38.3880 F   0  0  0  0  0  0  0  0  0  0  0  0
   33.0470   28.6490   37.9500 F   0  0  0  0  0  0  0  0  0  0  0  0
   35.0990   29.6090   37.6010 F   0  0  0  0  0  0  0  0  0  0  0  0
  1 16  1  0  0  0  0
  2  1  1  0  0  0  0
  2  7  1  0  0  0  0
  3  2  2  0  0  0  0
  4  5  2  0  0  0  0
  4  3  1  0  0  0  0
  5  6  1  0  0  0  0
  6  1  2  0  0  0  0
  8  3  1  0  0  0  0
  8 15  1  0  0  0  0
  9  8  2  0  0  0  0
 10  9  1  0  0  0  0
 11  9  1  0  0  0  0
 11 13  2  0  0  0  0
 12 11  1  0  0  0  0
 13 14  1  0  0  0  0
 13 15  1  0  0  0  0
 17 26  1  0  0  0  0
 18 17  1  0  0  0  0
 18 16  1  0  0  0  0
 19 18  2  0  0  0  0
 20 21  2  0  0  0  0
 20 19  1  0  0  0  0
 21 22  1  0  0  0  0
 22 28  1  0  0  0  0
 22 17  2  0  0  0  0
 23 21  1  0  0  0  0
 24 25  1  0  0  0  0
 24 23  1  0  0  0  0
 25 20  1  0  0  0  0
 27 19  1  0  0  0  0
 29 24  1  0  0  0  0
 30 24  1  0  0  0  0
 31  5  1  0  0  0  0
 32 31  1  0  0  0  0
 33 32  1  0  0  0  0
 34 32  1  0  0  0  0
 35 32  1  0  0  0  0
M  END
>  <minimizedAffinity>
-5.98546743

$$$$

 OpenBabel03242515413D

 35 38  0  0  0  0  0  0  0  0999 V2000
   36.5690   28.7180   41.9980 C   0  0  0  0  0  0  0  0  0  0  0  0
   37.4110   29.8070   41.8660 C   0  0  0  0  0  0  0  0  0  0  0  0
   37.1350   30.7000   40.8200 C   0  0  0  0  0  0  0  0  0  0  0  0
   36.0900   30.4700   40.0070 N   0  0  0  0  0  0  0  0  0  0  0  0
   35.2910   29.3920   40.1710 C   0  0  0  0  0  0  0  0  0  0  0  0
   35.5590   28.5530   41.1630 N   0  0  0  0  0  0  0  0  0  0  0  0
   38.2570   30.0160   42.5040 H   0  0  0  0  0  0  0  0  0  0  0  0
   37.9840   31.8680   40.6250 C   0  0  0  0  0  0  0  0  0  0  0  0
   37.6050   33.0470   40.0190 C   0  0  0  0  0  0  0  0  0  0  0  0
   36.6250   33.2640   39.6060 H   0  0  0  0  0  0  0  0  0  0  0  0
   38.7030   33.9150   40.0300 C   0  0  0  0  0  0  0  0  0  0  0  0
   38.7190   34.8990   39.6340 H   0  0  0  0  0  0  0  0  0  0  0  0
   39.6880   33.1740   40.6580 C   0  0  0  0  0  0  0  0  0  0  0  0
   40.7000   33.5430   40.8420 H   0  0  0  0  0  0  0  0  0  0  0  0
   39.2360   31.9800   40.9950 O   0  0  0  0  0  0  0  0  0  0  0  0
   36.9690   27.6020   43.3580 S   0  0  0  0  0  0  0  0  0  0  0  0
   38.4820   25.6520   42.3110 C   0  0  0  0  0  0  0  0  0  0  0  0
   38.5410   26.8070   43.0810 C   0  0  0  0  0  0  0  0  0  0  0  0
   39.7380   27.2610   43.5680 C   0  0  0  0  0  0  0  0  0  0  0  0
   40.9330   26.6150   43.3300 C   0  0  0  0  0  0  0  0  0  0  0  0
   40.8670   25.4380   42.5450 C   0  0  0  0  0  0  0  0  0  0  0  0
   39.6770   24.9530   42.0390 C   0  0  0  0  0  0  0  0  0  0  0  0
   42.1930   24.9590   42.4380 O   0  0  0  0  0  0  0  0  0  0  0  0
   42.9400   25.6130   43.4290 C   0  0  0  0  0  0  0  0  0  0  0  0
   42.2630   26.8300   43.6790 O   0  0  0  0  0  0  0  0  0  0  0  0
   37.5920   25.2120   41.8820 H   0  0  0  0  0  0  0  0  0  0  0  0
   39.7250   28.1690   44.1630 H   0  0  0  0  0  0  0  0  0  0  0  0
   39.6580   24.0540   41.4440 H   0  0  0  0  0  0  0  0  0  0  0  0
   42.8330   25.0260   44.3720 H   0  0  0  0  0  0  0  0  0  0  0  0
   44.0060   25.7490   43.1770 H   0  0  0  0  0  0  0  0  0  0  0  0
   34.2050   29.0810   39.3880 O   0  0  0  0  0  0  0  0  0  0  0  0
   34.4380   28.6300   38.0680 C   0  0  0  0  0  0  0  0  0  0  0  0
   35.2040   29.4820   37.3340 F   0  0  0  0  0  0  0  0  0  0  0  0
   35.0000   27.3480   38.2030 F   0  0  0  0  0  0  0  0  0  0  0  0
   33.1850   28.5320   37.4540 F   0  0  0  0  0  0  0  0  0  0  0  0
  1 16  1  0  0  0  0
  2  1  1  0  0  0  0
  2  7  1  0  0  0  0
  3  2  2  0  0  0  0
  4  5  2  0  0  0  0
  4  3  1  0  0  0  0
  5  6  1  0  0  0  0
  6  1  2  0  0  0  0
  8  3  1  0  0  0  0
  8 15  1  0  0  0  0
  9 11  1  0  0  0  0
  9  8  2  0  0  0  0
 10  9  1  0  0  0  0
 11 13  2  0  0  0  0
 12 11  1  0  0  0  0
 13 14  1  0  0  0  0
 13 15  1  0  0  0  0
 17 18  1  0  0  0  0
 18 16  1  0  0  0  0
 18 19  2  0  0  0  0
 19 27  1  0  0  0  0
 20 19  1  0  0  0  0
 20 25  1  0  0  0  0
 21 20  2  0  0  0  0
 22 17  2  0  0  0  0
 22 21  1  0  0  0  0
 23 21  1  0  0  0  0
 23 24  1  0  0  0  0
 24 25  1  0  0  0  0
 24 29  1  0  0  0  0
 26 17  1  0  0  0  0
 28 22  1  0  0  0  0
 30 24  1  0  0  0  0
 31  5  1  0  0  0  0
 32 34  1  0  0  0  0
 32 31  1  0  0  0  0
 33 32  1  0  0  0  0
 35 32  1  0  0  0  0
M  END
>  <minimizedAffinity>
-5.8895669

$$$$

 OpenBabel03242515413D

 35 38  0  0  0  0  0  0  0  0999 V2000
   38.1370   29.5320   42.5530 C   0  0  0  0  0  0  0  0  0  0  0  0
   39.4190   29.9940   42.7910 C   0  0  0  0  0  0  0  0  0  0  0  0
   39.8780   31.0400   41.9770 C   0  0  0  0  0  0  0  0  0  0  0  0
   39.0760   31.5410   41.0220 N   0  0  0  0  0  0  0  0  0  0  0  0
   37.8290   31.0600   40.8220 C   0  0  0  0  0  0  0  0  0  0  0  0
   37.4020   30.0700   41.5970 N   0  0  0  0  0  0  0  0  0  0  0  0
   40.0830   29.6100   43.5500 H   0  0  0  0  0  0  0  0  0  0  0  0
   41.2190   31.5730   42.1750 C   0  0  0  0  0  0  0  0  0  0  0  0
   42.1270   31.1410   43.1180 C   0  0  0  0  0  0  0  0  0  0  0  0
   41.9660   30.3460   43.8400 H   0  0  0  0  0  0  0  0  0  0  0  0
   43.2920   31.9040   42.9830 C   0  0  0  0  0  0  0  0  0  0  0  0
   44.1700   31.8040   43.5710 H   0  0  0  0  0  0  0  0  0  0  0  0
   42.9910   32.7630   41.9410 C   0  0  0  0  0  0  0  0  0  0  0  0
   43.6830   33.5160   41.5560 H   0  0  0  0  0  0  0  0  0  0  0  0
   41.7700   32.5440   41.4890 O   0  0  0  0  0  0  0  0  0  0  0  0
   37.5970   28.1860   43.6270 S   0  0  0  0  0  0  0  0  0  0  0  0
   39.1470   26.0940   42.9850 C   0  0  0  0  0  0  0  0  0  0  0  0
   37.8640   26.6070   42.8420 C   0  0  0  0  0  0  0  0  0  0  0  0
   36.9100   25.9160   42.1420 C   0  0  0  0  0  0  0  0  0  0  0  0
   37.1580   24.6960   41.5500 C   0  0  0  0  0  0  0  0  0  0  0  0
   38.4670   24.1780   41.6980 C   0  0  0  0  0  0  0  0  0  0  0  0
   39.4530   24.8490   42.3970 C   0  0  0  0  0  0  0  0  0  0  0  0
   38.4830   22.9390   41.0180 O   0  0  0  0  0  0  0  0  0  0  0  0
   37.3490   22.9180   40.1920 C   0  0  0  0  0  0  0  0  0  0  0  0
   36.4150   23.7880   40.8010 O   0  0  0  0  0  0  0  0  0  0  0  0
   39.9670   26.5600   43.5140 H   0  0  0  0  0  0  0  0  0  0  0  0
   35.9240   26.3630   42.0630 H   0  0  0  0  0  0  0  0  0  0  0  0
   40.4410   24.4290   42.4930 H   0  0  0  0  0  0  0  0  0  0  0  0
   37.6230   23.4180   39.2320 H   0  0  0  0  0  0  0  0  0  0  0  0
   36.9470   21.9080   40.0010 H   0  0  0  0  0  0  0  0  0  0  0  0
   36.9450   31.5120   39.8710 O   0  0  0  0  0  0  0  0  0  0  0  0
   37.0770   31.0270   38.5500 C   0  0  0  0  0  0  0  0  0  0  0  0
   38.1640   30.2270   38.3740 F   0  0  0  0  0  0  0  0  0  0  0  0
   35.8590   30.3850   38.2620 F   0  0  0  0  0  0  0  0  0  0  0  0
   37.2230   32.1470   37.7260 F   0  0  0  0  0  0  0  0  0  0  0  0
  1  2  1  0  0  0  0
  1 16  1  0  0  0  0
  2  7  1  0  0  0  0
  3  8  1  0  0  0  0
  3  2  2  0  0  0  0
  4  3  1  0  0  0  0
  5  4  2  0  0  0  0
  5  6  1  0  0  0  0
  6  1  2  0  0  0  0
  8  9  2  0  0  0  0
  9 10  1  0  0  0  0
 11  9  1  0  0  0  0
 11 12  1  0  0  0  0
 13 11  2  0  0  0  0
 14 13  1  0  0  0  0
 15 13  1  0  0  0  0
 15  8  1  0  0  0  0
 17 26  1  0  0  0  0
 18 17  1  0  0  0  0
 18 16  1  0  0  0  0
 19 18  2  0  0  0  0
 20 21  2  0  0  0  0
 20 19  1  0  0  0  0
 21 22  1  0  0  0  0
 22 28  1  0  0  0  0
 22 17  2  0  0  0  0
 23 21  1  0  0  0  0
 24 25  1  0  0  0  0
 24 23  1  0  0  0  0
 25 20  1  0  0  0  0
 27 19  1  0  0  0  0
 29 24  1  0  0  0  0
 30 24  1  0  0  0  0
 31  5  1  0  0  0  0
 32 31  1  0  0  0  0
 33 32  1  0  0  0  0
 34 32  1  0  0  0  0
 35 32  1  0  0  0  0
M  END
>  <minimizedAffinity>
-5.7943716

$$$$

 OpenBabel03242515413D

 35 38  0  0  0  0  0  0  0  0999 V2000
   36.0050   28.9260   38.9080 C   0  0  0  0  0  0  0  0  0  0  0  0
   36.5650   30.1900   38.9340 C   0  0  0  0  0  0  0  0  0  0  0  0
   37.0360   30.6500   40.1730 C   0  0  0  0  0  0  0  0  0  0  0  0
   36.9280   29.8660   41.2590 N   0  0  0  0  0  0  0  0  0  0  0  0
   36.3730   28.6360   41.1900 C   0  0  0  0  0  0  0  0  0  0  0  0
   35.9300   28.2080   40.0140 N   0  0  0  0  0  0  0  0  0  0  0  0
   36.6640   30.8410   38.0790 H   0  0  0  0  0  0  0  0  0  0  0  0
   37.6370   31.9740   40.2700 C   0  0  0  0  0  0  0  0  0  0  0  0
   37.2650   33.0830   39.5410 C   0  0  0  0  0  0  0  0  0  0  0  0
   36.4760   33.1210   38.7970 H   0  0  0  0  0  0  0  0  0  0  0  0
   38.0830   34.1520   39.9280 C   0  0  0  0  0  0  0  0  0  0  0  0
   38.0360   35.1390   39.5410 H   0  0  0  0  0  0  0  0  0  0  0  0
   38.9080   33.5910   40.8850 C   0  0  0  0  0  0  0  0  0  0  0  0
   39.6880   34.1460   41.4140 H   0  0  0  0  0  0  0  0  0  0  0  0
   38.6220   32.3150   41.0640 O   0  0  0  0  0  0  0  0  0  0  0  0
   35.4150   28.3840   37.2910 S   0  0  0  0  0  0  0  0  0  0  0  0
   33.4860   29.2270   35.6310 C   0  0  0  0  0  0  0  0  0  0  0  0
   33.7780   29.0150   36.9720 C   0  0  0  0  0  0  0  0  0  0  0  0
   32.8480   29.2860   37.9410 C   0  0  0  0  0  0  0  0  0  0  0  0
   31.5910   29.7750   37.6510 C   0  0  0  0  0  0  0  0  0  0  0  0
   31.2990   29.9890   36.2830 C   0  0  0  0  0  0  0  0  0  0  0  0
   32.2140   29.7260   35.2810 C   0  0  0  0  0  0  0  0  0  0  0  0
   29.9750   30.4840   36.2330 O   0  0  0  0  0  0  0  0  0  0  0  0
   29.6500   30.8970   37.5330 C   0  0  0  0  0  0  0  0  0  0  0  0
   30.4710   30.1320   38.3960 O   0  0  0  0  0  0  0  0  0  0  0  0
   34.1480   29.0460   34.7950 H   0  0  0  0  0  0  0  0  0  0  0  0
   33.1300   29.1020   38.9730 H   0  0  0  0  0  0  0  0  0  0  0  0
   31.9620   29.8990   34.2470 H   0  0  0  0  0  0  0  0  0  0  0  0
   30.0100   31.9470   37.6520 H   0  0  0  0  0  0  0  0  0  0  0  0
   28.5750   30.8260   37.7760 H   0  0  0  0  0  0  0  0  0  0  0  0
   36.2230   27.7710   42.2470 O   0  0  0  0  0  0  0  0  0  0  0  0
   37.2330   26.8070   42.4740 C   0  0  0  0  0  0  0  0  0  0  0  0
   36.7520   25.5390   42.5920 F   0  0  0  0  0  0  0  0  0  0  0  0
   38.1440   26.9620   41.4140 F   0  0  0  0  0  0  0  0  0  0  0  0
   37.8510   27.1530   43.6800 F   0  0  0  0  0  0  0  0  0  0  0  0
  1  2  2  0  0  0  0
  1  6  1  0  0  0  0
  2  3  1  0  0  0  0
  3  8  1  0  0  0  0
  3  4  2  0  0  0  0
  5  4  1  0  0  0  0
  5 31  1  0  0  0  0
  6  5  2  0  0  0  0
  7  2  1  0  0  0  0
  8 15  1  0  0  0  0
  9 11  1  0  0  0  0
  9  8  2  0  0  0  0
 10  9  1  0  0  0  0
 11 13  2  0  0  0  0
 12 11  1  0  0  0  0
 13 15  1  0  0  0  0
 13 14  1  0  0  0  0
 16  1  1  0  0  0  0
 17 18  1  0  0  0  0
 18 16  1  0  0  0  0
 18 19  2  0  0  0  0
 19 27  1  0  0  0  0
 20 19  1  0  0  0  0
 20 25  1  0  0  0  0
 21 20  2  0  0  0  0
 22 17  2  0  0  0  0
 22 21  1  0  0  0  0
 23 21  1  0  0  0  0
 23 24  1  0  0  0  0
 24 29  1  0  0  0  0
 24 30  1  0  0  0  0
 24 25  1  0  0  0  0
 26 17  1  0  0  0  0
 28 22  1  0  0  0  0
 31 32  1  0  0  0  0
 32 33  1  0  0  0  0
 32 35  1  0  0  0  0
 34 32  1  0  0  0  0
M  END
>  <minimizedAffinity>
-5.7465806

$$$$

 OpenBabel03242515413D

 35 38  0  0  0  0  0  0  0  0999 V2000
   36.8080   29.0580   41.5840 C   0  0  0  0  0  0  0  0  0  0  0  0
   36.0610   28.6540   40.4920 C   0  0  0  0  0  0  0  0  0  0  0  0
   35.8930   29.5870   39.4590 C   0  0  0  0  0  0  0  0  0  0  0  0
   36.4510   30.8050   39.5640 N   0  0  0  0  0  0  0  0  0  0  0  0
   37.1740   31.1600   40.6490 C   0  0  0  0  0  0  0  0  0  0  0  0
   37.3280   30.2710   41.6230 N   0  0  0  0  0  0  0  0  0  0  0  0
   35.6020   27.6840   40.3820 H   0  0  0  0  0  0  0  0  0  0  0  0
   35.1170   29.2260   38.2800 C   0  0  0  0  0  0  0  0  0  0  0  0
   33.8000   28.8170   38.2770 C   0  0  0  0  0  0  0  0  0  0  0  0
   33.1650   28.7070   39.1500 H   0  0  0  0  0  0  0  0  0  0  0  0
   33.4250   28.5670   36.9510 C   0  0  0  0  0  0  0  0  0  0  0  0
   32.4690   28.2370   36.6300 H   0  0  0  0  0  0  0  0  0  0  0  0
   34.5740   28.8510   36.2360 C   0  0  0  0  0  0  0  0  0  0  0  0
   34.6500   28.7650   35.1490 H   0  0  0  0  0  0  0  0  0  0  0  0
   35.5470   29.2360   37.0420 O   0  0  0  0  0  0  0  0  0  0  0  0
   36.9920   27.8200   42.8850 S   0  0  0  0  0  0  0  0  0  0  0  0
   38.8290   25.9220   42.4260 C   0  0  0  0  0  0  0  0  0  0  0  0
   37.5000   26.2550   42.1990 C   0  0  0  0  0  0  0  0  0  0  0  0
   36.6800   25.4130   41.4950 C   0  0  0  0  0  0  0  0  0  0  0  0
   37.1140   24.2080   40.9810 C   0  0  0  0  0  0  0  0  0  0  0  0
   38.4690   23.8750   41.2150 C   0  0  0  0  0  0  0  0  0  0  0  0
   39.3220   24.7020   41.9200 C   0  0  0  0  0  0  0  0  0  0  0  0
   38.6790   22.6170   40.6030 O   0  0  0  0  0  0  0  0  0  0  0  0
   37.6010   22.4090   39.7300 C   0  0  0  0  0  0  0  0  0  0  0  0
   36.5320   23.1760   40.2490 O   0  0  0  0  0  0  0  0  0  0  0  0
   39.5540   26.5160   42.9660 H   0  0  0  0  0  0  0  0  0  0  0  0
   35.6500   25.7220   41.3480 H   0  0  0  0  0  0  0  0  0  0  0  0
   40.3510   24.4200   42.0830 H   0  0  0  0  0  0  0  0  0  0  0  0
   37.8570   22.8940   38.7580 H   0  0  0  0  0  0  0  0  0  0  0  0
   37.3430   21.3470   39.5750 H   0  0  0  0  0  0  0  0  0  0  0  0
   37.7770   32.3800   40.8400 O   0  0  0  0  0  0  0  0  0  0  0  0
   38.0870   33.1600   39.7010 C   0  0  0  0  0  0  0  0  0  0  0  0
   38.7010   32.4520   38.7140 F   0  0  0  0  0  0  0  0  0  0  0  0
   36.8700   33.7380   39.2990 F   0  0  0  0  0  0  0  0  0  0  0  0
   38.9640   34.1610   40.1300 F   0  0  0  0  0  0  0  0  0  0  0  0
  1  6  1  0  0  0  0
  1 16  1  0  0  0  0
  2  1  2  0  0  0  0
  3  4  2  0  0  0  0
  3  2  1  0  0  0  0
  4  5  1  0  0  0  0
  5 31  1  0  0  0  0
  5  6  2  0  0  0  0
  7  2  1  0  0  0  0
  8  3  1  0  0  0  0
  9  8  2  0  0  0  0
  9 10  1  0  0  0  0
 11  9  1  0  0  0  0
 12 11  1  0  0  0  0
 13 11  2  0  0  0  0
 13 15  1  0  0  0  0
 14 13  1  0  0  0  0
 15  8  1  0  0  0  0
 17 26  1  0  0  0  0
 18 17  1  0  0  0  0
 18 16  1  0  0  0  0
 19 18  2  0  0  0  0
 20 21  2  0  0  0  0
 20 19  1  0  0  0  0
 21 22  1  0  0  0  0
 22 28  1  0  0  0  0
 22 17  2  0  0  0  0
 23 21  1  0  0  0  0
 24 25  1  0  0  0  0
 24 23  1  0  0  0  0
 25 20  1  0  0  0  0
 27 19  1  0  0  0  0
 29 24  1  0  0  0  0
 30 24  1  0  0  0  0
 32 35  1  0  0  0  0
 32 31  1  0  0  0  0
 33 32  1  0  0  0  0
 34 32  1  0  0  0  0
M  END
>  <minimizedAffinity>
-5.67311335

$$$$

 OpenBabel03242515413D

 35 38  0  0  0  0  0  0  0  0999 V2000
   36.5880   28.8300   41.6890 C   0  0  0  0  0  0  0  0  0  0  0  0
   35.8160   28.4840   40.5960 C   0  0  0  0  0  0  0  0  0  0  0  0
   35.6880   29.4420   39.5800 C   0  0  0  0  0  0  0  0  0  0  0  0
   36.3060   30.6290   39.7030 N   0  0  0  0  0  0  0  0  0  0  0  0
   37.0530   30.9280   40.7890 C   0  0  0  0  0  0  0  0  0  0  0  0
   37.1680   30.0150   41.7460 N   0  0  0  0  0  0  0  0  0  0  0  0
   35.3090   27.5390   40.4710 H   0  0  0  0  0  0  0  0  0  0  0  0
   34.8880   29.1410   38.4000 C   0  0  0  0  0  0  0  0  0  0  0  0
   35.3460   29.1200   37.1000 C   0  0  0  0  0  0  0  0  0  0  0  0
   36.3620   29.3260   36.7790 H   0  0  0  0  0  0  0  0  0  0  0  0
   34.2720   28.7890   36.2660 C   0  0  0  0  0  0  0  0  0  0  0  0
   34.3140   28.6960   35.2090 H   0  0  0  0  0  0  0  0  0  0  0  0
   33.2190   28.6310   37.1480 C   0  0  0  0  0  0  0  0  0  0  0  0
   32.2050   28.3660   36.8420 H   0  0  0  0  0  0  0  0  0  0  0  0
   33.6120   28.8430   38.3910 O   0  0  0  0  0  0  0  0  0  0  0  0
   36.7180   27.5620   42.9670 S   0  0  0  0  0  0  0  0  0  0  0  0
   38.3190   25.4970   42.3680 C   0  0  0  0  0  0  0  0  0  0  0  0
   38.3170   26.7740   42.9130 C   0  0  0  0  0  0  0  0  0  0  0  0
   39.4790   27.3430   43.3620 C   0  0  0  0  0  0  0  0  0  0  0  0
   40.6960   26.6980   43.3020 C   0  0  0  0  0  0  0  0  0  0  0  0
   40.6930   25.3960   42.7460 C   0  0  0  0  0  0  0  0  0  0  0  0
   39.5380   24.7930   42.2840 C   0  0  0  0  0  0  0  0  0  0  0  0
   42.0320   24.9430   42.7890 O   0  0  0  0  0  0  0  0  0  0  0  0
   42.7150   25.7880   43.6750 C   0  0  0  0  0  0  0  0  0  0  0  0
   42.0030   27.0100   43.6660 O   0  0  0  0  0  0  0  0  0  0  0  0
   37.4590   24.9610   41.9870 H   0  0  0  0  0  0  0  0  0  0  0  0
   39.4200   28.3440   43.7780 H   0  0  0  0  0  0  0  0  0  0  0  0
   39.5670   23.8000   41.8650 H   0  0  0  0  0  0  0  0  0  0  0  0
   42.5720   25.3810   44.7050 H   0  0  0  0  0  0  0  0  0  0  0  0
   43.7900   25.9050   43.4510 H   0  0  0  0  0  0  0  0  0  0  0  0
   37.7160   32.1130   40.9970 O   0  0  0  0  0  0  0  0  0  0  0  0
   38.4230   32.6850   39.9130 C   0  0  0  0  0  0  0  0  0  0  0  0
   39.0840   31.7680   39.1560 F   0  0  0  0  0  0  0  0  0  0  0  0
   37.4680   33.4230   39.1900 F   0  0  0  0  0  0  0  0  0  0  0  0
   39.3670   33.5550   40.4680 F   0  0  0  0  0  0  0  0  0  0  0  0
  1  6  1  0  0  0  0
  1 16  1  0  0  0  0
  2  1  2  0  0  0  0
  3  4  2  0  0  0  0
  3  2  1  0  0  0  0
  4  5  1  0  0  0  0
  5 31  1  0  0  0  0
  5  6  2  0  0  0  0
  7  2  1  0  0  0  0
  8  3  1  0  0  0  0
  9  8  2  0  0  0  0
 10  9  1  0  0  0  0
 11  9  1  0  0  0  0
 11 13  2  0  0  0  0
 12 11  1  0  0  0  0
 13 15  1  0  0  0  0
 14 13  1  0  0  0  0
 15  8  1  0  0  0  0
 17 18  1  0  0  0  0
 18 16  1  0  0  0  0
 18 19  2  0  0  0  0
 19 27  1  0  0  0  0
 20 19  1  0  0  0  0
 20 25  1  0  0  0  0
 21 23  1  0  0  0  0
 21 20  2  0  0  0  0
 22 17  2  0  0  0  0
 22 21  1  0  0  0  0
 23 24  1  0  0  0  0
 24 29  1  0  0  0  0
 25 24  1  0  0  0  0
 26 17  1  0  0  0  0
 28 22  1  0  0  0  0
 30 24  1  0  0  0  0
 32 35  1  0  0  0  0
 32 31  1  0  0  0  0
 33 32  1  0  0  0  0
 34 32  1  0  0  0  0
M  END
>  <minimizedAffinity>
-5.67060184

$$$$

 OpenBabel03242515413D

 35 38  0  0  0  0  0  0  0  0999 V2000
   37.7540   31.5290   40.6740 C   0  0  0  0  0  0  0  0  0  0  0  0
   38.6030   30.7000   41.3850 C   0  0  0  0  0  0  0  0  0  0  0  0
   38.1360   29.4090   41.6720 C   0  0  0  0  0  0  0  0  0  0  0  0
   36.9140   29.0350   41.2560 N   0  0  0  0  0  0  0  0  0  0  0  0
   36.1150   29.8770   40.5630 C   0  0  0  0  0  0  0  0  0  0  0  0
   36.5650   31.0970   40.2960 N   0  0  0  0  0  0  0  0  0  0  0  0
   39.5880   30.9730   41.7310 H   0  0  0  0  0  0  0  0  0  0  0  0
   38.9800   28.4840   42.4170 C   0  0  0  0  0  0  0  0  0  0  0  0
   38.5460   27.3680   43.1000 C   0  0  0  0  0  0  0  0  0  0  0  0
   37.5180   27.0280   43.1760 H   0  0  0  0  0  0  0  0  0  0  0  0
   39.6600   26.7510   43.6800 C   0  0  0  0  0  0  0  0  0  0  0  0
   39.6430   25.8690   44.2690 H   0  0  0  0  0  0  0  0  0  0  0  0
   40.7110   27.5630   43.2920 C   0  0  0  0  0  0  0  0  0  0  0  0
   41.7520   27.3810   43.5690 H   0  0  0  0  0  0  0  0  0  0  0  0
   40.2810   28.5690   42.5530 O   0  0  0  0  0  0  0  0  0  0  0  0
   38.4040   33.1770   40.3330 S   0  0  0  0  0  0  0  0  0  0  0  0
   39.8300   32.2860   38.2450 C   0  0  0  0  0  0  0  0  0  0  0  0
   39.9100   33.0780   39.3830 C   0  0  0  0  0  0  0  0  0  0  0  0
   41.0780   33.7150   39.7110 C   0  0  0  0  0  0  0  0  0  0  0  0
   42.2220   33.6110   38.9470 C   0  0  0  0  0  0  0  0  0  0  0  0
   42.1350   32.8020   37.7890 C   0  0  0  0  0  0  0  0  0  0  0  0
   40.9730   32.1460   37.4300 C   0  0  0  0  0  0  0  0  0  0  0  0
   43.4100   32.8470   37.1770 O   0  0  0  0  0  0  0  0  0  0  0  0
   44.3000   33.3490   38.1380 C   0  0  0  0  0  0  0  0  0  0  0  0
   43.5140   34.1240   39.0230 O   0  0  0  0  0  0  0  0  0  0  0  0
   38.9590   31.7440   37.9020 H   0  0  0  0  0  0  0  0  0  0  0  0
   41.0830   34.3210   40.6100 H   0  0  0  0  0  0  0  0  0  0  0  0
   40.9370   31.5370   36.5410 H   0  0  0  0  0  0  0  0  0  0  0  0
   44.6540   32.4850   38.7510 H   0  0  0  0  0  0  0  0  0  0  0  0
   45.1580   33.9010   37.7160 H   0  0  0  0  0  0  0  0  0  0  0  0
   34.8550   29.5790   40.1020 O   0  0  0  0  0  0  0  0  0  0  0  0
   34.7370   28.9000   38.8670 C   0  0  0  0  0  0  0  0  0  0  0  0
   33.4480   28.6320   38.5200 F   0  0  0  0  0  0  0  0  0  0  0  0
   35.4110   29.7030   37.9300 F   0  0  0  0  0  0  0  0  0  0  0  0
   35.4110   27.6840   39.0150 F   0  0  0  0  0  0  0  0  0  0  0  0
  1  2  1  0  0  0  0
  2  3  2  0  0  0  0
  2  7  1  0  0  0  0
  3  8  1  0  0  0  0
  4  3  1  0  0  0  0
  5  4  2  0  0  0  0
  6  5  1  0  0  0  0
  6  1  2  0  0  0  0
  8 15  1  0  0  0  0
  8  9  2  0  0  0  0
  9 10  1  0  0  0  0
  9 11  1  0  0  0  0
 11 12  1  0  0  0  0
 13 14  1  0  0  0  0
 13 11  2  0  0  0  0
 15 13  1  0  0  0  0
 16  1  1  0  0  0  0
 17 18  1  0  0  0  0
 18 19  2  0  0  0  0
 18 16  1  0  0  0  0
 19 27  1  0  0  0  0
 20 25  1  0  0  0  0
 20 19  1  0  0  0  0
 21 20  2  0  0  0  0
 22 21  1  0  0  0  0
 22 17  2  0  0  0  0
 23 21  1  0  0  0  0
 23 24  1  0  0  0  0
 24 29  1  0  0  0  0
 24 25  1  0  0  0  0
 26 17  1  0  0  0  0
 28 22  1  0  0  0  0
 30 24  1  0  0  0  0
 31  5  1  0  0  0  0
 32 35  1  0  0  0  0
 32 31  1  0  0  0  0
 33 32  1  0  0  0  0
 34 32  1  0  0  0  0
M  END
>  <minimizedAffinity>
-5.6033473

$$$$

 OpenBabel03242515413D

 35 38  0  0  0  0  0  0  0  0999 V2000
   40.6810   30.8030   40.9340 C   0  0  0  0  0  0  0  0  0  0  0  0
   41.5960   30.5290   39.9340 C   0  0  0  0  0  0  0  0  0  0  0  0
   41.5040   31.2940   38.7620 C   0  0  0  0  0  0  0  0  0  0  0  0
   40.5560   32.2410   38.6580 N   0  0  0  0  0  0  0  0  0  0  0  0
   39.6810   32.4780   39.6600 C   0  0  0  0  0  0  0  0  0  0  0  0
   39.7750   31.7490   40.7660 N   0  0  0  0  0  0  0  0  0  0  0  0
   42.3660   29.7750   39.9910 H   0  0  0  0  0  0  0  0  0  0  0  0
   42.4370   31.0550   37.6690 C   0  0  0  0  0  0  0  0  0  0  0  0
   43.7130   31.5680   37.5730 C   0  0  0  0  0  0  0  0  0  0  0  0
   44.1940   32.2190   38.2970 H   0  0  0  0  0  0  0  0  0  0  0  0
   44.2800   31.1040   36.3800 C   0  0  0  0  0  0  0  0  0  0  0  0
   45.2560   31.3310   36.0290 H   0  0  0  0  0  0  0  0  0  0  0  0
   43.2770   30.3270   35.8320 C   0  0  0  0  0  0  0  0  0  0  0  0
   43.3710   29.7970   34.8810 H   0  0  0  0  0  0  0  0  0  0  0  0
   42.2110   30.3170   36.6110 O   0  0  0  0  0  0  0  0  0  0  0  0
   40.8420   29.7910   42.4190 S   0  0  0  0  0  0  0  0  0  0  0  0
   38.4510   28.8600   43.1950 C   0  0  0  0  0  0  0  0  0  0  0  0
   39.5830   28.5290   42.4620 C   0  0  0  0  0  0  0  0  0  0  0  0
   39.6790   27.3140   41.8370 C   0  0  0  0  0  0  0  0  0  0  0  0
   38.6800   26.3650   41.8960 C   0  0  0  0  0  0  0  0  0  0  0  0
   37.5290   26.7070   42.6450 C   0  0  0  0  0  0  0  0  0  0  0  0
   37.4000   27.9230   43.2870 C   0  0  0  0  0  0  0  0  0  0  0  0
   36.6570   25.5960   42.5620 O   0  0  0  0  0  0  0  0  0  0  0  0
   37.4250   24.5150   42.1060 C   0  0  0  0  0  0  0  0  0  0  0  0
   38.4980   25.0840   41.3810 O   0  0  0  0  0  0  0  0  0  0  0  0
   38.2790   29.7880   43.7240 H   0  0  0  0  0  0  0  0  0  0  0  0
   40.5860   27.1080   41.2760 H   0  0  0  0  0  0  0  0  0  0  0  0
   36.5110   28.1560   43.8510 H   0  0  0  0  0  0  0  0  0  0  0  0
   37.9010   24.0410   42.9970 H   0  0  0  0  0  0  0  0  0  0  0  0
   36.8550   23.7660   41.5280 H   0  0  0  0  0  0  0  0  0  0  0  0
   38.6830   33.4230   39.6380 O   0  0  0  0  0  0  0  0  0  0  0  0
   37.3660   33.0010   39.3420 C   0  0  0  0  0  0  0  0  0  0  0  0
   37.2800   32.2620   38.2030 F   0  0  0  0  0  0  0  0  0  0  0  0
   36.9260   32.3150   40.4880 F   0  0  0  0  0  0  0  0  0  0  0  0
   36.6050   34.1610   39.1680 F   0  0  0  0  0  0  0  0  0  0  0  0
  1 16  1  0  0  0  0
  2  7  1  0  0  0  0
  2  1  2  0  0  0  0
  3  2  1  0  0  0  0
  4  3  2  0  0  0  0
  4  5  1  0  0  0  0
  5  6  2  0  0  0  0
  6  1  1  0  0  0  0
  8  3  1  0  0  0  0
  9  8  2  0  0  0  0
  9 10  1  0  0  0  0
 11  9  1  0  0  0  0
 12 11  1  0  0  0  0
 13 11  2  0  0  0  0
 13 15  1  0  0  0  0
 14 13  1  0  0  0  0
 15  8  1  0  0  0  0
 16 18  1  0  0  0  0
 17 22  1  0  0  0  0
 17 26  1  0  0  0  0
 18 17  2  0  0  0  0
 19 20  2  0  0  0  0
 19 18  1  0  0  0  0
 20 21  1  0  0  0  0
 21 22  2  0  0  0  0
 22 28  1  0  0  0  0
 23 21  1  0  0  0  0
 24 23  1  0  0  0  0
 24 29  1  0  0  0  0
 25 20  1  0  0  0  0
 25 24  1  0  0  0  0
 27 19  1  0  0  0  0
 30 24  1  0  0  0  0
 31  5  1  0  0  0  0
 32 31  1  0  0  0  0
 32 34  1  0  0  0  0
 33 32  1  0  0  0  0
 35 32  1  0  0  0  0
M  END
>  <minimizedAffinity>
-5.5788846

$$$$

 OpenBabel03242515413D

 35 38  0  0  0  0  0  0  0  0999 V2000
   34.3050   29.0910   36.0070 C   0  0  0  0  0  0  0  0  0  0  0  0
   35.0310   29.2660   37.1700 C   0  0  0  0  0  0  0  0  0  0  0  0
   36.3610   29.6900   37.0300 C   0  0  0  0  0  0  0  0  0  0  0  0
   36.8660   29.9060   35.8040 N   0  0  0  0  0  0  0  0  0  0  0  0
   36.1210   29.7230   34.6910 C   0  0  0  0  0  0  0  0  0  0  0  0
   34.8640   29.3210   34.8320 N   0  0  0  0  0  0  0  0  0  0  0  0
   34.6520   29.1010   38.1670 H   0  0  0  0  0  0  0  0  0  0  0  0
   37.1830   29.8940   38.2160 C   0  0  0  0  0  0  0  0  0  0  0  0
   37.1980   31.0280   39.0010 C   0  0  0  0  0  0  0  0  0  0  0  0
   36.6020   31.9210   38.8410 H   0  0  0  0  0  0  0  0  0  0  0  0
   38.1150   30.8270   40.0380 C   0  0  0  0  0  0  0  0  0  0  0  0
   38.3470   31.5240   40.8040 H   0  0  0  0  0  0  0  0  0  0  0  0
   38.5980   29.5540   39.7950 C   0  0  0  0  0  0  0  0  0  0  0  0
   39.3470   29.0590   40.4180 H   0  0  0  0  0  0  0  0  0  0  0  0
   38.0320   29.0340   38.7220 O   0  0  0  0  0  0  0  0  0  0  0  0
   32.6020   28.5440   36.2430 S   0  0  0  0  0  0  0  0  0  0  0  0
   30.8060   30.3800   37.0150 C   0  0  0  0  0  0  0  0  0  0  0  0
   31.4600   29.8710   35.9010 C   0  0  0  0  0  0  0  0  0  0  0  0
   31.2140   30.3810   34.6530 C   0  0  0  0  0  0  0  0  0  0  0  0
   30.3220   31.4090   34.4310 C   0  0  0  0  0  0  0  0  0  0  0  0
   29.6580   31.9240   35.5700 C   0  0  0  0  0  0  0  0  0  0  0  0
   29.8830   31.4320   36.8420 C   0  0  0  0  0  0  0  0  0  0  0  0
   28.8070   32.9520   35.1030 O   0  0  0  0  0  0  0  0  0  0  0  0
   28.6990   32.7860   33.7140 C   0  0  0  0  0  0  0  0  0  0  0  0
   29.8780   32.1130   33.3150 O   0  0  0  0  0  0  0  0  0  0  0  0
   30.9290   30.0480   38.0370 H   0  0  0  0  0  0  0  0  0  0  0  0
   31.7540   29.9460   33.8180 H   0  0  0  0  0  0  0  0  0  0  0  0
   29.3620   31.8450   37.6910 H   0  0  0  0  0  0  0  0  0  0  0  0
   27.8750   32.0560   33.5260 H   0  0  0  0  0  0  0  0  0  0  0  0
   28.5200   33.7220   33.1580 H   0  0  0  0  0  0  0  0  0  0  0  0
   36.5550   29.9180   33.4020 O   0  0  0  0  0  0  0  0  0  0  0  0
   36.4700   31.2200   32.8550 C   0  0  0  0  0  0  0  0  0  0  0  0
   37.5480   31.9980   33.1440 F   0  0  0  0  0  0  0  0  0  0  0  0
   36.2670   31.0350   31.4760 F   0  0  0  0  0  0  0  0  0  0  0  0
   35.3380   31.8160   33.4210 F   0  0  0  0  0  0  0  0  0  0  0  0
  1 16  1  0  0  0  0
  1  2  1  0  0  0  0
  2  7  1  0  0  0  0
  3  2  2  0  0  0  0
  3  8  1  0  0  0  0
  4  3  1  0  0  0  0
  5  6  1  0  0  0  0
  5  4  2  0  0  0  0
  6  1  2  0  0  0  0
  8 15  1  0  0  0  0
  8  9  2  0  0  0  0
  9 11  1  0  0  0  0
 10  9  1  0  0  0  0
 11 12  1  0  0  0  0
 13 11  2  0  0  0  0
 13 14  1  0  0  0  0
 15 13  1  0  0  0  0
 17 26  1  0  0  0  0
 18 16  1  0  0  0  0
 18 17  2  0  0  0  0
 19 18  1  0  0  0  0
 20 19  2  0  0  0  0
 20 21  1  0  0  0  0
 21 22  2  0  0  0  0
 22 17  1  0  0  0  0
 22 28  1  0  0  0  0
 23 21  1  0  0  0  0
 24 23  1  0  0  0  0
 25 24  1  0  0  0  0
 25 20  1  0  0  0  0
 27 19  1  0  0  0  0
 29 24  1  0  0  0  0
 30 24  1  0  0  0  0
 31  5  1  0  0  0  0
 32 33  1  0  0  0  0
 32 31  1  0  0  0  0
 32 35  1  0  0  0  0
 34 32  1  0  0  0  0
M  END
>  <minimizedAffinity>
-5.55438614

$$$$
