
 OpenBabel03252504193D

 37 39  0  0  0  0  0  0  0  0999 V2000
   33.7040   28.9920   39.0710 F   0  0  0  0  0  0  0  0  0  0  0  0
   34.3460   29.1160   37.8700 C   0  0  0  0  0  0  0  0  0  0  0  0
   35.7060   29.3430   37.8450 C   0  0  0  0  0  0  0  0  0  0  0  0
   36.2900   29.4540   36.5880 C   0  0  0  0  0  0  0  0  0  0  0  0
   35.5320   29.3390   35.4400 C   0  0  0  0  0  0  0  0  0  0  0  0
   34.1670   29.1110   35.5350 C   0  0  0  0  0  0  0  0  0  0  0  0
   33.5350   28.9930   36.7730 C   0  0  0  0  0  0  0  0  0  0  0  0
   37.3510   29.6300   36.5050 H   0  0  0  0  0  0  0  0  0  0  0  0
   35.9570   29.4180   34.4460 H   0  0  0  0  0  0  0  0  0  0  0  0
   33.5370   29.0180   34.6530 H   0  0  0  0  0  0  0  0  0  0  0  0
   37.6520   28.3480   40.7810 C   0  0  0  0  0  0  0  0  0  0  0  0
   37.9620   29.5670   41.3880 C   0  0  0  0  0  0  0  0  0  0  0  0
   37.4910   30.7300   40.7710 C   0  0  0  0  0  0  0  0  0  0  0  0
   36.7660   30.6530   39.6330 N   0  0  0  0  0  0  0  0  0  0  0  0
   36.4880   29.4590   39.0780 C   0  0  0  0  0  0  0  0  0  0  0  0
   36.9250   28.3100   39.6430 N   0  0  0  0  0  0  0  0  0  0  0  0
   37.7430   31.6660   41.2570 H   0  0  0  0  0  0  0  0  0  0  0  0
   38.7490   29.5730   42.6190 C   0  0  0  0  0  0  0  0  0  0  0  0
   39.2170   30.8460   42.8920 F   0  0  0  0  0  0  0  0  0  0  0  0
   37.9040   29.2150   43.6780 F   0  0  0  0  0  0  0  0  0  0  0  0
   39.8140   28.7440   42.6290 F   0  0  0  0  0  0  0  0  0  0  0  0
   38.1000   27.2270   41.3630 O   0  0  0  0  0  0  0  0  0  0  0  0
   37.3430   26.2840   42.1000 C   0  0  0  0  0  0  0  0  0  0  0  0
   38.2400   25.5540   42.8610 F   0  0  0  0  0  0  0  0  0  0  0  0
   36.3950   26.9340   42.8460 F   0  0  0  0  0  0  0  0  0  0  0  0
   36.7790   25.3710   41.2400 F   0  0  0  0  0  0  0  0  0  0  0  0
   32.0660   28.7520   36.8680 C   0  0  0  0  0  0  0  0  0  0  0  0
   31.7640   28.1110   35.9970 H   0  0  0  0  0  0  0  0  0  0  0  0
   31.9050   28.1300   37.7720 H   0  0  0  0  0  0  0  0  0  0  0  0
   31.3020   30.0190   36.9180 C   0  0  0  0  0  0  0  0  0  0  0  0
   30.5610   30.3890   38.0430 C   0  0  0  0  0  0  0  0  0  0  0  0
   30.3620   29.9670   38.9980 H   0  0  0  0  0  0  0  0  0  0  0  0
   29.9790   31.6120   37.7590 C   0  0  0  0  0  0  0  0  0  0  0  0
   29.3220   32.2890   38.3140 H   0  0  0  0  0  0  0  0  0  0  0  0
   30.3880   31.9430   36.4660 C   0  0  0  0  0  0  0  0  0  0  0  0
   30.1590   32.8200   35.8570 H   0  0  0  0  0  0  0  0  0  0  0  0
   31.1550   30.9750   36.0360 O   0  0  0  0  0  0  0  0  0  0  0  0
  2  1  1  0  0  0  0
  3  2  1  0  0  0  0
  3 15  1  0  0  0  0
  4  3  2  0  0  0  0
  5  6  2  0  0  0  0
  5  4  1  0  0  0  0
  6  7  1  0  0  0  0
  7 27  1  0  0  0  0
  7  2  2  0  0  0  0
  8  4  1  0  0  0  0
  9  5  1  0  0  0  0
 10  6  1  0  0  0  0
 11 22  1  0  0  0  0
 11 12  1  0  0  0  0
 12 18  1  0  0  0  0
 13 17  1  0  0  0  0
 13 12  2  0  0  0  0
 14 13  1  0  0  0  0
 15 14  2  0  0  0  0
 15 16  1  0  0  0  0
 16 11  2  0  0  0  0
 18 21  1  0  0  0  0
 18 19  1  0  0  0  0
 18 20  1  0  0  0  0
 22 23  1  0  0  0  0
 23 25  1  0  0  0  0
 23 24  1  0  0  0  0
 26 23  1  0  0  0  0
 27 30  1  0  0  0  0
 27 29  1  0  0  0  0
 28 27  1  0  0  0  0
 30 31  2  0  0  0  0
 31 32  1  0  0  0  0
 33 31  1  0  0  0  0
 33 34  1  0  0  0  0
 35 33  2  0  0  0  0
 36 35  1  0  0  0  0
 37 35  1  0  0  0  0
 37 30  1  0  0  0  0
M  END
>  <minimizedAffinity>
-6.20729494

$$$$

 OpenBabel03252504193D

 37 39  0  0  0  0  0  0  0  0999 V2000
   33.7970   29.1030   39.0660 F   0  0  0  0  0  0  0  0  0  0  0  0
   34.3980   29.1830   37.8420 C   0  0  0  0  0  0  0  0  0  0  0  0
   35.7510   29.4400   37.7620 C   0  0  0  0  0  0  0  0  0  0  0  0
   36.2930   29.5040   36.4830 C   0  0  0  0  0  0  0  0  0  0  0  0
   35.5040   29.3160   35.3670 C   0  0  0  0  0  0  0  0  0  0  0  0
   34.1480   29.0600   35.5160 C   0  0  0  0  0  0  0  0  0  0  0  0
   33.5570   28.9870   36.7780 C   0  0  0  0  0  0  0  0  0  0  0  0
   37.3460   29.7010   36.3580 H   0  0  0  0  0  0  0  0  0  0  0  0
   35.8960   29.3550   34.3570 H   0  0  0  0  0  0  0  0  0  0  0  0
   33.4940   28.9080   34.6600 H   0  0  0  0  0  0  0  0  0  0  0  0
   37.6450   28.6410   40.7900 C   0  0  0  0  0  0  0  0  0  0  0  0
   38.0930   29.8910   41.2260 C   0  0  0  0  0  0  0  0  0  0  0  0
   37.7330   31.0050   40.4630 C   0  0  0  0  0  0  0  0  0  0  0  0
   36.9790   30.8550   39.3500 N   0  0  0  0  0  0  0  0  0  0  0  0
   36.5670   29.6350   38.9620 C   0  0  0  0  0  0  0  0  0  0  0  0
   36.8940   28.5310   39.6730 N   0  0  0  0  0  0  0  0  0  0  0  0
   38.0920   31.9650   40.8170 H   0  0  0  0  0  0  0  0  0  0  0  0
   38.9030   29.9750   42.4400 C   0  0  0  0  0  0  0  0  0  0  0  0
   39.9990   29.1350   42.3520 F   0  0  0  0  0  0  0  0  0  0  0  0
   39.4000   31.2810   42.5420 F   0  0  0  0  0  0  0  0  0  0  0  0
   38.2590   29.6760   43.5870 F   0  0  0  0  0  0  0  0  0  0  0  0
   37.9860   27.5670   41.5140 O   0  0  0  0  0  0  0  0  0  0  0  0
   37.1810   26.8760   42.4530 C   0  0  0  0  0  0  0  0  0  0  0  0
   36.1000   27.6930   42.7360 F   0  0  0  0  0  0  0  0  0  0  0  0
   36.8250   25.6540   41.9460 F   0  0  0  0  0  0  0  0  0  0  0  0
   37.8600   26.7580   43.6430 F   0  0  0  0  0  0  0  0  0  0  0  0
   32.0990   28.7160   36.9310 C   0  0  0  0  0  0  0  0  0  0  0  0
   31.7760   28.0690   36.0710 H   0  0  0  0  0  0  0  0  0  0  0  0
   31.9860   28.0910   37.8400 H   0  0  0  0  0  0  0  0  0  0  0  0
   31.3120   29.9680   37.0120 C   0  0  0  0  0  0  0  0  0  0  0  0
   30.5330   30.2760   38.1310 C   0  0  0  0  0  0  0  0  0  0  0  0
   30.3140   29.8100   39.0600 H   0  0  0  0  0  0  0  0  0  0  0  0
   29.9380   31.5010   37.8820 C   0  0  0  0  0  0  0  0  0  0  0  0
   29.2530   32.1420   38.4460 H   0  0  0  0  0  0  0  0  0  0  0  0
   30.3780   31.8940   36.6170 C   0  0  0  0  0  0  0  0  0  0  0  0
   30.1510   32.7930   36.0400 H   0  0  0  0  0  0  0  0  0  0  0  0
   31.1730   30.9580   36.1680 O   0  0  0  0  0  0  0  0  0  0  0  0
  2  1  1  0  0  0  0
  3  2  1  0  0  0  0
  3 15  1  0  0  0  0
  4  3  2  0  0  0  0
  5  6  2  0  0  0  0
  5  4  1  0  0  0  0
  6  7  1  0  0  0  0
  7 27  1  0  0  0  0
  7  2  2  0  0  0  0
  8  4  1  0  0  0  0
  9  5  1  0  0  0  0
 10  6  1  0  0  0  0
 11 12  1  0  0  0  0
 11 22  1  0  0  0  0
 12 18  1  0  0  0  0
 13 17  1  0  0  0  0
 13 12  2  0  0  0  0
 14 13  1  0  0  0  0
 15 14  2  0  0  0  0
 15 16  1  0  0  0  0
 16 11  2  0  0  0  0
 18 20  1  0  0  0  0
 18 21  1  0  0  0  0
 19 18  1  0  0  0  0
 22 23  1  0  0  0  0
 23 24  1  0  0  0  0
 23 26  1  0  0  0  0
 25 23  1  0  0  0  0
 27 30  1  0  0  0  0
 27 29  1  0  0  0  0
 28 27  1  0  0  0  0
 30 31  2  0  0  0  0
 31 32  1  0  0  0  0
 33 31  1  0  0  0  0
 33 34  1  0  0  0  0
 35 33  2  0  0  0  0
 36 35  1  0  0  0  0
 37 35  1  0  0  0  0
 37 30  1  0  0  0  0
M  END
>  <minimizedAffinity>
-6.18497419

$$$$

 OpenBabel03252504193D

 37 39  0  0  0  0  0  0  0  0999 V2000
   33.2560   28.9390   38.6350 F   0  0  0  0  0  0  0  0  0  0  0  0
   33.8620   29.0560   37.4160 C   0  0  0  0  0  0  0  0  0  0  0  0
   35.2360   29.1610   37.3450 C   0  0  0  0  0  0  0  0  0  0  0  0
   35.7810   29.2720   36.0710 C   0  0  0  0  0  0  0  0  0  0  0  0
   34.9750   29.2750   34.9510 C   0  0  0  0  0  0  0  0  0  0  0  0
   33.6000   29.1670   35.0910 C   0  0  0  0  0  0  0  0  0  0  0  0
   33.0040   29.0530   36.3470 C   0  0  0  0  0  0  0  0  0  0  0  0
   36.8500   29.3570   35.9530 H   0  0  0  0  0  0  0  0  0  0  0  0
   35.3700   29.3580   33.9440 H   0  0  0  0  0  0  0  0  0  0  0  0
   32.9320   29.1670   34.2320 H   0  0  0  0  0  0  0  0  0  0  0  0
   37.0780   30.4120   40.2500 C   0  0  0  0  0  0  0  0  0  0  0  0
   37.6160   29.2520   40.8120 C   0  0  0  0  0  0  0  0  0  0  0  0
   37.3340   28.0390   40.1760 C   0  0  0  0  0  0  0  0  0  0  0  0
   36.5690   28.0160   39.0610 N   0  0  0  0  0  0  0  0  0  0  0  0
   36.0680   29.1540   38.5490 C   0  0  0  0  0  0  0  0  0  0  0  0
   36.3180   30.3490   39.1350 N   0  0  0  0  0  0  0  0  0  0  0  0
   37.7590   27.1500   40.6280 H   0  0  0  0  0  0  0  0  0  0  0  0
   38.4350   29.3560   42.0170 C   0  0  0  0  0  0  0  0  0  0  0  0
   37.6490   29.6630   43.1140 F   0  0  0  0  0  0  0  0  0  0  0  0
   39.0060   28.1010   42.2650 F   0  0  0  0  0  0  0  0  0  0  0  0
   39.4270   30.2700   41.9660 F   0  0  0  0  0  0  0  0  0  0  0  0
   37.3410   31.5800   40.8520 O   0  0  0  0  0  0  0  0  0  0  0  0
   37.9720   32.7130   40.2840 C   0  0  0  0  0  0  0  0  0  0  0  0
   38.9500   32.2420   39.4250 F   0  0  0  0  0  0  0  0  0  0  0  0
   37.0360   33.5030   39.6680 F   0  0  0  0  0  0  0  0  0  0  0  0
   38.6550   33.3990   41.2610 F   0  0  0  0  0  0  0  0  0  0  0  0
   31.5240   28.9400   36.4910 C   0  0  0  0  0  0  0  0  0  0  0  0
   31.1170   28.5060   35.5390 H   0  0  0  0  0  0  0  0  0  0  0  0
   31.3390   28.1780   37.2750 H   0  0  0  0  0  0  0  0  0  0  0  0
   30.9020   30.2430   36.8200 C   0  0  0  0  0  0  0  0  0  0  0  0
   30.7420   31.2450   35.8600 C   0  0  0  0  0  0  0  0  0  0  0  0
   30.9680   31.3560   34.8280 H   0  0  0  0  0  0  0  0  0  0  0  0
   30.1350   32.3170   36.4930 C   0  0  0  0  0  0  0  0  0  0  0  0
   29.8150   33.3110   36.1670 H   0  0  0  0  0  0  0  0  0  0  0  0
   29.9480   31.9250   37.8200 C   0  0  0  0  0  0  0  0  0  0  0  0
   29.5050   32.4660   38.6590 H   0  0  0  0  0  0  0  0  0  0  0  0
   30.4150   30.7100   37.9420 O   0  0  0  0  0  0  0  0  0  0  0  0
  2  1  1  0  0  0  0
  3  2  1  0  0  0  0
  3 15  1  0  0  0  0
  4  3  2  0  0  0  0
  5  6  2  0  0  0  0
  5  4  1  0  0  0  0
  6  7  1  0  0  0  0
  7 27  1  0  0  0  0
  7  2  2  0  0  0  0
  8  4  1  0  0  0  0
  9  5  1  0  0  0  0
 10  6  1  0  0  0  0
 11 12  1  0  0  0  0
 11 22  1  0  0  0  0
 12 18  1  0  0  0  0
 13 17  1  0  0  0  0
 13 12  2  0  0  0  0
 14 13  1  0  0  0  0
 15 14  2  0  0  0  0
 15 16  1  0  0  0  0
 16 11  2  0  0  0  0
 18 20  1  0  0  0  0
 18 19  1  0  0  0  0
 21 18  1  0  0  0  0
 23 22  1  0  0  0  0
 23 26  1  0  0  0  0
 24 23  1  0  0  0  0
 25 23  1  0  0  0  0
 27 30  1  0  0  0  0
 27 29  1  0  0  0  0
 28 27  1  0  0  0  0
 30 37  1  0  0  0  0
 31 33  1  0  0  0  0
 31 30  2  0  0  0  0
 32 31  1  0  0  0  0
 33 35  2  0  0  0  0
 34 33  1  0  0  0  0
 35 37  1  0  0  0  0
 35 36  1  0  0  0  0
M  END
>  <minimizedAffinity>
-6.03778744

$$$$

 OpenBabel03252504193D

 37 39  0  0  0  0  0  0  0  0999 V2000
   33.1490   28.6370   38.4090 F   0  0  0  0  0  0  0  0  0  0  0  0
   34.0530   28.8910   37.4150 C   0  0  0  0  0  0  0  0  0  0  0  0
   35.3950   28.9780   37.7210 C   0  0  0  0  0  0  0  0  0  0  0  0
   36.2540   29.2350   36.6580 C   0  0  0  0  0  0  0  0  0  0  0  0
   35.7710   29.3900   35.3750 C   0  0  0  0  0  0  0  0  0  0  0  0
   34.4080   29.2910   35.1350 C   0  0  0  0  0  0  0  0  0  0  0  0
   33.5050   29.0350   36.1670 C   0  0  0  0  0  0  0  0  0  0  0  0
   37.3150   29.3120   36.8360 H   0  0  0  0  0  0  0  0  0  0  0  0
   36.4140   29.5880   34.5250 H   0  0  0  0  0  0  0  0  0  0  0  0
   33.9890   29.4100   34.1380 H   0  0  0  0  0  0  0  0  0  0  0  0
   36.6380   27.3240   40.7400 C   0  0  0  0  0  0  0  0  0  0  0  0
   36.8050   28.3810   41.6380 C   0  0  0  0  0  0  0  0  0  0  0  0
   36.4840   29.6640   41.1870 C   0  0  0  0  0  0  0  0  0  0  0  0
   36.0300   29.8510   39.9270 N   0  0  0  0  0  0  0  0  0  0  0  0
   35.8820   28.8080   39.0910 C   0  0  0  0  0  0  0  0  0  0  0  0
   36.1820   27.5490   39.4880 N   0  0  0  0  0  0  0  0  0  0  0  0
   36.6220   30.4710   41.8980 H   0  0  0  0  0  0  0  0  0  0  0  0
   37.2980   28.1020   42.9850 C   0  0  0  0  0  0  0  0  0  0  0  0
   37.5080   29.2800   43.6800 F   0  0  0  0  0  0  0  0  0  0  0  0
   36.3050   27.3950   43.6750 F   0  0  0  0  0  0  0  0  0  0  0  0
   38.4440   27.3910   43.0460 F   0  0  0  0  0  0  0  0  0  0  0  0
   36.9430   26.0890   41.1620 O   0  0  0  0  0  0  0  0  0  0  0  0
   37.9490   25.2340   40.6490 C   0  0  0  0  0  0  0  0  0  0  0  0
   38.3680   24.4310   41.6960 F   0  0  0  0  0  0  0  0  0  0  0  0
   37.4560   24.5280   39.5830 F   0  0  0  0  0  0  0  0  0  0  0  0
   39.0540   25.9750   40.3040 F   0  0  0  0  0  0  0  0  0  0  0  0
   32.0410   28.9330   35.9030 C   0  0  0  0  0  0  0  0  0  0  0  0
   31.9050   28.5490   34.8570 H   0  0  0  0  0  0  0  0  0  0  0  0
   31.6530   28.1380   36.5720 H   0  0  0  0  0  0  0  0  0  0  0  0
   31.3520   30.2270   36.1140 C   0  0  0  0  0  0  0  0  0  0  0  0
   31.2730   31.1920   35.1070 C   0  0  0  0  0  0  0  0  0  0  0  0
   31.6090   31.2760   34.1030 H   0  0  0  0  0  0  0  0  0  0  0  0
   30.5720   32.2650   35.6310 C   0  0  0  0  0  0  0  0  0  0  0  0
   30.2630   33.2380   35.2360 H   0  0  0  0  0  0  0  0  0  0  0  0
   30.2490   31.9120   36.9420 C   0  0  0  0  0  0  0  0  0  0  0  0
   29.7020   32.4660   37.7070 H   0  0  0  0  0  0  0  0  0  0  0  0
   30.7320   30.7160   37.1580 O   0  0  0  0  0  0  0  0  0  0  0  0
  2  3  1  0  0  0  0
  2  1  1  0  0  0  0
  3 15  1  0  0  0  0
  4  8  1  0  0  0  0
  4  3  2  0  0  0  0
  5  4  1  0  0  0  0
  6  5  2  0  0  0  0
  6  7  1  0  0  0  0
  7  2  2  0  0  0  0
  9  5  1  0  0  0  0
 10  6  1  0  0  0  0
 11 22  1  0  0  0  0
 11 12  1  0  0  0  0
 12 18  1  0  0  0  0
 13 12  2  0  0  0  0
 13 17  1  0  0  0  0
 14 13  1  0  0  0  0
 15 16  1  0  0  0  0
 15 14  2  0  0  0  0
 16 11  2  0  0  0  0
 18 21  1  0  0  0  0
 18 20  1  0  0  0  0
 18 19  1  0  0  0  0
 23 22  1  0  0  0  0
 23 24  1  0  0  0  0
 25 23  1  0  0  0  0
 26 23  1  0  0  0  0
 27 30  1  0  0  0  0
 27  7  1  0  0  0  0
 27 29  1  0  0  0  0
 28 27  1  0  0  0  0
 30 37  1  0  0  0  0
 31 33  1  0  0  0  0
 31 30  2  0  0  0  0
 32 31  1  0  0  0  0
 33 35  2  0  0  0  0
 34 33  1  0  0  0  0
 35 37  1  0  0  0  0
 35 36  1  0  0  0  0
M  END
>  <minimizedAffinity>
-5.96815109

$$$$

 OpenBabel03252504193D

 37 39  0  0  0  0  0  0  0  0999 V2000
   37.8000   27.6080   40.5620 F   0  0  0  0  0  0  0  0  0  0  0  0
   38.6930   27.5040   41.5920 C   0  0  0  0  0  0  0  0  0  0  0  0
   39.8020   28.3240   41.6180 C   0  0  0  0  0  0  0  0  0  0  0  0
   40.6630   28.1620   42.6980 C   0  0  0  0  0  0  0  0  0  0  0  0
   40.4040   27.2280   43.6800 C   0  0  0  0  0  0  0  0  0  0  0  0
   39.2700   26.4340   43.5940 C   0  0  0  0  0  0  0  0  0  0  0  0
   38.3760   26.5570   42.5300 C   0  0  0  0  0  0  0  0  0  0  0  0
   41.5460   28.7770   42.7730 H   0  0  0  0  0  0  0  0  0  0  0  0
   41.0530   27.0800   44.5350 H   0  0  0  0  0  0  0  0  0  0  0  0
   39.0340   25.6850   44.3470 H   0  0  0  0  0  0  0  0  0  0  0  0
   39.4600   31.3660   39.6120 C   0  0  0  0  0  0  0  0  0  0  0  0
   40.4430   31.2150   38.6320 C   0  0  0  0  0  0  0  0  0  0  0  0
   41.2200   30.0540   38.6740 C   0  0  0  0  0  0  0  0  0  0  0  0
   41.0100   29.1270   39.6360 N   0  0  0  0  0  0  0  0  0  0  0  0
   40.0530   29.3080   40.5640 C   0  0  0  0  0  0  0  0  0  0  0  0
   39.2790   30.4180   40.5580 N   0  0  0  0  0  0  0  0  0  0  0  0
   41.9790   29.9560   37.9050 H   0  0  0  0  0  0  0  0  0  0  0  0
   40.6120   32.2590   37.6230 C   0  0  0  0  0  0  0  0  0  0  0  0
   41.6660   31.9550   36.7800 F   0  0  0  0  0  0  0  0  0  0  0  0
   39.4560   32.2900   36.8310 F   0  0  0  0  0  0  0  0  0  0  0  0
   40.8280   33.5000   38.1050 F   0  0  0  0  0  0  0  0  0  0  0  0
   38.7100   32.4760   39.5820 O   0  0  0  0  0  0  0  0  0  0  0  0
   37.3070   32.5570   39.4070 C   0  0  0  0  0  0  0  0  0  0  0  0
   36.9980   33.8960   39.2420 F   0  0  0  0  0  0  0  0  0  0  0  0
   36.9260   31.7730   38.3490 F   0  0  0  0  0  0  0  0  0  0  0  0
   36.6750   32.1860   40.5710 F   0  0  0  0  0  0  0  0  0  0  0  0
   37.1600   25.6970   42.4420 C   0  0  0  0  0  0  0  0  0  0  0  0
   36.8750   25.3950   43.4850 H   0  0  0  0  0  0  0  0  0  0  0  0
   36.3380   26.3470   42.0780 H   0  0  0  0  0  0  0  0  0  0  0  0
   37.3780   24.5250   41.5630 C   0  0  0  0  0  0  0  0  0  0  0  0
   36.4030   24.0910   40.6600 C   0  0  0  0  0  0  0  0  0  0  0  0
   35.4230   24.4000   40.3880 H   0  0  0  0  0  0  0  0  0  0  0  0
   36.9230   22.9880   40.0050 C   0  0  0  0  0  0  0  0  0  0  0  0
   36.5450   22.3170   39.2290 H   0  0  0  0  0  0  0  0  0  0  0  0
   38.1990   22.7910   40.5350 C   0  0  0  0  0  0  0  0  0  0  0  0
   38.9500   22.0340   40.3000 H   0  0  0  0  0  0  0  0  0  0  0  0
   38.4000   23.7180   41.4340 O   0  0  0  0  0  0  0  0  0  0  0  0
  1  2  1  0  0  0  0
  2  3  2  0  0  0  0
  2  7  1  0  0  0  0
  3  4  1  0  0  0  0
  4  8  1  0  0  0  0
  4  5  2  0  0  0  0
  5  9  1  0  0  0  0
  6  5  1  0  0  0  0
  6 10  1  0  0  0  0
  7  6  2  0  0  0  0
 11 16  1  0  0  0  0
 12 13  1  0  0  0  0
 12 11  2  0  0  0  0
 13 14  2  0  0  0  0
 14 15  1  0  0  0  0
 15  3  1  0  0  0  0
 16 15  2  0  0  0  0
 17 13  1  0  0  0  0
 18 21  1  0  0  0  0
 18 12  1  0  0  0  0
 19 18  1  0  0  0  0
 20 18  1  0  0  0  0
 22 11  1  0  0  0  0
 23 22  1  0  0  0  0
 23 26  1  0  0  0  0
 24 23  1  0  0  0  0
 25 23  1  0  0  0  0
 27  7  1  0  0  0  0
 27 28  1  0  0  0  0
 29 27  1  0  0  0  0
 30 27  1  0  0  0  0
 31 30  2  0  0  0  0
 32 31  1  0  0  0  0
 33 35  2  0  0  0  0
 33 31  1  0  0  0  0
 34 33  1  0  0  0  0
 35 37  1  0  0  0  0
 36 35  1  0  0  0  0
 37 30  1  0  0  0  0
M  END
>  <minimizedAffinity>
-5.86800146

$$$$

 OpenBabel03252504193D

 37 39  0  0  0  0  0  0  0  0999 V2000
   33.5100   27.8000   37.4400 F   0  0  0  0  0  0  0  0  0  0  0  0
   34.4770   28.4400   36.7160 C   0  0  0  0  0  0  0  0  0  0  0  0
   35.7590   28.5230   37.2170 C   0  0  0  0  0  0  0  0  0  0  0  0
   36.6890   29.1860   36.4240 C   0  0  0  0  0  0  0  0  0  0  0  0
   36.3290   29.7230   35.2050 C   0  0  0  0  0  0  0  0  0  0  0  0
   35.0210   29.6050   34.7580 C   0  0  0  0  0  0  0  0  0  0  0  0
   34.0510   28.9500   35.5180 C   0  0  0  0  0  0  0  0  0  0  0  0
   37.7090   29.2820   36.7630 H   0  0  0  0  0  0  0  0  0  0  0  0
   37.0310   30.2420   34.5620 H   0  0  0  0  0  0  0  0  0  0  0  0
   34.6990   30.0160   33.8040 H   0  0  0  0  0  0  0  0  0  0  0  0
   36.7150   28.3360   40.7450 C   0  0  0  0  0  0  0  0  0  0  0  0
   36.7910   26.9610   40.9830 C   0  0  0  0  0  0  0  0  0  0  0  0
   36.5100   26.1070   39.9130 C   0  0  0  0  0  0  0  0  0  0  0  0
   36.1790   26.6140   38.7040 N   0  0  0  0  0  0  0  0  0  0  0  0
   36.1160   27.9440   38.5130 C   0  0  0  0  0  0  0  0  0  0  0  0
   36.3810   28.8050   39.5230 N   0  0  0  0  0  0  0  0  0  0  0  0
   36.5730   25.0440   40.1190 H   0  0  0  0  0  0  0  0  0  0  0  0
   37.1570   26.4870   42.3170 C   0  0  0  0  0  0  0  0  0  0  0  0
   36.3020   27.0110   43.2700 F   0  0  0  0  0  0  0  0  0  0  0  0
   36.9920   25.0960   42.3440 F   0  0  0  0  0  0  0  0  0  0  0  0
   38.4170   26.7720   42.7070 F   0  0  0  0  0  0  0  0  0  0  0  0
   36.9810   29.1640   41.7640 O   0  0  0  0  0  0  0  0  0  0  0  0
   38.1660   29.9120   41.9720 C   0  0  0  0  0  0  0  0  0  0  0  0
   37.9280   31.1870   41.4880 F   0  0  0  0  0  0  0  0  0  0  0  0
   38.5010   29.8860   43.3010 F   0  0  0  0  0  0  0  0  0  0  0  0
   39.1730   29.4120   41.1810 F   0  0  0  0  0  0  0  0  0  0  0  0
   32.6460   28.8290   35.0340 C   0  0  0  0  0  0  0  0  0  0  0  0
   32.6730   28.3980   33.9970 H   0  0  0  0  0  0  0  0  0  0  0  0
   32.1560   28.0620   35.6690 H   0  0  0  0  0  0  0  0  0  0  0  0
   31.9350   30.1270   35.0780 C   0  0  0  0  0  0  0  0  0  0  0  0
   31.2460   30.5510   36.2170 C   0  0  0  0  0  0  0  0  0  0  0  0
   31.0600   30.1580   37.1870 H   0  0  0  0  0  0  0  0  0  0  0  0
   30.7040   31.7910   35.9230 C   0  0  0  0  0  0  0  0  0  0  0  0
   30.0930   32.5060   36.4820 H   0  0  0  0  0  0  0  0  0  0  0  0
   31.0850   32.0770   34.6110 C   0  0  0  0  0  0  0  0  0  0  0  0
   30.8730   32.9490   33.9900 H   0  0  0  0  0  0  0  0  0  0  0  0
   31.7980   31.0690   34.1790 O   0  0  0  0  0  0  0  0  0  0  0  0
  2  3  1  0  0  0  0
  2  1  1  0  0  0  0
  3 15  1  0  0  0  0
  4  8  1  0  0  0  0
  4  3  2  0  0  0  0
  5  4  1  0  0  0  0
  6  5  2  0  0  0  0
  6  7  1  0  0  0  0
  7  2  2  0  0  0  0
  9  5  1  0  0  0  0
 10  6  1  0  0  0  0
 11 12  1  0  0  0  0
 11 22  1  0  0  0  0
 12 18  1  0  0  0  0
 13 17  1  0  0  0  0
 13 12  2  0  0  0  0
 14 13  1  0  0  0  0
 15 14  2  0  0  0  0
 15 16  1  0  0  0  0
 16 11  2  0  0  0  0
 18 20  1  0  0  0  0
 18 21  1  0  0  0  0
 18 19  1  0  0  0  0
 22 23  1  0  0  0  0
 23 25  1  0  0  0  0
 24 23  1  0  0  0  0
 26 23  1  0  0  0  0
 27 30  1  0  0  0  0
 27  7  1  0  0  0  0
 27 29  1  0  0  0  0
 28 27  1  0  0  0  0
 30 31  2  0  0  0  0
 31 32  1  0  0  0  0
 33 31  1  0  0  0  0
 33 34  1  0  0  0  0
 35 33  2  0  0  0  0
 36 35  1  0  0  0  0
 37 35  1  0  0  0  0
 37 30  1  0  0  0  0
M  END
>  <minimizedAffinity>
-5.76839685

$$$$

 OpenBabel03252504193D

 37 39  0  0  0  0  0  0  0  0999 V2000
   36.6020   27.0890   41.0520 F   0  0  0  0  0  0  0  0  0  0  0  0
   37.6890   27.0140   41.8770 C   0  0  0  0  0  0  0  0  0  0  0  0
   38.4890   28.1230   42.0550 C   0  0  0  0  0  0  0  0  0  0  0  0
   39.5730   27.9710   42.9120 C   0  0  0  0  0  0  0  0  0  0  0  0
   39.8180   26.7680   43.5420 C   0  0  0  0  0  0  0  0  0  0  0  0
   38.9740   25.6900   43.3210 C   0  0  0  0  0  0  0  0  0  0  0  0
   37.8740   25.7910   42.4690 C   0  0  0  0  0  0  0  0  0  0  0  0
   40.2330   28.8050   43.0910 H   0  0  0  0  0  0  0  0  0  0  0  0
   40.6520   26.6190   44.2180 H   0  0  0  0  0  0  0  0  0  0  0  0
   39.1360   24.7250   43.7970 H   0  0  0  0  0  0  0  0  0  0  0  0
   38.9710   31.0440   39.9020 C   0  0  0  0  0  0  0  0  0  0  0  0
   37.7760   31.7530   40.0520 C   0  0  0  0  0  0  0  0  0  0  0  0
   36.8090   31.2090   40.9030 C   0  0  0  0  0  0  0  0  0  0  0  0
   37.0430   30.0430   41.5450 N   0  0  0  0  0  0  0  0  0  0  0  0
   38.2060   29.3890   41.3750 C   0  0  0  0  0  0  0  0  0  0  0  0
   39.1690   29.8810   40.5600 N   0  0  0  0  0  0  0  0  0  0  0  0
   35.8890   31.7740   41.0050 H   0  0  0  0  0  0  0  0  0  0  0  0
   37.5950   33.0080   39.3270 C   0  0  0  0  0  0  0  0  0  0  0  0
   38.7370   33.7850   39.4080 F   0  0  0  0  0  0  0  0  0  0  0  0
   37.4060   32.7050   37.9720 F   0  0  0  0  0  0  0  0  0  0  0  0
   36.5610   33.7710   39.7390 F   0  0  0  0  0  0  0  0  0  0  0  0
   39.9040   31.5550   39.0880 O   0  0  0  0  0  0  0  0  0  0  0  0
   40.3180   31.0450   37.8330 C   0  0  0  0  0  0  0  0  0  0  0  0
   40.4750   32.1310   36.9890 F   0  0  0  0  0  0  0  0  0  0  0  0
   41.4610   30.3040   37.9890 F   0  0  0  0  0  0  0  0  0  0  0  0
   39.3010   30.3060   37.2770 F   0  0  0  0  0  0  0  0  0  0  0  0
   36.9730   24.6270   42.2320 C   0  0  0  0  0  0  0  0  0  0  0  0
   36.9500   24.0110   43.1720 H   0  0  0  0  0  0  0  0  0  0  0  0
   35.9490   25.0370   42.1130 H   0  0  0  0  0  0  0  0  0  0  0  0
   37.3970   23.8330   41.0570 C   0  0  0  0  0  0  0  0  0  0  0  0
   36.6170   23.7580   39.8990 C   0  0  0  0  0  0  0  0  0  0  0  0
   35.6870   24.1580   39.5790 H   0  0  0  0  0  0  0  0  0  0  0  0
   37.2970   22.9450   39.0080 C   0  0  0  0  0  0  0  0  0  0  0  0
   37.0930   22.5930   37.9920 H   0  0  0  0  0  0  0  0  0  0  0  0
   38.4680   22.5540   39.6580 C   0  0  0  0  0  0  0  0  0  0  0  0
   39.2840   21.9140   39.3160 H   0  0  0  0  0  0  0  0  0  0  0  0
   38.4640   23.1050   40.8440 O   0  0  0  0  0  0  0  0  0  0  0  0
  1  2  1  0  0  0  0
  2  3  2  0  0  0  0
  2  7  1  0  0  0  0
  3  4  1  0  0  0  0
  4  8  1  0  0  0  0
  4  5  2  0  0  0  0
  5  9  1  0  0  0  0
  6  5  1  0  0  0  0
  6 10  1  0  0  0  0
  7  6  2  0  0  0  0
 11 12  2  0  0  0  0
 11 16  1  0  0  0  0
 12 13  1  0  0  0  0
 13 17  1  0  0  0  0
 13 14  2  0  0  0  0
 15 14  1  0  0  0  0
 15  3  1  0  0  0  0
 16 15  2  0  0  0  0
 18 19  1  0  0  0  0
 18 21  1  0  0  0  0
 18 12  1  0  0  0  0
 20 18  1  0  0  0  0
 22 11  1  0  0  0  0
 23 25  1  0  0  0  0
 23 22  1  0  0  0  0
 24 23  1  0  0  0  0
 26 23  1  0  0  0  0
 27  7  1  0  0  0  0
 27 28  1  0  0  0  0
 29 27  1  0  0  0  0
 30 27  1  0  0  0  0
 31 30  2  0  0  0  0
 32 31  1  0  0  0  0
 33 35  2  0  0  0  0
 33 31  1  0  0  0  0
 34 33  1  0  0  0  0
 35 37  1  0  0  0  0
 36 35  1  0  0  0  0
 37 30  1  0  0  0  0
M  END
>  <minimizedAffinity>
-5.73610497

$$$$

 OpenBabel03252504193D

 37 39  0  0  0  0  0  0  0  0999 V2000
   33.3190   28.9780   38.9530 F   0  0  0  0  0  0  0  0  0  0  0  0
   34.0050   29.0870   37.7760 C   0  0  0  0  0  0  0  0  0  0  0  0
   35.3780   29.2130   37.7960 C   0  0  0  0  0  0  0  0  0  0  0  0
   36.0070   29.3150   36.5600 C   0  0  0  0  0  0  0  0  0  0  0  0
   35.2790   29.2890   35.3880 C   0  0  0  0  0  0  0  0  0  0  0  0
   33.8990   29.1610   35.4370 C   0  0  0  0  0  0  0  0  0  0  0  0
   33.2210   29.0550   36.6520 C   0  0  0  0  0  0  0  0  0  0  0  0
   37.0800   29.4140   36.5140 H   0  0  0  0  0  0  0  0  0  0  0  0
   35.7390   29.3630   34.4100 H   0  0  0  0  0  0  0  0  0  0  0  0
   33.2910   29.1380   34.5350 H   0  0  0  0  0  0  0  0  0  0  0  0
   37.9940   30.0470   40.2170 C   0  0  0  0  0  0  0  0  0  0  0  0
   37.6030   29.3500   41.3630 C   0  0  0  0  0  0  0  0  0  0  0  0
   36.4300   28.5930   41.2870 C   0  0  0  0  0  0  0  0  0  0  0  0
   35.7190   28.5520   40.1370 N   0  0  0  0  0  0  0  0  0  0  0  0
   36.1270   29.2360   39.0540 C   0  0  0  0  0  0  0  0  0  0  0  0
   37.2570   29.9810   39.0870 N   0  0  0  0  0  0  0  0  0  0  0  0
   36.1430   28.0610   42.1870 H   0  0  0  0  0  0  0  0  0  0  0  0
   38.4240   29.4420   42.5690 C   0  0  0  0  0  0  0  0  0  0  0  0
   37.7040   29.0360   43.6790 F   0  0  0  0  0  0  0  0  0  0  0  0
   39.4970   28.5510   42.4330 F   0  0  0  0  0  0  0  0  0  0  0  0
   38.9220   30.6670   42.8390 F   0  0  0  0  0  0  0  0  0  0  0  0
   39.1150   30.7770   40.2790 O   0  0  0  0  0  0  0  0  0  0  0  0
   40.3810   30.4510   39.7340 C   0  0  0  0  0  0  0  0  0  0  0  0
   41.3340   31.0340   40.5500 F   0  0  0  0  0  0  0  0  0  0  0  0
   40.5050   29.0890   39.6360 F   0  0  0  0  0  0  0  0  0  0  0  0
   40.5310   31.0670   38.5140 F   0  0  0  0  0  0  0  0  0  0  0  0
   31.7360   28.9210   36.6970 C   0  0  0  0  0  0  0  0  0  0  0  0
   31.4080   28.3990   35.7590 H   0  0  0  0  0  0  0  0  0  0  0  0
   31.5060   28.2230   37.5280 H   0  0  0  0  0  0  0  0  0  0  0  0
   31.0700   30.2320   36.8680 C   0  0  0  0  0  0  0  0  0  0  0  0
   30.3600   30.5510   38.0290 C   0  0  0  0  0  0  0  0  0  0  0  0
   30.1300   30.0590   38.9420 H   0  0  0  0  0  0  0  0  0  0  0  0
   29.8710   31.8360   37.8620 C   0  0  0  0  0  0  0  0  0  0  0  0
   29.2670   32.5060   38.4810 H   0  0  0  0  0  0  0  0  0  0  0  0
   30.3040   32.2520   36.6020 C   0  0  0  0  0  0  0  0  0  0  0  0
   30.1410   33.1960   36.0770 H   0  0  0  0  0  0  0  0  0  0  0  0
   30.9950   31.2730   36.0790 O   0  0  0  0  0  0  0  0  0  0  0  0
  2  3  1  0  0  0  0
  2  1  1  0  0  0  0
  3 15  1  0  0  0  0
  4  3  2  0  0  0  0
  5  6  2  0  0  0  0
  5  4  1  0  0  0  0
  6  7  1  0  0  0  0
  7 27  1  0  0  0  0
  7  2  2  0  0  0  0
  8  4  1  0  0  0  0
  9  5  1  0  0  0  0
 10  6  1  0  0  0  0
 11 22  1  0  0  0  0
 11 12  1  0  0  0  0
 12 18  1  0  0  0  0
 13 12  2  0  0  0  0
 13 17  1  0  0  0  0
 14 13  1  0  0  0  0
 15 16  1  0  0  0  0
 15 14  2  0  0  0  0
 16 11  2  0  0  0  0
 18 21  1  0  0  0  0
 18 19  1  0  0  0  0
 20 18  1  0  0  0  0
 23 22  1  0  0  0  0
 23 24  1  0  0  0  0
 25 23  1  0  0  0  0
 26 23  1  0  0  0  0
 27 30  1  0  0  0  0
 27 29  1  0  0  0  0
 28 27  1  0  0  0  0
 30 31  2  0  0  0  0
 31 32  1  0  0  0  0
 33 31  1  0  0  0  0
 33 34  1  0  0  0  0
 35 33  2  0  0  0  0
 36 35  1  0  0  0  0
 37 35  1  0  0  0  0
 37 30  1  0  0  0  0
M  END
>  <minimizedAffinity>
-5.67718506

$$$$

 OpenBabel03252504193D

 37 39  0  0  0  0  0  0  0  0999 V2000
   40.1100   29.8500   40.6840 F   0  0  0  0  0  0  0  0  0  0  0  0
   39.0790   30.7210   40.4680 C   0  0  0  0  0  0  0  0  0  0  0  0
   37.7950   30.2370   40.3300 C   0  0  0  0  0  0  0  0  0  0  0  0
   36.7990   31.1830   40.1170 C   0  0  0  0  0  0  0  0  0  0  0  0
   37.0980   32.5290   40.0500 C   0  0  0  0  0  0  0  0  0  0  0  0
   38.4120   32.9500   40.1970 C   0  0  0  0  0  0  0  0  0  0  0  0
   39.4470   32.0400   40.4120 C   0  0  0  0  0  0  0  0  0  0  0  0
   35.7750   30.8640   40.0030 H   0  0  0  0  0  0  0  0  0  0  0  0
   36.3450   33.2910   39.8880 H   0  0  0  0  0  0  0  0  0  0  0  0
   38.6870   34.0020   40.1480 H   0  0  0  0  0  0  0  0  0  0  0  0
   37.7490   26.8080   41.6080 C   0  0  0  0  0  0  0  0  0  0  0  0
   37.0110   26.1170   40.6440 C   0  0  0  0  0  0  0  0  0  0  0  0
   36.5330   26.8500   39.5540 C   0  0  0  0  0  0  0  0  0  0  0  0
   36.7890   28.1740   39.4570 N   0  0  0  0  0  0  0  0  0  0  0  0
   37.5030   28.8050   40.4060 C   0  0  0  0  0  0  0  0  0  0  0  0
   37.9840   28.1320   41.4780 N   0  0  0  0  0  0  0  0  0  0  0  0
   35.9620   26.2960   38.8170 H   0  0  0  0  0  0  0  0  0  0  0  0
   36.7770   24.6840   40.8150 C   0  0  0  0  0  0  0  0  0  0  0  0
   35.8430   24.2320   39.9000 F   0  0  0  0  0  0  0  0  0  0  0  0
   37.9740   24.0110   40.5400 F   0  0  0  0  0  0  0  0  0  0  0  0
   36.3530   24.3100   42.0400 F   0  0  0  0  0  0  0  0  0  0  0  0
   38.2110   26.1160   42.6580 O   0  0  0  0  0  0  0  0  0  0  0  0
   39.5550   25.7580   42.9250 C   0  0  0  0  0  0  0  0  0  0  0  0
   40.1030   26.7810   43.6800 F   0  0  0  0  0  0  0  0  0  0  0  0
   39.5940   24.5380   43.5470 F   0  0  0  0  0  0  0  0  0  0  0  0
   40.2730   25.7560   41.7520 F   0  0  0  0  0  0  0  0  0  0  0  0
   40.8580   32.5000   40.5650 C   0  0  0  0  0  0  0  0  0  0  0  0
   40.8760   33.3030   41.3490 H   0  0  0  0  0  0  0  0  0  0  0  0
   41.4250   31.6470   40.9910 H   0  0  0  0  0  0  0  0  0  0  0  0
   41.4280   32.9640   39.2790 C   0  0  0  0  0  0  0  0  0  0  0  0
   41.6900   32.0810   38.2290 C   0  0  0  0  0  0  0  0  0  0  0  0
   41.5850   31.0360   38.0660 H   0  0  0  0  0  0  0  0  0  0  0  0
   42.2110   32.8330   37.1900 C   0  0  0  0  0  0  0  0  0  0  0  0
   42.5640   32.5960   36.1820 H   0  0  0  0  0  0  0  0  0  0  0  0
   42.2470   34.1510   37.6480 C   0  0  0  0  0  0  0  0  0  0  0  0
   42.5860   35.0610   37.1500 H   0  0  0  0  0  0  0  0  0  0  0  0
   41.7780   34.1560   38.8690 O   0  0  0  0  0  0  0  0  0  0  0  0
  2  1  1  0  0  0  0
  3 15  1  0  0  0  0
  3  2  2  0  0  0  0
  4  3  1  0  0  0  0
  5  4  2  0  0  0  0
  5  6  1  0  0  0  0
  6  7  2  0  0  0  0
  7  2  1  0  0  0  0
  7 27  1  0  0  0  0
  8  4  1  0  0  0  0
  9  5  1  0  0  0  0
 10  6  1  0  0  0  0
 11 22  1  0  0  0  0
 12 18  1  0  0  0  0
 12 11  2  0  0  0  0
 13 12  1  0  0  0  0
 14 13  2  0  0  0  0
 14 15  1  0  0  0  0
 15 16  2  0  0  0  0
 16 11  1  0  0  0  0
 17 13  1  0  0  0  0
 18 21  1  0  0  0  0
 19 18  1  0  0  0  0
 20 18  1  0  0  0  0
 22 23  1  0  0  0  0
 23 25  1  0  0  0  0
 23 24  1  0  0  0  0
 26 23  1  0  0  0  0
 27 29  1  0  0  0  0
 27 28  1  0  0  0  0
 30 27  1  0  0  0  0
 31 30  2  0  0  0  0
 32 31  1  0  0  0  0
 33 35  2  0  0  0  0
 33 31  1  0  0  0  0
 34 33  1  0  0  0  0
 35 37  1  0  0  0  0
 36 35  1  0  0  0  0
 37 30  1  0  0  0  0
M  END
>  <minimizedAffinity>
-5.64961147

$$$$
