
 OpenBabel03252505403D

 27 29  0  0  1  0  0  0  0  0999 V2000
   44.9260   34.0480   43.3790 C   0  0  1  0  0  0  0  0  0  0  0  0
   45.2930   35.4750   43.8100 C   0  0  0  0  0  0  0  0  0  0  0  0
   45.7880   34.8730   42.5370 C   0  0  1  0  0  0  0  0  0  0  0  0
   43.8640   33.8920   43.0870 H   0  0  0  0  0  0  0  0  0  0  0  0
   45.9370   35.5610   44.6970 H   0  0  0  0  0  0  0  0  0  0  0  0
   44.4370   36.1780   43.7950 H   0  0  0  0  0  0  0  0  0  0  0  0
   45.3050   35.3100   41.6120 H   0  0  0  0  0  0  0  0  0  0  0  0
   45.4240   32.9770   44.2650 C   0  0  0  0  0  0  0  0  0  0  0  0
   45.6320   31.7100   43.6630 C   0  0  0  0  0  0  0  0  0  0  0  0
   46.1170   30.6900   44.4640 C   0  0  0  0  0  0  0  0  0  0  0  0
   46.3650   30.9680   45.7830 N   0  0  0  0  0  0  0  0  0  0  0  0
   46.1520   32.1840   46.3100 C   0  0  0  0  0  0  0  0  0  0  0  0
   45.6810   33.1830   45.5430 N   0  0  0  0  0  0  0  0  0  0  0  0
   45.4430   31.4420   42.6310 H   0  0  0  0  0  0  0  0  0  0  0  0
   46.2930   29.7100   44.0590 H   0  0  0  0  0  0  0  0  0  0  0  0
   46.4870   32.2730   47.7670 C   0  0  0  0  0  0  0  0  0  0  0  0
   45.5140   32.9290   48.4760 F   0  0  0  0  0  0  0  0  0  0  0  0
   47.6990   32.9460   47.9370 F   0  0  0  0  0  0  0  0  0  0  0  0
   46.6960   30.9860   48.2570 F   0  0  0  0  0  0  0  0  0  0  0  0
   47.2750   34.7940   42.5160 C   0  0  0  0  0  0  0  0  0  0  0  0
   47.9750   35.4190   41.5040 C   0  0  0  0  0  0  0  0  0  0  0  0
   47.6430   36.0130   40.6380 H   0  0  0  0  0  0  0  0  0  0  0  0
   49.3290   35.1990   41.7100 C   0  0  0  0  0  0  0  0  0  0  0  0
   50.2040   35.5150   41.1510 H   0  0  0  0  0  0  0  0  0  0  0  0
   49.3780   34.4430   42.8470 C   0  0  0  0  0  0  0  0  0  0  0  0
   50.2870   34.0820   43.3090 H   0  0  0  0  0  0  0  0  0  0  0  0
   48.1780   34.2330   43.2780 O   0  0  0  0  0  0  0  0  0  0  0  0
  1  4  1  6  0  0  0
  1  2  1  0  0  0  0
  1  8  1  0  0  0  0
  2  5  1  0  0  0  0
  3  7  1  6  0  0  0
  3  1  1  0  0  0  0
  3  2  1  0  0  0  0
  6  2  1  0  0  0  0
  8 13  1  0  0  0  0
  9  8  2  0  0  0  0
  9 10  1  0  0  0  0
 10 11  2  0  0  0  0
 11 12  1  0  0  0  0
 12 16  1  0  0  0  0
 13 12  2  0  0  0  0
 14  9  1  0  0  0  0
 15 10  1  0  0  0  0
 16 18  1  0  0  0  0
 16 19  1  0  0  0  0
 16 17  1  0  0  0  0
 20  3  1  0  0  0  0
 20 27  1  0  0  0  0
 21 23  1  0  0  0  0
 21 20  2  0  0  0  0
 22 21  1  0  0  0  0
 23 25  2  0  0  0  0
 24 23  1  0  0  0  0
 25 27  1  0  0  0  0
 25 26  1  0  0  0  0
M  END
>  <minimizedAffinity>
-4.91781807

>  <minimizedRMSD>
1.71746206

$$$$
