
 OpenBabel03242519303D

 42 45  0  0  0  0  0  0  0  0999 V2000
   37.9020   28.4960   42.2980 C   0  0  0  0  0  0  0  0  0  0  0  0
   36.6750   27.9440   41.8670 C   0  0  0  0  0  0  0  0  0  0  0  0
   35.8250   28.7090   41.0570 C   0  0  0  0  0  0  0  0  0  0  0  0
   36.2570   29.9720   40.7320 N   0  0  0  0  0  0  0  0  0  0  0  0
   37.4600   30.4610   41.1780 C   0  0  0  0  0  0  0  0  0  0  0  0
   38.2610   29.7380   41.9440 N   0  0  0  0  0  0  0  0  0  0  0  0
   36.2770   26.9830   42.0750 H   0  0  0  0  0  0  0  0  0  0  0  0
   34.8740   28.3510   40.6910 H   0  0  0  0  0  0  0  0  0  0  0  0
   38.7120   27.6070   43.1490 C   0  0  0  0  0  0  0  0  0  0  0  0
   40.1000   27.9990   43.3050 C   0  0  0  0  0  0  0  0  0  0  0  0
   41.0800   27.1000   42.6610 C   0  0  0  0  0  0  0  0  0  0  0  0
   40.9080   25.6570   43.1440 C   0  0  0  0  0  0  0  0  0  0  0  0
   39.4920   25.2320   43.2890 C   0  0  0  0  0  0  0  0  0  0  0  0
   38.5460   26.1830   42.5550 C   0  0  0  0  0  0  0  0  0  0  0  0
   38.1850   27.5090   44.1430 H   0  0  0  0  0  0  0  0  0  0  0  0
   40.3760   28.0570   44.3900 H   0  0  0  0  0  0  0  0  0  0  0  0
   40.3010   29.0340   42.9180 H   0  0  0  0  0  0  0  0  0  0  0  0
   42.1210   27.3980   42.9560 H   0  0  0  0  0  0  0  0  0  0  0  0
   41.0820   27.0440   41.5730 H   0  0  0  0  0  0  0  0  0  0  0  0
   41.4220   24.9820   42.4200 H   0  0  0  0  0  0  0  0  0  0  0  0
   41.4320   25.6030   44.1390 H   0  0  0  0  0  0  0  0  0  0  0  0
   39.2800   24.2270   42.8930 H   0  0  0  0  0  0  0  0  0  0  0  0
   39.1750   25.2450   44.3610 H   0  0  0  0  0  0  0  0  0  0  0  0
   38.8960   26.2450   41.5150 H   0  0  0  0  0  0  0  0  0  0  0  0
   37.5180   25.8410   42.7010 H   0  0  0  0  0  0  0  0  0  0  0  0
   37.7560   31.8200   40.7430 C   0  0  0  0  0  0  0  0  0  0  0  0
   36.9500   32.3800   39.8160 N   0  0  0  0  0  0  0  0  0  0  0  0
   37.3730   33.6320   39.5380 C   0  0  0  0  0  0  0  0  0  0  0  0
   38.4630   33.8470   40.3080 N   0  0  0  0  0  0  0  0  0  0  0  0
   38.7060   32.7470   41.0490 N   0  0  0  0  0  0  0  0  0  0  0  0
   36.9390   34.3370   38.8400 H   0  0  0  0  0  0  0  0  0  0  0  0
   39.2970   35.0470   40.3830 C   0  0  0  0  0  0  0  0  0  0  0  0
   39.1040   35.5200   41.3670 H   0  0  0  0  0  0  0  0  0  0  0  0
   38.9810   35.7670   39.6070 H   0  0  0  0  0  0  0  0  0  0  0  0
   40.7340   34.7070   40.2090 C   0  0  0  0  0  0  0  0  0  0  0  0
   41.2240   34.2830   38.9960 C   0  0  0  0  0  0  0  0  0  0  0  0
   40.6790   34.1450   38.0620 H   0  0  0  0  0  0  0  0  0  0  0  0
   42.5920   34.0430   39.1420 C   0  0  0  0  0  0  0  0  0  0  0  0
   43.2250   33.6980   38.3330 H   0  0  0  0  0  0  0  0  0  0  0  0
   42.8380   34.3490   40.4740 C   0  0  0  0  0  0  0  0  0  0  0  0
   43.8290   34.2600   40.8990 H   0  0  0  0  0  0  0  0  0  0  0  0
   41.7210   34.7320   41.0550 O   0  0  0  0  0  0  0  0  0  0  0  0
  1  9  1  0  0  0  0
  2  7  1  0  0  0  0
  2  1  2  0  0  0  0
  3  2  1  0  0  0  0
  4  3  2  0  0  0  0
  4  5  1  0  0  0  0
  5  6  2  0  0  0  0
  6  1  1  0  0  0  0
  8  3  1  0  0  0  0
  9 10  1  0  0  0  0
  9 15  1  0  0  0  0
 10 16  1  0  0  0  0
 11 18  1  0  0  0  0
 11 12  1  0  0  0  0
 11 10  1  0  0  0  0
 12 13  1  0  0  0  0
 12 21  1  0  0  0  0
 13 23  1  0  0  0  0
 14 25  1  0  0  0  0
 14  9  1  0  0  0  0
 14 13  1  0  0  0  0
 17 10  1  0  0  0  0
 19 11  1  0  0  0  0
 20 12  1  0  0  0  0
 22 13  1  0  0  0  0
 24 14  1  0  0  0  0
 26 30  2  0  0  0  0
 26  5  1  0  0  0  0
 27 26  1  0  0  0  0
 28 27  2  0  0  0  0
 28 29  1  0  0  0  0
 29 32  1  0  0  0  0
 29 30  1  0  0  0  0
 31 28  1  0  0  0  0
 32 33  1  0  0  0  0
 34 32  1  0  0  0  0
 35 32  1  0  0  0  0
 35 42  1  0  0  0  0
 36 38  1  0  0  0  0
 36 35  2  0  0  0  0
 37 36  1  0  0  0  0
 38 40  2  0  0  0  0
 39 38  1  0  0  0  0
 40 41  1  0  0  0  0
 40 42  1  0  0  0  0
M  END
>  <minimizedAffinity>
-5.9570179

$$$$

 OpenBabel03242519303D

 42 45  0  0  0  0  0  0  0  0999 V2000
   36.7860   28.2100   41.7190 C   0  0  0  0  0  0  0  0  0  0  0  0
   37.2170   29.4930   42.1260 C   0  0  0  0  0  0  0  0  0  0  0  0
   36.8230   30.6160   41.3860 C   0  0  0  0  0  0  0  0  0  0  0  0
   36.0280   30.3820   40.2900 N   0  0  0  0  0  0  0  0  0  0  0  0
   35.6380   29.1140   39.9370 C   0  0  0  0  0  0  0  0  0  0  0  0
   36.0110   28.0550   40.6370 N   0  0  0  0  0  0  0  0  0  0  0  0
   37.8260   29.7500   42.9550 H   0  0  0  0  0  0  0  0  0  0  0  0
   37.1140   31.6250   41.6390 H   0  0  0  0  0  0  0  0  0  0  0  0
   37.2640   27.1030   42.5660 C   0  0  0  0  0  0  0  0  0  0  0  0
   38.1430   27.4960   43.6530 C   0  0  0  0  0  0  0  0  0  0  0  0
   39.5450   27.0500   43.5150 C   0  0  0  0  0  0  0  0  0  0  0  0
   39.6290   25.5340   43.3220 C   0  0  0  0  0  0  0  0  0  0  0  0
   38.5810   24.9790   42.4280 C   0  0  0  0  0  0  0  0  0  0  0  0
   37.9140   26.0780   41.6010 C   0  0  0  0  0  0  0  0  0  0  0  0
   36.3600   26.5380   42.9360 H   0  0  0  0  0  0  0  0  0  0  0  0
   37.7680   27.0910   44.6300 H   0  0  0  0  0  0  0  0  0  0  0  0
   38.1640   28.6070   43.8090 H   0  0  0  0  0  0  0  0  0  0  0  0
   40.1080   27.2700   44.4610 H   0  0  0  0  0  0  0  0  0  0  0  0
   40.1380   27.4790   42.7080 H   0  0  0  0  0  0  0  0  0  0  0  0
   40.6340   25.2880   42.9080 H   0  0  0  0  0  0  0  0  0  0  0  0
   39.5330   25.0890   44.3530 H   0  0  0  0  0  0  0  0  0  0  0  0
   38.9530   24.2360   41.7050 H   0  0  0  0  0  0  0  0  0  0  0  0
   37.7640   24.4930   43.0170 H   0  0  0  0  0  0  0  0  0  0  0  0
   38.7160   26.6180   41.0780 H   0  0  0  0  0  0  0  0  0  0  0  0
   37.1430   25.6260   40.9710 H   0  0  0  0  0  0  0  0  0  0  0  0
   34.8020   29.0510   38.7450 C   0  0  0  0  0  0  0  0  0  0  0  0
   35.4110   29.0380   37.5410 N   0  0  0  0  0  0  0  0  0  0  0  0
   34.4860   28.9760   36.5600 C   0  0  0  0  0  0  0  0  0  0  0  0
   33.2800   28.9520   37.1730 N   0  0  0  0  0  0  0  0  0  0  0  0
   33.4620   28.9960   38.5080 N   0  0  0  0  0  0  0  0  0  0  0  0
   34.6550   28.9510   35.4910 H   0  0  0  0  0  0  0  0  0  0  0  0
   31.9530   28.8890   36.5600 C   0  0  0  0  0  0  0  0  0  0  0  0
   31.4650   27.9640   36.9280 H   0  0  0  0  0  0  0  0  0  0  0  0
   32.0560   28.7900   35.4640 H   0  0  0  0  0  0  0  0  0  0  0  0
   31.1570   30.1000   36.8910 C   0  0  0  0  0  0  0  0  0  0  0  0
   31.0090   31.1240   35.9850 C   0  0  0  0  0  0  0  0  0  0  0  0
   31.4180   31.1960   34.9770 H   0  0  0  0  0  0  0  0  0  0  0  0
   30.2170   32.1130   36.5750 C   0  0  0  0  0  0  0  0  0  0  0  0
   29.9450   33.0340   36.0750 H   0  0  0  0  0  0  0  0  0  0  0  0
   29.9350   31.5970   37.8330 C   0  0  0  0  0  0  0  0  0  0  0  0
   29.3270   32.1430   38.5430 H   0  0  0  0  0  0  0  0  0  0  0  0
   30.5060   30.4200   37.9690 O   0  0  0  0  0  0  0  0  0  0  0  0
  1  2  1  0  0  0  0
  1  9  1  0  0  0  0
  2  7  1  0  0  0  0
  3  8  1  0  0  0  0
  3  2  2  0  0  0  0
  4  3  1  0  0  0  0
  5  4  2  0  0  0  0
  5  6  1  0  0  0  0
  6  1  2  0  0  0  0
  9 15  1  0  0  0  0
  9 10  1  0  0  0  0
 10 17  1  0  0  0  0
 10 16  1  0  0  0  0
 11 10  1  0  0  0  0
 11 18  1  0  0  0  0
 12 11  1  0  0  0  0
 12 21  1  0  0  0  0
 13 23  1  0  0  0  0
 13 12  1  0  0  0  0
 14 13  1  0  0  0  0
 14  9  1  0  0  0  0
 19 11  1  0  0  0  0
 20 12  1  0  0  0  0
 22 13  1  0  0  0  0
 24 14  1  0  0  0  0
 25 14  1  0  0  0  0
 26  5  1  0  0  0  0
 27 26  1  0  0  0  0
 28 29  1  0  0  0  0
 28 27  2  0  0  0  0
 29 30  1  0  0  0  0
 30 26  2  0  0  0  0
 31 28  1  0  0  0  0
 32 35  1  0  0  0  0
 32 33  1  0  0  0  0
 32 29  1  0  0  0  0
 34 32  1  0  0  0  0
 35 42  1  0  0  0  0
 36 38  1  0  0  0  0
 36 35  2  0  0  0  0
 37 36  1  0  0  0  0
 38 40  2  0  0  0  0
 39 38  1  0  0  0  0
 40 42  1  0  0  0  0
 40 41  1  0  0  0  0
M  END
>  <minimizedAffinity>
-5.93263912

$$$$

 OpenBabel03242519303D

 42 45  0  0  0  0  0  0  0  0999 V2000
   36.9880   26.5810   42.0230 C   0  0  0  0  0  0  0  0  0  0  0  0
   37.2910   26.8210   43.3830 C   0  0  0  0  0  0  0  0  0  0  0  0
   37.5210   28.1340   43.8140 C   0  0  0  0  0  0  0  0  0  0  0  0
   37.4320   29.1190   42.8590 N   0  0  0  0  0  0  0  0  0  0  0  0
   37.1360   28.8320   41.5500 C   0  0  0  0  0  0  0  0  0  0  0  0
   36.9190   27.5910   41.1450 N   0  0  0  0  0  0  0  0  0  0  0  0
   37.3750   26.1170   44.1720 H   0  0  0  0  0  0  0  0  0  0  0  0
   37.7560   28.3910   44.8370 H   0  0  0  0  0  0  0  0  0  0  0  0
   36.7720   25.1640   41.6820 C   0  0  0  0  0  0  0  0  0  0  0  0
   37.7790   24.2500   42.1860 C   0  0  0  0  0  0  0  0  0  0  0  0
   38.6350   23.6300   41.1530 C   0  0  0  0  0  0  0  0  0  0  0  0
   37.7930   22.9160   40.0910 C   0  0  0  0  0  0  0  0  0  0  0  0
   36.5650   23.6530   39.6960 C   0  0  0  0  0  0  0  0  0  0  0  0
   36.6270   25.1160   40.1380 C   0  0  0  0  0  0  0  0  0  0  0  0
   35.7350   24.8830   42.0250 H   0  0  0  0  0  0  0  0  0  0  0  0
   37.3020   23.4110   42.7580 H   0  0  0  0  0  0  0  0  0  0  0  0
   38.4640   24.7320   42.9340 H   0  0  0  0  0  0  0  0  0  0  0  0
   39.2770   22.8350   41.6170 H   0  0  0  0  0  0  0  0  0  0  0  0
   39.3130   24.2770   40.5980 H   0  0  0  0  0  0  0  0  0  0  0  0
   38.4300   22.7530   39.1910 H   0  0  0  0  0  0  0  0  0  0  0  0
   37.5190   21.9190   40.5380 H   0  0  0  0  0  0  0  0  0  0  0  0
   36.3790   23.6700   38.6110 H   0  0  0  0  0  0  0  0  0  0  0  0
   35.6590   23.2190   40.1860 H   0  0  0  0  0  0  0  0  0  0  0  0
   37.5570   25.5360   39.7310 H   0  0  0  0  0  0  0  0  0  0  0  0
   35.7000   25.6130   39.8410 H   0  0  0  0  0  0  0  0  0  0  0  0
   37.0890   29.9960   40.6740 C   0  0  0  0  0  0  0  0  0  0  0  0
   36.7920   29.7990   39.3720 N   0  0  0  0  0  0  0  0  0  0  0  0
   36.7930   30.9810   38.7190 C   0  0  0  0  0  0  0  0  0  0  0  0
   37.0970   31.9260   39.6380 N   0  0  0  0  0  0  0  0  0  0  0  0
   37.2790   31.3350   40.8360 N   0  0  0  0  0  0  0  0  0  0  0  0
   36.5920   31.1570   37.6700 H   0  0  0  0  0  0  0  0  0  0  0  0
   37.2280   33.3700   39.4440 C   0  0  0  0  0  0  0  0  0  0  0  0
   36.5170   33.8600   40.1390 H   0  0  0  0  0  0  0  0  0  0  0  0
   36.9160   33.6350   38.4170 H   0  0  0  0  0  0  0  0  0  0  0  0
   38.6260   33.8140   39.6840 C   0  0  0  0  0  0  0  0  0  0  0  0
   38.8980   34.9370   40.4310 C   0  0  0  0  0  0  0  0  0  0  0  0
   38.1910   35.6090   40.9170 H   0  0  0  0  0  0  0  0  0  0  0  0
   40.2850   35.0980   40.4800 C   0  0  0  0  0  0  0  0  0  0  0  0
   40.7710   35.9090   41.0080 H   0  0  0  0  0  0  0  0  0  0  0  0
   40.7650   34.0280   39.7360 C   0  0  0  0  0  0  0  0  0  0  0  0
   41.8260   33.8750   39.5880 H   0  0  0  0  0  0  0  0  0  0  0  0
   39.7570   33.3070   39.2930 O   0  0  0  0  0  0  0  0  0  0  0  0
  1  2  1  0  0  0  0
  2  3  2  0  0  0  0
  2  7  1  0  0  0  0
  3  8  1  0  0  0  0
  4  3  1  0  0  0  0
  5  4  2  0  0  0  0
  6  5  1  0  0  0  0
  6  1  2  0  0  0  0
  9  1  1  0  0  0  0
  9 15  1  0  0  0  0
  9 10  1  0  0  0  0
 10 16  1  0  0  0  0
 10 17  1  0  0  0  0
 11 18  1  0  0  0  0
 11 10  1  0  0  0  0
 12 21  1  0  0  0  0
 12 11  1  0  0  0  0
 13 12  1  0  0  0  0
 13 14  1  0  0  0  0
 13 23  1  0  0  0  0
 14  9  1  0  0  0  0
 19 11  1  0  0  0  0
 20 12  1  0  0  0  0
 22 13  1  0  0  0  0
 24 14  1  0  0  0  0
 25 14  1  0  0  0  0
 26 30  2  0  0  0  0
 26  5  1  0  0  0  0
 27 26  1  0  0  0  0
 28 27  2  0  0  0  0
 28 29  1  0  0  0  0
 29 30  1  0  0  0  0
 31 28  1  0  0  0  0
 32 29  1  0  0  0  0
 32 35  1  0  0  0  0
 32 33  1  0  0  0  0
 34 32  1  0  0  0  0
 35 36  2  0  0  0  0
 36 38  1  0  0  0  0
 36 37  1  0  0  0  0
 38 39  1  0  0  0  0
 40 38  2  0  0  0  0
 41 40  1  0  0  0  0
 42 35  1  0  0  0  0
 42 40  1  0  0  0  0
M  END
>  <minimizedAffinity>
-5.92984104

$$$$

 OpenBabel03242519303D

 42 45  0  0  0  0  0  0  0  0999 V2000
   37.1860   27.0630   41.6300 C   0  0  0  0  0  0  0  0  0  0  0  0
   37.1470   26.9290   43.0370 C   0  0  0  0  0  0  0  0  0  0  0  0
   37.3470   28.0600   43.8390 C   0  0  0  0  0  0  0  0  0  0  0  0
   37.5730   29.2470   43.1840 N   0  0  0  0  0  0  0  0  0  0  0  0
   37.6020   29.3220   41.8140 C   0  0  0  0  0  0  0  0  0  0  0  0
   37.4130   28.2530   41.0570 N   0  0  0  0  0  0  0  0  0  0  0  0
   36.9780   26.0530   43.6090 H   0  0  0  0  0  0  0  0  0  0  0  0
   37.3300   28.0320   44.9190 H   0  0  0  0  0  0  0  0  0  0  0  0
   36.9690   25.8090   40.8870 C   0  0  0  0  0  0  0  0  0  0  0  0
   36.9520   24.6070   41.7000 C   0  0  0  0  0  0  0  0  0  0  0  0
   38.0970   23.6970   41.4940 C   0  0  0  0  0  0  0  0  0  0  0  0
   38.2360   23.3050   40.0200 C   0  0  0  0  0  0  0  0  0  0  0  0
   37.9940   24.4230   39.0720 C   0  0  0  0  0  0  0  0  0  0  0  0
   38.0540   25.7770   39.7790 C   0  0  0  0  0  0  0  0  0  0  0  0
   36.0220   25.9270   40.2850 H   0  0  0  0  0  0  0  0  0  0  0  0
   36.0220   24.0100   41.5040 H   0  0  0  0  0  0  0  0  0  0  0  0
   36.9040   24.8310   42.7990 H   0  0  0  0  0  0  0  0  0  0  0  0
   37.9240   22.7370   42.0490 H   0  0  0  0  0  0  0  0  0  0  0  0
   39.0840   24.0430   41.7960 H   0  0  0  0  0  0  0  0  0  0  0  0
   39.2620   22.9020   39.8590 H   0  0  0  0  0  0  0  0  0  0  0  0
   37.4830   22.4840   39.8500 H   0  0  0  0  0  0  0  0  0  0  0  0
   38.7200   24.4780   38.2460 H   0  0  0  0  0  0  0  0  0  0  0  0
   36.9740   24.3540   38.6180 H   0  0  0  0  0  0  0  0  0  0  0  0
   39.0210   25.8250   40.2990 H   0  0  0  0  0  0  0  0  0  0  0  0
   37.8570   26.5660   39.0480 H   0  0  0  0  0  0  0  0  0  0  0  0
   37.8600   30.6570   41.2890 C   0  0  0  0  0  0  0  0  0  0  0  0
   36.9200   31.2230   40.5030 N   0  0  0  0  0  0  0  0  0  0  0  0
   37.3280   32.4500   40.1140 C   0  0  0  0  0  0  0  0  0  0  0  0
   38.5450   32.6440   40.6710 N   0  0  0  0  0  0  0  0  0  0  0  0
   38.8800   31.5550   41.3910 N   0  0  0  0  0  0  0  0  0  0  0  0
   36.7990   33.1530   39.4820 H   0  0  0  0  0  0  0  0  0  0  0  0
   39.4180   33.8120   40.5570 C   0  0  0  0  0  0  0  0  0  0  0  0
   39.9520   33.9190   41.5230 H   0  0  0  0  0  0  0  0  0  0  0  0
   38.8040   34.7210   40.4220 H   0  0  0  0  0  0  0  0  0  0  0  0
   40.3640   33.6610   39.4200 C   0  0  0  0  0  0  0  0  0  0  0  0
   41.3530   34.5880   39.1880 C   0  0  0  0  0  0  0  0  0  0  0  0
   41.5720   35.4930   39.7530 H   0  0  0  0  0  0  0  0  0  0  0  0
   42.0740   34.1790   38.0630 C   0  0  0  0  0  0  0  0  0  0  0  0
   42.9130   34.7340   37.6610 H   0  0  0  0  0  0  0  0  0  0  0  0
   41.4480   32.9980   37.6860 C   0  0  0  0  0  0  0  0  0  0  0  0
   41.7860   32.4300   36.8290 H   0  0  0  0  0  0  0  0  0  0  0  0
   40.4560   32.7380   38.5100 O   0  0  0  0  0  0  0  0  0  0  0  0
  1  2  1  0  0  0  0
  2  7  1  0  0  0  0
  2  3  2  0  0  0  0
  3  8  1  0  0  0  0
  4  3  1  0  0  0  0
  5  4  2  0  0  0  0
  6  1  2  0  0  0  0
  6  5  1  0  0  0  0
  9  1  1  0  0  0  0
  9 10  1  0  0  0  0
 10 17  1  0  0  0  0
 11 10  1  0  0  0  0
 11 19  1  0  0  0  0
 11 18  1  0  0  0  0
 12 11  1  0  0  0  0
 13 14  1  0  0  0  0
 13 12  1  0  0  0  0
 14 24  1  0  0  0  0
 14  9  1  0  0  0  0
 15  9  1  0  0  0  0
 16 10  1  0  0  0  0
 20 12  1  0  0  0  0
 21 12  1  0  0  0  0
 22 13  1  0  0  0  0
 23 13  1  0  0  0  0
 25 14  1  0  0  0  0
 26 30  2  0  0  0  0
 26  5  1  0  0  0  0
 27 26  1  0  0  0  0
 28 27  2  0  0  0  0
 28 29  1  0  0  0  0
 29 30  1  0  0  0  0
 31 28  1  0  0  0  0
 32 29  1  0  0  0  0
 32 33  1  0  0  0  0
 34 32  1  0  0  0  0
 35 32  1  0  0  0  0
 36 35  2  0  0  0  0
 36 37  1  0  0  0  0
 38 36  1  0  0  0  0
 39 38  1  0  0  0  0
 40 38  2  0  0  0  0
 40 42  1  0  0  0  0
 41 40  1  0  0  0  0
 42 35  1  0  0  0  0
M  END
>  <minimizedAffinity>
-5.84814262

$$$$

 OpenBabel03242519303D

 42 45  0  0  0  0  0  0  0  0999 V2000
   37.0790   29.7630   40.9410 C   0  0  0  0  0  0  0  0  0  0  0  0
   36.2680   29.6330   39.7910 C   0  0  0  0  0  0  0  0  0  0  0  0
   36.3250   30.6180   38.7960 C   0  0  0  0  0  0  0  0  0  0  0  0
   37.1860   31.6660   39.0170 N   0  0  0  0  0  0  0  0  0  0  0  0
   37.9520   31.7450   40.1530 C   0  0  0  0  0  0  0  0  0  0  0  0
   37.8970   30.8130   41.0920 N   0  0  0  0  0  0  0  0  0  0  0  0
   35.5850   28.8580   39.5520 H   0  0  0  0  0  0  0  0  0  0  0  0
   35.7350   30.5830   37.8920 H   0  0  0  0  0  0  0  0  0  0  0  0
   36.9330   28.6730   41.9220 C   0  0  0  0  0  0  0  0  0  0  0  0
   37.7640   28.7960   43.1060 C   0  0  0  0  0  0  0  0  0  0  0  0
   38.8430   27.7930   43.2180 C   0  0  0  0  0  0  0  0  0  0  0  0
   38.2880   26.3680   43.1390 C   0  0  0  0  0  0  0  0  0  0  0  0
   37.2130   26.1940   42.1280 C   0  0  0  0  0  0  0  0  0  0  0  0
   37.1840   27.3580   41.1380 C   0  0  0  0  0  0  0  0  0  0  0  0
   35.8380   28.5870   42.1800 H   0  0  0  0  0  0  0  0  0  0  0  0
   37.1430   28.7100   44.0360 H   0  0  0  0  0  0  0  0  0  0  0  0
   38.2440   29.8070   43.1920 H   0  0  0  0  0  0  0  0  0  0  0  0
   39.3340   27.8740   44.2250 H   0  0  0  0  0  0  0  0  0  0  0  0
   39.6510   27.8310   42.4890 H   0  0  0  0  0  0  0  0  0  0  0  0
   39.1300   25.6770   42.9040 H   0  0  0  0  0  0  0  0  0  0  0  0
   37.8930   26.1370   44.1680 H   0  0  0  0  0  0  0  0  0  0  0  0
   37.3100   25.2800   41.5220 H   0  0  0  0  0  0  0  0  0  0  0  0
   36.2050   26.1710   42.6120 H   0  0  0  0  0  0  0  0  0  0  0  0
   38.1950   27.4450   40.7140 H   0  0  0  0  0  0  0  0  0  0  0  0
   36.3720   27.1950   40.4250 H   0  0  0  0  0  0  0  0  0  0  0  0
   38.8030   32.9250   40.2250 C   0  0  0  0  0  0  0  0  0  0  0  0
   38.2100   34.1280   40.3770 N   0  0  0  0  0  0  0  0  0  0  0  0
   39.1480   35.0980   40.4250 C   0  0  0  0  0  0  0  0  0  0  0  0
   40.3440   34.4800   40.2980 N   0  0  0  0  0  0  0  0  0  0  0  0
   40.1450   33.1530   40.1760 N   0  0  0  0  0  0  0  0  0  0  0  0
   38.9930   36.1630   40.5400 H   0  0  0  0  0  0  0  0  0  0  0  0
   41.6780   35.0810   40.2850 C   0  0  0  0  0  0  0  0  0  0  0  0
   41.5560   36.1560   40.5260 H   0  0  0  0  0  0  0  0  0  0  0  0
   42.1010   35.0210   39.2660 H   0  0  0  0  0  0  0  0  0  0  0  0
   42.5780   34.4000   41.2530 C   0  0  0  0  0  0  0  0  0  0  0  0
   43.5850   35.0850   41.8920 C   0  0  0  0  0  0  0  0  0  0  0  0
   43.8510   36.1360   41.7940 H   0  0  0  0  0  0  0  0  0  0  0  0
   44.2530   34.1880   42.7310 C   0  0  0  0  0  0  0  0  0  0  0  0
   45.0930   34.4690   43.3530 H   0  0  0  0  0  0  0  0  0  0  0  0
   43.5790   32.9900   42.5300 C   0  0  0  0  0  0  0  0  0  0  0  0
   43.8680   32.0870   43.0520 H   0  0  0  0  0  0  0  0  0  0  0  0
   42.6090   33.1660   41.6580 O   0  0  0  0  0  0  0  0  0  0  0  0
  1  6  1  0  0  0  0
  1  9  1  0  0  0  0
  2  1  2  0  0  0  0
  3  4  2  0  0  0  0
  3  2  1  0  0  0  0
  4  5  1  0  0  0  0
  5 26  1  0  0  0  0
  5  6  2  0  0  0  0
  7  2  1  0  0  0  0
  8  3  1  0  0  0  0
  9 15  1  0  0  0  0
  9 10  1  0  0  0  0
 10 17  1  0  0  0  0
 10 11  1  0  0  0  0
 10 16  1  0  0  0  0
 11 18  1  0  0  0  0
 12 11  1  0  0  0  0
 12 21  1  0  0  0  0
 13 23  1  0  0  0  0
 13 12  1  0  0  0  0
 14  9  1  0  0  0  0
 14 13  1  0  0  0  0
 19 11  1  0  0  0  0
 20 12  1  0  0  0  0
 22 13  1  0  0  0  0
 24 14  1  0  0  0  0
 25 14  1  0  0  0  0
 26 27  1  0  0  0  0
 27 28  2  0  0  0  0
 28 31  1  0  0  0  0
 29 28  1  0  0  0  0
 30 26  2  0  0  0  0
 30 29  1  0  0  0  0
 32 29  1  0  0  0  0
 32 33  1  0  0  0  0
 32 35  1  0  0  0  0
 34 32  1  0  0  0  0
 35 42  1  0  0  0  0
 35 36  2  0  0  0  0
 36 38  1  0  0  0  0
 37 36  1  0  0  0  0
 38 39  1  0  0  0  0
 40 38  2  0  0  0  0
 40 41  1  0  0  0  0
 42 40  1  0  0  0  0
M  END
>  <minimizedAffinity>
-5.81369591

$$$$

 OpenBabel03242519303D

 42 45  0  0  0  0  0  0  0  0999 V2000
   37.6310   30.5170   40.9620 C   0  0  0  0  0  0  0  0  0  0  0  0
   36.6820   30.2610   39.9460 C   0  0  0  0  0  0  0  0  0  0  0  0
   36.7890   30.9350   38.7220 C   0  0  0  0  0  0  0  0  0  0  0  0
   37.8330   31.8190   38.5960 N   0  0  0  0  0  0  0  0  0  0  0  0
   38.7280   32.0320   39.6150 C   0  0  0  0  0  0  0  0  0  0  0  0
   38.6260   31.3940   40.7700 N   0  0  0  0  0  0  0  0  0  0  0  0
   35.8560   29.5970   39.9710 H   0  0  0  0  0  0  0  0  0  0  0  0
   36.1010   30.7880   37.9030 H   0  0  0  0  0  0  0  0  0  0  0  0
   37.4200   29.7570   42.2070 C   0  0  0  0  0  0  0  0  0  0  0  0
   38.6050   29.5700   43.0230 C   0  0  0  0  0  0  0  0  0  0  0  0
   39.0980   28.1790   43.0990 C   0  0  0  0  0  0  0  0  0  0  0  0
   38.0000   27.2270   43.5800 C   0  0  0  0  0  0  0  0  0  0  0  0
   36.6600   27.5100   43.0060 C   0  0  0  0  0  0  0  0  0  0  0  0
   36.7580   28.4200   41.7820 C   0  0  0  0  0  0  0  0  0  0  0  0
   36.5870   30.2600   42.7790 H   0  0  0  0  0  0  0  0  0  0  0  0
   38.4170   29.9060   44.0770 H   0  0  0  0  0  0  0  0  0  0  0  0
   39.4660   30.2070   42.6840 H   0  0  0  0  0  0  0  0  0  0  0  0
   39.9200   28.1080   43.8600 H   0  0  0  0  0  0  0  0  0  0  0  0
   39.4950   27.7300   42.1890 H   0  0  0  0  0  0  0  0  0  0  0  0
   38.3000   26.1860   43.3170 H   0  0  0  0  0  0  0  0  0  0  0  0
   37.9730   27.3340   44.7000 H   0  0  0  0  0  0  0  0  0  0  0  0
   36.1130   26.6130   42.6760 H   0  0  0  0  0  0  0  0  0  0  0  0
   36.0120   28.0470   43.7420 H   0  0  0  0  0  0  0  0  0  0  0  0
   37.4580   27.9430   41.0820 H   0  0  0  0  0  0  0  0  0  0  0  0
   35.7500   28.6120   41.4040 H   0  0  0  0  0  0  0  0  0  0  0  0
   39.7680   33.0060   39.3100 C   0  0  0  0  0  0  0  0  0  0  0  0
   39.7570   34.1780   39.9800 N   0  0  0  0  0  0  0  0  0  0  0  0
   40.7870   34.9480   39.5700 C   0  0  0  0  0  0  0  0  0  0  0  0
   41.4460   34.2370   38.6270 N   0  0  0  0  0  0  0  0  0  0  0  0
   40.8320   33.0490   38.4610 N   0  0  0  0  0  0  0  0  0  0  0  0
   41.0490   35.9400   39.9160 H   0  0  0  0  0  0  0  0  0  0  0  0
   42.6350   34.6230   37.8680 C   0  0  0  0  0  0  0  0  0  0  0  0
   42.7480   35.7210   37.9700 H   0  0  0  0  0  0  0  0  0  0  0  0
   42.4750   34.4090   36.7950 H   0  0  0  0  0  0  0  0  0  0  0  0
   43.8370   33.8990   38.3580 C   0  0  0  0  0  0  0  0  0  0  0  0
   44.5530   33.0650   37.5320 C   0  0  0  0  0  0  0  0  0  0  0  0
   44.3630   32.8300   36.4850 H   0  0  0  0  0  0  0  0  0  0  0  0
   45.6160   32.5340   38.2680 C   0  0  0  0  0  0  0  0  0  0  0  0
   46.3390   31.8430   37.8530 H   0  0  0  0  0  0  0  0  0  0  0  0
   45.4600   33.1050   39.5240 C   0  0  0  0  0  0  0  0  0  0  0  0
   46.1450   32.8840   40.3330 H   0  0  0  0  0  0  0  0  0  0  0  0
   44.4070   33.8940   39.5270 O   0  0  0  0  0  0  0  0  0  0  0  0
  1  9  1  0  0  0  0
  2  7  1  0  0  0  0
  2  1  2  0  0  0  0
  3  2  1  0  0  0  0
  4  3  2  0  0  0  0
  4  5  1  0  0  0  0
  5  6  2  0  0  0  0
  6  1  1  0  0  0  0
  8  3  1  0  0  0  0
  9 15  1  0  0  0  0
  9 10  1  0  0  0  0
 10 11  1  0  0  0  0
 10 16  1  0  0  0  0
 11 12  1  0  0  0  0
 11 18  1  0  0  0  0
 12 21  1  0  0  0  0
 13 12  1  0  0  0  0
 13 23  1  0  0  0  0
 14  9  1  0  0  0  0
 14 13  1  0  0  0  0
 17 10  1  0  0  0  0
 19 11  1  0  0  0  0
 20 12  1  0  0  0  0
 22 13  1  0  0  0  0
 24 14  1  0  0  0  0
 25 14  1  0  0  0  0
 26  5  1  0  0  0  0
 26 27  1  0  0  0  0
 28 31  1  0  0  0  0
 28 27  2  0  0  0  0
 29 28  1  0  0  0  0
 30 29  1  0  0  0  0
 30 26  2  0  0  0  0
 32 33  1  0  0  0  0
 32 35  1  0  0  0  0
 32 29  1  0  0  0  0
 34 32  1  0  0  0  0
 35 42  1  0  0  0  0
 36 38  1  0  0  0  0
 36 35  2  0  0  0  0
 37 36  1  0  0  0  0
 38 40  2  0  0  0  0
 39 38  1  0  0  0  0
 40 42  1  0  0  0  0
 40 41  1  0  0  0  0
M  END
>  <minimizedAffinity>
-5.78077841

$$$$

 OpenBabel03242519303D

 42 45  0  0  0  0  0  0  0  0999 V2000
   41.0910   33.7260   40.6710 C   0  0  0  0  0  0  0  0  0  0  0  0
   40.5180   34.9710   40.3250 C   0  0  0  0  0  0  0  0  0  0  0  0
   39.1280   35.0700   40.1760 C   0  0  0  0  0  0  0  0  0  0  0  0
   38.4040   33.9200   40.3820 N   0  0  0  0  0  0  0  0  0  0  0  0
   39.0110   32.7350   40.7160 C   0  0  0  0  0  0  0  0  0  0  0  0
   40.3230   32.6430   40.8560 N   0  0  0  0  0  0  0  0  0  0  0  0
   41.0090   35.8950   40.1530 H   0  0  0  0  0  0  0  0  0  0  0  0
   38.6240   35.9880   39.9140 H   0  0  0  0  0  0  0  0  0  0  0  0
   42.5590   33.7380   40.7960 C   0  0  0  0  0  0  0  0  0  0  0  0
   43.1360   32.5400   41.3770 C   0  0  0  0  0  0  0  0  0  0  0  0
   43.7340   32.7210   42.7160 C   0  0  0  0  0  0  0  0  0  0  0  0
   44.7850   33.8340   42.7090 C   0  0  0  0  0  0  0  0  0  0  0  0
   44.4060   35.0190   41.8980 C   0  0  0  0  0  0  0  0  0  0  0  0
   42.9090   35.0250   41.5870 C   0  0  0  0  0  0  0  0  0  0  0  0
   42.9880   33.9630   39.7770 H   0  0  0  0  0  0  0  0  0  0  0  0
   43.9430   32.1280   40.7140 H   0  0  0  0  0  0  0  0  0  0  0  0
   42.3960   31.7000   41.4580 H   0  0  0  0  0  0  0  0  0  0  0  0
   44.2800   31.7870   43.0180 H   0  0  0  0  0  0  0  0  0  0  0  0
   43.0670   32.9570   43.5440 H   0  0  0  0  0  0  0  0  0  0  0  0
   44.9670   34.1510   43.7620 H   0  0  0  0  0  0  0  0  0  0  0  0
   45.7230   33.3660   42.2950 H   0  0  0  0  0  0  0  0  0  0  0  0
   44.6200   35.9840   42.3830 H   0  0  0  0  0  0  0  0  0  0  0  0
   44.9290   35.0160   40.9090 H   0  0  0  0  0  0  0  0  0  0  0  0
   42.3800   34.9460   42.5470 H   0  0  0  0  0  0  0  0  0  0  0  0
   42.6790   35.9040   40.9780 H   0  0  0  0  0  0  0  0  0  0  0  0
   38.0920   31.6170   40.8900 C   0  0  0  0  0  0  0  0  0  0  0  0
   36.8590   31.7170   40.3490 N   0  0  0  0  0  0  0  0  0  0  0  0
   36.1530   30.5960   40.6080 C   0  0  0  0  0  0  0  0  0  0  0  0
   36.9670   29.7880   41.3250 N   0  0  0  0  0  0  0  0  0  0  0  0
   38.1540   30.4020   41.5020 N   0  0  0  0  0  0  0  0  0  0  0  0
   35.1370   30.3700   40.3100 H   0  0  0  0  0  0  0  0  0  0  0  0
   36.6820   28.4560   41.8570 C   0  0  0  0  0  0  0  0  0  0  0  0
   36.1590   27.8890   41.0610 H   0  0  0  0  0  0  0  0  0  0  0  0
   35.9840   28.5390   42.7100 H   0  0  0  0  0  0  0  0  0  0  0  0
   37.9330   27.7750   42.2860 C   0  0  0  0  0  0  0  0  0  0  0  0
   38.2180   27.5840   43.6180 C   0  0  0  0  0  0  0  0  0  0  0  0
   37.6230   27.8760   44.4820 H   0  0  0  0  0  0  0  0  0  0  0  0
   39.4480   26.9250   43.7060 C   0  0  0  0  0  0  0  0  0  0  0  0
   39.9090   26.6510   44.6470 H   0  0  0  0  0  0  0  0  0  0  0  0
   39.8260   26.7610   42.3800 C   0  0  0  0  0  0  0  0  0  0  0  0
   40.7550   26.2730   42.1150 H   0  0  0  0  0  0  0  0  0  0  0  0
   38.9080   27.2740   41.5890 O   0  0  0  0  0  0  0  0  0  0  0  0
  1  9  1  0  0  0  0
  1  6  1  0  0  0  0
  2  1  2  0  0  0  0
  3  2  1  0  0  0  0
  3  4  2  0  0  0  0
  4  5  1  0  0  0  0
  5  6  2  0  0  0  0
  5 26  1  0  0  0  0
  7  2  1  0  0  0  0
  8  3  1  0  0  0  0
  9 10  1  0  0  0  0
  9 14  1  0  0  0  0
 10 17  1  0  0  0  0
 10 11  1  0  0  0  0
 11 18  1  0  0  0  0
 11 19  1  0  0  0  0
 12 11  1  0  0  0  0
 12 20  1  0  0  0  0
 13 22  1  0  0  0  0
 13 12  1  0  0  0  0
 14 13  1  0  0  0  0
 14 24  1  0  0  0  0
 15  9  1  0  0  0  0
 16 10  1  0  0  0  0
 21 12  1  0  0  0  0
 23 13  1  0  0  0  0
 25 14  1  0  0  0  0
 26 30  2  0  0  0  0
 27 28  2  0  0  0  0
 27 26  1  0  0  0  0
 28 29  1  0  0  0  0
 29 30  1  0  0  0  0
 29 32  1  0  0  0  0
 31 28  1  0  0  0  0
 32 35  1  0  0  0  0
 32 34  1  0  0  0  0
 33 32  1  0  0  0  0
 35 36  2  0  0  0  0
 36 38  1  0  0  0  0
 36 37  1  0  0  0  0
 38 39  1  0  0  0  0
 40 38  2  0  0  0  0
 41 40  1  0  0  0  0
 42 35  1  0  0  0  0
 42 40  1  0  0  0  0
M  END
>  <minimizedAffinity>
-5.75207615

$$$$

 OpenBabel03242519303D

 42 45  0  0  0  0  0  0  0  0999 V2000
   38.0030   25.7720   41.8450 C   0  0  0  0  0  0  0  0  0  0  0  0
   38.9530   25.8060   42.8910 C   0  0  0  0  0  0  0  0  0  0  0  0
   39.4630   27.0400   43.3160 C   0  0  0  0  0  0  0  0  0  0  0  0
   38.9920   28.1570   42.6670 N   0  0  0  0  0  0  0  0  0  0  0  0
   38.0680   28.0680   41.6560 C   0  0  0  0  0  0  0  0  0  0  0  0
   37.5880   26.9020   41.2560 N   0  0  0  0  0  0  0  0  0  0  0  0
   39.3610   24.9930   43.4360 H   0  0  0  0  0  0  0  0  0  0  0  0
   40.1900   27.1410   44.1090 H   0  0  0  0  0  0  0  0  0  0  0  0
   37.5410   24.4220   41.4780 C   0  0  0  0  0  0  0  0  0  0  0  0
   38.5910   23.4930   41.1040 C   0  0  0  0  0  0  0  0  0  0  0  0
   38.6010   23.1030   39.6790 C   0  0  0  0  0  0  0  0  0  0  0  0
   37.2460   22.5310   39.2500 C   0  0  0  0  0  0  0  0  0  0  0  0
   36.0790   23.2550   39.8150 C   0  0  0  0  0  0  0  0  0  0  0  0
   36.4830   24.6240   40.3620 C   0  0  0  0  0  0  0  0  0  0  0  0
   36.9130   24.0310   42.3300 H   0  0  0  0  0  0  0  0  0  0  0  0
   38.5120   22.5460   41.6990 H   0  0  0  0  0  0  0  0  0  0  0  0
   39.6160   23.8810   41.3460 H   0  0  0  0  0  0  0  0  0  0  0  0
   39.3450   22.2780   39.5150 H   0  0  0  0  0  0  0  0  0  0  0  0
   38.8380   23.8690   38.9420 H   0  0  0  0  0  0  0  0  0  0  0  0
   37.1920   22.5560   38.1370 H   0  0  0  0  0  0  0  0  0  0  0  0
   37.2430   21.4600   39.5990 H   0  0  0  0  0  0  0  0  0  0  0  0
   35.2720   23.4420   39.0900 H   0  0  0  0  0  0  0  0  0  0  0  0
   35.6340   22.6950   40.6750 H   0  0  0  0  0  0  0  0  0  0  0  0
   36.9950   25.1570   39.5480 H   0  0  0  0  0  0  0  0  0  0  0  0
   35.5970   25.1130   40.7790 H   0  0  0  0  0  0  0  0  0  0  0  0
   37.6840   29.3500   41.0770 C   0  0  0  0  0  0  0  0  0  0  0  0
   36.5840   29.9620   41.5640 N   0  0  0  0  0  0  0  0  0  0  0  0
   36.3850   31.1290   40.9140 C   0  0  0  0  0  0  0  0  0  0  0  0
   37.3830   31.2370   40.0070 N   0  0  0  0  0  0  0  0  0  0  0  0
   38.1820   30.1560   40.0990 N   0  0  0  0  0  0  0  0  0  0  0  0
   35.5910   31.8470   41.0730 H   0  0  0  0  0  0  0  0  0  0  0  0
   37.6230   32.3160   39.0490 C   0  0  0  0  0  0  0  0  0  0  0  0
   36.6570   32.8340   38.8880 H   0  0  0  0  0  0  0  0  0  0  0  0
   37.9300   31.8880   38.0780 H   0  0  0  0  0  0  0  0  0  0  0  0
   38.6690   33.2480   39.5500 C   0  0  0  0  0  0  0  0  0  0  0  0
   38.3340   34.4450   40.1380 C   0  0  0  0  0  0  0  0  0  0  0  0
   37.3390   34.8550   40.3090 H   0  0  0  0  0  0  0  0  0  0  0  0
   39.5160   35.0940   40.5010 C   0  0  0  0  0  0  0  0  0  0  0  0
   39.5380   36.0630   40.9860 H   0  0  0  0  0  0  0  0  0  0  0  0
   40.5100   34.2140   40.0950 C   0  0  0  0  0  0  0  0  0  0  0  0
   41.5590   34.4400   40.2430 H   0  0  0  0  0  0  0  0  0  0  0  0
   39.9650   33.1510   39.5450 O   0  0  0  0  0  0  0  0  0  0  0  0
  1  2  1  0  0  0  0
  2  3  2  0  0  0  0
  2  7  1  0  0  0  0
  3  8  1  0  0  0  0
  4  3  1  0  0  0  0
  5  4  2  0  0  0  0
  6  5  1  0  0  0  0
  6  1  2  0  0  0  0
  9  1  1  0  0  0  0
  9 15  1  0  0  0  0
 10 17  1  0  0  0  0
 10  9  1  0  0  0  0
 10 16  1  0  0  0  0
 11 10  1  0  0  0  0
 12 21  1  0  0  0  0
 12 11  1  0  0  0  0
 12 13  1  0  0  0  0
 13 14  1  0  0  0  0
 13 23  1  0  0  0  0
 14 25  1  0  0  0  0
 14  9  1  0  0  0  0
 18 11  1  0  0  0  0
 19 11  1  0  0  0  0
 20 12  1  0  0  0  0
 22 13  1  0  0  0  0
 24 14  1  0  0  0  0
 26 27  1  0  0  0  0
 26  5  1  0  0  0  0
 28 31  1  0  0  0  0
 28 27  2  0  0  0  0
 29 30  1  0  0  0  0
 29 28  1  0  0  0  0
 30 26  2  0  0  0  0
 32 35  1  0  0  0  0
 32 29  1  0  0  0  0
 33 32  1  0  0  0  0
 34 32  1  0  0  0  0
 35 36  2  0  0  0  0
 36 37  1  0  0  0  0
 36 38  1  0  0  0  0
 38 39  1  0  0  0  0
 40 41  1  0  0  0  0
 40 38  2  0  0  0  0
 42 35  1  0  0  0  0
 42 40  1  0  0  0  0
M  END
>  <minimizedAffinity>
-5.54571486

$$$$

 OpenBabel03242519303D

 42 45  0  0  0  0  0  0  0  0999 V2000
   32.3320   29.3750   36.5830 C   0  0  0  0  0  0  0  0  0  0  0  0
   32.6380   29.0840   35.2340 C   0  0  0  0  0  0  0  0  0  0  0  0
   33.9510   28.7390   34.8860 C   0  0  0  0  0  0  0  0  0  0  0  0
   34.8690   28.7070   35.9080 N   0  0  0  0  0  0  0  0  0  0  0  0
   34.5200   28.9990   37.2030 C   0  0  0  0  0  0  0  0  0  0  0  0
   33.2800   29.3250   37.5290 N   0  0  0  0  0  0  0  0  0  0  0  0
   31.9860   29.0870   34.3970 H   0  0  0  0  0  0  0  0  0  0  0  0
   34.2550   28.5040   33.8770 H   0  0  0  0  0  0  0  0  0  0  0  0
   30.9240   29.7300   36.8320 C   0  0  0  0  0  0  0  0  0  0  0  0
   30.4550   30.9110   36.1310 C   0  0  0  0  0  0  0  0  0  0  0  0
   30.1580   32.0730   36.9940 C   0  0  0  0  0  0  0  0  0  0  0  0
   29.1550   31.7070   38.0920 C   0  0  0  0  0  0  0  0  0  0  0  0
   29.3820   30.3700   38.6970 C   0  0  0  0  0  0  0  0  0  0  0  0
   30.7790   29.8410   38.3720 C   0  0  0  0  0  0  0  0  0  0  0  0
   30.2950   28.8230   36.6010 H   0  0  0  0  0  0  0  0  0  0  0  0
   29.5180   30.6850   35.5580 H   0  0  0  0  0  0  0  0  0  0  0  0
   31.1770   31.2610   35.3450 H   0  0  0  0  0  0  0  0  0  0  0  0
   29.6670   32.8810   36.3890 H   0  0  0  0  0  0  0  0  0  0  0  0
   30.9910   32.5510   37.5100 H   0  0  0  0  0  0  0  0  0  0  0  0
   29.2080   32.4860   38.8880 H   0  0  0  0  0  0  0  0  0  0  0  0
   28.1410   31.7440   37.6030 H   0  0  0  0  0  0  0  0  0  0  0  0
   29.2970   30.3530   39.7950 H   0  0  0  0  0  0  0  0  0  0  0  0
   28.6620   29.6170   38.2920 H   0  0  0  0  0  0  0  0  0  0  0  0
   31.4970   30.6100   38.6920 H   0  0  0  0  0  0  0  0  0  0  0  0
   30.8960   28.8520   38.8240 H   0  0  0  0  0  0  0  0  0  0  0  0
   35.6210   28.9220   38.1550 C   0  0  0  0  0  0  0  0  0  0  0  0
   36.6000   28.0230   37.9230 N   0  0  0  0  0  0  0  0  0  0  0  0
   37.5290   28.0950   38.9000 C   0  0  0  0  0  0  0  0  0  0  0  0
   37.1110   29.0570   39.7540 N   0  0  0  0  0  0  0  0  0  0  0  0
   35.9470   29.5700   39.3080 N   0  0  0  0  0  0  0  0  0  0  0  0
   38.4320   27.5070   38.9990 H   0  0  0  0  0  0  0  0  0  0  0  0
   37.7590   29.5230   40.9810 C   0  0  0  0  0  0  0  0  0  0  0  0
   37.4970   30.5930   41.1040 H   0  0  0  0  0  0  0  0  0  0  0  0
   38.8560   29.4660   40.8640 H   0  0  0  0  0  0  0  0  0  0  0  0
   37.3270   28.7130   42.1500 C   0  0  0  0  0  0  0  0  0  0  0  0
   37.8110   28.9690   43.4120 C   0  0  0  0  0  0  0  0  0  0  0  0
   38.5220   29.7360   43.7170 H   0  0  0  0  0  0  0  0  0  0  0  0
   37.2290   28.0530   44.2930 C   0  0  0  0  0  0  0  0  0  0  0  0
   37.4390   28.0340   45.3550 H   0  0  0  0  0  0  0  0  0  0  0  0
   36.4100   27.2870   43.4730 C   0  0  0  0  0  0  0  0  0  0  0  0
   35.8130   26.4770   43.8720 H   0  0  0  0  0  0  0  0  0  0  0  0
   36.5020   27.7120   42.2310 O   0  0  0  0  0  0  0  0  0  0  0  0
  1  9  1  0  0  0  0
  1  6  1  0  0  0  0
  2  1  2  0  0  0  0
  3  2  1  0  0  0  0
  3  4  2  0  0  0  0
  4  5  1  0  0  0  0
  5  6  2  0  0  0  0
  5 26  1  0  0  0  0
  7  2  1  0  0  0  0
  8  3  1  0  0  0  0
  9 14  1  0  0  0  0
 10  9  1  0  0  0  0
 10 11  1  0  0  0  0
 11 19  1  0  0  0  0
 11 12  1  0  0  0  0
 12 13  1  0  0  0  0
 12 20  1  0  0  0  0
 13 22  1  0  0  0  0
 14 24  1  0  0  0  0
 14 13  1  0  0  0  0
 14 25  1  0  0  0  0
 15  9  1  0  0  0  0
 16 10  1  0  0  0  0
 17 10  1  0  0  0  0
 18 11  1  0  0  0  0
 21 12  1  0  0  0  0
 23 13  1  0  0  0  0
 26 30  2  0  0  0  0
 27 26  1  0  0  0  0
 27 28  2  0  0  0  0
 28 31  1  0  0  0  0
 28 29  1  0  0  0  0
 29 32  1  0  0  0  0
 30 29  1  0  0  0  0
 32 33  1  0  0  0  0
 32 35  1  0  0  0  0
 34 32  1  0  0  0  0
 35 42  1  0  0  0  0
 35 36  2  0  0  0  0
 36 37  1  0  0  0  0
 36 38  1  0  0  0  0
 38 39  1  0  0  0  0
 40 41  1  0  0  0  0
 40 38  2  0  0  0  0
 42 40  1  0  0  0  0
M  END
>  <minimizedAffinity>
-5.5410924

$$$$
