
 OpenBabel03242522233D

 27 29  0  0  0  0  0  0  0  0999 V2000
   44.4260   35.9590   44.8430 C   0  0  0  0  0  0  0  0  0  0  0  0
   45.0790   35.8270   43.6100 C   0  0  0  0  0  0  0  0  0  0  0  0
   45.9910   34.7920   43.3690 C   0  0  0  0  0  0  0  0  0  0  0  0
   46.1910   33.9470   44.3990 N   0  0  0  0  0  0  0  0  0  0  0  0
   45.5720   34.0630   45.5850 C   0  0  0  0  0  0  0  0  0  0  0  0
   44.6980   35.0600   45.8000 N   0  0  0  0  0  0  0  0  0  0  0  0
   43.7200   36.7810   44.9900 H   0  0  0  0  0  0  0  0  0  0  0  0
   44.8640   36.5370   42.8500 H   0  0  0  0  0  0  0  0  0  0  0  0
   44.4970   33.1440   41.4660 Cl  0  0  0  0  0  0  0  0  0  0  0  0
   46.0550   33.8860   41.1200 C   0  0  0  0  0  0  0  0  0  0  0  0
   46.6760   34.6460   42.0890 C   0  0  0  0  0  0  0  0  0  0  0  0
   47.9010   35.2200   41.7920 C   0  0  0  0  0  0  0  0  0  0  0  0
   48.4840   35.0330   40.5540 C   0  0  0  0  0  0  0  0  0  0  0  0
   47.8180   34.2610   39.6150 C   0  0  0  0  0  0  0  0  0  0  0  0
   48.5640   34.0320   38.0520 Cl  0  0  0  0  0  0  0  0  0  0  0  0
   46.5960   33.6730   39.8720 C   0  0  0  0  0  0  0  0  0  0  0  0
   48.3220   35.7940   42.5910 H   0  0  0  0  0  0  0  0  0  0  0  0
   49.4440   35.4980   40.3570 H   0  0  0  0  0  0  0  0  0  0  0  0
   46.1250   33.0800   39.1000 H   0  0  0  0  0  0  0  0  0  0  0  0
   45.9160   33.0510   46.5820 C   0  0  0  0  0  0  0  0  0  0  0  0
   46.9000   32.1110   46.7280 C   0  0  0  0  0  0  0  0  0  0  0  0
   47.6540   32.0210   45.9710 H   0  0  0  0  0  0  0  0  0  0  0  0
   46.6680   31.4490   47.9150 C   0  0  0  0  0  0  0  0  0  0  0  0
   47.2920   30.6550   48.2800 H   0  0  0  0  0  0  0  0  0  0  0  0
   45.5330   32.0220   48.4510 C   0  0  0  0  0  0  0  0  0  0  0  0
   45.0690   31.7250   49.4010 H   0  0  0  0  0  0  0  0  0  0  0  0
   45.1030   32.9780   47.6310 O   0  0  0  0  0  0  0  0  0  0  0  0
  1  7  1  0  0  0  0
  1  6  1  0  0  0  0
  2  1  2  0  0  0  0
  3  2  1  0  0  0  0
  3  4  2  0  0  0  0
  4  5  1  0  0  0  0
  5  6  2  0  0  0  0
  5 20  1  0  0  0  0
  8  2  1  0  0  0  0
 10  9  1  0  0  0  0
 10 11  1  0  0  0  0
 11  3  1  0  0  0  0
 12 11  2  0  0  0  0
 12 17  1  0  0  0  0
 13 12  1  0  0  0  0
 14 16  1  0  0  0  0
 14 13  2  0  0  0  0
 15 14  1  0  0  0  0
 16 10  2  0  0  0  0
 18 13  1  0  0  0  0
 19 16  1  0  0  0  0
 20 21  2  0  0  0  0
 20 27  1  0  0  0  0
 21 23  1  0  0  0  0
 22 21  1  0  0  0  0
 23 24  1  0  0  0  0
 23 25  2  0  0  0  0
 25 26  1  0  0  0  0
 27 25  1  0  0  0  0
M  END
>  <minimizedAffinity>
-6.376688

>  <minimizedRMSD>
0.320489079

$$$$
