
 OpenBabel03242513273D

 29 31  0  0  0  0  0  0  0  0999 V2000
   46.4340   34.0800   41.1050 C   0  0  0  0  0  0  0  0  0  0  0  0
   46.9060   34.8460   42.1330 C   0  0  0  0  0  0  0  0  0  0  0  0
   48.0770   35.5020   41.9340 C   0  0  0  0  0  0  0  0  0  0  0  0
   48.7750   35.4040   40.7340 C   0  0  0  0  0  0  0  0  0  0  0  0
   48.3000   34.6430   39.7200 C   0  0  0  0  0  0  0  0  0  0  0  0
   47.0950   33.9450   39.8750 C   0  0  0  0  0  0  0  0  0  0  0  0
   48.4870   36.1200   42.7220 H   0  0  0  0  0  0  0  0  0  0  0  0
   49.7160   35.9310   40.5730 H   0  0  0  0  0  0  0  0  0  0  0  0
   48.7550   34.4950   38.7520 H   0  0  0  0  0  0  0  0  0  0  0  0
   44.4890   35.9470   44.8080 C   0  0  0  0  0  0  0  0  0  0  0  0
   45.2260   35.9190   43.6170 C   0  0  0  0  0  0  0  0  0  0  0  0
   46.1300   34.9040   43.3530 C   0  0  0  0  0  0  0  0  0  0  0  0
   46.2440   33.9590   44.3200 N   0  0  0  0  0  0  0  0  0  0  0  0
   45.5330   33.9910   45.4640 C   0  0  0  0  0  0  0  0  0  0  0  0
   44.6590   34.9770   45.7110 N   0  0  0  0  0  0  0  0  0  0  0  0
   43.7930   36.7670   44.9640 H   0  0  0  0  0  0  0  0  0  0  0  0
   45.0770   36.7180   42.8870 H   0  0  0  0  0  0  0  0  0  0  0  0
   45.7230   33.1620   46.1630 H   0  0  0  0  0  0  0  0  0  0  0  0
   45.2350   33.3820   41.2510 O   0  0  0  0  0  0  0  0  0  0  0  0
   44.4040   33.9300   41.0650 H   0  0  0  0  0  0  0  0  0  0  0  0
   46.5410   33.1480   38.8930 O   0  0  0  0  0  0  0  0  0  0  0  0
   47.1880   32.7950   37.7160 C   0  0  0  0  0  0  0  0  0  0  0  0
   47.6970   31.5000   37.6600 C   0  0  0  0  0  0  0  0  0  0  0  0
   47.7060   30.6690   38.3500 H   0  0  0  0  0  0  0  0  0  0  0  0
   48.2900   31.3910   36.3970 C   0  0  0  0  0  0  0  0  0  0  0  0
   48.7940   30.5180   35.9920 H   0  0  0  0  0  0  0  0  0  0  0  0
   48.1030   32.6190   35.7740 C   0  0  0  0  0  0  0  0  0  0  0  0
   48.4660   32.8120   34.7810 H   0  0  0  0  0  0  0  0  0  0  0  0
   47.4520   33.4060   36.5920 O   0  0  0  0  0  0  0  0  0  0  0  0
  1 19  1  0  0  0  0
  1  2  1  0  0  0  0
  2 12  1  0  0  0  0
  3  2  2  0  0  0  0
  3  7  1  0  0  0  0
  4  3  1  0  0  0  0
  5  6  1  0  0  0  0
  5  4  2  0  0  0  0
  6  1  2  0  0  0  0
  8  4  1  0  0  0  0
  9  5  1  0  0  0  0
 10 16  1  0  0  0  0
 10 15  1  0  0  0  0
 11 10  2  0  0  0  0
 12 11  1  0  0  0  0
 12 13  2  0  0  0  0
 13 14  1  0  0  0  0
 14 15  2  0  0  0  0
 14 18  1  0  0  0  0
 17 11  1  0  0  0  0
 20 19  1  0  0  0  0
 21  6  1  0  0  0  0
 22 21  1  0  0  0  0
 23 22  2  0  0  0  0
 23 24  1  0  0  0  0
 25 23  1  0  0  0  0
 26 25  1  0  0  0  0
 27 25  2  0  0  0  0
 27 29  1  0  0  0  0
 28 27  1  0  0  0  0
 29 22  1  0  0  0  0
M  END
>  <minimizedAffinity>
-5.37810421

>  <minimizedRMSD>
1.98406434

$$$$
