
 OpenBabel03252508503D

 27 29  0  0  0  0  0  0  0  0999 V2000
   45.9570   34.1980   41.0410 C   0  0  0  0  0  0  0  0  0  0  0  0
   46.5390   34.8130   42.1410 C   0  0  0  0  0  0  0  0  0  0  0  0
   47.8920   35.1760   42.0160 C   0  0  0  0  0  0  0  0  0  0  0  0
   48.5280   34.9050   40.8470 N   0  0  0  0  0  0  0  0  0  0  0  0
   47.9280   34.3140   39.8210 C   0  0  0  0  0  0  0  0  0  0  0  0
   46.6350   33.9560   39.9100 N   0  0  0  0  0  0  0  0  0  0  0  0
   48.3680   35.6500   42.8470 H   0  0  0  0  0  0  0  0  0  0  0  0
   48.3990   34.0810   38.8700 H   0  0  0  0  0  0  0  0  0  0  0  0
   45.7600   35.0530   43.3400 C   0  0  0  0  0  0  0  0  0  0  0  0
   45.0720   36.2240   43.5730 C   0  0  0  0  0  0  0  0  0  0  0  0
   44.4870   36.0260   44.8020 C   0  0  0  0  0  0  0  0  0  0  0  0
   44.7970   34.8080   45.2910 N   0  0  0  0  0  0  0  0  0  0  0  0
   45.5670   34.2410   44.3880 N   0  0  0  0  0  0  0  0  0  0  0  0
   44.9600   37.1300   42.9930 H   0  0  0  0  0  0  0  0  0  0  0  0
   43.8440   36.6760   45.4030 H   0  0  0  0  0  0  0  0  0  0  0  0
   44.5740   34.2750   46.1580 H   0  0  0  0  0  0  0  0  0  0  0  0
   44.6280   33.8280   41.1270 O   0  0  0  0  0  0  0  0  0  0  0  0
   43.5540   34.4440   40.5520 C   0  0  0  0  0  0  0  0  0  0  0  0
   43.1540   35.6480   40.7570 O   0  0  0  0  0  0  0  0  0  0  0  0
   42.6550   33.7720   39.5650 C   0  0  0  0  0  0  0  0  0  0  0  0
   41.4010   34.2000   39.1090 C   0  0  0  0  0  0  0  0  0  0  0  0
   40.9570   35.1380   39.4780 H   0  0  0  0  0  0  0  0  0  0  0  0
   40.8670   33.3190   38.1970 C   0  0  0  0  0  0  0  0  0  0  0  0
   39.9150   33.4130   37.6950 H   0  0  0  0  0  0  0  0  0  0  0  0
   41.8480   32.3540   38.1290 C   0  0  0  0  0  0  0  0  0  0  0  0
   41.7920   31.4600   37.4920 H   0  0  0  0  0  0  0  0  0  0  0  0
   42.8230   32.6530   38.9100 O   0  0  0  0  0  0  0  0  0  0  0  0
  1 17  1  0  0  0  0
  1  2  1  0  0  0  0
  2  9  1  0  0  0  0
  3  2  2  0  0  0  0
  3  7  1  0  0  0  0
  4  3  1  0  0  0  0
  5  6  1  0  0  0  0
  5  4  2  0  0  0  0
  6  1  2  0  0  0  0
  8  5  1  0  0  0  0
  9 10  1  0  0  0  0
  9 13  2  0  0  0  0
 10 11  2  0  0  0  0
 11 12  1  0  0  0  0
 11 15  1  0  0  0  0
 12 16  1  0  0  0  0
 13 12  1  0  0  0  0
 14 10  1  0  0  0  0
 18 19  2  0  0  0  0
 18 17  1  0  0  0  0
 20 18  1  0  0  0  0
 21 22  1  0  0  0  0
 21 20  2  0  0  0  0
 23 21  1  0  0  0  0
 24 23  1  0  0  0  0
 25 23  2  0  0  0  0
 25 27  1  0  0  0  0
 26 25  1  0  0  0  0
 27 20  1  0  0  0  0
M  END
>  <minimizedAffinity>
-5.07891655

>  <minimizedRMSD>
0.364239782

$$$$
