
 OpenBabel03252504283D

 26 27  0  0  0  0  0  0  0  0999 V2000
   43.3790   35.6060   41.6970 O   0  0  0  0  0  0  0  0  0  0  0  0
   44.5140   34.8380   41.8170 C   0  0  0  0  0  0  0  0  0  0  0  0
   45.4130   35.4740   41.5040 H   0  0  0  0  0  0  0  0  0  0  0  0
   44.4480   33.9370   41.1900 H   0  0  0  0  0  0  0  0  0  0  0  0
   44.4930   35.4100   44.1370 C   0  0  0  0  0  0  0  0  0  0  0  0
   44.8480   34.4310   43.1960 C   0  0  0  0  0  0  0  0  0  0  0  0
   45.4430   33.2960   43.6770 C   0  0  0  0  0  0  0  0  0  0  0  0
   45.6370   33.2090   44.9890 N   0  0  0  0  0  0  0  0  0  0  0  0
   45.3000   34.1350   45.8790 C   0  0  0  0  0  0  0  0  0  0  0  0
   44.6930   35.3150   45.4790 N   0  0  0  0  0  0  0  0  0  0  0  0
   44.0090   36.3700   43.9040 H   0  0  0  0  0  0  0  0  0  0  0  0
   45.6850   32.5920   42.8930 H   0  0  0  0  0  0  0  0  0  0  0  0
   45.5390   33.8760   46.8830 H   0  0  0  0  0  0  0  0  0  0  0  0
   42.3470   35.4480   40.7870 C   0  0  0  0  0  3  0  0  0  0  0  0
   41.1260   35.8730   41.1920 C   0  0  0  0  0  3  0  0  0  0  0  0
   39.8670   35.8560   40.3480 C   0  0  0  0  0  0  0  0  0  0  0  0
   40.0240   36.4850   39.4560 H   0  0  0  0  0  0  0  0  0  0  0  0
   39.0800   36.2990   40.9570 H   0  0  0  0  0  0  0  0  0  0  0  0
   39.5980   34.4350   39.9940 C   0  0  0  0  0  0  0  0  0  0  0  0
   39.0790   33.4320   40.7820 C   0  0  0  0  0  0  0  0  0  0  0  0
   38.7780   33.5310   41.8170 H   0  0  0  0  0  0  0  0  0  0  0  0
   39.0380   32.3100   39.9570 C   0  0  0  0  0  0  0  0  0  0  0  0
   38.6760   31.3220   40.2630 H   0  0  0  0  0  0  0  0  0  0  0  0
   39.5370   32.7000   38.7150 C   0  0  0  0  0  0  0  0  0  0  0  0
   39.6330   32.0450   37.8580 H   0  0  0  0  0  0  0  0  0  0  0  0
   39.8620   33.9810   38.7750 O   0  0  0  0  0  0  0  0  0  0  0  0
  1  2  1  0  0  0  0
  2  6  1  0  0  0  0
  3  2  1  0  0  0  0
  4  2  1  0  0  0  0
  5 10  1  0  0  0  0
  6  7  1  0  0  0  0
  6  5  2  0  0  0  0
  7  8  2  0  0  0  0
  8  9  1  0  0  0  0
  9 13  1  0  0  0  0
 10  9  2  0  0  0  0
 11  5  1  0  0  0  0
 12  7  1  0  0  0  0
 14 15  2  0  0  0  0
 14  1  1  0  0  0  0
 16 18  1  0  0  0  0
 16 15  1  0  0  0  0
 17 16  1  0  0  0  0
 19 16  1  0  0  0  0
 19 20  2  0  0  0  0
 20 21  1  0  0  0  0
 22 23  1  0  0  0  0
 22 20  1  0  0  0  0
 24 26  1  0  0  0  0
 24 22  2  0  0  0  0
 25 24  1  0  0  0  0
 26 19  1  0  0  0  0
M  END
>  <minimizedAffinity>
-4.31265879

>  <minimizedRMSD>
1.02375555

$$$$
