
 OpenBabel03252502503D

 33 35  0  0  0  0  0  0  0  0999 V2000
   44.6090   36.2250   43.9600 C   0  0  0  0  0  0  0  0  0  0  0  0
   44.8110   35.4130   45.0930 C   0  0  0  0  0  0  0  0  0  0  0  0
   45.5240   34.2270   44.9210 C   0  0  0  0  0  0  0  0  0  0  0  0
   45.9850   33.9100   43.6910 N   0  0  0  0  0  0  0  0  0  0  0  0
   45.7710   34.7180   42.6190 C   0  0  0  0  0  0  0  0  0  0  0  0
   45.0860   35.8730   42.7510 N   0  0  0  0  0  0  0  0  0  0  0  0
   44.0610   37.1540   44.0460 H   0  0  0  0  0  0  0  0  0  0  0  0
   44.4200   35.7150   46.0560 H   0  0  0  0  0  0  0  0  0  0  0  0
   48.5210   35.6910   42.0040 Cl  0  0  0  0  0  0  0  0  0  0  0  0
   47.5480   34.7100   40.9340 C   0  0  0  0  0  0  0  0  0  0  0  0
   46.3000   34.3150   41.3110 C   0  0  0  0  0  0  0  0  0  0  0  0
   45.4890   33.5240   40.4730 C   0  0  0  0  0  0  0  0  0  0  0  0
   46.0520   33.1830   39.2550 C   0  0  0  0  0  0  0  0  0  0  0  0
   47.3040   33.5810   38.8830 C   0  0  0  0  0  0  0  0  0  0  0  0
   48.0830   34.3530   39.7100 C   0  0  0  0  0  0  0  0  0  0  0  0
   44.5110   33.2050   40.7460 H   0  0  0  0  0  0  0  0  0  0  0  0
   45.5170   32.5730   38.5230 H   0  0  0  0  0  0  0  0  0  0  0  0
   47.7510   33.3180   37.9290 H   0  0  0  0  0  0  0  0  0  0  0  0
   49.0620   34.6810   39.4500 H   0  0  0  0  0  0  0  0  0  0  0  0
   45.7330   33.3750   46.1080 C   0  0  0  0  0  0  0  0  0  0  0  0
   46.3000   33.8780   46.9020 H   0  0  0  0  0  0  0  0  0  0  0  0
   44.7070   33.1660   46.5250 H   0  0  0  0  0  0  0  0  0  0  0  0
   46.3160   32.0120   45.7670 C   0  0  0  0  0  0  0  0  0  0  0  0
   45.5410   31.2680   45.5730 H   0  0  0  0  0  0  0  0  0  0  0  0
   47.0650   32.1370   44.9570 H   0  0  0  0  0  0  0  0  0  0  0  0
   47.1070   31.5900   46.9780 C   0  0  0  0  0  0  0  0  0  0  0  0
   47.4050   30.2730   47.3360 C   0  0  0  0  0  0  0  0  0  0  0  0
   47.1130   29.3660   46.7980 H   0  0  0  0  0  0  0  0  0  0  0  0
   48.1460   30.3870   48.5150 C   0  0  0  0  0  0  0  0  0  0  0  0
   48.5420   29.5330   49.0660 H   0  0  0  0  0  0  0  0  0  0  0  0
   48.2530   31.7290   48.8000 C   0  0  0  0  0  0  0  0  0  0  0  0
   48.7720   32.1630   49.6560 H   0  0  0  0  0  0  0  0  0  0  0  0
   47.6270   32.4120   47.8710 O   0  0  0  0  0  0  0  0  0  0  0  0
  1  7  1  0  0  0  0
  1  2  1  0  0  0  0
  2  8  1  0  0  0  0
  3  2  2  0  0  0  0
  3 20  1  0  0  0  0
  4  3  1  0  0  0  0
  5  6  1  0  0  0  0
  5  4  2  0  0  0  0
  6  1  2  0  0  0  0
 10 11  1  0  0  0  0
 10  9  1  0  0  0  0
 11  5  1  0  0  0  0
 12 16  1  0  0  0  0
 12 11  2  0  0  0  0
 13 12  1  0  0  0  0
 14 13  2  0  0  0  0
 14 15  1  0  0  0  0
 15 10  2  0  0  0  0
 17 13  1  0  0  0  0
 18 14  1  0  0  0  0
 19 15  1  0  0  0  0
 20 22  1  0  0  0  0
 20 21  1  0  0  0  0
 23 20  1  0  0  0  0
 23 26  1  0  0  0  0
 24 23  1  0  0  0  0
 25 23  1  0  0  0  0
 26 27  2  0  0  0  0
 26 33  1  0  0  0  0
 27 29  1  0  0  0  0
 28 27  1  0  0  0  0
 29 31  2  0  0  0  0
 29 30  1  0  0  0  0
 31 32  1  0  0  0  0
 33 31  1  0  0  0  0
M  END
>  <minimizedAffinity>
-5.56106043

>  <minimizedRMSD>
0.497079164

$$$$
