
 OpenBabel03252509003D

 44 46  0  0  1  0  0  0  0  0999 V2000
   47.3700   33.9150   42.9070 N   0  0  0  0  0  0  0  0  0  0  0  0
   46.9230   35.2000   42.5120 C   0  0  0  0  0  0  0  0  0  0  0  0
   45.4700   35.4970   42.8210 C   0  0  0  0  0  0  0  0  0  0  0  0
   44.9480   34.8350   44.0680 C   0  0  0  0  0  0  0  0  0  0  0  0
   46.0440   34.1070   44.8080 C   0  0  0  0  0  0  0  0  0  0  0  0
   46.6060   33.1070   43.7310 C   0  0  2  0  0  0  0  0  0  0  0  0
   47.0990   35.4730   41.4660 H   0  0  0  0  0  0  0  0  0  0  0  0
   47.5260   35.9400   43.1070 H   0  0  0  0  0  0  0  0  0  0  0  0
   44.8320   35.2990   41.9340 H   0  0  0  0  0  0  0  0  0  0  0  0
   45.3660   36.5970   42.9940 H   0  0  0  0  0  0  0  0  0  0  0  0
   44.4980   35.5360   44.7870 H   0  0  0  0  0  0  0  0  0  0  0  0
   44.1820   34.0940   43.7910 H   0  0  0  0  0  0  0  0  0  0  0  0
   45.6030   33.5400   45.6360 H   0  0  0  0  0  0  0  0  0  0  0  0
   46.8830   34.7380   45.1000 H   0  0  0  0  0  0  0  0  0  0  0  0
   45.7440   32.5710   43.2850 H   0  0  0  0  0  0  0  0  0  0  0  0
   48.2790   33.2960   41.9820 C   0  0  0  0  0  0  0  0  0  0  0  0
   48.9460   34.0930   41.5810 H   0  0  0  0  0  0  0  0  0  0  0  0
   48.9090   32.5350   42.4860 H   0  0  0  0  0  0  0  0  0  0  0  0
   47.4780   32.6150   40.9150 C   0  0  0  0  0  0  0  0  0  0  0  0
   46.4130   32.9740   40.9190 H   0  0  0  0  0  0  0  0  0  0  0  0
   47.4360   31.5170   41.0270 H   0  0  0  0  0  0  0  0  0  0  0  0
   49.3690   32.3610   37.6810 C   0  0  0  0  0  0  0  0  0  0  0  0
   48.8320   32.0400   38.9410 C   0  0  0  0  0  0  0  0  0  0  0  0
   48.0400   32.9640   39.5850 C   0  0  0  0  0  0  0  0  0  0  0  0
   47.8220   34.1300   38.9700 N   0  0  0  0  0  0  0  0  0  0  0  0
   48.3390   34.4300   37.7650 C   0  0  0  0  0  0  0  0  0  0  0  0
   49.1200   33.5430   37.1090 N   0  0  0  0  0  0  0  0  0  0  0  0
   49.9870   31.7010   37.1250 H   0  0  0  0  0  0  0  0  0  0  0  0
   49.0870   31.0630   39.3250 H   0  0  0  0  0  0  0  0  0  0  0  0
   48.1400   35.3920   37.2920 H   0  0  0  0  0  0  0  0  0  0  0  0
   47.3920   32.2750   44.5120 O   0  0  0  0  0  0  0  0  0  0  0  0
   47.0390   29.9590   43.2520 O   0  0  0  0  0  0  0  0  0  0  0  0
   46.8100   30.6970   44.5760 P   0  0  2  0  0  0  0  0  0  0  0  0
   45.1050   30.8320   44.7000 O   0  0  0  0  0  0  0  0  0  0  0  0
   44.8840   31.5810   45.3190 H   0  0  0  0  0  0  0  0  0  0  0  0
   47.3510   29.8520   45.8880 O   0  0  0  0  0  0  0  0  0  0  0  0
   47.6510   30.2720   47.1540 C   0  0  0  0  0  0  0  0  0  0  0  0
   46.8060   31.1530   47.8370 C   0  0  0  0  0  0  0  0  0  0  0  0
   45.8760   31.5960   47.5000 H   0  0  0  0  0  0  0  0  0  0  0  0
   47.4260   31.3500   49.0730 C   0  0  0  0  0  0  0  0  0  0  0  0
   46.9640   32.0140   49.8210 H   0  0  0  0  0  0  0  0  0  0  0  0
   48.5940   30.5860   49.0680 C   0  0  0  0  0  0  0  0  0  0  0  0
   49.1920   30.6360   49.9690 H   0  0  0  0  0  0  0  0  0  0  0  0
   48.6810   29.9710   47.9180 O   0  0  0  0  0  0  0  0  0  0  0  0
  1  6  1  0  0  0  0
  2  3  1  0  0  0  0
  2  1  1  0  0  0  0
  2  8  1  0  0  0  0
  3 10  1  0  0  0  0
  3  4  1  0  0  0  0
  4 11  1  0  0  0  0
  4  5  1  0  0  0  0
  5 14  1  0  0  0  0
  5 13  1  0  0  0  0
  6 15  1  6  0  0  0
  6 31  1  0  0  0  0
  6  5  1  0  0  0  0
  7  2  1  0  0  0  0
  9  3  1  0  0  0  0
 12  4  1  0  0  0  0
 16 18  1  0  0  0  0
 16  1  1  0  0  0  0
 17 16  1  0  0  0  0
 19 20  1  0  0  0  0
 19 21  1  0  0  0  0
 19 16  1  0  0  0  0
 22 23  1  0  0  0  0
 23 29  1  0  0  0  0
 23 24  2  0  0  0  0
 24 19  1  0  0  0  0
 25 24  1  0  0  0  0
 26 25  2  0  0  0  0
 27 22  2  0  0  0  0
 27 26  1  0  0  0  0
 28 22  1  0  0  0  0
 30 26  1  0  0  0  0
 31 33  1  0  0  0  0
 33 32  2  6  0  0  0
 33 34  1  0  0  0  0
 33 36  1  0  0  0  0
 34 35  1  0  0  0  0
 36 37  1  0  0  0  0
 37 38  2  0  0  0  0
 37 44  1  0  0  0  0
 38 40  1  0  0  0  0
 39 38  1  0  0  0  0
 40 41  1  0  0  0  0
 42 40  2  0  0  0  0
 42 43  1  0  0  0  0
 44 42  1  0  0  0  0
M  END
>  <minimizedAffinity>
-4.38916445

>  <minimizedRMSD>
1.33932805

$$$$
