
 OpenBabel03252509273D

 29 31  0  0  1  0  0  0  0  0999 V2000
   47.1350   35.2480   41.7920 C   0  0  1  0  0  0  0  0  0  0  0  0
   48.6530   35.5470   41.9030 C   0  0  0  0  0  0  0  0  0  0  0  0
   47.9960   34.4110   41.0630 C   0  0  2  0  0  0  0  0  0  0  0  0
   46.6010   36.1120   41.3680 H   0  0  0  0  0  0  0  0  0  0  0  0
   49.0550   36.3430   41.2610 H   0  0  0  0  0  0  0  0  0  0  0  0
   49.1970   35.2090   42.7910 H   0  0  0  0  0  0  0  0  0  0  0  0
   48.1940   33.3720   41.4560 H   0  0  0  0  0  0  0  0  0  0  0  0
   44.9810   34.8320   44.8310 C   0  0  0  0  0  0  0  0  0  0  0  0
   45.4700   35.3690   43.6110 C   0  0  0  0  0  0  0  0  0  0  0  0
   46.5840   34.7720   43.1110 C   0  0  0  0  0  0  0  0  0  0  0  0
   47.1900   33.7200   43.7530 N   0  0  0  0  0  0  0  0  0  0  0  0
   46.6920   33.2400   44.9140 C   0  0  0  0  0  0  0  0  0  0  0  0
   45.5840   33.7990   45.4520 N   0  0  0  0  0  0  0  0  0  0  0  0
   44.0890   35.2940   45.2480 H   0  0  0  0  0  0  0  0  0  0  0  0
   47.1380   32.4170   45.4500 H   0  0  0  0  0  0  0  0  0  0  0  0
   44.8460   36.4700   42.9800 N   0  0  0  0  0  0  0  0  0  0  0  0
   43.9740   36.5740   42.4210 H   0  0  0  0  0  0  0  0  0  0  0  0
   45.5050   37.2740   43.2060 H   0  0  0  0  0  0  0  0  0  0  0  0
   48.0960   34.4820   39.5580 C   0  0  0  0  0  0  0  0  0  0  0  0
   49.1180   34.2640   39.2480 H   0  0  0  0  0  0  0  0  0  0  0  0
   47.7720   35.4680   39.1650 H   0  0  0  0  0  0  0  0  0  0  0  0
   47.1830   33.4050   39.0540 C   0  0  0  0  0  0  0  0  0  0  0  0
   46.7530   32.2890   39.7310 C   0  0  0  0  0  0  0  0  0  0  0  0
   47.0210   32.0340   40.7330 H   0  0  0  0  0  0  0  0  0  0  0  0
   45.9260   31.5960   38.8570 C   0  0  0  0  0  0  0  0  0  0  0  0
   45.4170   30.6630   39.0740 H   0  0  0  0  0  0  0  0  0  0  0  0
   45.9000   32.3400   37.6820 C   0  0  0  0  0  0  0  0  0  0  0  0
   45.3140   31.9910   36.8490 H   0  0  0  0  0  0  0  0  0  0  0  0
   46.6540   33.3970   37.8440 O   0  0  0  0  0  0  0  0  0  0  0  0
  1  4  1  6  0  0  0
  1  2  1  0  0  0  0
  1 10  1  0  0  0  0
  2  6  1  0  0  0  0
  3  7  1  1  0  0  0
  3  1  1  0  0  0  0
  3  2  1  0  0  0  0
  5  2  1  0  0  0  0
  8 14  1  0  0  0  0
  8 13  1  0  0  0  0
  9  8  2  0  0  0  0
 10  9  1  0  0  0  0
 10 11  2  0  0  0  0
 11 12  1  0  0  0  0
 12 15  1  0  0  0  0
 12 13  2  0  0  0  0
 16 18  1  0  0  0  0
 16  9  1  0  0  0  0
 17 16  1  0  0  0  0
 19  3  1  0  0  0  0
 20 19  1  0  0  0  0
 21 19  1  0  0  0  0
 22 19  1  0  0  0  0
 22 23  2  0  0  0  0
 23 24  1  0  0  0  0
 25 26  1  0  0  0  0
 25 23  1  0  0  0  0
 27 29  1  0  0  0  0
 27 25  2  0  0  0  0
 28 27  1  0  0  0  0
 29 22  1  0  0  0  0
M  END
>  <minimizedAffinity>
-4.47406292

>  <minimizedRMSD>
1.3015275

$$$$
