
 OpenBabel03252509003D

 44 46  0  0  1  0  0  0  0  0999 V2000
   46.8100   34.3620   43.5970 N   0  0  0  0  0  0  0  0  0  0  0  0
   46.3900   35.4870   42.8450 C   0  0  0  0  0  0  0  0  0  0  0  0
   44.8980   35.7500   42.8630 C   0  0  0  0  0  0  0  0  0  0  0  0
   44.2110   35.3640   44.1450 C   0  0  0  0  0  0  0  0  0  0  0  0
   45.2030   34.9040   45.1870 C   0  0  0  0  0  0  0  0  0  0  0  0
   45.9540   33.7200   44.4740 C   0  0  2  0  0  0  0  0  0  0  0  0
   46.7160   35.5190   41.7990 H   0  0  0  0  0  0  0  0  0  0  0  0
   46.8710   36.3840   43.3230 H   0  0  0  0  0  0  0  0  0  0  0  0
   44.4110   35.3080   41.9690 H   0  0  0  0  0  0  0  0  0  0  0  0
   44.7340   36.8510   42.7490 H   0  0  0  0  0  0  0  0  0  0  0  0
   43.6350   36.1820   44.6030 H   0  0  0  0  0  0  0  0  0  0  0  0
   43.5210   34.5290   43.9500 H   0  0  0  0  0  0  0  0  0  0  0  0
   44.6570   34.5170   46.0560 H   0  0  0  0  0  0  0  0  0  0  0  0
   45.9670   35.6400   45.4350 H   0  0  0  0  0  0  0  0  0  0  0  0
   45.1880   33.0380   44.0520 H   0  0  0  0  0  0  0  0  0  0  0  0
   47.8700   33.6070   42.9870 C   0  0  0  0  0  0  0  0  0  0  0  0
   48.5440   34.3280   42.4700 H   0  0  0  0  0  0  0  0  0  0  0  0
   48.4640   33.0600   43.7480 H   0  0  0  0  0  0  0  0  0  0  0  0
   47.2610   32.6060   42.0540 C   0  0  0  0  0  0  0  0  0  0  0  0
   46.1480   32.7410   41.9880 H   0  0  0  0  0  0  0  0  0  0  0  0
   47.4290   31.5580   42.3590 H   0  0  0  0  0  0  0  0  0  0  0  0
   49.1160   32.0500   38.8370 C   0  0  0  0  0  0  0  0  0  0  0  0
   48.6030   31.8540   40.1320 C   0  0  0  0  0  0  0  0  0  0  0  0
   47.7980   32.8230   40.6860 C   0  0  0  0  0  0  0  0  0  0  0  0
   47.5450   33.9120   39.9540 N   0  0  0  0  0  0  0  0  0  0  0  0
   48.0400   34.0930   38.7170 C   0  0  0  0  0  0  0  0  0  0  0  0
   48.8330   33.1590   38.1460 N   0  0  0  0  0  0  0  0  0  0  0  0
   49.7430   31.3480   38.3450 H   0  0  0  0  0  0  0  0  0  0  0  0
   48.8860   30.9280   40.6130 H   0  0  0  0  0  0  0  0  0  0  0  0
   47.8130   34.9950   38.1470 H   0  0  0  0  0  0  0  0  0  0  0  0
   46.6370   33.1470   45.5360 O   0  0  0  0  0  0  0  0  0  0  0  0
   45.4420   30.9570   44.6130 O   0  0  0  0  0  0  0  0  0  0  0  0
   46.1890   31.5500   45.8140 P   0  0  2  0  0  0  0  0  0  0  0  0
   45.0160   31.6020   47.0630 O   0  0  0  0  0  0  0  0  0  0  0  0
   45.2960   32.2760   47.7420 H   0  0  0  0  0  0  0  0  0  0  0  0
   47.4380   30.5990   46.3290 O   0  0  0  0  0  0  0  0  0  0  0  0
   48.0970   30.5690   47.5270 C   0  0  0  0  0  0  0  0  0  0  0  0
   48.1080   31.6870   48.3690 C   0  0  0  0  0  0  0  0  0  0  0  0
   47.6400   32.6530   48.2170 H   0  0  0  0  0  0  0  0  0  0  0  0
   48.8630   31.2900   49.4730 C   0  0  0  0  0  0  0  0  0  0  0  0
   49.0330   31.9910   50.3060 H   0  0  0  0  0  0  0  0  0  0  0  0
   49.2620   29.9720   49.2400 C   0  0  0  0  0  0  0  0  0  0  0  0
   49.8640   29.5190   50.0170 H   0  0  0  0  0  0  0  0  0  0  0  0
   48.7860   29.5950   48.0830 O   0  0  0  0  0  0  0  0  0  0  0  0
  1  6  1  0  0  0  0
  2  3  1  0  0  0  0
  2  8  1  0  0  0  0
  2  1  1  0  0  0  0
  3  4  1  0  0  0  0
  4 11  1  0  0  0  0
  4  5  1  0  0  0  0
  5 14  1  0  0  0  0
  5 13  1  0  0  0  0
  6 15  1  6  0  0  0
  6  5  1  0  0  0  0
  6 31  1  0  0  0  0
  7  2  1  0  0  0  0
  9  3  1  0  0  0  0
 10  3  1  0  0  0  0
 12  4  1  0  0  0  0
 16  1  1  0  0  0  0
 16 18  1  0  0  0  0
 17 16  1  0  0  0  0
 19 21  1  0  0  0  0
 19 16  1  0  0  0  0
 20 19  1  0  0  0  0
 22 23  1  0  0  0  0
 23 29  1  0  0  0  0
 23 24  2  0  0  0  0
 24 19  1  0  0  0  0
 25 24  1  0  0  0  0
 26 25  2  0  0  0  0
 27 26  1  0  0  0  0
 27 22  2  0  0  0  0
 28 22  1  0  0  0  0
 30 26  1  0  0  0  0
 31 33  1  0  0  0  0
 33 32  2  6  0  0  0
 33 36  1  0  0  0  0
 33 34  1  0  0  0  0
 34 35  1  0  0  0  0
 36 37  1  0  0  0  0
 37 44  1  0  0  0  0
 37 38  2  0  0  0  0
 38 40  1  0  0  0  0
 39 38  1  0  0  0  0
 40 41  1  0  0  0  0
 42 40  2  0  0  0  0
 42 43  1  0  0  0  0
 44 42  1  0  0  0  0
M  END
>  <minimizedAffinity>
-4.55730581

>  <minimizedRMSD>
1.31834626

$$$$
