
 OpenBabel03252508593D

 44 46  0  0  1  0  0  0  0  0999 V2000
   47.2850   33.9950   42.9290 N   0  0  0  0  0  0  0  0  0  0  0  0
   46.7830   35.2270   42.4400 C   0  0  0  0  0  0  0  0  0  0  0  0
   45.3170   35.4800   42.7250 C   0  0  0  0  0  0  0  0  0  0  0  0
   44.8190   34.8890   44.0160 C   0  0  0  0  0  0  0  0  0  0  0  0
   45.9430   34.2670   44.8090 C   0  0  0  0  0  0  0  0  0  0  0  0
   46.5540   33.2170   43.8090 C   0  0  2  0  0  0  0  0  0  0  0  0
   46.9510   35.4300   41.3760 H   0  0  0  0  0  0  0  0  0  0  0  0
   47.3500   36.0350   42.9800 H   0  0  0  0  0  0  0  0  0  0  0  0
   44.6930   35.1890   41.8540 H   0  0  0  0  0  0  0  0  0  0  0  0
   45.1630   36.5840   42.8160 H   0  0  0  0  0  0  0  0  0  0  0  0
   44.3360   35.6200   44.6810 H   0  0  0  0  0  0  0  0  0  0  0  0
   44.0890   34.0960   43.7940 H   0  0  0  0  0  0  0  0  0  0  0  0
   45.5240   33.7420   45.6750 H   0  0  0  0  0  0  0  0  0  0  0  0
   46.7520   34.9540   45.0550 H   0  0  0  0  0  0  0  0  0  0  0  0
   45.7190   32.6110   43.4020 H   0  0  0  0  0  0  0  0  0  0  0  0
   48.2250   33.3520   42.0530 C   0  0  0  0  0  0  0  0  0  0  0  0
   48.8940   34.1400   41.6390 H   0  0  0  0  0  0  0  0  0  0  0  0
   48.8500   32.6180   42.6020 H   0  0  0  0  0  0  0  0  0  0  0  0
   47.4600   32.6200   40.9920 C   0  0  0  0  0  0  0  0  0  0  0  0
   46.3830   32.9400   40.9800 H   0  0  0  0  0  0  0  0  0  0  0  0
   47.4570   31.5250   41.1260 H   0  0  0  0  0  0  0  0  0  0  0  0
   49.3520   32.3530   37.7600 C   0  0  0  0  0  0  0  0  0  0  0  0
   48.8150   32.0380   39.0220 C   0  0  0  0  0  0  0  0  0  0  0  0
   48.0220   32.9630   39.6610 C   0  0  0  0  0  0  0  0  0  0  0  0
   47.8020   34.1260   39.0400 N   0  0  0  0  0  0  0  0  0  0  0  0
   48.3190   34.4200   37.8340 C   0  0  0  0  0  0  0  0  0  0  0  0
   49.1010   33.5310   37.1820 N   0  0  0  0  0  0  0  0  0  0  0  0
   49.9710   31.6910   37.2080 H   0  0  0  0  0  0  0  0  0  0  0  0
   49.0720   31.0630   39.4100 H   0  0  0  0  0  0  0  0  0  0  0  0
   48.1190   35.3800   37.3560 H   0  0  0  0  0  0  0  0  0  0  0  0
   47.3730   32.4800   44.6490 O   0  0  0  0  0  0  0  0  0  0  0  0
   46.6830   30.2010   43.4620 O   0  0  0  0  0  0  0  0  0  0  0  0
   46.8660   30.8850   44.8230 P   0  0  2  0  0  0  0  0  0  0  0  0
   45.2820   30.9650   45.4750 O   0  0  0  0  0  0  0  0  0  0  0  0
   45.2520   31.6850   46.1640 H   0  0  0  0  0  0  0  0  0  0  0  0
   47.8010   30.0090   45.8640 O   0  0  0  0  0  0  0  0  0  0  0  0
   48.1700   30.2620   47.1570 C   0  0  0  0  0  0  0  0  0  0  0  0
   47.6260   31.3440   47.8590 C   0  0  0  0  0  0  0  0  0  0  0  0
   46.9010   32.0740   47.5190 H   0  0  0  0  0  0  0  0  0  0  0  0
   48.2260   31.2850   49.1180 C   0  0  0  0  0  0  0  0  0  0  0  0
   47.9730   32.0330   49.8850 H   0  0  0  0  0  0  0  0  0  0  0  0
   49.0870   30.1850   49.1070 C   0  0  0  0  0  0  0  0  0  0  0  0
   49.6320   30.0060   50.0250 H   0  0  0  0  0  0  0  0  0  0  0  0
   49.0170   29.6180   47.9320 O   0  0  0  0  0  0  0  0  0  0  0  0
  1  6  1  0  0  0  0
  2  3  1  0  0  0  0
  2  1  1  0  0  0  0
  2  8  1  0  0  0  0
  3 10  1  0  0  0  0
  3  4  1  0  0  0  0
  4 11  1  0  0  0  0
  4  5  1  0  0  0  0
  5 14  1  0  0  0  0
  5 13  1  0  0  0  0
  6 15  1  6  0  0  0
  6 31  1  0  0  0  0
  6  5  1  0  0  0  0
  7  2  1  0  0  0  0
  9  3  1  0  0  0  0
 12  4  1  0  0  0  0
 16 18  1  0  0  0  0
 16  1  1  0  0  0  0
 17 16  1  0  0  0  0
 19 21  1  0  0  0  0
 19 16  1  0  0  0  0
 20 19  1  0  0  0  0
 22 23  1  0  0  0  0
 23 29  1  0  0  0  0
 23 24  2  0  0  0  0
 24 19  1  0  0  0  0
 25 24  1  0  0  0  0
 26 25  2  0  0  0  0
 27 22  2  0  0  0  0
 27 26  1  0  0  0  0
 28 22  1  0  0  0  0
 30 26  1  0  0  0  0
 31 33  1  0  0  0  0
 33 32  2  6  0  0  0
 33 34  1  0  0  0  0
 33 36  1  0  0  0  0
 34 35  1  0  0  0  0
 36 37  1  0  0  0  0
 37 38  2  0  0  0  0
 37 44  1  0  0  0  0
 38 40  1  0  0  0  0
 39 38  1  0  0  0  0
 40 41  1  0  0  0  0
 42 40  2  0  0  0  0
 42 43  1  0  0  0  0
 44 42  1  0  0  0  0
M  END
>  <minimizedAffinity>
-4.42225218

>  <minimizedRMSD>
1.06714725

$$$$
