
 OpenBabel03252503343D

 21 22  0  0  0  0  0  0  0  0999 V2000
   46.2020   33.9690   40.9960 C   0  0  0  0  0  0  0  0  0  0  0  0
   45.1510   33.3260   41.2610 O   0  0  0  0  0  0  0  0  0  0  0  0
   46.6930   34.7950   42.0420 N   0  0  0  0  0  0  0  0  0  0  0  0
   47.5830   35.3450   41.8730 H   0  0  0  0  0  0  0  0  0  0  0  0
   44.4700   35.9360   44.8150 C   0  0  0  0  0  0  0  0  0  0  0  0
   45.1050   35.9140   43.5600 C   0  0  0  0  0  0  0  0  0  0  0  0
   46.0090   34.8870   43.2890 C   0  0  0  0  0  0  0  0  0  0  0  0
   46.2460   33.9450   44.2430 N   0  0  0  0  0  0  0  0  0  0  0  0
   45.6050   34.0040   45.4550 C   0  0  0  0  0  0  0  0  0  0  0  0
   44.7370   34.9850   45.7220 N   0  0  0  0  0  0  0  0  0  0  0  0
   43.7880   36.7780   44.9160 H   0  0  0  0  0  0  0  0  0  0  0  0
   44.9210   36.6600   42.7950 H   0  0  0  0  0  0  0  0  0  0  0  0
   45.8180   33.2330   46.1970 H   0  0  0  0  0  0  0  0  0  0  0  0
   46.8600   33.8620   39.6980 C   0  0  0  0  0  0  0  0  0  0  0  0
   48.1030   34.3990   39.4390 C   0  0  0  0  0  0  0  0  0  0  0  0
   48.8070   34.9550   40.0390 H   0  0  0  0  0  0  0  0  0  0  0  0
   48.3490   34.0740   38.1070 C   0  0  0  0  0  0  0  0  0  0  0  0
   49.1980   34.2790   37.4500 H   0  0  0  0  0  0  0  0  0  0  0  0
   47.2410   33.3590   37.6370 C   0  0  0  0  0  0  0  0  0  0  0  0
   47.0170   32.9170   36.6570 H   0  0  0  0  0  0  0  0  0  0  0  0
   46.3920   33.2730   38.6480 O   0  0  0  0  0  0  0  0  0  0  0  0
  1  2  2  0  0  0  0
  1  3  1  0  0  0  0
  3  7  1  0  0  0  0
  4  3  1  0  0  0  0
  5 11  1  0  0  0  0
  5 10  1  0  0  0  0
  6  5  2  0  0  0  0
  7  6  1  0  0  0  0
  7  8  2  0  0  0  0
  8  9  1  0  0  0  0
  9 10  2  0  0  0  0
  9 13  1  0  0  0  0
 12  6  1  0  0  0  0
 14  1  1  0  0  0  0
 15 14  2  0  0  0  0
 15 16  1  0  0  0  0
 17 15  1  0  0  0  0
 18 17  1  0  0  0  0
 19 17  2  0  0  0  0
 19 21  1  0  0  0  0
 20 19  1  0  0  0  0
 21 14  1  0  0  0  0
M  END
>  <minimizedAffinity>
-4.28723145

>  <minimizedRMSD>
0.515382051

$$$$
