
 OpenBabel03242519283D

 42 45  0  0  0  0  0  0  0  0999 V2000
   47.9250   33.7290   42.8690 C   0  0  0  0  0  0  0  0  0  0  0  0
   48.6260   34.9420   42.6750 C   0  0  0  0  0  0  0  0  0  0  0  0
   49.9920   34.9030   42.3690 C   0  0  0  0  0  0  0  0  0  0  0  0
   50.5680   33.6590   42.2770 N   0  0  0  0  0  0  0  0  0  0  0  0
   49.8420   32.5110   42.4760 C   0  0  0  0  0  0  0  0  0  0  0  0
   48.5510   32.5490   42.7650 N   0  0  0  0  0  0  0  0  0  0  0  0
   48.2520   35.9320   42.7280 H   0  0  0  0  0  0  0  0  0  0  0  0
   50.5890   35.7890   42.2070 H   0  0  0  0  0  0  0  0  0  0  0  0
   46.4970   33.8890   43.1920 C   0  0  0  0  0  0  0  0  0  0  0  0
   45.7990   34.8960   42.4150 C   0  0  0  0  0  0  0  0  0  0  0  0
   45.3730   36.0890   43.1760 C   0  0  0  0  0  0  0  0  0  0  0  0
   44.5130   35.6990   44.3810 C   0  0  0  0  0  0  0  0  0  0  0  0
   44.9910   34.4900   45.0990 C   0  0  0  0  0  0  0  0  0  0  0  0
   46.4320   34.1490   44.7200 C   0  0  0  0  0  0  0  0  0  0  0  0
   46.0100   32.8750   43.1050 H   0  0  0  0  0  0  0  0  0  0  0  0
   44.8770   34.4650   41.9440 H   0  0  0  0  0  0  0  0  0  0  0  0
   46.4040   35.2620   41.5420 H   0  0  0  0  0  0  0  0  0  0  0  0
   44.7200   36.7370   42.5330 H   0  0  0  0  0  0  0  0  0  0  0  0
   46.1470   36.7440   43.5720 H   0  0  0  0  0  0  0  0  0  0  0  0
   44.4880   36.5610   45.0880 H   0  0  0  0  0  0  0  0  0  0  0  0
   43.4780   35.5220   43.9740 H   0  0  0  0  0  0  0  0  0  0  0  0
   44.9790   34.5830   46.1970 H   0  0  0  0  0  0  0  0  0  0  0  0
   44.3790   33.5930   44.8320 H   0  0  0  0  0  0  0  0  0  0  0  0
   47.0340   35.0510   44.9010 H   0  0  0  0  0  0  0  0  0  0  0  0
   46.7350   33.2470   45.2590 H   0  0  0  0  0  0  0  0  0  0  0  0
   50.6130   31.2810   42.3460 C   0  0  0  0  0  0  0  0  0  0  0  0
   50.5220   30.5930   41.1880 N   0  0  0  0  0  0  0  0  0  0  0  0
   51.2990   29.4910   41.2480 C   0  0  0  0  0  0  0  0  0  0  0  0
   51.8800   29.4990   42.4690 N   0  0  0  0  0  0  0  0  0  0  0  0
   51.4690   30.5880   43.1470 N   0  0  0  0  0  0  0  0  0  0  0  0
   51.4410   28.7390   40.4810 H   0  0  0  0  0  0  0  0  0  0  0  0
   52.8120   28.5230   43.0340 C   0  0  0  0  0  0  0  0  0  0  0  0
   52.8190   27.6450   42.3580 H   0  0  0  0  0  0  0  0  0  0  0  0
   52.4370   28.1780   44.0150 H   0  0  0  0  0  0  0  0  0  0  0  0
   54.1700   29.1110   43.1860 C   0  0  0  0  0  0  0  0  0  0  0  0
   54.7030   29.3600   44.4290 C   0  0  0  0  0  0  0  0  0  0  0  0
   54.2510   29.1800   45.4030 H   0  0  0  0  0  0  0  0  0  0  0  0
   55.9770   29.9070   44.2510 C   0  0  0  0  0  0  0  0  0  0  0  0
   56.6190   30.1960   45.0740 H   0  0  0  0  0  0  0  0  0  0  0  0
   56.1250   29.9490   42.8710 C   0  0  0  0  0  0  0  0  0  0  0  0
   57.0280   30.3300   42.4120 H   0  0  0  0  0  0  0  0  0  0  0  0
   55.0420   29.4730   42.2930 O   0  0  0  0  0  0  0  0  0  0  0  0
  1  9  1  0  0  0  0
  2  7  1  0  0  0  0
  2  1  2  0  0  0  0
  3  2  1  0  0  0  0
  4  3  2  0  0  0  0
  4  5  1  0  0  0  0
  5  6  2  0  0  0  0
  6  1  1  0  0  0  0
  8  3  1  0  0  0  0
  9 14  1  0  0  0  0
 10 11  1  0  0  0  0
 10  9  1  0  0  0  0
 11 19  1  0  0  0  0
 11 12  1  0  0  0  0
 12 20  1  0  0  0  0
 12 13  1  0  0  0  0
 13 22  1  0  0  0  0
 14 24  1  0  0  0  0
 14 13  1  0  0  0  0
 14 25  1  0  0  0  0
 15  9  1  0  0  0  0
 16 10  1  0  0  0  0
 17 10  1  0  0  0  0
 18 11  1  0  0  0  0
 21 12  1  0  0  0  0
 23 13  1  0  0  0  0
 26  5  1  0  0  0  0
 26 30  2  0  0  0  0
 27 28  2  0  0  0  0
 27 26  1  0  0  0  0
 28 29  1  0  0  0  0
 29 32  1  0  0  0  0
 29 30  1  0  0  0  0
 31 28  1  0  0  0  0
 32 35  1  0  0  0  0
 32 34  1  0  0  0  0
 33 32  1  0  0  0  0
 35 36  2  0  0  0  0
 36 37  1  0  0  0  0
 38 36  1  0  0  0  0
 38 39  1  0  0  0  0
 40 38  2  0  0  0  0
 41 40  1  0  0  0  0
 42 40  1  0  0  0  0
 42 35  1  0  0  0  0
M  END
>  <minimizedAffinity>
-4.38443756

>  <minimizedRMSD>
1.57475305

$$$$
