
 OpenBabel03252508473D

 44 46  0  0  0  0  0  0  0  0999 V2000
   42.9900   32.5130   41.5350 C   0  0  0  0  0  0  0  0  0  0  0  0
   43.6170   31.7190   41.0290 H   0  0  0  0  0  0  0  0  0  0  0  0
   42.3810   33.0080   40.7440 H   0  0  0  0  0  0  0  0  0  0  0  0
   43.6860   34.8920   41.8270 C   0  0  0  0  0  0  0  0  0  0  0  0
   43.8670   33.5500   42.1410 C   0  0  0  0  0  0  0  0  0  0  0  0
   44.8700   33.2280   43.0180 C   0  0  0  0  0  0  0  0  0  0  0  0
   45.6630   34.1960   43.5650 C   0  0  0  0  0  0  0  0  0  0  0  0
   45.5000   35.5160   43.2670 C   0  0  0  0  0  0  0  0  0  0  0  0
   44.4780   35.8150   42.3760 C   0  0  0  0  0  0  0  0  0  0  0  0
   45.0000   32.1710   43.2570 H   0  0  0  0  0  0  0  0  0  0  0  0
   46.4610   33.9520   44.2600 H   0  0  0  0  0  0  0  0  0  0  0  0
   46.0800   36.3450   43.6510 H   0  0  0  0  0  0  0  0  0  0  0  0
   44.2900   36.8480   42.0920 H   0  0  0  0  0  0  0  0  0  0  0  0
   40.3920   35.9430   40.2900 C   0  0  0  0  0  0  0  0  0  0  0  0
   41.3680   35.6910   41.2710 C   0  0  0  0  0  0  0  0  0  0  0  0
   42.6030   35.1900   40.8860 C   0  0  0  0  0  0  0  0  0  0  0  0
   42.8020   34.9670   39.5590 N   0  0  0  0  0  0  0  0  0  0  0  0
   41.8540   35.2150   38.6270 C   0  0  0  0  0  0  0  0  0  0  0  0
   40.6600   35.7000   39.0010 N   0  0  0  0  0  0  0  0  0  0  0  0
   39.4310   36.3350   40.6040 H   0  0  0  0  0  0  0  0  0  0  0  0
   41.1960   35.8720   42.3210 H   0  0  0  0  0  0  0  0  0  0  0  0
   42.1120   35.0030   37.5870 H   0  0  0  0  0  0  0  0  0  0  0  0
   42.0610   31.9130   42.4580 N   0  0  0  0  0  0  0  0  0  0  0  0
   42.0880   32.4490   43.3600 H   0  0  0  0  0  0  0  0  0  0  0  0
   40.4420   32.0300   41.9060 S   0  0  0  0  0  0  0  0  0  0  0  0
   39.7160   33.1500   42.5930 O   0  0  0  0  0  0  0  0  0  0  0  0
   39.0860   33.7970   42.1590 H   0  0  0  0  0  0  0  0  0  0  0  0
   39.7190   30.7450   42.1020 O   0  0  0  0  0  0  0  0  0  0  0  0
   39.4700   30.4540   43.0360 H   0  0  0  0  0  0  0  0  0  0  0  0
   40.5050   32.3480   40.2610 O   0  0  0  0  0  0  0  0  0  0  0  0
   39.6040   31.5400   39.6070 C   0  0  0  0  0  0  0  0  0  0  0  0
   38.9030   32.1270   39.0090 H   0  0  0  0  0  0  0  0  0  0  0  0
   39.0030   30.8840   40.2500 H   0  0  0  0  0  0  0  0  0  0  0  0
   40.3750   30.5660   38.7010 C   0  0  0  0  0  0  0  0  0  0  0  0
   41.2840   31.0180   38.3100 H   0  0  0  0  0  0  0  0  0  0  0  0
   40.6660   29.6920   39.3470 H   0  0  0  0  0  0  0  0  0  0  0  0
   39.4860   30.0780   37.6320 C   0  0  0  0  0  0  0  0  0  0  0  0
   38.8970   28.8450   37.5630 C   0  0  0  0  0  0  0  0  0  0  0  0
   38.9780   28.0200   38.2720 H   0  0  0  0  0  0  0  0  0  0  0  0
   38.1520   28.8460   36.3810 C   0  0  0  0  0  0  0  0  0  0  0  0
   37.5790   27.9630   36.0910 H   0  0  0  0  0  0  0  0  0  0  0  0
   38.3450   30.0980   35.8050 C   0  0  0  0  0  0  0  0  0  0  0  0
   37.8200   30.2410   34.8710 H   0  0  0  0  0  0  0  0  0  0  0  0
   39.1380   30.7980   36.5720 O   0  0  0  0  0  0  0  0  0  0  0  0
  1  5  1  0  0  0  0
  1 23  1  0  0  0  0
  2  1  1  0  0  0  0
  3  1  1  0  0  0  0
  4  5  2  0  0  0  0
  4  9  1  0  0  0  0
  5  6  1  0  0  0  0
  6 10  1  0  0  0  0
  6  7  2  0  0  0  0
  7 11  1  0  0  0  0
  8  7  1  0  0  0  0
  8 12  1  0  0  0  0
  9  8  2  0  0  0  0
 13  9  1  0  0  0  0
 14 20  1  0  0  0  0
 14 15  1  0  0  0  0
 15 21  1  0  0  0  0
 16 15  2  0  0  0  0
 16  4  1  0  0  0  0
 17 16  1  0  0  0  0
 18 19  1  0  0  0  0
 18 17  2  0  0  0  0
 19 14  2  0  0  0  0
 22 18  1  0  0  0  0
 23 24  1  0  0  0  0
 25 28  1  0  0  0  0
 25 23  1  0  0  0  0
 25 26  1  0  0  0  0
 27 26  1  0  0  0  0
 28 29  1  0  0  0  0
 30 25  1  0  0  0  0
 31 33  1  0  0  0  0
 31 30  1  0  0  0  0
 32 31  1  0  0  0  0
 34 36  1  0  0  0  0
 34 31  1  0  0  0  0
 35 34  1  0  0  0  0
 37 34  1  0  0  0  0
 38 37  2  0  0  0  0
 38 39  1  0  0  0  0
 40 38  1  0  0  0  0
 41 40  1  0  0  0  0
 42 40  2  0  0  0  0
 42 44  1  0  0  0  0
 43 42  1  0  0  0  0
 44 37  1  0  0  0  0
M  END
>  <minimizedAffinity>
-5.01227331

>  <minimizedRMSD>
2.09058309

$$$$
