
 OpenBabel03252505403D

 27 29  0  0  1  0  0  0  0  0999 V2000
   45.3410   34.0550   42.6150 C   0  0  1  0  0  0  0  0  0  0  0  0
   45.9540   35.4160   42.9730 C   0  0  0  0  0  0  0  0  0  0  0  0
   46.4180   34.6150   41.8020 C   0  0  1  0  0  0  0  0  0  0  0  0
   44.2960   34.0840   42.2330 H   0  0  0  0  0  0  0  0  0  0  0  0
   46.5280   35.4550   43.9100 H   0  0  0  0  0  0  0  0  0  0  0  0
   45.2620   36.2680   42.8230 H   0  0  0  0  0  0  0  0  0  0  0  0
   46.1090   35.0510   40.8040 H   0  0  0  0  0  0  0  0  0  0  0  0
   45.5370   32.9930   43.6210 C   0  0  0  0  0  0  0  0  0  0  0  0
   45.5850   31.6630   43.1300 C   0  0  0  0  0  0  0  0  0  0  0  0
   45.7880   30.6470   44.0480 C   0  0  0  0  0  0  0  0  0  0  0  0
   45.9290   30.9870   45.3670 N   0  0  0  0  0  0  0  0  0  0  0  0
   45.8760   32.2620   45.7870 C   0  0  0  0  0  0  0  0  0  0  0  0
   45.6790   33.2580   44.9060 N   0  0  0  0  0  0  0  0  0  0  0  0
   45.4700   31.3460   42.1020 H   0  0  0  0  0  0  0  0  0  0  0  0
   45.8330   29.6200   43.7300 H   0  0  0  0  0  0  0  0  0  0  0  0
   46.0540   32.4140   47.2660 C   0  0  0  0  0  0  0  0  0  0  0  0
   45.0860   33.2150   47.8170 F   0  0  0  0  0  0  0  0  0  0  0  0
   47.3060   32.9660   47.5420 F   0  0  0  0  0  0  0  0  0  0  0  0
   46.0600   31.1480   47.8480 F   0  0  0  0  0  0  0  0  0  0  0  0
   47.8540   34.2440   41.9310 C   0  0  0  0  0  0  0  0  0  0  0  0
   48.7680   35.1960   42.3310 C   0  0  0  0  0  0  0  0  0  0  0  0
   48.6550   36.2600   42.5960 H   0  0  0  0  0  0  0  0  0  0  0  0
   50.0230   34.6060   42.3740 C   0  0  0  0  0  0  0  0  0  0  0  0
   50.9980   35.0030   42.6370 H   0  0  0  0  0  0  0  0  0  0  0  0
   49.7980   33.3130   41.9940 C   0  0  0  0  0  0  0  0  0  0  0  0
   50.5640   32.5530   41.9140 H   0  0  0  0  0  0  0  0  0  0  0  0
   48.5420   33.1470   41.7490 O   0  0  0  0  0  0  0  0  0  0  0  0
  1  4  1  6  0  0  0
  1  2  1  0  0  0  0
  1  8  1  0  0  0  0
  2  5  1  0  0  0  0
  3  7  1  6  0  0  0
  3 20  1  0  0  0  0
  3  1  1  0  0  0  0
  3  2  1  0  0  0  0
  6  2  1  0  0  0  0
  8 13  1  0  0  0  0
  9  8  2  0  0  0  0
  9 10  1  0  0  0  0
 10 11  2  0  0  0  0
 11 12  1  0  0  0  0
 12 16  1  0  0  0  0
 13 12  2  0  0  0  0
 14  9  1  0  0  0  0
 15 10  1  0  0  0  0
 16 18  1  0  0  0  0
 16 17  1  0  0  0  0
 16 19  1  0  0  0  0
 20 21  2  0  0  0  0
 21 23  1  0  0  0  0
 21 22  1  0  0  0  0
 23 24  1  0  0  0  0
 25 23  2  0  0  0  0
 26 25  1  0  0  0  0
 27 20  1  0  0  0  0
 27 25  1  0  0  0  0
M  END
>  <minimizedAffinity>
-4.58991766

>  <minimizedRMSD>
2.10753322

$$$$
