
 OpenBabel03252503343D

 21 22  0  0  0  0  0  0  0  0999 V2000
   46.2250   33.9650   40.9160 C   0  0  0  0  0  0  0  0  0  0  0  0
   45.1770   33.3200   41.1840 O   0  0  0  0  0  0  0  0  0  0  0  0
   46.7160   34.7940   41.9590 N   0  0  0  0  0  0  0  0  0  0  0  0
   47.6040   35.3460   41.7890 H   0  0  0  0  0  0  0  0  0  0  0  0
   44.4880   35.9280   44.7330 C   0  0  0  0  0  0  0  0  0  0  0  0
   45.1200   35.9050   43.4750 C   0  0  0  0  0  0  0  0  0  0  0  0
   46.0340   34.8860   43.2080 C   0  0  0  0  0  0  0  0  0  0  0  0
   46.2830   33.9520   44.1670 N   0  0  0  0  0  0  0  0  0  0  0  0
   45.6440   34.0100   45.3800 C   0  0  0  0  0  0  0  0  0  0  0  0
   44.7680   34.9840   45.6440 N   0  0  0  0  0  0  0  0  0  0  0  0
   43.7990   36.7640   44.8300 H   0  0  0  0  0  0  0  0  0  0  0  0
   44.9280   36.6450   42.7070 H   0  0  0  0  0  0  0  0  0  0  0  0
   45.8670   33.2450   46.1250 H   0  0  0  0  0  0  0  0  0  0  0  0
   46.8810   33.8590   39.6160 C   0  0  0  0  0  0  0  0  0  0  0  0
   48.1210   34.3990   39.3540 C   0  0  0  0  0  0  0  0  0  0  0  0
   48.8240   34.9590   39.9510 H   0  0  0  0  0  0  0  0  0  0  0  0
   48.3660   34.0720   38.0220 C   0  0  0  0  0  0  0  0  0  0  0  0
   49.2120   34.2800   37.3630 H   0  0  0  0  0  0  0  0  0  0  0  0
   47.2600   33.3530   37.5560 C   0  0  0  0  0  0  0  0  0  0  0  0
   47.0360   32.9090   36.5780 H   0  0  0  0  0  0  0  0  0  0  0  0
   46.4120   33.2660   38.5690 O   0  0  0  0  0  0  0  0  0  0  0  0
  1  2  2  0  0  0  0
  1  3  1  0  0  0  0
  3  7  1  0  0  0  0
  4  3  1  0  0  0  0
  5 11  1  0  0  0  0
  5 10  1  0  0  0  0
  6  5  2  0  0  0  0
  7  6  1  0  0  0  0
  7  8  2  0  0  0  0
  8  9  1  0  0  0  0
  9 10  2  0  0  0  0
  9 13  1  0  0  0  0
 12  6  1  0  0  0  0
 14  1  1  0  0  0  0
 15 14  2  0  0  0  0
 15 16  1  0  0  0  0
 17 15  1  0  0  0  0
 18 17  1  0  0  0  0
 19 17  2  0  0  0  0
 19 21  1  0  0  0  0
 20 19  1  0  0  0  0
 21 14  1  0  0  0  0
M  END
>  <minimizedAffinity>
-4.27949715

>  <minimizedRMSD>
0.403205067

$$$$
