
 OpenBabel03252509273D

 29 31  0  0  1  0  0  0  0  0999 V2000
   47.0720   35.2030   41.7770 C   0  0  1  0  0  0  0  0  0  0  0  0
   48.5690   35.5970   41.8720 C   0  0  0  0  0  0  0  0  0  0  0  0
   47.9810   34.3880   41.0830 C   0  0  2  0  0  0  0  0  0  0  0  0
   46.4870   36.0140   41.3180 H   0  0  0  0  0  0  0  0  0  0  0  0
   48.9230   36.3870   41.1950 H   0  0  0  0  0  0  0  0  0  0  0  0
   49.1320   35.3300   42.7720 H   0  0  0  0  0  0  0  0  0  0  0  0
   48.2410   33.3810   41.5190 H   0  0  0  0  0  0  0  0  0  0  0  0
   44.9890   34.8520   44.8730 C   0  0  0  0  0  0  0  0  0  0  0  0
   45.4530   35.3660   43.6340 C   0  0  0  0  0  0  0  0  0  0  0  0
   46.5500   34.7520   43.1160 C   0  0  0  0  0  0  0  0  0  0  0  0
   47.1640   33.7060   43.7610 N   0  0  0  0  0  0  0  0  0  0  0  0
   46.6910   33.2480   44.9400 C   0  0  0  0  0  0  0  0  0  0  0  0
   45.6000   33.8240   45.4970 N   0  0  0  0  0  0  0  0  0  0  0  0
   44.1110   35.3270   45.3050 H   0  0  0  0  0  0  0  0  0  0  0  0
   47.1430   32.4310   45.4780 H   0  0  0  0  0  0  0  0  0  0  0  0
   44.8210   36.4610   43.0000 N   0  0  0  0  0  0  0  0  0  0  0  0
   43.9360   36.5620   42.4610 H   0  0  0  0  0  0  0  0  0  0  0  0
   45.4910   37.2640   43.1970 H   0  0  0  0  0  0  0  0  0  0  0  0
   48.0780   34.4000   39.5760 C   0  0  0  0  0  0  0  0  0  0  0  0
   49.1170   34.2690   39.2740 H   0  0  0  0  0  0  0  0  0  0  0  0
   47.6610   35.3310   39.1390 H   0  0  0  0  0  0  0  0  0  0  0  0
   47.2750   33.2180   39.1230 C   0  0  0  0  0  0  0  0  0  0  0  0
   47.7050   31.9220   38.9700 C   0  0  0  0  0  0  0  0  0  0  0  0
   48.6980   31.5760   39.1600 H   0  0  0  0  0  0  0  0  0  0  0  0
   46.6080   31.1940   38.5340 C   0  0  0  0  0  0  0  0  0  0  0  0
   46.6000   30.1320   38.3130 H   0  0  0  0  0  0  0  0  0  0  0  0
   45.5570   32.1000   38.4420 C   0  0  0  0  0  0  0  0  0  0  0  0
   44.5900   31.7570   38.1190 H   0  0  0  0  0  0  0  0  0  0  0  0
   45.9960   33.2810   38.8000 O   0  0  0  0  0  0  0  0  0  0  0  0
  1  4  1  6  0  0  0
  1  2  1  0  0  0  0
  1 10  1  0  0  0  0
  2  6  1  0  0  0  0
  3  7  1  1  0  0  0
  3  1  1  0  0  0  0
  3  2  1  0  0  0  0
  5  2  1  0  0  0  0
  8 14  1  0  0  0  0
  8 13  1  0  0  0  0
  9  8  2  0  0  0  0
 10  9  1  0  0  0  0
 10 11  2  0  0  0  0
 11 12  1  0  0  0  0
 12 15  1  0  0  0  0
 12 13  2  0  0  0  0
 16 18  1  0  0  0  0
 16  9  1  0  0  0  0
 17 16  1  0  0  0  0
 19  3  1  0  0  0  0
 20 19  1  0  0  0  0
 21 19  1  0  0  0  0
 22 19  1  0  0  0  0
 23 22  2  0  0  0  0
 23 24  1  0  0  0  0
 25 23  1  0  0  0  0
 26 25  1  0  0  0  0
 27 25  2  0  0  0  0
 27 29  1  0  0  0  0
 28 27  1  0  0  0  0
 29 22  1  0  0  0  0
M  END
>  <minimizedAffinity>
-4.43823624

>  <minimizedRMSD>
1.40588963

$$$$
