
 OpenBabel03252503363D

 21 22  0  0  0  0  0  0  0  0999 V2000
   38.3930   30.6400   40.8910 C   0  0  0  0  0  0  0  0  0  0  0  0
   39.3130   29.9360   40.3960 O   0  0  0  0  0  0  0  0  0  0  0  0
   37.5770   29.9870   41.8530 N   0  0  0  0  0  0  0  0  0  0  0  0
   36.7980   30.5410   42.3100 H   0  0  0  0  0  0  0  0  0  0  0  0
   37.3650   26.2620   41.9770 C   0  0  0  0  0  0  0  0  0  0  0  0
   37.0940   27.5850   41.5810 C   0  0  0  0  0  0  0  0  0  0  0  0
   37.7940   28.6220   42.1980 C   0  0  0  0  0  0  0  0  0  0  0  0
   38.7110   28.3210   43.1580 N   0  0  0  0  0  0  0  0  0  0  0  0
   38.9460   27.0170   43.5150 C   0  0  0  0  0  0  0  0  0  0  0  0
   38.2790   26.0180   42.9280 N   0  0  0  0  0  0  0  0  0  0  0  0
   36.7630   25.5380   41.4320 H   0  0  0  0  0  0  0  0  0  0  0  0
   36.3650   27.8320   40.8180 H   0  0  0  0  0  0  0  0  0  0  0  0
   39.6880   26.8120   44.2880 H   0  0  0  0  0  0  0  0  0  0  0  0
   38.1910   32.0290   40.4950 C   0  0  0  0  0  0  0  0  0  0  0  0
   37.1690   32.4330   39.6650 C   0  0  0  0  0  0  0  0  0  0  0  0
   36.3710   31.9060   39.1650 H   0  0  0  0  0  0  0  0  0  0  0  0
   37.3410   33.8110   39.5490 C   0  0  0  0  0  0  0  0  0  0  0  0
   36.7830   34.5730   38.9990 H   0  0  0  0  0  0  0  0  0  0  0  0
   38.4580   34.1610   40.3170 C   0  0  0  0  0  0  0  0  0  0  0  0
   38.9430   35.1280   40.5050 H   0  0  0  0  0  0  0  0  0  0  0  0
   38.9130   33.0400   40.8520 O   0  0  0  0  0  0  0  0  0  0  0  0
  1  3  1  0  0  0  0
  2  1  2  0  0  0  0
  3  7  1  0  0  0  0
  3  4  1  0  0  0  0
  5 10  1  0  0  0  0
  6  5  2  0  0  0  0
  6  7  1  0  0  0  0
  7  8  2  0  0  0  0
  8  9  1  0  0  0  0
  9 13  1  0  0  0  0
 10  9  2  0  0  0  0
 11  5  1  0  0  0  0
 12  6  1  0  0  0  0
 14 21  1  0  0  0  0
 14  1  1  0  0  0  0
 15 14  2  0  0  0  0
 16 15  1  0  0  0  0
 17 15  1  0  0  0  0
 17 19  2  0  0  0  0
 18 17  1  0  0  0  0
 19 20  1  0  0  0  0
 19 21  1  0  0  0  0
M  END
>  <minimizedAffinity>
-4.05382204

$$$$

 OpenBabel03252503363D

 21 22  0  0  0  0  0  0  0  0999 V2000
   37.5100   29.0080   41.3550 C   0  0  0  0  0  0  0  0  0  0  0  0
   37.0810   29.7480   42.2800 O   0  0  0  0  0  0  0  0  0  0  0  0
   38.0560   29.6870   40.2330 N   0  0  0  0  0  0  0  0  0  0  0  0
   38.4440   29.1090   39.4350 H   0  0  0  0  0  0  0  0  0  0  0  0
   37.2210   33.2420   39.4590 C   0  0  0  0  0  0  0  0  0  0  0  0
   37.1260   31.8380   39.4680 C   0  0  0  0  0  0  0  0  0  0  0  0
   38.0820   31.1100   40.1760 C   0  0  0  0  0  0  0  0  0  0  0  0
   39.0700   31.7800   40.8330 N   0  0  0  0  0  0  0  0  0  0  0  0
   39.1250   33.1500   40.8000 C   0  0  0  0  0  0  0  0  0  0  0  0
   38.2130   33.8540   40.1220 N   0  0  0  0  0  0  0  0  0  0  0  0
   36.4260   33.7040   38.8770 H   0  0  0  0  0  0  0  0  0  0  0  0
   36.3430   31.2980   38.9470 H   0  0  0  0  0  0  0  0  0  0  0  0
   39.9300   33.6540   41.3370 H   0  0  0  0  0  0  0  0  0  0  0  0
   37.4450   27.5530   41.4430 C   0  0  0  0  0  0  0  0  0  0  0  0
   37.0070   26.8860   42.5660 C   0  0  0  0  0  0  0  0  0  0  0  0
   36.6510   27.2170   43.5300 H   0  0  0  0  0  0  0  0  0  0  0  0
   37.1040   25.5380   42.2280 C   0  0  0  0  0  0  0  0  0  0  0  0
   36.8740   24.6270   42.7850 H   0  0  0  0  0  0  0  0  0  0  0  0
   37.5960   25.4670   40.9190 C   0  0  0  0  0  0  0  0  0  0  0  0
   37.8230   24.6130   40.2680 H   0  0  0  0  0  0  0  0  0  0  0  0
   37.7760   26.7150   40.5160 O   0  0  0  0  0  0  0  0  0  0  0  0
  1 14  1  0  0  0  0
  1  2  2  0  0  0  0
  3  1  1  0  0  0  0
  4  3  1  0  0  0  0
  5  6  2  0  0  0  0
  5 10  1  0  0  0  0
  6  7  1  0  0  0  0
  7  3  1  0  0  0  0
  7  8  2  0  0  0  0
  9  8  1  0  0  0  0
  9 13  1  0  0  0  0
 10  9  2  0  0  0  0
 11  5  1  0  0  0  0
 12  6  1  0  0  0  0
 14 15  2  0  0  0  0
 15 16  1  0  0  0  0
 17 15  1  0  0  0  0
 17 18  1  0  0  0  0
 19 17  2  0  0  0  0
 20 19  1  0  0  0  0
 21 19  1  0  0  0  0
 21 14  1  0  0  0  0
M  END
>  <minimizedAffinity>
-3.9607749

$$$$

 OpenBabel03252503363D

 21 22  0  0  0  0  0  0  0  0999 V2000
   38.6420   29.9320   41.9340 C   0  0  0  0  0  0  0  0  0  0  0  0
   39.5950   30.4310   42.5890 O   0  0  0  0  0  0  0  0  0  0  0  0
   38.2980   30.6180   40.7390 N   0  0  0  0  0  0  0  0  0  0  0  0
   37.5110   30.2310   40.1440 H   0  0  0  0  0  0  0  0  0  0  0  0
   40.7070   32.9730   39.1300 C   0  0  0  0  0  0  0  0  0  0  0  0
   40.0770   31.7620   39.4710 C   0  0  0  0  0  0  0  0  0  0  0  0
   38.9890   31.8000   40.3440 C   0  0  0  0  0  0  0  0  0  0  0  0
   38.5750   33.0020   40.8330 N   0  0  0  0  0  0  0  0  0  0  0  0
   39.2180   34.1600   40.4730 C   0  0  0  0  0  0  0  0  0  0  0  0
   40.2610   34.1310   39.6390 N   0  0  0  0  0  0  0  0  0  0  0  0
   41.5400   32.8240   38.4460 H   0  0  0  0  0  0  0  0  0  0  0  0
   40.4010   30.8020   39.0870 H   0  0  0  0  0  0  0  0  0  0  0  0
   38.8600   35.1060   40.8840 H   0  0  0  0  0  0  0  0  0  0  0  0
   37.9450   28.7320   42.3840 C   0  0  0  0  0  0  0  0  0  0  0  0
   37.3850   28.6120   43.6370 C   0  0  0  0  0  0  0  0  0  0  0  0
   37.3260   29.2760   44.4860 H   0  0  0  0  0  0  0  0  0  0  0  0
   36.8330   27.3340   43.6490 C   0  0  0  0  0  0  0  0  0  0  0  0
   36.2850   26.7810   44.4160 H   0  0  0  0  0  0  0  0  0  0  0  0
   37.0900   26.7530   42.4010 C   0  0  0  0  0  0  0  0  0  0  0  0
   36.8380   25.7680   41.9860 H   0  0  0  0  0  0  0  0  0  0  0  0
   37.7610   27.6520   41.6980 O   0  0  0  0  0  0  0  0  0  0  0  0
  1 14  1  0  0  0  0
  1  2  2  0  0  0  0
  3  1  1  0  0  0  0
  4  3  1  0  0  0  0
  5  6  2  0  0  0  0
  5 10  1  0  0  0  0
  6  7  1  0  0  0  0
  7  3  1  0  0  0  0
  7  8  2  0  0  0  0
  9  8  1  0  0  0  0
  9 13  1  0  0  0  0
 10  9  2  0  0  0  0
 11  5  1  0  0  0  0
 12  6  1  0  0  0  0
 14 15  2  0  0  0  0
 15 17  1  0  0  0  0
 15 16  1  0  0  0  0
 17 18  1  0  0  0  0
 19 17  2  0  0  0  0
 20 19  1  0  0  0  0
 21 14  1  0  0  0  0
 21 19  1  0  0  0  0
M  END
>  <minimizedAffinity>
-3.92711759

$$$$

 OpenBabel03252503363D

 21 22  0  0  0  0  0  0  0  0999 V2000
   37.6410   28.0050   40.7290 C   0  0  0  0  0  0  0  0  0  0  0  0
   38.2380   28.2950   39.6590 O   0  0  0  0  0  0  0  0  0  0  0  0
   37.3360   29.1040   41.5750 N   0  0  0  0  0  0  0  0  0  0  0  0
   36.8210   28.9140   42.4820 H   0  0  0  0  0  0  0  0  0  0  0  0
   37.3030   32.5710   40.1900 C   0  0  0  0  0  0  0  0  0  0  0  0
   36.8590   31.2730   40.5020 C   0  0  0  0  0  0  0  0  0  0  0  0
   37.7110   30.4330   41.2200 C   0  0  0  0  0  0  0  0  0  0  0  0
   38.9360   30.8950   41.5930 N   0  0  0  0  0  0  0  0  0  0  0  0
   39.3300   32.1690   41.2680 C   0  0  0  0  0  0  0  0  0  0  0  0
   38.5200   32.9790   40.5800 N   0  0  0  0  0  0  0  0  0  0  0  0
   36.5600   33.1350   39.6300 H   0  0  0  0  0  0  0  0  0  0  0  0
   35.8850   30.8970   40.2090 H   0  0  0  0  0  0  0  0  0  0  0  0
   40.3190   32.5070   41.5820 H   0  0  0  0  0  0  0  0  0  0  0  0
   37.2940   26.6280   41.0660 C   0  0  0  0  0  0  0  0  0  0  0  0
   37.1800   26.1770   42.3620 C   0  0  0  0  0  0  0  0  0  0  0  0
   37.2990   26.6530   43.3240 H   0  0  0  0  0  0  0  0  0  0  0  0
   36.8410   24.8330   42.2320 C   0  0  0  0  0  0  0  0  0  0  0  0
   36.6440   24.0530   42.9730 H   0  0  0  0  0  0  0  0  0  0  0  0
   36.7690   24.5470   40.8630 C   0  0  0  0  0  0  0  0  0  0  0  0
   36.5360   23.6230   40.3200 H   0  0  0  0  0  0  0  0  0  0  0  0
   37.0530   25.6740   40.2290 O   0  0  0  0  0  0  0  0  0  0  0  0
  1 14  1  0  0  0  0
  1  3  1  0  0  0  0
  2  1  2  0  0  0  0
  3  4  1  0  0  0  0
  5  6  2  0  0  0  0
  5 10  1  0  0  0  0
  6  7  1  0  0  0  0
  7  3  1  0  0  0  0
  7  8  2  0  0  0  0
  9 13  1  0  0  0  0
  9  8  1  0  0  0  0
 10  9  2  0  0  0  0
 11  5  1  0  0  0  0
 12  6  1  0  0  0  0
 14 15  2  0  0  0  0
 15 16  1  0  0  0  0
 17 15  1  0  0  0  0
 17 18  1  0  0  0  0
 19 17  2  0  0  0  0
 20 19  1  0  0  0  0
 21 19  1  0  0  0  0
 21 14  1  0  0  0  0
M  END
>  <minimizedAffinity>
-3.83472037

$$$$

 OpenBabel03252503363D

 21 22  0  0  0  0  0  0  0  0999 V2000
   38.4950   28.8720   42.2100 C   0  0  0  0  0  0  0  0  0  0  0  0
   37.5130   29.4510   42.7460 O   0  0  0  0  0  0  0  0  0  0  0  0
   39.1420   29.6000   41.1770 N   0  0  0  0  0  0  0  0  0  0  0  0
   39.9830   29.1630   40.7040 H   0  0  0  0  0  0  0  0  0  0  0  0
   38.7610   33.2950   40.7930 C   0  0  0  0  0  0  0  0  0  0  0  0
   39.2800   32.0620   41.2310 C   0  0  0  0  0  0  0  0  0  0  0  0
   38.6760   30.8870   40.7800 C   0  0  0  0  0  0  0  0  0  0  0  0
   37.6100   30.9730   39.9370 N   0  0  0  0  0  0  0  0  0  0  0  0
   37.1350   32.1960   39.5350 C   0  0  0  0  0  0  0  0  0  0  0  0
   37.7080   33.3250   39.9630 N   0  0  0  0  0  0  0  0  0  0  0  0
   39.3080   34.1400   41.2070 H   0  0  0  0  0  0  0  0  0  0  0  0
   40.1280   31.9850   41.9010 H   0  0  0  0  0  0  0  0  0  0  0  0
   36.2790   32.2280   38.8590 H   0  0  0  0  0  0  0  0  0  0  0  0
   38.9270   27.5440   42.6310 C   0  0  0  0  0  0  0  0  0  0  0  0
   39.9010   27.3360   43.5820 C   0  0  0  0  0  0  0  0  0  0  0  0
   40.5090   28.0020   44.1750 H   0  0  0  0  0  0  0  0  0  0  0  0
   40.0010   25.9500   43.6780 C   0  0  0  0  0  0  0  0  0  0  0  0
   40.6320   25.3030   44.2930 H   0  0  0  0  0  0  0  0  0  0  0  0
   39.0800   25.3980   42.7790 C   0  0  0  0  0  0  0  0  0  0  0  0
   38.8300   24.3580   42.5330 H   0  0  0  0  0  0  0  0  0  0  0  0
   38.4750   26.4160   42.1890 O   0  0  0  0  0  0  0  0  0  0  0  0
  1 14  1  0  0  0  0
  1  2  2  0  0  0  0
  3  1  1  0  0  0  0
  4  3  1  0  0  0  0
  5 11  1  0  0  0  0
  5  6  1  0  0  0  0
  6 12  1  0  0  0  0
  7  3  1  0  0  0  0
  7  6  2  0  0  0  0
  8  7  1  0  0  0  0
  9  8  2  0  0  0  0
  9 10  1  0  0  0  0
 10  5  2  0  0  0  0
 13  9  1  0  0  0  0
 14 15  2  0  0  0  0
 15 17  1  0  0  0  0
 15 16  1  0  0  0  0
 17 18  1  0  0  0  0
 19 17  2  0  0  0  0
 20 19  1  0  0  0  0
 21 14  1  0  0  0  0
 21 19  1  0  0  0  0
M  END
>  <minimizedAffinity>
-3.81356668

$$$$

 OpenBabel03252503363D

 21 22  0  0  0  0  0  0  0  0999 V2000
   37.9020   30.4440   41.2660 C   0  0  0  0  0  0  0  0  0  0  0  0
   36.9260   29.9870   41.9170 O   0  0  0  0  0  0  0  0  0  0  0  0
   39.0310   29.5860   41.1740 N   0  0  0  0  0  0  0  0  0  0  0  0
   39.8730   29.9190   40.6250 H   0  0  0  0  0  0  0  0  0  0  0  0
   39.4680   26.8400   43.6650 C   0  0  0  0  0  0  0  0  0  0  0  0
   39.4940   28.1340   43.1120 C   0  0  0  0  0  0  0  0  0  0  0  0
   39.0370   28.3090   41.8060 C   0  0  0  0  0  0  0  0  0  0  0  0
   38.5840   27.2270   41.1130 N   0  0  0  0  0  0  0  0  0  0  0  0
   38.5760   25.9820   41.6910 C   0  0  0  0  0  0  0  0  0  0  0  0
   39.0120   25.8070   42.9410 N   0  0  0  0  0  0  0  0  0  0  0  0
   39.8460   26.8220   44.6860 H   0  0  0  0  0  0  0  0  0  0  0  0
   39.8530   28.9990   43.6570 H   0  0  0  0  0  0  0  0  0  0  0  0
   38.2060   25.1380   41.1070 H   0  0  0  0  0  0  0  0  0  0  0  0
   37.8640   31.7670   40.6520 C   0  0  0  0  0  0  0  0  0  0  0  0
   38.7840   32.7530   40.9320 C   0  0  0  0  0  0  0  0  0  0  0  0
   39.6450   32.7970   41.5820 H   0  0  0  0  0  0  0  0  0  0  0  0
   38.3850   33.8320   40.1460 C   0  0  0  0  0  0  0  0  0  0  0  0
   38.7960   34.8370   40.0220 H   0  0  0  0  0  0  0  0  0  0  0  0
   37.2460   33.4360   39.4350 C   0  0  0  0  0  0  0  0  0  0  0  0
   36.6150   33.9670   38.7110 H   0  0  0  0  0  0  0  0  0  0  0  0
   36.9950   32.1860   39.7920 O   0  0  0  0  0  0  0  0  0  0  0  0
  1  2  2  0  0  0  0
  3  1  1  0  0  0  0
  3  7  1  0  0  0  0
  4  3  1  0  0  0  0
  5 11  1  0  0  0  0
  6 12  1  0  0  0  0
  6  5  1  0  0  0  0
  7  6  2  0  0  0  0
  8  9  2  0  0  0  0
  8  7  1  0  0  0  0
  9 10  1  0  0  0  0
 10  5  2  0  0  0  0
 13  9  1  0  0  0  0
 14 15  2  0  0  0  0
 14  1  1  0  0  0  0
 15 16  1  0  0  0  0
 17 15  1  0  0  0  0
 18 17  1  0  0  0  0
 19 21  1  0  0  0  0
 19 17  2  0  0  0  0
 20 19  1  0  0  0  0
 21 14  1  0  0  0  0
M  END
>  <minimizedAffinity>
-3.80495954

$$$$

 OpenBabel03252503363D

 21 22  0  0  0  0  0  0  0  0999 V2000
   36.5430   29.0180   40.3150 C   0  0  0  0  0  0  0  0  0  0  0  0
   35.3900   28.6650   40.6810 O   0  0  0  0  0  0  0  0  0  0  0  0
   37.5020   27.9750   40.2280 N   0  0  0  0  0  0  0  0  0  0  0  0
   38.4830   28.2180   39.9110 H   0  0  0  0  0  0  0  0  0  0  0  0
   36.9710   24.7840   42.0920 C   0  0  0  0  0  0  0  0  0  0  0  0
   37.3330   26.1210   41.8450 C   0  0  0  0  0  0  0  0  0  0  0  0
   37.1600   26.6310   40.5580 C   0  0  0  0  0  0  0  0  0  0  0  0
   36.6500   25.8220   39.5890 N   0  0  0  0  0  0  0  0  0  0  0  0
   36.3100   24.5230   39.8730 C   0  0  0  0  0  0  0  0  0  0  0  0
   36.4720   24.0280   41.1030 N   0  0  0  0  0  0  0  0  0  0  0  0
   37.1480   24.4950   43.1260 H   0  0  0  0  0  0  0  0  0  0  0  0
   37.7390   26.7720   42.6110 H   0  0  0  0  0  0  0  0  0  0  0  0
   35.9030   23.9030   39.0720 H   0  0  0  0  0  0  0  0  0  0  0  0
   36.8580   30.4090   40.0070 C   0  0  0  0  0  0  0  0  0  0  0  0
   36.8390   30.9190   38.7270 C   0  0  0  0  0  0  0  0  0  0  0  0
   36.6190   30.4860   37.7630 H   0  0  0  0  0  0  0  0  0  0  0  0
   37.1940   32.2570   38.8830 C   0  0  0  0  0  0  0  0  0  0  0  0
   37.3160   33.0690   38.1610 H   0  0  0  0  0  0  0  0  0  0  0  0
   37.4070   32.4800   40.2480 C   0  0  0  0  0  0  0  0  0  0  0  0
   37.6990   33.3800   40.8060 H   0  0  0  0  0  0  0  0  0  0  0  0
   37.1870   31.3260   40.8570 O   0  0  0  0  0  0  0  0  0  0  0  0
  1  2  2  0  0  0  0
  3  1  1  0  0  0  0
  3  7  1  0  0  0  0
  4  3  1  0  0  0  0
  5 11  1  0  0  0  0
  6  5  1  0  0  0  0
  6 12  1  0  0  0  0
  7  6  2  0  0  0  0
  8  9  2  0  0  0  0
  8  7  1  0  0  0  0
  9 10  1  0  0  0  0
 10  5  2  0  0  0  0
 13  9  1  0  0  0  0
 14  1  1  0  0  0  0
 14 21  1  0  0  0  0
 15 17  1  0  0  0  0
 15 14  2  0  0  0  0
 16 15  1  0  0  0  0
 17 19  2  0  0  0  0
 18 17  1  0  0  0  0
 19 20  1  0  0  0  0
 19 21  1  0  0  0  0
M  END
>  <minimizedAffinity>
-3.77451968

$$$$

 OpenBabel03252503363D

 21 22  0  0  0  0  0  0  0  0999 V2000
   36.1270   29.1680   40.4330 C   0  0  0  0  0  0  0  0  0  0  0  0
   35.8690   30.3540   40.0990 O   0  0  0  0  0  0  0  0  0  0  0  0
   35.7640   28.1730   39.4860 N   0  0  0  0  0  0  0  0  0  0  0  0
   35.9740   27.1600   39.7150 H   0  0  0  0  0  0  0  0  0  0  0  0
   33.2070   29.0720   36.9190 C   0  0  0  0  0  0  0  0  0  0  0  0
   33.7550   28.7290   38.1690 C   0  0  0  0  0  0  0  0  0  0  0  0
   35.1320   28.5230   38.2580 C   0  0  0  0  0  0  0  0  0  0  0  0
   35.8950   28.6600   37.1380 N   0  0  0  0  0  0  0  0  0  0  0  0
   35.3200   28.9960   35.9380 C   0  0  0  0  0  0  0  0  0  0  0  0
   34.0010   29.1950   35.8460 N   0  0  0  0  0  0  0  0  0  0  0  0
   32.1280   29.2080   36.9680 H   0  0  0  0  0  0  0  0  0  0  0  0
   33.1550   28.6180   39.0650 H   0  0  0  0  0  0  0  0  0  0  0  0
   35.9610   29.0970   35.0610 H   0  0  0  0  0  0  0  0  0  0  0  0
   36.7560   28.8500   41.7110 C   0  0  0  0  0  0  0  0  0  0  0  0
   36.4750   27.7050   42.4230 C   0  0  0  0  0  0  0  0  0  0  0  0
   35.8150   26.8700   42.2480 H   0  0  0  0  0  0  0  0  0  0  0  0
   37.2780   27.7980   43.5580 C   0  0  0  0  0  0  0  0  0  0  0  0
   37.4080   27.1350   44.4170 H   0  0  0  0  0  0  0  0  0  0  0  0
   38.0000   28.9940   43.4660 C   0  0  0  0  0  0  0  0  0  0  0  0
   38.7380   29.4560   44.1340 H   0  0  0  0  0  0  0  0  0  0  0  0
   37.6320   29.5690   42.3320 O   0  0  0  0  0  0  0  0  0  0  0  0
  1 14  1  0  0  0  0
  2  1  2  0  0  0  0
  3  4  1  0  0  0  0
  3  1  1  0  0  0  0
  5 11  1  0  0  0  0
  5  6  1  0  0  0  0
  6  7  2  0  0  0  0
  6 12  1  0  0  0  0
  7  3  1  0  0  0  0
  8  7  1  0  0  0  0
  9  8  2  0  0  0  0
 10  9  1  0  0  0  0
 10  5  2  0  0  0  0
 13  9  1  0  0  0  0
 14 21  1  0  0  0  0
 14 15  2  0  0  0  0
 15 17  1  0  0  0  0
 16 15  1  0  0  0  0
 17 18  1  0  0  0  0
 19 17  2  0  0  0  0
 19 20  1  0  0  0  0
 21 19  1  0  0  0  0
M  END
>  <minimizedAffinity>
-3.71844053

$$$$

 OpenBabel03252503363D

 21 22  0  0  0  0  0  0  0  0999 V2000
   35.6870   28.6770   39.2200 C   0  0  0  0  0  0  0  0  0  0  0  0
   36.8470   28.2720   38.9400 O   0  0  0  0  0  0  0  0  0  0  0  0
   35.4530   28.9570   40.5930 N   0  0  0  0  0  0  0  0  0  0  0  0
   34.4980   29.3150   40.8780 H   0  0  0  0  0  0  0  0  0  0  0  0
   37.6270   27.4600   43.2330 C   0  0  0  0  0  0  0  0  0  0  0  0
   36.5910   27.5740   42.2870 C   0  0  0  0  0  0  0  0  0  0  0  0
   36.4750   28.7630   41.5670 C   0  0  0  0  0  0  0  0  0  0  0  0
   37.3630   29.7680   41.8020 N   0  0  0  0  0  0  0  0  0  0  0  0
   38.3590   29.6160   42.7340 C   0  0  0  0  0  0  0  0  0  0  0  0
   38.4760   28.4790   43.4280 N   0  0  0  0  0  0  0  0  0  0  0  0
   37.6210   26.4940   43.7330 H   0  0  0  0  0  0  0  0  0  0  0  0
   35.8800   26.7790   42.0950 H   0  0  0  0  0  0  0  0  0  0  0  0
   39.0530   30.4410   42.8970 H   0  0  0  0  0  0  0  0  0  0  0  0
   34.6620   28.8420   38.1940 C   0  0  0  0  0  0  0  0  0  0  0  0
   34.9470   28.8900   36.8480 C   0  0  0  0  0  0  0  0  0  0  0  0
   35.8660   28.8280   36.2840 H   0  0  0  0  0  0  0  0  0  0  0  0
   33.7060   29.0530   36.2370 C   0  0  0  0  0  0  0  0  0  0  0  0
   33.4140   29.1440   35.1880 H   0  0  0  0  0  0  0  0  0  0  0  0
   32.7410   29.0930   37.2500 C   0  0  0  0  0  0  0  0  0  0  0  0
   31.6490   29.2080   37.2170 H   0  0  0  0  0  0  0  0  0  0  0  0
   33.3910   28.9610   38.3950 O   0  0  0  0  0  0  0  0  0  0  0  0
  1  3  1  0  0  0  0
  2  1  2  0  0  0  0
  3  4  1  0  0  0  0
  3  7  1  0  0  0  0
  5 10  1  0  0  0  0
  5 11  1  0  0  0  0
  6  5  2  0  0  0  0
  7  8  2  0  0  0  0
  7  6  1  0  0  0  0
  8  9  1  0  0  0  0
  9 13  1  0  0  0  0
  9 10  2  0  0  0  0
 12  6  1  0  0  0  0
 14 21  1  0  0  0  0
 14  1  1  0  0  0  0
 15 14  2  0  0  0  0
 16 15  1  0  0  0  0
 17 15  1  0  0  0  0
 17 19  2  0  0  0  0
 18 17  1  0  0  0  0
 19 21  1  0  0  0  0
 20 19  1  0  0  0  0
M  END
>  <minimizedAffinity>
-3.69912791

$$$$
