
 OpenBabel03252509003D

 44 46  0  0  1  0  0  0  0  0999 V2000
   47.2650   33.8550   42.9520 N   0  0  0  0  0  0  0  0  0  0  0  0
   46.9600   35.1830   42.5610 C   0  0  0  0  0  0  0  0  0  0  0  0
   45.5260   35.6090   42.8020 C   0  0  0  0  0  0  0  0  0  0  0  0
   44.8810   34.9800   44.0060 C   0  0  0  0  0  0  0  0  0  0  0  0
   45.8650   34.1420   44.7860 C   0  0  0  0  0  0  0  0  0  0  0  0
   46.3870   33.1100   43.7190 C   0  0  2  0  0  0  0  0  0  0  0  0
   47.2150   35.4550   41.5300 H   0  0  0  0  0  0  0  0  0  0  0  0
   47.5970   35.8540   43.2010 H   0  0  0  0  0  0  0  0  0  0  0  0
   44.9210   35.4860   41.8800 H   0  0  0  0  0  0  0  0  0  0  0  0
   45.5160   36.7120   42.9910 H   0  0  0  0  0  0  0  0  0  0  0  0
   44.4610   35.7090   44.7160 H   0  0  0  0  0  0  0  0  0  0  0  0
   44.0660   34.3180   43.6760 H   0  0  0  0  0  0  0  0  0  0  0  0
   45.3300   33.6050   45.5790 H   0  0  0  0  0  0  0  0  0  0  0  0
   46.7420   34.6860   45.1340 H   0  0  0  0  0  0  0  0  0  0  0  0
   45.5040   32.6640   43.2190 H   0  0  0  0  0  0  0  0  0  0  0  0
   48.1600   33.1690   42.0620 C   0  0  0  0  0  0  0  0  0  0  0  0
   48.9020   33.9120   41.6900 H   0  0  0  0  0  0  0  0  0  0  0  0
   48.7090   32.3610   42.5880 H   0  0  0  0  0  0  0  0  0  0  0  0
   47.3530   32.5510   40.9610 C   0  0  0  0  0  0  0  0  0  0  0  0
   46.3030   32.9520   40.9590 H   0  0  0  0  0  0  0  0  0  0  0  0
   47.2660   31.4540   41.0400 H   0  0  0  0  0  0  0  0  0  0  0  0
   49.3140   32.3300   37.7670 C   0  0  0  0  0  0  0  0  0  0  0  0
   48.7420   31.9930   39.0080 C   0  0  0  0  0  0  0  0  0  0  0  0
   47.9510   32.9170   39.6520 C   0  0  0  0  0  0  0  0  0  0  0  0
   47.7670   34.0990   39.0560 N   0  0  0  0  0  0  0  0  0  0  0  0
   48.3170   34.4130   37.8700 C   0  0  0  0  0  0  0  0  0  0  0  0
   49.0980   33.5270   37.2130 N   0  0  0  0  0  0  0  0  0  0  0  0
   49.9340   31.6710   37.2120 H   0  0  0  0  0  0  0  0  0  0  0  0
   48.9730   31.0040   39.3770 H   0  0  0  0  0  0  0  0  0  0  0  0
   48.1450   35.3880   37.4120 H   0  0  0  0  0  0  0  0  0  0  0  0
   47.0510   32.1950   44.5210 O   0  0  0  0  0  0  0  0  0  0  0  0
   45.0070   30.6490   43.8110 O   0  0  0  0  0  0  0  0  0  0  0  0
   46.1400   30.8150   44.8310 P   0  0  2  0  0  0  0  0  0  0  0  0
   45.3360   31.1080   46.3160 O   0  0  0  0  0  0  0  0  0  0  0  0
   45.9640   31.5660   46.9400 H   0  0  0  0  0  0  0  0  0  0  0  0
   47.0550   29.4510   45.0070 O   0  0  0  0  0  0  0  0  0  0  0  0
   48.3710   29.3010   45.3480 C   0  0  0  0  0  0  0  0  0  0  0  0
   49.3660   29.2520   44.3650 C   0  0  0  0  0  0  0  0  0  0  0  0
   49.2580   29.3180   43.2890 H   0  0  0  0  0  0  0  0  0  0  0  0
   50.5570   29.0960   45.0770 C   0  0  0  0  0  0  0  0  0  0  0  0
   51.5150   29.0270   44.5400 H   0  0  0  0  0  0  0  0  0  0  0  0
   50.2200   29.0600   46.4320 C   0  0  0  0  0  0  0  0  0  0  0  0
   51.0470   28.9420   47.1190 H   0  0  0  0  0  0  0  0  0  0  0  0
   48.9220   29.1840   46.5370 O   0  0  0  0  0  0  0  0  0  0  0  0
  1  6  1  0  0  0  0
  2  3  1  0  0  0  0
  2  1  1  0  0  0  0
  2  8  1  0  0  0  0
  3 10  1  0  0  0  0
  3  4  1  0  0  0  0
  4 11  1  0  0  0  0
  4  5  1  0  0  0  0
  5 14  1  0  0  0  0
  5 13  1  0  0  0  0
  6 15  1  6  0  0  0
  6 31  1  0  0  0  0
  6  5  1  0  0  0  0
  7  2  1  0  0  0  0
  9  3  1  0  0  0  0
 12  4  1  0  0  0  0
 16 18  1  0  0  0  0
 16  1  1  0  0  0  0
 17 16  1  0  0  0  0
 19 21  1  0  0  0  0
 19 16  1  0  0  0  0
 20 19  1  0  0  0  0
 22 23  1  0  0  0  0
 23 29  1  0  0  0  0
 23 24  2  0  0  0  0
 24 19  1  0  0  0  0
 25 24  1  0  0  0  0
 26 25  2  0  0  0  0
 27 22  2  0  0  0  0
 27 26  1  0  0  0  0
 28 22  1  0  0  0  0
 30 26  1  0  0  0  0
 31 33  1  0  0  0  0
 33 32  2  6  0  0  0
 33 36  1  0  0  0  0
 33 34  1  0  0  0  0
 34 35  1  0  0  0  0
 36 37  1  0  0  0  0
 37 44  1  0  0  0  0
 38 40  1  0  0  0  0
 38 37  2  0  0  0  0
 39 38  1  0  0  0  0
 40 42  2  0  0  0  0
 41 40  1  0  0  0  0
 42 44  1  0  0  0  0
 42 43  1  0  0  0  0
M  END
>  <minimizedAffinity>
-3.89756131

>  <minimizedRMSD>
1.03906548

$$$$
