
 OpenBabel03252509263D

 29 31  0  0  1  0  0  0  0  0999 V2000
   47.1560   35.2490   41.8310 C   0  0  1  0  0  0  0  0  0  0  0  0
   48.6880   35.4700   41.9360 C   0  0  0  0  0  0  0  0  0  0  0  0
   47.9690   34.3860   41.0780 C   0  0  2  0  0  0  0  0  0  0  0  0
   46.6620   36.1470   41.4290 H   0  0  0  0  0  0  0  0  0  0  0  0
   49.1250   36.2580   41.3080 H   0  0  0  0  0  0  0  0  0  0  0  0
   49.2200   35.0860   42.8120 H   0  0  0  0  0  0  0  0  0  0  0  0
   48.1180   33.3300   41.4470 H   0  0  0  0  0  0  0  0  0  0  0  0
   44.9680   34.8330   44.8450 C   0  0  0  0  0  0  0  0  0  0  0  0
   45.4700   35.3700   43.6300 C   0  0  0  0  0  0  0  0  0  0  0  0
   46.5910   34.7730   43.1430 C   0  0  0  0  0  0  0  0  0  0  0  0
   47.1910   33.7220   43.7930 N   0  0  0  0  0  0  0  0  0  0  0  0
   46.6800   33.2430   44.9480 C   0  0  0  0  0  0  0  0  0  0  0  0
   45.5650   33.8010   45.4740 N   0  0  0  0  0  0  0  0  0  0  0  0
   44.0710   35.2940   45.2510 H   0  0  0  0  0  0  0  0  0  0  0  0
   47.1200   32.4210   45.4900 H   0  0  0  0  0  0  0  0  0  0  0  0
   44.8520   36.4690   42.9910 N   0  0  0  0  0  0  0  0  0  0  0  0
   43.9860   36.5710   42.4220 H   0  0  0  0  0  0  0  0  0  0  0  0
   45.5070   37.2740   43.2240 H   0  0  0  0  0  0  0  0  0  0  0  0
   48.0630   34.4830   39.5740 C   0  0  0  0  0  0  0  0  0  0  0  0
   49.1010   34.3670   39.2630 H   0  0  0  0  0  0  0  0  0  0  0  0
   47.6470   35.4390   39.1920 H   0  0  0  0  0  0  0  0  0  0  0  0
   47.2570   33.3300   39.0560 C   0  0  0  0  0  0  0  0  0  0  0  0
   45.9050   33.1280   39.1910 C   0  0  0  0  0  0  0  0  0  0  0  0
   45.2300   33.7840   39.6970 H   0  0  0  0  0  0  0  0  0  0  0  0
   45.6210   31.9300   38.5490 C   0  0  0  0  0  0  0  0  0  0  0  0
   44.6420   31.4730   38.4660 H   0  0  0  0  0  0  0  0  0  0  0  0
   46.8340   31.4650   38.0530 C   0  0  0  0  0  0  0  0  0  0  0  0
   46.8620   30.5360   37.5090 H   0  0  0  0  0  0  0  0  0  0  0  0
   47.7700   32.3220   38.3750 O   0  0  0  0  0  0  0  0  0  0  0  0
  1  4  1  6  0  0  0
  1  2  1  0  0  0  0
  1 10  1  0  0  0  0
  2  6  1  0  0  0  0
  3  7  1  1  0  0  0
  3  1  1  0  0  0  0
  3  2  1  0  0  0  0
  5  2  1  0  0  0  0
  8 14  1  0  0  0  0
  8 13  1  0  0  0  0
  9  8  2  0  0  0  0
 10  9  1  0  0  0  0
 10 11  2  0  0  0  0
 11 12  1  0  0  0  0
 12 13  2  0  0  0  0
 12 15  1  0  0  0  0
 16 18  1  0  0  0  0
 16  9  1  0  0  0  0
 17 16  1  0  0  0  0
 19  3  1  0  0  0  0
 20 19  1  0  0  0  0
 21 19  1  0  0  0  0
 22 23  2  0  0  0  0
 22 19  1  0  0  0  0
 23 24  1  0  0  0  0
 25 23  1  0  0  0  0
 26 25  1  0  0  0  0
 27 29  1  0  0  0  0
 27 25  2  0  0  0  0
 28 27  1  0  0  0  0
 29 22  1  0  0  0  0
M  END
>  <minimizedAffinity>
-4.44605398

>  <minimizedRMSD>
1.3506633

$$$$
