
 OpenBabel03242515093D

 35 37  0  0  0  0  0  0  0  0999 V2000
   46.3220   33.7380   44.7890 C   0  0  0  0  0  0  0  0  0  0  0  0
   45.1630   34.4160   45.0200 C   0  0  0  0  0  0  0  0  0  0  0  0
   44.6790   35.4220   44.2110 C   0  0  0  0  0  0  0  0  0  0  0  0
   45.3930   35.7780   43.0990 C   0  0  0  0  0  0  0  0  0  0  0  0
   46.5570   35.1230   42.8320 C   0  0  0  0  0  0  0  0  0  0  0  0
   47.0310   34.1040   43.6670 C   0  0  0  0  0  0  0  0  0  0  0  0
   44.5750   34.1560   45.8950 H   0  0  0  0  0  0  0  0  0  0  0  0
   43.7540   35.9160   44.4550 H   0  0  0  0  0  0  0  0  0  0  0  0
   45.0160   36.5660   42.4620 H   0  0  0  0  0  0  0  0  0  0  0  0
   47.0920   35.4330   41.9440 H   0  0  0  0  0  0  0  0  0  0  0  0
   47.6000   30.4910   45.8970 C   0  0  0  0  0  0  0  0  0  0  0  0
   47.7090   30.6290   47.2720 C   0  0  0  0  0  0  0  0  0  0  0  0
   47.3390   31.8540   47.8220 C   0  0  0  0  0  0  0  0  0  0  0  0
   46.8900   32.8680   47.0290 N   0  0  0  0  0  0  0  0  0  0  0  0
   46.8000   32.6770   45.6720 C   0  0  0  0  0  0  0  0  0  0  0  0
   47.1550   31.5010   45.1500 N   0  0  0  0  0  0  0  0  0  0  0  0
   47.8700   29.5640   45.4060 H   0  0  0  0  0  0  0  0  0  0  0  0
   48.0680   29.8150   47.8790 H   0  0  0  0  0  0  0  0  0  0  0  0
   47.4000   32.0290   48.8830 H   0  0  0  0  0  0  0  0  0  0  0  0
   48.2510   33.5260   43.2530 N   0  0  0  0  0  0  0  0  0  0  0  0
   48.2580   32.4840   43.4630 H   0  0  0  0  0  0  0  0  0  0  0  0
   49.6310   34.1850   42.5160 S   0  0  0  0  0  0  0  0  0  0  0  0
   49.2680   34.5970   41.0830 O   0  0  0  0  0  0  0  0  0  0  0  0
   49.6420   35.3990   40.6510 H   0  0  0  0  0  0  0  0  0  0  0  0
   50.2330   35.3500   43.2120 O   0  0  0  0  0  0  0  0  0  0  0  0
   50.0280   35.5480   44.1680 H   0  0  0  0  0  0  0  0  0  0  0  0
   50.7210   32.8960   42.3270 O   0  0  0  0  0  0  0  0  0  0  0  0
   50.8230   32.2140   41.1520 C   0  0  0  0  0  0  0  0  0  0  0  0
   52.0500   31.6860   40.7700 C   0  0  0  0  0  0  0  0  0  0  0  0
   53.0110   31.7180   41.2660 H   0  0  0  0  0  0  0  0  0  0  0  0
   51.8340   31.0550   39.5400 C   0  0  0  0  0  0  0  0  0  0  0  0
   52.5060   30.5190   38.8880 H   0  0  0  0  0  0  0  0  0  0  0  0
   50.5090   31.2260   39.2400 C   0  0  0  0  0  0  0  0  0  0  0  0
   49.9630   30.8700   38.3520 H   0  0  0  0  0  0  0  0  0  0  0  0
   49.9680   31.9070   40.2110 O   0  0  0  0  0  0  0  0  0  0  0  0
  1  2  1  0  0  0  0
  1 15  1  0  0  0  0
  2  7  1  0  0  0  0
  3  8  1  0  0  0  0
  3  2  2  0  0  0  0
  4  3  1  0  0  0  0
  5  4  2  0  0  0  0
  5  6  1  0  0  0  0
  6  1  2  0  0  0  0
  9  4  1  0  0  0  0
 10  5  1  0  0  0  0
 11 12  1  0  0  0  0
 12 13  2  0  0  0  0
 12 18  1  0  0  0  0
 13 19  1  0  0  0  0
 14 13  1  0  0  0  0
 15 14  2  0  0  0  0
 16 15  1  0  0  0  0
 16 11  2  0  0  0  0
 17 11  1  0  0  0  0
 20 21  1  0  0  0  0
 20  6  1  0  0  0  0
 22 25  1  0  0  0  0
 22 20  1  0  0  0  0
 23 22  1  0  0  0  0
 24 23  1  0  0  0  0
 25 26  1  0  0  0  0
 27 22  1  0  0  0  0
 28 27  1  0  0  0  0
 29 28  2  0  0  0  0
 29 30  1  0  0  0  0
 31 29  1  0  0  0  0
 32 31  1  0  0  0  0
 33 31  2  0  0  0  0
 33 35  1  0  0  0  0
 34 33  1  0  0  0  0
 35 28  1  0  0  0  0
M  END
>  <minimizedAffinity>
-6.15922785

>  <minimizedRMSD>
2.14232278

$$$$
