
 OpenBabel03252504293D

 26 27  0  0  0  0  0  0  0  0999 V2000
   42.8430   35.6580   41.7110 O   0  0  0  0  0  0  0  0  0  0  0  0
   44.2050   35.5300   41.8650 C   0  0  0  0  0  0  0  0  0  0  0  0
   44.6610   36.5780   41.9140 H   0  0  0  0  0  0  0  0  0  0  0  0
   44.6430   34.9630   41.0310 H   0  0  0  0  0  0  0  0  0  0  0  0
   44.3480   35.7240   44.2420 C   0  0  0  0  0  0  0  0  0  0  0  0
   44.6340   34.9100   43.1340 C   0  0  0  0  0  0  0  0  0  0  0  0
   45.2570   33.7180   43.3850 C   0  0  0  0  0  0  0  0  0  0  0  0
   45.5430   33.4240   44.6490 N   0  0  0  0  0  0  0  0  0  0  0  0
   45.2720   34.1940   45.6970 C   0  0  0  0  0  0  0  0  0  0  0  0
   44.6420   35.4180   45.5350 N   0  0  0  0  0  0  0  0  0  0  0  0
   43.8520   36.7050   44.2000 H   0  0  0  0  0  0  0  0  0  0  0  0
   45.4420   33.1510   42.4840 H   0  0  0  0  0  0  0  0  0  0  0  0
   45.5810   33.7800   46.6270 H   0  0  0  0  0  0  0  0  0  0  0  0
   42.0450   35.0660   40.7470 C   0  0  0  0  0  3  0  0  0  0  0  0
   40.7920   35.5660   40.6230 C   0  0  0  0  0  3  0  0  0  0  0  0
   39.7660   35.1200   39.6000 C   0  0  0  0  0  0  0  0  0  0  0  0
   40.1760   35.2780   38.5880 H   0  0  0  0  0  0  0  0  0  0  0  0
   38.8970   35.7620   39.7310 H   0  0  0  0  0  0  0  0  0  0  0  0
   39.4760   33.6840   39.8710 C   0  0  0  0  0  0  0  0  0  0  0  0
   38.7180   33.1320   40.8780 C   0  0  0  0  0  0  0  0  0  0  0  0
   38.2000   33.6810   41.6550 H   0  0  0  0  0  0  0  0  0  0  0  0
   38.7790   31.7570   40.6640 C   0  0  0  0  0  0  0  0  0  0  0  0
   38.2820   31.0050   41.2870 H   0  0  0  0  0  0  0  0  0  0  0  0
   39.5710   31.5560   39.5350 C   0  0  0  0  0  0  0  0  0  0  0  0
   39.8060   30.5870   39.1130 H   0  0  0  0  0  0  0  0  0  0  0  0
   39.9710   32.7350   39.0850 O   0  0  0  0  0  0  0  0  0  0  0  0
  1  2  1  0  0  0  0
  2  3  1  0  0  0  0
  2  6  1  0  0  0  0
  4  2  1  0  0  0  0
  5 10  1  0  0  0  0
  6  7  1  0  0  0  0
  6  5  2  0  0  0  0
  7  8  2  0  0  0  0
  8  9  1  0  0  0  0
  9 13  1  0  0  0  0
 10  9  2  0  0  0  0
 11  5  1  0  0  0  0
 12  7  1  0  0  0  0
 14  1  1  0  0  0  0
 15 14  2  0  0  0  0
 16 18  1  0  0  0  0
 16 19  1  0  0  0  0
 16 15  1  0  0  0  0
 17 16  1  0  0  0  0
 19 20  2  0  0  0  0
 20 21  1  0  0  0  0
 22 20  1  0  0  0  0
 22 23  1  0  0  0  0
 24 22  2  0  0  0  0
 25 24  1  0  0  0  0
 26 24  1  0  0  0  0
 26 19  1  0  0  0  0
M  END
>  <minimizedAffinity>
-4.30502367

>  <minimizedRMSD>
1.16218472

$$$$
