
 OpenBabel03252508503D

 27 29  0  0  0  0  0  0  0  0999 V2000
   45.9240   34.2090   41.0300 C   0  0  0  0  0  0  0  0  0  0  0  0
   46.5200   34.8040   42.1340 C   0  0  0  0  0  0  0  0  0  0  0  0
   47.8790   35.1410   42.0080 C   0  0  0  0  0  0  0  0  0  0  0  0
   48.5070   34.8660   40.8360 N   0  0  0  0  0  0  0  0  0  0  0  0
   47.8940   34.2940   39.8070 C   0  0  0  0  0  0  0  0  0  0  0  0
   46.5950   33.9610   39.8960 N   0  0  0  0  0  0  0  0  0  0  0  0
   48.3660   35.6000   42.8410 H   0  0  0  0  0  0  0  0  0  0  0  0
   48.3590   34.0590   38.8530 H   0  0  0  0  0  0  0  0  0  0  0  0
   45.7480   35.0500   43.3360 C   0  0  0  0  0  0  0  0  0  0  0  0
   45.0870   36.2350   43.5810 C   0  0  0  0  0  0  0  0  0  0  0  0
   44.4990   36.0390   44.8080 C   0  0  0  0  0  0  0  0  0  0  0  0
   44.7820   34.8100   45.2860 N   0  0  0  0  0  0  0  0  0  0  0  0
   45.5370   34.2330   44.3760 N   0  0  0  0  0  0  0  0  0  0  0  0
   44.9960   37.1490   43.0090 H   0  0  0  0  0  0  0  0  0  0  0  0
   43.8720   36.6980   45.4160 H   0  0  0  0  0  0  0  0  0  0  0  0
   44.5470   34.2740   46.1480 H   0  0  0  0  0  0  0  0  0  0  0  0
   44.5870   33.8640   41.1160 O   0  0  0  0  0  0  0  0  0  0  0  0
   43.5210   34.5300   40.5870 C   0  0  0  0  0  0  0  0  0  0  0  0
   43.1570   35.7350   40.8470 O   0  0  0  0  0  0  0  0  0  0  0  0
   42.5860   33.9230   39.5900 C   0  0  0  0  0  0  0  0  0  0  0  0
   41.4020   34.4660   39.0760 C   0  0  0  0  0  0  0  0  0  0  0  0
   41.0500   35.4590   39.3980 H   0  0  0  0  0  0  0  0  0  0  0  0
   40.8050   33.6140   38.1750 C   0  0  0  0  0  0  0  0  0  0  0  0
   39.8850   33.7900   37.6360 H   0  0  0  0  0  0  0  0  0  0  0  0
   41.6770   32.5480   38.1740 C   0  0  0  0  0  0  0  0  0  0  0  0
   41.5460   31.6420   37.5650 H   0  0  0  0  0  0  0  0  0  0  0  0
   42.6540   32.7690   38.9780 O   0  0  0  0  0  0  0  0  0  0  0  0
  1 17  1  0  0  0  0
  1  2  1  0  0  0  0
  2  9  1  0  0  0  0
  3  2  2  0  0  0  0
  3  7  1  0  0  0  0
  4  3  1  0  0  0  0
  5  6  1  0  0  0  0
  5  4  2  0  0  0  0
  6  1  2  0  0  0  0
  8  5  1  0  0  0  0
  9 10  1  0  0  0  0
  9 13  2  0  0  0  0
 10 11  2  0  0  0  0
 11 12  1  0  0  0  0
 11 15  1  0  0  0  0
 12 16  1  0  0  0  0
 13 12  1  0  0  0  0
 14 10  1  0  0  0  0
 18 19  2  0  0  0  0
 18 17  1  0  0  0  0
 20 18  1  0  0  0  0
 21 22  1  0  0  0  0
 21 20  2  0  0  0  0
 23 21  1  0  0  0  0
 24 23  1  0  0  0  0
 25 23  2  0  0  0  0
 25 27  1  0  0  0  0
 26 25  1  0  0  0  0
 27 20  1  0  0  0  0
M  END
>  <minimizedAffinity>
-5.13836813

>  <minimizedRMSD>
0.593379974

$$$$
