
 OpenBabel03252504583D

 36 38  0  0  1  0  0  0  0  0999 V2000
   47.9010   33.9920   42.0580 N   0  0  0  0  0  0  0  0  0  0  0  0
   47.8760   34.9780   41.0450 C   0  0  0  0  0  0  0  0  0  0  0  0
   49.0500   35.8150   41.3820 C   0  0  0  0  0  0  0  0  0  0  0  0
   49.7440   35.2110   42.5930 C   0  0  0  0  0  0  0  0  0  0  0  0
   49.1890   33.7780   42.5800 C   0  0  2  0  0  0  0  0  0  0  0  0
   47.3190   35.2700   40.1950 H   0  0  0  0  0  0  0  0  0  0  0  0
   49.4390   36.6970   40.8940 H   0  0  0  0  0  0  0  0  0  0  0  0
   50.8100   35.2230   42.3690 H   0  0  0  0  0  0  0  0  0  0  0  0
   49.4600   35.7460   43.5180 H   0  0  0  0  0  0  0  0  0  0  0  0
   49.1850   33.2960   43.5550 H   0  0  0  0  0  0  0  0  0  0  0  0
   46.7320   33.3880   42.4500 C   0  0  0  0  0  0  0  0  0  0  0  0
   45.9800   33.2470   41.6400 H   0  0  0  0  0  0  0  0  0  0  0  0
   46.9750   32.3280   42.7220 H   0  0  0  0  0  0  0  0  0  0  0  0
   44.6050   35.7370   44.5230 C   0  0  0  0  0  0  0  0  0  0  0  0
   45.2770   35.2130   43.3760 C   0  0  0  0  0  0  0  0  0  0  0  0
   46.0240   34.0450   43.5290 C   0  0  0  0  0  0  0  0  0  0  0  0
   46.0610   33.4880   44.7580 N   0  0  0  0  0  0  0  0  0  0  0  0
   45.4050   34.0080   45.8550 C   0  0  0  0  0  0  0  0  0  0  0  0
   44.6840   35.1290   45.7230 N   0  0  0  0  0  0  0  0  0  0  0  0
   44.0650   36.6360   44.2820 H   0  0  0  0  0  0  0  0  0  0  0  0
   45.2340   35.6710   42.4150 H   0  0  0  0  0  0  0  0  0  0  0  0
   45.4870   33.4980   46.8020 H   0  0  0  0  0  0  0  0  0  0  0  0
   49.9110   33.0940   41.5910 O   0  0  0  0  0  0  0  0  0  0  0  0
   49.3220   30.8830   42.9410 O   0  0  0  0  0  0  0  0  0  0  0  0
   50.2870   31.5260   41.9780 P   0  0  2  0  0  0  0  0  0  0  0  0
   51.8160   31.5150   42.7160 O   0  0  0  0  0  0  0  0  0  0  0  0
   52.5430   31.3400   42.0890 H   0  0  0  0  0  0  0  0  0  0  0  0
   50.4510   30.5720   40.5610 O   0  0  0  0  0  0  0  0  0  0  0  0
   51.4770   30.9540   39.6770 C   0  0  0  0  0  0  0  0  0  0  0  0
   51.3030   31.4340   38.4030 C   0  0  0  0  0  0  0  0  0  0  0  0
   50.3750   31.6060   37.8540 H   0  0  0  0  0  0  0  0  0  0  0  0
   52.5700   31.6770   37.9080 C   0  0  0  0  0  0  0  0  0  0  0  0
   52.8620   32.0610   36.9400 H   0  0  0  0  0  0  0  0  0  0  0  0
   53.4550   31.3320   38.9080 C   0  0  0  0  0  0  0  0  0  0  0  0
   54.5320   31.4090   38.8220 H   0  0  0  0  0  0  0  0  0  0  0  0
   52.7570   30.9010   39.9550 O   0  0  0  0  0  0  0  0  0  0  0  0
  1 11  1  0  0  0  0
  1  5  1  0  0  0  0
  2  3  2  0  0  0  0
  2  1  1  0  0  0  0
  3  4  1  0  0  0  0
  4  9  1  0  0  0  0
  5  4  1  0  0  0  0
  5 10  1  1  0  0  0
  6  2  1  0  0  0  0
  7  3  1  0  0  0  0
  8  4  1  0  0  0  0
 11 13  1  0  0  0  0
 11 16  1  0  0  0  0
 12 11  1  0  0  0  0
 14 19  1  0  0  0  0
 15 16  1  0  0  0  0
 15 14  2  0  0  0  0
 16 17  2  0  0  0  0
 17 18  1  0  0  0  0
 18 22  1  0  0  0  0
 19 18  2  0  0  0  0
 20 14  1  0  0  0  0
 21 15  1  0  0  0  0
 23 25  1  0  0  0  0
 23  5  1  0  0  0  0
 25 26  1  0  0  0  0
 25 24  2  1  0  0  0
 27 26  1  0  0  0  0
 28 25  1  0  0  0  0
 29 36  1  0  0  0  0
 29 28  1  0  0  0  0
 30 29  2  0  0  0  0
 31 30  1  0  0  0  0
 32 30  1  0  0  0  0
 32 34  2  0  0  0  0
 33 32  1  0  0  0  0
 34 36  1  0  0  0  0
 35 34  1  0  0  0  0
M  END
>  <minimizedAffinity>
-5.1257906

>  <minimizedRMSD>
0.578105211

$$$$
