
 OpenBabel03252508483D

 44 46  0  0  0  0  0  0  0  0999 V2000
   35.9210   30.1010   40.6980 C   0  0  0  0  0  0  0  0  0  0  0  0
   35.0750   30.8190   40.9170 H   0  0  0  0  0  0  0  0  0  0  0  0
   36.8590   30.5670   41.0780 H   0  0  0  0  0  0  0  0  0  0  0  0
   36.9670   30.7080   38.5140 C   0  0  0  0  0  0  0  0  0  0  0  0
   36.0720   29.9200   39.2290 C   0  0  0  0  0  0  0  0  0  0  0  0
   35.3470   28.9870   38.5360 C   0  0  0  0  0  0  0  0  0  0  0  0
   35.5010   28.8360   37.1880 C   0  0  0  0  0  0  0  0  0  0  0  0
   36.3750   29.5990   36.4720 C   0  0  0  0  0  0  0  0  0  0  0  0
   37.0960   30.5380   37.1970 C   0  0  0  0  0  0  0  0  0  0  0  0
   34.6480   28.3750   39.1090 H   0  0  0  0  0  0  0  0  0  0  0  0
   34.9320   28.0990   36.6280 H   0  0  0  0  0  0  0  0  0  0  0  0
   36.5600   29.5490   35.4060 H   0  0  0  0  0  0  0  0  0  0  0  0
   37.8110   31.1830   36.6910 H   0  0  0  0  0  0  0  0  0  0  0  0
   38.1630   33.9000   40.1580 C   0  0  0  0  0  0  0  0  0  0  0  0
   37.3740   33.0330   39.3810 C   0  0  0  0  0  0  0  0  0  0  0  0
   37.7210   31.6920   39.2960 C   0  0  0  0  0  0  0  0  0  0  0  0
   38.8240   31.2870   39.9800 N   0  0  0  0  0  0  0  0  0  0  0  0
   39.5730   32.1320   40.7240 C   0  0  0  0  0  0  0  0  0  0  0  0
   39.2360   33.4280   40.8050 N   0  0  0  0  0  0  0  0  0  0  0  0
   37.8810   34.9450   40.2160 H   0  0  0  0  0  0  0  0  0  0  0  0
   36.5010   33.3690   38.8420 H   0  0  0  0  0  0  0  0  0  0  0  0
   40.4400   31.7090   41.2360 H   0  0  0  0  0  0  0  0  0  0  0  0
   35.7450   28.8720   41.4280 N   0  0  0  0  0  0  0  0  0  0  0  0
   35.6290   28.0860   40.7430 H   0  0  0  0  0  0  0  0  0  0  0  0
   37.1310   28.4720   42.3540 S   0  0  0  0  0  0  0  0  0  0  0  0
   37.1680   29.2520   43.6360 O   0  0  0  0  0  0  0  0  0  0  0  0
   37.4270   28.8930   44.5360 H   0  0  0  0  0  0  0  0  0  0  0  0
   38.3760   28.7000   41.5730 O   0  0  0  0  0  0  0  0  0  0  0  0
   38.6740   29.6450   41.3770 H   0  0  0  0  0  0  0  0  0  0  0  0
   37.0300   26.8380   42.7110 O   0  0  0  0  0  0  0  0  0  0  0  0
   36.9870   26.1180   41.5400 C   0  0  0  0  0  0  0  0  0  0  0  0
   37.4120   26.6850   40.7070 H   0  0  0  0  0  0  0  0  0  0  0  0
   35.9890   25.7870   41.2230 H   0  0  0  0  0  0  0  0  0  0  0  0
   37.7690   24.8070   41.7310 C   0  0  0  0  0  0  0  0  0  0  0  0
   37.3010   24.1680   42.4770 H   0  0  0  0  0  0  0  0  0  0  0  0
   37.7410   24.2730   40.7420 H   0  0  0  0  0  0  0  0  0  0  0  0
   39.1730   25.1130   42.0570 C   0  0  0  0  0  0  0  0  0  0  0  0
   39.9280   24.5250   43.0350 C   0  0  0  0  0  0  0  0  0  0  0  0
   39.6320   23.7410   43.7350 H   0  0  0  0  0  0  0  0  0  0  0  0
   41.1820   25.1360   42.9650 C   0  0  0  0  0  0  0  0  0  0  0  0
   41.9780   24.8390   43.6510 H   0  0  0  0  0  0  0  0  0  0  0  0
   41.1000   26.0670   41.9340 C   0  0  0  0  0  0  0  0  0  0  0  0
   42.0130   26.6220   41.7640 H   0  0  0  0  0  0  0  0  0  0  0  0
   39.8980   26.0240   41.4210 O   0  0  0  0  0  0  0  0  0  0  0  0
  1  2  1  0  0  0  0
  1  3  1  0  0  0  0
  1 23  1  0  0  0  0
  4  5  1  0  0  0  0
  4 16  1  0  0  0  0
  5  1  1  0  0  0  0
  6 10  1  0  0  0  0
  6  5  2  0  0  0  0
  7  6  1  0  0  0  0
  8  7  2  0  0  0  0
  8  9  1  0  0  0  0
  9  4  2  0  0  0  0
 11  7  1  0  0  0  0
 12  8  1  0  0  0  0
 13  9  1  0  0  0  0
 14 20  1  0  0  0  0
 14 19  1  0  0  0  0
 15 14  2  0  0  0  0
 16 15  1  0  0  0  0
 16 17  2  0  0  0  0
 17 18  1  0  0  0  0
 18 19  2  0  0  0  0
 18 22  1  0  0  0  0
 21 15  1  0  0  0  0
 23 25  1  0  0  0  0
 24 23  1  0  0  0  0
 25 30  1  0  0  0  0
 25 26  1  0  0  0  0
 26 27  1  0  0  0  0
 28 25  1  0  0  0  0
 29 28  1  0  0  0  0
 31 34  1  0  0  0  0
 31 30  1  0  0  0  0
 32 31  1  0  0  0  0
 33 31  1  0  0  0  0
 34 37  1  0  0  0  0
 34 35  1  0  0  0  0
 36 34  1  0  0  0  0
 37 38  2  0  0  0  0
 38 39  1  0  0  0  0
 40 38  1  0  0  0  0
 40 41  1  0  0  0  0
 42 40  2  0  0  0  0
 43 42  1  0  0  0  0
 44 42  1  0  0  0  0
 44 37  1  0  0  0  0
M  END
>  <minimizedAffinity>
-5.7028923

$$$$

 OpenBabel03252508483D

 44 46  0  0  0  0  0  0  0  0999 V2000
   37.9340   28.3100   42.3700 C   0  0  0  0  0  0  0  0  0  0  0  0
   38.5200   28.7720   41.5200 H   0  0  0  0  0  0  0  0  0  0  0  0
   38.4230   28.6240   43.3200 H   0  0  0  0  0  0  0  0  0  0  0  0
   39.2430   26.1870   42.2630 C   0  0  0  0  0  0  0  0  0  0  0  0
   38.0090   26.8250   42.2950 C   0  0  0  0  0  0  0  0  0  0  0  0
   36.8830   26.0450   42.2570 C   0  0  0  0  0  0  0  0  0  0  0  0
   36.9740   24.6840   42.1900 C   0  0  0  0  0  0  0  0  0  0  0  0
   38.1760   24.0420   42.1570 C   0  0  0  0  0  0  0  0  0  0  0  0
   39.3000   24.8550   42.1970 C   0  0  0  0  0  0  0  0  0  0  0  0
   35.9210   26.5590   42.2830 H   0  0  0  0  0  0  0  0  0  0  0  0
   36.0890   24.0550   42.1580 H   0  0  0  0  0  0  0  0  0  0  0  0
   38.3410   22.9730   42.1040 H   0  0  0  0  0  0  0  0  0  0  0  0
   40.2930   24.4120   42.1740 H   0  0  0  0  0  0  0  0  0  0  0  0
   42.1310   28.4450   41.3250 C   0  0  0  0  0  0  0  0  0  0  0  0
   41.0020   27.6190   41.1790 C   0  0  0  0  0  0  0  0  0  0  0  0
   40.4190   27.0610   42.3070 C   0  0  0  0  0  0  0  0  0  0  0  0
   40.9810   27.3500   43.5100 N   0  0  0  0  0  0  0  0  0  0  0  0
   42.0670   28.1470   43.6360 C   0  0  0  0  0  0  0  0  0  0  0  0
   42.6300   28.6860   42.5440 N   0  0  0  0  0  0  0  0  0  0  0  0
   42.5770   28.8750   40.4360 H   0  0  0  0  0  0  0  0  0  0  0  0
   40.5660   27.3970   40.2160 H   0  0  0  0  0  0  0  0  0  0  0  0
   42.4430   28.3190   44.6460 H   0  0  0  0  0  0  0  0  0  0  0  0
   36.5920   28.8310   42.4040 N   0  0  0  0  0  0  0  0  0  0  0  0
   36.5040   29.4830   43.2210 H   0  0  0  0  0  0  0  0  0  0  0  0
   36.2370   29.7810   41.0210 S   0  0  0  0  0  0  0  0  0  0  0  0
   35.5620   31.0650   41.4070 O   0  0  0  0  0  0  0  0  0  0  0  0
   35.7470   31.9680   41.0130 H   0  0  0  0  0  0  0  0  0  0  0  0
   35.3970   29.0220   40.0570 O   0  0  0  0  0  0  0  0  0  0  0  0
   34.4310   28.8340   40.2810 H   0  0  0  0  0  0  0  0  0  0  0  0
   37.6970   30.1330   40.2780 O   0  0  0  0  0  0  0  0  0  0  0  0
   37.5300   30.1110   38.9130 C   0  0  0  0  0  0  0  0  0  0  0  0
   36.7290   29.4270   38.6200 H   0  0  0  0  0  0  0  0  0  0  0  0
   38.4170   29.8290   38.3310 H   0  0  0  0  0  0  0  0  0  0  0  0
   37.2050   31.5330   38.4270 C   0  0  0  0  0  0  0  0  0  0  0  0
   37.2250   31.5990   37.3410 H   0  0  0  0  0  0  0  0  0  0  0  0
   36.1580   31.7570   38.7730 H   0  0  0  0  0  0  0  0  0  0  0  0
   38.1220   32.4940   39.0640 C   0  0  0  0  0  0  0  0  0  0  0  0
   37.7710   33.5380   39.8780 C   0  0  0  0  0  0  0  0  0  0  0  0
   36.7700   33.8380   40.1930 H   0  0  0  0  0  0  0  0  0  0  0  0
   38.9690   34.1600   40.2350 C   0  0  0  0  0  0  0  0  0  0  0  0
   38.9610   35.0330   40.8900 H   0  0  0  0  0  0  0  0  0  0  0  0
   39.9800   33.4410   39.6030 C   0  0  0  0  0  0  0  0  0  0  0  0
   40.9760   33.8160   39.7940 H   0  0  0  0  0  0  0  0  0  0  0  0
   39.4400   32.4640   38.9210 O   0  0  0  0  0  0  0  0  0  0  0  0
  1 23  1  0  0  0  0
  1  3  1  0  0  0  0
  2  1  1  0  0  0  0
  4  5  1  0  0  0  0
  4 16  1  0  0  0  0
  5  1  1  0  0  0  0
  6 10  1  0  0  0  0
  6  5  2  0  0  0  0
  7  6  1  0  0  0  0
  8  7  2  0  0  0  0
  8  9  1  0  0  0  0
  9  4  2  0  0  0  0
 11  7  1  0  0  0  0
 12  8  1  0  0  0  0
 13  9  1  0  0  0  0
 14 19  1  0  0  0  0
 15 14  2  0  0  0  0
 15 16  1  0  0  0  0
 16 17  2  0  0  0  0
 17 18  1  0  0  0  0
 18 22  1  0  0  0  0
 19 18  2  0  0  0  0
 20 14  1  0  0  0  0
 21 15  1  0  0  0  0
 23 24  1  0  0  0  0
 25 26  1  0  0  0  0
 25 23  1  0  0  0  0
 27 26  1  0  0  0  0
 28 29  1  0  0  0  0
 28 25  1  0  0  0  0
 30 25  1  0  0  0  0
 31 30  1  0  0  0  0
 32 31  1  0  0  0  0
 33 31  1  0  0  0  0
 34 36  1  0  0  0  0
 34 31  1  0  0  0  0
 34 37  1  0  0  0  0
 35 34  1  0  0  0  0
 37 38  2  0  0  0  0
 38 39  1  0  0  0  0
 38 40  1  0  0  0  0
 40 41  1  0  0  0  0
 42 43  1  0  0  0  0
 42 40  2  0  0  0  0
 44 37  1  0  0  0  0
 44 42  1  0  0  0  0
M  END
>  <minimizedAffinity>
-5.57094479

$$$$

 OpenBabel03252508483D

 44 46  0  0  0  0  0  0  0  0999 V2000
   36.3510   30.4180   41.3830 C   0  0  0  0  0  0  0  0  0  0  0  0
   35.4400   30.8440   41.8990 H   0  0  0  0  0  0  0  0  0  0  0  0
   37.1020   31.2370   41.3050 H   0  0  0  0  0  0  0  0  0  0  0  0
   36.6140   30.6020   38.9070 C   0  0  0  0  0  0  0  0  0  0  0  0
   36.0050   29.9950   39.9990 C   0  0  0  0  0  0  0  0  0  0  0  0
   35.0880   29.0070   39.7530 C   0  0  0  0  0  0  0  0  0  0  0  0
   34.7840   28.6320   38.4750 C   0  0  0  0  0  0  0  0  0  0  0  0
   35.3720   29.2170   37.3930 C   0  0  0  0  0  0  0  0  0  0  0  0
   36.2960   30.2150   37.6700 C   0  0  0  0  0  0  0  0  0  0  0  0
   34.6180   28.5380   40.6190 H   0  0  0  0  0  0  0  0  0  0  0  0
   34.0590   27.8500   38.2680 H   0  0  0  0  0  0  0  0  0  0  0  0
   35.1920   28.9850   36.3510 H   0  0  0  0  0  0  0  0  0  0  0  0
   36.8040   30.7270   36.8550 H   0  0  0  0  0  0  0  0  0  0  0  0
   38.2430   33.8670   39.9070 C   0  0  0  0  0  0  0  0  0  0  0  0
   37.2330   32.9280   39.6340 C   0  0  0  0  0  0  0  0  0  0  0  0
   37.5870   31.6530   39.2180 C   0  0  0  0  0  0  0  0  0  0  0  0
   38.9130   31.3800   39.0960 N   0  0  0  0  0  0  0  0  0  0  0  0
   39.8740   32.2940   39.3630 C   0  0  0  0  0  0  0  0  0  0  0  0
   39.5300   33.5260   39.7650 N   0  0  0  0  0  0  0  0  0  0  0  0
   37.9530   34.8600   40.2320 H   0  0  0  0  0  0  0  0  0  0  0  0
   36.1830   33.1590   39.7340 H   0  0  0  0  0  0  0  0  0  0  0  0
   40.9110   31.9770   39.2350 H   0  0  0  0  0  0  0  0  0  0  0  0
   36.9500   29.3820   42.1840 N   0  0  0  0  0  0  0  0  0  0  0  0
   36.6800   28.4490   41.7860 H   0  0  0  0  0  0  0  0  0  0  0  0
   38.6620   29.4280   42.1160 S   0  0  0  0  0  0  0  0  0  0  0  0
   39.1740   30.8230   42.3310 O   0  0  0  0  0  0  0  0  0  0  0  0
   39.9690   31.0790   42.8850 H   0  0  0  0  0  0  0  0  0  0  0  0
   39.1580   28.8870   40.8220 O   0  0  0  0  0  0  0  0  0  0  0  0
   39.0250   29.4220   39.9770 H   0  0  0  0  0  0  0  0  0  0  0  0
   39.2310   28.4420   43.3460 O   0  0  0  0  0  0  0  0  0  0  0  0
   38.3170   27.4440   43.5880 C   0  0  0  0  0  0  0  0  0  0  0  0
   37.3440   27.6780   43.1480 H   0  0  0  0  0  0  0  0  0  0  0  0
   38.1400   27.2100   44.6470 H   0  0  0  0  0  0  0  0  0  0  0  0
   38.8510   26.1260   43.0030 C   0  0  0  0  0  0  0  0  0  0  0  0
   39.8710   26.2340   42.6400 H   0  0  0  0  0  0  0  0  0  0  0  0
   38.8550   25.3810   43.8460 H   0  0  0  0  0  0  0  0  0  0  0  0
   37.9330   25.6420   41.9580 C   0  0  0  0  0  0  0  0  0  0  0  0
   37.3600   24.4010   41.8880 C   0  0  0  0  0  0  0  0  0  0  0  0
   37.4790   23.5640   42.5790 H   0  0  0  0  0  0  0  0  0  0  0  0
   36.5750   24.4090   40.7330 C   0  0  0  0  0  0  0  0  0  0  0  0
   36.0050   23.5220   40.4480 H   0  0  0  0  0  0  0  0  0  0  0  0
   36.7270   25.6740   40.1730 C   0  0  0  0  0  0  0  0  0  0  0  0
   36.1670   25.8250   39.2600 H   0  0  0  0  0  0  0  0  0  0  0  0
   37.5360   26.3740   40.9240 O   0  0  0  0  0  0  0  0  0  0  0  0
  1  2  1  0  0  0  0
  1 23  1  0  0  0  0
  3  1  1  0  0  0  0
  4 16  1  0  0  0  0
  4  5  1  0  0  0  0
  5  1  1  0  0  0  0
  6  5  2  0  0  0  0
  6 10  1  0  0  0  0
  7  6  1  0  0  0  0
  8  9  1  0  0  0  0
  8  7  2  0  0  0  0
  9  4  2  0  0  0  0
 11  7  1  0  0  0  0
 12  8  1  0  0  0  0
 13  9  1  0  0  0  0
 14 20  1  0  0  0  0
 15 21  1  0  0  0  0
 15 14  2  0  0  0  0
 16 15  1  0  0  0  0
 17 16  2  0  0  0  0
 17 18  1  0  0  0  0
 18 19  2  0  0  0  0
 19 14  1  0  0  0  0
 22 18  1  0  0  0  0
 24 23  1  0  0  0  0
 25 23  1  0  0  0  0
 25 26  1  0  0  0  0
 25 30  1  0  0  0  0
 26 27  1  0  0  0  0
 28 25  1  0  0  0  0
 29 28  1  0  0  0  0
 30 31  1  0  0  0  0
 31 33  1  0  0  0  0
 32 31  1  0  0  0  0
 34 31  1  0  0  0  0
 34 36  1  0  0  0  0
 35 34  1  0  0  0  0
 37 34  1  0  0  0  0
 38 37  2  0  0  0  0
 38 39  1  0  0  0  0
 40 38  1  0  0  0  0
 41 40  1  0  0  0  0
 42 40  2  0  0  0  0
 42 44  1  0  0  0  0
 43 42  1  0  0  0  0
 44 37  1  0  0  0  0
M  END
>  <minimizedAffinity>
-5.50289822

$$$$

 OpenBabel03252508483D

 44 46  0  0  0  0  0  0  0  0999 V2000
   35.4430   29.4950   40.6420 C   0  0  0  0  0  0  0  0  0  0  0  0
   34.3330   29.3560   40.8030 H   0  0  0  0  0  0  0  0  0  0  0  0
   35.6140   29.5590   39.5430 H   0  0  0  0  0  0  0  0  0  0  0  0
   36.7570   27.4080   40.2490 C   0  0  0  0  0  0  0  0  0  0  0  0
   36.1850   28.3060   41.1430 C   0  0  0  0  0  0  0  0  0  0  0  0
   36.3310   28.0560   42.4830 C   0  0  0  0  0  0  0  0  0  0  0  0
   37.0160   26.9600   42.9220 C   0  0  0  0  0  0  0  0  0  0  0  0
   37.5830   26.0690   42.0590 C   0  0  0  0  0  0  0  0  0  0  0  0
   37.4200   26.3460   40.7090 C   0  0  0  0  0  0  0  0  0  0  0  0
   35.8770   28.7690   43.1730 H   0  0  0  0  0  0  0  0  0  0  0  0
   37.1380   26.7510   43.9810 H   0  0  0  0  0  0  0  0  0  0  0  0
   38.1400   25.1780   42.3180 H   0  0  0  0  0  0  0  0  0  0  0  0
   37.8450   25.6780   39.9620 H   0  0  0  0  0  0  0  0  0  0  0  0
   35.3780   27.6840   36.7360 C   0  0  0  0  0  0  0  0  0  0  0  0
   35.4580   27.3410   38.0980 C   0  0  0  0  0  0  0  0  0  0  0  0
   36.5760   27.7160   38.8280 C   0  0  0  0  0  0  0  0  0  0  0  0
   37.5490   28.4050   38.1730 N   0  0  0  0  0  0  0  0  0  0  0  0
   37.4590   28.7280   36.8630 C   0  0  0  0  0  0  0  0  0  0  0  0
   36.3760   28.3650   36.1590 N   0  0  0  0  0  0  0  0  0  0  0  0
   34.4990   27.3860   36.1770 H   0  0  0  0  0  0  0  0  0  0  0  0
   34.6780   26.7930   38.6040 H   0  0  0  0  0  0  0  0  0  0  0  0
   38.2930   29.2830   36.4300 H   0  0  0  0  0  0  0  0  0  0  0  0
   35.8850   30.7450   41.2030 N   0  0  0  0  0  0  0  0  0  0  0  0
   36.4560   30.5480   42.0610 H   0  0  0  0  0  0  0  0  0  0  0  0
   36.9330   31.5890   40.1410 S   0  0  0  0  0  0  0  0  0  0  0  0
   36.9160   33.0640   40.4240 O   0  0  0  0  0  0  0  0  0  0  0  0
   37.7140   33.6700   40.4360 H   0  0  0  0  0  0  0  0  0  0  0  0
   36.5740   31.3300   38.7220 O   0  0  0  0  0  0  0  0  0  0  0  0
   35.7280   31.7300   38.3420 H   0  0  0  0  0  0  0  0  0  0  0  0
   38.4800   31.0010   40.4050 O   0  0  0  0  0  0  0  0  0  0  0  0
   39.3320   31.5210   39.4580 C   0  0  0  0  0  0  0  0  0  0  0  0
   38.7970   32.1550   38.7460 H   0  0  0  0  0  0  0  0  0  0  0  0
   39.8930   30.7830   38.8690 H   0  0  0  0  0  0  0  0  0  0  0  0
   40.4260   32.3380   40.1660 C   0  0  0  0  0  0  0  0  0  0  0  0
   39.9980   33.0900   40.8270 H   0  0  0  0  0  0  0  0  0  0  0  0
   41.0110   31.6110   40.7920 H   0  0  0  0  0  0  0  0  0  0  0  0
   41.3310   32.9240   39.1620 C   0  0  0  0  0  0  0  0  0  0  0  0
   41.3640   32.6300   37.8260 C   0  0  0  0  0  0  0  0  0  0  0  0
   40.7400   31.9230   37.2760 H   0  0  0  0  0  0  0  0  0  0  0  0
   42.3770   33.4270   37.2870 C   0  0  0  0  0  0  0  0  0  0  0  0
   42.6060   33.3780   36.2200 H   0  0  0  0  0  0  0  0  0  0  0  0
   42.8960   34.1610   38.3490 C   0  0  0  0  0  0  0  0  0  0  0  0
   43.6990   34.8310   38.0740 H   0  0  0  0  0  0  0  0  0  0  0  0
   42.2530   33.8370   39.4400 O   0  0  0  0  0  0  0  0  0  0  0  0
  1  2  1  0  0  0  0
  1  5  1  0  0  0  0
  1 23  1  0  0  0  0
  3  1  1  0  0  0  0
  4  9  2  0  0  0  0
  4  5  1  0  0  0  0
  5  6  2  0  0  0  0
  6  7  1  0  0  0  0
  6 10  1  0  0  0  0
  7 11  1  0  0  0  0
  8 12  1  0  0  0  0
  8  7  2  0  0  0  0
  9  8  1  0  0  0  0
 13  9  1  0  0  0  0
 14 15  1  0  0  0  0
 15 21  1  0  0  0  0
 15 16  2  0  0  0  0
 16  4  1  0  0  0  0
 17 16  1  0  0  0  0
 18 17  2  0  0  0  0
 19 14  2  0  0  0  0
 19 18  1  0  0  0  0
 20 14  1  0  0  0  0
 22 18  1  0  0  0  0
 23 24  1  0  0  0  0
 25 30  1  0  0  0  0
 25 26  1  0  0  0  0
 25 23  1  0  0  0  0
 26 27  1  0  0  0  0
 28 25  1  0  0  0  0
 29 28  1  0  0  0  0
 31 34  1  0  0  0  0
 31 30  1  0  0  0  0
 32 31  1  0  0  0  0
 33 31  1  0  0  0  0
 34 36  1  0  0  0  0
 34 35  1  0  0  0  0
 37 44  1  0  0  0  0
 37 34  1  0  0  0  0
 38 37  2  0  0  0  0
 39 38  1  0  0  0  0
 40 38  1  0  0  0  0
 40 42  2  0  0  0  0
 41 40  1  0  0  0  0
 42 44  1  0  0  0  0
 43 42  1  0  0  0  0
M  END
>  <minimizedAffinity>
-5.40007067

$$$$

 OpenBabel03252508483D

 44 46  0  0  0  0  0  0  0  0999 V2000
   35.5970   29.6660   40.4940 C   0  0  0  0  0  0  0  0  0  0  0  0
   34.4720   29.5850   40.4100 H   0  0  0  0  0  0  0  0  0  0  0  0
   35.9990   29.7720   39.4600 H   0  0  0  0  0  0  0  0  0  0  0  0
   36.5900   27.3910   40.2330 C   0  0  0  0  0  0  0  0  0  0  0  0
   36.1600   28.4150   41.0690 C   0  0  0  0  0  0  0  0  0  0  0  0
   36.2740   28.2270   42.4220 C   0  0  0  0  0  0  0  0  0  0  0  0
   36.7950   27.0720   42.9290 C   0  0  0  0  0  0  0  0  0  0  0  0
   37.2210   26.0570   42.1240 C   0  0  0  0  0  0  0  0  0  0  0  0
   37.0940   26.2720   40.7590 C   0  0  0  0  0  0  0  0  0  0  0  0
   35.9330   29.0390   43.0660 H   0  0  0  0  0  0  0  0  0  0  0  0
   36.8890   26.9120   44.0000 H   0  0  0  0  0  0  0  0  0  0  0  0
   37.6430   25.1120   42.4390 H   0  0  0  0  0  0  0  0  0  0  0  0
   37.4130   25.5060   40.0560 H   0  0  0  0  0  0  0  0  0  0  0  0
   35.2940   27.5420   36.6810 C   0  0  0  0  0  0  0  0  0  0  0  0
   35.3330   27.2630   38.0590 C   0  0  0  0  0  0  0  0  0  0  0  0
   36.4490   27.6350   38.7950 C   0  0  0  0  0  0  0  0  0  0  0  0
   37.4590   28.2570   38.1300 N   0  0  0  0  0  0  0  0  0  0  0  0
   37.4070   28.5190   36.8040 C   0  0  0  0  0  0  0  0  0  0  0  0
   36.3270   28.1590   36.0940 N   0  0  0  0  0  0  0  0  0  0  0  0
   34.4160   27.2470   36.1180 H   0  0  0  0  0  0  0  0  0  0  0  0
   34.5240   26.7680   38.5740 H   0  0  0  0  0  0  0  0  0  0  0  0
   38.2690   29.0230   36.3630 H   0  0  0  0  0  0  0  0  0  0  0  0
   35.9680   30.8620   41.2060 N   0  0  0  0  0  0  0  0  0  0  0  0
   36.3930   30.5880   42.1260 H   0  0  0  0  0  0  0  0  0  0  0  0
   37.1860   31.7450   40.3850 S   0  0  0  0  0  0  0  0  0  0  0  0
   36.7630   33.1680   40.1610 O   0  0  0  0  0  0  0  0  0  0  0  0
   37.3440   33.9780   40.2680 H   0  0  0  0  0  0  0  0  0  0  0  0
   37.5320   31.0980   39.0910 O   0  0  0  0  0  0  0  0  0  0  0  0
   36.8730   31.1310   38.3270 H   0  0  0  0  0  0  0  0  0  0  0  0
   38.5490   31.7270   41.3590 O   0  0  0  0  0  0  0  0  0  0  0  0
   39.2140   30.5360   41.1890 C   0  0  0  0  0  0  0  0  0  0  0  0
   40.1490   30.6750   40.6380 H   0  0  0  0  0  0  0  0  0  0  0  0
   38.6520   29.7490   40.6680 H   0  0  0  0  0  0  0  0  0  0  0  0
   39.5090   29.9260   42.5700 C   0  0  0  0  0  0  0  0  0  0  0  0
   40.1610   30.5680   43.1590 H   0  0  0  0  0  0  0  0  0  0  0  0
   38.5200   29.8480   43.1010 H   0  0  0  0  0  0  0  0  0  0  0  0
   40.0580   28.5690   42.4040 C   0  0  0  0  0  0  0  0  0  0  0  0
   40.3710   27.9570   41.2210 C   0  0  0  0  0  0  0  0  0  0  0  0
   40.2730   28.3560   40.2100 H   0  0  0  0  0  0  0  0  0  0  0  0
   40.8530   26.6920   41.5640 C   0  0  0  0  0  0  0  0  0  0  0  0
   41.1760   25.9970   40.7860 H   0  0  0  0  0  0  0  0  0  0  0  0
   40.7970   26.6220   42.9530 C   0  0  0  0  0  0  0  0  0  0  0  0
   41.1460   25.6850   43.3630 H   0  0  0  0  0  0  0  0  0  0  0  0
   40.3230   27.7500   43.4140 O   0  0  0  0  0  0  0  0  0  0  0  0
  1  5  1  0  0  0  0
  1 23  1  0  0  0  0
  2  1  1  0  0  0  0
  3  1  1  0  0  0  0
  4  9  2  0  0  0  0
  4  5  1  0  0  0  0
  5  6  2  0  0  0  0
  6  7  1  0  0  0  0
  6 10  1  0  0  0  0
  7 11  1  0  0  0  0
  8 12  1  0  0  0  0
  8  7  2  0  0  0  0
  9  8  1  0  0  0  0
 13  9  1  0  0  0  0
 14 15  1  0  0  0  0
 15 21  1  0  0  0  0
 15 16  2  0  0  0  0
 16  4  1  0  0  0  0
 17 16  1  0  0  0  0
 18 17  2  0  0  0  0
 19 14  2  0  0  0  0
 19 18  1  0  0  0  0
 20 14  1  0  0  0  0
 22 18  1  0  0  0  0
 23 24  1  0  0  0  0
 25 23  1  0  0  0  0
 25 30  1  0  0  0  0
 26 27  1  0  0  0  0
 26 25  1  0  0  0  0
 28 25  1  0  0  0  0
 29 28  1  0  0  0  0
 31 30  1  0  0  0  0
 31 34  1  0  0  0  0
 32 31  1  0  0  0  0
 33 31  1  0  0  0  0
 34 36  1  0  0  0  0
 34 35  1  0  0  0  0
 37 34  1  0  0  0  0
 37 44  1  0  0  0  0
 38 40  1  0  0  0  0
 38 37  2  0  0  0  0
 39 38  1  0  0  0  0
 40 42  2  0  0  0  0
 41 40  1  0  0  0  0
 42 43  1  0  0  0  0
 42 44  1  0  0  0  0
M  END
>  <minimizedAffinity>
-5.31488895

$$$$

 OpenBabel03252508483D

 44 46  0  0  0  0  0  0  0  0999 V2000
   37.8530   30.6600   37.5130 C   0  0  0  0  0  0  0  0  0  0  0  0
   38.5560   31.3560   38.0600 H   0  0  0  0  0  0  0  0  0  0  0  0
   37.3370   31.2590   36.7280 H   0  0  0  0  0  0  0  0  0  0  0  0
   36.6440   30.7300   39.6960 C   0  0  0  0  0  0  0  0  0  0  0  0
   36.8110   30.1490   38.4450 C   0  0  0  0  0  0  0  0  0  0  0  0
   35.9910   29.1040   38.1100 C   0  0  0  0  0  0  0  0  0  0  0  0
   35.0400   28.6500   38.9790 C   0  0  0  0  0  0  0  0  0  0  0  0
   34.8630   29.2080   40.2100 C   0  0  0  0  0  0  0  0  0  0  0  0
   35.7070   30.2650   40.5240 C   0  0  0  0  0  0  0  0  0  0  0  0
   36.1320   28.6570   37.1240 H   0  0  0  0  0  0  0  0  0  0  0  0
   34.3840   27.8220   38.7240 H   0  0  0  0  0  0  0  0  0  0  0  0
   34.1390   28.9140   40.9590 H   0  0  0  0  0  0  0  0  0  0  0  0
   35.6230   30.7580   41.4900 H   0  0  0  0  0  0  0  0  0  0  0  0
   38.2200   34.1580   39.9940 C   0  0  0  0  0  0  0  0  0  0  0  0
   37.2930   33.1590   39.6450 C   0  0  0  0  0  0  0  0  0  0  0  0
   37.5430   31.8440   40.0110 C   0  0  0  0  0  0  0  0  0  0  0  0
   38.6890   31.5930   40.6980 N   0  0  0  0  0  0  0  0  0  0  0  0
   39.5710   32.5640   41.0270 C   0  0  0  0  0  0  0  0  0  0  0  0
   39.3270   33.8350   40.6720 N   0  0  0  0  0  0  0  0  0  0  0  0
   38.0130   35.1810   39.7020 H   0  0  0  0  0  0  0  0  0  0  0  0
   36.3870   33.3730   39.0980 H   0  0  0  0  0  0  0  0  0  0  0  0
   40.4610   32.2600   41.5800 H   0  0  0  0  0  0  0  0  0  0  0  0
   38.5890   29.6290   36.8290 N   0  0  0  0  0  0  0  0  0  0  0  0
   38.7960   29.9530   35.8520 H   0  0  0  0  0  0  0  0  0  0  0  0
   40.1180   29.3470   37.5500 S   0  0  0  0  0  0  0  0  0  0  0  0
   40.4670   30.4370   38.5210 O   0  0  0  0  0  0  0  0  0  0  0  0
   40.8940   30.3110   39.4190 H   0  0  0  0  0  0  0  0  0  0  0  0
   41.1780   29.2160   36.5150 O   0  0  0  0  0  0  0  0  0  0  0  0
   41.4750   30.0330   36.0020 H   0  0  0  0  0  0  0  0  0  0  0  0
   40.0130   27.8930   38.3760 O   0  0  0  0  0  0  0  0  0  0  0  0
   39.6120   28.1330   39.6700 C   0  0  0  0  0  0  0  0  0  0  0  0
   39.2400   29.1540   39.7900 H   0  0  0  0  0  0  0  0  0  0  0  0
   40.3810   27.9820   40.4390 H   0  0  0  0  0  0  0  0  0  0  0  0
   38.5100   27.1280   40.0460 C   0  0  0  0  0  0  0  0  0  0  0  0
   37.7390   27.0760   39.2800 H   0  0  0  0  0  0  0  0  0  0  0  0
   39.0060   26.1210   40.1140 H   0  0  0  0  0  0  0  0  0  0  0  0
   37.9630   27.4690   41.3710 C   0  0  0  0  0  0  0  0  0  0  0  0
   38.4660   28.3930   42.2460 C   0  0  0  0  0  0  0  0  0  0  0  0
   39.3450   29.0290   42.1230 H   0  0  0  0  0  0  0  0  0  0  0  0
   37.6200   28.3640   43.3570 C   0  0  0  0  0  0  0  0  0  0  0  0
   37.8090   29.0210   44.2090 H   0  0  0  0  0  0  0  0  0  0  0  0
   36.6460   27.4110   43.0740 C   0  0  0  0  0  0  0  0  0  0  0  0
   35.9130   27.2820   43.8580 H   0  0  0  0  0  0  0  0  0  0  0  0
   36.8820   26.9040   41.8920 O   0  0  0  0  0  0  0  0  0  0  0  0
  1  2  1  0  0  0  0
  1  5  1  0  0  0  0
  3  1  1  0  0  0  0
  4 16  1  0  0  0  0
  4  9  1  0  0  0  0
  5  4  2  0  0  0  0
  6  5  1  0  0  0  0
  6  7  2  0  0  0  0
  7  8  1  0  0  0  0
  8  9  2  0  0  0  0
  8 12  1  0  0  0  0
  9 13  1  0  0  0  0
 10  6  1  0  0  0  0
 11  7  1  0  0  0  0
 14 19  1  0  0  0  0
 15 14  2  0  0  0  0
 15 16  1  0  0  0  0
 16 17  2  0  0  0  0
 17 18  1  0  0  0  0
 18 22  1  0  0  0  0
 19 18  2  0  0  0  0
 20 14  1  0  0  0  0
 21 15  1  0  0  0  0
 23  1  1  0  0  0  0
 23 25  1  0  0  0  0
 24 23  1  0  0  0  0
 25 30  1  0  0  0  0
 25 26  1  0  0  0  0
 26 27  1  0  0  0  0
 28 25  1  0  0  0  0
 29 28  1  0  0  0  0
 30 31  1  0  0  0  0
 31 32  1  0  0  0  0
 31 34  1  0  0  0  0
 31 33  1  0  0  0  0
 34 36  1  0  0  0  0
 34 37  1  0  0  0  0
 35 34  1  0  0  0  0
 37 44  1  0  0  0  0
 37 38  2  0  0  0  0
 38 40  1  0  0  0  0
 39 38  1  0  0  0  0
 40 41  1  0  0  0  0
 42 40  2  0  0  0  0
 42 43  1  0  0  0  0
 44 42  1  0  0  0  0
M  END
>  <minimizedAffinity>
-5.25360727

$$$$

 OpenBabel03252508483D

 44 46  0  0  0  0  0  0  0  0999 V2000
   38.2230   28.6240   43.0210 C   0  0  0  0  0  0  0  0  0  0  0  0
   39.0300   29.1240   42.4080 H   0  0  0  0  0  0  0  0  0  0  0  0
   38.5290   28.6900   44.0900 H   0  0  0  0  0  0  0  0  0  0  0  0
   39.2810   26.4630   42.3540 C   0  0  0  0  0  0  0  0  0  0  0  0
   38.1330   27.1810   42.6690 C   0  0  0  0  0  0  0  0  0  0  0  0
   36.9350   26.5160   42.6430 C   0  0  0  0  0  0  0  0  0  0  0  0
   36.8740   25.1910   42.3180 C   0  0  0  0  0  0  0  0  0  0  0  0
   37.9890   24.4720   42.0060 C   0  0  0  0  0  0  0  0  0  0  0  0
   39.1890   25.1690   42.0400 C   0  0  0  0  0  0  0  0  0  0  0  0
   36.0420   27.0910   42.8930 H   0  0  0  0  0  0  0  0  0  0  0  0
   35.9300   24.6540   42.2940 H   0  0  0  0  0  0  0  0  0  0  0  0
   38.0330   23.4240   41.7370 H   0  0  0  0  0  0  0  0  0  0  0  0
   40.1200   24.6600   41.8020 H   0  0  0  0  0  0  0  0  0  0  0  0
   42.2780   28.5870   41.4460 C   0  0  0  0  0  0  0  0  0  0  0  0
   41.0620   27.8950   41.3050 C   0  0  0  0  0  0  0  0  0  0  0  0
   40.5380   27.2140   42.3950 C   0  0  0  0  0  0  0  0  0  0  0  0
   41.2440   27.2560   43.5560 N   0  0  0  0  0  0  0  0  0  0  0  0
   42.4130   27.9260   43.6770 C   0  0  0  0  0  0  0  0  0  0  0  0
   42.9170   28.5840   42.6220 N   0  0  0  0  0  0  0  0  0  0  0  0
   42.6760   29.1150   40.5870 H   0  0  0  0  0  0  0  0  0  0  0  0
   40.5120   27.8700   40.3760 H   0  0  0  0  0  0  0  0  0  0  0  0
   42.9030   27.8990   44.6520 H   0  0  0  0  0  0  0  0  0  0  0  0
   36.9790   29.3390   42.9020 N   0  0  0  0  0  0  0  0  0  0  0  0
   36.9190   30.0430   43.6770 H   0  0  0  0  0  0  0  0  0  0  0  0
   36.8970   30.2480   41.4510 S   0  0  0  0  0  0  0  0  0  0  0  0
   38.0660   31.1830   41.3340 O   0  0  0  0  0  0  0  0  0  0  0  0
   38.5900   31.3680   40.4990 H   0  0  0  0  0  0  0  0  0  0  0  0
   35.6190   31.0030   41.3680 O   0  0  0  0  0  0  0  0  0  0  0  0
   35.4700   31.7960   41.9740 H   0  0  0  0  0  0  0  0  0  0  0  0
   36.9430   29.1550   40.1820 O   0  0  0  0  0  0  0  0  0  0  0  0
   36.0000   29.5070   39.2440 C   0  0  0  0  0  0  0  0  0  0  0  0
   35.1770   30.0670   39.6970 H   0  0  0  0  0  0  0  0  0  0  0  0
   35.5500   28.6740   38.6890 H   0  0  0  0  0  0  0  0  0  0  0  0
   36.6730   30.3580   38.1540 C   0  0  0  0  0  0  0  0  0  0  0  0
   36.1020   30.3450   37.2280 H   0  0  0  0  0  0  0  0  0  0  0  0
   36.6910   31.4140   38.5410 H   0  0  0  0  0  0  0  0  0  0  0  0
   38.0620   29.9070   37.9640 C   0  0  0  0  0  0  0  0  0  0  0  0
   38.4770   28.8410   37.2120 C   0  0  0  0  0  0  0  0  0  0  0  0
   37.8640   28.1480   36.6320 H   0  0  0  0  0  0  0  0  0  0  0  0
   39.8670   28.8070   37.3340 C   0  0  0  0  0  0  0  0  0  0  0  0
   40.4460   28.0370   36.8200 H   0  0  0  0  0  0  0  0  0  0  0  0
   40.2070   29.8720   38.1640 C   0  0  0  0  0  0  0  0  0  0  0  0
   41.2680   29.9690   38.3470 H   0  0  0  0  0  0  0  0  0  0  0  0
   39.1140   30.4980   38.5150 O   0  0  0  0  0  0  0  0  0  0  0  0
  1  3  1  0  0  0  0
  2  1  1  0  0  0  0
  4 16  1  0  0  0  0
  4  5  1  0  0  0  0
  5  1  1  0  0  0  0
  6  5  2  0  0  0  0
  6 10  1  0  0  0  0
  7  6  1  0  0  0  0
  8  9  1  0  0  0  0
  8  7  2  0  0  0  0
  9  4  2  0  0  0  0
 11  7  1  0  0  0  0
 12  8  1  0  0  0  0
 13  9  1  0  0  0  0
 14 19  1  0  0  0  0
 15 14  2  0  0  0  0
 15 16  1  0  0  0  0
 16 17  2  0  0  0  0
 17 18  1  0  0  0  0
 18 22  1  0  0  0  0
 19 18  2  0  0  0  0
 20 14  1  0  0  0  0
 21 15  1  0  0  0  0
 23  1  1  0  0  0  0
 23 24  1  0  0  0  0
 25 23  1  0  0  0  0
 26 25  1  0  0  0  0
 27 26  1  0  0  0  0
 28 25  1  0  0  0  0
 28 29  1  0  0  0  0
 30 25  1  0  0  0  0
 31 32  1  0  0  0  0
 31 30  1  0  0  0  0
 33 31  1  0  0  0  0
 34 36  1  0  0  0  0
 34 31  1  0  0  0  0
 35 34  1  0  0  0  0
 37 34  1  0  0  0  0
 37 44  1  0  0  0  0
 38 40  1  0  0  0  0
 38 37  2  0  0  0  0
 39 38  1  0  0  0  0
 40 42  2  0  0  0  0
 41 40  1  0  0  0  0
 42 43  1  0  0  0  0
 42 44  1  0  0  0  0
M  END
>  <minimizedAffinity>
-5.24487877

$$$$

 OpenBabel03252508483D

 44 46  0  0  0  0  0  0  0  0999 V2000
   37.7240   29.2860   42.7580 C   0  0  0  0  0  0  0  0  0  0  0  0
   38.0610   30.2100   42.2000 H   0  0  0  0  0  0  0  0  0  0  0  0
   37.4530   29.6030   43.7910 H   0  0  0  0  0  0  0  0  0  0  0  0
   40.0540   28.5650   42.2230 C   0  0  0  0  0  0  0  0  0  0  0  0
   38.8460   28.3150   42.8660 C   0  0  0  0  0  0  0  0  0  0  0  0
   38.7350   27.1570   43.5900 C   0  0  0  0  0  0  0  0  0  0  0  0
   39.7780   26.2800   43.6780 C   0  0  0  0  0  0  0  0  0  0  0  0
   40.9680   26.5090   43.0540 C   0  0  0  0  0  0  0  0  0  0  0  0
   41.0540   27.6880   42.3260 C   0  0  0  0  0  0  0  0  0  0  0  0
   37.7830   26.9740   44.0900 H   0  0  0  0  0  0  0  0  0  0  0  0
   39.7010   25.3600   44.2490 H   0  0  0  0  0  0  0  0  0  0  0  0
   41.8430   25.8720   43.0680 H   0  0  0  0  0  0  0  0  0  0  0  0
   41.9740   27.9370   41.8020 H   0  0  0  0  0  0  0  0  0  0  0  0
   40.1250   32.2120   41.2180 C   0  0  0  0  0  0  0  0  0  0  0  0
   40.0450   31.0720   42.0380 C   0  0  0  0  0  0  0  0  0  0  0  0
   40.1270   29.8140   41.4600 C   0  0  0  0  0  0  0  0  0  0  0  0
   40.2830   29.7540   40.1110 N   0  0  0  0  0  0  0  0  0  0  0  0
   40.3590   30.8600   39.3350 C   0  0  0  0  0  0  0  0  0  0  0  0
   40.2800   32.0760   39.8960 N   0  0  0  0  0  0  0  0  0  0  0  0
   40.0600   33.1900   41.6830 H   0  0  0  0  0  0  0  0  0  0  0  0
   39.9200   31.1350   43.1080 H   0  0  0  0  0  0  0  0  0  0  0  0
   40.4850   30.7060   38.2610 H   0  0  0  0  0  0  0  0  0  0  0  0
   36.5290   28.7420   42.1650 N   0  0  0  0  0  0  0  0  0  0  0  0
   35.7740   28.7130   42.8940 H   0  0  0  0  0  0  0  0  0  0  0  0
   35.9190   29.7440   40.9160 S   0  0  0  0  0  0  0  0  0  0  0  0
   35.7380   31.1560   41.3960 O   0  0  0  0  0  0  0  0  0  0  0  0
   35.9650   31.9850   40.8810 H   0  0  0  0  0  0  0  0  0  0  0  0
   34.6380   29.2100   40.3830 O   0  0  0  0  0  0  0  0  0  0  0  0
   33.8040   29.2620   40.9490 H   0  0  0  0  0  0  0  0  0  0  0  0
   37.0470   29.7290   39.6770 O   0  0  0  0  0  0  0  0  0  0  0  0
   36.6200   28.8800   38.6830 C   0  0  0  0  0  0  0  0  0  0  0  0
   36.3150   29.4330   37.7900 H   0  0  0  0  0  0  0  0  0  0  0  0
   35.7840   28.2210   38.9500 H   0  0  0  0  0  0  0  0  0  0  0  0
   37.7600   27.9090   38.3320 C   0  0  0  0  0  0  0  0  0  0  0  0
   37.6840   27.5590   37.3040 H   0  0  0  0  0  0  0  0  0  0  0  0
   38.7170   28.4910   38.4350 H   0  0  0  0  0  0  0  0  0  0  0  0
   37.7810   26.8010   39.3020 C   0  0  0  0  0  0  0  0  0  0  0  0
   38.8590   26.0230   39.6270 C   0  0  0  0  0  0  0  0  0  0  0  0
   39.8750   26.0820   39.2320 H   0  0  0  0  0  0  0  0  0  0  0  0
   38.3990   25.1150   40.5820 C   0  0  0  0  0  0  0  0  0  0  0  0
   39.0780   24.3730   41.0090 H   0  0  0  0  0  0  0  0  0  0  0  0
   37.0520   25.4080   40.7750 C   0  0  0  0  0  0  0  0  0  0  0  0
   36.5600   24.7750   41.5000 H   0  0  0  0  0  0  0  0  0  0  0  0
   36.7230   26.4110   40.0020 O   0  0  0  0  0  0  0  0  0  0  0  0
  1  5  1  0  0  0  0
  1  3  1  0  0  0  0
  2  1  1  0  0  0  0
  4  9  2  0  0  0  0
  4  5  1  0  0  0  0
  5  6  2  0  0  0  0
  6  7  1  0  0  0  0
  6 10  1  0  0  0  0
  7 11  1  0  0  0  0
  8 12  1  0  0  0  0
  8  7  2  0  0  0  0
  9  8  1  0  0  0  0
 13  9  1  0  0  0  0
 14 20  1  0  0  0  0
 14 15  1  0  0  0  0
 15 21  1  0  0  0  0
 16 15  2  0  0  0  0
 16  4  1  0  0  0  0
 17 16  1  0  0  0  0
 18 19  1  0  0  0  0
 18 17  2  0  0  0  0
 19 14  2  0  0  0  0
 22 18  1  0  0  0  0
 23  1  1  0  0  0  0
 23 24  1  0  0  0  0
 25 26  1  0  0  0  0
 25 23  1  0  0  0  0
 27 26  1  0  0  0  0
 28 25  1  0  0  0  0
 28 29  1  0  0  0  0
 30 25  1  0  0  0  0
 31 33  1  0  0  0  0
 31 30  1  0  0  0  0
 32 31  1  0  0  0  0
 34 36  1  0  0  0  0
 34 31  1  0  0  0  0
 34 37  1  0  0  0  0
 35 34  1  0  0  0  0
 37 38  2  0  0  0  0
 37 44  1  0  0  0  0
 38 40  1  0  0  0  0
 39 38  1  0  0  0  0
 40 42  2  0  0  0  0
 40 41  1  0  0  0  0
 42 43  1  0  0  0  0
 44 42  1  0  0  0  0
M  END
>  <minimizedAffinity>
-5.16770792

$$$$

 OpenBabel03252508483D

 44 46  0  0  0  0  0  0  0  0999 V2000
   37.7940   29.0440   40.3810 C   0  0  0  0  0  0  0  0  0  0  0  0
   38.7880   28.7150   40.8070 H   0  0  0  0  0  0  0  0  0  0  0  0
   37.6770   28.5470   39.3910 H   0  0  0  0  0  0  0  0  0  0  0  0
   37.1610   31.0480   39.0330 C   0  0  0  0  0  0  0  0  0  0  0  0
   37.7970   30.5130   40.1480 C   0  0  0  0  0  0  0  0  0  0  0  0
   38.4160   31.3810   41.0080 C   0  0  0  0  0  0  0  0  0  0  0  0
   38.4070   32.7270   40.7770 C   0  0  0  0  0  0  0  0  0  0  0  0
   37.7880   33.2680   39.6890 C   0  0  0  0  0  0  0  0  0  0  0  0
   37.1690   32.3670   38.8330 C   0  0  0  0  0  0  0  0  0  0  0  0
   38.9110   30.9490   41.8790 H   0  0  0  0  0  0  0  0  0  0  0  0
   38.8940   33.4240   41.4520 H   0  0  0  0  0  0  0  0  0  0  0  0
   37.7310   34.3170   39.4280 H   0  0  0  0  0  0  0  0  0  0  0  0
   36.6550   32.7270   37.9450 H   0  0  0  0  0  0  0  0  0  0  0  0
   36.3560   28.7320   36.1510 C   0  0  0  0  0  0  0  0  0  0  0  0
   37.0580   29.6630   36.9370 C   0  0  0  0  0  0  0  0  0  0  0  0
   36.5120   30.0820   38.1410 C   0  0  0  0  0  0  0  0  0  0  0  0
   35.3080   29.5610   38.4980 N   0  0  0  0  0  0  0  0  0  0  0  0
   34.6440   28.6660   37.7310 C   0  0  0  0  0  0  0  0  0  0  0  0
   35.1740   28.2620   36.5670 N   0  0  0  0  0  0  0  0  0  0  0  0
   36.7940   28.4120   35.2120 H   0  0  0  0  0  0  0  0  0  0  0  0
   38.0140   30.0690   36.6410 H   0  0  0  0  0  0  0  0  0  0  0  0
   33.6830   28.3070   38.1050 H   0  0  0  0  0  0  0  0  0  0  0  0
   36.7090   28.5800   41.2070 N   0  0  0  0  0  0  0  0  0  0  0  0
   36.3420   27.6820   40.8080 H   0  0  0  0  0  0  0  0  0  0  0  0
   37.2300   28.1960   42.7940 S   0  0  0  0  0  0  0  0  0  0  0  0
   36.4220   27.0700   43.3710 O   0  0  0  0  0  0  0  0  0  0  0  0
   36.7800   26.3040   43.9100 H   0  0  0  0  0  0  0  0  0  0  0  0
   37.1630   29.3890   43.6790 O   0  0  0  0  0  0  0  0  0  0  0  0
   36.2620   29.7430   43.9690 H   0  0  0  0  0  0  0  0  0  0  0  0
   38.8330   27.7170   42.6840 O   0  0  0  0  0  0  0  0  0  0  0  0
   38.9500   26.4190   43.1230 C   0  0  0  0  0  0  0  0  0  0  0  0
   37.9840   26.0140   43.4340 H   0  0  0  0  0  0  0  0  0  0  0  0
   39.6450   26.2620   43.9580 H   0  0  0  0  0  0  0  0  0  0  0  0
   39.5340   25.5600   41.9880 C   0  0  0  0  0  0  0  0  0  0  0  0
   40.0150   26.1740   41.2290 H   0  0  0  0  0  0  0  0  0  0  0  0
   40.3180   24.9040   42.4570 H   0  0  0  0  0  0  0  0  0  0  0  0
   38.4790   24.6980   41.4280 C   0  0  0  0  0  0  0  0  0  0  0  0
   38.6630   23.5410   40.7200 C   0  0  0  0  0  0  0  0  0  0  0  0
   39.6050   23.0600   40.4500 H   0  0  0  0  0  0  0  0  0  0  0  0
   37.3830   23.0830   40.4020 C   0  0  0  0  0  0  0  0  0  0  0  0
   37.2540   22.1610   39.8300 H   0  0  0  0  0  0  0  0  0  0  0  0
   36.4960   24.0080   40.9460 C   0  0  0  0  0  0  0  0  0  0  0  0
   35.4540   23.7770   40.7750 H   0  0  0  0  0  0  0  0  0  0  0  0
   37.1810   24.9470   41.5450 O   0  0  0  0  0  0  0  0  0  0  0  0
  1  2  1  0  0  0  0
  1 23  1  0  0  0  0
  3  1  1  0  0  0  0
  4  5  1  0  0  0  0
  5  1  1  0  0  0  0
  5  6  2  0  0  0  0
  6 10  1  0  0  0  0
  7  6  1  0  0  0  0
  7 11  1  0  0  0  0
  8  7  2  0  0  0  0
  9  4  2  0  0  0  0
  9  8  1  0  0  0  0
 12  8  1  0  0  0  0
 13  9  1  0  0  0  0
 14 19  2  0  0  0  0
 14 15  1  0  0  0  0
 15 16  2  0  0  0  0
 16 17  1  0  0  0  0
 16  4  1  0  0  0  0
 18 22  1  0  0  0  0
 18 17  2  0  0  0  0
 19 18  1  0  0  0  0
 20 14  1  0  0  0  0
 21 15  1  0  0  0  0
 23 25  1  0  0  0  0
 24 23  1  0  0  0  0
 25 26  1  0  0  0  0
 25 28  1  0  0  0  0
 26 27  1  0  0  0  0
 28 29  1  0  0  0  0
 30 25  1  0  0  0  0
 30 31  1  0  0  0  0
 31 32  1  0  0  0  0
 31 33  1  0  0  0  0
 34 36  1  0  0  0  0
 34 31  1  0  0  0  0
 35 34  1  0  0  0  0
 37 44  1  0  0  0  0
 37 34  1  0  0  0  0
 38 37  2  0  0  0  0
 39 38  1  0  0  0  0
 40 38  1  0  0  0  0
 40 42  2  0  0  0  0
 41 40  1  0  0  0  0
 42 44  1  0  0  0  0
 43 42  1  0  0  0  0
M  END
>  <minimizedAffinity>
-5.15807915

$$$$
