
 OpenBabel03252508473D

 44 46  0  0  0  0  0  0  0  0999 V2000
   43.0540   32.5330   41.5560 C   0  0  0  0  0  0  0  0  0  0  0  0
   43.6730   31.8500   40.9020 H   0  0  0  0  0  0  0  0  0  0  0  0
   42.3090   33.0370   40.8990 H   0  0  0  0  0  0  0  0  0  0  0  0
   43.7020   34.9280   41.8370 C   0  0  0  0  0  0  0  0  0  0  0  0
   43.9140   33.5900   42.1520 C   0  0  0  0  0  0  0  0  0  0  0  0
   44.9320   33.2910   43.0200 C   0  0  0  0  0  0  0  0  0  0  0  0
   45.7100   34.2770   43.5570 C   0  0  0  0  0  0  0  0  0  0  0  0
   45.5150   35.5930   43.2590 C   0  0  0  0  0  0  0  0  0  0  0  0
   44.4790   35.8680   42.3770 C   0  0  0  0  0  0  0  0  0  0  0  0
   45.0880   32.2380   43.2590 H   0  0  0  0  0  0  0  0  0  0  0  0
   46.5200   34.0520   44.2450 H   0  0  0  0  0  0  0  0  0  0  0  0
   46.0820   36.4350   43.6350 H   0  0  0  0  0  0  0  0  0  0  0  0
   44.2660   36.8970   42.0940 H   0  0  0  0  0  0  0  0  0  0  0  0
   40.3680   35.8980   40.3320 C   0  0  0  0  0  0  0  0  0  0  0  0
   41.3590   35.6680   41.3040 C   0  0  0  0  0  0  0  0  0  0  0  0
   42.6030   35.2000   40.9060 C   0  0  0  0  0  0  0  0  0  0  0  0
   42.7970   34.9870   39.5780 N   0  0  0  0  0  0  0  0  0  0  0  0
   41.8340   35.2120   38.6540 C   0  0  0  0  0  0  0  0  0  0  0  0
   40.6320   35.6650   39.0400 N   0  0  0  0  0  0  0  0  0  0  0  0
   39.4000   36.2640   40.6550 H   0  0  0  0  0  0  0  0  0  0  0  0
   41.1910   35.8410   42.3560 H   0  0  0  0  0  0  0  0  0  0  0  0
   42.0890   35.0110   37.6120 H   0  0  0  0  0  0  0  0  0  0  0  0
   42.3050   31.7700   42.5210 N   0  0  0  0  0  0  0  0  0  0  0  0
   42.3230   32.2750   43.4400 H   0  0  0  0  0  0  0  0  0  0  0  0
   40.6480   31.6520   42.0980 S   0  0  0  0  0  0  0  0  0  0  0  0
   39.8820   32.8520   42.5740 O   0  0  0  0  0  0  0  0  0  0  0  0
   39.1720   33.3390   42.0610 H   0  0  0  0  0  0  0  0  0  0  0  0
   40.0470   30.4050   42.6420 O   0  0  0  0  0  0  0  0  0  0  0  0
   39.8880   30.3230   43.6350 H   0  0  0  0  0  0  0  0  0  0  0  0
   40.5700   31.5830   40.4250 O   0  0  0  0  0  0  0  0  0  0  0  0
   39.5140   32.3480   39.9870 C   0  0  0  0  0  0  0  0  0  0  0  0
   39.7500   32.8510   39.0460 H   0  0  0  0  0  0  0  0  0  0  0  0
   39.1690   33.1230   40.6850 H   0  0  0  0  0  0  0  0  0  0  0  0
   38.2840   31.4430   39.8020 C   0  0  0  0  0  0  0  0  0  0  0  0
   38.1460   30.7770   40.6520 H   0  0  0  0  0  0  0  0  0  0  0  0
   37.3930   32.1260   39.7420 H   0  0  0  0  0  0  0  0  0  0  0  0
   38.3970   30.7120   38.5290 C   0  0  0  0  0  0  0  0  0  0  0  0
   38.1820   29.3740   38.3370 C   0  0  0  0  0  0  0  0  0  0  0  0
   37.8940   28.6260   39.0770 H   0  0  0  0  0  0  0  0  0  0  0  0
   38.4070   29.1440   36.9770 C   0  0  0  0  0  0  0  0  0  0  0  0
   38.2970   28.1390   36.5640 H   0  0  0  0  0  0  0  0  0  0  0  0
   38.7500   30.3770   36.4300 C   0  0  0  0  0  0  0  0  0  0  0  0
   38.9540   30.3480   35.3690 H   0  0  0  0  0  0  0  0  0  0  0  0
   38.7330   31.2790   37.3760 O   0  0  0  0  0  0  0  0  0  0  0  0
  1  5  1  0  0  0  0
  1 23  1  0  0  0  0
  2  1  1  0  0  0  0
  3  1  1  0  0  0  0
  4  5  2  0  0  0  0
  4  9  1  0  0  0  0
  5  6  1  0  0  0  0
  6 10  1  0  0  0  0
  6  7  2  0  0  0  0
  7 11  1  0  0  0  0
  8  7  1  0  0  0  0
  8 12  1  0  0  0  0
  9  8  2  0  0  0  0
 13  9  1  0  0  0  0
 14 20  1  0  0  0  0
 14 15  1  0  0  0  0
 15 21  1  0  0  0  0
 16 15  2  0  0  0  0
 16  4  1  0  0  0  0
 17 16  1  0  0  0  0
 18 19  1  0  0  0  0
 18 17  2  0  0  0  0
 19 14  2  0  0  0  0
 22 18  1  0  0  0  0
 23 24  1  0  0  0  0
 25 23  1  0  0  0  0
 25 26  1  0  0  0  0
 25 28  1  0  0  0  0
 27 26  1  0  0  0  0
 28 29  1  0  0  0  0
 30 25  1  0  0  0  0
 31 30  1  0  0  0  0
 31 33  1  0  0  0  0
 32 31  1  0  0  0  0
 34 31  1  0  0  0  0
 34 35  1  0  0  0  0
 36 34  1  0  0  0  0
 37 34  1  0  0  0  0
 38 37  2  0  0  0  0
 38 39  1  0  0  0  0
 40 38  1  0  0  0  0
 41 40  1  0  0  0  0
 42 40  2  0  0  0  0
 42 44  1  0  0  0  0
 43 42  1  0  0  0  0
 44 37  1  0  0  0  0
M  END
>  <minimizedAffinity>
-5.33243179

>  <minimizedRMSD>
2.17634726

$$$$
