
 OpenBabel03252509003D

 44 46  0  0  1  0  0  0  0  0999 V2000
   47.2250   34.1160   42.9480 N   0  0  0  0  0  0  0  0  0  0  0  0
   46.7220   35.3620   42.4960 C   0  0  0  0  0  0  0  0  0  0  0  0
   45.2550   35.6050   42.7870 C   0  0  0  0  0  0  0  0  0  0  0  0
   44.7570   34.9750   44.0590 C   0  0  0  0  0  0  0  0  0  0  0  0
   45.8810   34.3310   44.8340 C   0  0  0  0  0  0  0  0  0  0  0  0
   46.4930   33.3120   43.8040 C   0  0  2  0  0  0  0  0  0  0  0  0
   46.8910   35.5970   41.4390 H   0  0  0  0  0  0  0  0  0  0  0  0
   47.2880   36.1540   43.0600 H   0  0  0  0  0  0  0  0  0  0  0  0
   44.6320   35.3400   41.9070 H   0  0  0  0  0  0  0  0  0  0  0  0
   45.1010   36.7060   42.9110 H   0  0  0  0  0  0  0  0  0  0  0  0
   44.2730   35.6860   44.7460 H   0  0  0  0  0  0  0  0  0  0  0  0
   44.0280   34.1880   43.8130 H   0  0  0  0  0  0  0  0  0  0  0  0
   45.4610   33.7810   45.6840 H   0  0  0  0  0  0  0  0  0  0  0  0
   46.6890   35.0110   45.1020 H   0  0  0  0  0  0  0  0  0  0  0  0
   45.6590   32.7180   43.3790 H   0  0  0  0  0  0  0  0  0  0  0  0
   48.1660   33.5000   42.0540 C   0  0  0  0  0  0  0  0  0  0  0  0
   48.8050   34.3080   41.6290 H   0  0  0  0  0  0  0  0  0  0  0  0
   48.8210   32.7840   42.5910 H   0  0  0  0  0  0  0  0  0  0  0  0
   47.4030   32.7480   41.0080 C   0  0  0  0  0  0  0  0  0  0  0  0
   46.3310   33.0860   40.9700 H   0  0  0  0  0  0  0  0  0  0  0  0
   47.3780   31.6570   41.1770 H   0  0  0  0  0  0  0  0  0  0  0  0
   49.3350   32.3430   37.8140 C   0  0  0  0  0  0  0  0  0  0  0  0
   48.7750   32.0790   39.0780 C   0  0  0  0  0  0  0  0  0  0  0  0
   47.9880   33.0370   39.6740 C   0  0  0  0  0  0  0  0  0  0  0  0
   47.7950   34.1820   39.0110 N   0  0  0  0  0  0  0  0  0  0  0  0
   48.3340   34.4270   37.8030 C   0  0  0  0  0  0  0  0  0  0  0  0
   49.1110   33.5050   37.1930 N   0  0  0  0  0  0  0  0  0  0  0  0
   49.9510   31.6540   37.2930 H   0  0  0  0  0  0  0  0  0  0  0  0
   49.0120   31.1130   39.5020 H   0  0  0  0  0  0  0  0  0  0  0  0
   48.1550   35.3730   37.2910 H   0  0  0  0  0  0  0  0  0  0  0  0
   47.3130   32.5500   44.6230 O   0  0  0  0  0  0  0  0  0  0  0  0
   46.8210   30.2450   43.3900 O   0  0  0  0  0  0  0  0  0  0  0  0
   46.8040   30.9520   44.7510 P   0  0  2  0  0  0  0  0  0  0  0  0
   45.1450   31.0200   45.1750 O   0  0  0  0  0  0  0  0  0  0  0  0
   45.0100   31.7500   45.8400 H   0  0  0  0  0  0  0  0  0  0  0  0
   47.5950   30.1040   45.9280 O   0  0  0  0  0  0  0  0  0  0  0  0
   48.0090   30.4870   47.1740 C   0  0  0  0  0  0  0  0  0  0  0  0
   48.7440   29.6160   47.9860 C   0  0  0  0  0  0  0  0  0  0  0  0
   49.0650   28.6030   47.7740 H   0  0  0  0  0  0  0  0  0  0  0  0
   48.9820   30.3400   49.1560 C   0  0  0  0  0  0  0  0  0  0  0  0
   49.5500   29.8840   49.9800 H   0  0  0  0  0  0  0  0  0  0  0  0
   48.3860   31.5930   48.9870 C   0  0  0  0  0  0  0  0  0  0  0  0
   48.4860   32.2770   49.8200 H   0  0  0  0  0  0  0  0  0  0  0  0
   47.8270   31.6280   47.8050 O   0  0  0  0  0  0  0  0  0  0  0  0
  1  6  1  0  0  0  0
  2  3  1  0  0  0  0
  2  1  1  0  0  0  0
  2  8  1  0  0  0  0
  3 10  1  0  0  0  0
  3  4  1  0  0  0  0
  4 11  1  0  0  0  0
  4  5  1  0  0  0  0
  5 14  1  0  0  0  0
  5 13  1  0  0  0  0
  6 15  1  6  0  0  0
  6 31  1  0  0  0  0
  6  5  1  0  0  0  0
  7  2  1  0  0  0  0
  9  3  1  0  0  0  0
 12  4  1  0  0  0  0
 16 18  1  0  0  0  0
 16  1  1  0  0  0  0
 17 16  1  0  0  0  0
 19 21  1  0  0  0  0
 19 16  1  0  0  0  0
 20 19  1  0  0  0  0
 22 23  1  0  0  0  0
 23 29  1  0  0  0  0
 23 24  2  0  0  0  0
 24 19  1  0  0  0  0
 25 24  1  0  0  0  0
 26 25  2  0  0  0  0
 27 26  1  0  0  0  0
 27 22  2  0  0  0  0
 28 22  1  0  0  0  0
 30 26  1  0  0  0  0
 31 33  1  0  0  0  0
 33 32  2  6  0  0  0
 33 34  1  0  0  0  0
 33 36  1  0  0  0  0
 34 35  1  0  0  0  0
 36 37  1  0  0  0  0
 37 44  1  0  0  0  0
 37 38  2  0  0  0  0
 38 40  1  0  0  0  0
 39 38  1  0  0  0  0
 40 41  1  0  0  0  0
 42 40  2  0  0  0  0
 42 43  1  0  0  0  0
 44 42  1  0  0  0  0
M  END
>  <minimizedAffinity>
-4.40931082

>  <minimizedRMSD>
1.14949989

$$$$
