
 OpenBabel03252508503D

 27 29  0  0  0  0  0  0  0  0999 V2000
   45.9000   34.2150   41.0150 C   0  0  0  0  0  0  0  0  0  0  0  0
   46.5060   34.7930   42.1220 C   0  0  0  0  0  0  0  0  0  0  0  0
   47.8710   35.1070   41.9990 C   0  0  0  0  0  0  0  0  0  0  0  0
   48.4950   34.8280   40.8250 N   0  0  0  0  0  0  0  0  0  0  0  0
   47.8710   34.2740   39.7920 C   0  0  0  0  0  0  0  0  0  0  0  0
   46.5660   33.9630   39.8790 N   0  0  0  0  0  0  0  0  0  0  0  0
   48.3650   35.5520   42.8350 H   0  0  0  0  0  0  0  0  0  0  0  0
   48.3330   34.0360   38.8370 H   0  0  0  0  0  0  0  0  0  0  0  0
   45.7380   35.0450   43.3260 C   0  0  0  0  0  0  0  0  0  0  0  0
   45.1010   36.2410   43.5790 C   0  0  0  0  0  0  0  0  0  0  0  0
   44.5080   36.0470   44.8050 C   0  0  0  0  0  0  0  0  0  0  0  0
   44.7670   34.8090   45.2730 N   0  0  0  0  0  0  0  0  0  0  0  0
   45.5110   34.2250   44.3600 N   0  0  0  0  0  0  0  0  0  0  0  0
   45.0270   37.1610   43.0150 H   0  0  0  0  0  0  0  0  0  0  0  0
   43.8940   36.7140   45.4180 H   0  0  0  0  0  0  0  0  0  0  0  0
   44.5210   34.2710   46.1310 H   0  0  0  0  0  0  0  0  0  0  0  0
   44.5580   33.8930   41.0990 O   0  0  0  0  0  0  0  0  0  0  0  0
   43.5000   34.6010   40.6050 C   0  0  0  0  0  0  0  0  0  0  0  0
   43.1770   35.8100   40.8970 O   0  0  0  0  0  0  0  0  0  0  0  0
   42.5280   34.0410   39.6170 C   0  0  0  0  0  0  0  0  0  0  0  0
   41.4100   34.6700   39.0570 C   0  0  0  0  0  0  0  0  0  0  0  0
   41.1490   35.7050   39.3290 H   0  0  0  0  0  0  0  0  0  0  0  0
   40.7480   33.8400   38.1810 C   0  0  0  0  0  0  0  0  0  0  0  0
   39.8580   34.0790   37.6160 H   0  0  0  0  0  0  0  0  0  0  0  0
   41.5140   32.6970   38.2420 C   0  0  0  0  0  0  0  0  0  0  0  0
   41.3060   31.7820   37.6710 H   0  0  0  0  0  0  0  0  0  0  0  0
   42.4950   32.8600   39.0570 O   0  0  0  0  0  0  0  0  0  0  0  0
  1 17  1  0  0  0  0
  1  2  1  0  0  0  0
  2  9  1  0  0  0  0
  3  2  2  0  0  0  0
  3  7  1  0  0  0  0
  4  3  1  0  0  0  0
  5  6  1  0  0  0  0
  5  4  2  0  0  0  0
  6  1  2  0  0  0  0
  8  5  1  0  0  0  0
  9 10  1  0  0  0  0
  9 13  2  0  0  0  0
 10 11  2  0  0  0  0
 11 12  1  0  0  0  0
 11 15  1  0  0  0  0
 12 16  1  0  0  0  0
 13 12  1  0  0  0  0
 14 10  1  0  0  0  0
 18 19  2  0  0  0  0
 18 17  1  0  0  0  0
 20 18  1  0  0  0  0
 21 22  1  0  0  0  0
 21 20  2  0  0  0  0
 23 25  2  0  0  0  0
 23 21  1  0  0  0  0
 24 23  1  0  0  0  0
 25 27  1  0  0  0  0
 26 25  1  0  0  0  0
 27 20  1  0  0  0  0
M  END
>  <minimizedAffinity>
-5.17583942

>  <minimizedRMSD>
0.585875571

$$$$
