
 OpenBabel03252505403D

 27 29  0  0  1  0  0  0  0  0999 V2000
   44.6740   34.4010   43.3560 C   0  0  1  0  0  0  0  0  0  0  0  0
   45.2920   35.8030   43.4390 C   0  0  0  0  0  0  0  0  0  0  0  0
   45.1810   35.0550   42.1530 C   0  0  1  0  0  0  0  0  0  0  0  0
   43.5750   34.3480   43.5280 H   0  0  0  0  0  0  0  0  0  0  0  0
   46.2440   35.8800   43.9840 H   0  0  0  0  0  0  0  0  0  0  0  0
   44.5590   36.5980   43.6840 H   0  0  0  0  0  0  0  0  0  0  0  0
   44.4000   35.4740   41.4510 H   0  0  0  0  0  0  0  0  0  0  0  0
   45.4040   33.3480   44.0900 C   0  0  0  0  0  0  0  0  0  0  0  0
   45.9470   32.2980   43.3060 C   0  0  0  0  0  0  0  0  0  0  0  0
   46.6540   31.3060   43.9650 C   0  0  0  0  0  0  0  0  0  0  0  0
   46.7850   31.4000   45.3250 N   0  0  0  0  0  0  0  0  0  0  0  0
   46.2520   32.4140   46.0270 C   0  0  0  0  0  0  0  0  0  0  0  0
   45.5630   33.3840   45.3990 N   0  0  0  0  0  0  0  0  0  0  0  0
   45.8630   32.1760   42.2340 H   0  0  0  0  0  0  0  0  0  0  0  0
   47.0880   30.4860   43.4190 H   0  0  0  0  0  0  0  0  0  0  0  0
   46.5110   32.3260   47.4980 C   0  0  0  0  0  0  0  0  0  0  0  0
   45.5110   32.9150   48.2300 F   0  0  0  0  0  0  0  0  0  0  0  0
   47.7220   32.9500   47.8080 F   0  0  0  0  0  0  0  0  0  0  0  0
   46.6760   30.9870   47.8450 F   0  0  0  0  0  0  0  0  0  0  0  0
   46.5210   34.8010   41.5550 C   0  0  0  0  0  0  0  0  0  0  0  0
   47.6400   35.3700   42.1290 C   0  0  0  0  0  0  0  0  0  0  0  0
   47.7640   36.0250   43.0060 H   0  0  0  0  0  0  0  0  0  0  0  0
   48.7510   34.9830   41.3940 C   0  0  0  0  0  0  0  0  0  0  0  0
   49.8060   35.2090   41.5090 H   0  0  0  0  0  0  0  0  0  0  0  0
   48.2410   34.1930   40.4040 C   0  0  0  0  0  0  0  0  0  0  0  0
   48.8300   33.7120   39.6350 H   0  0  0  0  0  0  0  0  0  0  0  0
   46.9580   34.1140   40.5310 O   0  0  0  0  0  0  0  0  0  0  0  0
  1  2  1  0  0  0  0
  1  4  1  1  0  0  0
  1  8  1  0  0  0  0
  2  6  1  0  0  0  0
  2  5  1  0  0  0  0
  3  7  1  6  0  0  0
  3  1  1  0  0  0  0
  3  2  1  0  0  0  0
  8 13  1  0  0  0  0
  9 10  1  0  0  0  0
  9  8  2  0  0  0  0
 10 11  2  0  0  0  0
 11 12  1  0  0  0  0
 12 16  1  0  0  0  0
 13 12  2  0  0  0  0
 14  9  1  0  0  0  0
 15 10  1  0  0  0  0
 16 18  1  0  0  0  0
 16 19  1  0  0  0  0
 16 17  1  0  0  0  0
 20 21  2  0  0  0  0
 20  3  1  0  0  0  0
 21 22  1  0  0  0  0
 23 24  1  0  0  0  0
 23 21  1  0  0  0  0
 25 27  1  0  0  0  0
 25 23  2  0  0  0  0
 26 25  1  0  0  0  0
 27 20  1  0  0  0  0
M  END
>  <minimizedAffinity>
-4.75866222

>  <minimizedRMSD>
1.4522922

$$$$
