
 OpenBabel03242514223D

 33 36  0  0  0  0  0  0  0  0999 V2000
   44.7660   33.1390   41.1150 Cl  0  0  0  0  0  0  0  0  0  0  0  0
   46.3050   33.9530   40.9040 C   0  0  0  0  0  0  0  0  0  0  0  0
   46.8250   34.7050   41.9170 C   0  0  0  0  0  0  0  0  0  0  0  0
   48.0470   35.3560   41.7630 C   0  0  0  0  0  0  0  0  0  0  0  0
   48.6830   35.2020   40.5630 C   0  0  0  0  0  0  0  0  0  0  0  0
   48.1550   34.4410   39.5420 C   0  0  0  0  0  0  0  0  0  0  0  0
   46.9570   33.8100   39.7080 C   0  0  0  0  0  0  0  0  0  0  0  0
   48.4820   35.9550   42.5440 H   0  0  0  0  0  0  0  0  0  0  0  0
   49.6460   35.6640   40.3290 H   0  0  0  0  0  0  0  0  0  0  0  0
   48.6540   34.3130   38.5830 H   0  0  0  0  0  0  0  0  0  0  0  0
   45.5980   34.0340   45.3260 C   0  0  0  0  0  0  0  0  0  0  0  0
   44.7170   35.1040   45.5370 C   0  0  0  0  0  0  0  0  0  0  0  0
   44.5500   36.0370   44.5240 C   0  0  0  0  0  0  0  0  0  0  0  0
   45.2470   35.8690   43.3790 N   0  0  0  0  0  0  0  0  0  0  0  0
   46.0960   34.8330   43.1820 C   0  0  0  0  0  0  0  0  0  0  0  0
   46.2760   33.9070   44.1590 N   0  0  0  0  0  0  0  0  0  0  0  0
   45.7150   33.3120   46.1340 H   0  0  0  0  0  0  0  0  0  0  0  0
   44.1530   35.2670   46.4260 H   0  0  0  0  0  0  0  0  0  0  0  0
   43.9250   36.9010   44.5210 H   0  0  0  0  0  0  0  0  0  0  0  0
   46.3690   32.9980   38.6500 C   0  0  0  0  0  0  0  0  0  0  0  0
   45.4320   33.3620   37.7650 N   0  0  0  0  0  0  0  0  0  0  0  0
   45.1620   32.3230   36.9560 C   0  0  0  0  0  0  0  0  0  0  0  0
   45.9390   31.2840   37.3350 N   0  0  0  0  0  0  0  0  0  0  0  0
   46.6760   31.7090   38.3740 N   0  0  0  0  0  0  0  0  0  0  0  0
   44.4850   32.2090   36.1350 H   0  0  0  0  0  0  0  0  0  0  0  0
   46.0970   29.9470   36.8680 C   0  0  0  0  0  0  0  0  0  0  0  0
   47.4060   29.4740   36.7240 C   0  0  0  0  0  0  0  0  0  0  0  0
   48.3830   29.9100   36.8930 H   0  0  0  0  0  0  0  0  0  0  0  0
   47.2970   28.1630   36.2610 C   0  0  0  0  0  0  0  0  0  0  0  0
   48.0060   27.3820   35.9980 H   0  0  0  0  0  0  0  0  0  0  0  0
   45.9240   27.9230   36.1530 C   0  0  0  0  0  0  0  0  0  0  0  0
   45.3240   27.0690   35.8420 H   0  0  0  0  0  0  0  0  0  0  0  0
   45.2560   29.0030   36.5220 O   0  0  0  0  0  0  0  0  0  0  0  0
  2  1  1  0  0  0  0
  2  3  1  0  0  0  0
  3 15  1  0  0  0  0
  4  3  2  0  0  0  0
  4  8  1  0  0  0  0
  5  4  1  0  0  0  0
  6  7  1  0  0  0  0
  6  5  2  0  0  0  0
  7  2  2  0  0  0  0
  9  5  1  0  0  0  0
 10  6  1  0  0  0  0
 11 12  1  0  0  0  0
 11 17  1  0  0  0  0
 12 18  1  0  0  0  0
 13 12  2  0  0  0  0
 14 13  1  0  0  0  0
 15 14  2  0  0  0  0
 15 16  1  0  0  0  0
 16 11  2  0  0  0  0
 19 13  1  0  0  0  0
 20  7  1  0  0  0  0
 21 20  1  0  0  0  0
 22 23  1  0  0  0  0
 22 21  2  0  0  0  0
 23 24  1  0  0  0  0
 24 20  2  0  0  0  0
 25 22  1  0  0  0  0
 26 23  1  0  0  0  0
 27 26  2  0  0  0  0
 27 28  1  0  0  0  0
 29 27  1  0  0  0  0
 30 29  1  0  0  0  0
 31 29  2  0  0  0  0
 31 33  1  0  0  0  0
 32 31  1  0  0  0  0
 33 26  1  0  0  0  0
M  END
>  <minimizedAffinity>
-5.31476116

>  <minimizedRMSD>
0.179391026

$$$$
