
 OpenBabel03252509263D

 29 31  0  0  1  0  0  0  0  0999 V2000
   46.6490   35.1300   41.9650 C   0  0  1  0  0  0  0  0  0  0  0  0
   48.1940   35.2690   41.9760 C   0  0  0  0  0  0  0  0  0  0  0  0
   47.3750   34.1250   41.3050 C   0  0  2  0  0  0  0  0  0  0  0  0
   46.1860   35.9940   41.4640 H   0  0  0  0  0  0  0  0  0  0  0  0
   48.6420   35.9370   41.2280 H   0  0  0  0  0  0  0  0  0  0  0  0
   48.7450   34.9750   42.8740 H   0  0  0  0  0  0  0  0  0  0  0  0
   47.4840   33.1220   41.8090 H   0  0  0  0  0  0  0  0  0  0  0  0
   44.6680   35.3420   45.1400 C   0  0  0  0  0  0  0  0  0  0  0  0
   45.1490   35.6800   43.8480 C   0  0  0  0  0  0  0  0  0  0  0  0
   46.1230   34.8700   43.3520 C   0  0  0  0  0  0  0  0  0  0  0  0
   46.6040   33.7990   44.0650 N   0  0  0  0  0  0  0  0  0  0  0  0
   46.1190   33.5130   45.2930 C   0  0  0  0  0  0  0  0  0  0  0  0
   45.1470   34.2870   45.8300 N   0  0  0  0  0  0  0  0  0  0  0  0
   43.8880   35.9750   45.5550 H   0  0  0  0  0  0  0  0  0  0  0  0
   46.4690   32.6830   45.8850 H   0  0  0  0  0  0  0  0  0  0  0  0
   44.6590   36.8030   43.1420 N   0  0  0  0  0  0  0  0  0  0  0  0
   43.7760   36.9910   42.6220 H   0  0  0  0  0  0  0  0  0  0  0  0
   45.4460   37.5090   43.2500 H   0  0  0  0  0  0  0  0  0  0  0  0
   47.4010   34.0130   39.7990 C   0  0  0  0  0  0  0  0  0  0  0  0
   48.3440   33.5700   39.4810 H   0  0  0  0  0  0  0  0  0  0  0  0
   47.2460   34.9960   39.3060 H   0  0  0  0  0  0  0  0  0  0  0  0
   46.2750   33.0860   39.4570 C   0  0  0  0  0  0  0  0  0  0  0  0
   46.3550   31.7480   39.1490 C   0  0  0  0  0  0  0  0  0  0  0  0
   47.2570   31.1770   39.1140 H   0  0  0  0  0  0  0  0  0  0  0  0
   45.0570   31.3240   38.9060 C   0  0  0  0  0  0  0  0  0  0  0  0
   44.7610   30.3160   38.6360 H   0  0  0  0  0  0  0  0  0  0  0  0
   44.2480   32.4410   39.0810 C   0  0  0  0  0  0  0  0  0  0  0  0
   43.1840   32.3510   38.9430 H   0  0  0  0  0  0  0  0  0  0  0  0
   45.0080   33.4560   39.4040 O   0  0  0  0  0  0  0  0  0  0  0  0
  1  4  1  6  0  0  0
  1  2  1  0  0  0  0
  1 10  1  0  0  0  0
  2  6  1  0  0  0  0
  3  7  1  1  0  0  0
  3  1  1  0  0  0  0
  3  2  1  0  0  0  0
  5  2  1  0  0  0  0
  8 14  1  0  0  0  0
  8 13  1  0  0  0  0
  9  8  2  0  0  0  0
 10  9  1  0  0  0  0
 10 11  2  0  0  0  0
 11 12  1  0  0  0  0
 12 13  2  0  0  0  0
 12 15  1  0  0  0  0
 16 18  1  0  0  0  0
 16  9  1  0  0  0  0
 17 16  1  0  0  0  0
 19  3  1  0  0  0  0
 20 19  1  0  0  0  0
 21 19  1  0  0  0  0
 22 19  1  0  0  0  0
 23 22  2  0  0  0  0
 24 23  1  0  0  0  0
 25 27  2  0  0  0  0
 25 23  1  0  0  0  0
 26 25  1  0  0  0  0
 27 29  1  0  0  0  0
 28 27  1  0  0  0  0
 29 22  1  0  0  0  0
M  END
>  <minimizedAffinity>
-4.40613604

>  <minimizedRMSD>
0.720393896

$$$$
