
 OpenBabel03252502503D

 33 35  0  0  0  0  0  0  0  0999 V2000
   44.6560   36.5230   43.7690 C   0  0  0  0  0  0  0  0  0  0  0  0
   44.7400   35.7320   44.9320 C   0  0  0  0  0  0  0  0  0  0  0  0
   45.3490   34.4830   44.8230 C   0  0  0  0  0  0  0  0  0  0  0  0
   45.8280   34.0880   43.6230 N   0  0  0  0  0  0  0  0  0  0  0  0
   45.7300   34.8770   42.5210 C   0  0  0  0  0  0  0  0  0  0  0  0
   45.1470   36.0920   42.5910 N   0  0  0  0  0  0  0  0  0  0  0  0
   44.1920   37.4990   43.8060 H   0  0  0  0  0  0  0  0  0  0  0  0
   44.3390   36.0980   45.8690 H   0  0  0  0  0  0  0  0  0  0  0  0
   48.5340   35.6970   41.9320 Cl  0  0  0  0  0  0  0  0  0  0  0  0
   47.5440   34.7080   40.8850 C   0  0  0  0  0  0  0  0  0  0  0  0
   46.2710   34.3880   41.2480 C   0  0  0  0  0  0  0  0  0  0  0  0
   45.4450   33.5930   40.4280 C   0  0  0  0  0  0  0  0  0  0  0  0
   46.0220   33.1690   39.2420 C   0  0  0  0  0  0  0  0  0  0  0  0
   47.2990   33.4920   38.8850 C   0  0  0  0  0  0  0  0  0  0  0  0
   48.0920   34.2690   39.6940 C   0  0  0  0  0  0  0  0  0  0  0  0
   44.4480   33.3300   40.6900 H   0  0  0  0  0  0  0  0  0  0  0  0
   45.4780   32.5470   38.5280 H   0  0  0  0  0  0  0  0  0  0  0  0
   47.7560   33.1630   37.9570 H   0  0  0  0  0  0  0  0  0  0  0  0
   49.0910   34.5400   39.4450 H   0  0  0  0  0  0  0  0  0  0  0  0
   45.4330   33.6530   46.0410 C   0  0  0  0  0  0  0  0  0  0  0  0
   45.2660   34.2270   46.9620 H   0  0  0  0  0  0  0  0  0  0  0  0
   44.5920   32.9060   45.9670 H   0  0  0  0  0  0  0  0  0  0  0  0
   46.7060   32.8240   46.1090 C   0  0  0  0  0  0  0  0  0  0  0  0
   46.7790   32.1110   45.2860 H   0  0  0  0  0  0  0  0  0  0  0  0
   47.5730   33.5090   46.2210 H   0  0  0  0  0  0  0  0  0  0  0  0
   46.6310   32.0650   47.4090 C   0  0  0  0  0  0  0  0  0  0  0  0
   45.4800   31.8830   48.1790 C   0  0  0  0  0  0  0  0  0  0  0  0
   44.4780   32.2600   47.9580 H   0  0  0  0  0  0  0  0  0  0  0  0
   45.9050   31.1240   49.2740 C   0  0  0  0  0  0  0  0  0  0  0  0
   45.2430   30.8030   50.0790 H   0  0  0  0  0  0  0  0  0  0  0  0
   47.2520   30.8930   49.1110 C   0  0  0  0  0  0  0  0  0  0  0  0
   47.8910   30.3300   49.7920 H   0  0  0  0  0  0  0  0  0  0  0  0
   47.6490   31.4640   47.9970 O   0  0  0  0  0  0  0  0  0  0  0  0
  1  7  1  0  0  0  0
  1  2  1  0  0  0  0
  2  8  1  0  0  0  0
  3  2  2  0  0  0  0
  3 20  1  0  0  0  0
  4  3  1  0  0  0  0
  5  6  1  0  0  0  0
  5  4  2  0  0  0  0
  6  1  2  0  0  0  0
 10 11  1  0  0  0  0
 10  9  1  0  0  0  0
 11  5  1  0  0  0  0
 12 16  1  0  0  0  0
 12 11  2  0  0  0  0
 13 12  1  0  0  0  0
 14 13  2  0  0  0  0
 14 15  1  0  0  0  0
 15 10  2  0  0  0  0
 17 13  1  0  0  0  0
 18 14  1  0  0  0  0
 19 15  1  0  0  0  0
 20 23  1  0  0  0  0
 20 21  1  0  0  0  0
 22 20  1  0  0  0  0
 23 25  1  0  0  0  0
 23 26  1  0  0  0  0
 24 23  1  0  0  0  0
 26 33  1  0  0  0  0
 26 27  2  0  0  0  0
 27 29  1  0  0  0  0
 28 27  1  0  0  0  0
 29 30  1  0  0  0  0
 31 29  2  0  0  0  0
 31 32  1  0  0  0  0
 33 31  1  0  0  0  0
M  END
>  <minimizedAffinity>
-5.68214083

>  <minimizedRMSD>
0.42927748

$$$$
