
 OpenBabel03252509023D

 44 46  0  0  1  0  0  0  0  0999 V2000
   38.0070   27.5760   43.0320 N   0  0  0  0  0  0  0  0  0  0  0  0
   39.1580   27.0400   43.6630 C   0  0  0  0  0  0  0  0  0  0  0  0
   40.4790   27.5670   43.1400 C   0  0  0  0  0  0  0  0  0  0  0  0
   40.4400   28.9930   42.6640 C   0  0  0  0  0  0  0  0  0  0  0  0
   39.0960   29.6280   42.9310 C   0  0  0  0  0  0  0  0  0  0  0  0
   38.0900   28.6710   42.1900 C   0  0  2  0  0  0  0  0  0  0  0  0
   39.2290   25.9470   43.6930 H   0  0  0  0  0  0  0  0  0  0  0  0
   39.1010   27.3550   44.7410 H   0  0  0  0  0  0  0  0  0  0  0  0
   40.9040   26.8760   42.3830 H   0  0  0  0  0  0  0  0  0  0  0  0
   41.2210   27.5450   43.9780 H   0  0  0  0  0  0  0  0  0  0  0  0
   41.1900   29.6410   43.1410 H   0  0  0  0  0  0  0  0  0  0  0  0
   40.6100   29.0180   41.5770 H   0  0  0  0  0  0  0  0  0  0  0  0
   39.0670   30.6180   42.4610 H   0  0  0  0  0  0  0  0  0  0  0  0
   38.7980   29.6260   43.9790 H   0  0  0  0  0  0  0  0  0  0  0  0
   38.4700   28.5120   41.1610 H   0  0  0  0  0  0  0  0  0  0  0  0
   36.9500   26.6240   42.8270 C   0  0  0  0  0  0  0  0  0  0  0  0
   36.4820   26.4220   43.8180 H   0  0  0  0  0  0  0  0  0  0  0  0
   36.1710   27.0280   42.1490 H   0  0  0  0  0  0  0  0  0  0  0  0
   37.5330   25.3960   42.1970 C   0  0  0  0  0  0  0  0  0  0  0  0
   37.3120   24.4830   42.8140 H   0  0  0  0  0  0  0  0  0  0  0  0
   38.6310   25.4360   42.0850 H   0  0  0  0  0  0  0  0  0  0  0  0
   35.8270   23.7080   39.3100 C   0  0  0  0  0  0  0  0  0  0  0  0
   36.4290   23.9230   40.5640 C   0  0  0  0  0  0  0  0  0  0  0  0
   36.9000   25.1800   40.8720 C   0  0  0  0  0  0  0  0  0  0  0  0
   36.7570   26.1390   39.9520 N   0  0  0  0  0  0  0  0  0  0  0  0
   36.1800   25.9250   38.7560 C   0  0  0  0  0  0  0  0  0  0  0  0
   35.7090   24.7020   38.4250 N   0  0  0  0  0  0  0  0  0  0  0  0
   35.4420   22.7680   39.0020 H   0  0  0  0  0  0  0  0  0  0  0  0
   36.4810   23.0610   41.2130 H   0  0  0  0  0  0  0  0  0  0  0  0
   36.0800   26.7320   38.0290 H   0  0  0  0  0  0  0  0  0  0  0  0
   36.9270   29.4250   42.2080 O   0  0  0  0  0  0  0  0  0  0  0  0
   35.0570   29.3580   40.3180 O   0  0  0  0  0  0  0  0  0  0  0  0
   36.4420   29.9140   40.6740 P   0  0  2  0  0  0  0  0  0  0  0  0
   37.5060   29.1390   39.5760 O   0  0  0  0  0  0  0  0  0  0  0  0
   38.4300   29.1610   39.9510 H   0  0  0  0  0  0  0  0  0  0  0  0
   36.5630   31.5440   40.4350 O   0  0  0  0  0  0  0  0  0  0  0  0
   37.6610   32.3580   40.3980 C   0  0  0  0  0  0  0  0  0  0  0  0
   37.5850   33.6410   39.8460 C   0  0  0  0  0  0  0  0  0  0  0  0
   36.7280   34.1400   39.4090 H   0  0  0  0  0  0  0  0  0  0  0  0
   38.8740   34.1610   39.9820 C   0  0  0  0  0  0  0  0  0  0  0  0
   39.0990   35.1770   39.6240 H   0  0  0  0  0  0  0  0  0  0  0  0
   39.6470   33.1740   40.5990 C   0  0  0  0  0  0  0  0  0  0  0  0
   40.6840   33.4310   40.7740 H   0  0  0  0  0  0  0  0  0  0  0  0
   38.8870   32.1350   40.8220 O   0  0  0  0  0  0  0  0  0  0  0  0
  1  2  1  0  0  0  0
  2  7  1  0  0  0  0
  2  8  1  0  0  0  0
  3  2  1  0  0  0  0
  3 10  1  0  0  0  0
  4  5  1  0  0  0  0
  4  3  1  0  0  0  0
  4 11  1  0  0  0  0
  5 14  1  0  0  0  0
  6 15  1  6  0  0  0
  6 31  1  0  0  0  0
  6  5  1  0  0  0  0
  6  1  1  0  0  0  0
  9  3  1  0  0  0  0
 12  4  1  0  0  0  0
 13  5  1  0  0  0  0
 16  1  1  0  0  0  0
 16 17  1  0  0  0  0
 18 16  1  0  0  0  0
 19 20  1  0  0  0  0
 19 16  1  0  0  0  0
 21 19  1  0  0  0  0
 22 23  1  0  0  0  0
 23 24  2  0  0  0  0
 23 29  1  0  0  0  0
 24 19  1  0  0  0  0
 25 24  1  0  0  0  0
 26 25  2  0  0  0  0
 27 26  1  0  0  0  0
 27 22  2  0  0  0  0
 28 22  1  0  0  0  0
 30 26  1  0  0  0  0
 33 32  2  6  0  0  0
 33 31  1  0  0  0  0
 34 35  1  0  0  0  0
 34 33  1  0  0  0  0
 36 33  1  0  0  0  0
 37 36  1  0  0  0  0
 37 44  1  0  0  0  0
 38 40  1  0  0  0  0
 38 37  2  0  0  0  0
 39 38  1  0  0  0  0
 40 42  2  0  0  0  0
 41 40  1  0  0  0  0
 42 43  1  0  0  0  0
 42 44  1  0  0  0  0
M  END
>  <minimizedAffinity>
-5.24381208

$$$$

 OpenBabel03252509023D

 44 46  0  0  1  0  0  0  0  0999 V2000
   37.0870   26.7500   41.6870 N   0  0  0  0  0  0  0  0  0  0  0  0
   37.2070   25.3460   41.8350 C   0  0  0  0  0  0  0  0  0  0  0  0
   36.5450   24.5280   40.7450 C   0  0  0  0  0  0  0  0  0  0  0  0
   36.5490   25.1750   39.3870 C   0  0  0  0  0  0  0  0  0  0  0  0
   37.3320   26.4660   39.3920 C   0  0  0  0  0  0  0  0  0  0  0  0
   36.6230   27.3150   40.5120 C   0  0  2  0  0  0  0  0  0  0  0  0
   36.8870   24.9320   42.7980 H   0  0  0  0  0  0  0  0  0  0  0  0
   38.3060   25.1160   41.7740 H   0  0  0  0  0  0  0  0  0  0  0  0
   35.5320   24.2030   41.0600 H   0  0  0  0  0  0  0  0  0  0  0  0
   37.1160   23.5720   40.6290 H   0  0  0  0  0  0  0  0  0  0  0  0
   36.9880   24.5480   38.5980 H   0  0  0  0  0  0  0  0  0  0  0  0
   35.5140   25.4140   39.0960 H   0  0  0  0  0  0  0  0  0  0  0  0
   37.2070   26.9660   38.4240 H   0  0  0  0  0  0  0  0  0  0  0  0
   38.3700   26.3600   39.7060 H   0  0  0  0  0  0  0  0  0  0  0  0
   35.5320   27.2910   40.3150 H   0  0  0  0  0  0  0  0  0  0  0  0
   36.8850   27.4580   42.9210 C   0  0  0  0  0  0  0  0  0  0  0  0
   36.5240   28.4820   42.6680 H   0  0  0  0  0  0  0  0  0  0  0  0
   36.1150   26.9630   43.5480 H   0  0  0  0  0  0  0  0  0  0  0  0
   38.1770   27.4670   43.6790 C   0  0  0  0  0  0  0  0  0  0  0  0
   38.7230   26.4930   43.5550 H   0  0  0  0  0  0  0  0  0  0  0  0
   38.0500   27.6150   44.7660 H   0  0  0  0  0  0  0  0  0  0  0  0
   41.1980   29.1890   42.2640 C   0  0  0  0  0  0  0  0  0  0  0  0
   40.3530   28.1940   42.7900 C   0  0  0  0  0  0  0  0  0  0  0  0
   39.0610   28.5250   43.1260 C   0  0  0  0  0  0  0  0  0  0  0  0
   38.6730   29.7890   42.9340 N   0  0  0  0  0  0  0  0  0  0  0  0
   39.4870   30.7350   42.4320 C   0  0  0  0  0  0  0  0  0  0  0  0
   40.7610   30.4410   42.0920 N   0  0  0  0  0  0  0  0  0  0  0  0
   42.2060   29.0100   41.9830 H   0  0  0  0  0  0  0  0  0  0  0  0
   40.7940   27.2130   42.8940 H   0  0  0  0  0  0  0  0  0  0  0  0
   39.1370   31.7580   42.2880 H   0  0  0  0  0  0  0  0  0  0  0  0
   37.1670   28.5700   40.2930 O   0  0  0  0  0  0  0  0  0  0  0  0
   36.4940   30.8620   39.1220 O   0  0  0  0  0  0  0  0  0  0  0  0
   35.9980   29.7590   40.0650 P   0  0  2  0  0  0  0  0  0  0  0  0
   35.8240   30.5400   41.5810 O   0  0  0  0  0  0  0  0  0  0  0  0
   35.8530   29.8550   42.3040 H   0  0  0  0  0  0  0  0  0  0  0  0
   34.5240   29.1540   39.6310 O   0  0  0  0  0  0  0  0  0  0  0  0
   33.9920   28.9100   38.3950 C   0  0  0  0  0  0  0  0  0  0  0  0
   34.7510   28.2870   37.3980 C   0  0  0  0  0  0  0  0  0  0  0  0
   35.7740   27.9370   37.4450 H   0  0  0  0  0  0  0  0  0  0  0  0
   33.8920   28.2090   36.2990 C   0  0  0  0  0  0  0  0  0  0  0  0
   34.2390   27.7530   35.3590 H   0  0  0  0  0  0  0  0  0  0  0  0
   32.6790   28.7810   36.6890 C   0  0  0  0  0  0  0  0  0  0  0  0
   31.9020   28.7950   35.9360 H   0  0  0  0  0  0  0  0  0  0  0  0
   32.7900   29.1770   37.9300 O   0  0  0  0  0  0  0  0  0  0  0  0
  1  2  1  0  0  0  0
  1 16  1  0  0  0  0
  2  7  1  0  0  0  0
  3  9  1  0  0  0  0
  3  2  1  0  0  0  0
  4  5  1  0  0  0  0
  4  3  1  0  0  0  0
  5 14  1  0  0  0  0
  5  6  1  0  0  0  0
  6 15  1  6  0  0  0
  6  1  1  0  0  0  0
  8  2  1  0  0  0  0
 10  3  1  0  0  0  0
 11  4  1  0  0  0  0
 12  4  1  0  0  0  0
 13  5  1  0  0  0  0
 16 18  1  0  0  0  0
 16 19  1  0  0  0  0
 17 16  1  0  0  0  0
 19 21  1  0  0  0  0
 20 19  1  0  0  0  0
 22 23  1  0  0  0  0
 23 29  1  0  0  0  0
 23 24  2  0  0  0  0
 24 19  1  0  0  0  0
 25 24  1  0  0  0  0
 26 25  2  0  0  0  0
 27 22  2  0  0  0  0
 27 26  1  0  0  0  0
 28 22  1  0  0  0  0
 30 26  1  0  0  0  0
 31  6  1  0  0  0  0
 33 32  2  6  0  0  0
 33 31  1  0  0  0  0
 33 34  1  0  0  0  0
 34 35  1  0  0  0  0
 36 33  1  0  0  0  0
 37 36  1  0  0  0  0
 38 39  1  0  0  0  0
 38 37  2  0  0  0  0
 40 42  2  0  0  0  0
 40 38  1  0  0  0  0
 41 40  1  0  0  0  0
 42 44  1  0  0  0  0
 43 42  1  0  0  0  0
 44 37  1  0  0  0  0
M  END
>  <minimizedAffinity>
-5.101964

$$$$

 OpenBabel03252509023D

 44 46  0  0  1  0  0  0  0  0999 V2000
   38.6820   28.6500   38.3310 N   0  0  0  0  0  0  0  0  0  0  0  0
   38.8810   28.3610   36.9580 C   0  0  0  0  0  0  0  0  0  0  0  0
   37.6250   28.3810   36.1100 C   0  0  0  0  0  0  0  0  0  0  0  0
   36.5830   29.3680   36.5600 C   0  0  0  0  0  0  0  0  0  0  0  0
   37.0820   30.2160   37.7050 C   0  0  0  0  0  0  0  0  0  0  0  0
   37.4800   29.1540   38.7950 C   0  0  2  0  0  0  0  0  0  0  0  0
   39.4160   27.4320   36.7310 H   0  0  0  0  0  0  0  0  0  0  0  0
   39.5410   29.1780   36.5560 H   0  0  0  0  0  0  0  0  0  0  0  0
   37.2180   27.3550   35.9890 H   0  0  0  0  0  0  0  0  0  0  0  0
   37.9080   28.6880   35.0720 H   0  0  0  0  0  0  0  0  0  0  0  0
   36.2630   30.0660   35.7720 H   0  0  0  0  0  0  0  0  0  0  0  0
   35.6940   28.8220   36.9120 H   0  0  0  0  0  0  0  0  0  0  0  0
   36.2560   30.8320   38.0820 H   0  0  0  0  0  0  0  0  0  0  0  0
   37.9890   30.7780   37.4850 H   0  0  0  0  0  0  0  0  0  0  0  0
   36.6290   28.4540   38.9120 H   0  0  0  0  0  0  0  0  0  0  0  0
   39.4940   27.8680   39.2220 C   0  0  0  0  0  0  0  0  0  0  0  0
   40.5320   28.2700   39.1730 H   0  0  0  0  0  0  0  0  0  0  0  0
   39.1380   27.9510   40.2690 H   0  0  0  0  0  0  0  0  0  0  0  0
   39.4060   26.4320   38.8060 C   0  0  0  0  0  0  0  0  0  0  0  0
   40.4280   26.0030   38.6170 H   0  0  0  0  0  0  0  0  0  0  0  0
   38.8280   26.2750   37.8780 H   0  0  0  0  0  0  0  0  0  0  0  0
   36.9010   25.0700   41.2490 C   0  0  0  0  0  0  0  0  0  0  0  0
   37.4760   25.8170   40.2040 C   0  0  0  0  0  0  0  0  0  0  0  0
   38.8090   25.6390   39.9110 C   0  0  0  0  0  0  0  0  0  0  0  0
   39.4930   24.7560   40.6450 N   0  0  0  0  0  0  0  0  0  0  0  0
   38.9370   24.0460   41.6420 C   0  0  0  0  0  0  0  0  0  0  0  0
   37.6300   24.1990   41.9530 N   0  0  0  0  0  0  0  0  0  0  0  0
   35.8810   25.1530   41.5330 H   0  0  0  0  0  0  0  0  0  0  0  0
   36.8100   26.4960   39.6920 H   0  0  0  0  0  0  0  0  0  0  0  0
   39.5250   23.3340   42.2210 H   0  0  0  0  0  0  0  0  0  0  0  0
   37.6540   29.9570   39.9120 O   0  0  0  0  0  0  0  0  0  0  0  0
   35.4540   28.6550   40.6490 O   0  0  0  0  0  0  0  0  0  0  0  0
   36.5190   29.6560   41.1160 P   0  0  2  0  0  0  0  0  0  0  0  0
   35.6600   31.1240   41.3290 O   0  0  0  0  0  0  0  0  0  0  0  0
   36.3020   31.8840   41.2840 H   0  0  0  0  0  0  0  0  0  0  0  0
   37.1950   29.2470   42.5670 O   0  0  0  0  0  0  0  0  0  0  0  0
   38.3480   28.5680   42.8510 C   0  0  0  0  0  0  0  0  0  0  0  0
   38.3190   27.3830   43.5940 C   0  0  0  0  0  0  0  0  0  0  0  0
   37.4640   26.8700   44.0170 H   0  0  0  0  0  0  0  0  0  0  0  0
   39.6550   26.9880   43.6790 C   0  0  0  0  0  0  0  0  0  0  0  0
   39.9250   26.0680   44.2200 H   0  0  0  0  0  0  0  0  0  0  0  0
   40.4070   27.9440   42.9920 C   0  0  0  0  0  0  0  0  0  0  0  0
   41.4760   27.7740   42.9700 H   0  0  0  0  0  0  0  0  0  0  0  0
   39.5910   28.8520   42.5240 O   0  0  0  0  0  0  0  0  0  0  0  0
  1  6  1  0  0  0  0
  1 16  1  0  0  0  0
  2  1  1  0  0  0  0
  3  4  1  0  0  0  0
  3  2  1  0  0  0  0
  4 12  1  0  0  0  0
  4  5  1  0  0  0  0
  5 13  1  0  0  0  0
  5  6  1  0  0  0  0
  6 15  1  1  0  0  0
  6 31  1  0  0  0  0
  7  2  1  0  0  0  0
  8  2  1  0  0  0  0
  9  3  1  0  0  0  0
 10  3  1  0  0  0  0
 11  4  1  0  0  0  0
 14  5  1  0  0  0  0
 16 18  1  0  0  0  0
 17 16  1  0  0  0  0
 19 16  1  0  0  0  0
 19 24  1  0  0  0  0
 20 19  1  0  0  0  0
 21 19  1  0  0  0  0
 22 28  1  0  0  0  0
 22 27  1  0  0  0  0
 23 22  2  0  0  0  0
 24 23  1  0  0  0  0
 24 25  2  0  0  0  0
 25 26  1  0  0  0  0
 26 27  2  0  0  0  0
 26 30  1  0  0  0  0
 29 23  1  0  0  0  0
 31 33  1  0  0  0  0
 33 32  2  6  0  0  0
 33 34  1  0  0  0  0
 33 36  1  0  0  0  0
 35 34  1  0  0  0  0
 36 37  1  0  0  0  0
 37 38  2  0  0  0  0
 38 40  1  0  0  0  0
 38 39  1  0  0  0  0
 40 41  1  0  0  0  0
 42 40  2  0  0  0  0
 43 42  1  0  0  0  0
 44 37  1  0  0  0  0
 44 42  1  0  0  0  0
M  END
>  <minimizedAffinity>
-5.05139351

$$$$

 OpenBabel03252509023D

 44 46  0  0  1  0  0  0  0  0999 V2000
   38.4070   28.6810   42.5640 N   0  0  0  0  0  0  0  0  0  0  0  0
   39.3090   27.8810   43.3090 C   0  0  0  0  0  0  0  0  0  0  0  0
   40.7730   28.0920   42.9820 C   0  0  0  0  0  0  0  0  0  0  0  0
   41.1260   29.4960   42.5710 C   0  0  0  0  0  0  0  0  0  0  0  0
   39.9410   30.4230   42.6950 C   0  0  0  0  0  0  0  0  0  0  0  0
   38.8500   29.7390   41.7910 C   0  0  2  0  0  0  0  0  0  0  0  0
   39.1220   26.8020   43.2980 H   0  0  0  0  0  0  0  0  0  0  0  0
   39.1830   28.1830   44.3850 H   0  0  0  0  0  0  0  0  0  0  0  0
   41.1250   27.3330   42.2530 H   0  0  0  0  0  0  0  0  0  0  0  0
   41.3720   27.8850   43.9040 H   0  0  0  0  0  0  0  0  0  0  0  0
   41.9350   29.9430   43.1680 H   0  0  0  0  0  0  0  0  0  0  0  0
   41.4420   29.4970   41.5160 H   0  0  0  0  0  0  0  0  0  0  0  0
   40.2040   31.4000   42.2720 H   0  0  0  0  0  0  0  0  0  0  0  0
   39.5140   30.4740   43.6960 H   0  0  0  0  0  0  0  0  0  0  0  0
   39.3170   29.5120   40.8110 H   0  0  0  0  0  0  0  0  0  0  0  0
   37.1960   28.0060   42.1840 C   0  0  0  0  0  0  0  0  0  0  0  0
   36.3560   28.4830   42.7390 H   0  0  0  0  0  0  0  0  0  0  0  0
   37.0010   28.1120   41.0970 H   0  0  0  0  0  0  0  0  0  0  0  0
   37.3480   26.5490   42.4960 C   0  0  0  0  0  0  0  0  0  0  0  0
   36.6700   26.2450   43.3400 H   0  0  0  0  0  0  0  0  0  0  0  0
   38.3700   26.2670   42.8030 H   0  0  0  0  0  0  0  0  0  0  0  0
   36.3660   25.6510   38.9850 C   0  0  0  0  0  0  0  0  0  0  0  0
   36.7530   26.3990   40.1130 C   0  0  0  0  0  0  0  0  0  0  0  0
   36.9400   25.7500   41.3120 C   0  0  0  0  0  0  0  0  0  0  0  0
   36.7410   24.4290   41.3410 N   0  0  0  0  0  0  0  0  0  0  0  0
   36.3720   23.7210   40.2590 C   0  0  0  0  0  0  0  0  0  0  0  0
   36.1810   24.3300   39.0680 N   0  0  0  0  0  0  0  0  0  0  0  0
   36.2030   26.0810   38.0280 H   0  0  0  0  0  0  0  0  0  0  0  0
   36.8780   27.4600   39.9510 H   0  0  0  0  0  0  0  0  0  0  0  0
   36.2180   22.6430   40.3190 H   0  0  0  0  0  0  0  0  0  0  0  0
   37.9000   30.7440   41.6970 O   0  0  0  0  0  0  0  0  0  0  0  0
   39.2830   32.0320   39.8250 O   0  0  0  0  0  0  0  0  0  0  0  0
   37.8930   31.4990   40.1940 P   0  0  2  0  0  0  0  0  0  0  0  0
   36.9320   32.9060   40.3800 O   0  0  0  0  0  0  0  0  0  0  0  0
   36.1420   32.6860   40.9470 H   0  0  0  0  0  0  0  0  0  0  0  0
   37.2190   30.5770   39.0000 O   0  0  0  0  0  0  0  0  0  0  0  0
   36.0220   29.9170   38.9550 C   0  0  0  0  0  0  0  0  0  0  0  0
   35.5490   29.3690   37.7570 C   0  0  0  0  0  0  0  0  0  0  0  0
   36.0130   29.3800   36.7790 H   0  0  0  0  0  0  0  0  0  0  0  0
   34.3250   28.7880   38.0940 C   0  0  0  0  0  0  0  0  0  0  0  0
   33.7270   28.2770   37.3250 H   0  0  0  0  0  0  0  0  0  0  0  0
   34.1280   29.0160   39.4590 C   0  0  0  0  0  0  0  0  0  0  0  0
   33.2100   28.6210   39.8740 H   0  0  0  0  0  0  0  0  0  0  0  0
   35.1550   29.6830   39.9170 O   0  0  0  0  0  0  0  0  0  0  0  0
  1  2  1  0  0  0  0
  2  8  1  0  0  0  0
  3  2  1  0  0  0  0
  3 10  1  0  0  0  0
  4  5  1  0  0  0  0
  4  3  1  0  0  0  0
  4 11  1  0  0  0  0
  5 14  1  0  0  0  0
  6 15  1  6  0  0  0
  6  1  1  0  0  0  0
  6  5  1  0  0  0  0
  7  2  1  0  0  0  0
  9  3  1  0  0  0  0
 12  4  1  0  0  0  0
 13  5  1  0  0  0  0
 16 19  1  0  0  0  0
 16  1  1  0  0  0  0
 16 17  1  0  0  0  0
 18 16  1  0  0  0  0
 19 21  1  0  0  0  0
 19 20  1  0  0  0  0
 22 27  2  0  0  0  0
 22 23  1  0  0  0  0
 23 24  2  0  0  0  0
 24 25  1  0  0  0  0
 24 19  1  0  0  0  0
 26 30  1  0  0  0  0
 26 25  2  0  0  0  0
 27 26  1  0  0  0  0
 28 22  1  0  0  0  0
 29 23  1  0  0  0  0
 31  6  1  0  0  0  0
 33 32  2  6  0  0  0
 33 34  1  0  0  0  0
 33 31  1  0  0  0  0
 34 35  1  0  0  0  0
 36 33  1  0  0  0  0
 37 36  1  0  0  0  0
 37 44  1  0  0  0  0
 38 40  1  0  0  0  0
 38 37  2  0  0  0  0
 39 38  1  0  0  0  0
 40 42  2  0  0  0  0
 41 40  1  0  0  0  0
 42 43  1  0  0  0  0
 42 44  1  0  0  0  0
M  END
>  <minimizedAffinity>
-5.03645897

$$$$

 OpenBabel03252509023D

 44 46  0  0  1  0  0  0  0  0999 V2000
   38.5010   29.0310   38.1150 N   0  0  0  0  0  0  0  0  0  0  0  0
   39.2650   28.4620   37.0660 C   0  0  0  0  0  0  0  0  0  0  0  0
   38.5360   27.4290   36.2300 C   0  0  0  0  0  0  0  0  0  0  0  0
   37.0600   27.6760   36.0780 C   0  0  0  0  0  0  0  0  0  0  0  0
   36.6510   28.9870   36.7070 C   0  0  0  0  0  0  0  0  0  0  0  0
   37.1330   28.8390   38.1970 C   0  0  2  0  0  0  0  0  0  0  0  0
   40.2320   28.0310   37.3500 H   0  0  0  0  0  0  0  0  0  0  0  0
   39.5200   29.3060   36.3680 H   0  0  0  0  0  0  0  0  0  0  0  0
   38.7630   26.4040   36.5880 H   0  0  0  0  0  0  0  0  0  0  0  0
   38.9580   27.4570   35.1940 H   0  0  0  0  0  0  0  0  0  0  0  0
   36.7210   27.7140   35.0320 H   0  0  0  0  0  0  0  0  0  0  0  0
   36.5040   26.8740   36.5870 H   0  0  0  0  0  0  0  0  0  0  0  0
   35.5580   29.0690   36.6850 H   0  0  0  0  0  0  0  0  0  0  0  0
   37.1690   29.8570   36.3070 H   0  0  0  0  0  0  0  0  0  0  0  0
   36.7630   27.8650   38.5780 H   0  0  0  0  0  0  0  0  0  0  0  0
   39.2400   29.2630   39.3250 C   0  0  0  0  0  0  0  0  0  0  0  0
   38.5240   29.6370   40.0920 H   0  0  0  0  0  0  0  0  0  0  0  0
   39.6980   28.3260   39.7030 H   0  0  0  0  0  0  0  0  0  0  0  0
   40.3380   30.2380   39.0290 C   0  0  0  0  0  0  0  0  0  0  0  0
   40.5010   30.3380   37.9210 H   0  0  0  0  0  0  0  0  0  0  0  0
   41.3130   29.9510   39.4610 H   0  0  0  0  0  0  0  0  0  0  0  0
   40.3190   33.9500   39.5920 C   0  0  0  0  0  0  0  0  0  0  0  0
   40.6850   32.6730   39.1280 C   0  0  0  0  0  0  0  0  0  0  0  0
   39.9450   31.5820   39.5240 C   0  0  0  0  0  0  0  0  0  0  0  0
   38.9060   31.7980   40.3370 N   0  0  0  0  0  0  0  0  0  0  0  0
   38.5630   33.0220   40.7760 C   0  0  0  0  0  0  0  0  0  0  0  0
   39.2710   34.1130   40.4040 N   0  0  0  0  0  0  0  0  0  0  0  0
   40.8410   34.8370   39.3310 H   0  0  0  0  0  0  0  0  0  0  0  0
   41.5460   32.6400   38.4770 H   0  0  0  0  0  0  0  0  0  0  0  0
   37.7090   33.1620   41.4390 H   0  0  0  0  0  0  0  0  0  0  0  0
   36.4960   29.9120   38.8010 O   0  0  0  0  0  0  0  0  0  0  0  0
   34.0340   29.2940   39.5950 O   0  0  0  0  0  0  0  0  0  0  0  0
   35.4860   29.4470   40.0630 P   0  0  2  0  0  0  0  0  0  0  0  0
   35.4460   30.7770   41.1450 O   0  0  0  0  0  0  0  0  0  0  0  0
   36.3620   31.1630   41.2180 H   0  0  0  0  0  0  0  0  0  0  0  0
   36.0380   28.1310   40.8940 O   0  0  0  0  0  0  0  0  0  0  0  0
   36.8930   28.0460   41.9590 C   0  0  0  0  0  0  0  0  0  0  0  0
   37.4930   26.8290   42.3020 C   0  0  0  0  0  0  0  0  0  0  0  0
   37.3840   25.8630   41.8250 H   0  0  0  0  0  0  0  0  0  0  0  0
   38.2810   27.1260   43.4150 C   0  0  0  0  0  0  0  0  0  0  0  0
   38.8740   26.3350   43.8980 H   0  0  0  0  0  0  0  0  0  0  0  0
   38.1150   28.4880   43.6800 C   0  0  0  0  0  0  0  0  0  0  0  0
   38.6700   28.8740   44.5250 H   0  0  0  0  0  0  0  0  0  0  0  0
   37.2900   28.9820   42.7940 O   0  0  0  0  0  0  0  0  0  0  0  0
  1  6  1  0  0  0  0
  1 16  1  0  0  0  0
  2  7  1  0  0  0  0
  2  1  1  0  0  0  0
  3  9  1  0  0  0  0
  3  2  1  0  0  0  0
  4  3  1  0  0  0  0
  4 12  1  0  0  0  0
  4  5  1  0  0  0  0
  5  6  1  0  0  0  0
  6 15  1  1  0  0  0
  6 31  1  0  0  0  0
  8  2  1  0  0  0  0
 10  3  1  0  0  0  0
 11  4  1  0  0  0  0
 13  5  1  0  0  0  0
 14  5  1  0  0  0  0
 16 18  1  0  0  0  0
 16 17  1  0  0  0  0
 19 16  1  0  0  0  0
 19 21  1  0  0  0  0
 19 24  1  0  0  0  0
 20 19  1  0  0  0  0
 22 27  1  0  0  0  0
 23 24  1  0  0  0  0
 23 22  2  0  0  0  0
 24 25  2  0  0  0  0
 25 26  1  0  0  0  0
 26 30  1  0  0  0  0
 27 26  2  0  0  0  0
 28 22  1  0  0  0  0
 29 23  1  0  0  0  0
 31 33  1  0  0  0  0
 33 32  2  6  0  0  0
 33 36  1  0  0  0  0
 33 34  1  0  0  0  0
 34 35  1  0  0  0  0
 36 37  1  0  0  0  0
 37 38  2  0  0  0  0
 37 44  1  0  0  0  0
 38 40  1  0  0  0  0
 39 38  1  0  0  0  0
 40 42  2  0  0  0  0
 40 41  1  0  0  0  0
 42 43  1  0  0  0  0
 44 42  1  0  0  0  0
M  END
>  <minimizedAffinity>
-5.02316141

$$$$

 OpenBabel03252509023D

 44 46  0  0  1  0  0  0  0  0999 V2000
   36.4520   30.1430   39.7800 N   0  0  0  0  0  0  0  0  0  0  0  0
   36.5730   30.4810   38.4090 C   0  0  0  0  0  0  0  0  0  0  0  0
   37.3280   29.4750   37.5650 C   0  0  0  0  0  0  0  0  0  0  0  0
   37.1720   28.0450   38.0070 C   0  0  0  0  0  0  0  0  0  0  0  0
   36.1840   27.9220   39.1430 C   0  0  0  0  0  0  0  0  0  0  0  0
   36.7760   28.8800   40.2420 C   0  0  2  0  0  0  0  0  0  0  0  0
   36.9890   31.4710   38.1900 H   0  0  0  0  0  0  0  0  0  0  0  0
   35.5270   30.5110   37.9980 H   0  0  0  0  0  0  0  0  0  0  0  0
   38.3910   29.7740   37.4550 H   0  0  0  0  0  0  0  0  0  0  0  0
   36.9220   29.5170   36.5230 H   0  0  0  0  0  0  0  0  0  0  0  0
   36.8190   27.3710   37.2130 H   0  0  0  0  0  0  0  0  0  0  0  0
   38.1420   27.6690   38.3670 H   0  0  0  0  0  0  0  0  0  0  0  0
   36.1930   26.8910   39.5160 H   0  0  0  0  0  0  0  0  0  0  0  0
   35.1900   28.3030   38.9150 H   0  0  0  0  0  0  0  0  0  0  0  0
   37.8490   28.6280   40.3680 H   0  0  0  0  0  0  0  0  0  0  0  0
   36.5720   31.2600   40.6760 C   0  0  0  0  0  0  0  0  0  0  0  0
   35.5470   31.6600   40.8560 H   0  0  0  0  0  0  0  0  0  0  0  0
   37.0000   30.9490   41.6510 H   0  0  0  0  0  0  0  0  0  0  0  0
   37.4910   32.2680   40.0570 C   0  0  0  0  0  0  0  0  0  0  0  0
   37.1560   33.3150   40.2890 H   0  0  0  0  0  0  0  0  0  0  0  0
   37.5470   32.1970   38.9560 H   0  0  0  0  0  0  0  0  0  0  0  0
   41.1760   32.6930   40.6370 C   0  0  0  0  0  0  0  0  0  0  0  0
   39.8860   32.8310   40.0900 C   0  0  0  0  0  0  0  0  0  0  0  0
   38.8480   32.1150   40.6410 C   0  0  0  0  0  0  0  0  0  0  0  0
   39.1250   31.3180   41.6770 N   0  0  0  0  0  0  0  0  0  0  0  0
   40.3600   31.1910   42.1930 C   0  0  0  0  0  0  0  0  0  0  0  0
   41.4000   31.8820   41.6750 N   0  0  0  0  0  0  0  0  0  0  0  0
   42.0250   33.2120   40.2660 H   0  0  0  0  0  0  0  0  0  0  0  0
   39.8020   33.5090   39.2530 H   0  0  0  0  0  0  0  0  0  0  0  0
   40.5490   30.5310   43.0400 H   0  0  0  0  0  0  0  0  0  0  0  0
   36.0230   28.5260   41.3510 O   0  0  0  0  0  0  0  0  0  0  0  0
   36.0850   27.2430   43.6800 O   0  0  0  0  0  0  0  0  0  0  0  0
   36.9560   27.9040   42.6050 P   0  0  2  0  0  0  0  0  0  0  0  0
   37.6480   29.2610   43.3920 O   0  0  0  0  0  0  0  0  0  0  0  0
   37.9290   29.9260   42.7040 H   0  0  0  0  0  0  0  0  0  0  0  0
   38.1880   26.9340   42.0860 O   0  0  0  0  0  0  0  0  0  0  0  0
   38.1760   25.6380   41.6490 C   0  0  0  0  0  0  0  0  0  0  0  0
   36.9690   24.9830   41.3800 C   0  0  0  0  0  0  0  0  0  0  0  0
   35.9580   25.3630   41.4670 H   0  0  0  0  0  0  0  0  0  0  0  0
   37.3470   23.7040   40.9650 C   0  0  0  0  0  0  0  0  0  0  0  0
   36.5800   22.9660   40.6860 H   0  0  0  0  0  0  0  0  0  0  0  0
   38.7430   23.6590   41.0070 C   0  0  0  0  0  0  0  0  0  0  0  0
   39.1910   22.7200   40.7090 H   0  0  0  0  0  0  0  0  0  0  0  0
   39.1800   24.8210   41.4150 O   0  0  0  0  0  0  0  0  0  0  0  0
  1  6  1  0  0  0  0
  1 16  1  0  0  0  0
  2  1  1  0  0  0  0
  3  4  1  0  0  0  0
  3  2  1  0  0  0  0
  4 12  1  0  0  0  0
  4  5  1  0  0  0  0
  5 13  1  0  0  0  0
  5  6  1  0  0  0  0
  6 15  1  1  0  0  0
  6 31  1  0  0  0  0
  7  2  1  0  0  0  0
  8  2  1  0  0  0  0
  9  3  1  0  0  0  0
 10  3  1  0  0  0  0
 11  4  1  0  0  0  0
 14  5  1  0  0  0  0
 16 17  1  0  0  0  0
 16 18  1  0  0  0  0
 19 20  1  0  0  0  0
 19 24  1  0  0  0  0
 19 16  1  0  0  0  0
 21 19  1  0  0  0  0
 22 27  1  0  0  0  0
 23 22  2  0  0  0  0
 23 24  1  0  0  0  0
 24 25  2  0  0  0  0
 25 26  1  0  0  0  0
 26 30  1  0  0  0  0
 27 26  2  0  0  0  0
 28 22  1  0  0  0  0
 29 23  1  0  0  0  0
 31 33  1  0  0  0  0
 33 34  1  0  0  0  0
 33 32  2  1  0  0  0
 35 34  1  0  0  0  0
 36 33  1  0  0  0  0
 37 36  1  0  0  0  0
 38 39  1  0  0  0  0
 38 37  2  0  0  0  0
 40 42  2  0  0  0  0
 40 38  1  0  0  0  0
 41 40  1  0  0  0  0
 42 44  1  0  0  0  0
 43 42  1  0  0  0  0
 44 37  1  0  0  0  0
M  END
>  <minimizedAffinity>
-4.99186897

$$$$

 OpenBabel03252509023D

 44 46  0  0  1  0  0  0  0  0999 V2000
   37.0990   26.4890   41.7030 N   0  0  0  0  0  0  0  0  0  0  0  0
   37.1820   25.1290   42.0910 C   0  0  0  0  0  0  0  0  0  0  0  0
   36.5850   24.1440   41.1060 C   0  0  0  0  0  0  0  0  0  0  0  0
   36.7000   24.5550   39.6630 C   0  0  0  0  0  0  0  0  0  0  0  0
   37.5040   25.8240   39.5120 C   0  0  0  0  0  0  0  0  0  0  0  0
   36.7330   26.8520   40.4190 C   0  0  2  0  0  0  0  0  0  0  0  0
   36.7860   24.8830   43.0830 H   0  0  0  0  0  0  0  0  0  0  0  0
   38.2780   24.8850   42.1510 H   0  0  0  0  0  0  0  0  0  0  0  0
   35.5460   23.8830   41.3940 H   0  0  0  0  0  0  0  0  0  0  0  0
   37.1450   23.1790   41.1930 H   0  0  0  0  0  0  0  0  0  0  0  0
   37.1830   23.8020   39.0240 H   0  0  0  0  0  0  0  0  0  0  0  0
   35.6930   24.7480   39.2610 H   0  0  0  0  0  0  0  0  0  0  0  0
   37.4590   26.1550   38.4680 H   0  0  0  0  0  0  0  0  0  0  0  0
   38.5150   25.7650   39.9150 H   0  0  0  0  0  0  0  0  0  0  0  0
   35.6590   26.8030   40.1480 H   0  0  0  0  0  0  0  0  0  0  0  0
   36.8220   27.3950   42.7840 C   0  0  0  0  0  0  0  0  0  0  0  0
   36.5720   28.3850   42.3380 H   0  0  0  0  0  0  0  0  0  0  0  0
   35.9530   27.0530   43.3820 H   0  0  0  0  0  0  0  0  0  0  0  0
   38.0210   27.4450   43.6800 C   0  0  0  0  0  0  0  0  0  0  0  0
   38.5470   26.4520   43.7050 H   0  0  0  0  0  0  0  0  0  0  0  0
   37.7800   27.6950   44.7280 H   0  0  0  0  0  0  0  0  0  0  0  0
   39.4660   30.6350   42.3250 C   0  0  0  0  0  0  0  0  0  0  0  0
   38.5520   29.6960   42.8380 C   0  0  0  0  0  0  0  0  0  0  0  0
   38.9940   28.4280   43.1380 C   0  0  0  0  0  0  0  0  0  0  0  0
   40.2850   28.1540   42.9240 N   0  0  0  0  0  0  0  0  0  0  0  0
   41.1520   29.0570   42.4330 C   0  0  0  0  0  0  0  0  0  0  0  0
   40.7470   30.3100   42.1290 N   0  0  0  0  0  0  0  0  0  0  0  0
   39.1990   31.6300   42.0700 H   0  0  0  0  0  0  0  0  0  0  0  0
   37.5380   30.0490   42.9620 H   0  0  0  0  0  0  0  0  0  0  0  0
   42.1990   28.7980   42.2710 H   0  0  0  0  0  0  0  0  0  0  0  0
   37.3150   28.0500   40.0350 O   0  0  0  0  0  0  0  0  0  0  0  0
   35.2580   29.6650   40.5260 O   0  0  0  0  0  0  0  0  0  0  0  0
   36.1990   29.1540   39.4280 P   0  0  2  0  0  0  0  0  0  0  0  0
   35.1820   28.2610   38.3760 O   0  0  0  0  0  0  0  0  0  0  0  0
   35.7380   27.6180   37.8550 H   0  0  0  0  0  0  0  0  0  0  0  0
   36.8910   30.3720   38.5530 O   0  0  0  0  0  0  0  0  0  0  0  0
   37.6590   31.4310   38.9560 C   0  0  0  0  0  0  0  0  0  0  0  0
   37.0840   32.5240   39.6120 C   0  0  0  0  0  0  0  0  0  0  0  0
   36.0460   32.6860   39.8780 H   0  0  0  0  0  0  0  0  0  0  0  0
   38.1530   33.3870   39.8620 C   0  0  0  0  0  0  0  0  0  0  0  0
   37.9810   34.3430   40.3790 H   0  0  0  0  0  0  0  0  0  0  0  0
   39.2990   32.7740   39.3490 C   0  0  0  0  0  0  0  0  0  0  0  0
   40.2210   33.3280   39.4670 H   0  0  0  0  0  0  0  0  0  0  0  0
   38.9530   31.6260   38.8270 O   0  0  0  0  0  0  0  0  0  0  0  0
  1  2  1  0  0  0  0
  1 16  1  0  0  0  0
  2  8  1  0  0  0  0
  2  7  1  0  0  0  0
  3 10  1  0  0  0  0
  3  9  1  0  0  0  0
  3  2  1  0  0  0  0
  4  3  1  0  0  0  0
  5  4  1  0  0  0  0
  5 14  1  0  0  0  0
  5  6  1  0  0  0  0
  6 15  1  6  0  0  0
  6  1  1  0  0  0  0
 11  4  1  0  0  0  0
 12  4  1  0  0  0  0
 13  5  1  0  0  0  0
 16 18  1  0  0  0  0
 16 19  1  0  0  0  0
 17 16  1  0  0  0  0
 19 20  1  0  0  0  0
 19 21  1  0  0  0  0
 22 23  1  0  0  0  0
 23 29  1  0  0  0  0
 23 24  2  0  0  0  0
 24 19  1  0  0  0  0
 25 24  1  0  0  0  0
 26 25  2  0  0  0  0
 27 22  2  0  0  0  0
 27 26  1  0  0  0  0
 28 22  1  0  0  0  0
 30 26  1  0  0  0  0
 31  6  1  0  0  0  0
 33 31  1  0  0  0  0
 33 32  2  1  0  0  0
 34 33  1  0  0  0  0
 35 34  1  0  0  0  0
 36 37  1  0  0  0  0
 36 33  1  0  0  0  0
 37 38  2  0  0  0  0
 38 40  1  0  0  0  0
 38 39  1  0  0  0  0
 40 41  1  0  0  0  0
 42 43  1  0  0  0  0
 42 40  2  0  0  0  0
 44 37  1  0  0  0  0
 44 42  1  0  0  0  0
M  END
>  <minimizedAffinity>
-4.94394779

$$$$

 OpenBabel03252509023D

 44 46  0  0  1  0  0  0  0  0999 V2000
   37.4300   30.4120   41.7600 N   0  0  0  0  0  0  0  0  0  0  0  0
   37.3360   29.2340   42.5420 C   0  0  0  0  0  0  0  0  0  0  0  0
   38.5840   28.3750   42.5610 C   0  0  0  0  0  0  0  0  0  0  0  0
   39.8730   29.1430   42.4550 C   0  0  0  0  0  0  0  0  0  0  0  0
   39.6320   30.6340   42.4750 C   0  0  0  0  0  0  0  0  0  0  0  0
   38.6450   30.8570   41.2700 C   0  0  2  0  0  0  0  0  0  0  0  0
   36.4870   28.5760   42.3240 H   0  0  0  0  0  0  0  0  0  0  0  0
   37.1730   29.5710   43.6020 H   0  0  0  0  0  0  0  0  0  0  0  0
   38.5100   27.5600   41.8100 H   0  0  0  0  0  0  0  0  0  0  0  0
   38.6270   27.8410   43.5430 H   0  0  0  0  0  0  0  0  0  0  0  0
   40.5830   28.9320   43.2680 H   0  0  0  0  0  0  0  0  0  0  0  0
   40.3650   28.8980   41.5010 H   0  0  0  0  0  0  0  0  0  0  0  0
   40.5760   31.1530   42.2720 H   0  0  0  0  0  0  0  0  0  0  0  0
   39.1110   30.9920   43.3620 H   0  0  0  0  0  0  0  0  0  0  0  0
   39.0710   30.3440   40.3840 H   0  0  0  0  0  0  0  0  0  0  0  0
   36.2310   30.7390   41.0390 C   0  0  0  0  0  0  0  0  0  0  0  0
   35.5510   31.2740   41.7400 H   0  0  0  0  0  0  0  0  0  0  0  0
   36.4480   31.4110   40.1830 H   0  0  0  0  0  0  0  0  0  0  0  0
   35.6390   29.4710   40.5050 C   0  0  0  0  0  0  0  0  0  0  0  0
   34.5410   29.4100   40.7380 H   0  0  0  0  0  0  0  0  0  0  0  0
   36.0970   28.5590   40.9260 H   0  0  0  0  0  0  0  0  0  0  0  0
   34.9680   28.7000   36.8920 C   0  0  0  0  0  0  0  0  0  0  0  0
   34.8610   28.7170   38.2950 C   0  0  0  0  0  0  0  0  0  0  0  0
   35.7610   29.4590   39.0250 C   0  0  0  0  0  0  0  0  0  0  0  0
   36.7000   30.1320   38.3530 N   0  0  0  0  0  0  0  0  0  0  0  0
   36.7960   30.1110   37.0120 C   0  0  0  0  0  0  0  0  0  0  0  0
   35.9270   29.3910   36.2680 N   0  0  0  0  0  0  0  0  0  0  0  0
   34.3120   28.1510   36.2640 H   0  0  0  0  0  0  0  0  0  0  0  0
   34.0560   28.1280   38.7110 H   0  0  0  0  0  0  0  0  0  0  0  0
   37.5750   30.6720   36.4960 H   0  0  0  0  0  0  0  0  0  0  0  0
   38.6760   32.2360   41.1400 O   0  0  0  0  0  0  0  0  0  0  0  0
   39.9140   34.0520   39.6410 O   0  0  0  0  0  0  0  0  0  0  0  0
   39.1240   32.7380   39.5980 P   0  0  2  0  0  0  0  0  0  0  0  0
   37.6660   33.1440   38.7940 O   0  0  0  0  0  0  0  0  0  0  0  0
   36.9680   32.4720   39.0300 H   0  0  0  0  0  0  0  0  0  0  0  0
   39.8790   31.5600   38.7190 O   0  0  0  0  0  0  0  0  0  0  0  0
   41.1450   31.5100   38.2030 C   0  0  0  0  0  0  0  0  0  0  0  0
   42.2500   31.2900   39.0320 C   0  0  0  0  0  0  0  0  0  0  0  0
   42.2720   31.1400   40.1050 H   0  0  0  0  0  0  0  0  0  0  0  0
   43.3470   31.3030   38.1690 C   0  0  0  0  0  0  0  0  0  0  0  0
   44.3620   31.1510   38.5650 H   0  0  0  0  0  0  0  0  0  0  0  0
   42.8500   31.5280   36.8820 C   0  0  0  0  0  0  0  0  0  0  0  0
   43.5890   31.5650   36.0930 H   0  0  0  0  0  0  0  0  0  0  0  0
   41.5500   31.6420   36.9580 O   0  0  0  0  0  0  0  0  0  0  0  0
  1  2  1  0  0  0  0
  2  3  1  0  0  0  0
  2  8  1  0  0  0  0
  3 10  1  0  0  0  0
  4  5  1  0  0  0  0
  4  3  1  0  0  0  0
  4 11  1  0  0  0  0
  5 14  1  0  0  0  0
  6 15  1  6  0  0  0
  6  1  1  0  0  0  0
  6  5  1  0  0  0  0
  7  2  1  0  0  0  0
  9  3  1  0  0  0  0
 12  4  1  0  0  0  0
 13  5  1  0  0  0  0
 16 17  1  0  0  0  0
 16  1  1  0  0  0  0
 18 16  1  0  0  0  0
 19 20  1  0  0  0  0
 19 21  1  0  0  0  0
 19 16  1  0  0  0  0
 22 23  1  0  0  0  0
 23 29  1  0  0  0  0
 23 24  2  0  0  0  0
 24 19  1  0  0  0  0
 25 24  1  0  0  0  0
 26 25  2  0  0  0  0
 27 22  2  0  0  0  0
 27 26  1  0  0  0  0
 28 22  1  0  0  0  0
 30 26  1  0  0  0  0
 31  6  1  0  0  0  0
 33 32  2  1  0  0  0
 33 31  1  0  0  0  0
 34 35  1  0  0  0  0
 34 33  1  0  0  0  0
 36 33  1  0  0  0  0
 37 36  1  0  0  0  0
 37 38  2  0  0  0  0
 38 39  1  0  0  0  0
 40 41  1  0  0  0  0
 40 38  1  0  0  0  0
 42 44  1  0  0  0  0
 42 40  2  0  0  0  0
 43 42  1  0  0  0  0
 44 37  1  0  0  0  0
M  END
>  <minimizedAffinity>
-4.81779003

$$$$

 OpenBabel03252509023D

 44 46  0  0  1  0  0  0  0  0999 V2000
   38.7080   31.7820   39.0390 N   0  0  0  0  0  0  0  0  0  0  0  0
   37.8380   31.7560   37.9210 C   0  0  0  0  0  0  0  0  0  0  0  0
   37.0310   30.4830   37.7640 C   0  0  0  0  0  0  0  0  0  0  0  0
   36.6600   29.8150   39.0600 C   0  0  0  0  0  0  0  0  0  0  0  0
   37.0810   30.6440   40.2500 C   0  0  0  0  0  0  0  0  0  0  0  0
   38.6290   30.8250   40.0360 C   0  0  2  0  0  0  0  0  0  0  0  0
   38.2930   31.9780   36.9490 H   0  0  0  0  0  0  0  0  0  0  0  0
   37.0910   32.5810   38.0840 H   0  0  0  0  0  0  0  0  0  0  0  0
   37.5280   29.7900   37.0540 H   0  0  0  0  0  0  0  0  0  0  0  0
   36.0640   30.7410   37.2660 H   0  0  0  0  0  0  0  0  0  0  0  0
   35.5810   29.6340   39.1730 H   0  0  0  0  0  0  0  0  0  0  0  0
   37.1770   28.8460   39.1300 H   0  0  0  0  0  0  0  0  0  0  0  0
   36.9060   30.0700   41.1680 H   0  0  0  0  0  0  0  0  0  0  0  0
   36.6600   31.6490   40.2690 H   0  0  0  0  0  0  0  0  0  0  0  0
   39.0620   29.8240   39.8360 H   0  0  0  0  0  0  0  0  0  0  0  0
   39.9720   32.4180   38.7890 C   0  0  0  0  0  0  0  0  0  0  0  0
   39.8430   33.5090   38.9790 H   0  0  0  0  0  0  0  0  0  0  0  0
   40.7570   32.0360   39.4730 H   0  0  0  0  0  0  0  0  0  0  0  0
   40.3840   32.1160   37.3810 C   0  0  0  0  0  0  0  0  0  0  0  0
   39.9790   32.8850   36.6690 H   0  0  0  0  0  0  0  0  0  0  0  0
   40.0270   31.1370   37.0170 H   0  0  0  0  0  0  0  0  0  0  0  0
   43.9340   31.1880   36.5850 C   0  0  0  0  0  0  0  0  0  0  0  0
   42.5310   31.1350   36.6850 C   0  0  0  0  0  0  0  0  0  0  0  0
   41.8650   32.1810   37.2810 C   0  0  0  0  0  0  0  0  0  0  0  0
   42.5950   33.2020   37.7390 N   0  0  0  0  0  0  0  0  0  0  0  0
   43.9350   33.2450   37.6400 C   0  0  0  0  0  0  0  0  0  0  0  0
   44.6180   32.2330   37.0590 N   0  0  0  0  0  0  0  0  0  0  0  0
   44.5160   30.4200   36.1390 H   0  0  0  0  0  0  0  0  0  0  0  0
   42.0650   30.2510   36.2750 H   0  0  0  0  0  0  0  0  0  0  0  0
   44.5000   34.0950   38.0240 H   0  0  0  0  0  0  0  0  0  0  0  0
   39.0210   31.3280   41.2670 O   0  0  0  0  0  0  0  0  0  0  0  0
   41.2260   31.2140   42.7500 O   0  0  0  0  0  0  0  0  0  0  0  0
   40.1700   30.3660   42.0300 P   0  0  2  0  0  0  0  0  0  0  0  0
   41.0360   29.5840   40.7740 O   0  0  0  0  0  0  0  0  0  0  0  0
   40.3950   29.3070   40.0630 H   0  0  0  0  0  0  0  0  0  0  0  0
   39.5120   29.1990   42.9970 O   0  0  0  0  0  0  0  0  0  0  0  0
   38.4630   28.3500   42.7760 C   0  0  0  0  0  0  0  0  0  0  0  0
   37.3970   28.2760   43.6790 C   0  0  0  0  0  0  0  0  0  0  0  0
   37.2510   28.8260   44.6010 H   0  0  0  0  0  0  0  0  0  0  0  0
   36.5370   27.3220   43.1320 C   0  0  0  0  0  0  0  0  0  0  0  0
   35.6000   27.0640   43.6490 H   0  0  0  0  0  0  0  0  0  0  0  0
   37.1240   26.8780   41.9450 C   0  0  0  0  0  0  0  0  0  0  0  0
   36.5680   26.1270   41.3980 H   0  0  0  0  0  0  0  0  0  0  0  0
   38.2540   27.5140   41.7820 O   0  0  0  0  0  0  0  0  0  0  0  0
  1  6  1  0  0  0  0
  2  8  1  0  0  0  0
  2  1  1  0  0  0  0
  3  2  1  0  0  0  0
  3  4  1  0  0  0  0
  4 12  1  0  0  0  0
  4 11  1  0  0  0  0
  4  5  1  0  0  0  0
  5 14  1  0  0  0  0
  5 13  1  0  0  0  0
  6 15  1  6  0  0  0
  6  5  1  0  0  0  0
  6 31  1  0  0  0  0
  7  2  1  0  0  0  0
  9  3  1  0  0  0  0
 10  3  1  0  0  0  0
 16 17  1  0  0  0  0
 16  1  1  0  0  0  0
 16 18  1  0  0  0  0
 19 16  1  0  0  0  0
 20 19  1  0  0  0  0
 21 19  1  0  0  0  0
 22 23  2  0  0  0  0
 22 27  1  0  0  0  0
 23 24  1  0  0  0  0
 24 19  1  0  0  0  0
 24 25  2  0  0  0  0
 26 25  1  0  0  0  0
 26 30  1  0  0  0  0
 27 26  2  0  0  0  0
 28 22  1  0  0  0  0
 29 23  1  0  0  0  0
 31 33  1  0  0  0  0
 33 32  2  1  0  0  0
 33 36  1  0  0  0  0
 34 33  1  0  0  0  0
 35 34  1  0  0  0  0
 37 36  1  0  0  0  0
 37 38  2  0  0  0  0
 38 39  1  0  0  0  0
 40 41  1  0  0  0  0
 40 38  1  0  0  0  0
 42 40  2  0  0  0  0
 43 42  1  0  0  0  0
 44 42  1  0  0  0  0
 44 37  1  0  0  0  0
M  END
>  <minimizedAffinity>
-4.79831219

$$$$
