
 OpenBabel03242522243D

 27 29  0  0  0  0  0  0  0  0999 V2000
   39.6150   33.9340   40.0750 C   0  0  0  0  0  0  0  0  0  0  0  0
   38.9650   32.9440   40.8230 C   0  0  0  0  0  0  0  0  0  0  0  0
   39.2290   31.5830   40.6260 C   0  0  0  0  0  0  0  0  0  0  0  0
   40.1410   31.3030   39.6740 N   0  0  0  0  0  0  0  0  0  0  0  0
   40.7690   32.2430   38.9500 C   0  0  0  0  0  0  0  0  0  0  0  0
   40.5060   33.5450   39.1520 N   0  0  0  0  0  0  0  0  0  0  0  0
   39.3800   34.9870   40.2600 H   0  0  0  0  0  0  0  0  0  0  0  0
   38.2590   33.2500   41.5560 H   0  0  0  0  0  0  0  0  0  0  0  0
   36.7340   30.6800   39.3880 Cl  0  0  0  0  0  0  0  0  0  0  0  0
   37.3710   30.0480   40.9020 C   0  0  0  0  0  0  0  0  0  0  0  0
   38.5580   30.5430   41.4000 C   0  0  0  0  0  0  0  0  0  0  0  0
   39.0390   30.0290   42.5920 C   0  0  0  0  0  0  0  0  0  0  0  0
   38.3420   29.0430   43.2660 C   0  0  0  0  0  0  0  0  0  0  0  0
   37.1540   28.5800   42.7220 C   0  0  0  0  0  0  0  0  0  0  0  0
   36.2810   27.3340   43.5810 Cl  0  0  0  0  0  0  0  0  0  0  0  0
   36.6420   29.0670   41.5360 C   0  0  0  0  0  0  0  0  0  0  0  0
   39.9630   30.4610   42.9160 H   0  0  0  0  0  0  0  0  0  0  0  0
   38.7490   28.6640   44.1970 H   0  0  0  0  0  0  0  0  0  0  0  0
   35.7100   28.6660   41.1620 H   0  0  0  0  0  0  0  0  0  0  0  0
   41.7270   31.7480   37.9630 C   0  0  0  0  0  0  0  0  0  0  0  0
   42.8970   32.2030   37.4160 C   0  0  0  0  0  0  0  0  0  0  0  0
   43.2880   33.1510   37.7290 H   0  0  0  0  0  0  0  0  0  0  0  0
   43.3300   31.2510   36.5170 C   0  0  0  0  0  0  0  0  0  0  0  0
   44.2300   31.3510   35.9400 H   0  0  0  0  0  0  0  0  0  0  0  0
   42.3910   30.2410   36.5550 C   0  0  0  0  0  0  0  0  0  0  0  0
   42.4340   29.3230   35.9530 H   0  0  0  0  0  0  0  0  0  0  0  0
   41.4420   30.5660   37.4290 O   0  0  0  0  0  0  0  0  0  0  0  0
  1  7  1  0  0  0  0
  1  2  1  0  0  0  0
  2  8  1  0  0  0  0
  3  2  2  0  0  0  0
  3 11  1  0  0  0  0
  4  3  1  0  0  0  0
  5  6  1  0  0  0  0
  5  4  2  0  0  0  0
  6  1  2  0  0  0  0
  9 10  1  0  0  0  0
 10 11  2  0  0  0  0
 10 16  1  0  0  0  0
 11 12  1  0  0  0  0
 12 17  1  0  0  0  0
 12 13  2  0  0  0  0
 13 18  1  0  0  0  0
 14 13  1  0  0  0  0
 14 15  1  0  0  0  0
 16 14  2  0  0  0  0
 19 16  1  0  0  0  0
 20  5  1  0  0  0  0
 21 22  1  0  0  0  0
 21 20  2  0  0  0  0
 23 25  2  0  0  0  0
 23 21  1  0  0  0  0
 24 23  1  0  0  0  0
 25 27  1  0  0  0  0
 26 25  1  0  0  0  0
 27 20  1  0  0  0  0
M  END
>  <minimizedAffinity>
-5.14923859

$$$$

 OpenBabel03242522243D

 27 29  0  0  0  0  0  0  0  0999 V2000
   39.2430   26.9390   43.6800 C   0  0  0  0  0  0  0  0  0  0  0  0
   39.0280   28.2070   43.1250 C   0  0  0  0  0  0  0  0  0  0  0  0
   38.3930   28.3690   41.8870 C   0  0  0  0  0  0  0  0  0  0  0  0
   38.0130   27.2280   41.2790 N   0  0  0  0  0  0  0  0  0  0  0  0
   38.2150   26.0070   41.8000 C   0  0  0  0  0  0  0  0  0  0  0  0
   38.8240   25.8680   42.9890 N   0  0  0  0  0  0  0  0  0  0  0  0
   39.7430   26.8550   44.6490 H   0  0  0  0  0  0  0  0  0  0  0  0
   39.3580   29.0560   43.6700 H   0  0  0  0  0  0  0  0  0  0  0  0
   35.6000   28.7970   41.1200 Cl  0  0  0  0  0  0  0  0  0  0  0  0
   36.8770   29.9870   40.9040 C   0  0  0  0  0  0  0  0  0  0  0  0
   38.1630   29.6860   41.3000 C   0  0  0  0  0  0  0  0  0  0  0  0
   39.1500   30.6400   41.1210 C   0  0  0  0  0  0  0  0  0  0  0  0
   38.8500   31.8650   40.5570 C   0  0  0  0  0  0  0  0  0  0  0  0
   37.5420   32.1180   40.1760 C   0  0  0  0  0  0  0  0  0  0  0  0
   37.1730   33.6710   39.4640 Cl  0  0  0  0  0  0  0  0  0  0  0  0
   36.5300   31.1940   40.3390 C   0  0  0  0  0  0  0  0  0  0  0  0
   40.1220   30.3350   41.4510 H   0  0  0  0  0  0  0  0  0  0  0  0
   39.6490   32.5880   40.4310 H   0  0  0  0  0  0  0  0  0  0  0  0
   35.5280   31.4500   40.0220 H   0  0  0  0  0  0  0  0  0  0  0  0
   37.7330   24.8870   40.9940 C   0  0  0  0  0  0  0  0  0  0  0  0
   36.6260   24.6300   40.2320 C   0  0  0  0  0  0  0  0  0  0  0  0
   35.8650   25.3810   40.1440 H   0  0  0  0  0  0  0  0  0  0  0  0
   36.7650   23.3580   39.7150 C   0  0  0  0  0  0  0  0  0  0  0  0
   36.0340   22.8980   39.0770 H   0  0  0  0  0  0  0  0  0  0  0  0
   37.9700   22.8870   40.1930 C   0  0  0  0  0  0  0  0  0  0  0  0
   38.3870   21.8950   39.9710 H   0  0  0  0  0  0  0  0  0  0  0  0
   38.5280   23.8230   40.9570 O   0  0  0  0  0  0  0  0  0  0  0  0
  1  7  1  0  0  0  0
  2  8  1  0  0  0  0
  2  1  1  0  0  0  0
  3  2  2  0  0  0  0
  4  5  2  0  0  0  0
  4  3  1  0  0  0  0
  5  6  1  0  0  0  0
  6  1  2  0  0  0  0
 10  9  1  0  0  0  0
 10 11  1  0  0  0  0
 11  3  1  0  0  0  0
 12 11  2  0  0  0  0
 12 17  1  0  0  0  0
 13 12  1  0  0  0  0
 14 16  1  0  0  0  0
 14 13  2  0  0  0  0
 15 14  1  0  0  0  0
 16 10  2  0  0  0  0
 18 13  1  0  0  0  0
 19 16  1  0  0  0  0
 20  5  1  0  0  0  0
 21 20  2  0  0  0  0
 22 21  1  0  0  0  0
 23 25  2  0  0  0  0
 23 21  1  0  0  0  0
 24 23  1  0  0  0  0
 25 27  1  0  0  0  0
 26 25  1  0  0  0  0
 27 20  1  0  0  0  0
M  END
>  <minimizedAffinity>
-5.07703352

$$$$

 OpenBabel03242522243D

 27 29  0  0  0  0  0  0  0  0999 V2000
   37.2780   32.6890   39.9720 C   0  0  0  0  0  0  0  0  0  0  0  0
   37.0070   31.3860   40.4110 C   0  0  0  0  0  0  0  0  0  0  0  0
   37.8730   30.3220   40.1310 C   0  0  0  0  0  0  0  0  0  0  0  0
   38.9690   30.6410   39.4160 N   0  0  0  0  0  0  0  0  0  0  0  0
   39.2390   31.8860   38.9890 C   0  0  0  0  0  0  0  0  0  0  0  0
   38.3990   32.8960   39.2660 N   0  0  0  0  0  0  0  0  0  0  0  0
   36.5760   33.4930   40.2120 H   0  0  0  0  0  0  0  0  0  0  0  0
   36.1190   31.2190   40.9710 H   0  0  0  0  0  0  0  0  0  0  0  0
   38.8780   29.8040   42.8320 Cl  0  0  0  0  0  0  0  0  0  0  0  0
   38.0340   28.6150   41.8470 C   0  0  0  0  0  0  0  0  0  0  0  0
   37.6000   28.9610   40.5850 C   0  0  0  0  0  0  0  0  0  0  0  0
   36.9370   28.0080   39.8300 C   0  0  0  0  0  0  0  0  0  0  0  0
   36.7180   26.7400   40.3330 C   0  0  0  0  0  0  0  0  0  0  0  0
   37.1740   26.4430   41.6080 C   0  0  0  0  0  0  0  0  0  0  0  0
   36.8910   24.8360   42.2340 Cl  0  0  0  0  0  0  0  0  0  0  0  0
   37.8380   27.3650   42.3910 C   0  0  0  0  0  0  0  0  0  0  0  0
   36.6310   28.3490   38.8620 H   0  0  0  0  0  0  0  0  0  0  0  0
   36.1960   26.0190   39.7130 H   0  0  0  0  0  0  0  0  0  0  0  0
   38.1700   27.0740   43.3780 H   0  0  0  0  0  0  0  0  0  0  0  0
   40.4770   32.0390   38.2270 C   0  0  0  0  0  0  0  0  0  0  0  0
   41.3030   31.2100   37.5180 C   0  0  0  0  0  0  0  0  0  0  0  0
   41.0640   30.1660   37.4490 H   0  0  0  0  0  0  0  0  0  0  0  0
   42.3340   31.9790   37.0200 C   0  0  0  0  0  0  0  0  0  0  0  0
   43.1320   31.5800   36.4230 H   0  0  0  0  0  0  0  0  0  0  0  0
   42.0880   33.2650   37.4540 C   0  0  0  0  0  0  0  0  0  0  0  0
   42.7240   34.1330   37.2320 H   0  0  0  0  0  0  0  0  0  0  0  0
   40.9690   33.2720   38.1740 O   0  0  0  0  0  0  0  0  0  0  0  0
  1  7  1  0  0  0  0
  1  2  1  0  0  0  0
  2  8  1  0  0  0  0
  3  2  2  0  0  0  0
  3 11  1  0  0  0  0
  4  3  1  0  0  0  0
  5  6  1  0  0  0  0
  5  4  2  0  0  0  0
  6  1  2  0  0  0  0
 10 16  1  0  0  0  0
 10  9  1  0  0  0  0
 11 10  2  0  0  0  0
 12 13  2  0  0  0  0
 12 11  1  0  0  0  0
 13 14  1  0  0  0  0
 14 15  1  0  0  0  0
 14 16  2  0  0  0  0
 16 19  1  0  0  0  0
 17 12  1  0  0  0  0
 18 13  1  0  0  0  0
 20  5  1  0  0  0  0
 21 20  2  0  0  0  0
 22 21  1  0  0  0  0
 23 25  2  0  0  0  0
 23 21  1  0  0  0  0
 24 23  1  0  0  0  0
 25 27  1  0  0  0  0
 26 25  1  0  0  0  0
 27 20  1  0  0  0  0
M  END
>  <minimizedAffinity>
-5.00290966

$$$$

 OpenBabel03242522243D

 27 29  0  0  0  0  0  0  0  0999 V2000
   37.3160   32.9630   39.8370 C   0  0  0  0  0  0  0  0  0  0  0  0
   37.0330   31.6540   40.2490 C   0  0  0  0  0  0  0  0  0  0  0  0
   38.0120   30.8380   40.8280 C   0  0  0  0  0  0  0  0  0  0  0  0
   39.2300   31.3990   40.9550 N   0  0  0  0  0  0  0  0  0  0  0  0
   39.5140   32.6520   40.5640 C   0  0  0  0  0  0  0  0  0  0  0  0
   38.5640   33.4230   40.0110 N   0  0  0  0  0  0  0  0  0  0  0  0
   36.5230   33.5680   39.3890 H   0  0  0  0  0  0  0  0  0  0  0  0
   36.0450   31.2880   40.1130 H   0  0  0  0  0  0  0  0  0  0  0  0
   38.3900   28.8700   38.6930 Cl  0  0  0  0  0  0  0  0  0  0  0  0
   37.8750   28.4680   40.3270 C   0  0  0  0  0  0  0  0  0  0  0  0
   37.7270   29.4730   41.2600 C   0  0  0  0  0  0  0  0  0  0  0  0
   37.3220   29.1310   42.5390 C   0  0  0  0  0  0  0  0  0  0  0  0
   37.0720   27.8130   42.8690 C   0  0  0  0  0  0  0  0  0  0  0  0
   37.2360   26.8410   41.8940 C   0  0  0  0  0  0  0  0  0  0  0  0
   36.9170   25.1770   42.3230 Cl  0  0  0  0  0  0  0  0  0  0  0  0
   37.6380   27.1410   40.6090 C   0  0  0  0  0  0  0  0  0  0  0  0
   37.2290   29.9620   43.2070 H   0  0  0  0  0  0  0  0  0  0  0  0
   36.7560   27.5820   43.8810 H   0  0  0  0  0  0  0  0  0  0  0  0
   37.7490   26.3390   39.8920 H   0  0  0  0  0  0  0  0  0  0  0  0
   40.8930   33.0870   40.7830 C   0  0  0  0  0  0  0  0  0  0  0  0
   41.6550   34.1610   40.4090 C   0  0  0  0  0  0  0  0  0  0  0  0
   41.2160   34.9280   39.8010 H   0  0  0  0  0  0  0  0  0  0  0  0
   42.9110   33.9850   40.9500 C   0  0  0  0  0  0  0  0  0  0  0  0
   43.7150   34.6840   40.8130 H   0  0  0  0  0  0  0  0  0  0  0  0
   42.8610   32.7920   41.6410 C   0  0  0  0  0  0  0  0  0  0  0  0
   43.7020   32.3520   42.1930 H   0  0  0  0  0  0  0  0  0  0  0  0
   41.6400   32.2760   41.5240 O   0  0  0  0  0  0  0  0  0  0  0  0
  1  6  2  0  0  0  0
  1  2  1  0  0  0  0
  2  3  2  0  0  0  0
  3  4  1  0  0  0  0
  3 11  1  0  0  0  0
  5 20  1  0  0  0  0
  5  4  2  0  0  0  0
  6  5  1  0  0  0  0
  7  1  1  0  0  0  0
  8  2  1  0  0  0  0
  9 10  1  0  0  0  0
 10 16  2  0  0  0  0
 10 11  1  0  0  0  0
 11 12  2  0  0  0  0
 12 13  1  0  0  0  0
 12 17  1  0  0  0  0
 13 18  1  0  0  0  0
 14 15  1  0  0  0  0
 14 13  2  0  0  0  0
 16 14  1  0  0  0  0
 19 16  1  0  0  0  0
 20 27  1  0  0  0  0
 21 20  2  0  0  0  0
 21 23  1  0  0  0  0
 22 21  1  0  0  0  0
 23 25  2  0  0  0  0
 24 23  1  0  0  0  0
 25 26  1  0  0  0  0
 27 25  1  0  0  0  0
M  END
>  <minimizedAffinity>
-4.97114468

$$$$

 OpenBabel03242522243D

 27 29  0  0  0  0  0  0  0  0999 V2000
   40.7340   30.0110   42.7900 C   0  0  0  0  0  0  0  0  0  0  0  0
   40.1940   28.7500   42.5080 C   0  0  0  0  0  0  0  0  0  0  0  0
   39.1090   28.5930   41.6360 C   0  0  0  0  0  0  0  0  0  0  0  0
   38.6310   29.7320   41.0990 N   0  0  0  0  0  0  0  0  0  0  0  0
   39.1400   30.9470   41.3620 C   0  0  0  0  0  0  0  0  0  0  0  0
   40.1810   31.0810   42.1990 N   0  0  0  0  0  0  0  0  0  0  0  0
   41.5820   30.0900   43.4770 H   0  0  0  0  0  0  0  0  0  0  0  0
   40.6300   27.9010   42.9740 H   0  0  0  0  0  0  0  0  0  0  0  0
   37.0660   27.7760   43.5670 Cl  0  0  0  0  0  0  0  0  0  0  0  0
   37.5650   26.8060   42.1880 C   0  0  0  0  0  0  0  0  0  0  0  0
   38.5390   27.2840   41.3360 C   0  0  0  0  0  0  0  0  0  0  0  0
   38.9140   26.5010   40.2570 C   0  0  0  0  0  0  0  0  0  0  0  0
   38.3240   25.2700   40.0410 C   0  0  0  0  0  0  0  0  0  0  0  0
   37.3500   24.8370   40.9270 C   0  0  0  0  0  0  0  0  0  0  0  0
   36.6110   23.2780   40.6450 Cl  0  0  0  0  0  0  0  0  0  0  0  0
   36.9490   25.5870   42.0140 C   0  0  0  0  0  0  0  0  0  0  0  0
   39.6740   26.9370   39.6410 H   0  0  0  0  0  0  0  0  0  0  0  0
   38.6430   24.6850   39.1860 H   0  0  0  0  0  0  0  0  0  0  0  0
   36.1840   25.1940   42.6700 H   0  0  0  0  0  0  0  0  0  0  0  0
   38.4900   32.0670   40.6840 C   0  0  0  0  0  0  0  0  0  0  0  0
   37.3580   32.2370   39.9330 C   0  0  0  0  0  0  0  0  0  0  0  0
   36.7250   31.3930   39.7400 H   0  0  0  0  0  0  0  0  0  0  0  0
   37.2950   33.5680   39.5740 C   0  0  0  0  0  0  0  0  0  0  0  0
   36.5040   33.9810   38.9770 H   0  0  0  0  0  0  0  0  0  0  0  0
   38.4100   34.1610   40.1290 C   0  0  0  0  0  0  0  0  0  0  0  0
   38.6680   35.2240   40.0330 H   0  0  0  0  0  0  0  0  0  0  0  0
   39.1080   33.2390   40.7880 O   0  0  0  0  0  0  0  0  0  0  0  0
  1  7  1  0  0  0  0
  2  1  1  0  0  0  0
  2  8  1  0  0  0  0
  3  2  2  0  0  0  0
  4  5  2  0  0  0  0
  4  3  1  0  0  0  0
  5  6  1  0  0  0  0
  6  1  2  0  0  0  0
 10  9  1  0  0  0  0
 11  3  1  0  0  0  0
 11 10  2  0  0  0  0
 12 11  1  0  0  0  0
 13 12  2  0  0  0  0
 13 14  1  0  0  0  0
 14 16  2  0  0  0  0
 15 14  1  0  0  0  0
 16 10  1  0  0  0  0
 16 19  1  0  0  0  0
 17 12  1  0  0  0  0
 18 13  1  0  0  0  0
 20 27  1  0  0  0  0
 20  5  1  0  0  0  0
 21 20  2  0  0  0  0
 22 21  1  0  0  0  0
 23 21  1  0  0  0  0
 23 25  2  0  0  0  0
 24 23  1  0  0  0  0
 25 27  1  0  0  0  0
 26 25  1  0  0  0  0
M  END
>  <minimizedAffinity>
-4.93712854

$$$$

 OpenBabel03242522243D

 27 29  0  0  0  0  0  0  0  0999 V2000
   37.3690   28.0070   43.5200 C   0  0  0  0  0  0  0  0  0  0  0  0
   36.5270   27.8530   42.4110 C   0  0  0  0  0  0  0  0  0  0  0  0
   36.7550   28.5420   41.2140 C   0  0  0  0  0  0  0  0  0  0  0  0
   37.8300   29.3540   41.2110 N   0  0  0  0  0  0  0  0  0  0  0  0
   38.6440   29.5110   42.2670 C   0  0  0  0  0  0  0  0  0  0  0  0
   38.4120   28.8430   43.4090 N   0  0  0  0  0  0  0  0  0  0  0  0
   37.1550   27.4510   44.4370 H   0  0  0  0  0  0  0  0  0  0  0  0
   35.7000   27.1910   42.4970 H   0  0  0  0  0  0  0  0  0  0  0  0
   37.5950   26.3620   39.4490 Cl  0  0  0  0  0  0  0  0  0  0  0  0
   36.1940   27.3850   39.1560 C   0  0  0  0  0  0  0  0  0  0  0  0
   35.8840   28.3870   40.0530 C   0  0  0  0  0  0  0  0  0  0  0  0
   34.7760   29.1780   39.8010 C   0  0  0  0  0  0  0  0  0  0  0  0
   34.0010   28.9670   38.6760 C   0  0  0  0  0  0  0  0  0  0  0  0
   34.3560   27.9470   37.8080 C   0  0  0  0  0  0  0  0  0  0  0  0
   33.3690   27.6880   36.3890 Cl  0  0  0  0  0  0  0  0  0  0  0  0
   35.4520   27.1360   38.0230 C   0  0  0  0  0  0  0  0  0  0  0  0
   34.5990   29.9330   40.5380 H   0  0  0  0  0  0  0  0  0  0  0  0
   33.1410   29.6060   38.5110 H   0  0  0  0  0  0  0  0  0  0  0  0
   35.6790   26.3570   37.3090 H   0  0  0  0  0  0  0  0  0  0  0  0
   39.7600   30.4360   42.0760 C   0  0  0  0  0  0  0  0  0  0  0  0
   40.9860   30.6280   42.6520 C   0  0  0  0  0  0  0  0  0  0  0  0
   41.2940   29.9860   43.4550 H   0  0  0  0  0  0  0  0  0  0  0  0
   41.5850   31.6900   42.0080 C   0  0  0  0  0  0  0  0  0  0  0  0
   42.5610   32.0600   42.2610 H   0  0  0  0  0  0  0  0  0  0  0  0
   40.6830   32.1090   41.0520 C   0  0  0  0  0  0  0  0  0  0  0  0
   40.8470   32.9440   40.3580 H   0  0  0  0  0  0  0  0  0  0  0  0
   39.5980   31.3390   41.1150 O   0  0  0  0  0  0  0  0  0  0  0  0
  1  7  1  0  0  0  0
  2  8  1  0  0  0  0
  2  1  2  0  0  0  0
  3  2  1  0  0  0  0
  4  3  2  0  0  0  0
  4  5  1  0  0  0  0
  5  6  2  0  0  0  0
  6  1  1  0  0  0  0
 10  9  1  0  0  0  0
 10 11  1  0  0  0  0
 11  3  1  0  0  0  0
 12 11  2  0  0  0  0
 12 17  1  0  0  0  0
 13 12  1  0  0  0  0
 14 16  1  0  0  0  0
 14 13  2  0  0  0  0
 15 14  1  0  0  0  0
 16 10  2  0  0  0  0
 18 13  1  0  0  0  0
 19 16  1  0  0  0  0
 20  5  1  0  0  0  0
 20 21  2  0  0  0  0
 21 22  1  0  0  0  0
 23 24  1  0  0  0  0
 23 21  1  0  0  0  0
 25 27  1  0  0  0  0
 25 23  2  0  0  0  0
 26 25  1  0  0  0  0
 27 20  1  0  0  0  0
M  END
>  <minimizedAffinity>
-4.80298328

$$$$

 OpenBabel03242522243D

 27 29  0  0  0  0  0  0  0  0999 V2000
   36.9410   32.3140   39.7400 C   0  0  0  0  0  0  0  0  0  0  0  0
   38.2600   32.7300   39.5110 C   0  0  0  0  0  0  0  0  0  0  0  0
   39.3460   32.1030   40.1340 C   0  0  0  0  0  0  0  0  0  0  0  0
   39.0300   31.0850   40.9580 N   0  0  0  0  0  0  0  0  0  0  0  0
   37.7710   30.6780   41.1860 C   0  0  0  0  0  0  0  0  0  0  0  0
   36.7400   31.2890   40.5800 N   0  0  0  0  0  0  0  0  0  0  0  0
   36.1210   32.8310   39.2330 H   0  0  0  0  0  0  0  0  0  0  0  0
   38.4220   33.5420   38.8450 H   0  0  0  0  0  0  0  0  0  0  0  0
   40.6500   30.6020   37.9850 Cl  0  0  0  0  0  0  0  0  0  0  0  0
   41.4270   31.8820   38.9080 C   0  0  0  0  0  0  0  0  0  0  0  0
   40.7230   32.5280   39.9030 C   0  0  0  0  0  0  0  0  0  0  0  0
   41.3570   33.5320   40.6150 C   0  0  0  0  0  0  0  0  0  0  0  0
   42.6650   33.8760   40.3340 C   0  0  0  0  0  0  0  0  0  0  0  0
   43.3280   33.1960   39.3240 C   0  0  0  0  0  0  0  0  0  0  0  0
   44.9830   33.6380   38.9770 Cl  0  0  0  0  0  0  0  0  0  0  0  0
   42.7310   32.1900   38.5920 C   0  0  0  0  0  0  0  0  0  0  0  0
   40.7490   33.9870   41.3690 H   0  0  0  0  0  0  0  0  0  0  0  0
   43.1300   34.6670   40.9120 H   0  0  0  0  0  0  0  0  0  0  0  0
   43.3010   31.6950   37.8160 H   0  0  0  0  0  0  0  0  0  0  0  0
   37.6250   29.5560   42.1120 C   0  0  0  0  0  0  0  0  0  0  0  0
   38.2450   29.1440   43.2610 C   0  0  0  0  0  0  0  0  0  0  0  0
   39.0530   29.7270   43.6580 H   0  0  0  0  0  0  0  0  0  0  0  0
   37.6300   27.9790   43.6680 C   0  0  0  0  0  0  0  0  0  0  0  0
   37.9190   27.4350   44.5470 H   0  0  0  0  0  0  0  0  0  0  0  0
   36.6450   27.7260   42.7350 C   0  0  0  0  0  0  0  0  0  0  0  0
   35.9630   26.8650   42.7600 H   0  0  0  0  0  0  0  0  0  0  0  0
   36.6650   28.6870   41.8140 O   0  0  0  0  0  0  0  0  0  0  0  0
  1  6  1  0  0  0  0
  2  1  2  0  0  0  0
  2  3  1  0  0  0  0
  3  4  2  0  0  0  0
  4  5  1  0  0  0  0
  5 20  1  0  0  0  0
  6  5  2  0  0  0  0
  7  1  1  0  0  0  0
  8  2  1  0  0  0  0
  9 10  1  0  0  0  0
 10 11  1  0  0  0  0
 11  3  1  0  0  0  0
 11 12  2  0  0  0  0
 12 17  1  0  0  0  0
 13 12  1  0  0  0  0
 13 18  1  0  0  0  0
 14 13  2  0  0  0  0
 15 14  1  0  0  0  0
 16 10  2  0  0  0  0
 16 14  1  0  0  0  0
 19 16  1  0  0  0  0
 20 21  2  0  0  0  0
 21 22  1  0  0  0  0
 21 23  1  0  0  0  0
 23 24  1  0  0  0  0
 25 26  1  0  0  0  0
 25 23  2  0  0  0  0
 27 20  1  0  0  0  0
 27 25  1  0  0  0  0
M  END
>  <minimizedAffinity>
-4.7355175

$$$$

 OpenBabel03242522243D

 27 29  0  0  0  0  0  0  0  0999 V2000
   36.9660   32.2890   40.2070 C   0  0  0  0  0  0  0  0  0  0  0  0
   36.7050   30.9300   40.4240 C   0  0  0  0  0  0  0  0  0  0  0  0
   37.7380   29.9880   40.5040 C   0  0  0  0  0  0  0  0  0  0  0  0
   38.9830   30.4810   40.3570 N   0  0  0  0  0  0  0  0  0  0  0  0
   39.2450   31.7810   40.1480 C   0  0  0  0  0  0  0  0  0  0  0  0
   38.2440   32.6730   40.0740 N   0  0  0  0  0  0  0  0  0  0  0  0
   36.1300   32.9930   40.1510 H   0  0  0  0  0  0  0  0  0  0  0  0
   35.6930   30.6230   40.5300 H   0  0  0  0  0  0  0  0  0  0  0  0
   38.0360   29.2140   43.3120 Cl  0  0  0  0  0  0  0  0  0  0  0  0
   37.5910   28.1020   42.0230 C   0  0  0  0  0  0  0  0  0  0  0  0
   37.4770   28.5700   40.7300 C   0  0  0  0  0  0  0  0  0  0  0  0
   37.1240   27.6750   39.7340 C   0  0  0  0  0  0  0  0  0  0  0  0
   36.8940   26.3450   40.0310 C   0  0  0  0  0  0  0  0  0  0  0  0
   37.0210   25.9270   41.3470 C   0  0  0  0  0  0  0  0  0  0  0  0
   36.7270   24.2440   41.7120 Cl  0  0  0  0  0  0  0  0  0  0  0  0
   37.3700   26.7880   42.3680 C   0  0  0  0  0  0  0  0  0  0  0  0
   37.0560   28.1090   38.7580 H   0  0  0  0  0  0  0  0  0  0  0  0
   36.6200   25.6730   39.2260 H   0  0  0  0  0  0  0  0  0  0  0  0
   37.4550   26.4020   43.3750 H   0  0  0  0  0  0  0  0  0  0  0  0
   40.6590   32.1290   40.0130 C   0  0  0  0  0  0  0  0  0  0  0  0
   41.5530   32.8940   40.7110 C   0  0  0  0  0  0  0  0  0  0  0  0
   41.2260   33.4060   41.5950 H   0  0  0  0  0  0  0  0  0  0  0  0
   42.7640   32.8170   40.0560 C   0  0  0  0  0  0  0  0  0  0  0  0
   43.6490   33.3260   40.3900 H   0  0  0  0  0  0  0  0  0  0  0  0
   42.5530   31.9960   38.9680 C   0  0  0  0  0  0  0  0  0  0  0  0
   43.3200   31.7230   38.2300 H   0  0  0  0  0  0  0  0  0  0  0  0
   41.2830   31.5980   38.9670 O   0  0  0  0  0  0  0  0  0  0  0  0
  1  2  1  0  0  0  0
  2  3  2  0  0  0  0
  2  8  1  0  0  0  0
  3 11  1  0  0  0  0
  4  3  1  0  0  0  0
  5  4  2  0  0  0  0
  6  5  1  0  0  0  0
  6  1  2  0  0  0  0
  7  1  1  0  0  0  0
 10 16  1  0  0  0  0
 10  9  1  0  0  0  0
 11 10  2  0  0  0  0
 12 13  2  0  0  0  0
 12 11  1  0  0  0  0
 13 14  1  0  0  0  0
 14 15  1  0  0  0  0
 14 16  2  0  0  0  0
 16 19  1  0  0  0  0
 17 12  1  0  0  0  0
 18 13  1  0  0  0  0
 20  5  1  0  0  0  0
 20 21  2  0  0  0  0
 21 22  1  0  0  0  0
 23 24  1  0  0  0  0
 23 21  1  0  0  0  0
 25 23  2  0  0  0  0
 26 25  1  0  0  0  0
 27 25  1  0  0  0  0
 27 20  1  0  0  0  0
M  END
>  <minimizedAffinity>
-4.64349937

$$$$

 OpenBabel03242522243D

 27 29  0  0  0  0  0  0  0  0999 V2000
   35.8860   29.9450   40.8980 C   0  0  0  0  0  0  0  0  0  0  0  0
   35.9640   28.5490   40.8110 C   0  0  0  0  0  0  0  0  0  0  0  0
   37.1750   27.8690   40.9890 C   0  0  0  0  0  0  0  0  0  0  0  0
   38.2440   28.6480   41.2430 N   0  0  0  0  0  0  0  0  0  0  0  0
   38.1820   29.9870   41.3280 C   0  0  0  0  0  0  0  0  0  0  0  0
   37.0130   30.6250   41.1560 N   0  0  0  0  0  0  0  0  0  0  0  0
   34.9210   30.4380   40.7530 H   0  0  0  0  0  0  0  0  0  0  0  0
   35.0730   28.0080   40.6080 H   0  0  0  0  0  0  0  0  0  0  0  0
   37.6400   26.9240   38.2560 Cl  0  0  0  0  0  0  0  0  0  0  0  0
   37.4860   25.8670   39.6540 C   0  0  0  0  0  0  0  0  0  0  0  0
   37.2670   26.4140   40.9010 C   0  0  0  0  0  0  0  0  0  0  0  0
   37.1510   25.5610   41.9850 C   0  0  0  0  0  0  0  0  0  0  0  0
   37.2500   24.1930   41.8180 C   0  0  0  0  0  0  0  0  0  0  0  0
   37.4700   23.6940   40.5440 C   0  0  0  0  0  0  0  0  0  0  0  0
   37.5950   21.9620   40.3440 Cl  0  0  0  0  0  0  0  0  0  0  0  0
   37.5930   24.5110   39.4380 C   0  0  0  0  0  0  0  0  0  0  0  0
   36.9830   26.0570   42.9190 H   0  0  0  0  0  0  0  0  0  0  0  0
   37.1540   23.5550   42.6900 H   0  0  0  0  0  0  0  0  0  0  0  0
   37.7630   24.0620   38.4690 H   0  0  0  0  0  0  0  0  0  0  0  0
   39.4460   30.6640   41.6110 C   0  0  0  0  0  0  0  0  0  0  0  0
   40.4630   30.5080   42.5150 C   0  0  0  0  0  0  0  0  0  0  0  0
   40.4050   29.7160   43.2360 H   0  0  0  0  0  0  0  0  0  0  0  0
   41.3980   31.4890   42.2600 C   0  0  0  0  0  0  0  0  0  0  0  0
   42.3040   31.6010   42.8250 H   0  0  0  0  0  0  0  0  0  0  0  0
   40.9030   32.2140   41.1960 C   0  0  0  0  0  0  0  0  0  0  0  0
   41.4060   33.0760   40.7370 H   0  0  0  0  0  0  0  0  0  0  0  0
   39.7330   31.6970   40.8280 O   0  0  0  0  0  0  0  0  0  0  0  0
  1  6  1  0  0  0  0
  2  1  2  0  0  0  0
  2  3  1  0  0  0  0
  3  4  2  0  0  0  0
  4  5  1  0  0  0  0
  5 20  1  0  0  0  0
  6  5  2  0  0  0  0
  7  1  1  0  0  0  0
  8  2  1  0  0  0  0
  9 10  1  0  0  0  0
 10 11  1  0  0  0  0
 11  3  1  0  0  0  0
 11 12  2  0  0  0  0
 12 17  1  0  0  0  0
 13 12  1  0  0  0  0
 13 18  1  0  0  0  0
 14 13  2  0  0  0  0
 15 14  1  0  0  0  0
 16 10  2  0  0  0  0
 16 14  1  0  0  0  0
 19 16  1  0  0  0  0
 20 21  2  0  0  0  0
 21 22  1  0  0  0  0
 23 21  1  0  0  0  0
 23 24  1  0  0  0  0
 25 23  2  0  0  0  0
 26 25  1  0  0  0  0
 27 25  1  0  0  0  0
 27 20  1  0  0  0  0
M  END
>  <minimizedAffinity>
-4.58645344

$$$$
