
 OpenBabel03242519403D

 26 27  0  0  0  0  0  0  0  0999 V2000
   37.7270   29.1290   40.0600 O   0  0  0  0  0  0  0  0  0  0  0  0
   36.7930   29.6840   41.1280 P   0  0  2  0  0  0  0  0  0  0  0  0
   36.6950   31.3930   40.9390 O   0  0  0  0  0  0  0  0  0  0  0  0
   38.9780   34.0080   39.7570 C   0  0  0  0  0  0  0  0  0  0  0  0
   37.7790   33.2810   39.9640 C   0  0  0  0  0  0  0  0  0  0  0  0
   37.8630   32.1200   40.7250 C   0  0  0  0  0  0  0  0  0  0  0  0
   39.0730   31.7380   41.2320 N   0  0  0  0  0  0  0  0  0  0  0  0
   40.1810   32.4660   41.0060 C   0  0  0  0  0  0  0  0  0  0  0  0
   40.1510   33.5920   40.2780 N   0  0  0  0  0  0  0  0  0  0  0  0
   38.9510   34.9240   39.1640 H   0  0  0  0  0  0  0  0  0  0  0  0
   36.8670   33.6650   39.5200 H   0  0  0  0  0  0  0  0  0  0  0  0
   41.1010   32.0900   41.4450 H   0  0  0  0  0  0  0  0  0  0  0  0
   37.3050   29.3490   42.6840 O   0  0  0  0  0  0  0  0  0  0  0  0
   38.3080   28.4570   43.0320 C   0  0  0  0  0  0  0  0  0  0  0  0
   38.3060   27.1830   43.5620 C   0  0  0  0  0  0  0  0  0  0  0  0
   37.3880   26.6710   43.7980 H   0  0  0  0  0  0  0  0  0  0  0  0
   39.6540   26.8330   43.6760 C   0  0  0  0  0  0  0  0  0  0  0  0
   39.9650   25.8760   44.0670 H   0  0  0  0  0  0  0  0  0  0  0  0
   40.3560   27.9190   43.2060 C   0  0  0  0  0  0  0  0  0  0  0  0
   41.4410   27.9490   43.1680 H   0  0  0  0  0  0  0  0  0  0  0  0
   39.5520   28.8820   42.8240 O   0  0  0  0  0  0  0  0  0  0  0  0
   35.2540   29.0570   40.8320 O   0  0  0  0  0  0  0  0  0  0  0  0
   34.9540   29.0160   39.4860 C   0  0  0  0  0  0  0  0  0  0  0  0
   35.5050   30.0740   38.7810 F   0  0  0  0  0  0  0  0  0  0  0  0
   35.2770   27.7900   38.9660 F   0  0  0  0  0  0  0  0  0  0  0  0
   33.5670   29.1710   39.3920 F   0  0  0  0  0  0  0  0  0  0  0  0
  2  1  2  6  0  0  0
  2 13  1  0  0  0  0
  3  2  1  0  0  0  0
  4  5  2  0  0  0  0
  4  9  1  0  0  0  0
  5  6  1  0  0  0  0
  6  3  1  0  0  0  0
  6  7  2  0  0  0  0
  8  7  1  0  0  0  0
  8 12  1  0  0  0  0
  9  8  2  0  0  0  0
 10  4  1  0  0  0  0
 11  5  1  0  0  0  0
 13 14  1  0  0  0  0
 14 15  2  0  0  0  0
 15 17  1  0  0  0  0
 15 16  1  0  0  0  0
 17 18  1  0  0  0  0
 19 17  2  0  0  0  0
 20 19  1  0  0  0  0
 21 14  1  0  0  0  0
 21 19  1  0  0  0  0
 22  2  1  0  0  0  0
 23 22  1  0  0  0  0
 24 23  1  0  0  0  0
 25 23  1  0  0  0  0
 26 23  1  0  0  0  0
M  END
>  <minimizedAffinity>
-4.84970379

$$$$

 OpenBabel03242519403D

 26 27  0  0  0  0  0  0  0  0999 V2000
   39.3040   31.4910   41.4220 O   0  0  0  0  0  0  0  0  0  0  0  0
   37.9990   30.9670   40.8340 P   0  0  2  0  0  0  0  0  0  0  0  0
   37.1690   30.0730   42.0490 O   0  0  0  0  0  0  0  0  0  0  0  0
   37.2280   26.4080   42.1610 C   0  0  0  0  0  0  0  0  0  0  0  0
   36.7970   27.7240   41.8600 C   0  0  0  0  0  0  0  0  0  0  0  0
   37.5770   28.7730   42.3340 C   0  0  0  0  0  0  0  0  0  0  0  0
   38.7050   28.4960   43.0550 N   0  0  0  0  0  0  0  0  0  0  0  0
   39.0690   27.2270   43.3110 C   0  0  0  0  0  0  0  0  0  0  0  0
   38.3490   26.1830   42.8760 N   0  0  0  0  0  0  0  0  0  0  0  0
   36.6410   25.5600   41.8060 H   0  0  0  0  0  0  0  0  0  0  0  0
   35.8870   27.8420   41.2810 H   0  0  0  0  0  0  0  0  0  0  0  0
   39.9790   27.0970   43.8910 H   0  0  0  0  0  0  0  0  0  0  0  0
   38.2310   29.9740   39.5080 O   0  0  0  0  0  0  0  0  0  0  0  0
   37.3100   29.7450   38.4970 C   0  0  0  0  0  0  0  0  0  0  0  0
   35.9960   29.3250   38.4850 C   0  0  0  0  0  0  0  0  0  0  0  0
   35.4680   29.0960   39.3960 H   0  0  0  0  0  0  0  0  0  0  0  0
   35.6350   29.2970   37.1360 C   0  0  0  0  0  0  0  0  0  0  0  0
   34.6480   29.0020   36.8140 H   0  0  0  0  0  0  0  0  0  0  0  0
   36.7550   29.7010   36.4470 C   0  0  0  0  0  0  0  0  0  0  0  0
   36.7860   29.7810   35.3650 H   0  0  0  0  0  0  0  0  0  0  0  0
   37.7500   29.9670   37.2610 O   0  0  0  0  0  0  0  0  0  0  0  0
   37.0430   32.3030   40.4500 O   0  0  0  0  0  0  0  0  0  0  0  0
   37.7680   33.3130   39.8530 C   0  0  0  0  0  0  0  0  0  0  0  0
   38.4570   34.0920   40.7690 F   0  0  0  0  0  0  0  0  0  0  0  0
   38.5690   32.8010   38.8660 F   0  0  0  0  0  0  0  0  0  0  0  0
   36.8320   34.1610   39.2520 F   0  0  0  0  0  0  0  0  0  0  0  0
  2  1  2  1  0  0  0
  2  3  1  0  0  0  0
  3  6  1  0  0  0  0
  4  9  1  0  0  0  0
  5  4  2  0  0  0  0
  5  6  1  0  0  0  0
  6  7  2  0  0  0  0
  7  8  1  0  0  0  0
  8 12  1  0  0  0  0
  9  8  2  0  0  0  0
 10  4  1  0  0  0  0
 11  5  1  0  0  0  0
 13  2  1  0  0  0  0
 14 13  1  0  0  0  0
 15 14  2  0  0  0  0
 15 16  1  0  0  0  0
 17 15  1  0  0  0  0
 18 17  1  0  0  0  0
 19 17  2  0  0  0  0
 19 21  1  0  0  0  0
 20 19  1  0  0  0  0
 21 14  1  0  0  0  0
 22  2  1  0  0  0  0
 23 22  1  0  0  0  0
 23 24  1  0  0  0  0
 25 23  1  0  0  0  0
 26 23  1  0  0  0  0
M  END
>  <minimizedAffinity>
-4.62419939

$$$$

 OpenBabel03242519403D

 26 27  0  0  0  0  0  0  0  0999 V2000
   37.8250   29.2310   38.6400 O   0  0  0  0  0  0  0  0  0  0  0  0
   36.6530   30.1590   38.9320 P   0  0  2  0  0  0  0  0  0  0  0  0
   37.0400   31.7330   38.3510 O   0  0  0  0  0  0  0  0  0  0  0  0
   38.7360   34.1590   40.5170 C   0  0  0  0  0  0  0  0  0  0  0  0
   37.6900   33.4330   39.8940 C   0  0  0  0  0  0  0  0  0  0  0  0
   38.0540   32.4570   38.9730 C   0  0  0  0  0  0  0  0  0  0  0  0
   39.3780   32.2420   38.7130 N   0  0  0  0  0  0  0  0  0  0  0  0
   40.3320   32.9600   39.3340 C   0  0  0  0  0  0  0  0  0  0  0  0
   40.0300   33.9120   40.2290 N   0  0  0  0  0  0  0  0  0  0  0  0
   38.4880   34.9330   41.2450 H   0  0  0  0  0  0  0  0  0  0  0  0
   36.6690   33.6770   40.1660 H   0  0  0  0  0  0  0  0  0  0  0  0
   41.3590   32.7250   39.0680 H   0  0  0  0  0  0  0  0  0  0  0  0
   36.2940   30.2670   40.5620 O   0  0  0  0  0  0  0  0  0  0  0  0
   36.9340   29.5760   41.5790 C   0  0  0  0  0  0  0  0  0  0  0  0
   36.6900   28.3760   42.2140 C   0  0  0  0  0  0  0  0  0  0  0  0
   35.8510   27.7550   41.9460 H   0  0  0  0  0  0  0  0  0  0  0  0
   37.7120   28.2480   43.1570 C   0  0  0  0  0  0  0  0  0  0  0  0
   37.7820   27.3920   43.8120 H   0  0  0  0  0  0  0  0  0  0  0  0
   38.4870   29.3760   43.0160 C   0  0  0  0  0  0  0  0  0  0  0  0
   39.3690   29.5670   43.6190 H   0  0  0  0  0  0  0  0  0  0  0  0
   38.0200   30.1630   42.0750 O   0  0  0  0  0  0  0  0  0  0  0  0
   35.3320   29.6050   38.0400 O   0  0  0  0  0  0  0  0  0  0  0  0
   34.6130   28.6390   38.7130 C   0  0  0  0  0  0  0  0  0  0  0  0
   35.4140   27.6270   39.2160 F   0  0  0  0  0  0  0  0  0  0  0  0
   33.8130   29.2200   39.6620 F   0  0  0  0  0  0  0  0  0  0  0  0
   33.7840   28.0370   37.7610 F   0  0  0  0  0  0  0  0  0  0  0  0
  2  1  2  6  0  0  0
  2 13  1  0  0  0  0
  3  2  1  0  0  0  0
  3  6  1  0  0  0  0
  4 10  1  0  0  0  0
  5 11  1  0  0  0  0
  5  4  2  0  0  0  0
  6  5  1  0  0  0  0
  7  6  2  0  0  0  0
  7  8  1  0  0  0  0
  8  9  2  0  0  0  0
  9  4  1  0  0  0  0
 12  8  1  0  0  0  0
 13 14  1  0  0  0  0
 14 21  1  0  0  0  0
 14 15  2  0  0  0  0
 15 17  1  0  0  0  0
 16 15  1  0  0  0  0
 17 18  1  0  0  0  0
 19 17  2  0  0  0  0
 19 20  1  0  0  0  0
 21 19  1  0  0  0  0
 22 23  1  0  0  0  0
 22  2  1  0  0  0  0
 23 24  1  0  0  0  0
 23 25  1  0  0  0  0
 26 23  1  0  0  0  0
M  END
>  <minimizedAffinity>
-4.62124729

$$$$

 OpenBabel03242519403D

 26 27  0  0  0  0  0  0  0  0999 V2000
   38.6760   29.9780   39.4560 O   0  0  0  0  0  0  0  0  0  0  0  0
   39.2990   31.0540   40.3370 P   0  0  2  0  0  0  0  0  0  0  0  0
   41.0010   31.0560   40.0810 O   0  0  0  0  0  0  0  0  0  0  0  0
   42.1620   32.9960   37.1930 C   0  0  0  0  0  0  0  0  0  0  0  0
   41.5750   31.9470   37.9440 C   0  0  0  0  0  0  0  0  0  0  0  0
   41.5740   32.0780   39.3280 C   0  0  0  0  0  0  0  0  0  0  0  0
   42.1270   33.1910   39.8960 N   0  0  0  0  0  0  0  0  0  0  0  0
   42.6720   34.1590   39.1360 C   0  0  0  0  0  0  0  0  0  0  0  0
   42.6960   34.0780   37.7980 N   0  0  0  0  0  0  0  0  0  0  0  0
   42.1810   32.9290   36.1050 H   0  0  0  0  0  0  0  0  0  0  0  0
   41.1610   31.1030   37.4010 H   0  0  0  0  0  0  0  0  0  0  0  0
   43.0890   35.0080   39.6690 H   0  0  0  0  0  0  0  0  0  0  0  0
   39.0060   30.8150   41.9660 O   0  0  0  0  0  0  0  0  0  0  0  0
   38.7690   29.5920   42.5750 C   0  0  0  0  0  0  0  0  0  0  0  0
   39.5800   28.5340   42.9300 C   0  0  0  0  0  0  0  0  0  0  0  0
   40.6410   28.5480   42.7440 H   0  0  0  0  0  0  0  0  0  0  0  0
   38.7220   27.5970   43.5120 C   0  0  0  0  0  0  0  0  0  0  0  0
   39.0800   26.6520   43.8910 H   0  0  0  0  0  0  0  0  0  0  0  0
   37.4700   28.1640   43.4610 C   0  0  0  0  0  0  0  0  0  0  0  0
   36.5810   27.6690   43.8420 H   0  0  0  0  0  0  0  0  0  0  0  0
   37.5020   29.3510   42.9030 O   0  0  0  0  0  0  0  0  0  0  0  0
   38.7090   32.5450   39.8110 O   0  0  0  0  0  0  0  0  0  0  0  0
   37.3470   32.5240   39.5950 C   0  0  0  0  0  0  0  0  0  0  0  0
   37.0060   31.9740   38.3700 F   0  0  0  0  0  0  0  0  0  0  0  0
   36.7090   31.9290   40.6530 F   0  0  0  0  0  0  0  0  0  0  0  0
   36.9400   33.8610   39.5440 F   0  0  0  0  0  0  0  0  0  0  0  0
  2  1  2  6  0  0  0
  2 13  1  0  0  0  0
  3  2  1  0  0  0  0
  4  9  2  0  0  0  0
  4  5  1  0  0  0  0
  5  6  2  0  0  0  0
  6  7  1  0  0  0  0
  6  3  1  0  0  0  0
  8 12  1  0  0  0  0
  8  7  2  0  0  0  0
  9  8  1  0  0  0  0
 10  4  1  0  0  0  0
 11  5  1  0  0  0  0
 13 14  1  0  0  0  0
 14 21  1  0  0  0  0
 14 15  2  0  0  0  0
 15 17  1  0  0  0  0
 16 15  1  0  0  0  0
 17 18  1  0  0  0  0
 19 17  2  0  0  0  0
 19 20  1  0  0  0  0
 21 19  1  0  0  0  0
 22  2  1  0  0  0  0
 23 22  1  0  0  0  0
 23 25  1  0  0  0  0
 24 23  1  0  0  0  0
 26 23  1  0  0  0  0
M  END
>  <minimizedAffinity>
-4.47580004

$$$$

 OpenBabel03242519403D

 26 27  0  0  0  0  0  0  0  0999 V2000
   37.9410   29.8740   38.3610 O   0  0  0  0  0  0  0  0  0  0  0  0
   36.6650   29.6070   39.1490 P   0  0  2  0  0  0  0  0  0  0  0  0
   36.4200   30.9040   40.2560 O   0  0  0  0  0  0  0  0  0  0  0  0
   39.5320   32.5970   41.2040 C   0  0  0  0  0  0  0  0  0  0  0  0
   38.5490   31.5820   41.0930 C   0  0  0  0  0  0  0  0  0  0  0  0
   37.3980   31.8880   40.3750 C   0  0  0  0  0  0  0  0  0  0  0  0
   37.2660   33.1290   39.8170 N   0  0  0  0  0  0  0  0  0  0  0  0
   38.2320   34.0560   39.9530 C   0  0  0  0  0  0  0  0  0  0  0  0
   39.3590   33.8080   40.6350 N   0  0  0  0  0  0  0  0  0  0  0  0
   40.4490   32.3930   41.7600 H   0  0  0  0  0  0  0  0  0  0  0  0
   38.7450   30.6290   41.5710 H   0  0  0  0  0  0  0  0  0  0  0  0
   38.0460   35.0150   39.4780 H   0  0  0  0  0  0  0  0  0  0  0  0
   36.7160   28.1750   40.0120 O   0  0  0  0  0  0  0  0  0  0  0  0
   37.1270   28.0380   41.3290 C   0  0  0  0  0  0  0  0  0  0  0  0
   36.4610   27.7930   42.5120 C   0  0  0  0  0  0  0  0  0  0  0  0
   35.3920   27.6620   42.5430 H   0  0  0  0  0  0  0  0  0  0  0  0
   37.4570   27.7710   43.4930 C   0  0  0  0  0  0  0  0  0  0  0  0
   37.2310   27.5970   44.5340 H   0  0  0  0  0  0  0  0  0  0  0  0
   38.6360   28.0040   42.8240 C   0  0  0  0  0  0  0  0  0  0  0  0
   39.6000   28.0480   43.3230 H   0  0  0  0  0  0  0  0  0  0  0  0
   38.4350   28.1620   41.5370 O   0  0  0  0  0  0  0  0  0  0  0  0
   35.3790   29.6290   38.0570 O   0  0  0  0  0  0  0  0  0  0  0  0
   34.3250   28.8420   38.4710 C   0  0  0  0  0  0  0  0  0  0  0  0
   34.5320   27.4940   38.2240 F   0  0  0  0  0  0  0  0  0  0  0  0
   34.0180   29.1120   39.7800 F   0  0  0  0  0  0  0  0  0  0  0  0
   33.2290   29.2140   37.6870 F   0  0  0  0  0  0  0  0  0  0  0  0
  2  1  2  6  0  0  0
  2 13  1  0  0  0  0
  2  3  1  0  0  0  0
  3  6  1  0  0  0  0
  4 10  1  0  0  0  0
  5  4  1  0  0  0  0
  5 11  1  0  0  0  0
  6  5  2  0  0  0  0
  7  8  2  0  0  0  0
  7  6  1  0  0  0  0
  8  9  1  0  0  0  0
  9  4  2  0  0  0  0
 12  8  1  0  0  0  0
 13 14  1  0  0  0  0
 14 21  1  0  0  0  0
 14 15  2  0  0  0  0
 15 16  1  0  0  0  0
 15 17  1  0  0  0  0
 17 18  1  0  0  0  0
 19 20  1  0  0  0  0
 19 17  2  0  0  0  0
 21 19  1  0  0  0  0
 22 23  1  0  0  0  0
 22  2  1  0  0  0  0
 23 25  1  0  0  0  0
 24 23  1  0  0  0  0
 26 23  1  0  0  0  0
M  END
>  <minimizedAffinity>
-4.47476912

$$$$

 OpenBabel03242519403D

 26 27  0  0  0  0  0  0  0  0999 V2000
   35.9080   29.4520   37.9140 O   0  0  0  0  0  0  0  0  0  0  0  0
   36.5840   29.6790   39.2600 P   0  0  2  0  0  0  0  0  0  0  0  0
   36.0300   28.4800   40.3640 O   0  0  0  0  0  0  0  0  0  0  0  0
   38.0400   26.5140   42.7180 C   0  0  0  0  0  0  0  0  0  0  0  0
   37.2380   26.8310   41.5930 C   0  0  0  0  0  0  0  0  0  0  0  0
   36.8190   28.1500   41.4620 C   0  0  0  0  0  0  0  0  0  0  0  0
   37.1910   29.0680   42.4040 N   0  0  0  0  0  0  0  0  0  0  0  0
   37.9560   28.7140   43.4530 C   0  0  0  0  0  0  0  0  0  0  0  0
   38.3840   27.4550   43.6220 N   0  0  0  0  0  0  0  0  0  0  0  0
   38.3880   25.4890   42.8540 H   0  0  0  0  0  0  0  0  0  0  0  0
   36.9940   26.0320   40.9010 H   0  0  0  0  0  0  0  0  0  0  0  0
   38.2050   29.5060   44.1540 H   0  0  0  0  0  0  0  0  0  0  0  0
   36.2630   31.1870   39.9070 O   0  0  0  0  0  0  0  0  0  0  0  0
   37.1830   32.2120   40.0660 C   0  0  0  0  0  0  0  0  0  0  0  0
   37.3220   33.4620   39.4980 C   0  0  0  0  0  0  0  0  0  0  0  0
   36.6260   33.8280   38.7610 H   0  0  0  0  0  0  0  0  0  0  0  0
   38.4650   34.0060   40.0890 C   0  0  0  0  0  0  0  0  0  0  0  0
   38.8250   34.9920   39.8360 H   0  0  0  0  0  0  0  0  0  0  0  0
   38.9210   33.0450   40.9610 C   0  0  0  0  0  0  0  0  0  0  0  0
   39.8060   33.1770   41.5750 H   0  0  0  0  0  0  0  0  0  0  0  0
   38.1550   31.9800   40.9450 O   0  0  0  0  0  0  0  0  0  0  0  0
   38.2400   29.4350   39.0430 O   0  0  0  0  0  0  0  0  0  0  0  0
   38.6520   29.7410   37.7630 C   0  0  0  0  0  0  0  0  0  0  0  0
   38.4340   28.7070   36.8670 F   0  0  0  0  0  0  0  0  0  0  0  0
   38.1040   30.9320   37.3610 F   0  0  0  0  0  0  0  0  0  0  0  0
   40.0390   29.9070   37.8300 F   0  0  0  0  0  0  0  0  0  0  0  0
  2  1  2  6  0  0  0
  2 13  1  0  0  0  0
  2  3  1  0  0  0  0
  3  6  1  0  0  0  0
  4 10  1  0  0  0  0
  4  9  1  0  0  0  0
  5  4  2  0  0  0  0
  6  5  1  0  0  0  0
  6  7  2  0  0  0  0
  7  8  1  0  0  0  0
  8  9  2  0  0  0  0
  8 12  1  0  0  0  0
 11  5  1  0  0  0  0
 13 14  1  0  0  0  0
 14 21  1  0  0  0  0
 15 14  2  0  0  0  0
 15 17  1  0  0  0  0
 16 15  1  0  0  0  0
 17 19  2  0  0  0  0
 18 17  1  0  0  0  0
 19 20  1  0  0  0  0
 21 19  1  0  0  0  0
 22  2  1  0  0  0  0
 23 26  1  0  0  0  0
 23 22  1  0  0  0  0
 24 23  1  0  0  0  0
 25 23  1  0  0  0  0
M  END
>  <minimizedAffinity>
-4.38314486

$$$$

 OpenBabel03242519403D

 26 27  0  0  0  0  0  0  0  0999 V2000
   38.8080   29.9610   39.9300 O   0  0  0  0  0  0  0  0  0  0  0  0
   37.6740   30.7690   40.5480 P   0  0  2  0  0  0  0  0  0  0  0  0
   37.2730   30.0780   42.0730 O   0  0  0  0  0  0  0  0  0  0  0  0
   38.9110   27.0860   43.4200 C   0  0  0  0  0  0  0  0  0  0  0  0
   38.6180   28.4530   43.1870 C   0  0  0  0  0  0  0  0  0  0  0  0
   37.5750   28.7400   42.3140 C   0  0  0  0  0  0  0  0  0  0  0  0
   36.8890   27.7130   41.7290 N   0  0  0  0  0  0  0  0  0  0  0  0
   37.2080   26.4320   41.9850 C   0  0  0  0  0  0  0  0  0  0  0  0
   38.2050   26.1050   42.8200 N   0  0  0  0  0  0  0  0  0  0  0  0
   39.7230   26.8220   44.0980 H   0  0  0  0  0  0  0  0  0  0  0  0
   39.2200   29.1970   43.6980 H   0  0  0  0  0  0  0  0  0  0  0  0
   36.6120   25.6790   41.4780 H   0  0  0  0  0  0  0  0  0  0  0  0
   36.2970   30.7950   39.5980 O   0  0  0  0  0  0  0  0  0  0  0  0
   35.9560   29.8530   38.6400 C   0  0  0  0  0  0  0  0  0  0  0  0
   36.3460   29.6420   37.3340 C   0  0  0  0  0  0  0  0  0  0  0  0
   37.0640   30.2810   36.8470 H   0  0  0  0  0  0  0  0  0  0  0  0
   35.6290   28.5170   36.9160 C   0  0  0  0  0  0  0  0  0  0  0  0
   35.7310   28.1100   35.9220 H   0  0  0  0  0  0  0  0  0  0  0  0
   34.8680   28.1440   38.0000 C   0  0  0  0  0  0  0  0  0  0  0  0
   34.1960   27.2920   37.9850 H   0  0  0  0  0  0  0  0  0  0  0  0
   35.0660   28.9410   39.0240 O   0  0  0  0  0  0  0  0  0  0  0  0
   38.2580   32.3250   40.8370 O   0  0  0  0  0  0  0  0  0  0  0  0
   38.1890   33.1290   39.7180 C   0  0  0  0  0  0  0  0  0  0  0  0
   38.5950   32.4770   38.5650 F   0  0  0  0  0  0  0  0  0  0  0  0
   36.9430   33.6900   39.6150 F   0  0  0  0  0  0  0  0  0  0  0  0
   39.1100   34.1610   39.9230 F   0  0  0  0  0  0  0  0  0  0  0  0
  2  1  2  6  0  0  0
  2 22  1  0  0  0  0
  2  3  1  0  0  0  0
  3  6  1  0  0  0  0
  4 10  1  0  0  0  0
  5  4  1  0  0  0  0
  5 11  1  0  0  0  0
  6  5  2  0  0  0  0
  7  8  2  0  0  0  0
  7  6  1  0  0  0  0
  8  9  1  0  0  0  0
  9  4  2  0  0  0  0
 12  8  1  0  0  0  0
 13  2  1  0  0  0  0
 14 21  1  0  0  0  0
 14 13  1  0  0  0  0
 15 14  2  0  0  0  0
 16 15  1  0  0  0  0
 17 15  1  0  0  0  0
 17 19  2  0  0  0  0
 18 17  1  0  0  0  0
 19 21  1  0  0  0  0
 20 19  1  0  0  0  0
 23 26  1  0  0  0  0
 23 22  1  0  0  0  0
 24 23  1  0  0  0  0
 25 23  1  0  0  0  0
M  END
>  <minimizedAffinity>
-4.29557705

$$$$

 OpenBabel03242519403D

 26 27  0  0  0  0  0  0  0  0999 V2000
   38.9520   28.0970   40.7130 O   0  0  0  0  0  0  0  0  0  0  0  0
   38.1100   29.1790   41.3770 P   0  0  2  0  0  0  0  0  0  0  0  0
   37.6820   30.3500   40.1900 O   0  0  0  0  0  0  0  0  0  0  0  0
   40.3560   32.6780   39.2520 C   0  0  0  0  0  0  0  0  0  0  0  0
   39.6070   31.4790   39.3460 C   0  0  0  0  0  0  0  0  0  0  0  0
   38.4310   31.5190   40.0870 C   0  0  0  0  0  0  0  0  0  0  0  0
   38.0540   32.6910   40.6810 N   0  0  0  0  0  0  0  0  0  0  0  0
   38.8030   33.8020   40.5600 C   0  0  0  0  0  0  0  0  0  0  0  0
   39.9440   33.8120   39.8560 N   0  0  0  0  0  0  0  0  0  0  0  0
   41.2850   32.6840   38.6790 H   0  0  0  0  0  0  0  0  0  0  0  0
   39.9890   30.5990   38.8380 H   0  0  0  0  0  0  0  0  0  0  0  0
   38.4300   34.6890   41.0650 H   0  0  0  0  0  0  0  0  0  0  0  0
   38.9090   29.9550   42.6250 O   0  0  0  0  0  0  0  0  0  0  0  0
   40.2830   30.0960   42.7430 C   0  0  0  0  0  0  0  0  0  0  0  0
   41.3210   29.2010   42.8930 C   0  0  0  0  0  0  0  0  0  0  0  0
   41.1490   28.1380   42.9400 H   0  0  0  0  0  0  0  0  0  0  0  0
   42.4750   29.9870   42.9510 C   0  0  0  0  0  0  0  0  0  0  0  0
   43.4570   29.5540   43.0670 H   0  0  0  0  0  0  0  0  0  0  0  0
   42.0410   31.2870   42.8330 C   0  0  0  0  0  0  0  0  0  0  0  0
   42.7140   32.1380   42.8440 H   0  0  0  0  0  0  0  0  0  0  0  0
   40.7360   31.3470   42.7090 O   0  0  0  0  0  0  0  0  0  0  0  0
   36.6810   28.4560   41.9090 O   0  0  0  0  0  0  0  0  0  0  0  0
   36.9140   27.4130   42.7810 C   0  0  0  0  0  0  0  0  0  0  0  0
   38.1600   27.4840   43.3830 F   0  0  0  0  0  0  0  0  0  0  0  0
   35.8830   27.3070   43.6780 F   0  0  0  0  0  0  0  0  0  0  0  0
   36.9270   26.2510   42.0020 F   0  0  0  0  0  0  0  0  0  0  0  0
  2  1  2  6  0  0  0
  2 22  1  0  0  0  0
  2 13  1  0  0  0  0
  3  2  1  0  0  0  0
  4  5  2  0  0  0  0
  4  9  1  0  0  0  0
  5  6  1  0  0  0  0
  6  3  1  0  0  0  0
  6  7  2  0  0  0  0
  8  7  1  0  0  0  0
  8 12  1  0  0  0  0
  9  8  2  0  0  0  0
 10  4  1  0  0  0  0
 11  5  1  0  0  0  0
 13 14  1  0  0  0  0
 14 15  2  0  0  0  0
 15 16  1  0  0  0  0
 15 17  1  0  0  0  0
 17 18  1  0  0  0  0
 19 20  1  0  0  0  0
 19 17  2  0  0  0  0
 21 14  1  0  0  0  0
 21 19  1  0  0  0  0
 22 23  1  0  0  0  0
 23 24  1  0  0  0  0
 23 25  1  0  0  0  0
 26 23  1  0  0  0  0
M  END
>  <minimizedAffinity>
-4.27088881

$$$$

 OpenBabel03242519403D

 26 27  0  0  0  0  0  0  0  0999 V2000
   39.0670   28.4570   40.7660 O   0  0  0  0  0  0  0  0  0  0  0  0
   37.9210   28.1490   41.7210 P   0  0  2  0  0  0  0  0  0  0  0  0
   38.5820   27.7070   43.2480 O   0  0  0  0  0  0  0  0  0  0  0  0
   41.3820   25.3420   43.3700 C   0  0  0  0  0  0  0  0  0  0  0  0
   40.0530   25.8300   43.3080 C   0  0  0  0  0  0  0  0  0  0  0  0
   39.8810   27.2100   43.3080 C   0  0  0  0  0  0  0  0  0  0  0  0
   40.9790   28.0220   43.3660 N   0  0  0  0  0  0  0  0  0  0  0  0
   42.2210   27.5060   43.4230 C   0  0  0  0  0  0  0  0  0  0  0  0
   42.4370   26.1830   43.4250 N   0  0  0  0  0  0  0  0  0  0  0  0
   41.5560   24.2650   43.3730 H   0  0  0  0  0  0  0  0  0  0  0  0
   39.2470   25.1060   43.2660 H   0  0  0  0  0  0  0  0  0  0  0  0
   43.0360   28.2220   43.4670 H   0  0  0  0  0  0  0  0  0  0  0  0
   36.9410   26.9040   41.1860 O   0  0  0  0  0  0  0  0  0  0  0  0
   37.3160   25.5750   41.0610 C   0  0  0  0  0  0  0  0  0  0  0  0
   36.8170   24.3940   41.5710 C   0  0  0  0  0  0  0  0  0  0  0  0
   35.9540   24.3770   42.2160 H   0  0  0  0  0  0  0  0  0  0  0  0
   37.6530   23.3960   41.0640 C   0  0  0  0  0  0  0  0  0  0  0  0
   37.5040   22.3520   41.2960 H   0  0  0  0  0  0  0  0  0  0  0  0
   38.5840   24.0530   40.2930 C   0  0  0  0  0  0  0  0  0  0  0  0
   39.3790   23.5390   39.7610 H   0  0  0  0  0  0  0  0  0  0  0  0
   38.3800   25.3490   40.2940 O   0  0  0  0  0  0  0  0  0  0  0  0
   37.0480   29.5760   41.9440 O   0  0  0  0  0  0  0  0  0  0  0  0
   36.2430   29.8720   40.8640 C   0  0  0  0  0  0  0  0  0  0  0  0
   35.8270   31.1940   40.8510 F   0  0  0  0  0  0  0  0  0  0  0  0
   36.8530   29.4840   39.6990 F   0  0  0  0  0  0  0  0  0  0  0  0
   35.0850   29.1040   41.0190 F   0  0  0  0  0  0  0  0  0  0  0  0
  2  1  2  6  0  0  0
  2 22  1  0  0  0  0
  2  3  1  0  0  0  0
  3  6  1  0  0  0  0
  4 10  1  0  0  0  0
  4  9  1  0  0  0  0
  5  4  2  0  0  0  0
  6  5  1  0  0  0  0
  6  7  2  0  0  0  0
  7  8  1  0  0  0  0
  8  9  2  0  0  0  0
  8 12  1  0  0  0  0
 11  5  1  0  0  0  0
 13  2  1  0  0  0  0
 14 13  1  0  0  0  0
 14 15  2  0  0  0  0
 15 16  1  0  0  0  0
 17 18  1  0  0  0  0
 17 15  1  0  0  0  0
 19 21  1  0  0  0  0
 19 17  2  0  0  0  0
 20 19  1  0  0  0  0
 21 14  1  0  0  0  0
 23 26  1  0  0  0  0
 23 22  1  0  0  0  0
 24 23  1  0  0  0  0
 25 23  1  0  0  0  0
M  END
>  <minimizedAffinity>
-4.20482683

$$$$
