
 OpenBabel03252509083D

 40 43  0  0  0  0  0  0  0  0999 V2000
   47.5660   31.7720   38.9700 C   0  0  0  0  0  0  0  0  0  0  0  0
   47.1550   33.0700   38.9730 C   0  0  0  0  0  0  0  0  0  0  0  0
   47.8140   34.0100   38.1960 C   0  0  0  0  0  0  0  0  0  0  0  0
   48.8840   33.6280   37.4220 C   0  0  0  0  0  0  0  0  0  0  0  0
   49.3360   32.3100   37.3880 C   0  0  0  0  0  0  0  0  0  0  0  0
   48.6530   31.3820   38.1820 C   0  0  0  0  0  0  0  0  0  0  0  0
   47.5210   35.0490   38.1700 H   0  0  0  0  0  0  0  0  0  0  0  0
   49.4710   34.2630   36.7810 H   0  0  0  0  0  0  0  0  0  0  0  0
   50.1550   31.9440   36.8130 H   0  0  0  0  0  0  0  0  0  0  0  0
   48.9760   30.3430   38.1840 H   0  0  0  0  0  0  0  0  0  0  0  0
   45.3900   35.4460   43.2030 Cl  0  0  0  0  0  0  0  0  0  0  0  0
   45.2030   34.6520   41.6620 C   0  0  0  0  0  0  0  0  0  0  0  0
   46.2800   34.2110   40.9640 C   0  0  0  0  0  0  0  0  0  0  0  0
   46.0270   33.5760   39.7580 C   0  0  0  0  0  0  0  0  0  0  0  0
   44.7480   33.3990   39.2870 C   0  0  0  0  0  0  0  0  0  0  0  0
   43.6840   33.8470   39.9970 C   0  0  0  0  0  0  0  0  0  0  0  0
   43.9220   34.4770   41.1940 C   0  0  0  0  0  0  0  0  0  0  0  0
   44.6150   32.8990   38.3420 H   0  0  0  0  0  0  0  0  0  0  0  0
   42.6880   33.6930   39.6000 H   0  0  0  0  0  0  0  0  0  0  0  0
   43.0520   34.8260   41.7440 H   0  0  0  0  0  0  0  0  0  0  0  0
   49.5830   35.7740   41.9070 C   0  0  0  0  0  0  0  0  0  0  0  0
   48.3000   35.5940   41.3740 C   0  0  0  0  0  0  0  0  0  0  0  0
   47.6040   34.4090   41.5100 C   0  0  0  0  0  0  0  0  0  0  0  0
   48.2610   33.4410   42.1990 N   0  0  0  0  0  0  0  0  0  0  0  0
   49.4870   33.6050   42.7120 C   0  0  0  0  0  0  0  0  0  0  0  0
   50.1380   34.7630   42.5650 N   0  0  0  0  0  0  0  0  0  0  0  0
   50.0520   36.7380   41.7500 H   0  0  0  0  0  0  0  0  0  0  0  0
   47.8230   36.3980   40.8350 H   0  0  0  0  0  0  0  0  0  0  0  0
   49.8620   32.7320   43.2310 H   0  0  0  0  0  0  0  0  0  0  0  0
   46.7630   30.5980   39.8700 S   0  0  0  0  0  0  0  0  0  0  0  0
   45.4990   30.1160   39.1930 O   0  0  0  0  0  0  0  0  0  0  0  0
   47.7060   29.3430   39.7690 O   0  0  0  0  0  0  0  0  0  0  0  0
   46.4010   30.7320   41.5480 C   0  0  0  0  0  0  0  0  0  0  0  0
   47.2900   30.1770   42.5060 C   0  0  0  0  0  0  0  0  0  0  0  0
   48.2440   29.6370   42.3370 H   0  0  0  0  0  0  0  0  0  0  0  0
   46.8790   30.3550   43.8060 C   0  0  0  0  0  0  0  0  0  0  0  0
   47.3290   30.0550   44.7200 H   0  0  0  0  0  0  0  0  0  0  0  0
   45.7170   31.0300   43.6100 C   0  0  0  0  0  0  0  0  0  0  0  0
   45.0010   31.4070   44.3580 H   0  0  0  0  0  0  0  0  0  0  0  0
   45.5040   31.2080   42.3730 O   0  0  0  0  0  0  0  0  0  0  0  0
  1  2  1  0  0  0  0
  1 30  1  0  0  0  0
  2 14  1  0  0  0  0
  3  2  2  0  0  0  0
  4  3  1  0  0  0  0
  5  4  2  0  0  0  0
  5  6  1  0  0  0  0
  6 10  1  0  0  0  0
  6  1  2  0  0  0  0
  7  3  1  0  0  0  0
  8  4  1  0  0  0  0
  9  5  1  0  0  0  0
 12 11  1  0  0  0  0
 13 23  1  0  0  0  0
 13 12  2  0  0  0  0
 14 13  1  0  0  0  0
 15 14  2  0  0  0  0
 15 16  1  0  0  0  0
 16 17  2  0  0  0  0
 17 12  1  0  0  0  0
 17 20  1  0  0  0  0
 18 15  1  0  0  0  0
 19 16  1  0  0  0  0
 21 26  1  0  0  0  0
 22 23  1  0  0  0  0
 22 21  2  0  0  0  0
 23 24  2  0  0  0  0
 24 25  1  0  0  0  0
 25 29  1  0  0  0  0
 26 25  2  0  0  0  0
 27 21  1  0  0  0  0
 28 22  1  0  0  0  0
 30 33  1  0  0  0  0
 31 30  2  0  0  0  0
 32 30  2  0  0  0  0
 33 40  1  0  0  0  0
 33 34  2  0  0  0  0
 34 36  1  0  0  0  0
 35 34  1  0  0  0  0
 36 37  1  0  0  0  0
 38 36  2  0  0  0  0
 38 39  1  0  0  0  0
 40 38  1  0  0  0  0
M  END
>  <minimizedAffinity>
-4.67360687

>  <minimizedRMSD>
1.01079774

$$$$
