
 OpenBabel03242514233D

 33 36  0  0  0  0  0  0  0  0999 V2000
   44.7840   33.1180   41.1310 Cl  0  0  0  0  0  0  0  0  0  0  0  0
   46.3150   33.9450   40.9150 C   0  0  0  0  0  0  0  0  0  0  0  0
   46.8270   34.7090   41.9230 C   0  0  0  0  0  0  0  0  0  0  0  0
   48.0430   35.3710   41.7660 C   0  0  0  0  0  0  0  0  0  0  0  0
   48.6810   35.2150   40.5670 C   0  0  0  0  0  0  0  0  0  0  0  0
   48.1610   34.4420   39.5510 C   0  0  0  0  0  0  0  0  0  0  0  0
   46.9690   33.8010   39.7200 C   0  0  0  0  0  0  0  0  0  0  0  0
   48.4710   35.9790   42.5420 H   0  0  0  0  0  0  0  0  0  0  0  0
   49.6400   35.6850   40.3300 H   0  0  0  0  0  0  0  0  0  0  0  0
   48.6620   34.3120   38.5920 H   0  0  0  0  0  0  0  0  0  0  0  0
   45.5950   34.0420   45.3310 C   0  0  0  0  0  0  0  0  0  0  0  0
   44.7140   35.1110   45.5400 C   0  0  0  0  0  0  0  0  0  0  0  0
   44.5480   36.0430   44.5250 C   0  0  0  0  0  0  0  0  0  0  0  0
   45.2470   35.8740   43.3810 N   0  0  0  0  0  0  0  0  0  0  0  0
   46.0970   34.8380   43.1870 C   0  0  0  0  0  0  0  0  0  0  0  0
   46.2760   33.9140   44.1650 N   0  0  0  0  0  0  0  0  0  0  0  0
   45.7120   33.3200   46.1410 H   0  0  0  0  0  0  0  0  0  0  0  0
   44.1480   35.2750   46.4280 H   0  0  0  0  0  0  0  0  0  0  0  0
   43.9230   36.9060   44.5210 H   0  0  0  0  0  0  0  0  0  0  0  0
   46.3900   32.9760   38.6670 C   0  0  0  0  0  0  0  0  0  0  0  0
   45.5250   33.3530   37.7160 N   0  0  0  0  0  0  0  0  0  0  0  0
   45.2350   32.2950   36.9390 C   0  0  0  0  0  0  0  0  0  0  0  0
   45.9250   31.2300   37.4060 N   0  0  0  0  0  0  0  0  0  0  0  0
   46.6310   31.6600   38.4660 N   0  0  0  0  0  0  0  0  0  0  0  0
   44.5970   32.1830   36.0880 H   0  0  0  0  0  0  0  0  0  0  0  0
   46.0260   29.8670   37.0070 C   0  0  0  0  0  0  0  0  0  0  0  0
   46.5410   28.9660   37.9450 C   0  0  0  0  0  0  0  0  0  0  0  0
   46.9030   29.0670   38.9610 H   0  0  0  0  0  0  0  0  0  0  0  0
   46.5380   27.7170   37.3270 C   0  0  0  0  0  0  0  0  0  0  0  0
   46.8330   26.7120   37.6250 H   0  0  0  0  0  0  0  0  0  0  0  0
   46.0190   27.9380   36.0480 C   0  0  0  0  0  0  0  0  0  0  0  0
   45.8150   27.3000   35.1890 H   0  0  0  0  0  0  0  0  0  0  0  0
   45.7320   29.2210   35.9050 O   0  0  0  0  0  0  0  0  0  0  0  0
  2  1  1  0  0  0  0
  2  3  1  0  0  0  0
  3 15  1  0  0  0  0
  4  3  2  0  0  0  0
  4  8  1  0  0  0  0
  5  4  1  0  0  0  0
  6  7  1  0  0  0  0
  6  5  2  0  0  0  0
  7  2  2  0  0  0  0
  9  5  1  0  0  0  0
 10  6  1  0  0  0  0
 11 12  1  0  0  0  0
 11 17  1  0  0  0  0
 12 18  1  0  0  0  0
 13 12  2  0  0  0  0
 14 13  1  0  0  0  0
 15 14  2  0  0  0  0
 15 16  1  0  0  0  0
 16 11  2  0  0  0  0
 19 13  1  0  0  0  0
 20  7  1  0  0  0  0
 21 20  1  0  0  0  0
 22 23  1  0  0  0  0
 22 21  2  0  0  0  0
 23 24  1  0  0  0  0
 24 20  2  0  0  0  0
 25 22  1  0  0  0  0
 26 23  1  0  0  0  0
 26 27  2  0  0  0  0
 27 28  1  0  0  0  0
 29 30  1  0  0  0  0
 29 27  1  0  0  0  0
 31 29  2  0  0  0  0
 32 31  1  0  0  0  0
 33 31  1  0  0  0  0
 33 26  1  0  0  0  0
M  END
>  <minimizedAffinity>
-5.27180433

>  <minimizedRMSD>
0.108077422

$$$$
