
 OpenBabel03252508033D

 41 44  0  0  1  0  0  0  0  0999 V2000
   42.2280   33.2520   41.1630 C   0  0  0  0  0  0  0  0  0  0  0  0
   42.8960   34.4240   41.3570 C   0  0  0  0  0  0  0  0  0  0  0  0
   42.1700   35.6240   41.2870 C   0  0  0  0  0  0  0  0  0  0  0  0
   40.8200   35.6720   41.0340 C   0  0  0  0  0  0  0  0  0  0  0  0
   40.1560   34.4940   40.8410 C   0  0  0  0  0  0  0  0  0  0  0  0
   40.8530   33.3260   40.9060 C   0  0  0  0  0  0  0  0  0  0  0  0
   42.6270   36.5940   41.4220 H   0  0  0  0  0  0  0  0  0  0  0  0
   40.2760   36.5780   40.9810 H   0  0  0  0  0  0  0  0  0  0  0  0
   39.0980   34.4410   40.6370 H   0  0  0  0  0  0  0  0  0  0  0  0
   40.3070   32.3800   40.7490 H   0  0  0  0  0  0  0  0  0  0  0  0
   42.9670   31.7390   41.2730 S   0  0  0  0  0  0  0  0  0  0  0  0
   42.0260   30.8700   40.4100 O   0  0  0  0  0  0  0  0  0  0  0  0
   42.9340   31.1800   42.6540 O   0  0  0  0  0  0  0  0  0  0  0  0
   44.2820   31.1580   40.3600 C   0  0  0  0  0  0  0  0  0  0  0  0
   44.3420   31.5190   38.9880 C   0  0  0  0  0  0  0  0  0  0  0  0
   43.6910   32.1230   38.3410 H   0  0  0  0  0  0  0  0  0  0  0  0
   45.4660   30.9560   38.4650 C   0  0  0  0  0  0  0  0  0  0  0  0
   45.8510   31.0050   37.4520 H   0  0  0  0  0  0  0  0  0  0  0  0
   46.0850   30.2730   39.4530 C   0  0  0  0  0  0  0  0  0  0  0  0
   46.9640   29.6860   39.5430 H   0  0  0  0  0  0  0  0  0  0  0  0
   45.3650   30.4230   40.5190 O   0  0  0  0  0  0  0  0  0  0  0  0
   44.3340   34.4660   41.6250 C   0  0  0  0  0  0  0  0  0  0  0  0
   45.2440   34.4570   40.7210 O   0  0  0  0  0  0  0  0  0  0  0  0
   44.6370   34.5220   43.0270 C   0  0  0  0  0  0  0  0  0  0  0  0
   44.3160   35.7320   43.6930 C   0  0  0  0  0  0  0  0  0  0  0  0
   44.5950   35.7990   45.0490 C   0  0  0  0  0  0  0  0  0  0  0  0
   45.1530   34.7130   45.6530 N   0  0  0  0  0  0  0  0  0  0  0  0
   45.4460   33.5650   44.9710 C   0  0  0  0  0  0  0  0  0  0  0  0
   45.1800   33.5280   43.7160 N   0  0  0  0  0  0  0  0  0  0  0  0
   43.8870   36.6180   43.3070 H   0  0  0  0  0  0  0  0  0  0  0  0
   44.3960   36.6670   45.6690 H   0  0  0  0  0  0  0  0  0  0  0  0
   46.0390   32.4320   45.7130 C   0  0  1  0  0  0  0  0  0  0  0  0
   46.9820   32.7210   46.8590 C   0  0  0  0  0  0  0  0  0  0  0  0
   45.5610   32.2970   47.1130 C   0  0  1  0  0  0  0  0  0  0  0  0
   46.1640   31.4750   45.1770 H   0  0  0  0  0  0  0  0  0  0  0  0
   47.7120   31.9060   47.0830 H   0  0  0  0  0  0  0  0  0  0  0  0
   47.3190   33.7450   47.0770 H   0  0  0  0  0  0  0  0  0  0  0  0
   45.3430   31.3010   47.5550 H   0  0  0  0  0  0  0  0  0  0  0  0
   44.7750   33.3480   47.7210 N   0  0  0  0  0  0  0  0  0  0  0  0
   45.3500   33.9210   48.3710 H   0  0  0  0  0  0  0  0  0  0  0  0
   43.8710   33.0480   48.1110 H   0  0  0  0  0  0  0  0  0  0  0  0
  1 11  1  0  0  0  0
  1  2  1  0  0  0  0
  2 22  1  0  0  0  0
  3  2  2  0  0  0  0
  3  7  1  0  0  0  0
  4  3  1  0  0  0  0
  5  6  1  0  0  0  0
  5  4  2  0  0  0  0
  6  1  2  0  0  0  0
  8  4  1  0  0  0  0
  9  5  1  0  0  0  0
 10  6  1  0  0  0  0
 11 13  2  0  0  0  0
 12 11  2  0  0  0  0
 14 21  1  0  0  0  0
 14 11  1  0  0  0  0
 15 14  2  0  0  0  0
 16 15  1  0  0  0  0
 17 15  1  0  0  0  0
 17 19  2  0  0  0  0
 18 17  1  0  0  0  0
 19 20  1  0  0  0  0
 19 21  1  0  0  0  0
 22 24  1  0  0  0  0
 23 22  2  0  0  0  0
 24 25  2  0  0  0  0
 24 29  1  0  0  0  0
 25 26  1  0  0  0  0
 26 27  2  0  0  0  0
 26 31  1  0  0  0  0
 28 27  1  0  0  0  0
 28 32  1  0  0  0  0
 29 28  2  0  0  0  0
 30 25  1  0  0  0  0
 32 35  1  6  0  0  0
 32 33  1  0  0  0  0
 32 34  1  0  0  0  0
 33 37  1  0  0  0  0
 33 36  1  0  0  0  0
 33 34  1  0  0  0  0
 34 38  1  1  0  0  0
 34 39  1  0  0  0  0
 39 41  1  0  0  0  0
 39 40  1  0  0  0  0
M  END
>  <minimizedAffinity>
-5.67036486

>  <minimizedRMSD>
0.974291623

$$$$
