
 OpenBabel03252505403D

 27 29  0  0  1  0  0  0  0  0999 V2000
   44.6730   34.4010   43.3560 C   0  0  1  0  0  0  0  0  0  0  0  0
   45.2910   35.8030   43.4390 C   0  0  0  0  0  0  0  0  0  0  0  0
   45.1800   35.0550   42.1530 C   0  0  1  0  0  0  0  0  0  0  0  0
   43.5740   34.3480   43.5280 H   0  0  0  0  0  0  0  0  0  0  0  0
   46.2440   35.8790   43.9830 H   0  0  0  0  0  0  0  0  0  0  0  0
   44.5590   36.5980   43.6840 H   0  0  0  0  0  0  0  0  0  0  0  0
   44.3980   35.4750   41.4510 H   0  0  0  0  0  0  0  0  0  0  0  0
   45.4020   33.3480   44.0900 C   0  0  0  0  0  0  0  0  0  0  0  0
   45.9450   32.2980   43.3070 C   0  0  0  0  0  0  0  0  0  0  0  0
   46.6520   31.3060   43.9640 C   0  0  0  0  0  0  0  0  0  0  0  0
   46.7830   31.4000   45.3250 N   0  0  0  0  0  0  0  0  0  0  0  0
   46.2510   32.4140   46.0270 C   0  0  0  0  0  0  0  0  0  0  0  0
   45.5620   33.3840   45.3990 N   0  0  0  0  0  0  0  0  0  0  0  0
   45.8610   32.1760   42.2340 H   0  0  0  0  0  0  0  0  0  0  0  0
   47.0850   30.4860   43.4190 H   0  0  0  0  0  0  0  0  0  0  0  0
   46.5100   32.3260   47.4980 C   0  0  0  0  0  0  0  0  0  0  0  0
   45.5110   32.9150   48.2300 F   0  0  0  0  0  0  0  0  0  0  0  0
   47.7210   32.9500   47.8070 F   0  0  0  0  0  0  0  0  0  0  0  0
   46.6750   30.9870   47.8450 F   0  0  0  0  0  0  0  0  0  0  0  0
   46.5200   34.8000   41.5540 C   0  0  0  0  0  0  0  0  0  0  0  0
   47.6380   35.3680   42.1280 C   0  0  0  0  0  0  0  0  0  0  0  0
   47.7640   36.0230   43.0050 H   0  0  0  0  0  0  0  0  0  0  0  0
   48.7490   34.9810   41.3920 C   0  0  0  0  0  0  0  0  0  0  0  0
   49.8050   35.2060   41.5080 H   0  0  0  0  0  0  0  0  0  0  0  0
   48.2390   34.1920   40.4030 C   0  0  0  0  0  0  0  0  0  0  0  0
   48.8270   33.7100   39.6330 H   0  0  0  0  0  0  0  0  0  0  0  0
   46.9560   34.1140   40.5300 O   0  0  0  0  0  0  0  0  0  0  0  0
  1  2  1  0  0  0  0
  1  4  1  1  0  0  0
  1  8  1  0  0  0  0
  2  6  1  0  0  0  0
  2  5  1  0  0  0  0
  3  7  1  6  0  0  0
  3  1  1  0  0  0  0
  3  2  1  0  0  0  0
  8 13  1  0  0  0  0
  9 10  1  0  0  0  0
  9  8  2  0  0  0  0
 10 11  2  0  0  0  0
 11 12  1  0  0  0  0
 12 16  1  0  0  0  0
 13 12  2  0  0  0  0
 14  9  1  0  0  0  0
 15 10  1  0  0  0  0
 16 18  1  0  0  0  0
 16 19  1  0  0  0  0
 16 17  1  0  0  0  0
 20 21  2  0  0  0  0
 20  3  1  0  0  0  0
 21 22  1  0  0  0  0
 23 24  1  0  0  0  0
 23 21  1  0  0  0  0
 25 27  1  0  0  0  0
 25 23  2  0  0  0  0
 26 25  1  0  0  0  0
 27 20  1  0  0  0  0
M  END
>  <minimizedAffinity>
-4.75900126

>  <minimizedRMSD>
1.44244313

$$$$
