
 OpenBabel03252508463D

 44 46  0  0  0  0  0  0  0  0999 V2000
   42.9800   32.5200   41.6210 C   0  0  0  0  0  0  0  0  0  0  0  0
   43.3970   32.1440   40.6400 H   0  0  0  0  0  0  0  0  0  0  0  0
   42.0230   33.0440   41.3960 H   0  0  0  0  0  0  0  0  0  0  0  0
   43.7770   34.8670   41.9200 C   0  0  0  0  0  0  0  0  0  0  0  0
   43.9060   33.5160   42.2230 C   0  0  0  0  0  0  0  0  0  0  0  0
   44.9050   33.1470   43.0860 C   0  0  0  0  0  0  0  0  0  0  0  0
   45.7440   34.0780   43.6280 C   0  0  0  0  0  0  0  0  0  0  0  0
   45.6310   35.4060   43.3420 C   0  0  0  0  0  0  0  0  0  0  0  0
   44.6120   35.7530   42.4650 C   0  0  0  0  0  0  0  0  0  0  0  0
   44.9950   32.0850   43.3150 H   0  0  0  0  0  0  0  0  0  0  0  0
   46.5400   33.7970   44.3130 H   0  0  0  0  0  0  0  0  0  0  0  0
   46.2500   36.2080   43.7230 H   0  0  0  0  0  0  0  0  0  0  0  0
   44.4630   36.7950   42.1910 H   0  0  0  0  0  0  0  0  0  0  0  0
   40.4890   36.0110   40.4350 C   0  0  0  0  0  0  0  0  0  0  0  0
   41.4640   35.7070   41.4030 C   0  0  0  0  0  0  0  0  0  0  0  0
   42.6950   35.2150   40.9940 C   0  0  0  0  0  0  0  0  0  0  0  0
   42.8920   35.0520   39.6590 N   0  0  0  0  0  0  0  0  0  0  0  0
   41.9450   35.3480   38.7390 C   0  0  0  0  0  0  0  0  0  0  0  0
   40.7550   35.8240   39.1370 N   0  0  0  0  0  0  0  0  0  0  0  0
   39.5320   36.3950   40.7680 H   0  0  0  0  0  0  0  0  0  0  0  0
   41.2940   35.8410   42.4600 H   0  0  0  0  0  0  0  0  0  0  0  0
   42.2010   35.1820   37.6910 H   0  0  0  0  0  0  0  0  0  0  0  0
   42.6540   31.4180   42.4890 N   0  0  0  0  0  0  0  0  0  0  0  0
   42.9560   31.6560   43.4660 H   0  0  0  0  0  0  0  0  0  0  0  0
   40.9630   31.1550   42.5850 S   0  0  0  0  0  0  0  0  0  0  0  0
   40.2110   32.4530   42.5260 O   0  0  0  0  0  0  0  0  0  0  0  0
   39.3660   32.6200   42.0130 H   0  0  0  0  0  0  0  0  0  0  0  0
   40.6100   30.4070   43.8210 O   0  0  0  0  0  0  0  0  0  0  0  0
   40.6760   30.8690   44.7170 H   0  0  0  0  0  0  0  0  0  0  0  0
   40.5350   30.2150   41.2660 O   0  0  0  0  0  0  0  0  0  0  0  0
   39.2010   29.8930   41.3510 C   0  0  0  0  0  0  0  0  0  0  0  0
   38.6720   30.5600   42.0370 H   0  0  0  0  0  0  0  0  0  0  0  0
   38.9810   28.8660   41.6730 H   0  0  0  0  0  0  0  0  0  0  0  0
   38.5750   29.9820   39.9490 C   0  0  0  0  0  0  0  0  0  0  0  0
   39.1410   29.4050   39.2210 H   0  0  0  0  0  0  0  0  0  0  0  0
   37.5460   29.5340   40.0300 H   0  0  0  0  0  0  0  0  0  0  0  0
   38.4380   31.3960   39.5590 C   0  0  0  0  0  0  0  0  0  0  0  0
   38.5070   31.9010   38.2890 C   0  0  0  0  0  0  0  0  0  0  0  0
   38.6740   31.3580   37.3570 H   0  0  0  0  0  0  0  0  0  0  0  0
   38.3210   33.2790   38.4170 C   0  0  0  0  0  0  0  0  0  0  0  0
   38.3330   33.9210   37.5330 H   0  0  0  0  0  0  0  0  0  0  0  0
   38.1480   33.5200   39.7770 C   0  0  0  0  0  0  0  0  0  0  0  0
   37.9910   34.5600   40.0260 H   0  0  0  0  0  0  0  0  0  0  0  0
   38.2230   32.3830   40.4190 O   0  0  0  0  0  0  0  0  0  0  0  0
  1  5  1  0  0  0  0
  1 23  1  0  0  0  0
  2  1  1  0  0  0  0
  3  1  1  0  0  0  0
  4  5  2  0  0  0  0
  4  9  1  0  0  0  0
  5  6  1  0  0  0  0
  6 10  1  0  0  0  0
  6  7  2  0  0  0  0
  7 11  1  0  0  0  0
  8  7  1  0  0  0  0
  8 12  1  0  0  0  0
  9  8  2  0  0  0  0
 13  9  1  0  0  0  0
 14 20  1  0  0  0  0
 14 15  1  0  0  0  0
 15 21  1  0  0  0  0
 16 15  2  0  0  0  0
 16  4  1  0  0  0  0
 17 16  1  0  0  0  0
 18 19  1  0  0  0  0
 18 17  2  0  0  0  0
 19 14  2  0  0  0  0
 22 18  1  0  0  0  0
 23 25  1  0  0  0  0
 23 24  1  0  0  0  0
 25 28  1  0  0  0  0
 26 25  1  0  0  0  0
 27 26  1  0  0  0  0
 28 29  1  0  0  0  0
 30 31  1  0  0  0  0
 30 25  1  0  0  0  0
 31 33  1  0  0  0  0
 31 32  1  0  0  0  0
 34 36  1  0  0  0  0
 34 31  1  0  0  0  0
 35 34  1  0  0  0  0
 37 34  1  0  0  0  0
 37 44  1  0  0  0  0
 38 40  1  0  0  0  0
 38 37  2  0  0  0  0
 39 38  1  0  0  0  0
 40 42  2  0  0  0  0
 41 40  1  0  0  0  0
 42 43  1  0  0  0  0
 42 44  1  0  0  0  0
M  END
>  <minimizedAffinity>
-5.66141415

>  <minimizedRMSD>
2.72281456

$$$$
