
 OpenBabel03252509083D

 40 43  0  0  0  0  0  0  0  0999 V2000
   47.5590   31.7740   38.9700 C   0  0  0  0  0  0  0  0  0  0  0  0
   47.1490   33.0730   38.9740 C   0  0  0  0  0  0  0  0  0  0  0  0
   47.8090   34.0120   38.1980 C   0  0  0  0  0  0  0  0  0  0  0  0
   48.8780   33.6300   37.4230 C   0  0  0  0  0  0  0  0  0  0  0  0
   49.3290   32.3120   37.3870 C   0  0  0  0  0  0  0  0  0  0  0  0
   48.6450   31.3840   38.1820 C   0  0  0  0  0  0  0  0  0  0  0  0
   47.5160   35.0510   38.1730 H   0  0  0  0  0  0  0  0  0  0  0  0
   49.4650   34.2650   36.7820 H   0  0  0  0  0  0  0  0  0  0  0  0
   50.1470   31.9450   36.8120 H   0  0  0  0  0  0  0  0  0  0  0  0
   48.9670   30.3440   38.1820 H   0  0  0  0  0  0  0  0  0  0  0  0
   45.3890   35.4480   43.2070 Cl  0  0  0  0  0  0  0  0  0  0  0  0
   45.2000   34.6550   41.6660 C   0  0  0  0  0  0  0  0  0  0  0  0
   46.2770   34.2130   40.9670 C   0  0  0  0  0  0  0  0  0  0  0  0
   46.0220   33.5780   39.7600 C   0  0  0  0  0  0  0  0  0  0  0  0
   44.7430   33.4030   39.2900 C   0  0  0  0  0  0  0  0  0  0  0  0
   43.6790   33.8510   40.0020 C   0  0  0  0  0  0  0  0  0  0  0  0
   43.9190   34.4800   41.1980 C   0  0  0  0  0  0  0  0  0  0  0  0
   44.6080   32.9030   38.3460 H   0  0  0  0  0  0  0  0  0  0  0  0
   42.6830   33.6980   39.6050 H   0  0  0  0  0  0  0  0  0  0  0  0
   43.0500   34.8300   41.7490 H   0  0  0  0  0  0  0  0  0  0  0  0
   49.5820   35.7730   41.9070 C   0  0  0  0  0  0  0  0  0  0  0  0
   48.2980   35.5940   41.3750 C   0  0  0  0  0  0  0  0  0  0  0  0
   47.6010   34.4100   41.5120 C   0  0  0  0  0  0  0  0  0  0  0  0
   48.2570   33.4420   42.2020 N   0  0  0  0  0  0  0  0  0  0  0  0
   49.4840   33.6050   42.7130 C   0  0  0  0  0  0  0  0  0  0  0  0
   50.1360   34.7610   42.5650 N   0  0  0  0  0  0  0  0  0  0  0  0
   50.0520   36.7360   41.7480 H   0  0  0  0  0  0  0  0  0  0  0  0
   47.8220   36.3980   40.8360 H   0  0  0  0  0  0  0  0  0  0  0  0
   49.8580   32.7320   43.2330 H   0  0  0  0  0  0  0  0  0  0  0  0
   46.7550   30.6000   39.8700 S   0  0  0  0  0  0  0  0  0  0  0  0
   45.4890   30.1210   39.1940 O   0  0  0  0  0  0  0  0  0  0  0  0
   47.6970   29.3430   39.7660 O   0  0  0  0  0  0  0  0  0  0  0  0
   46.3970   30.7320   41.5490 C   0  0  0  0  0  0  0  0  0  0  0  0
   47.2880   30.1770   42.5040 C   0  0  0  0  0  0  0  0  0  0  0  0
   48.2410   29.6360   42.3330 H   0  0  0  0  0  0  0  0  0  0  0  0
   46.8790   30.3530   43.8060 C   0  0  0  0  0  0  0  0  0  0  0  0
   47.3310   30.0520   44.7180 H   0  0  0  0  0  0  0  0  0  0  0  0
   45.7180   31.0290   43.6120 C   0  0  0  0  0  0  0  0  0  0  0  0
   45.0040   31.4050   44.3630 H   0  0  0  0  0  0  0  0  0  0  0  0
   45.5020   31.2080   42.3760 O   0  0  0  0  0  0  0  0  0  0  0  0
  1  2  1  0  0  0  0
  1 30  1  0  0  0  0
  2 14  1  0  0  0  0
  3  2  2  0  0  0  0
  4  3  1  0  0  0  0
  5  4  2  0  0  0  0
  5  6  1  0  0  0  0
  6 10  1  0  0  0  0
  6  1  2  0  0  0  0
  7  3  1  0  0  0  0
  8  4  1  0  0  0  0
  9  5  1  0  0  0  0
 12 11  1  0  0  0  0
 13 23  1  0  0  0  0
 13 12  2  0  0  0  0
 14 13  1  0  0  0  0
 15 14  2  0  0  0  0
 15 16  1  0  0  0  0
 16 17  2  0  0  0  0
 17 12  1  0  0  0  0
 17 20  1  0  0  0  0
 18 15  1  0  0  0  0
 19 16  1  0  0  0  0
 21 26  1  0  0  0  0
 22 23  1  0  0  0  0
 22 21  2  0  0  0  0
 23 24  2  0  0  0  0
 24 25  1  0  0  0  0
 25 29  1  0  0  0  0
 26 25  2  0  0  0  0
 27 21  1  0  0  0  0
 28 22  1  0  0  0  0
 30 33  1  0  0  0  0
 31 30  2  0  0  0  0
 32 30  2  0  0  0  0
 33 40  1  0  0  0  0
 33 34  2  0  0  0  0
 34 36  1  0  0  0  0
 35 34  1  0  0  0  0
 36 37  1  0  0  0  0
 38 36  2  0  0  0  0
 38 39  1  0  0  0  0
 40 38  1  0  0  0  0
M  END
>  <minimizedAffinity>
-4.67278099

>  <minimizedRMSD>
0.879448593

$$$$
