
 OpenBabel03252508473D

 44 46  0  0  0  0  0  0  0  0999 V2000
   42.9590   32.5620   41.5890 C   0  0  0  0  0  0  0  0  0  0  0  0
   43.4870   32.0010   40.7610 H   0  0  0  0  0  0  0  0  0  0  0  0
   42.0830   33.0780   41.1340 H   0  0  0  0  0  0  0  0  0  0  0  0
   43.6380   34.9490   41.8550 C   0  0  0  0  0  0  0  0  0  0  0  0
   43.8540   33.6080   42.1520 C   0  0  0  0  0  0  0  0  0  0  0  0
   44.9090   33.2960   42.9690 C   0  0  0  0  0  0  0  0  0  0  0  0
   45.7190   34.2720   43.4750 C   0  0  0  0  0  0  0  0  0  0  0  0
   45.5210   35.5910   43.1950 C   0  0  0  0  0  0  0  0  0  0  0  0
   44.4470   35.8800   42.3650 C   0  0  0  0  0  0  0  0  0  0  0  0
   45.0670   32.2400   43.1930 H   0  0  0  0  0  0  0  0  0  0  0  0
   46.5580   34.0350   44.1240 H   0  0  0  0  0  0  0  0  0  0  0  0
   46.1110   36.4260   43.5500 H   0  0  0  0  0  0  0  0  0  0  0  0
   44.2290   36.9120   42.0980 H   0  0  0  0  0  0  0  0  0  0  0  0
   40.2240   35.8850   40.5190 C   0  0  0  0  0  0  0  0  0  0  0  0
   41.2540   35.6340   41.4430 C   0  0  0  0  0  0  0  0  0  0  0  0
   42.4990   35.2360   40.9780 C   0  0  0  0  0  0  0  0  0  0  0  0
   42.6550   35.1100   39.6330 N   0  0  0  0  0  0  0  0  0  0  0  0
   41.6550   35.3550   38.7570 C   0  0  0  0  0  0  0  0  0  0  0  0
   40.4510   35.7400   39.2080 N   0  0  0  0  0  0  0  0  0  0  0  0
   39.2550   36.1950   40.8950 H   0  0  0  0  0  0  0  0  0  0  0  0
   41.1160   35.7370   42.5080 H   0  0  0  0  0  0  0  0  0  0  0  0
   41.8800   35.2260   37.6970 H   0  0  0  0  0  0  0  0  0  0  0  0
   42.4350   31.6450   42.5690 N   0  0  0  0  0  0  0  0  0  0  0  0
   42.5520   32.0670   43.5230 H   0  0  0  0  0  0  0  0  0  0  0  0
   40.7490   31.4000   42.3810 S   0  0  0  0  0  0  0  0  0  0  0  0
   39.9870   32.6680   42.6360 O   0  0  0  0  0  0  0  0  0  0  0  0
   39.2050   33.0020   42.1050 H   0  0  0  0  0  0  0  0  0  0  0  0
   40.2660   30.3160   43.2780 O   0  0  0  0  0  0  0  0  0  0  0  0
   40.2180   30.4790   44.2730 H   0  0  0  0  0  0  0  0  0  0  0  0
   40.4940   30.9190   40.7960 O   0  0  0  0  0  0  0  0  0  0  0  0
   39.3110   30.2220   40.7170 C   0  0  0  0  0  0  0  0  0  0  0  0
   38.4970   30.8590   40.3610 H   0  0  0  0  0  0  0  0  0  0  0  0
   38.9690   29.7620   41.6530 H   0  0  0  0  0  0  0  0  0  0  0  0
   39.4970   29.0300   39.7640 C   0  0  0  0  0  0  0  0  0  0  0  0
   40.4430   28.5220   39.9390 H   0  0  0  0  0  0  0  0  0  0  0  0
   38.6640   28.3090   39.9900 H   0  0  0  0  0  0  0  0  0  0  0  0
   39.3550   29.4850   38.3700 C   0  0  0  0  0  0  0  0  0  0  0  0
   38.5110   30.4620   37.9150 C   0  0  0  0  0  0  0  0  0  0  0  0
   37.8070   31.0650   38.4920 H   0  0  0  0  0  0  0  0  0  0  0  0
   38.7280   30.5410   36.5370 C   0  0  0  0  0  0  0  0  0  0  0  0
   38.1670   31.2560   35.9320 H   0  0  0  0  0  0  0  0  0  0  0  0
   39.7040   29.5920   36.2470 C   0  0  0  0  0  0  0  0  0  0  0  0
   39.9750   29.5410   35.2010 H   0  0  0  0  0  0  0  0  0  0  0  0
   40.0500   28.9890   37.3540 O   0  0  0  0  0  0  0  0  0  0  0  0
  1  5  1  0  0  0  0
  1 23  1  0  0  0  0
  2  1  1  0  0  0  0
  3  1  1  0  0  0  0
  4  5  2  0  0  0  0
  4  9  1  0  0  0  0
  5  6  1  0  0  0  0
  6 10  1  0  0  0  0
  6  7  2  0  0  0  0
  7 11  1  0  0  0  0
  8  7  1  0  0  0  0
  8 12  1  0  0  0  0
  9  8  2  0  0  0  0
 13  9  1  0  0  0  0
 14 20  1  0  0  0  0
 14 15  1  0  0  0  0
 15 21  1  0  0  0  0
 16 15  2  0  0  0  0
 16  4  1  0  0  0  0
 17 16  1  0  0  0  0
 18 19  1  0  0  0  0
 18 17  2  0  0  0  0
 19 14  2  0  0  0  0
 22 18  1  0  0  0  0
 23 24  1  0  0  0  0
 25 23  1  0  0  0  0
 25 26  1  0  0  0  0
 25 28  1  0  0  0  0
 27 26  1  0  0  0  0
 28 29  1  0  0  0  0
 30 25  1  0  0  0  0
 31 30  1  0  0  0  0
 31 33  1  0  0  0  0
 32 31  1  0  0  0  0
 34 35  1  0  0  0  0
 34 36  1  0  0  0  0
 34 31  1  0  0  0  0
 37 34  1  0  0  0  0
 38 37  2  0  0  0  0
 38 39  1  0  0  0  0
 40 38  1  0  0  0  0
 41 40  1  0  0  0  0
 42 40  2  0  0  0  0
 42 44  1  0  0  0  0
 43 42  1  0  0  0  0
 44 37  1  0  0  0  0
M  END
>  <minimizedAffinity>
-5.01532316

>  <minimizedRMSD>
1.6001296

$$$$
