
 OpenBabel03252508033D

 41 44  0  0  1  0  0  0  0  0999 V2000
   42.1760   33.2820   41.1240 C   0  0  0  0  0  0  0  0  0  0  0  0
   42.8540   34.4400   41.3600 C   0  0  0  0  0  0  0  0  0  0  0  0
   42.1340   35.6460   41.3490 C   0  0  0  0  0  0  0  0  0  0  0  0
   40.7810   35.7130   41.1150 C   0  0  0  0  0  0  0  0  0  0  0  0
   40.1080   34.5480   40.8800 C   0  0  0  0  0  0  0  0  0  0  0  0
   40.7980   33.3750   40.8880 C   0  0  0  0  0  0  0  0  0  0  0  0
   42.6000   36.6080   41.5200 H   0  0  0  0  0  0  0  0  0  0  0  0
   40.2430   36.6230   41.1070 H   0  0  0  0  0  0  0  0  0  0  0  0
   39.0470   34.5100   40.6860 H   0  0  0  0  0  0  0  0  0  0  0  0
   40.2440   32.4390   40.6970 H   0  0  0  0  0  0  0  0  0  0  0  0
   42.9060   31.7610   41.1610 S   0  0  0  0  0  0  0  0  0  0  0  0
   41.8650   30.8970   40.4170 O   0  0  0  0  0  0  0  0  0  0  0  0
   43.0240   31.2100   42.5420 O   0  0  0  0  0  0  0  0  0  0  0  0
   44.1030   31.1590   40.1090 C   0  0  0  0  0  0  0  0  0  0  0  0
   44.1250   31.6600   38.7810 C   0  0  0  0  0  0  0  0  0  0  0  0
   43.5030   32.3890   38.2430 H   0  0  0  0  0  0  0  0  0  0  0  0
   45.1550   31.0510   38.1300 C   0  0  0  0  0  0  0  0  0  0  0  0
   45.4870   31.1730   37.1050 H   0  0  0  0  0  0  0  0  0  0  0  0
   45.7540   30.2100   39.0020 C   0  0  0  0  0  0  0  0  0  0  0  0
   46.5730   29.5350   38.9720 H   0  0  0  0  0  0  0  0  0  0  0  0
   45.1130   30.3110   40.1220 O   0  0  0  0  0  0  0  0  0  0  0  0
   44.2950   34.4620   41.6120 C   0  0  0  0  0  0  0  0  0  0  0  0
   45.1950   34.4320   40.6980 O   0  0  0  0  0  0  0  0  0  0  0  0
   44.6140   34.5240   43.0110 C   0  0  0  0  0  0  0  0  0  0  0  0
   44.3070   35.7400   43.6730 C   0  0  0  0  0  0  0  0  0  0  0  0
   44.6020   35.8120   45.0250 C   0  0  0  0  0  0  0  0  0  0  0  0
   45.1600   34.7270   45.6300 N   0  0  0  0  0  0  0  0  0  0  0  0
   45.4390   33.5730   44.9510 C   0  0  0  0  0  0  0  0  0  0  0  0
   45.1580   33.5310   43.6990 N   0  0  0  0  0  0  0  0  0  0  0  0
   43.8790   36.6260   43.2870 H   0  0  0  0  0  0  0  0  0  0  0  0
   44.4150   36.6850   45.6430 H   0  0  0  0  0  0  0  0  0  0  0  0
   46.0340   32.4410   45.6920 C   0  0  1  0  0  0  0  0  0  0  0  0
   46.9770   32.7310   46.8370 C   0  0  0  0  0  0  0  0  0  0  0  0
   45.5570   32.3060   47.0920 C   0  0  1  0  0  0  0  0  0  0  0  0
   46.1580   31.4840   45.1560 H   0  0  0  0  0  0  0  0  0  0  0  0
   47.7080   31.9160   47.0600 H   0  0  0  0  0  0  0  0  0  0  0  0
   47.3140   33.7540   47.0550 H   0  0  0  0  0  0  0  0  0  0  0  0
   45.3400   31.3090   47.5340 H   0  0  0  0  0  0  0  0  0  0  0  0
   44.7700   33.3550   47.7010 N   0  0  0  0  0  0  0  0  0  0  0  0
   45.3450   33.9290   48.3500 H   0  0  0  0  0  0  0  0  0  0  0  0
   43.8660   33.0550   48.0910 H   0  0  0  0  0  0  0  0  0  0  0  0
  1 11  1  0  0  0  0
  1  2  1  0  0  0  0
  2 22  1  0  0  0  0
  3  2  2  0  0  0  0
  3  7  1  0  0  0  0
  4  3  1  0  0  0  0
  5  6  1  0  0  0  0
  5  4  2  0  0  0  0
  6  1  2  0  0  0  0
  8  4  1  0  0  0  0
  9  5  1  0  0  0  0
 10  6  1  0  0  0  0
 11 13  2  0  0  0  0
 12 11  2  0  0  0  0
 14 21  1  0  0  0  0
 14 11  1  0  0  0  0
 15 14  2  0  0  0  0
 16 15  1  0  0  0  0
 17 15  1  0  0  0  0
 17 19  2  0  0  0  0
 18 17  1  0  0  0  0
 19 21  1  0  0  0  0
 20 19  1  0  0  0  0
 22 24  1  0  0  0  0
 23 22  2  0  0  0  0
 24 25  2  0  0  0  0
 24 29  1  0  0  0  0
 25 26  1  0  0  0  0
 26 27  2  0  0  0  0
 26 31  1  0  0  0  0
 28 27  1  0  0  0  0
 28 32  1  0  0  0  0
 29 28  2  0  0  0  0
 30 25  1  0  0  0  0
 32 35  1  6  0  0  0
 32 33  1  0  0  0  0
 32 34  1  0  0  0  0
 33 37  1  0  0  0  0
 33 36  1  0  0  0  0
 33 34  1  0  0  0  0
 34 38  1  1  0  0  0
 34 39  1  0  0  0  0
 39 41  1  0  0  0  0
 39 40  1  0  0  0  0
M  END
>  <minimizedAffinity>
-5.70041609

>  <minimizedRMSD>
1.12885034

$$$$
