
 OpenBabel03252509273D

 29 31  0  0  1  0  0  0  0  0999 V2000
   37.5220   32.2480   39.7440 C   0  0  1  0  0  0  0  0  0  0  0  0
   37.0120   31.2790   38.6460 C   0  0  0  0  0  0  0  0  0  0  0  0
   37.3380   30.9090   40.1240 C   0  0  2  0  0  0  0  0  0  0  0  0
   36.7900   33.0520   39.9210 H   0  0  0  0  0  0  0  0  0  0  0  0
   35.9300   31.2620   38.4550 H   0  0  0  0  0  0  0  0  0  0  0  0
   37.7220   30.8940   37.9070 H   0  0  0  0  0  0  0  0  0  0  0  0
   38.2500   30.2560   40.2470 H   0  0  0  0  0  0  0  0  0  0  0  0
   40.8280   34.0040   39.9270 C   0  0  0  0  0  0  0  0  0  0  0  0
   39.5030   33.6260   40.2670 C   0  0  0  0  0  0  0  0  0  0  0  0
   38.9080   32.7410   39.4230 C   0  0  0  0  0  0  0  0  0  0  0  0
   39.5570   32.2540   38.3140 N   0  0  0  0  0  0  0  0  0  0  0  0
   40.8180   32.6410   38.0260 C   0  0  0  0  0  0  0  0  0  0  0  0
   41.4540   33.5190   38.8360 N   0  0  0  0  0  0  0  0  0  0  0  0
   41.3230   34.7090   40.5900 H   0  0  0  0  0  0  0  0  0  0  0  0
   41.3610   32.2840   37.1660 H   0  0  0  0  0  0  0  0  0  0  0  0
   38.8450   34.1600   41.3990 N   0  0  0  0  0  0  0  0  0  0  0  0
   38.9240   33.9820   42.4220 H   0  0  0  0  0  0  0  0  0  0  0  0
   38.1720   34.8630   40.9690 H   0  0  0  0  0  0  0  0  0  0  0  0
   36.2030   30.4800   41.0240 C   0  0  0  0  0  0  0  0  0  0  0  0
   35.3890   30.0800   40.4200 H   0  0  0  0  0  0  0  0  0  0  0  0
   35.8410   31.3130   41.6620 H   0  0  0  0  0  0  0  0  0  0  0  0
   36.7720   29.3890   41.8790 C   0  0  0  0  0  0  0  0  0  0  0  0
   37.9160   29.4330   42.6400 C   0  0  0  0  0  0  0  0  0  0  0  0
   38.5680   30.2750   42.7250 H   0  0  0  0  0  0  0  0  0  0  0  0
   38.0280   28.1910   43.2490 C   0  0  0  0  0  0  0  0  0  0  0  0
   38.8230   27.8860   43.9220 H   0  0  0  0  0  0  0  0  0  0  0  0
   36.9320   27.4510   42.8190 C   0  0  0  0  0  0  0  0  0  0  0  0
   36.8070   26.4410   43.1670 H   0  0  0  0  0  0  0  0  0  0  0  0
   36.2200   28.1970   42.0140 O   0  0  0  0  0  0  0  0  0  0  0  0
  1  4  1  1  0  0  0
  1  3  1  0  0  0  0
  2  1  1  0  0  0  0
  2  3  1  0  0  0  0
  3  7  1  1  0  0  0
  3 19  1  0  0  0  0
  5  2  1  0  0  0  0
  6  2  1  0  0  0  0
  8  9  1  0  0  0  0
  8 14  1  0  0  0  0
  9 16  1  0  0  0  0
 10  1  1  0  0  0  0
 10  9  2  0  0  0  0
 11 10  1  0  0  0  0
 12 11  2  0  0  0  0
 12 13  1  0  0  0  0
 13  8  2  0  0  0  0
 15 12  1  0  0  0  0
 16 17  1  0  0  0  0
 18 16  1  0  0  0  0
 19 21  1  0  0  0  0
 19 22  1  0  0  0  0
 20 19  1  0  0  0  0
 22 29  1  0  0  0  0
 22 23  2  0  0  0  0
 23 24  1  0  0  0  0
 23 25  1  0  0  0  0
 25 26  1  0  0  0  0
 27 28  1  0  0  0  0
 27 25  2  0  0  0  0
 29 27  1  0  0  0  0
M  END
>  <minimizedAffinity>
-4.99169588

$$$$

 OpenBabel03252509273D

 29 31  0  0  1  0  0  0  0  0999 V2000
   37.1460   26.6540   42.3260 C   0  0  1  0  0  0  0  0  0  0  0  0
   36.4180   27.4160   43.4650 C   0  0  0  0  0  0  0  0  0  0  0  0
   36.8690   28.0120   42.0960 C   0  0  2  0  0  0  0  0  0  0  0  0
   36.5260   25.8210   41.9600 H   0  0  0  0  0  0  0  0  0  0  0  0
   35.3260   27.3110   43.5190 H   0  0  0  0  0  0  0  0  0  0  0  0
   36.9970   27.7580   44.3280 H   0  0  0  0  0  0  0  0  0  0  0  0
   37.7150   28.7530   42.1710 H   0  0  0  0  0  0  0  0  0  0  0  0
   40.2390   24.6470   42.9970 C   0  0  0  0  0  0  0  0  0  0  0  0
   38.9030   24.9450   42.6220 C   0  0  0  0  0  0  0  0  0  0  0  0
   38.5310   26.2460   42.7540 C   0  0  0  0  0  0  0  0  0  0  0  0
   39.4000   27.2010   43.2240 N   0  0  0  0  0  0  0  0  0  0  0  0
   40.6640   26.8740   43.5710 C   0  0  0  0  0  0  0  0  0  0  0  0
   41.0830   25.5930   43.4560 N   0  0  0  0  0  0  0  0  0  0  0  0
   40.5590   23.6120   42.8970 H   0  0  0  0  0  0  0  0  0  0  0  0
   41.3760   27.5920   43.9440 H   0  0  0  0  0  0  0  0  0  0  0  0
   38.0170   23.9410   42.1660 N   0  0  0  0  0  0  0  0  0  0  0  0
   37.9230   23.4260   41.2660 H   0  0  0  0  0  0  0  0  0  0  0  0
   37.3880   23.7840   43.0080 H   0  0  0  0  0  0  0  0  0  0  0  0
   35.8030   28.4570   41.1220 C   0  0  0  0  0  0  0  0  0  0  0  0
   34.8690   28.6310   41.6560 H   0  0  0  0  0  0  0  0  0  0  0  0
   35.6540   27.7220   40.3050 H   0  0  0  0  0  0  0  0  0  0  0  0
   36.3050   29.7530   40.5610 C   0  0  0  0  0  0  0  0  0  0  0  0
   36.4100   30.1060   39.2360 C   0  0  0  0  0  0  0  0  0  0  0  0
   36.1410   29.4850   38.4100 H   0  0  0  0  0  0  0  0  0  0  0  0
   36.9230   31.3960   39.2150 C   0  0  0  0  0  0  0  0  0  0  0  0
   37.1310   31.9780   38.3240 H   0  0  0  0  0  0  0  0  0  0  0  0
   37.1020   31.7600   40.5450 C   0  0  0  0  0  0  0  0  0  0  0  0
   37.4950   32.7350   40.7770 H   0  0  0  0  0  0  0  0  0  0  0  0
   36.7250   30.7620   41.3020 O   0  0  0  0  0  0  0  0  0  0  0  0
  1  4  1  6  0  0  0
  1 10  1  0  0  0  0
  1  2  1  0  0  0  0
  2  5  1  0  0  0  0
  2  6  1  0  0  0  0
  3  7  1  1  0  0  0
  3  1  1  0  0  0  0
  3  2  1  0  0  0  0
  8 13  1  0  0  0  0
  9 10  1  0  0  0  0
  9  8  2  0  0  0  0
 10 11  2  0  0  0  0
 11 12  1  0  0  0  0
 12 15  1  0  0  0  0
 13 12  2  0  0  0  0
 14  8  1  0  0  0  0
 16  9  1  0  0  0  0
 16 18  1  0  0  0  0
 17 16  1  0  0  0  0
 19 20  1  0  0  0  0
 19  3  1  0  0  0  0
 21 19  1  0  0  0  0
 22 19  1  0  0  0  0
 22 29  1  0  0  0  0
 23 22  2  0  0  0  0
 24 23  1  0  0  0  0
 25 23  1  0  0  0  0
 25 27  2  0  0  0  0
 26 25  1  0  0  0  0
 27 28  1  0  0  0  0
 27 29  1  0  0  0  0
M  END
>  <minimizedAffinity>
-4.99084806

$$$$

 OpenBabel03252509273D

 29 31  0  0  1  0  0  0  0  0999 V2000
   36.2520   28.4120   40.5250 C   0  0  1  0  0  0  0  0  0  0  0  0
   36.5900   27.0480   39.8680 C   0  0  0  0  0  0  0  0  0  0  0  0
   37.2320   27.6330   41.1620 C   0  0  2  0  0  0  0  0  0  0  0  0
   35.1930   28.4460   40.8240 H   0  0  0  0  0  0  0  0  0  0  0  0
   35.9230   26.2040   40.0950 H   0  0  0  0  0  0  0  0  0  0  0  0
   37.2480   27.0290   38.9950 H   0  0  0  0  0  0  0  0  0  0  0  0
   38.3140   27.9320   41.0470 H   0  0  0  0  0  0  0  0  0  0  0  0
   36.9510   31.8490   39.2050 C   0  0  0  0  0  0  0  0  0  0  0  0
   36.4780   30.8280   40.0700 C   0  0  0  0  0  0  0  0  0  0  0  0
   36.6770   29.5540   39.6400 C   0  0  0  0  0  0  0  0  0  0  0  0
   37.2950   29.2840   38.4430 N   0  0  0  0  0  0  0  0  0  0  0  0
   37.7290   30.2860   37.6480 C   0  0  0  0  0  0  0  0  0  0  0  0
   37.5560   31.5730   38.0330 N   0  0  0  0  0  0  0  0  0  0  0  0
   36.8040   32.8760   39.5310 H   0  0  0  0  0  0  0  0  0  0  0  0
   38.2170   30.1180   36.7020 H   0  0  0  0  0  0  0  0  0  0  0  0
   35.8200   31.1290   41.2860 N   0  0  0  0  0  0  0  0  0  0  0  0
   36.1530   31.4580   42.2160 H   0  0  0  0  0  0  0  0  0  0  0  0
   34.8010   30.9370   41.0540 H   0  0  0  0  0  0  0  0  0  0  0  0
   36.9690   26.9320   42.4740 C   0  0  0  0  0  0  0  0  0  0  0  0
   36.2310   26.1440   42.3260 H   0  0  0  0  0  0  0  0  0  0  0  0
   36.6340   27.6370   43.2630 H   0  0  0  0  0  0  0  0  0  0  0  0
   38.2820   26.3190   42.8590 C   0  0  0  0  0  0  0  0  0  0  0  0
   39.2990   26.9010   43.5770 C   0  0  0  0  0  0  0  0  0  0  0  0
   39.2870   27.8950   43.9660 H   0  0  0  0  0  0  0  0  0  0  0  0
   40.3020   25.9470   43.6800 C   0  0  0  0  0  0  0  0  0  0  0  0
   41.2510   26.0790   44.1870 H   0  0  0  0  0  0  0  0  0  0  0  0
   39.8320   24.8220   43.0090 C   0  0  0  0  0  0  0  0  0  0  0  0
   40.4490   23.9420   42.9560 H   0  0  0  0  0  0  0  0  0  0  0  0
   38.6390   25.0870   42.5420 O   0  0  0  0  0  0  0  0  0  0  0  0
  1  4  1  1  0  0  0
  1  3  1  0  0  0  0
  2  5  1  0  0  0  0
  2  1  1  0  0  0  0
  2  3  1  0  0  0  0
  3  7  1  6  0  0  0
  3 19  1  0  0  0  0
  6  2  1  0  0  0  0
  8 14  1  0  0  0  0
  8  9  1  0  0  0  0
  9 16  1  0  0  0  0
 10  9  2  0  0  0  0
 10  1  1  0  0  0  0
 11 10  1  0  0  0  0
 12 13  1  0  0  0  0
 12 11  2  0  0  0  0
 13  8  2  0  0  0  0
 15 12  1  0  0  0  0
 16 17  1  0  0  0  0
 18 16  1  0  0  0  0
 19 22  1  0  0  0  0
 19 21  1  0  0  0  0
 20 19  1  0  0  0  0
 22 23  2  0  0  0  0
 23 25  1  0  0  0  0
 23 24  1  0  0  0  0
 25 26  1  0  0  0  0
 27 25  2  0  0  0  0
 28 27  1  0  0  0  0
 29 22  1  0  0  0  0
 29 27  1  0  0  0  0
M  END
>  <minimizedAffinity>
-4.97926855

$$$$

 OpenBabel03252509273D

 29 31  0  0  1  0  0  0  0  0999 V2000
   37.5170   29.0330   42.1760 C   0  0  1  0  0  0  0  0  0  0  0  0
   36.6830   27.7770   41.8130 C   0  0  0  0  0  0  0  0  0  0  0  0
   38.1660   27.7930   42.2910 C   0  0  2  0  0  0  0  0  0  0  0  0
   37.0570   29.5750   43.0150 H   0  0  0  0  0  0  0  0  0  0  0  0
   36.0130   27.3790   42.5890 H   0  0  0  0  0  0  0  0  0  0  0  0
   36.5410   27.5210   40.7590 H   0  0  0  0  0  0  0  0  0  0  0  0
   38.9110   27.5000   41.4950 H   0  0  0  0  0  0  0  0  0  0  0  0
   37.1860   31.6440   39.5070 C   0  0  0  0  0  0  0  0  0  0  0  0
   36.8610   30.8500   40.6380 C   0  0  0  0  0  0  0  0  0  0  0  0
   37.7630   29.8840   40.9570 C   0  0  0  0  0  0  0  0  0  0  0  0
   38.9100   29.6970   40.2250 N   0  0  0  0  0  0  0  0  0  0  0  0
   39.1810   30.4750   39.1550 C   0  0  0  0  0  0  0  0  0  0  0  0
   38.3150   31.4520   38.7970 N   0  0  0  0  0  0  0  0  0  0  0  0
   36.4800   32.4240   39.2350 H   0  0  0  0  0  0  0  0  0  0  0  0
   40.0690   30.3610   38.5530 H   0  0  0  0  0  0  0  0  0  0  0  0
   35.6610   31.0420   41.3620 N   0  0  0  0  0  0  0  0  0  0  0  0
   35.3490   31.7590   42.0500 H   0  0  0  0  0  0  0  0  0  0  0  0
   35.0600   30.2270   41.0390 H   0  0  0  0  0  0  0  0  0  0  0  0
   38.4950   27.1830   43.6330 C   0  0  0  0  0  0  0  0  0  0  0  0
   38.0110   26.2100   43.7210 H   0  0  0  0  0  0  0  0  0  0  0  0
   38.1970   27.8430   44.4740 H   0  0  0  0  0  0  0  0  0  0  0  0
   39.9820   27.0010   43.6260 C   0  0  0  0  0  0  0  0  0  0  0  0
   40.6810   25.8180   43.6770 C   0  0  0  0  0  0  0  0  0  0  0  0
   40.2430   24.8450   43.7290 H   0  0  0  0  0  0  0  0  0  0  0  0
   42.0270   26.1570   43.6450 C   0  0  0  0  0  0  0  0  0  0  0  0
   42.8560   25.4580   43.6710 H   0  0  0  0  0  0  0  0  0  0  0  0
   42.0720   27.5460   43.5760 C   0  0  0  0  0  0  0  0  0  0  0  0
   43.0260   28.0420   43.5410 H   0  0  0  0  0  0  0  0  0  0  0  0
   40.8450   28.0000   43.5670 O   0  0  0  0  0  0  0  0  0  0  0  0
  1  3  1  0  0  0  0
  1  4  1  1  0  0  0
  2  1  1  0  0  0  0
  2  3  1  0  0  0  0
  2  5  1  0  0  0  0
  3  7  1  6  0  0  0
  3 19  1  0  0  0  0
  6  2  1  0  0  0  0
  8  9  1  0  0  0  0
  9 10  2  0  0  0  0
  9 16  1  0  0  0  0
 10  1  1  0  0  0  0
 11 10  1  0  0  0  0
 12 11  2  0  0  0  0
 13 12  1  0  0  0  0
 13  8  2  0  0  0  0
 14  8  1  0  0  0  0
 15 12  1  0  0  0  0
 16 17  1  0  0  0  0
 18 16  1  0  0  0  0
 19 20  1  0  0  0  0
 19 21  1  0  0  0  0
 22 19  1  0  0  0  0
 22 23  2  0  0  0  0
 23 24  1  0  0  0  0
 25 26  1  0  0  0  0
 25 23  1  0  0  0  0
 27 25  2  0  0  0  0
 28 27  1  0  0  0  0
 29 27  1  0  0  0  0
 29 22  1  0  0  0  0
M  END
>  <minimizedAffinity>
-4.68047571

$$$$

 OpenBabel03252509273D

 29 31  0  0  1  0  0  0  0  0999 V2000
   38.5740   29.0220   42.8800 C   0  0  1  0  0  0  0  0  0  0  0  0
   37.3540   28.4940   43.6800 C   0  0  0  0  0  0  0  0  0  0  0  0
   38.1360   27.7230   42.5740 C   0  0  2  0  0  0  0  0  0  0  0  0
   39.4090   29.2540   43.5570 H   0  0  0  0  0  0  0  0  0  0  0  0
   37.5510   28.0780   44.6780 H   0  0  0  0  0  0  0  0  0  0  0  0
   36.3500   28.8190   43.3920 H   0  0  0  0  0  0  0  0  0  0  0  0
   37.5530   27.5630   41.6220 H   0  0  0  0  0  0  0  0  0  0  0  0
   38.6180   32.2100   40.9090 C   0  0  0  0  0  0  0  0  0  0  0  0
   39.0430   31.1950   41.8060 C   0  0  0  0  0  0  0  0  0  0  0  0
   38.1740   30.1660   41.9850 C   0  0  0  0  0  0  0  0  0  0  0  0
   36.9630   30.1220   41.3360 N   0  0  0  0  0  0  0  0  0  0  0  0
   36.5970   31.1090   40.4910 C   0  0  0  0  0  0  0  0  0  0  0  0
   37.4280   32.1560   40.2770 N   0  0  0  0  0  0  0  0  0  0  0  0
   39.3000   33.0420   40.7490 H   0  0  0  0  0  0  0  0  0  0  0  0
   35.6570   31.1140   39.9630 H   0  0  0  0  0  0  0  0  0  0  0  0
   40.2820   31.2740   42.4840 N   0  0  0  0  0  0  0  0  0  0  0  0
   41.2690   31.1210   42.1890 H   0  0  0  0  0  0  0  0  0  0  0  0
   39.9930   31.5520   43.4680 H   0  0  0  0  0  0  0  0  0  0  0  0
   38.9240   26.4980   42.9740 C   0  0  0  0  0  0  0  0  0  0  0  0
   38.8160   26.3270   44.0450 H   0  0  0  0  0  0  0  0  0  0  0  0
   39.9960   26.5860   42.7010 H   0  0  0  0  0  0  0  0  0  0  0  0
   38.2940   25.3650   42.2220 C   0  0  0  0  0  0  0  0  0  0  0  0
   38.9110   24.2340   41.7420 C   0  0  0  0  0  0  0  0  0  0  0  0
   39.9500   24.0080   41.8440 H   0  0  0  0  0  0  0  0  0  0  0  0
   37.9220   23.4840   41.1200 C   0  0  0  0  0  0  0  0  0  0  0  0
   38.0690   22.5260   40.6320 H   0  0  0  0  0  0  0  0  0  0  0  0
   36.7440   24.2100   41.2600 C   0  0  0  0  0  0  0  0  0  0  0  0
   35.8300   23.8170   40.8490 H   0  0  0  0  0  0  0  0  0  0  0  0
   37.0110   25.3100   41.9150 O   0  0  0  0  0  0  0  0  0  0  0  0
  1  4  1  1  0  0  0
  1  2  1  0  0  0  0
  2  5  1  0  0  0  0
  3  7  1  6  0  0  0
  3  1  1  0  0  0  0
  3 19  1  0  0  0  0
  3  2  1  0  0  0  0
  6  2  1  0  0  0  0
  8  9  1  0  0  0  0
  9 10  2  0  0  0  0
  9 16  1  0  0  0  0
 10  1  1  0  0  0  0
 11 10  1  0  0  0  0
 12 11  2  0  0  0  0
 13 12  1  0  0  0  0
 13  8  2  0  0  0  0
 14  8  1  0  0  0  0
 15 12  1  0  0  0  0
 16 18  1  0  0  0  0
 17 16  1  0  0  0  0
 19 20  1  0  0  0  0
 21 19  1  0  0  0  0
 22 19  1  0  0  0  0
 23 24  1  0  0  0  0
 23 22  2  0  0  0  0
 25 27  2  0  0  0  0
 25 23  1  0  0  0  0
 26 25  1  0  0  0  0
 27 29  1  0  0  0  0
 28 27  1  0  0  0  0
 29 22  1  0  0  0  0
M  END
>  <minimizedAffinity>
-4.6705966

$$$$

 OpenBabel03252509273D

 29 31  0  0  1  0  0  0  0  0999 V2000
   39.4040   30.5770   42.5610 C   0  0  1  0  0  0  0  0  0  0  0  0
   40.9420   30.4170   42.6900 C   0  0  0  0  0  0  0  0  0  0  0  0
   40.1590   30.7960   41.3970 C   0  0  2  0  0  0  0  0  0  0  0  0
   39.0400   31.3750   43.2260 H   0  0  0  0  0  0  0  0  0  0  0  0
   41.5030   31.2740   43.0890 H   0  0  0  0  0  0  0  0  0  0  0  0
   41.3720   29.4110   42.6910 H   0  0  0  0  0  0  0  0  0  0  0  0
   40.1650   29.9960   40.6020 H   0  0  0  0  0  0  0  0  0  0  0  0
   36.8140   27.8690   42.6060 C   0  0  0  0  0  0  0  0  0  0  0  0
   37.3870   29.1580   42.4500 C   0  0  0  0  0  0  0  0  0  0  0  0
   38.7090   29.2550   42.7520 C   0  0  0  0  0  0  0  0  0  0  0  0
   39.4330   28.1690   43.1820 N   0  0  0  0  0  0  0  0  0  0  0  0
   38.8480   26.9590   43.3180 C   0  0  0  0  0  0  0  0  0  0  0  0
   37.5340   26.8100   43.0280 N   0  0  0  0  0  0  0  0  0  0  0  0
   35.7580   27.7680   42.3680 H   0  0  0  0  0  0  0  0  0  0  0  0
   39.3800   26.0830   43.6530 H   0  0  0  0  0  0  0  0  0  0  0  0
   36.6170   30.2680   42.0320 N   0  0  0  0  0  0  0  0  0  0  0  0
   36.2360   30.5660   41.1100 H   0  0  0  0  0  0  0  0  0  0  0  0
   36.4780   30.8100   42.9350 H   0  0  0  0  0  0  0  0  0  0  0  0
   40.3560   32.1770   40.8180 C   0  0  0  0  0  0  0  0  0  0  0  0
   41.1660   32.1570   40.0890 H   0  0  0  0  0  0  0  0  0  0  0  0
   40.5600   32.9330   41.6050 H   0  0  0  0  0  0  0  0  0  0  0  0
   39.0680   32.4970   40.1230 C   0  0  0  0  0  0  0  0  0  0  0  0
   38.4220   31.7450   39.1700 C   0  0  0  0  0  0  0  0  0  0  0  0
   38.7640   30.8070   38.7890 H   0  0  0  0  0  0  0  0  0  0  0  0
   37.2740   32.4470   38.8280 C   0  0  0  0  0  0  0  0  0  0  0  0
   36.5350   32.1330   38.1000 H   0  0  0  0  0  0  0  0  0  0  0  0
   37.2860   33.6020   39.6040 C   0  0  0  0  0  0  0  0  0  0  0  0
   36.4820   34.3100   39.5080 H   0  0  0  0  0  0  0  0  0  0  0  0
   38.3600   33.5890   40.3500 O   0  0  0  0  0  0  0  0  0  0  0  0
  1  2  1  0  0  0  0
  1 10  1  0  0  0  0
  1  4  1  1  0  0  0
  2  6  1  0  0  0  0
  2  5  1  0  0  0  0
  3  7  1  6  0  0  0
  3  1  1  0  0  0  0
  3  2  1  0  0  0  0
  8 13  1  0  0  0  0
  9  8  2  0  0  0  0
  9 10  1  0  0  0  0
 10 11  2  0  0  0  0
 11 12  1  0  0  0  0
 12 15  1  0  0  0  0
 13 12  2  0  0  0  0
 14  8  1  0  0  0  0
 16  9  1  0  0  0  0
 16 18  1  0  0  0  0
 17 16  1  0  0  0  0
 19  3  1  0  0  0  0
 19 21  1  0  0  0  0
 20 19  1  0  0  0  0
 22 29  1  0  0  0  0
 22 19  1  0  0  0  0
 23 22  2  0  0  0  0
 24 23  1  0  0  0  0
 25 23  1  0  0  0  0
 25 27  2  0  0  0  0
 26 25  1  0  0  0  0
 27 29  1  0  0  0  0
 28 27  1  0  0  0  0
M  END
>  <minimizedAffinity>
-4.48982191

$$$$

 OpenBabel03252509273D

 29 31  0  0  1  0  0  0  0  0999 V2000
   38.2010   30.3430   39.1230 C   0  0  1  0  0  0  0  0  0  0  0  0
   39.3180   29.4530   38.5180 C   0  0  0  0  0  0  0  0  0  0  0  0
   38.6250   29.2510   39.8990 C   0  0  2  0  0  0  0  0  0  0  0  0
   37.3100   30.3390   38.4770 H   0  0  0  0  0  0  0  0  0  0  0  0
   39.0100   28.6840   37.7950 H   0  0  0  0  0  0  0  0  0  0  0  0
   40.3560   29.7970   38.5700 H   0  0  0  0  0  0  0  0  0  0  0  0
   39.2930   29.4500   40.7850 H   0  0  0  0  0  0  0  0  0  0  0  0
   38.5100   33.8390   40.4370 C   0  0  0  0  0  0  0  0  0  0  0  0
   37.9300   32.5800   40.1320 C   0  0  0  0  0  0  0  0  0  0  0  0
   38.7230   31.7200   39.4390 C   0  0  0  0  0  0  0  0  0  0  0  0
   40.0000   32.0590   39.0620 N   0  0  0  0  0  0  0  0  0  0  0  0
   40.5130   33.2690   39.3710 C   0  0  0  0  0  0  0  0  0  0  0  0
   39.7650   34.1610   40.0610 N   0  0  0  0  0  0  0  0  0  0  0  0
   37.8940   34.5420   40.9920 H   0  0  0  0  0  0  0  0  0  0  0  0
   41.5090   33.5750   39.0930 H   0  0  0  0  0  0  0  0  0  0  0  0
   36.6050   32.2620   40.5070 N   0  0  0  0  0  0  0  0  0  0  0  0
   36.1610   32.0000   41.4120 H   0  0  0  0  0  0  0  0  0  0  0  0
   36.0740   32.3480   39.5890 H   0  0  0  0  0  0  0  0  0  0  0  0
   37.7620   28.0270   40.0960 C   0  0  0  0  0  0  0  0  0  0  0  0
   38.2490   27.1600   39.6490 H   0  0  0  0  0  0  0  0  0  0  0  0
   36.7440   28.1620   39.6750 H   0  0  0  0  0  0  0  0  0  0  0  0
   37.6810   27.8410   41.5820 C   0  0  0  0  0  0  0  0  0  0  0  0
   36.5630   27.9330   42.3760 C   0  0  0  0  0  0  0  0  0  0  0  0
   35.5770   28.1560   42.0300 H   0  0  0  0  0  0  0  0  0  0  0  0
   36.9850   27.6830   43.6750 C   0  0  0  0  0  0  0  0  0  0  0  0
   36.3510   27.6770   44.5550 H   0  0  0  0  0  0  0  0  0  0  0  0
   38.3540   27.4490   43.5960 C   0  0  0  0  0  0  0  0  0  0  0  0
   38.9040   27.2290   44.4940 H   0  0  0  0  0  0  0  0  0  0  0  0
   38.7200   27.5520   42.3450 O   0  0  0  0  0  0  0  0  0  0  0  0
  1  4  1  6  0  0  0
  1 10  1  0  0  0  0
  1  3  1  0  0  0  0
  2  6  1  0  0  0  0
  2  1  1  0  0  0  0
  2  3  1  0  0  0  0
  3 19  1  0  0  0  0
  3  7  1  1  0  0  0
  5  2  1  0  0  0  0
  8 14  1  0  0  0  0
  9  8  1  0  0  0  0
  9 16  1  0  0  0  0
 10  9  2  0  0  0  0
 11 12  2  0  0  0  0
 11 10  1  0  0  0  0
 12 13  1  0  0  0  0
 13  8  2  0  0  0  0
 15 12  1  0  0  0  0
 16 17  1  0  0  0  0
 18 16  1  0  0  0  0
 19 22  1  0  0  0  0
 20 19  1  0  0  0  0
 21 19  1  0  0  0  0
 22 29  1  0  0  0  0
 22 23  2  0  0  0  0
 23 25  1  0  0  0  0
 24 23  1  0  0  0  0
 25 26  1  0  0  0  0
 27 25  2  0  0  0  0
 27 28  1  0  0  0  0
 29 27  1  0  0  0  0
M  END
>  <minimizedAffinity>
-4.48827839

$$$$

 OpenBabel03252509273D

 29 31  0  0  1  0  0  0  0  0999 V2000
   38.7360   31.1580   39.0780 C   0  0  1  0  0  0  0  0  0  0  0  0
   37.8200   30.1100   38.3930 C   0  0  0  0  0  0  0  0  0  0  0  0
   38.1660   30.1800   39.9110 C   0  0  2  0  0  0  0  0  0  0  0  0
   38.3330   32.1720   38.9430 H   0  0  0  0  0  0  0  0  0  0  0  0
   36.7780   30.4040   38.2030 H   0  0  0  0  0  0  0  0  0  0  0  0
   38.2790   29.2760   37.8540 H   0  0  0  0  0  0  0  0  0  0  0  0
   38.8200   29.3370   40.2750 H   0  0  0  0  0  0  0  0  0  0  0  0
   41.9490   31.5070   37.1800 C   0  0  0  0  0  0  0  0  0  0  0  0
   40.5780   31.6640   37.5140 C   0  0  0  0  0  0  0  0  0  0  0  0
   40.1640   30.9990   38.6250 C   0  0  0  0  0  0  0  0  0  0  0  0
   41.0240   30.2260   39.3670 N   0  0  0  0  0  0  0  0  0  0  0  0
   42.3210   30.1020   39.0130 C   0  0  0  0  0  0  0  0  0  0  0  0
   42.7840   30.7460   37.9150 N   0  0  0  0  0  0  0  0  0  0  0  0
   42.3020   32.0320   36.2960 H   0  0  0  0  0  0  0  0  0  0  0  0
   43.0280   29.5050   39.5660 H   0  0  0  0  0  0  0  0  0  0  0  0
   39.7040   32.4440   36.7220 N   0  0  0  0  0  0  0  0  0  0  0  0
   39.5670   33.4690   36.6060 H   0  0  0  0  0  0  0  0  0  0  0  0
   39.1430   31.7070   36.1990 H   0  0  0  0  0  0  0  0  0  0  0  0
   37.0590   30.5070   40.8850 C   0  0  0  0  0  0  0  0  0  0  0  0
   36.1030   30.5220   40.3620 H   0  0  0  0  0  0  0  0  0  0  0  0
   37.2330   31.4710   41.4060 H   0  0  0  0  0  0  0  0  0  0  0  0
   37.0660   29.3820   41.8760 C   0  0  0  0  0  0  0  0  0  0  0  0
   36.3540   28.2080   41.8150 C   0  0  0  0  0  0  0  0  0  0  0  0
   35.6810   27.9360   41.0310 H   0  0  0  0  0  0  0  0  0  0  0  0
   36.6890   27.4860   42.9520 C   0  0  0  0  0  0  0  0  0  0  0  0
   36.3040   26.5080   43.2170 H   0  0  0  0  0  0  0  0  0  0  0  0
   37.6010   28.2720   43.6500 C   0  0  0  0  0  0  0  0  0  0  0  0
   38.0060   27.9110   44.5790 H   0  0  0  0  0  0  0  0  0  0  0  0
   37.7920   29.3790   42.9800 O   0  0  0  0  0  0  0  0  0  0  0  0
  1  4  1  1  0  0  0
  1  3  1  0  0  0  0
  2  1  1  0  0  0  0
  2  3  1  0  0  0  0
  3  7  1  1  0  0  0
  3 19  1  0  0  0  0
  5  2  1  0  0  0  0
  6  2  1  0  0  0  0
  8  9  2  0  0  0  0
  8 13  1  0  0  0  0
  9 10  1  0  0  0  0
 10  1  1  0  0  0  0
 10 11  2  0  0  0  0
 12 11  1  0  0  0  0
 12 15  1  0  0  0  0
 13 12  2  0  0  0  0
 14  8  1  0  0  0  0
 16  9  1  0  0  0  0
 17 16  1  0  0  0  0
 18 16  1  0  0  0  0
 19 21  1  0  0  0  0
 19 22  1  0  0  0  0
 20 19  1  0  0  0  0
 22 29  1  0  0  0  0
 23 22  2  0  0  0  0
 23 25  1  0  0  0  0
 24 23  1  0  0  0  0
 25 26  1  0  0  0  0
 25 27  2  0  0  0  0
 27 28  1  0  0  0  0
 29 27  1  0  0  0  0
M  END
>  <minimizedAffinity>
-4.41811228

$$$$

 OpenBabel03252509273D

 29 31  0  0  1  0  0  0  0  0999 V2000
   36.2350   29.4160   38.7370 C   0  0  1  0  0  0  0  0  0  0  0  0
   36.6280   28.8700   37.3400 C   0  0  0  0  0  0  0  0  0  0  0  0
   36.8800   28.1690   38.7080 C   0  0  2  0  0  0  0  0  0  0  0  0
   35.1450   29.5520   38.8070 H   0  0  0  0  0  0  0  0  0  0  0  0
   35.8440   28.3590   36.7630 H   0  0  0  0  0  0  0  0  0  0  0  0
   37.5250   29.2620   36.8500 H   0  0  0  0  0  0  0  0  0  0  0  0
   37.9660   28.1190   39.0090 H   0  0  0  0  0  0  0  0  0  0  0  0
   37.5960   32.4230   40.5130 C   0  0  0  0  0  0  0  0  0  0  0  0
   36.7730   31.2990   40.2410 C   0  0  0  0  0  0  0  0  0  0  0  0
   37.0290   30.6510   39.0740 C   0  0  0  0  0  0  0  0  0  0  0  0
   38.0220   31.0660   38.2200 N   0  0  0  0  0  0  0  0  0  0  0  0
   38.7830   32.1420   38.5160 C   0  0  0  0  0  0  0  0  0  0  0  0
   38.5680   32.8220   39.6680 N   0  0  0  0  0  0  0  0  0  0  0  0
   37.4090   32.9560   41.4420 H   0  0  0  0  0  0  0  0  0  0  0  0
   39.5700   32.5020   37.8740 H   0  0  0  0  0  0  0  0  0  0  0  0
   35.7380   30.9050   41.1210 N   0  0  0  0  0  0  0  0  0  0  0  0
   35.7300   30.4130   42.0380 H   0  0  0  0  0  0  0  0  0  0  0  0
   34.8630   31.2420   40.6200 H   0  0  0  0  0  0  0  0  0  0  0  0
   36.1470   26.8810   39.0010 C   0  0  0  0  0  0  0  0  0  0  0  0
   36.4150   26.1300   38.2580 H   0  0  0  0  0  0  0  0  0  0  0  0
   35.0470   27.0260   39.0280 H   0  0  0  0  0  0  0  0  0  0  0  0
   36.6400   26.4480   40.3480 C   0  0  0  0  0  0  0  0  0  0  0  0
   37.0310   25.1870   40.7310 C   0  0  0  0  0  0  0  0  0  0  0  0
   37.0340   24.3250   40.1000 H   0  0  0  0  0  0  0  0  0  0  0  0
   37.4050   25.2800   42.0640 C   0  0  0  0  0  0  0  0  0  0  0  0
   37.7670   24.4630   42.6780 H   0  0  0  0  0  0  0  0  0  0  0  0
   37.2190   26.6120   42.4230 C   0  0  0  0  0  0  0  0  0  0  0  0
   37.4480   26.9250   43.4260 H   0  0  0  0  0  0  0  0  0  0  0  0
   36.7680   27.2620   41.3810 O   0  0  0  0  0  0  0  0  0  0  0  0
  1  4  1  1  0  0  0
  1 10  1  0  0  0  0
  2  3  1  0  0  0  0
  2  1  1  0  0  0  0
  3  1  1  0  0  0  0
  3 19  1  0  0  0  0
  3  7  1  1  0  0  0
  5  2  1  0  0  0  0
  6  2  1  0  0  0  0
  8 14  1  0  0  0  0
  9  8  1  0  0  0  0
  9 16  1  0  0  0  0
 10  9  2  0  0  0  0
 11 12  2  0  0  0  0
 11 10  1  0  0  0  0
 12 13  1  0  0  0  0
 13  8  2  0  0  0  0
 15 12  1  0  0  0  0
 16 17  1  0  0  0  0
 18 16  1  0  0  0  0
 19 21  1  0  0  0  0
 19 22  1  0  0  0  0
 20 19  1  0  0  0  0
 22 23  2  0  0  0  0
 22 29  1  0  0  0  0
 23 25  1  0  0  0  0
 24 23  1  0  0  0  0
 25 27  2  0  0  0  0
 25 26  1  0  0  0  0
 27 28  1  0  0  0  0
 29 27  1  0  0  0  0
M  END
>  <minimizedAffinity>
-4.41641426

$$$$
