
 OpenBabel03252507053D

 46 49  0  0  0  0  0  0  0  0999 V2000
   36.8840   27.3580   42.6390 C   0  0  0  0  0  0  0  0  0  0  0  0
   36.5830   28.2990   42.0650 H   0  0  0  0  0  0  0  0  0  0  0  0
   35.9510   27.0800   43.1770 H   0  0  0  0  0  0  0  0  0  0  0  0
   37.3570   26.3810   41.8560 N   0  0  0  0  0  0  0  0  0  0  0  0
   38.1370   25.2500   42.2480 C   0  0  0  0  0  0  0  0  0  0  0  0
   37.0520   24.1770   42.1480 C   0  0  0  0  0  0  0  0  0  0  0  0
   36.4800   24.0360   40.8210 C   0  0  0  0  0  0  0  0  0  0  0  0
   36.5230   25.1600   39.9140 C   0  0  0  0  0  0  0  0  0  0  0  0
   36.9800   26.5060   40.4270 C   0  0  0  0  0  0  0  0  0  0  0  0
   38.3320   25.3410   43.3540 H   0  0  0  0  0  0  0  0  0  0  0  0
   39.0420   25.0270   41.7100 H   0  0  0  0  0  0  0  0  0  0  0  0
   37.4580   23.1990   42.5350 H   0  0  0  0  0  0  0  0  0  0  0  0
   36.2660   24.5090   42.8690 H   0  0  0  0  0  0  0  0  0  0  0  0
   36.9850   23.1700   40.3030 H   0  0  0  0  0  0  0  0  0  0  0  0
   35.4040   23.7090   40.8960 H   0  0  0  0  0  0  0  0  0  0  0  0
   36.2400   25.1450   38.9080 H   0  0  0  0  0  0  0  0  0  0  0  0
   37.0310   27.9390   39.4750 S   0  0  0  0  0  0  0  0  0  0  0  0
   35.4850   28.4050   38.7800 C   0  0  0  0  0  0  0  0  0  0  0  0
   34.2810   29.0600   38.7770 C   0  0  0  0  0  0  0  0  0  0  0  0
   34.1850   29.6220   39.6810 H   0  0  0  0  0  0  0  0  0  0  0  0
   33.5670   28.8160   37.6230 C   0  0  0  0  0  0  0  0  0  0  0  0
   32.5990   29.2800   37.5080 H   0  0  0  0  0  0  0  0  0  0  0  0
   34.4080   27.9770   36.9270 C   0  0  0  0  0  0  0  0  0  0  0  0
   33.9660   27.6850   35.9530 H   0  0  0  0  0  0  0  0  0  0  0  0
   35.5150   27.7510   37.6150 O   0  0  0  0  0  0  0  0  0  0  0  0
   37.8650   27.8470   43.6420 C   0  0  0  0  0  0  0  0  0  0  0  0
   37.3010   28.4630   44.3880 H   0  0  0  0  0  0  0  0  0  0  0  0
   38.4040   27.0290   44.1790 H   0  0  0  0  0  0  0  0  0  0  0  0
   38.8030   28.7600   42.9610 C   0  0  0  0  0  0  0  0  0  0  0  0
   40.1600   28.5210   42.9950 C   0  0  0  0  0  0  0  0  0  0  0  0
   40.9990   29.4170   42.3540 C   0  0  0  0  0  0  0  0  0  0  0  0
   40.4370   30.4910   41.7190 N   0  0  0  0  0  0  0  0  0  0  0  0
   39.1250   30.6880   41.7070 C   0  0  0  0  0  0  0  0  0  0  0  0
   38.3320   29.8120   42.3330 N   0  0  0  0  0  0  0  0  0  0  0  0
   40.7730   27.7430   43.4150 H   0  0  0  0  0  0  0  0  0  0  0  0
   42.0800   29.3910   42.2780 H   0  0  0  0  0  0  0  0  0  0  0  0
   38.6120   31.8440   40.9830 C   0  0  0  0  0  0  0  0  0  0  0  0
   37.5090   31.7250   40.1420 C   0  0  0  0  0  0  0  0  0  0  0  0
   37.0390   32.8180   39.4630 C   0  0  0  0  0  0  0  0  0  0  0  0
   37.7320   33.9820   39.6880 C   0  0  0  0  0  0  0  0  0  0  0  0
   38.8350   34.1550   40.5130 C   0  0  0  0  0  0  0  0  0  0  0  0
   39.2450   33.0320   41.1520 N   0  0  0  0  0  0  0  0  0  0  0  0
   37.0480   30.7610   40.0450 H   0  0  0  0  0  0  0  0  0  0  0  0
   36.2030   32.7840   38.8110 H   0  0  0  0  0  0  0  0  0  0  0  0
   37.4040   34.8890   39.1740 H   0  0  0  0  0  0  0  0  0  0  0  0
   39.3190   35.1130   40.6280 H   0  0  0  0  0  0  0  0  0  0  0  0
  1  3  1  0  0  0  0
  1 26  1  0  0  0  0
  2  1  1  0  0  0  0
  4  5  1  0  0  0  0
  4  1  1  0  0  0  0
  5 10  1  0  0  0  0
  6  5  1  0  0  0  0
  6 12  1  0  0  0  0
  6 13  1  0  0  0  0
  7 15  1  0  0  0  0
  7  6  1  0  0  0  0
  8  9  2  0  0  0  0
  8  7  1  0  0  0  0
  9  4  1  0  0  0  0
 11  5  1  0  0  0  0
 14  7  1  0  0  0  0
 16  8  1  0  0  0  0
 17  9  1  0  0  0  0
 18 17  1  0  0  0  0
 19 18  2  0  0  0  0
 19 20  1  0  0  0  0
 21 19  1  0  0  0  0
 22 21  1  0  0  0  0
 23 25  1  0  0  0  0
 23 21  2  0  0  0  0
 24 23  1  0  0  0  0
 25 18  1  0  0  0  0
 26 28  1  0  0  0  0
 26 27  1  0  0  0  0
 29 30  1  0  0  0  0
 29 26  1  0  0  0  0
 30 35  1  0  0  0  0
 31 30  2  0  0  0  0
 32 31  1  0  0  0  0
 33 32  2  0  0  0  0
 33 34  1  0  0  0  0
 34 29  2  0  0  0  0
 36 31  1  0  0  0  0
 37 42  1  0  0  0  0
 37 33  1  0  0  0  0
 38 37  2  0  0  0  0
 39 40  2  0  0  0  0
 39 38  1  0  0  0  0
 40 41  1  0  0  0  0
 41 46  1  0  0  0  0
 41 42  2  0  0  0  0
 43 38  1  0  0  0  0
 44 39  1  0  0  0  0
 45 40  1  0  0  0  0
M  END
>  <minimizedAffinity>
-5.86743593

$$$$

 OpenBabel03252507053D

 46 49  0  0  0  0  0  0  0  0999 V2000
   40.8270   30.9730   42.4290 C   0  0  0  0  0  0  0  0  0  0  0  0
   39.7610   30.6170   42.2230 H   0  0  0  0  0  0  0  0  0  0  0  0
   40.7370   31.4920   43.4080 H   0  0  0  0  0  0  0  0  0  0  0  0
   41.7290   29.9850   42.4330 N   0  0  0  0  0  0  0  0  0  0  0  0
   43.1500   30.1030   42.5190 C   0  0  0  0  0  0  0  0  0  0  0  0
   43.3300   29.6510   43.9700 C   0  0  0  0  0  0  0  0  0  0  0  0
   42.8580   28.3030   44.2320 C   0  0  0  0  0  0  0  0  0  0  0  0
   41.8360   27.7390   43.3810 C   0  0  0  0  0  0  0  0  0  0  0  0
   41.1460   28.6220   42.3690 C   0  0  0  0  0  0  0  0  0  0  0  0
   43.3980   31.2020   42.5410 H   0  0  0  0  0  0  0  0  0  0  0  0
   43.7630   29.5790   41.8060 H   0  0  0  0  0  0  0  0  0  0  0  0
   44.4090   29.7830   44.2700 H   0  0  0  0  0  0  0  0  0  0  0  0
   42.7360   30.3860   44.5640 H   0  0  0  0  0  0  0  0  0  0  0  0
   43.7420   27.6020   44.2040 H   0  0  0  0  0  0  0  0  0  0  0  0
   42.4900   28.2230   45.2950 H   0  0  0  0  0  0  0  0  0  0  0  0
   41.4960   26.7510   43.4090 H   0  0  0  0  0  0  0  0  0  0  0  0
   39.8780   28.0990   41.3300 S   0  0  0  0  0  0  0  0  0  0  0  0
   38.3930   27.6600   42.1600 C   0  0  0  0  0  0  0  0  0  0  0  0
   37.2600   26.9100   42.3510 C   0  0  0  0  0  0  0  0  0  0  0  0
   37.2150   26.1470   41.6050 H   0  0  0  0  0  0  0  0  0  0  0  0
   36.5340   27.3450   43.4400 C   0  0  0  0  0  0  0  0  0  0  0  0
   35.6190   26.8300   43.6880 H   0  0  0  0  0  0  0  0  0  0  0  0
   37.2910   28.4010   43.8970 C   0  0  0  0  0  0  0  0  0  0  0  0
   36.8300   28.8670   44.7910 H   0  0  0  0  0  0  0  0  0  0  0  0
   38.3640   28.5670   43.1420 O   0  0  0  0  0  0  0  0  0  0  0  0
   41.0710   32.0010   41.3840 C   0  0  0  0  0  0  0  0  0  0  0  0
   41.4920   32.9030   41.8950 H   0  0  0  0  0  0  0  0  0  0  0  0
   41.7790   31.6700   40.5850 H   0  0  0  0  0  0  0  0  0  0  0  0
   39.7670   32.4030   40.8210 C   0  0  0  0  0  0  0  0  0  0  0  0
   39.4820   33.7320   40.5970 C   0  0  0  0  0  0  0  0  0  0  0  0
   38.2390   34.0580   40.0820 C   0  0  0  0  0  0  0  0  0  0  0  0
   37.3600   33.0440   39.8200 N   0  0  0  0  0  0  0  0  0  0  0  0
   37.6700   31.7740   40.0470 C   0  0  0  0  0  0  0  0  0  0  0  0
   38.8760   31.4790   40.5460 N   0  0  0  0  0  0  0  0  0  0  0  0
   40.0350   34.6470   40.7190 H   0  0  0  0  0  0  0  0  0  0  0  0
   37.8440   35.0400   39.8460 H   0  0  0  0  0  0  0  0  0  0  0  0
   36.6820   30.7560   39.7120 C   0  0  0  0  0  0  0  0  0  0  0  0
   35.9600   30.1090   40.7120 C   0  0  0  0  0  0  0  0  0  0  0  0
   35.0370   29.1510   40.3850 C   0  0  0  0  0  0  0  0  0  0  0  0
   34.9050   28.9090   39.0390 C   0  0  0  0  0  0  0  0  0  0  0  0
   35.5980   29.5220   38.0050 C   0  0  0  0  0  0  0  0  0  0  0  0
   36.4940   30.4590   38.4020 N   0  0  0  0  0  0  0  0  0  0  0  0
   36.1500   30.3830   41.7320 H   0  0  0  0  0  0  0  0  0  0  0  0
   34.4590   28.6280   41.1050 H   0  0  0  0  0  0  0  0  0  0  0  0
   34.1830   28.1550   38.7160 H   0  0  0  0  0  0  0  0  0  0  0  0
   35.4270   29.2660   36.9700 H   0  0  0  0  0  0  0  0  0  0  0  0
  1  4  1  0  0  0  0
  1  3  1  0  0  0  0
  2  1  1  0  0  0  0
  4  5  1  0  0  0  0
  5 10  1  0  0  0  0
  5  6  1  0  0  0  0
  6  7  1  0  0  0  0
  6 12  1  0  0  0  0
  6 13  1  0  0  0  0
  7 15  1  0  0  0  0
  8 16  1  0  0  0  0
  8  7  1  0  0  0  0
  9  4  1  0  0  0  0
  9  8  2  0  0  0  0
 11  5  1  0  0  0  0
 14  7  1  0  0  0  0
 17 18  1  0  0  0  0
 17  9  1  0  0  0  0
 18 19  2  0  0  0  0
 18 25  1  0  0  0  0
 19 21  1  0  0  0  0
 20 19  1  0  0  0  0
 21 22  1  0  0  0  0
 21 23  2  0  0  0  0
 23 24  1  0  0  0  0
 25 23  1  0  0  0  0
 26 27  1  0  0  0  0
 26  1  1  0  0  0  0
 28 26  1  0  0  0  0
 29 26  1  0  0  0  0
 30 35  1  0  0  0  0
 30 29  1  0  0  0  0
 31 30  2  0  0  0  0
 32 33  2  0  0  0  0
 32 31  1  0  0  0  0
 33 34  1  0  0  0  0
 34 29  2  0  0  0  0
 36 31  1  0  0  0  0
 37 33  1  0  0  0  0
 37 38  1  0  0  0  0
 38 43  1  0  0  0  0
 39 38  2  0  0  0  0
 39 44  1  0  0  0  0
 40 39  1  0  0  0  0
 41 42  1  0  0  0  0
 41 40  2  0  0  0  0
 42 37  2  0  0  0  0
 45 40  1  0  0  0  0
 46 41  1  0  0  0  0
M  END
>  <minimizedAffinity>
-5.76816702

$$$$

 OpenBabel03252507053D

 46 49  0  0  0  0  0  0  0  0999 V2000
   38.3960   27.2000   39.8170 C   0  0  0  0  0  0  0  0  0  0  0  0
   38.9040   27.8650   40.5950 H   0  0  0  0  0  0  0  0  0  0  0  0
   39.2470   26.6550   39.3540 H   0  0  0  0  0  0  0  0  0  0  0  0
   37.4630   26.3900   40.3310 N   0  0  0  0  0  0  0  0  0  0  0  0
   36.3840   25.7560   39.6420 C   0  0  0  0  0  0  0  0  0  0  0  0
   36.9420   24.3320   39.6060 C   0  0  0  0  0  0  0  0  0  0  0  0
   37.1890   23.7590   40.9160 C   0  0  0  0  0  0  0  0  0  0  0  0
   37.4330   24.6430   42.0330 C   0  0  0  0  0  0  0  0  0  0  0  0
   37.6190   26.1200   41.7810 C   0  0  0  0  0  0  0  0  0  0  0  0
   36.4230   26.0940   38.5680 H   0  0  0  0  0  0  0  0  0  0  0  0
   35.3880   25.8390   40.0410 H   0  0  0  0  0  0  0  0  0  0  0  0
   36.2600   23.6810   38.9860 H   0  0  0  0  0  0  0  0  0  0  0  0
   37.9020   24.4250   39.0420 H   0  0  0  0  0  0  0  0  0  0  0  0
   36.3130   23.1040   41.1930 H   0  0  0  0  0  0  0  0  0  0  0  0
   38.0540   23.0380   40.8660 H   0  0  0  0  0  0  0  0  0  0  0  0
   37.5200   24.3520   43.0340 H   0  0  0  0  0  0  0  0  0  0  0  0
   37.9660   27.2770   43.0070 S   0  0  0  0  0  0  0  0  0  0  0  0
   39.6750   27.6450   43.1940 C   0  0  0  0  0  0  0  0  0  0  0  0
   40.8160   28.3650   42.9500 C   0  0  0  0  0  0  0  0  0  0  0  0
   40.5890   29.1680   42.2810 H   0  0  0  0  0  0  0  0  0  0  0  0
   41.8990   27.8600   43.6380 C   0  0  0  0  0  0  0  0  0  0  0  0
   42.8560   28.3460   43.5220 H   0  0  0  0  0  0  0  0  0  0  0  0
   41.3480   26.7940   44.3130 C   0  0  0  0  0  0  0  0  0  0  0  0
   42.1100   26.2730   44.9270 H   0  0  0  0  0  0  0  0  0  0  0  0
   40.0580   26.6860   44.0430 O   0  0  0  0  0  0  0  0  0  0  0  0
   37.8660   28.1610   38.8150 C   0  0  0  0  0  0  0  0  0  0  0  0
   38.6970   28.3920   38.1010 H   0  0  0  0  0  0  0  0  0  0  0  0
   36.9900   27.7740   38.2400 H   0  0  0  0  0  0  0  0  0  0  0  0
   37.5440   29.4220   39.5110 C   0  0  0  0  0  0  0  0  0  0  0  0
   36.4120   29.5210   40.2910 C   0  0  0  0  0  0  0  0  0  0  0  0
   36.1470   30.7300   40.9100 C   0  0  0  0  0  0  0  0  0  0  0  0
   37.0230   31.7630   40.7170 N   0  0  0  0  0  0  0  0  0  0  0  0
   38.1050   31.6300   39.9600 C   0  0  0  0  0  0  0  0  0  0  0  0
   38.3430   30.4540   39.3700 N   0  0  0  0  0  0  0  0  0  0  0  0
   35.6330   28.8330   40.5700 H   0  0  0  0  0  0  0  0  0  0  0  0
   35.3130   30.9900   41.5520 H   0  0  0  0  0  0  0  0  0  0  0  0
   38.9980   32.7750   39.8330 C   0  0  0  0  0  0  0  0  0  0  0  0
   38.6360   34.0190   40.3420 C   0  0  0  0  0  0  0  0  0  0  0  0
   39.4820   35.0890   40.2120 C   0  0  0  0  0  0  0  0  0  0  0  0
   40.6610   34.8200   39.5620 C   0  0  0  0  0  0  0  0  0  0  0  0
   41.0700   33.6020   39.0360 C   0  0  0  0  0  0  0  0  0  0  0  0
   40.1840   32.5900   39.2010 N   0  0  0  0  0  0  0  0  0  0  0  0
   37.6850   34.1100   40.8320 H   0  0  0  0  0  0  0  0  0  0  0  0
   39.2570   36.0580   40.5820 H   0  0  0  0  0  0  0  0  0  0  0  0
   41.3770   35.6340   39.4280 H   0  0  0  0  0  0  0  0  0  0  0  0
   42.0200   33.4840   38.5380 H   0  0  0  0  0  0  0  0  0  0  0  0
  1  4  1  0  0  0  0
  1  2  1  0  0  0  0
  3  1  1  0  0  0  0
  4  9  1  0  0  0  0
  5 11  1  0  0  0  0
  5  4  1  0  0  0  0
  6  5  1  0  0  0  0
  6  7  1  0  0  0  0
  7 14  1  0  0  0  0
  7  8  1  0  0  0  0
  8 16  1  0  0  0  0
  9  8  2  0  0  0  0
  9 17  1  0  0  0  0
 10  5  1  0  0  0  0
 12  6  1  0  0  0  0
 13  6  1  0  0  0  0
 15  7  1  0  0  0  0
 17 18  1  0  0  0  0
 18 25  1  0  0  0  0
 19 18  2  0  0  0  0
 19 21  1  0  0  0  0
 20 19  1  0  0  0  0
 21 23  2  0  0  0  0
 22 21  1  0  0  0  0
 23 24  1  0  0  0  0
 25 23  1  0  0  0  0
 26 29  1  0  0  0  0
 26  1  1  0  0  0  0
 27 26  1  0  0  0  0
 28 26  1  0  0  0  0
 29 30  1  0  0  0  0
 30 35  1  0  0  0  0
 30 31  2  0  0  0  0
 31 36  1  0  0  0  0
 32 31  1  0  0  0  0
 33 32  2  0  0  0  0
 34 29  2  0  0  0  0
 34 33  1  0  0  0  0
 37 33  1  0  0  0  0
 37 38  1  0  0  0  0
 38 43  1  0  0  0  0
 39 38  2  0  0  0  0
 39 44  1  0  0  0  0
 40 39  1  0  0  0  0
 41 42  1  0  0  0  0
 41 40  2  0  0  0  0
 42 37  2  0  0  0  0
 45 40  1  0  0  0  0
 46 41  1  0  0  0  0
M  END
>  <minimizedAffinity>
-5.71486664

$$$$

 OpenBabel03252507053D

 46 49  0  0  0  0  0  0  0  0999 V2000
   36.0200   29.5910   41.0020 C   0  0  0  0  0  0  0  0  0  0  0  0
   35.7510   29.2580   39.9420 H   0  0  0  0  0  0  0  0  0  0  0  0
   35.0470   29.5360   41.5380 H   0  0  0  0  0  0  0  0  0  0  0  0
   36.9810   28.8510   41.5670 N   0  0  0  0  0  0  0  0  0  0  0  0
   37.9880   29.2840   42.4830 C   0  0  0  0  0  0  0  0  0  0  0  0
   37.4080   28.6800   43.7640 C   0  0  0  0  0  0  0  0  0  0  0  0
   37.2640   27.2360   43.7250 C   0  0  0  0  0  0  0  0  0  0  0  0
   37.1280   26.5790   42.4450 C   0  0  0  0  0  0  0  0  0  0  0  0
   36.9430   27.4140   41.2010 C   0  0  0  0  0  0  0  0  0  0  0  0
   37.8640   30.3950   42.6230 H   0  0  0  0  0  0  0  0  0  0  0  0
   39.0150   29.0280   42.2900 H   0  0  0  0  0  0  0  0  0  0  0  0
   38.0260   29.0150   44.6460 H   0  0  0  0  0  0  0  0  0  0  0  0
   36.4060   29.1620   43.8680 H   0  0  0  0  0  0  0  0  0  0  0  0
   38.1510   26.7730   44.2460 H   0  0  0  0  0  0  0  0  0  0  0  0
   36.3880   26.9180   44.3580 H   0  0  0  0  0  0  0  0  0  0  0  0
   37.1220   25.5460   42.2870 H   0  0  0  0  0  0  0  0  0  0  0  0
   36.7180   26.7660   39.6220 S   0  0  0  0  0  0  0  0  0  0  0  0
   36.5060   25.0210   39.5780 C   0  0  0  0  0  0  0  0  0  0  0  0
   35.7640   23.8680   39.5770 C   0  0  0  0  0  0  0  0  0  0  0  0
   34.7260   24.1180   39.6180 H   0  0  0  0  0  0  0  0  0  0  0  0
   36.5620   22.7450   39.5100 C   0  0  0  0  0  0  0  0  0  0  0  0
   36.0880   21.7750   39.5040 H   0  0  0  0  0  0  0  0  0  0  0  0
   37.8290   23.2840   39.4700 C   0  0  0  0  0  0  0  0  0  0  0  0
   38.6000   22.4910   39.4120 H   0  0  0  0  0  0  0  0  0  0  0  0
   37.7740   24.6050   39.5100 O   0  0  0  0  0  0  0  0  0  0  0  0
   36.3810   31.0230   40.8480 C   0  0  0  0  0  0  0  0  0  0  0  0
   35.4270   31.5970   40.7280 H   0  0  0  0  0  0  0  0  0  0  0  0
   36.9490   31.4390   41.7160 H   0  0  0  0  0  0  0  0  0  0  0  0
   37.1290   31.1770   39.5860 C   0  0  0  0  0  0  0  0  0  0  0  0
   36.6750   30.5860   38.4260 C   0  0  0  0  0  0  0  0  0  0  0  0
   37.4220   30.7470   37.2730 C   0  0  0  0  0  0  0  0  0  0  0  0
   38.5710   31.4870   37.3420 N   0  0  0  0  0  0  0  0  0  0  0  0
   38.9760   32.0440   38.4760 C   0  0  0  0  0  0  0  0  0  0  0  0
   38.2410   31.8750   39.5810 N   0  0  0  0  0  0  0  0  0  0  0  0
   35.8100   29.9970   38.1760 H   0  0  0  0  0  0  0  0  0  0  0  0
   37.2220   30.3570   36.2810 H   0  0  0  0  0  0  0  0  0  0  0  0
   40.1980   32.8390   38.4520 C   0  0  0  0  0  0  0  0  0  0  0  0
   40.4480   33.7880   39.4390 C   0  0  0  0  0  0  0  0  0  0  0  0
   41.5980   34.5320   39.4020 C   0  0  0  0  0  0  0  0  0  0  0  0
   42.4330   34.2580   38.3470 C   0  0  0  0  0  0  0  0  0  0  0  0
   42.2310   33.3260   37.3380 C   0  0  0  0  0  0  0  0  0  0  0  0
   41.0740   32.6260   37.4380 N   0  0  0  0  0  0  0  0  0  0  0  0
   39.7210   33.9150   40.2170 H   0  0  0  0  0  0  0  0  0  0  0  0
   41.8400   35.2670   40.1280 H   0  0  0  0  0  0  0  0  0  0  0  0
   43.3660   34.8200   38.2630 H   0  0  0  0  0  0  0  0  0  0  0  0
   42.9460   33.1780   36.5430 H   0  0  0  0  0  0  0  0  0  0  0  0
  1  3  1  0  0  0  0
  1  4  1  0  0  0  0
  2  1  1  0  0  0  0
  4  5  1  0  0  0  0
  5 10  1  0  0  0  0
  5  6  1  0  0  0  0
  6 13  1  0  0  0  0
  6 12  1  0  0  0  0
  7  6  1  0  0  0  0
  7 14  1  0  0  0  0
  7 15  1  0  0  0  0
  8  7  1  0  0  0  0
  9  4  1  0  0  0  0
  9  8  2  0  0  0  0
 11  5  1  0  0  0  0
 16  8  1  0  0  0  0
 17  9  1  0  0  0  0
 18 17  1  0  0  0  0
 19 18  2  0  0  0  0
 19 20  1  0  0  0  0
 21 19  1  0  0  0  0
 22 21  1  0  0  0  0
 23 21  2  0  0  0  0
 23 25  1  0  0  0  0
 24 23  1  0  0  0  0
 25 18  1  0  0  0  0
 26  1  1  0  0  0  0
 26 28  1  0  0  0  0
 27 26  1  0  0  0  0
 29 26  1  0  0  0  0
 30 29  2  0  0  0  0
 31 32  2  0  0  0  0
 31 30  1  0  0  0  0
 32 33  1  0  0  0  0
 33 34  2  0  0  0  0
 34 29  1  0  0  0  0
 35 30  1  0  0  0  0
 36 31  1  0  0  0  0
 37 33  1  0  0  0  0
 37 38  1  0  0  0  0
 38 43  1  0  0  0  0
 39 38  2  0  0  0  0
 39 44  1  0  0  0  0
 40 39  1  0  0  0  0
 41 42  1  0  0  0  0
 41 40  2  0  0  0  0
 42 37  2  0  0  0  0
 45 40  1  0  0  0  0
 46 41  1  0  0  0  0
M  END
>  <minimizedAffinity>
-5.69417048

$$$$

 OpenBabel03252507053D

 46 49  0  0  0  0  0  0  0  0999 V2000
   40.2280   28.0960   40.6780 C   0  0  0  0  0  0  0  0  0  0  0  0
   39.7610   29.1130   40.9070 H   0  0  0  0  0  0  0  0  0  0  0  0
   41.3200   28.3060   40.7070 H   0  0  0  0  0  0  0  0  0  0  0  0
   39.8510   27.1300   41.5240 N   0  0  0  0  0  0  0  0  0  0  0  0
   39.9160   25.7180   41.3200 C   0  0  0  0  0  0  0  0  0  0  0  0
   41.1090   25.4100   42.2260 C   0  0  0  0  0  0  0  0  0  0  0  0
   40.9040   25.7710   43.6170 C   0  0  0  0  0  0  0  0  0  0  0  0
   39.9520   26.8080   43.9410 C   0  0  0  0  0  0  0  0  0  0  0  0
   39.3400   27.6230   42.8270 C   0  0  0  0  0  0  0  0  0  0  0  0
   40.3100   25.5440   40.2790 H   0  0  0  0  0  0  0  0  0  0  0  0
   39.0410   25.1220   41.5100 H   0  0  0  0  0  0  0  0  0  0  0  0
   41.3930   24.3240   42.1120 H   0  0  0  0  0  0  0  0  0  0  0  0
   41.9470   26.0110   41.7950 H   0  0  0  0  0  0  0  0  0  0  0  0
   40.5970   24.8450   44.1860 H   0  0  0  0  0  0  0  0  0  0  0  0
   41.8860   26.0590   44.0910 H   0  0  0  0  0  0  0  0  0  0  0  0
   39.6470   27.0780   44.9030 H   0  0  0  0  0  0  0  0  0  0  0  0
   38.2350   28.9210   43.0690 S   0  0  0  0  0  0  0  0  0  0  0  0
   36.9620   29.0240   41.8620 C   0  0  0  0  0  0  0  0  0  0  0  0
   36.0100   28.5020   41.0230 C   0  0  0  0  0  0  0  0  0  0  0  0
   35.9870   27.4390   41.1370 H   0  0  0  0  0  0  0  0  0  0  0  0
   35.3640   29.4850   40.3050 C   0  0  0  0  0  0  0  0  0  0  0  0
   34.5930   29.1930   39.6090 H   0  0  0  0  0  0  0  0  0  0  0  0
   35.9790   30.6330   40.7550 C   0  0  0  0  0  0  0  0  0  0  0  0
   35.5590   31.5320   40.2610 H   0  0  0  0  0  0  0  0  0  0  0  0
   36.9020   30.3440   41.6580 O   0  0  0  0  0  0  0  0  0  0  0  0
   39.8480   27.8350   39.2660 C   0  0  0  0  0  0  0  0  0  0  0  0
   40.7940   27.7380   38.6770 H   0  0  0  0  0  0  0  0  0  0  0  0
   39.2370   26.9090   39.1280 H   0  0  0  0  0  0  0  0  0  0  0  0
   39.1480   29.0270   38.7500 C   0  0  0  0  0  0  0  0  0  0  0  0
   38.1460   28.9000   37.8110 C   0  0  0  0  0  0  0  0  0  0  0  0
   37.5330   30.0500   37.3480 C   0  0  0  0  0  0  0  0  0  0  0  0
   37.9500   31.2540   37.8460 N   0  0  0  0  0  0  0  0  0  0  0  0
   38.9180   31.3380   38.7510 C   0  0  0  0  0  0  0  0  0  0  0  0
   39.4990   30.2150   39.1850 N   0  0  0  0  0  0  0  0  0  0  0  0
   37.6790   28.0620   37.3250 H   0  0  0  0  0  0  0  0  0  0  0  0
   36.7360   30.1420   36.6170 H   0  0  0  0  0  0  0  0  0  0  0  0
   39.2800   32.6600   39.2470 C   0  0  0  0  0  0  0  0  0  0  0  0
   38.3500   33.4450   39.9230 C   0  0  0  0  0  0  0  0  0  0  0  0
   38.7010   34.6870   40.3800 C   0  0  0  0  0  0  0  0  0  0  0  0
   39.9960   35.0580   40.1160 C   0  0  0  0  0  0  0  0  0  0  0  0
   40.9610   34.3170   39.4470 C   0  0  0  0  0  0  0  0  0  0  0  0
   40.5440   33.0990   39.0230 N   0  0  0  0  0  0  0  0  0  0  0  0
   37.3640   33.0480   40.0710 H   0  0  0  0  0  0  0  0  0  0  0  0
   38.0340   35.3270   40.9020 H   0  0  0  0  0  0  0  0  0  0  0  0
   40.3360   36.0400   40.4560 H   0  0  0  0  0  0  0  0  0  0  0  0
   41.9590   34.6920   39.2830 H   0  0  0  0  0  0  0  0  0  0  0  0
  1  3  1  0  0  0  0
  1  2  1  0  0  0  0
  1  4  1  0  0  0  0
  4  9  1  0  0  0  0
  5 11  1  0  0  0  0
  5  4  1  0  0  0  0
  5  6  1  0  0  0  0
  6  7  1  0  0  0  0
  7  8  1  0  0  0  0
  7 15  1  0  0  0  0
  7 14  1  0  0  0  0
  8 16  1  0  0  0  0
  9 17  1  0  0  0  0
  9  8  2  0  0  0  0
 10  5  1  0  0  0  0
 12  6  1  0  0  0  0
 13  6  1  0  0  0  0
 18 17  1  0  0  0  0
 19 20  1  0  0  0  0
 19 18  2  0  0  0  0
 21 23  2  0  0  0  0
 21 19  1  0  0  0  0
 22 21  1  0  0  0  0
 23 25  1  0  0  0  0
 24 23  1  0  0  0  0
 25 18  1  0  0  0  0
 26  1  1  0  0  0  0
 27 26  1  0  0  0  0
 28 26  1  0  0  0  0
 29 34  1  0  0  0  0
 29 26  1  0  0  0  0
 30 29  2  0  0  0  0
 31 30  1  0  0  0  0
 31 32  2  0  0  0  0
 32 33  1  0  0  0  0
 33 34  2  0  0  0  0
 33 37  1  0  0  0  0
 35 30  1  0  0  0  0
 36 31  1  0  0  0  0
 37 38  1  0  0  0  0
 38 43  1  0  0  0  0
 38 39  2  0  0  0  0
 39 44  1  0  0  0  0
 40 39  1  0  0  0  0
 40 45  1  0  0  0  0
 41 40  2  0  0  0  0
 42 37  2  0  0  0  0
 42 41  1  0  0  0  0
 46 41  1  0  0  0  0
M  END
>  <minimizedAffinity>
-5.67579603

$$$$

 OpenBabel03252507053D

 46 49  0  0  0  0  0  0  0  0999 V2000
   39.4830   27.7410   40.6520 C   0  0  0  0  0  0  0  0  0  0  0  0
   40.1030   28.7010   40.6630 H   0  0  0  0  0  0  0  0  0  0  0  0
   40.1600   27.0080   40.1600 H   0  0  0  0  0  0  0  0  0  0  0  0
   39.0750   27.3540   41.8670 N   0  0  0  0  0  0  0  0  0  0  0  0
   39.4430   27.9140   43.1290 C   0  0  0  0  0  0  0  0  0  0  0  0
   38.1440   28.6610   43.4360 C   0  0  0  0  0  0  0  0  0  0  0  0
   36.9740   27.8050   43.5170 C   0  0  0  0  0  0  0  0  0  0  0  0
   36.9780   26.5430   42.8130 C   0  0  0  0  0  0  0  0  0  0  0  0
   38.1060   26.2320   41.8580 C   0  0  0  0  0  0  0  0  0  0  0  0
   40.1910   28.7330   42.9310 H   0  0  0  0  0  0  0  0  0  0  0  0
   39.7820   27.2590   43.9120 H   0  0  0  0  0  0  0  0  0  0  0  0
   38.2790   29.2740   44.3720 H   0  0  0  0  0  0  0  0  0  0  0  0
   38.0320   29.3810   42.5890 H   0  0  0  0  0  0  0  0  0  0  0  0
   36.7690   27.5810   44.6040 H   0  0  0  0  0  0  0  0  0  0  0  0
   36.0570   28.3700   43.1850 H   0  0  0  0  0  0  0  0  0  0  0  0
   36.2420   25.8040   42.8820 H   0  0  0  0  0  0  0  0  0  0  0  0
   38.2110   24.7950   40.9170 S   0  0  0  0  0  0  0  0  0  0  0  0
   36.8940   24.5780   39.7730 C   0  0  0  0  0  0  0  0  0  0  0  0
   36.1080   24.9470   38.7110 C   0  0  0  0  0  0  0  0  0  0  0  0
   36.4580   25.8790   38.3220 H   0  0  0  0  0  0  0  0  0  0  0  0
   35.1250   24.0160   38.4520 C   0  0  0  0  0  0  0  0  0  0  0  0
   34.4430   24.2000   37.6370 H   0  0  0  0  0  0  0  0  0  0  0  0
   35.3600   23.0620   39.4180 C   0  0  0  0  0  0  0  0  0  0  0  0
   34.6360   22.2270   39.3400 H   0  0  0  0  0  0  0  0  0  0  0  0
   36.3900   23.4070   40.1730 O   0  0  0  0  0  0  0  0  0  0  0  0
   38.3700   28.0410   39.7150 C   0  0  0  0  0  0  0  0  0  0  0  0
   38.8100   28.1180   38.6890 H   0  0  0  0  0  0  0  0  0  0  0  0
   37.5660   27.2660   39.7100 H   0  0  0  0  0  0  0  0  0  0  0  0
   37.8360   29.3760   40.0480 C   0  0  0  0  0  0  0  0  0  0  0  0
   36.4990   29.5410   40.3400 C   0  0  0  0  0  0  0  0  0  0  0  0
   36.0450   30.8160   40.6300 C   0  0  0  0  0  0  0  0  0  0  0  0
   36.9460   31.8450   40.6140 N   0  0  0  0  0  0  0  0  0  0  0  0
   38.2270   31.6470   40.3290 C   0  0  0  0  0  0  0  0  0  0  0  0
   38.6460   30.4090   40.0500 N   0  0  0  0  0  0  0  0  0  0  0  0
   35.6620   28.8700   40.4190 H   0  0  0  0  0  0  0  0  0  0  0  0
   35.0370   31.1320   40.8790 H   0  0  0  0  0  0  0  0  0  0  0  0
   39.1220   32.7980   40.3620 C   0  0  0  0  0  0  0  0  0  0  0  0
   38.6240   34.0900   40.2180 C   0  0  0  0  0  0  0  0  0  0  0  0
   39.4760   35.1620   40.2460 C   0  0  0  0  0  0  0  0  0  0  0  0
   40.8010   34.8470   40.4220 C   0  0  0  0  0  0  0  0  0  0  0  0
   41.3480   33.5800   40.5680 C   0  0  0  0  0  0  0  0  0  0  0  0
   40.4480   32.5670   40.5310 N   0  0  0  0  0  0  0  0  0  0  0  0
   37.5670   34.2140   40.0860 H   0  0  0  0  0  0  0  0  0  0  0  0
   39.1520   36.1680   40.1420 H   0  0  0  0  0  0  0  0  0  0  0  0
   41.5290   35.6610   40.4520 H   0  0  0  0  0  0  0  0  0  0  0  0
   42.4080   33.4260   40.7020 H   0  0  0  0  0  0  0  0  0  0  0  0
  1  2  1  0  0  0  0
  1  4  1  0  0  0  0
  3  1  1  0  0  0  0
  4  5  1  0  0  0  0
  5  6  1  0  0  0  0
  5 11  1  0  0  0  0
  6  7  1  0  0  0  0
  6 12  1  0  0  0  0
  7 14  1  0  0  0  0
  8 16  1  0  0  0  0
  8  7  1  0  0  0  0
  9  4  1  0  0  0  0
  9  8  2  0  0  0  0
 10  5  1  0  0  0  0
 13  6  1  0  0  0  0
 15  7  1  0  0  0  0
 17  9  1  0  0  0  0
 18 25  1  0  0  0  0
 18 17  1  0  0  0  0
 19 18  2  0  0  0  0
 20 19  1  0  0  0  0
 21 19  1  0  0  0  0
 21 23  2  0  0  0  0
 22 21  1  0  0  0  0
 23 25  1  0  0  0  0
 24 23  1  0  0  0  0
 26 29  1  0  0  0  0
 26  1  1  0  0  0  0
 27 26  1  0  0  0  0
 28 26  1  0  0  0  0
 29 34  2  0  0  0  0
 29 30  1  0  0  0  0
 30 35  1  0  0  0  0
 30 31  2  0  0  0  0
 31 36  1  0  0  0  0
 32 31  1  0  0  0  0
 33 37  1  0  0  0  0
 33 32  2  0  0  0  0
 34 33  1  0  0  0  0
 37 42  1  0  0  0  0
 38 39  1  0  0  0  0
 38 37  2  0  0  0  0
 39 40  2  0  0  0  0
 40 45  1  0  0  0  0
 40 41  1  0  0  0  0
 41 46  1  0  0  0  0
 42 41  2  0  0  0  0
 43 38  1  0  0  0  0
 44 39  1  0  0  0  0
M  END
>  <minimizedAffinity>
-5.66100693

$$$$

 OpenBabel03252507053D

 46 49  0  0  0  0  0  0  0  0999 V2000
   38.3220   31.8760   40.9000 C   0  0  0  0  0  0  0  0  0  0  0  0
   38.8510   30.8860   40.6850 H   0  0  0  0  0  0  0  0  0  0  0  0
   38.5800   32.0760   41.9630 H   0  0  0  0  0  0  0  0  0  0  0  0
   38.6800   32.8650   40.0720 N   0  0  0  0  0  0  0  0  0  0  0  0
   38.1210   34.1770   39.9890 C   0  0  0  0  0  0  0  0  0  0  0  0
   39.2550   34.9520   40.6630 C   0  0  0  0  0  0  0  0  0  0  0  0
   40.5330   34.8390   39.9850 C   0  0  0  0  0  0  0  0  0  0  0  0
   40.7900   33.6820   39.1580 C   0  0  0  0  0  0  0  0  0  0  0  0
   39.8120   32.5310   39.1730 C   0  0  0  0  0  0  0  0  0  0  0  0
   37.2730   34.2310   40.7290 H   0  0  0  0  0  0  0  0  0  0  0  0
   37.8240   34.5580   39.0280 H   0  0  0  0  0  0  0  0  0  0  0  0
   38.9440   36.0280   40.7930 H   0  0  0  0  0  0  0  0  0  0  0  0
   39.3240   34.5080   41.6850 H   0  0  0  0  0  0  0  0  0  0  0  0
   40.6770   35.7510   39.3360 H   0  0  0  0  0  0  0  0  0  0  0  0
   41.3750   34.9090   40.7320 H   0  0  0  0  0  0  0  0  0  0  0  0
   41.6240   33.5430   38.5440 H   0  0  0  0  0  0  0  0  0  0  0  0
   40.0160   31.0730   38.2820 S   0  0  0  0  0  0  0  0  0  0  0  0
   38.5690   30.5210   37.4510 C   0  0  0  0  0  0  0  0  0  0  0  0
   37.3540   30.6970   36.8380 C   0  0  0  0  0  0  0  0  0  0  0  0
   37.1120   31.7380   36.8320 H   0  0  0  0  0  0  0  0  0  0  0  0
   36.8200   29.5020   36.4060 C   0  0  0  0  0  0  0  0  0  0  0  0
   35.8620   29.5150   35.9090 H   0  0  0  0  0  0  0  0  0  0  0  0
   37.7800   28.5920   36.7910 C   0  0  0  0  0  0  0  0  0  0  0  0
   37.4910   27.5610   36.5060 H   0  0  0  0  0  0  0  0  0  0  0  0
   38.7860   29.2030   37.3940 O   0  0  0  0  0  0  0  0  0  0  0  0
   36.8780   31.5340   40.8330 C   0  0  0  0  0  0  0  0  0  0  0  0
   36.4200   31.8240   41.8120 H   0  0  0  0  0  0  0  0  0  0  0  0
   36.3310   32.0520   40.0080 H   0  0  0  0  0  0  0  0  0  0  0  0
   36.7570   30.0670   40.7270 C   0  0  0  0  0  0  0  0  0  0  0  0
   35.8160   29.5000   39.8950 C   0  0  0  0  0  0  0  0  0  0  0  0
   35.7320   28.1200   39.8440 C   0  0  0  0  0  0  0  0  0  0  0  0
   36.5890   27.3890   40.6210 N   0  0  0  0  0  0  0  0  0  0  0  0
   37.4840   27.9700   41.4100 C   0  0  0  0  0  0  0  0  0  0  0  0
   37.5490   29.3050   41.4460 N   0  0  0  0  0  0  0  0  0  0  0  0
   35.0850   29.8970   39.2120 H   0  0  0  0  0  0  0  0  0  0  0  0
   35.0590   27.5070   39.2540 H   0  0  0  0  0  0  0  0  0  0  0  0
   38.3760   27.1130   42.1820 C   0  0  0  0  0  0  0  0  0  0  0  0
   39.1700   27.6420   43.1950 C   0  0  0  0  0  0  0  0  0  0  0  0
   40.0070   26.8270   43.9100 C   0  0  0  0  0  0  0  0  0  0  0  0
   39.9820   25.5040   43.5430 C   0  0  0  0  0  0  0  0  0  0  0  0
   39.2120   24.9260   42.5430 C   0  0  0  0  0  0  0  0  0  0  0  0
   38.4080   25.7910   41.8780 N   0  0  0  0  0  0  0  0  0  0  0  0
   39.1050   28.6940   43.3920 H   0  0  0  0  0  0  0  0  0  0  0  0
   40.6340   27.1760   44.6920 H   0  0  0  0  0  0  0  0  0  0  0  0
   40.6280   24.8040   44.0780 H   0  0  0  0  0  0  0  0  0  0  0  0
   39.2580   23.8700   42.3230 H   0  0  0  0  0  0  0  0  0  0  0  0
  1  3  1  0  0  0  0
  2  1  1  0  0  0  0
  4  1  1  0  0  0  0
  5  4  1  0  0  0  0
  5  6  1  0  0  0  0
  5 10  1  0  0  0  0
  6 12  1  0  0  0  0
  6 13  1  0  0  0  0
  7  6  1  0  0  0  0
  7 15  1  0  0  0  0
  8  9  2  0  0  0  0
  8  7  1  0  0  0  0
  9  4  1  0  0  0  0
 11  5  1  0  0  0  0
 14  7  1  0  0  0  0
 16  8  1  0  0  0  0
 17  9  1  0  0  0  0
 18 17  1  0  0  0  0
 19 18  2  0  0  0  0
 20 19  1  0  0  0  0
 21 23  2  0  0  0  0
 21 19  1  0  0  0  0
 22 21  1  0  0  0  0
 23 25  1  0  0  0  0
 24 23  1  0  0  0  0
 25 18  1  0  0  0  0
 26  1  1  0  0  0  0
 26 27  1  0  0  0  0
 28 26  1  0  0  0  0
 29 26  1  0  0  0  0
 29 34  1  0  0  0  0
 30 29  2  0  0  0  0
 31 30  1  0  0  0  0
 31 32  2  0  0  0  0
 32 33  1  0  0  0  0
 33 34  2  0  0  0  0
 33 37  1  0  0  0  0
 35 30  1  0  0  0  0
 36 31  1  0  0  0  0
 37 38  1  0  0  0  0
 38 43  1  0  0  0  0
 38 39  2  0  0  0  0
 39 44  1  0  0  0  0
 40 39  1  0  0  0  0
 40 45  1  0  0  0  0
 41 40  2  0  0  0  0
 42 37  2  0  0  0  0
 42 41  1  0  0  0  0
 46 41  1  0  0  0  0
M  END
>  <minimizedAffinity>
-5.63380718

$$$$

 OpenBabel03252507053D

 46 49  0  0  0  0  0  0  0  0999 V2000
   38.9870   31.0600   41.0740 C   0  0  0  0  0  0  0  0  0  0  0  0
   39.6810   30.1790   40.8530 H   0  0  0  0  0  0  0  0  0  0  0  0
   39.2240   31.3100   42.1320 H   0  0  0  0  0  0  0  0  0  0  0  0
   39.1470   32.0910   40.2360 N   0  0  0  0  0  0  0  0  0  0  0  0
   38.3350   32.4350   39.1130 C   0  0  0  0  0  0  0  0  0  0  0  0
   37.6040   33.6350   39.7170 C   0  0  0  0  0  0  0  0  0  0  0  0
   38.4810   34.7150   40.1310 C   0  0  0  0  0  0  0  0  0  0  0  0
   39.8550   34.4150   40.4640 C   0  0  0  0  0  0  0  0  0  0  0  0
   40.2940   32.9730   40.5640 C   0  0  0  0  0  0  0  0  0  0  0  0
   37.5360   31.6460   39.0180 H   0  0  0  0  0  0  0  0  0  0  0  0
   38.8080   32.6260   38.1650 H   0  0  0  0  0  0  0  0  0  0  0  0
   36.8130   33.9910   38.9960 H   0  0  0  0  0  0  0  0  0  0  0  0
   37.0690   33.2160   40.6040 H   0  0  0  0  0  0  0  0  0  0  0  0
   38.4980   35.4960   39.3170 H   0  0  0  0  0  0  0  0  0  0  0  0
   38.0350   35.2590   41.0120 H   0  0  0  0  0  0  0  0  0  0  0  0
   40.6000   35.1180   40.6730 H   0  0  0  0  0  0  0  0  0  0  0  0
   41.8810   32.4710   41.0010 S   0  0  0  0  0  0  0  0  0  0  0  0
   42.9470   33.7790   41.4910 C   0  0  0  0  0  0  0  0  0  0  0  0
   43.2230   35.0140   42.0200 C   0  0  0  0  0  0  0  0  0  0  0  0
   42.3100   35.4760   42.3290 H   0  0  0  0  0  0  0  0  0  0  0  0
   44.5750   35.2850   42.0130 C   0  0  0  0  0  0  0  0  0  0  0  0
   44.9130   36.2320   42.4050 H   0  0  0  0  0  0  0  0  0  0  0  0
   45.1020   34.1440   41.4490 C   0  0  0  0  0  0  0  0  0  0  0  0
   46.2060   34.2080   41.3730 H   0  0  0  0  0  0  0  0  0  0  0  0
   44.1420   33.2830   41.1540 O   0  0  0  0  0  0  0  0  0  0  0  0
   37.6270   30.4640   41.0350 C   0  0  0  0  0  0  0  0  0  0  0  0
   36.9520   31.1330   41.6260 H   0  0  0  0  0  0  0  0  0  0  0  0
   37.2150   30.3510   40.0030 H   0  0  0  0  0  0  0  0  0  0  0  0
   37.6690   29.1720   41.7470 C   0  0  0  0  0  0  0  0  0  0  0  0
   37.9420   29.1250   43.0970 C   0  0  0  0  0  0  0  0  0  0  0  0
   37.9860   27.8870   43.7140 C   0  0  0  0  0  0  0  0  0  0  0  0
   37.7550   26.7740   42.9520 N   0  0  0  0  0  0  0  0  0  0  0  0
   37.4940   26.8580   41.6540 C   0  0  0  0  0  0  0  0  0  0  0  0
   37.4570   28.0630   41.0760 N   0  0  0  0  0  0  0  0  0  0  0  0
   38.1280   29.8710   43.8490 H   0  0  0  0  0  0  0  0  0  0  0  0
   38.1850   27.6600   44.7560 H   0  0  0  0  0  0  0  0  0  0  0  0
   37.2330   25.6220   40.9260 C   0  0  0  0  0  0  0  0  0  0  0  0
   36.5440   25.6420   39.7160 C   0  0  0  0  0  0  0  0  0  0  0  0
   36.3010   24.4730   39.0440 C   0  0  0  0  0  0  0  0  0  0  0  0
   36.7820   23.3420   39.6550 C   0  0  0  0  0  0  0  0  0  0  0  0
   37.4720   23.2670   40.8570 C   0  0  0  0  0  0  0  0  0  0  0  0
   37.6770   24.4600   41.4670 N   0  0  0  0  0  0  0  0  0  0  0  0
   36.2150   26.5890   39.3350 H   0  0  0  0  0  0  0  0  0  0  0  0
   35.7830   24.4300   38.1190 H   0  0  0  0  0  0  0  0  0  0  0  0
   36.6190   22.3780   39.1660 H   0  0  0  0  0  0  0  0  0  0  0  0
   37.8130   22.3270   41.2640 H   0  0  0  0  0  0  0  0  0  0  0  0
  1  3  1  0  0  0  0
  2  1  1  0  0  0  0
  4  9  1  0  0  0  0
  4  1  1  0  0  0  0
  5  6  1  0  0  0  0
  5  4  1  0  0  0  0
  6  7  1  0  0  0  0
  6 13  1  0  0  0  0
  7  8  1  0  0  0  0
  7 15  1  0  0  0  0
  8  9  2  0  0  0  0
  8 16  1  0  0  0  0
  9 17  1  0  0  0  0
 10  5  1  0  0  0  0
 11  5  1  0  0  0  0
 12  6  1  0  0  0  0
 14  7  1  0  0  0  0
 17 18  1  0  0  0  0
 18 19  2  0  0  0  0
 19 20  1  0  0  0  0
 21 19  1  0  0  0  0
 21 22  1  0  0  0  0
 23 21  2  0  0  0  0
 24 23  1  0  0  0  0
 25 23  1  0  0  0  0
 25 18  1  0  0  0  0
 26  1  1  0  0  0  0
 26 27  1  0  0  0  0
 26 29  1  0  0  0  0
 28 26  1  0  0  0  0
 29 30  1  0  0  0  0
 30 31  2  0  0  0  0
 30 35  1  0  0  0  0
 31 36  1  0  0  0  0
 32 31  1  0  0  0  0
 33 32  2  0  0  0  0
 34 33  1  0  0  0  0
 34 29  2  0  0  0  0
 37 42  1  0  0  0  0
 37 33  1  0  0  0  0
 38 37  2  0  0  0  0
 39 40  2  0  0  0  0
 39 38  1  0  0  0  0
 40 41  1  0  0  0  0
 41 46  1  0  0  0  0
 41 42  2  0  0  0  0
 43 38  1  0  0  0  0
 44 39  1  0  0  0  0
 45 40  1  0  0  0  0
M  END
>  <minimizedAffinity>
-5.61975193

$$$$

 OpenBabel03252507053D

 46 49  0  0  0  0  0  0  0  0999 V2000
   36.9720   27.7590   41.9900 C   0  0  0  0  0  0  0  0  0  0  0  0
   36.3250   28.3850   41.2860 H   0  0  0  0  0  0  0  0  0  0  0  0
   36.2990   27.5760   42.8570 H   0  0  0  0  0  0  0  0  0  0  0  0
   37.4360   26.6350   41.4320 N   0  0  0  0  0  0  0  0  0  0  0  0
   38.2160   25.6110   42.0530 C   0  0  0  0  0  0  0  0  0  0  0  0
   37.1270   24.5460   42.1930 C   0  0  0  0  0  0  0  0  0  0  0  0
   36.5460   24.1260   40.9310 C   0  0  0  0  0  0  0  0  0  0  0  0
   36.5860   25.0290   39.8040 C   0  0  0  0  0  0  0  0  0  0  0  0
   37.0490   26.4510   40.0120 C   0  0  0  0  0  0  0  0  0  0  0  0
   38.4200   25.9370   43.1120 H   0  0  0  0  0  0  0  0  0  0  0  0
   39.1160   25.2740   41.5690 H   0  0  0  0  0  0  0  0  0  0  0  0
   37.5340   23.6720   42.7780 H   0  0  0  0  0  0  0  0  0  0  0  0
   36.3470   25.0290   42.8300 H   0  0  0  0  0  0  0  0  0  0  0  0
   37.0450   23.1660   40.6080 H   0  0  0  0  0  0  0  0  0  0  0  0
   35.4690   23.8270   41.0820 H   0  0  0  0  0  0  0  0  0  0  0  0
   36.2950   24.7990   38.8260 H   0  0  0  0  0  0  0  0  0  0  0  0
   37.0970   27.6460   38.7740 S   0  0  0  0  0  0  0  0  0  0  0  0
   35.5220   28.2700   38.3060 C   0  0  0  0  0  0  0  0  0  0  0  0
   34.2820   28.8020   38.5520 C   0  0  0  0  0  0  0  0  0  0  0  0
   34.1610   28.9380   39.6050 H   0  0  0  0  0  0  0  0  0  0  0  0
   33.5750   29.0140   37.3880 C   0  0  0  0  0  0  0  0  0  0  0  0
   32.5810   29.4290   37.4570 H   0  0  0  0  0  0  0  0  0  0  0  0
   34.4570   28.5810   36.4220 C   0  0  0  0  0  0  0  0  0  0  0  0
   34.0260   28.6910   35.4080 H   0  0  0  0  0  0  0  0  0  0  0  0
   35.5800   28.1540   36.9760 O   0  0  0  0  0  0  0  0  0  0  0  0
   38.0400   28.6950   42.4260 C   0  0  0  0  0  0  0  0  0  0  0  0
   37.8830   28.8970   43.5160 H   0  0  0  0  0  0  0  0  0  0  0  0
   39.0740   28.2990   42.2750 H   0  0  0  0  0  0  0  0  0  0  0  0
   37.8420   29.9790   41.7250 C   0  0  0  0  0  0  0  0  0  0  0  0
   36.5930   30.3400   41.2670 C   0  0  0  0  0  0  0  0  0  0  0  0
   36.4640   31.5470   40.6010 C   0  0  0  0  0  0  0  0  0  0  0  0
   37.5810   32.3190   40.4350 N   0  0  0  0  0  0  0  0  0  0  0  0
   38.7670   31.9380   40.8920 C   0  0  0  0  0  0  0  0  0  0  0  0
   38.8720   30.7680   41.5310 N   0  0  0  0  0  0  0  0  0  0  0  0
   35.6180   29.8880   41.3160 H   0  0  0  0  0  0  0  0  0  0  0  0
   35.5700   31.9890   40.1750 H   0  0  0  0  0  0  0  0  0  0  0  0
   39.8980   32.8370   40.6950 C   0  0  0  0  0  0  0  0  0  0  0  0
   41.1900   32.4370   41.0240 C   0  0  0  0  0  0  0  0  0  0  0  0
   42.2440   33.2920   40.8380 C   0  0  0  0  0  0  0  0  0  0  0  0
   41.9110   34.5190   40.3200 C   0  0  0  0  0  0  0  0  0  0  0  0
   40.6430   34.9670   39.9750 C   0  0  0  0  0  0  0  0  0  0  0  0
   39.6490   34.0700   40.1860 N   0  0  0  0  0  0  0  0  0  0  0  0
   41.3290   31.4510   41.4240 H   0  0  0  0  0  0  0  0  0  0  0  0
   43.2480   33.0400   41.0710 H   0  0  0  0  0  0  0  0  0  0  0  0
   42.7090   35.2450   40.1480 H   0  0  0  0  0  0  0  0  0  0  0  0
   40.4740   35.9540   39.5730 H   0  0  0  0  0  0  0  0  0  0  0  0
  1 26  1  0  0  0  0
  1  3  1  0  0  0  0
  2  1  1  0  0  0  0
  4  1  1  0  0  0  0
  4  5  1  0  0  0  0
  5  6  1  0  0  0  0
  5 10  1  0  0  0  0
  6 12  1  0  0  0  0
  6 13  1  0  0  0  0
  7 15  1  0  0  0  0
  7  6  1  0  0  0  0
  8  9  2  0  0  0  0
  8  7  1  0  0  0  0
  9  4  1  0  0  0  0
 11  5  1  0  0  0  0
 14  7  1  0  0  0  0
 16  8  1  0  0  0  0
 17  9  1  0  0  0  0
 18 19  2  0  0  0  0
 18 17  1  0  0  0  0
 19 20  1  0  0  0  0
 21 22  1  0  0  0  0
 21 19  1  0  0  0  0
 23 25  1  0  0  0  0
 23 21  2  0  0  0  0
 24 23  1  0  0  0  0
 25 18  1  0  0  0  0
 26 27  1  0  0  0  0
 28 26  1  0  0  0  0
 29 26  1  0  0  0  0
 30 35  1  0  0  0  0
 30 29  2  0  0  0  0
 31 30  1  0  0  0  0
 32 31  2  0  0  0  0
 32 33  1  0  0  0  0
 33 34  2  0  0  0  0
 34 29  1  0  0  0  0
 36 31  1  0  0  0  0
 37 33  1  0  0  0  0
 37 38  1  0  0  0  0
 38 43  1  0  0  0  0
 39 38  2  0  0  0  0
 39 44  1  0  0  0  0
 40 39  1  0  0  0  0
 41 42  1  0  0  0  0
 41 40  2  0  0  0  0
 42 37  2  0  0  0  0
 45 40  1  0  0  0  0
 46 41  1  0  0  0  0
M  END
>  <minimizedAffinity>
-5.60209656

$$$$
