
 OpenBabel03242514233D

 33 36  0  0  0  0  0  0  0  0999 V2000
   44.7960   33.1250   41.1140 Cl  0  0  0  0  0  0  0  0  0  0  0  0
   46.3280   33.9530   40.9030 C   0  0  0  0  0  0  0  0  0  0  0  0
   46.8380   34.7140   41.9150 C   0  0  0  0  0  0  0  0  0  0  0  0
   48.0540   35.3770   41.7610 C   0  0  0  0  0  0  0  0  0  0  0  0
   48.6930   35.2250   40.5630 C   0  0  0  0  0  0  0  0  0  0  0  0
   48.1750   34.4560   39.5440 C   0  0  0  0  0  0  0  0  0  0  0  0
   46.9840   33.8130   39.7090 C   0  0  0  0  0  0  0  0  0  0  0  0
   48.4800   35.9820   42.5410 H   0  0  0  0  0  0  0  0  0  0  0  0
   49.6520   35.6960   40.3290 H   0  0  0  0  0  0  0  0  0  0  0  0
   48.6780   34.3290   38.5850 H   0  0  0  0  0  0  0  0  0  0  0  0
   45.6050   34.0380   45.3210 C   0  0  0  0  0  0  0  0  0  0  0  0
   44.7190   35.1030   45.5290 C   0  0  0  0  0  0  0  0  0  0  0  0
   44.5490   36.0350   44.5150 C   0  0  0  0  0  0  0  0  0  0  0  0
   45.2500   35.8700   43.3720 N   0  0  0  0  0  0  0  0  0  0  0  0
   46.1050   34.8380   43.1780 C   0  0  0  0  0  0  0  0  0  0  0  0
   46.2880   33.9140   44.1560 N   0  0  0  0  0  0  0  0  0  0  0  0
   45.7250   33.3170   46.1300 H   0  0  0  0  0  0  0  0  0  0  0  0
   44.1510   35.2630   46.4170 H   0  0  0  0  0  0  0  0  0  0  0  0
   43.9200   36.8950   44.5100 H   0  0  0  0  0  0  0  0  0  0  0  0
   46.4060   32.9910   38.6520 C   0  0  0  0  0  0  0  0  0  0  0  0
   45.4750   33.3460   37.7580 N   0  0  0  0  0  0  0  0  0  0  0  0
   45.2140   32.3010   36.9540 C   0  0  0  0  0  0  0  0  0  0  0  0
   45.9900   31.2670   37.3470 N   0  0  0  0  0  0  0  0  0  0  0  0
   46.7180   31.7010   38.3880 N   0  0  0  0  0  0  0  0  0  0  0  0
   44.5440   32.1790   36.1290 H   0  0  0  0  0  0  0  0  0  0  0  0
   46.1560   29.9280   36.8900 C   0  0  0  0  0  0  0  0  0  0  0  0
   46.2380   29.7320   35.5070 C   0  0  0  0  0  0  0  0  0  0  0  0
   46.2040   30.3980   34.6520 H   0  0  0  0  0  0  0  0  0  0  0  0
   46.3950   28.3600   35.3160 C   0  0  0  0  0  0  0  0  0  0  0  0
   46.5030   27.7130   34.4480 H   0  0  0  0  0  0  0  0  0  0  0  0
   46.3990   27.8060   36.6010 C   0  0  0  0  0  0  0  0  0  0  0  0
   46.4910   26.7950   36.9920 H   0  0  0  0  0  0  0  0  0  0  0  0
   46.2550   28.7690   37.4960 O   0  0  0  0  0  0  0  0  0  0  0  0
  2  1  1  0  0  0  0
  2  3  1  0  0  0  0
  3 15  1  0  0  0  0
  4  3  2  0  0  0  0
  4  8  1  0  0  0  0
  5  4  1  0  0  0  0
  6  7  1  0  0  0  0
  6  5  2  0  0  0  0
  7  2  2  0  0  0  0
  9  5  1  0  0  0  0
 10  6  1  0  0  0  0
 11 12  1  0  0  0  0
 11 17  1  0  0  0  0
 12 18  1  0  0  0  0
 13 12  2  0  0  0  0
 14 13  1  0  0  0  0
 15 14  2  0  0  0  0
 15 16  1  0  0  0  0
 16 11  2  0  0  0  0
 19 13  1  0  0  0  0
 20  7  1  0  0  0  0
 21 20  1  0  0  0  0
 22 23  1  0  0  0  0
 22 21  2  0  0  0  0
 23 24  1  0  0  0  0
 24 20  2  0  0  0  0
 25 22  1  0  0  0  0
 26 23  1  0  0  0  0
 26 33  1  0  0  0  0
 27 26  2  0  0  0  0
 28 27  1  0  0  0  0
 29 27  1  0  0  0  0
 29 31  2  0  0  0  0
 30 29  1  0  0  0  0
 31 32  1  0  0  0  0
 31 33  1  0  0  0  0
M  END
>  <minimizedAffinity>
-5.32544661

>  <minimizedRMSD>
0.158020779

$$$$
