
 OpenBabel03252509083D

 40 43  0  0  0  0  0  0  0  0999 V2000
   47.7840   31.8850   38.9800 C   0  0  0  0  0  0  0  0  0  0  0  0
   47.2240   33.1210   38.8750 C   0  0  0  0  0  0  0  0  0  0  0  0
   47.7550   34.0530   37.9970 C   0  0  0  0  0  0  0  0  0  0  0  0
   48.8490   33.7260   37.2320 C   0  0  0  0  0  0  0  0  0  0  0  0
   49.4520   32.4710   37.3070 C   0  0  0  0  0  0  0  0  0  0  0  0
   48.8960   31.5500   38.2020 C   0  0  0  0  0  0  0  0  0  0  0  0
   47.3410   35.0440   37.8840 H   0  0  0  0  0  0  0  0  0  0  0  0
   49.3470   34.3610   36.5200 H   0  0  0  0  0  0  0  0  0  0  0  0
   50.2990   32.1490   36.7460 H   0  0  0  0  0  0  0  0  0  0  0  0
   49.3380   30.5590   38.2900 H   0  0  0  0  0  0  0  0  0  0  0  0
   45.2590   35.2960   43.1260 Cl  0  0  0  0  0  0  0  0  0  0  0  0
   45.1430   34.5510   41.5540 C   0  0  0  0  0  0  0  0  0  0  0  0
   46.2540   34.1660   40.8760 C   0  0  0  0  0  0  0  0  0  0  0  0
   46.0570   33.5650   39.6410 C   0  0  0  0  0  0  0  0  0  0  0  0
   44.8000   33.3670   39.1250 C   0  0  0  0  0  0  0  0  0  0  0  0
   43.7010   33.7580   39.8170 C   0  0  0  0  0  0  0  0  0  0  0  0
   43.8830   34.3530   41.0400 C   0  0  0  0  0  0  0  0  0  0  0  0
   44.7100   32.8960   38.1610 H   0  0  0  0  0  0  0  0  0  0  0  0
   42.7230   33.5880   39.3840 H   0  0  0  0  0  0  0  0  0  0  0  0
   42.9870   34.6570   41.5750 H   0  0  0  0  0  0  0  0  0  0  0  0
   49.5530   35.7310   41.8290 C   0  0  0  0  0  0  0  0  0  0  0  0
   48.2940   35.5300   41.2490 C   0  0  0  0  0  0  0  0  0  0  0  0
   47.5540   34.3850   41.4690 C   0  0  0  0  0  0  0  0  0  0  0  0
   48.1440   33.4770   42.2890 N   0  0  0  0  0  0  0  0  0  0  0  0
   49.3470   33.6610   42.8470 C   0  0  0  0  0  0  0  0  0  0  0  0
   50.0420   34.7790   42.6160 N   0  0  0  0  0  0  0  0  0  0  0  0
   50.0600   36.6600   41.5990 H   0  0  0  0  0  0  0  0  0  0  0  0
   47.8710   36.2860   40.6060 H   0  0  0  0  0  0  0  0  0  0  0  0
   49.6660   32.8370   43.4730 H   0  0  0  0  0  0  0  0  0  0  0  0
   47.1390   30.7170   40.0070 S   0  0  0  0  0  0  0  0  0  0  0  0
   47.5740   29.3170   39.6330 O   0  0  0  0  0  0  0  0  0  0  0  0
   47.8960   30.9590   41.3660 O   0  0  0  0  0  0  0  0  0  0  0  0
   45.4790   30.6150   40.4500 C   0  0  0  0  0  0  0  0  0  0  0  0
   44.5380   30.0670   39.5390 C   0  0  0  0  0  0  0  0  0  0  0  0
   44.7130   29.6670   38.5200 H   0  0  0  0  0  0  0  0  0  0  0  0
   43.2510   30.0490   40.0220 C   0  0  0  0  0  0  0  0  0  0  0  0
   42.3510   29.7040   39.5760 H   0  0  0  0  0  0  0  0  0  0  0  0
   43.4360   30.5990   41.2490 C   0  0  0  0  0  0  0  0  0  0  0  0
   42.6920   30.8030   42.0350 H   0  0  0  0  0  0  0  0  0  0  0  0
   44.6570   30.8890   41.4320 O   0  0  0  0  0  0  0  0  0  0  0  0
  1 30  1  0  0  0  0
  2  1  1  0  0  0  0
  2 14  1  0  0  0  0
  3  2  2  0  0  0  0
  4  5  2  0  0  0  0
  4  3  1  0  0  0  0
  5  6  1  0  0  0  0
  6 10  1  0  0  0  0
  6  1  2  0  0  0  0
  7  3  1  0  0  0  0
  8  4  1  0  0  0  0
  9  5  1  0  0  0  0
 12 11  1  0  0  0  0
 13 23  1  0  0  0  0
 13 12  2  0  0  0  0
 14 13  1  0  0  0  0
 15 14  2  0  0  0  0
 15 16  1  0  0  0  0
 16 17  2  0  0  0  0
 17 12  1  0  0  0  0
 17 20  1  0  0  0  0
 18 15  1  0  0  0  0
 19 16  1  0  0  0  0
 21 26  1  0  0  0  0
 22 23  1  0  0  0  0
 22 21  2  0  0  0  0
 23 24  2  0  0  0  0
 24 25  1  0  0  0  0
 25 29  1  0  0  0  0
 26 25  2  0  0  0  0
 27 21  1  0  0  0  0
 28 22  1  0  0  0  0
 30 33  1  0  0  0  0
 30 32  2  0  0  0  0
 31 30  2  0  0  0  0
 33 40  1  0  0  0  0
 34 36  1  0  0  0  0
 34 33  2  0  0  0  0
 35 34  1  0  0  0  0
 36 38  2  0  0  0  0
 37 36  1  0  0  0  0
 38 40  1  0  0  0  0
 38 39  1  0  0  0  0
M  END
>  <minimizedAffinity>
-4.54919004

>  <minimizedRMSD>
0.962922394

$$$$
