
 OpenBabel03252508443D

 38 40  0  0  0  0  0  0  0  0999 V2000
   41.8980   34.1670   39.7270 C   0  0  0  0  0  0  0  0  0  0  0  0
   42.1430   35.0940   40.7220 C   0  0  0  0  0  0  0  0  0  0  0  0
   41.1160   35.9260   41.1170 C   0  0  0  0  0  0  0  0  0  0  0  0
   39.8940   35.8260   40.5360 C   0  0  0  0  0  0  0  0  0  0  0  0
   39.6170   34.9260   39.5550 C   0  0  0  0  0  0  0  0  0  0  0  0
   40.6710   34.1000   39.1750 C   0  0  0  0  0  0  0  0  0  0  0  0
   41.2390   36.6690   41.8860 H   0  0  0  0  0  0  0  0  0  0  0  0
   39.0620   36.4710   40.8300 H   0  0  0  0  0  0  0  0  0  0  0  0
   38.6580   34.7870   39.0390 H   0  0  0  0  0  0  0  0  0  0  0  0
   40.5570   33.3450   38.3990 H   0  0  0  0  0  0  0  0  0  0  0  0
   44.4340   31.3800   39.5530 C   0  0  0  0  0  0  0  0  0  0  0  0
   43.3360   32.1360   40.0040 C   0  0  0  0  0  0  0  0  0  0  0  0
   43.0140   33.3100   39.3420 C   0  0  0  0  0  0  0  0  0  0  0  0
   43.7840   33.6630   38.2910 N   0  0  0  0  0  0  0  0  0  0  0  0
   44.8340   32.9390   37.8590 C   0  0  0  0  0  0  0  0  0  0  0  0
   45.1600   31.7980   38.4890 N   0  0  0  0  0  0  0  0  0  0  0  0
   44.7100   30.4580   40.0490 H   0  0  0  0  0  0  0  0  0  0  0  0
   42.7480   31.8260   40.8420 H   0  0  0  0  0  0  0  0  0  0  0  0
   45.3350   33.3780   37.0000 H   0  0  0  0  0  0  0  0  0  0  0  0
   43.4900   35.1900   41.3500 C   0  0  0  0  0  0  0  0  0  0  0  0
   44.1540   34.5610   40.6870 H   0  0  0  0  0  0  0  0  0  0  0  0
   43.9150   36.2130   41.2490 H   0  0  0  0  0  0  0  0  0  0  0  0
   43.5860   34.6280   42.6580 N   0  0  0  0  0  0  0  0  0  0  0  0
   42.6660   34.6370   43.1100 H   0  0  0  0  0  0  0  0  0  0  0  0
   44.5990   35.5570   43.7020 S   0  0  0  0  0  0  0  0  0  0  0  0
   44.0210   35.6410   45.0730 O   0  0  0  0  0  0  0  0  0  0  0  0
   43.6070   36.4710   45.4020 H   0  0  0  0  0  0  0  0  0  0  0  0
   44.8110   36.9260   43.1500 O   0  0  0  0  0  0  0  0  0  0  0  0
   45.6910   37.2490   42.8180 H   0  0  0  0  0  0  0  0  0  0  0  0
   46.0830   34.7660   43.7580 O   0  0  0  0  0  0  0  0  0  0  0  0
   46.3480   33.7450   44.6420 C   0  0  0  0  0  0  0  0  0  0  0  0
   47.0650   32.5860   44.5160 C   0  0  0  0  0  0  0  0  0  0  0  0
   47.5730   32.2800   43.6230 H   0  0  0  0  0  0  0  0  0  0  0  0
   47.0000   31.9270   45.7250 C   0  0  0  0  0  0  0  0  0  0  0  0
   47.4450   30.9830   45.9980 H   0  0  0  0  0  0  0  0  0  0  0  0
   46.2290   32.7450   46.5280 C   0  0  0  0  0  0  0  0  0  0  0  0
   45.9330   32.5890   47.5730 H   0  0  0  0  0  0  0  0  0  0  0  0
   45.8730   33.7920   45.8540 O   0  0  0  0  0  0  0  0  0  0  0  0
  1  2  1  0  0  0  0
  2  3  2  0  0  0  0
  2 20  1  0  0  0  0
  3  7  1  0  0  0  0
  4  8  1  0  0  0  0
  4  3  1  0  0  0  0
  5  4  2  0  0  0  0
  6  5  1  0  0  0  0
  6  1  2  0  0  0  0
  9  5  1  0  0  0  0
 10  6  1  0  0  0  0
 11 12  1  0  0  0  0
 11 17  1  0  0  0  0
 12 18  1  0  0  0  0
 13  1  1  0  0  0  0
 13 12  2  0  0  0  0
 14 13  1  0  0  0  0
 15 14  2  0  0  0  0
 15 16  1  0  0  0  0
 16 11  2  0  0  0  0
 19 15  1  0  0  0  0
 20 23  1  0  0  0  0
 21 20  1  0  0  0  0
 22 20  1  0  0  0  0
 23 24  1  0  0  0  0
 23 25  1  0  0  0  0
 25 30  1  0  0  0  0
 25 26  1  0  0  0  0
 26 27  1  0  0  0  0
 28 25  1  0  0  0  0
 29 28  1  0  0  0  0
 30 31  1  0  0  0  0
 31 38  1  0  0  0  0
 32 31  2  0  0  0  0
 32 34  1  0  0  0  0
 33 32  1  0  0  0  0
 34 35  1  0  0  0  0
 34 36  2  0  0  0  0
 36 37  1  0  0  0  0
 38 36  1  0  0  0  0
M  END
>  <minimizedAffinity>
-5.92385435

>  <minimizedRMSD>
3.33649397

$$$$
