
 OpenBabel03242519103D

 46 49  0  0  1  0  0  0  0  0999 V2000
   48.1850   33.0150   38.9760 N   0  0  0  0  0  0  0  0  0  0  0  0
   49.1990   33.1200   38.6790 H   0  0  0  0  0  0  0  0  0  0  0  0
   47.3490   34.3360   42.1790 N   0  0  0  0  0  0  0  0  0  0  0  0
   47.2420   34.4580   40.7290 C   0  0  0  0  0  0  0  0  0  0  0  0
   47.8070   33.1290   40.3430 C   0  0  2  0  0  0  0  0  0  0  0  0
   49.0730   33.0660   41.1810 C   0  0  0  0  0  0  0  0  0  0  0  0
   48.6520   33.7720   42.4430 C   0  0  0  0  0  0  0  0  0  0  0  0
   47.9630   35.2290   40.3910 H   0  0  0  0  0  0  0  0  0  0  0  0
   46.2050   34.6280   40.3960 H   0  0  0  0  0  0  0  0  0  0  0  0
   47.1700   32.2850   40.6530 H   0  0  0  0  0  0  0  0  0  0  0  0
   49.8340   33.6890   40.6660 H   0  0  0  0  0  0  0  0  0  0  0  0
   49.4420   32.0430   41.3320 H   0  0  0  0  0  0  0  0  0  0  0  0
   49.3220   34.6350   42.6970 H   0  0  0  0  0  0  0  0  0  0  0  0
   48.6620   33.1050   43.3180 H   0  0  0  0  0  0  0  0  0  0  0  0
   44.6990   35.9870   44.2150 C   0  0  0  0  0  0  0  0  0  0  0  0
   45.5620   35.7620   43.1400 C   0  0  0  0  0  0  0  0  0  0  0  0
   46.4360   34.6680   43.1940 C   0  0  0  0  0  0  0  0  0  0  0  0
   46.3950   33.8770   44.3010 N   0  0  0  0  0  0  0  0  0  0  0  0
   45.5640   34.0970   45.3330 C   0  0  0  0  0  0  0  0  0  0  0  0
   44.7120   35.1600   45.2870 N   0  0  0  0  0  0  0  0  0  0  0  0
   44.0300   36.8190   44.1800 H   0  0  0  0  0  0  0  0  0  0  0  0
   45.6040   36.3740   42.2660 H   0  0  0  0  0  0  0  0  0  0  0  0
   45.5330   33.4690   46.2110 H   0  0  0  0  0  0  0  0  0  0  0  0
   47.9610   32.1390   36.6550 C   0  0  0  0  0  0  0  0  0  0  0  0
   47.4420   32.7680   37.8070 C   0  0  0  0  0  0  0  0  0  0  0  0
   46.1280   33.1220   37.6740 C   0  0  0  0  0  0  0  0  0  0  0  0
   45.3400   32.9170   36.5710 C   0  0  0  0  0  0  0  0  0  0  0  0
   45.9040   32.2930   35.4710 C   0  0  0  0  0  0  0  0  0  0  0  0
   47.2170   31.9140   35.5360 C   0  0  0  0  0  0  0  0  0  0  0  0
   45.6500   33.6150   38.5170 H   0  0  0  0  0  0  0  0  0  0  0  0
   44.2950   33.2280   36.5380 H   0  0  0  0  0  0  0  0  0  0  0  0
   45.2900   32.1270   34.5950 H   0  0  0  0  0  0  0  0  0  0  0  0
   48.2900   32.0640   33.3420 C   0  0  0  0  0  0  0  0  0  0  0  0
   48.2700   33.3450   33.4370 O   0  0  0  0  0  0  0  0  0  0  0  0
   47.7630   31.2760   34.3890 N   0  0  0  0  0  0  0  0  0  0  0  0
   47.7830   30.2520   34.3040 H   0  0  0  0  0  0  0  0  0  0  0  0
   48.8560   31.4600   32.1610 C   0  0  0  0  0  0  0  0  0  0  0  0
   48.8140   32.0010   30.8840 C   0  0  0  0  0  0  0  0  0  0  0  0
   48.3620   32.9330   30.6010 H   0  0  0  0  0  0  0  0  0  0  0  0
   49.4620   31.1290   30.0310 C   0  0  0  0  0  0  0  0  0  0  0  0
   49.6390   31.1920   28.9670 H   0  0  0  0  0  0  0  0  0  0  0  0
   49.8680   30.0840   30.8560 C   0  0  0  0  0  0  0  0  0  0  0  0
   50.4190   29.1720   30.5890 H   0  0  0  0  0  0  0  0  0  0  0  0
   49.4960   30.3200   32.0720 O   0  0  0  0  0  0  0  0  0  0  0  0
   50.4740   31.4150   36.7510 N   0  0  0  0  0  0  0  0  0  0  0  0
   49.3630   31.7300   36.7190 C   0  0  0  0  0  0  0  0  0  0  0  0
  1  5  1  0  0  0  0
  2  1  1  0  0  0  0
  3  7  1  0  0  0  0
  3 17  1  0  0  0  0
  4  3  1  0  0  0  0
  5 10  1  1  0  0  0
  5  4  1  0  0  0  0
  5  6  1  0  0  0  0
  6 12  1  0  0  0  0
  6  7  1  0  0  0  0
  7 13  1  0  0  0  0
  7 14  1  0  0  0  0
  8  4  1  0  0  0  0
  9  4  1  0  0  0  0
 11  6  1  0  0  0  0
 15 20  1  0  0  0  0
 16 17  1  0  0  0  0
 16 15  2  0  0  0  0
 17 18  2  0  0  0  0
 18 19  1  0  0  0  0
 19 23  1  0  0  0  0
 20 19  2  0  0  0  0
 21 15  1  0  0  0  0
 22 16  1  0  0  0  0
 24 46  1  0  0  0  0
 24 25  1  0  0  0  0
 25  1  1  0  0  0  0
 26 25  2  0  0  0  0
 26 30  1  0  0  0  0
 27 26  1  0  0  0  0
 28 29  1  0  0  0  0
 28 27  2  0  0  0  0
 29 24  2  0  0  0  0
 31 27  1  0  0  0  0
 32 28  1  0  0  0  0
 33 34  2  0  0  0  0
 33 35  1  0  0  0  0
 35 29  1  0  0  0  0
 36 35  1  0  0  0  0
 37 33  1  0  0  0  0
 38 37  2  0  0  0  0
 39 38  1  0  0  0  0
 40 42  2  0  0  0  0
 40 38  1  0  0  0  0
 41 40  1  0  0  0  0
 42 44  1  0  0  0  0
 43 42  1  0  0  0  0
 44 37  1  0  0  0  0
 46 45  3  0  0  0  0
M  END
>  <minimizedAffinity>
-5.57562828

>  <minimizedRMSD>
1.05423248

$$$$
