
 OpenBabel03252503193D

 38 41  0  0  0  0  0  0  0  0999 V2000
   44.4720   34.5010   40.6100 C   0  0  0  0  0  0  0  0  0  0  0  0
   43.3640   35.2950   40.5340 C   0  0  0  0  0  0  0  0  0  0  0  0
   42.6390   34.7900   39.5100 N   0  0  0  0  0  0  0  0  0  0  0  0
   43.2730   33.7480   38.9940 C   0  0  0  0  0  0  0  0  0  0  0  0
   44.4180   33.5630   39.6760 N   0  0  0  0  0  0  0  0  0  0  0  0
   42.9220   32.8910   37.9160 N   0  0  0  0  0  0  0  0  0  0  0  0
   43.1060   36.1350   41.1380 H   0  0  0  0  0  0  0  0  0  0  0  0
   43.6220   32.4080   37.3200 H   0  0  0  0  0  0  0  0  0  0  0  0
   41.9310   32.6930   37.6560 H   0  0  0  0  0  0  0  0  0  0  0  0
   41.3570   35.2710   39.0050 C   0  0  0  0  0  0  0  0  0  0  0  0
   41.3150   35.1730   37.9070 H   0  0  0  0  0  0  0  0  0  0  0  0
   41.3000   36.3460   39.2730 H   0  0  0  0  0  0  0  0  0  0  0  0
   40.2240   34.5110   39.5640 C   0  0  0  0  0  0  0  0  0  0  0  0
   38.9550   34.2870   39.0870 C   0  0  0  0  0  0  0  0  0  0  0  0
   38.5760   34.6640   38.1660 H   0  0  0  0  0  0  0  0  0  0  0  0
   38.3060   33.5080   40.0070 C   0  0  0  0  0  0  0  0  0  0  0  0
   37.2770   33.1790   39.8800 H   0  0  0  0  0  0  0  0  0  0  0  0
   39.2030   33.2770   41.0270 C   0  0  0  0  0  0  0  0  0  0  0  0
   38.9850   32.6920   41.9020 H   0  0  0  0  0  0  0  0  0  0  0  0
   40.3280   33.8820   40.7340 O   0  0  0  0  0  0  0  0  0  0  0  0
   45.6060   34.6420   41.5950 C   0  0  0  0  0  0  0  0  0  0  0  0
   46.8270   34.6370   41.2880 O   0  0  0  0  0  0  0  0  0  0  0  0
   44.8960   36.0400   43.4870 C   0  0  0  0  0  0  0  0  0  0  0  0
   45.3200   34.7940   42.9870 C   0  0  0  0  0  0  0  0  0  0  0  0
   45.4210   33.7980   43.9410 C   0  0  0  0  0  0  0  0  0  0  0  0
   45.1460   33.9810   45.2340 N   0  0  0  0  0  0  0  0  0  0  0  0
   44.7370   35.2170   45.6600 C   0  0  0  0  0  0  0  0  0  0  0  0
   44.6190   36.2220   44.7850 N   0  0  0  0  0  0  0  0  0  0  0  0
   44.7800   36.9000   42.8310 H   0  0  0  0  0  0  0  0  0  0  0  0
   44.5060   35.3890   46.7080 H   0  0  0  0  0  0  0  0  0  0  0  0
   45.8490   32.5040   43.5130 C   0  0  0  0  0  0  0  0  0  0  0  0
   47.0300   31.8430   43.4420 C   0  0  0  0  0  0  0  0  0  0  0  0
   47.1430   30.6170   42.9900 C   0  0  0  0  0  0  0  0  0  0  0  0
   46.0020   30.0350   42.5940 C   0  0  0  0  0  0  0  0  0  0  0  0
   44.7120   31.2840   42.8720 S   0  0  0  0  0  0  0  0  0  0  0  0
   47.8850   32.4500   43.8040 H   0  0  0  0  0  0  0  0  0  0  0  0
   48.0580   30.0420   42.9120 H   0  0  0  0  0  0  0  0  0  0  0  0
   45.8330   28.9690   42.1600 H   0  0  0  0  0  0  0  0  0  0  0  0
  1 21  1  0  0  0  0
  2  1  2  0  0  0  0
  2  7  1  0  0  0  0
  3  2  1  0  0  0  0
  4  3  1  0  0  0  0
  4  5  2  0  0  0  0
  5  1  1  0  0  0  0
  6  4  1  0  0  0  0
  8  6  1  0  0  0  0
  9  6  1  0  0  0  0
 10 12  1  0  0  0  0
 10  3  1  0  0  0  0
 10 13  1  0  0  0  0
 11 10  1  0  0  0  0
 13 20  1  0  0  0  0
 14 13  2  0  0  0  0
 14 16  1  0  0  0  0
 15 14  1  0  0  0  0
 16 18  2  0  0  0  0
 17 16  1  0  0  0  0
 18 19  1  0  0  0  0
 20 18  1  0  0  0  0
 21 24  1  0  0  0  0
 22 21  2  0  0  0  0
 23 28  1  0  0  0  0
 24 23  2  0  0  0  0
 24 25  1  0  0  0  0
 25 26  2  0  0  0  0
 26 27  1  0  0  0  0
 27 30  1  0  0  0  0
 28 27  2  0  0  0  0
 29 23  1  0  0  0  0
 31 25  1  0  0  0  0
 32 31  2  0  0  0  0
 32 36  1  0  0  0  0
 33 32  1  0  0  0  0
 34 35  1  0  0  0  0
 34 33  2  0  0  0  0
 35 31  1  0  0  0  0
 37 33  1  0  0  0  0
 38 34  1  0  0  0  0
M  END
>  <minimizedAffinity>
-5.76304245

>  <minimizedRMSD>
2.21930718

$$$$
