
 OpenBabel03252501133D

 38 41  0  0  1  0  0  0  0  0999 V2000
   37.5260   26.0300   39.8350 C   0  0  2  0  0  0  0  0  0  0  0  0
   36.3090   26.4230   39.0930 C   0  0  0  0  0  0  0  0  0  0  0  0
   35.9740   27.7760   39.3400 N   0  0  0  0  0  0  0  0  0  0  0  0
   35.3790   29.0300   39.6700 C   0  0  0  0  0  0  0  0  0  0  0  0
   34.1640   29.2460   39.9470 O   0  0  0  0  0  0  0  0  0  0  0  0
   36.6230   29.7800   39.5520 C   0  0  2  0  0  0  0  0  0  0  0  0
   37.1490   28.4780   38.9940 C   0  0  1  0  0  0  0  0  0  0  0  0
   38.3880   27.6370   40.0190 S   0  0  0  0  0  0  0  0  0  0  0  0
   35.4490   25.8060   39.4840 H   0  0  0  0  0  0  0  0  0  0  0  0
   36.3460   26.1960   38.0040 H   0  0  0  0  0  0  0  0  0  0  0  0
   36.5480   30.5560   38.7810 H   0  0  0  0  0  0  0  0  0  0  0  0
   37.4530   28.5150   37.9260 H   0  0  0  0  0  0  0  0  0  0  0  0
   38.4090   25.1890   38.9320 C   0  0  0  0  0  0  0  0  0  0  0  0
   37.8240   24.8730   38.0310 H   0  0  0  0  0  0  0  0  0  0  0  0
   38.6710   24.2240   39.4330 H   0  0  0  0  0  0  0  0  0  0  0  0
   39.2760   25.7330   38.5270 H   0  0  0  0  0  0  0  0  0  0  0  0
   37.2710   25.3820   41.1660 C   0  0  0  0  0  0  0  0  0  0  0  0
   36.9030   24.3660   40.9960 H   0  0  0  0  0  0  0  0  0  0  0  0
   36.4360   25.9730   41.6330 H   0  0  0  0  0  0  0  0  0  0  0  0
   38.4170   25.5010   42.0770 C   0  0  0  0  0  0  0  0  0  0  0  0
   39.6010   24.8350   42.3310 C   0  0  0  0  0  0  0  0  0  0  0  0
   39.8250   23.9810   41.7420 H   0  0  0  0  0  0  0  0  0  0  0  0
   40.2740   25.4670   43.3560 C   0  0  0  0  0  0  0  0  0  0  0  0
   41.2180   25.1550   43.7500 H   0  0  0  0  0  0  0  0  0  0  0  0
   39.4330   26.5160   43.6790 C   0  0  0  0  0  0  0  0  0  0  0  0
   39.6780   27.2340   44.4780 H   0  0  0  0  0  0  0  0  0  0  0  0
   38.3600   26.5180   42.9250 O   0  0  0  0  0  0  0  0  0  0  0  0
   37.1270   30.2120   40.8650 C   0  0  0  0  0  0  0  0  0  0  0  0
   36.9050   29.6700   41.9740 O   0  0  0  0  0  0  0  0  0  0  0  0
   38.0030   33.6660   39.9240 C   0  0  0  0  0  0  0  0  0  0  0  0
   37.2650   32.4880   40.1290 C   0  0  0  0  0  0  0  0  0  0  0  0
   37.9290   31.3830   40.6750 C   0  0  0  0  0  0  0  0  0  0  0  0
   39.2500   31.4850   40.9870 N   0  0  0  0  0  0  0  0  0  0  0  0
   39.9260   32.6480   40.7720 C   0  0  0  0  0  0  0  0  0  0  0  0
   39.3180   33.7440   40.2430 N   0  0  0  0  0  0  0  0  0  0  0  0
   37.5700   34.5640   39.5070 H   0  0  0  0  0  0  0  0  0  0  0  0
   36.2190   32.4680   39.8610 H   0  0  0  0  0  0  0  0  0  0  0  0
   40.9490   32.5130   41.0860 H   0  0  0  0  0  0  0  0  0  0  0  0
  1 13  1  6  0  0  0
  1  8  1  0  0  0  0
  1 17  1  0  0  0  0
  2  3  1  0  0  0  0
  2  9  1  0  0  0  0
  2  1  1  0  0  0  0
  3  4  1  0  0  0  0
  4  5  2  0  0  0  0
  6 11  1  6  0  0  0
  6  4  1  0  0  0  0
  6 28  1  0  0  0  0
  7 12  1  6  0  0  0
  7  3  1  0  0  0  0
  7  6  1  0  0  0  0
  7  8  1  0  0  0  0
 10  2  1  0  0  0  0
 13 15  1  0  0  0  0
 14 13  1  0  0  0  0
 16 13  1  0  0  0  0
 17 19  1  0  0  0  0
 17 20  1  0  0  0  0
 18 17  1  0  0  0  0
 20 21  2  0  0  0  0
 20 27  1  0  0  0  0
 21 23  1  0  0  0  0
 22 21  1  0  0  0  0
 23 25  2  0  0  0  0
 23 24  1  0  0  0  0
 25 26  1  0  0  0  0
 27 25  1  0  0  0  0
 28 29  2  0  0  0  0
 30 31  2  0  0  0  0
 30 35  1  0  0  0  0
 31 32  1  0  0  0  0
 32 28  1  0  0  0  0
 32 33  2  0  0  0  0
 34 33  1  0  0  0  0
 34 38  1  0  0  0  0
 35 34  2  0  0  0  0
 36 30  1  0  0  0  0
 37 31  1  0  0  0  0
M  END
>  <minimizedAffinity>
-5.1197648

$$$$

 OpenBabel03252501133D

 38 41  0  0  1  0  0  0  0  0999 V2000
   36.9660   29.4890   41.3940 C   0  0  2  0  0  0  0  0  0  0  0  0
   36.4730   30.8490   41.0860 C   0  0  0  0  0  0  0  0  0  0  0  0
   37.5000   31.6530   40.5350 N   0  0  0  0  0  0  0  0  0  0  0  0
   38.4690   32.6430   40.1990 C   0  0  0  0  0  0  0  0  0  0  0  0
   38.5840   33.7980   40.7020 O   0  0  0  0  0  0  0  0  0  0  0  0
   39.1260   31.8200   39.1900 C   0  0  2  0  0  0  0  0  0  0  0  0
   37.9480   30.9040   39.4260 C   0  0  1  0  0  0  0  0  0  0  0  0
   38.3450   29.3110   40.2000 S   0  0  0  0  0  0  0  0  0  0  0  0
   36.1730   31.3380   42.0580 H   0  0  0  0  0  0  0  0  0  0  0  0
   35.5500   30.8680   40.4650 H   0  0  0  0  0  0  0  0  0  0  0  0
   39.0860   32.2950   38.2030 H   0  0  0  0  0  0  0  0  0  0  0  0
   37.2690   30.7820   38.5550 H   0  0  0  0  0  0  0  0  0  0  0  0
   35.9200   28.4740   40.9720 C   0  0  0  0  0  0  0  0  0  0  0  0
   34.9540   29.0010   40.7640 H   0  0  0  0  0  0  0  0  0  0  0  0
   35.6750   27.7910   41.8240 H   0  0  0  0  0  0  0  0  0  0  0  0
   36.1620   27.9520   40.0340 H   0  0  0  0  0  0  0  0  0  0  0  0
   37.4300   29.2930   42.8100 C   0  0  0  0  0  0  0  0  0  0  0  0
   36.5560   29.2900   43.4670 H   0  0  0  0  0  0  0  0  0  0  0  0
   38.0390   30.2050   43.0560 H   0  0  0  0  0  0  0  0  0  0  0  0
   38.3350   28.1440   42.9500 C   0  0  0  0  0  0  0  0  0  0  0  0
   38.2560   26.7650   42.9270 C   0  0  0  0  0  0  0  0  0  0  0  0
   37.3020   26.3260   42.7680 H   0  0  0  0  0  0  0  0  0  0  0  0
   39.5100   26.2280   43.1280 C   0  0  0  0  0  0  0  0  0  0  0  0
   39.7300   25.1820   43.1570 H   0  0  0  0  0  0  0  0  0  0  0  0
   40.3090   27.3490   43.2660 C   0  0  0  0  0  0  0  0  0  0  0  0
   41.3930   27.2730   43.4420 H   0  0  0  0  0  0  0  0  0  0  0  0
   39.6070   28.4520   43.1590 O   0  0  0  0  0  0  0  0  0  0  0  0
   40.4490   31.3590   39.6390 C   0  0  0  0  0  0  0  0  0  0  0  0
   40.8560   31.2700   40.8230 O   0  0  0  0  0  0  0  0  0  0  0  0
   42.8620   31.7520   36.8820 C   0  0  0  0  0  0  0  0  0  0  0  0
   42.0770   32.0290   38.0130 C   0  0  0  0  0  0  0  0  0  0  0  0
   41.2240   31.0230   38.4830 C   0  0  0  0  0  0  0  0  0  0  0  0
   41.1850   29.8250   37.8370 N   0  0  0  0  0  0  0  0  0  0  0  0
   41.9660   29.6010   36.7440 C   0  0  0  0  0  0  0  0  0  0  0  0
   42.8080   30.5510   36.2560 N   0  0  0  0  0  0  0  0  0  0  0  0
   43.5470   32.4710   36.4540 H   0  0  0  0  0  0  0  0  0  0  0  0
   42.1500   32.9990   38.4820 H   0  0  0  0  0  0  0  0  0  0  0  0
   41.7820   28.5980   36.3920 H   0  0  0  0  0  0  0  0  0  0  0  0
  1 13  1  6  0  0  0
  1 17  1  0  0  0  0
  2  1  1  0  0  0  0
  2  9  1  0  0  0  0
  3  2  1  0  0  0  0
  4  3  1  0  0  0  0
  4  5  2  0  0  0  0
  6 11  1  6  0  0  0
  6  7  1  0  0  0  0
  6 28  1  0  0  0  0
  6  4  1  0  0  0  0
  7 12  1  6  0  0  0
  7  8  1  0  0  0  0
  7  3  1  0  0  0  0
  8  1  1  0  0  0  0
 10  2  1  0  0  0  0
 13 15  1  0  0  0  0
 14 13  1  0  0  0  0
 16 13  1  0  0  0  0
 17 20  1  0  0  0  0
 17 19  1  0  0  0  0
 17 18  1  0  0  0  0
 20 27  1  0  0  0  0
 21 20  2  0  0  0  0
 21 23  1  0  0  0  0
 22 21  1  0  0  0  0
 23 24  1  0  0  0  0
 23 25  2  0  0  0  0
 25 26  1  0  0  0  0
 27 25  1  0  0  0  0
 28 29  2  0  0  0  0
 30 31  1  0  0  0  0
 31 37  1  0  0  0  0
 31 32  2  0  0  0  0
 32 28  1  0  0  0  0
 33 32  1  0  0  0  0
 34 33  2  0  0  0  0
 35 34  1  0  0  0  0
 35 30  2  0  0  0  0
 36 30  1  0  0  0  0
 38 34  1  0  0  0  0
M  END
>  <minimizedAffinity>
-5.09205294

$$$$

 OpenBabel03252501133D

 38 41  0  0  1  0  0  0  0  0999 V2000
   36.5940   29.0840   39.5210 C   0  0  2  0  0  0  0  0  0  0  0  0
   36.1740   30.2080   38.6560 C   0  0  0  0  0  0  0  0  0  0  0  0
   37.0160   31.3320   38.8330 N   0  0  0  0  0  0  0  0  0  0  0  0
   37.6160   32.6040   39.0710 C   0  0  0  0  0  0  0  0  0  0  0  0
   37.0210   33.7090   39.2250 O   0  0  0  0  0  0  0  0  0  0  0  0
   38.9810   32.0910   39.0510 C   0  0  2  0  0  0  0  0  0  0  0  0
   38.3080   30.8220   38.5820 C   0  0  1  0  0  0  0  0  0  0  0  0
   38.3810   29.4290   39.7420 S   0  0  0  0  0  0  0  0  0  0  0  0
   35.1420   30.5300   38.9810 H   0  0  0  0  0  0  0  0  0  0  0  0
   36.0600   29.9380   37.5830 H   0  0  0  0  0  0  0  0  0  0  0  0
   39.5700   32.5620   38.2550 H   0  0  0  0  0  0  0  0  0  0  0  0
   38.5660   30.5110   37.5470 H   0  0  0  0  0  0  0  0  0  0  0  0
   36.5180   27.7930   38.7280 C   0  0  0  0  0  0  0  0  0  0  0  0
   35.9410   27.9690   37.7850 H   0  0  0  0  0  0  0  0  0  0  0  0
   35.9060   27.0340   39.2780 H   0  0  0  0  0  0  0  0  0  0  0  0
   37.4970   27.4190   38.3930 H   0  0  0  0  0  0  0  0  0  0  0  0
   35.8780   29.0010   40.8390 C   0  0  0  0  0  0  0  0  0  0  0  0
   34.8920   28.5590   40.6740 H   0  0  0  0  0  0  0  0  0  0  0  0
   35.7240   30.0660   41.1640 H   0  0  0  0  0  0  0  0  0  0  0  0
   36.6950   28.3670   41.8820 C   0  0  0  0  0  0  0  0  0  0  0  0
   37.1040   27.0960   42.2360 C   0  0  0  0  0  0  0  0  0  0  0  0
   36.7790   26.2850   41.6320 H   0  0  0  0  0  0  0  0  0  0  0  0
   37.8930   27.1620   43.3650 C   0  0  0  0  0  0  0  0  0  0  0  0
   38.3400   26.3210   43.8490 H   0  0  0  0  0  0  0  0  0  0  0  0
   37.9210   28.5170   43.6450 C   0  0  0  0  0  0  0  0  0  0  0  0
   38.4770   28.9230   44.5040 H   0  0  0  0  0  0  0  0  0  0  0  0
   37.2180   29.1990   42.7710 O   0  0  0  0  0  0  0  0  0  0  0  0
   39.5820   32.0870   40.3940 C   0  0  0  0  0  0  0  0  0  0  0  0
   38.9800   31.9970   41.4900 O   0  0  0  0  0  0  0  0  0  0  0  0
   42.9330   33.6140   40.5320 C   0  0  0  0  0  0  0  0  0  0  0  0
   41.5440   33.4390   40.6490 C   0  0  0  0  0  0  0  0  0  0  0  0
   41.0020   32.2110   40.2500 C   0  0  0  0  0  0  0  0  0  0  0  0
   41.8260   31.2410   39.7700 N   0  0  0  0  0  0  0  0  0  0  0  0
   43.1680   31.4550   39.6760 C   0  0  0  0  0  0  0  0  0  0  0  0
   43.7350   32.6330   40.0520 N   0  0  0  0  0  0  0  0  0  0  0  0
   43.4340   34.5290   40.8160 H   0  0  0  0  0  0  0  0  0  0  0  0
   40.9420   34.2460   41.0360 H   0  0  0  0  0  0  0  0  0  0  0  0
   43.6290   30.5660   39.2750 H   0  0  0  0  0  0  0  0  0  0  0  0
  1 13  1  6  0  0  0
  1  8  1  0  0  0  0
  1 17  1  0  0  0  0
  2  3  1  0  0  0  0
  2  9  1  0  0  0  0
  2  1  1  0  0  0  0
  3  4  1  0  0  0  0
  4  5  2  0  0  0  0
  6 11  1  6  0  0  0
  6  4  1  0  0  0  0
  6 28  1  0  0  0  0
  7 12  1  6  0  0  0
  7  3  1  0  0  0  0
  7  6  1  0  0  0  0
  7  8  1  0  0  0  0
 10  2  1  0  0  0  0
 13 15  1  0  0  0  0
 14 13  1  0  0  0  0
 16 13  1  0  0  0  0
 17 19  1  0  0  0  0
 17 20  1  0  0  0  0
 18 17  1  0  0  0  0
 20 21  2  0  0  0  0
 20 27  1  0  0  0  0
 21 23  1  0  0  0  0
 22 21  1  0  0  0  0
 23 25  2  0  0  0  0
 23 24  1  0  0  0  0
 25 26  1  0  0  0  0
 27 25  1  0  0  0  0
 28 29  2  0  0  0  0
 30 31  1  0  0  0  0
 30 36  1  0  0  0  0
 31 37  1  0  0  0  0
 32 28  1  0  0  0  0
 32 31  2  0  0  0  0
 33 32  1  0  0  0  0
 34 33  2  0  0  0  0
 34 35  1  0  0  0  0
 35 30  2  0  0  0  0
 38 34  1  0  0  0  0
M  END
>  <minimizedAffinity>
-5.04378986

$$$$

 OpenBabel03252501133D

 38 41  0  0  1  0  0  0  0  0999 V2000
   37.4040   27.8430   42.6780 C   0  0  2  0  0  0  0  0  0  0  0  0
   37.6790   29.2850   42.8570 C   0  0  0  0  0  0  0  0  0  0  0  0
   37.7950   29.9420   41.6080 N   0  0  0  0  0  0  0  0  0  0  0  0
   38.1720   30.6870   40.4520 C   0  0  0  0  0  0  0  0  0  0  0  0
   39.1700   31.4540   40.3330 O   0  0  0  0  0  0  0  0  0  0  0  0
   37.0530   30.2150   39.6440 C   0  0  2  0  0  0  0  0  0  0  0  0
   36.5830   29.6310   40.9550 C   0  0  1  0  0  0  0  0  0  0  0  0
   36.5790   27.8180   41.0420 S   0  0  0  0  0  0  0  0  0  0  0  0
   38.6820   29.3870   43.3640 H   0  0  0  0  0  0  0  0  0  0  0  0
   36.9660   29.8030   43.5350 H   0  0  0  0  0  0  0  0  0  0  0  0
   36.4220   31.0480   39.3150 H   0  0  0  0  0  0  0  0  0  0  0  0
   35.6390   30.0650   41.3490 H   0  0  0  0  0  0  0  0  0  0  0  0
   36.3490   27.4100   43.6800 C   0  0  0  0  0  0  0  0  0  0  0  0
   36.2210   28.2110   44.4530 H   0  0  0  0  0  0  0  0  0  0  0  0
   36.7080   26.5270   44.2660 H   0  0  0  0  0  0  0  0  0  0  0  0
   35.3480   27.2800   43.2420 H   0  0  0  0  0  0  0  0  0  0  0  0
   38.6210   26.9620   42.6980 C   0  0  0  0  0  0  0  0  0  0  0  0
   38.9840   26.8890   43.7270 H   0  0  0  0  0  0  0  0  0  0  0  0
   39.3990   27.5110   42.1010 H   0  0  0  0  0  0  0  0  0  0  0  0
   38.4010   25.6840   42.0090 C   0  0  0  0  0  0  0  0  0  0  0  0
   37.6420   24.5420   42.1800 C   0  0  0  0  0  0  0  0  0  0  0  0
   37.0060   24.4920   43.0290 H   0  0  0  0  0  0  0  0  0  0  0  0
   37.8900   23.6640   41.1460 C   0  0  0  0  0  0  0  0  0  0  0  0
   37.4340   22.7040   41.0370 H   0  0  0  0  0  0  0  0  0  0  0  0
   38.8180   24.3440   40.3780 C   0  0  0  0  0  0  0  0  0  0  0  0
   39.2370   23.9130   39.4550 H   0  0  0  0  0  0  0  0  0  0  0  0
   39.1010   25.5150   40.8970 O   0  0  0  0  0  0  0  0  0  0  0  0
   37.4930   29.2770   38.5990 C   0  0  0  0  0  0  0  0  0  0  0  0
   38.5490   28.6000   38.5880 O   0  0  0  0  0  0  0  0  0  0  0  0
   36.0200   29.6430   35.2410 C   0  0  0  0  0  0  0  0  0  0  0  0
   36.9490   29.6430   36.2940 C   0  0  0  0  0  0  0  0  0  0  0  0
   36.5020   29.2610   37.5650 C   0  0  0  0  0  0  0  0  0  0  0  0
   35.1990   28.9070   37.7360 N   0  0  0  0  0  0  0  0  0  0  0  0
   34.3330   28.9210   36.6850 C   0  0  0  0  0  0  0  0  0  0  0  0
   34.7260   29.2840   35.4350 N   0  0  0  0  0  0  0  0  0  0  0  0
   36.2790   29.9230   34.2300 H   0  0  0  0  0  0  0  0  0  0  0  0
   37.9690   29.9350   36.0960 H   0  0  0  0  0  0  0  0  0  0  0  0
   33.3630   28.6080   37.0370 H   0  0  0  0  0  0  0  0  0  0  0  0
  1 17  1  1  0  0  0
  1  2  1  0  0  0  0
  1 13  1  0  0  0  0
  2  9  1  0  0  0  0
  2 10  1  0  0  0  0
  3  2  1  0  0  0  0
  4  3  1  0  0  0  0
  5  4  2  0  0  0  0
  6 11  1  6  0  0  0
  6  4  1  0  0  0  0
  6  7  1  0  0  0  0
  7  8  1  0  0  0  0
  7 12  1  1  0  0  0
  7  3  1  0  0  0  0
  8  1  1  0  0  0  0
 13 15  1  0  0  0  0
 13 14  1  0  0  0  0
 16 13  1  0  0  0  0
 17 18  1  0  0  0  0
 19 17  1  0  0  0  0
 20 21  2  0  0  0  0
 20 17  1  0  0  0  0
 21 22  1  0  0  0  0
 23 21  1  0  0  0  0
 24 23  1  0  0  0  0
 25 27  1  0  0  0  0
 25 23  2  0  0  0  0
 26 25  1  0  0  0  0
 27 20  1  0  0  0  0
 28  6  1  0  0  0  0
 29 28  2  0  0  0  0
 30 35  2  0  0  0  0
 30 31  1  0  0  0  0
 31 32  2  0  0  0  0
 32 33  1  0  0  0  0
 32 28  1  0  0  0  0
 34 38  1  0  0  0  0
 34 33  2  0  0  0  0
 35 34  1  0  0  0  0
 36 30  1  0  0  0  0
 37 31  1  0  0  0  0
M  END
>  <minimizedAffinity>
-5.02347994

$$$$

 OpenBabel03252501133D

 38 41  0  0  1  0  0  0  0  0999 V2000
   37.5640   26.1140   39.7100 C   0  0  2  0  0  0  0  0  0  0  0  0
   36.8000   26.2330   40.9710 C   0  0  0  0  0  0  0  0  0  0  0  0
   37.0250   27.4870   41.5890 N   0  0  0  0  0  0  0  0  0  0  0  0
   37.3310   28.5890   42.4400 C   0  0  0  0  0  0  0  0  0  0  0  0
   37.5880   28.5450   43.6780 O   0  0  0  0  0  0  0  0  0  0  0  0
   37.2200   29.5850   41.3820 C   0  0  2  0  0  0  0  0  0  0  0  0
   36.6860   28.4180   40.5830 C   0  0  1  0  0  0  0  0  0  0  0  0
   37.7390   27.8680   39.2110 S   0  0  0  0  0  0  0  0  0  0  0  0
   37.1870   25.4510   41.6870 H   0  0  0  0  0  0  0  0  0  0  0  0
   35.7150   26.0080   40.8680 H   0  0  0  0  0  0  0  0  0  0  0  0
   36.4380   30.3190   41.6080 H   0  0  0  0  0  0  0  0  0  0  0  0
   35.6220   28.5080   40.2770 H   0  0  0  0  0  0  0  0  0  0  0  0
   36.6830   25.4700   38.6550 C   0  0  0  0  0  0  0  0  0  0  0  0
   35.7780   25.0290   39.1450 H   0  0  0  0  0  0  0  0  0  0  0  0
   37.2010   24.5870   38.2020 H   0  0  0  0  0  0  0  0  0  0  0  0
   36.2830   26.1820   37.9160 H   0  0  0  0  0  0  0  0  0  0  0  0
   38.8990   25.4390   39.8440 C   0  0  0  0  0  0  0  0  0  0  0  0
   39.6090   25.9320   39.1730 H   0  0  0  0  0  0  0  0  0  0  0  0
   38.7460   24.3920   39.4670 H   0  0  0  0  0  0  0  0  0  0  0  0
   39.3280   25.3140   41.2430 C   0  0  0  0  0  0  0  0  0  0  0  0
   39.1830   24.4180   42.2850 C   0  0  0  0  0  0  0  0  0  0  0  0
   38.6130   23.5400   42.1080 H   0  0  0  0  0  0  0  0  0  0  0  0
   39.8530   24.8900   43.3940 C   0  0  0  0  0  0  0  0  0  0  0  0
   39.9010   24.3900   44.3380 H   0  0  0  0  0  0  0  0  0  0  0  0
   40.3850   26.0870   42.9500 C   0  0  0  0  0  0  0  0  0  0  0  0
   40.9920   26.7320   43.6040 H   0  0  0  0  0  0  0  0  0  0  0  0
   40.0680   26.3140   41.6980 O   0  0  0  0  0  0  0  0  0  0  0  0
   38.5340   30.1250   41.0020 C   0  0  0  0  0  0  0  0  0  0  0  0
   39.6260   29.5090   40.9780 O   0  0  0  0  0  0  0  0  0  0  0  0
   37.1120   33.1290   39.4070 C   0  0  0  0  0  0  0  0  0  0  0  0
   37.3210   31.7890   39.7750 C   0  0  0  0  0  0  0  0  0  0  0  0
   38.3690   31.5070   40.6590 C   0  0  0  0  0  0  0  0  0  0  0  0
   39.1410   32.5250   41.1280 N   0  0  0  0  0  0  0  0  0  0  0  0
   38.9010   33.8100   40.7440 C   0  0  0  0  0  0  0  0  0  0  0  0
   37.8930   34.1270   39.8880 N   0  0  0  0  0  0  0  0  0  0  0  0
   36.3270   33.4350   38.7310 H   0  0  0  0  0  0  0  0  0  0  0  0
   36.6760   31.0250   39.3690 H   0  0  0  0  0  0  0  0  0  0  0  0
   39.6210   34.4510   41.2270 H   0  0  0  0  0  0  0  0  0  0  0  0
  1 13  1  6  0  0  0
  1 17  1  0  0  0  0
  1  2  1  0  0  0  0
  2  3  1  0  0  0  0
  2  9  1  0  0  0  0
  3  4  1  0  0  0  0
  4  5  2  0  0  0  0
  6 11  1  1  0  0  0
  6  4  1  0  0  0  0
  7 12  1  6  0  0  0
  7  6  1  0  0  0  0
  7  3  1  0  0  0  0
  8  1  1  0  0  0  0
  8  7  1  0  0  0  0
 10  2  1  0  0  0  0
 13 14  1  0  0  0  0
 15 13  1  0  0  0  0
 16 13  1  0  0  0  0
 17 20  1  0  0  0  0
 18 17  1  0  0  0  0
 19 17  1  0  0  0  0
 20 27  1  0  0  0  0
 20 21  2  0  0  0  0
 21 23  1  0  0  0  0
 22 21  1  0  0  0  0
 23 24  1  0  0  0  0
 25 23  2  0  0  0  0
 25 26  1  0  0  0  0
 27 25  1  0  0  0  0
 28  6  1  0  0  0  0
 29 28  2  0  0  0  0
 30 31  2  0  0  0  0
 30 35  1  0  0  0  0
 31 32  1  0  0  0  0
 32 28  1  0  0  0  0
 32 33  2  0  0  0  0
 34 33  1  0  0  0  0
 34 38  1  0  0  0  0
 35 34  2  0  0  0  0
 36 30  1  0  0  0  0
 37 31  1  0  0  0  0
M  END
>  <minimizedAffinity>
-4.99245882

$$$$

 OpenBabel03252501133D

 38 41  0  0  1  0  0  0  0  0999 V2000
   38.0630   27.1270   39.4370 C   0  0  2  0  0  0  0  0  0  0  0  0
   36.7600   27.8190   39.5340 C   0  0  0  0  0  0  0  0  0  0  0  0
   36.9320   29.1990   39.8020 N   0  0  0  0  0  0  0  0  0  0  0  0
   36.9330   30.5350   40.3000 C   0  0  0  0  0  0  0  0  0  0  0  0
   36.2080   31.0030   41.2250 O   0  0  0  0  0  0  0  0  0  0  0  0
   37.9770   30.9930   39.3920 C   0  0  2  0  0  0  0  0  0  0  0  0
   37.7760   29.6360   38.7590 C   0  0  1  0  0  0  0  0  0  0  0  0
   39.1730   28.4890   38.9170 S   0  0  0  0  0  0  0  0  0  0  0  0
   36.2030   27.3910   40.4180 H   0  0  0  0  0  0  0  0  0  0  0  0
   36.0860   27.6440   38.6660 H   0  0  0  0  0  0  0  0  0  0  0  0
   37.6170   31.8040   38.7490 H   0  0  0  0  0  0  0  0  0  0  0  0
   37.3750   29.6580   37.7230 H   0  0  0  0  0  0  0  0  0  0  0  0
   38.0250   26.1570   38.2710 C   0  0  0  0  0  0  0  0  0  0  0  0
   36.9650   26.0260   37.9320 H   0  0  0  0  0  0  0  0  0  0  0  0
   38.3270   25.1330   38.6070 H   0  0  0  0  0  0  0  0  0  0  0  0
   38.5630   26.5130   37.3800 H   0  0  0  0  0  0  0  0  0  0  0  0
   38.5330   26.4860   40.7120 C   0  0  0  0  0  0  0  0  0  0  0  0
   39.6260   26.5110   40.7350 H   0  0  0  0  0  0  0  0  0  0  0  0
   38.2180   25.4090   40.6400 H   0  0  0  0  0  0  0  0  0  0  0  0
   37.8580   27.0320   41.8970 C   0  0  0  0  0  0  0  0  0  0  0  0
   36.7200   26.7790   42.6390 C   0  0  0  0  0  0  0  0  0  0  0  0
   36.0970   25.9760   42.3330 H   0  0  0  0  0  0  0  0  0  0  0  0
   36.6370   27.6810   43.6790 C   0  0  0  0  0  0  0  0  0  0  0  0
   35.8530   27.7080   44.4040 H   0  0  0  0  0  0  0  0  0  0  0  0
   37.7680   28.4590   43.5050 C   0  0  0  0  0  0  0  0  0  0  0  0
   38.0110   29.2920   44.1820 H   0  0  0  0  0  0  0  0  0  0  0  0
   38.4630   28.0650   42.4650 O   0  0  0  0  0  0  0  0  0  0  0  0
   39.2460   31.2340   40.0970 C   0  0  0  0  0  0  0  0  0  0  0  0
   39.5780   30.7980   41.2250 O   0  0  0  0  0  0  0  0  0  0  0  0
   41.2660   34.1470   39.0890 C   0  0  0  0  0  0  0  0  0  0  0  0
   40.4590   33.2860   39.8520 C   0  0  0  0  0  0  0  0  0  0  0  0
   40.0650   32.0730   39.2740 C   0  0  0  0  0  0  0  0  0  0  0  0
   40.4700   31.7720   38.0100 N   0  0  0  0  0  0  0  0  0  0  0  0
   41.2530   32.6380   37.3080 C   0  0  0  0  0  0  0  0  0  0  0  0
   41.6590   33.8260   37.8320 N   0  0  0  0  0  0  0  0  0  0  0  0
   41.6160   35.1010   39.4570 H   0  0  0  0  0  0  0  0  0  0  0  0
   40.1690   33.5810   40.8490 H   0  0  0  0  0  0  0  0  0  0  0  0
   41.4560   32.2080   36.3400 H   0  0  0  0  0  0  0  0  0  0  0  0
  1 13  1  6  0  0  0
  1  2  1  0  0  0  0
  1 17  1  0  0  0  0
  2  3  1  0  0  0  0
  2  9  1  0  0  0  0
  3  4  1  0  0  0  0
  4  5  2  0  0  0  0
  6 11  1  6  0  0  0
  6 28  1  0  0  0  0
  6  4  1  0  0  0  0
  7 12  1  6  0  0  0
  7  8  1  0  0  0  0
  7  6  1  0  0  0  0
  7  3  1  0  0  0  0
  8  1  1  0  0  0  0
 10  2  1  0  0  0  0
 13 15  1  0  0  0  0
 14 13  1  0  0  0  0
 16 13  1  0  0  0  0
 17 18  1  0  0  0  0
 17 20  1  0  0  0  0
 19 17  1  0  0  0  0
 20 27  1  0  0  0  0
 20 21  2  0  0  0  0
 21 23  1  0  0  0  0
 22 21  1  0  0  0  0
 23 24  1  0  0  0  0
 25 23  2  0  0  0  0
 25 26  1  0  0  0  0
 27 25  1  0  0  0  0
 28 29  2  0  0  0  0
 30 36  1  0  0  0  0
 30 31  1  0  0  0  0
 31 37  1  0  0  0  0
 32 31  2  0  0  0  0
 32 28  1  0  0  0  0
 33 32  1  0  0  0  0
 34 35  1  0  0  0  0
 34 33  2  0  0  0  0
 35 30  2  0  0  0  0
 38 34  1  0  0  0  0
M  END
>  <minimizedAffinity>
-4.89494419

$$$$

 OpenBabel03252501133D

 38 41  0  0  1  0  0  0  0  0999 V2000
   38.9960   27.8130   42.6350 C   0  0  2  0  0  0  0  0  0  0  0  0
   38.0470   28.8270   43.1430 C   0  0  0  0  0  0  0  0  0  0  0  0
   37.1450   29.2350   42.1320 N   0  0  0  0  0  0  0  0  0  0  0  0
   36.3330   29.9140   41.1760 C   0  0  0  0  0  0  0  0  0  0  0  0
   36.1750   31.1630   41.0620 O   0  0  0  0  0  0  0  0  0  0  0  0
   35.8720   28.6910   40.5300 C   0  0  2  0  0  0  0  0  0  0  0  0
   36.5640   28.0240   41.6970 C   0  0  1  0  0  0  0  0  0  0  0  0
   38.0350   27.0490   41.2750 S   0  0  0  0  0  0  0  0  0  0  0  0
   38.6390   29.7440   43.4310 H   0  0  0  0  0  0  0  0  0  0  0  0
   37.5200   28.5290   44.0770 H   0  0  0  0  0  0  0  0  0  0  0  0
   34.7820   28.5960   40.5910 H   0  0  0  0  0  0  0  0  0  0  0  0
   35.8900   27.4770   42.3900 H   0  0  0  0  0  0  0  0  0  0  0  0
   39.1700   26.7270   43.6800 C   0  0  0  0  0  0  0  0  0  0  0  0
   38.7410   27.0760   44.6530 H   0  0  0  0  0  0  0  0  0  0  0  0
   40.2560   26.5740   43.9050 H   0  0  0  0  0  0  0  0  0  0  0  0
   38.6260   25.7990   43.4490 H   0  0  0  0  0  0  0  0  0  0  0  0
   40.3060   28.3650   42.1460 C   0  0  0  0  0  0  0  0  0  0  0  0
   40.7090   27.6890   41.3860 H   0  0  0  0  0  0  0  0  0  0  0  0
   40.9960   28.3310   43.0330 H   0  0  0  0  0  0  0  0  0  0  0  0
   40.2090   29.7770   41.7540 C   0  0  0  0  0  0  0  0  0  0  0  0
   40.2840   31.0180   42.3580 C   0  0  0  0  0  0  0  0  0  0  0  0
   40.4610   31.0500   43.4040 H   0  0  0  0  0  0  0  0  0  0  0  0
   40.1030   32.0030   41.4100 C   0  0  0  0  0  0  0  0  0  0  0  0
   40.1130   33.0530   41.6100 H   0  0  0  0  0  0  0  0  0  0  0  0
   39.9210   31.2820   40.2440 C   0  0  0  0  0  0  0  0  0  0  0  0
   39.7460   31.7760   39.2750 H   0  0  0  0  0  0  0  0  0  0  0  0
   39.9860   29.9910   40.4660 O   0  0  0  0  0  0  0  0  0  0  0  0
   36.4700   28.5200   39.1970 C   0  0  0  0  0  0  0  0  0  0  0  0
   37.5750   28.9640   38.8020 O   0  0  0  0  0  0  0  0  0  0  0  0
   35.0210   25.5920   37.4910 C   0  0  0  0  0  0  0  0  0  0  0  0
   35.8760   26.3930   38.2650 C   0  0  0  0  0  0  0  0  0  0  0  0
   35.5650   27.7520   38.3940 C   0  0  0  0  0  0  0  0  0  0  0  0
   34.4590   28.2460   37.7740 N   0  0  0  0  0  0  0  0  0  0  0  0
   33.6570   27.4310   37.0340 C   0  0  0  0  0  0  0  0  0  0  0  0
   33.9230   26.1060   36.8830 N   0  0  0  0  0  0  0  0  0  0  0  0
   35.1860   24.5350   37.3390 H   0  0  0  0  0  0  0  0  0  0  0  0
   36.7400   25.9440   38.7320 H   0  0  0  0  0  0  0  0  0  0  0  0
   32.8450   28.0190   36.6360 H   0  0  0  0  0  0  0  0  0  0  0  0
  1 17  1  6  0  0  0
  1  2  1  0  0  0  0
  1 13  1  0  0  0  0
  2  9  1  0  0  0  0
  2 10  1  0  0  0  0
  3  2  1  0  0  0  0
  4  3  1  0  0  0  0
  5  4  2  0  0  0  0
  6 11  1  1  0  0  0
  6  4  1  0  0  0  0
  6  7  1  0  0  0  0
  7  3  1  0  0  0  0
  7 12  1  1  0  0  0
  8  7  1  0  0  0  0
  8  1  1  0  0  0  0
 13 15  1  0  0  0  0
 13 14  1  0  0  0  0
 16 13  1  0  0  0  0
 17 19  1  0  0  0  0
 18 17  1  0  0  0  0
 20 17  1  0  0  0  0
 20 21  2  0  0  0  0
 21 22  1  0  0  0  0
 23 24  1  0  0  0  0
 23 21  1  0  0  0  0
 25 27  1  0  0  0  0
 25 23  2  0  0  0  0
 26 25  1  0  0  0  0
 27 20  1  0  0  0  0
 28  6  1  0  0  0  0
 29 28  2  0  0  0  0
 30 31  1  0  0  0  0
 31 32  2  0  0  0  0
 31 37  1  0  0  0  0
 32 28  1  0  0  0  0
 33 32  1  0  0  0  0
 34 33  2  0  0  0  0
 35 34  1  0  0  0  0
 35 30  2  0  0  0  0
 36 30  1  0  0  0  0
 38 34  1  0  0  0  0
M  END
>  <minimizedAffinity>
-4.85703039

$$$$

 OpenBabel03252501133D

 38 41  0  0  1  0  0  0  0  0999 V2000
   38.0470   26.7630   42.3000 C   0  0  2  0  0  0  0  0  0  0  0  0
   39.0000   27.1290   43.3700 C   0  0  0  0  0  0  0  0  0  0  0  0
   39.6990   28.3180   43.0480 N   0  0  0  0  0  0  0  0  0  0  0  0
   40.6390   29.3520   42.7650 C   0  0  0  0  0  0  0  0  0  0  0  0
   41.8920   29.3080   42.9340 O   0  0  0  0  0  0  0  0  0  0  0  0
   39.6340   30.2900   42.2810 C   0  0  2  0  0  0  0  0  0  0  0  0
   38.6690   29.2530   42.8060 C   0  0  1  0  0  0  0  0  0  0  0  0
   37.6890   28.3930   41.5440 S   0  0  0  0  0  0  0  0  0  0  0  0
   39.7770   26.3130   43.4390 H   0  0  0  0  0  0  0  0  0  0  0  0
   38.5490   27.1740   44.3860 H   0  0  0  0  0  0  0  0  0  0  0  0
   39.6220   31.2050   42.8850 H   0  0  0  0  0  0  0  0  0  0  0  0
   38.0410   29.5870   43.6590 H   0  0  0  0  0  0  0  0  0  0  0  0
   36.7450   26.3050   42.9310 C   0  0  0  0  0  0  0  0  0  0  0  0
   36.9050   26.1250   44.0240 H   0  0  0  0  0  0  0  0  0  0  0  0
   36.4530   25.3000   42.5340 H   0  0  0  0  0  0  0  0  0  0  0  0
   35.9410   27.0550   42.8840 H   0  0  0  0  0  0  0  0  0  0  0  0
   38.5790   25.7880   41.2890 C   0  0  0  0  0  0  0  0  0  0  0  0
   39.2480   25.0860   41.7970 H   0  0  0  0  0  0  0  0  0  0  0  0
   39.2020   26.3990   40.5800 H   0  0  0  0  0  0  0  0  0  0  0  0
   37.5140   25.1800   40.4810 C   0  0  0  0  0  0  0  0  0  0  0  0
   36.6680   25.5480   39.4530 C   0  0  0  0  0  0  0  0  0  0  0  0
   36.7430   26.5390   39.0800 H   0  0  0  0  0  0  0  0  0  0  0  0
   35.8610   24.4820   39.1150 C   0  0  0  0  0  0  0  0  0  0  0  0
   35.1150   24.4980   38.3500 H   0  0  0  0  0  0  0  0  0  0  0  0
   36.2760   23.4910   39.9860 C   0  0  0  0  0  0  0  0  0  0  0  0
   35.8250   22.4860   39.9830 H   0  0  0  0  0  0  0  0  0  0  0  0
   37.2360   23.9170   40.7710 O   0  0  0  0  0  0  0  0  0  0  0  0
   39.7130   30.4710   40.8230 C   0  0  0  0  0  0  0  0  0  0  0  0
   40.2640   29.7050   39.9960 O   0  0  0  0  0  0  0  0  0  0  0  0
   39.1980   34.0900   40.3590 C   0  0  0  0  0  0  0  0  0  0  0  0
   39.8000   32.8610   40.6760 C   0  0  0  0  0  0  0  0  0  0  0  0
   39.0490   31.6940   40.4860 C   0  0  0  0  0  0  0  0  0  0  0  0
   37.7800   31.7880   40.0050 N   0  0  0  0  0  0  0  0  0  0  0  0
   37.2370   33.0020   39.7100 C   0  0  0  0  0  0  0  0  0  0  0  0
   37.9320   34.1590   39.8800 N   0  0  0  0  0  0  0  0  0  0  0  0
   39.7040   35.0380   40.4750 H   0  0  0  0  0  0  0  0  0  0  0  0
   40.8100   32.8510   41.0550 H   0  0  0  0  0  0  0  0  0  0  0  0
   36.2330   32.8490   39.3470 H   0  0  0  0  0  0  0  0  0  0  0  0
  1 17  1  6  0  0  0
  1 13  1  0  0  0  0
  1  2  1  0  0  0  0
  2  9  1  0  0  0  0
  2 10  1  0  0  0  0
  3  2  1  0  0  0  0
  4  5  2  0  0  0  0
  4  3  1  0  0  0  0
  6  4  1  0  0  0  0
  6  7  1  0  0  0  0
  6 11  1  1  0  0  0
  7  3  1  0  0  0  0
  7 12  1  1  0  0  0
  8  1  1  0  0  0  0
  8  7  1  0  0  0  0
 13 14  1  0  0  0  0
 15 13  1  0  0  0  0
 16 13  1  0  0  0  0
 17 18  1  0  0  0  0
 19 17  1  0  0  0  0
 20 27  1  0  0  0  0
 20 17  1  0  0  0  0
 21 20  2  0  0  0  0
 22 21  1  0  0  0  0
 23 21  1  0  0  0  0
 23 25  2  0  0  0  0
 24 23  1  0  0  0  0
 25 27  1  0  0  0  0
 26 25  1  0  0  0  0
 28  6  1  0  0  0  0
 29 28  2  0  0  0  0
 30 36  1  0  0  0  0
 30 31  1  0  0  0  0
 31 37  1  0  0  0  0
 32 31  2  0  0  0  0
 32 28  1  0  0  0  0
 33 32  1  0  0  0  0
 34 35  1  0  0  0  0
 34 33  2  0  0  0  0
 35 30  2  0  0  0  0
 38 34  1  0  0  0  0
M  END
>  <minimizedAffinity>
-4.81381607

$$$$

 OpenBabel03252501133D

 38 41  0  0  1  0  0  0  0  0999 V2000
   37.5260   25.9540   39.9530 C   0  0  2  0  0  0  0  0  0  0  0  0
   36.3140   26.3390   39.1980 C   0  0  0  0  0  0  0  0  0  0  0  0
   36.0200   27.7130   39.3700 N   0  0  0  0  0  0  0  0  0  0  0  0
   35.4640   29.0000   39.6330 C   0  0  0  0  0  0  0  0  0  0  0  0
   34.2580   29.2660   39.9050 O   0  0  0  0  0  0  0  0  0  0  0  0
   36.7280   29.7060   39.4630 C   0  0  2  0  0  0  0  0  0  0  0  0
   37.2120   28.3600   38.9770 C   0  0  1  0  0  0  0  0  0  0  0  0
   38.4350   27.5430   40.0400 S   0  0  0  0  0  0  0  0  0  0  0  0
   35.4410   25.7700   39.6290 H   0  0  0  0  0  0  0  0  0  0  0  0
   36.3360   26.0490   38.1240 H   0  0  0  0  0  0  0  0  0  0  0  0
   36.6670   30.4390   38.6500 H   0  0  0  0  0  0  0  0  0  0  0  0
   37.5070   28.3280   37.9070 H   0  0  0  0  0  0  0  0  0  0  0  0
   38.3770   25.0380   39.0920 C   0  0  0  0  0  0  0  0  0  0  0  0
   37.7760   24.6890   38.2150 H   0  0  0  0  0  0  0  0  0  0  0  0
   38.6160   24.0950   39.6460 H   0  0  0  0  0  0  0  0  0  0  0  0
   39.2560   25.5330   38.6510 H   0  0  0  0  0  0  0  0  0  0  0  0
   37.2640   25.3900   41.3200 C   0  0  0  0  0  0  0  0  0  0  0  0
   36.8780   24.3720   41.2110 H   0  0  0  0  0  0  0  0  0  0  0  0
   36.4420   26.0210   41.7530 H   0  0  0  0  0  0  0  0  0  0  0  0
   38.4150   25.5410   42.2200 C   0  0  0  0  0  0  0  0  0  0  0  0
   38.8780   26.4490   43.1520 C   0  0  0  0  0  0  0  0  0  0  0  0
   38.2930   27.3170   43.3310 H   0  0  0  0  0  0  0  0  0  0  0  0
   40.0720   26.0020   43.6790 C   0  0  0  0  0  0  0  0  0  0  0  0
   40.6430   26.5170   44.4210 H   0  0  0  0  0  0  0  0  0  0  0  0
   40.2750   24.8060   43.0150 C   0  0  0  0  0  0  0  0  0  0  0  0
   41.1590   24.1780   43.2050 H   0  0  0  0  0  0  0  0  0  0  0  0
   39.3020   24.5570   42.1720 O   0  0  0  0  0  0  0  0  0  0  0  0
   37.2550   30.1960   40.7460 C   0  0  0  0  0  0  0  0  0  0  0  0
   36.8430   29.9010   41.8940 O   0  0  0  0  0  0  0  0  0  0  0  0
   40.4290   32.0050   41.2310 C   0  0  0  0  0  0  0  0  0  0  0  0
   39.3420   31.1430   41.4480 C   0  0  0  0  0  0  0  0  0  0  0  0
   38.3380   31.0940   40.4740 C   0  0  0  0  0  0  0  0  0  0  0  0
   38.4470   31.8710   39.3620 N   0  0  0  0  0  0  0  0  0  0  0  0
   39.5210   32.6920   39.1920 C   0  0  0  0  0  0  0  0  0  0  0  0
   40.5180   32.7690   40.1150 N   0  0  0  0  0  0  0  0  0  0  0  0
   41.2470   32.1050   41.9300 H   0  0  0  0  0  0  0  0  0  0  0  0
   39.3100   30.5520   42.3510 H   0  0  0  0  0  0  0  0  0  0  0  0
   39.4090   33.2120   38.2540 H   0  0  0  0  0  0  0  0  0  0  0  0
  1 13  1  6  0  0  0
  1  8  1  0  0  0  0
  1 17  1  0  0  0  0
  2  3  1  0  0  0  0
  2  9  1  0  0  0  0
  2  1  1  0  0  0  0
  3  4  1  0  0  0  0
  4  5  2  0  0  0  0
  6 11  1  6  0  0  0
  6  4  1  0  0  0  0
  6 28  1  0  0  0  0
  7 12  1  6  0  0  0
  7  3  1  0  0  0  0
  7  6  1  0  0  0  0
  7  8  1  0  0  0  0
 10  2  1  0  0  0  0
 13 15  1  0  0  0  0
 14 13  1  0  0  0  0
 16 13  1  0  0  0  0
 17 19  1  0  0  0  0
 17 20  1  0  0  0  0
 18 17  1  0  0  0  0
 20 21  2  0  0  0  0
 21 22  1  0  0  0  0
 21 23  1  0  0  0  0
 23 24  1  0  0  0  0
 25 26  1  0  0  0  0
 25 23  2  0  0  0  0
 27 20  1  0  0  0  0
 27 25  1  0  0  0  0
 28 29  2  0  0  0  0
 30 31  1  0  0  0  0
 30 36  1  0  0  0  0
 31 37  1  0  0  0  0
 32 28  1  0  0  0  0
 32 31  2  0  0  0  0
 33 32  1  0  0  0  0
 34 33  2  0  0  0  0
 34 35  1  0  0  0  0
 35 30  2  0  0  0  0
 38 34  1  0  0  0  0
M  END
>  <minimizedAffinity>
-4.80765724

$$$$
