
 OpenBabel03242512053D

 19 20  0  0  0  0  0  0  0  0999 V2000
   36.7590   27.4000   42.5350 C   0  0  0  0  0  0  0  0  0  0  0  0
   36.2260   27.3650   43.6780 O   0  0  0  0  0  0  0  0  0  0  0  0
   37.5460   29.6370   41.9720 C   0  0  0  0  0  0  0  0  0  0  0  0
   36.6330   28.6010   41.7810 C   0  0  0  0  0  0  0  0  0  0  0  0
   35.6310   28.8190   40.8380 C   0  0  0  0  0  0  0  0  0  0  0  0
   35.5830   29.9880   40.1650 N   0  0  0  0  0  0  0  0  0  0  0  0
   36.4940   30.9750   40.3820 C   0  0  0  0  0  0  0  0  0  0  0  0
   37.4790   30.7980   41.2870 N   0  0  0  0  0  0  0  0  0  0  0  0
   38.3370   29.4790   42.7080 H   0  0  0  0  0  0  0  0  0  0  0  0
   34.9200   28.0440   40.6720 H   0  0  0  0  0  0  0  0  0  0  0  0
   36.3180   31.8370   39.7690 H   0  0  0  0  0  0  0  0  0  0  0  0
   37.4630   26.2080   42.0740 C   0  0  0  0  0  0  0  0  0  0  0  0
   36.9910   24.9210   42.1440 C   0  0  0  0  0  0  0  0  0  0  0  0
   36.0430   24.6170   42.5470 H   0  0  0  0  0  0  0  0  0  0  0  0
   38.0080   24.1620   41.5890 C   0  0  0  0  0  0  0  0  0  0  0  0
   37.9740   23.0780   41.4810 H   0  0  0  0  0  0  0  0  0  0  0  0
   39.0330   25.0070   41.2140 C   0  0  0  0  0  0  0  0  0  0  0  0
   39.9780   24.7310   40.7480 H   0  0  0  0  0  0  0  0  0  0  0  0
   38.6750   26.2490   41.5210 O   0  0  0  0  0  0  0  0  0  0  0  0
  1  2  2  0  0  0  0
  3  9  1  0  0  0  0
  4  3  1  0  0  0  0
  4  1  1  0  0  0  0
  5  4  2  0  0  0  0
  6  7  2  0  0  0  0
  6  5  1  0  0  0  0
  7  8  1  0  0  0  0
  8  3  2  0  0  0  0
 10  5  1  0  0  0  0
 11  7  1  0  0  0  0
 12 13  2  0  0  0  0
 12  1  1  0  0  0  0
 13 14  1  0  0  0  0
 15 13  1  0  0  0  0
 16 15  1  0  0  0  0
 17 19  1  0  0  0  0
 17 15  2  0  0  0  0
 18 17  1  0  0  0  0
 19 12  1  0  0  0  0
M  END
>  <minimizedAffinity>
-4.03871012

$$$$

 OpenBabel03242512053D

 19 20  0  0  0  0  0  0  0  0999 V2000
   36.7830   27.3750   42.5600 C   0  0  0  0  0  0  0  0  0  0  0  0
   36.2020   27.3220   43.6780 O   0  0  0  0  0  0  0  0  0  0  0  0
   35.6470   28.8060   40.9470 C   0  0  0  0  0  0  0  0  0  0  0  0
   36.7060   28.5950   41.8290 C   0  0  0  0  0  0  0  0  0  0  0  0
   37.6410   29.6210   41.9370 C   0  0  0  0  0  0  0  0  0  0  0  0
   37.4920   30.7470   41.2080 N   0  0  0  0  0  0  0  0  0  0  0  0
   36.4450   30.9130   40.3570 C   0  0  0  0  0  0  0  0  0  0  0  0
   35.5190   29.9400   40.2260 N   0  0  0  0  0  0  0  0  0  0  0  0
   34.9070   28.0090   40.8520 H   0  0  0  0  0  0  0  0  0  0  0  0
   38.4600   29.4870   42.6040 H   0  0  0  0  0  0  0  0  0  0  0  0
   36.4710   31.8600   39.8530 H   0  0  0  0  0  0  0  0  0  0  0  0
   37.4900   26.1840   42.1010 C   0  0  0  0  0  0  0  0  0  0  0  0
   37.0200   24.8960   42.1720 C   0  0  0  0  0  0  0  0  0  0  0  0
   36.0710   24.5910   42.5740 H   0  0  0  0  0  0  0  0  0  0  0  0
   38.0390   24.1380   41.6200 C   0  0  0  0  0  0  0  0  0  0  0  0
   38.0070   23.0540   41.5130 H   0  0  0  0  0  0  0  0  0  0  0  0
   39.0630   24.9840   41.2460 C   0  0  0  0  0  0  0  0  0  0  0  0
   40.0090   24.7090   40.7810 H   0  0  0  0  0  0  0  0  0  0  0  0
   38.7030   26.2260   41.5500 O   0  0  0  0  0  0  0  0  0  0  0  0
  1  2  2  0  0  0  0
  3  4  1  0  0  0  0
  4  5  2  0  0  0  0
  4  1  1  0  0  0  0
  5 10  1  0  0  0  0
  6  5  1  0  0  0  0
  7  6  2  0  0  0  0
  8  7  1  0  0  0  0
  8  3  2  0  0  0  0
  9  3  1  0  0  0  0
 11  7  1  0  0  0  0
 12 13  2  0  0  0  0
 12  1  1  0  0  0  0
 13 14  1  0  0  0  0
 15 13  1  0  0  0  0
 16 15  1  0  0  0  0
 17 19  1  0  0  0  0
 17 15  2  0  0  0  0
 18 17  1  0  0  0  0
 19 12  1  0  0  0  0
M  END
>  <minimizedAffinity>
-4.03825283

$$$$

 OpenBabel03242512053D

 19 20  0  0  0  0  0  0  0  0999 V2000
   36.0750   29.6350   40.6250 C   0  0  0  0  0  0  0  0  0  0  0  0
   34.8850   29.2870   40.3930 O   0  0  0  0  0  0  0  0  0  0  0  0
   36.7480   27.4790   41.5420 C   0  0  0  0  0  0  0  0  0  0  0  0
   36.8180   28.8710   41.5700 C   0  0  0  0  0  0  0  0  0  0  0  0
   37.6330   29.4340   42.5490 C   0  0  0  0  0  0  0  0  0  0  0  0
   38.3040   28.6370   43.4060 N   0  0  0  0  0  0  0  0  0  0  0  0
   38.2080   27.2820   43.3460 C   0  0  0  0  0  0  0  0  0  0  0  0
   37.4280   26.7010   42.4100 N   0  0  0  0  0  0  0  0  0  0  0  0
   36.1120   27.0240   40.7790 H   0  0  0  0  0  0  0  0  0  0  0  0
   37.7050   30.4960   42.5930 H   0  0  0  0  0  0  0  0  0  0  0  0
   38.8010   26.7940   44.0950 H   0  0  0  0  0  0  0  0  0  0  0  0
   36.6000   30.7930   39.9090 C   0  0  0  0  0  0  0  0  0  0  0  0
   36.9220   30.8320   38.5750 C   0  0  0  0  0  0  0  0  0  0  0  0
   36.8330   30.0180   37.8790 H   0  0  0  0  0  0  0  0  0  0  0  0
   37.3690   32.1270   38.3770 C   0  0  0  0  0  0  0  0  0  0  0  0
   37.7130   32.5170   37.4190 H   0  0  0  0  0  0  0  0  0  0  0  0
   37.3000   32.8050   39.5780 C   0  0  0  0  0  0  0  0  0  0  0  0
   37.5760   33.8410   39.7680 H   0  0  0  0  0  0  0  0  0  0  0  0
   36.8270   31.9680   40.4950 O   0  0  0  0  0  0  0  0  0  0  0  0
  1  4  1  0  0  0  0
  2  1  2  0  0  0  0
  3  4  2  0  0  0  0
  3  8  1  0  0  0  0
  4  5  1  0  0  0  0
  5 10  1  0  0  0  0
  5  6  2  0  0  0  0
  7  6  1  0  0  0  0
  7 11  1  0  0  0  0
  8  7  2  0  0  0  0
  9  3  1  0  0  0  0
 12 19  1  0  0  0  0
 12  1  1  0  0  0  0
 13 12  2  0  0  0  0
 14 13  1  0  0  0  0
 15 13  1  0  0  0  0
 15 17  2  0  0  0  0
 16 15  1  0  0  0  0
 17 18  1  0  0  0  0
 17 19  1  0  0  0  0
M  END
>  <minimizedAffinity>
-4.02276516

$$$$

 OpenBabel03242512053D

 19 20  0  0  0  0  0  0  0  0999 V2000
   36.7580   27.4710   42.5520 C   0  0  0  0  0  0  0  0  0  0  0  0
   36.1960   27.3780   43.6770 O   0  0  0  0  0  0  0  0  0  0  0  0
   37.0820   25.0970   42.1090 C   0  0  0  0  0  0  0  0  0  0  0  0
   37.5910   26.3940   42.1340 C   0  0  0  0  0  0  0  0  0  0  0  0
   38.9170   26.5520   41.7390 C   0  0  0  0  0  0  0  0  0  0  0  0
   39.6380   25.4770   41.3580 N   0  0  0  0  0  0  0  0  0  0  0  0
   39.1040   24.2260   41.3470 C   0  0  0  0  0  0  0  0  0  0  0  0
   37.8220   24.0350   41.7230 N   0  0  0  0  0  0  0  0  0  0  0  0
   36.0440   24.9590   42.4160 H   0  0  0  0  0  0  0  0  0  0  0  0
   39.3320   27.5330   41.7490 H   0  0  0  0  0  0  0  0  0  0  0  0
   39.8050   23.4830   41.0190 H   0  0  0  0  0  0  0  0  0  0  0  0
   36.5120   28.6740   41.7640 C   0  0  0  0  0  0  0  0  0  0  0  0
   35.6110   28.7880   40.7330 C   0  0  0  0  0  0  0  0  0  0  0  0
   34.9680   28.0090   40.3680 H   0  0  0  0  0  0  0  0  0  0  0  0
   35.7480   30.1000   40.3140 C   0  0  0  0  0  0  0  0  0  0  0  0
   35.1780   30.5450   39.4990 H   0  0  0  0  0  0  0  0  0  0  0  0
   36.7080   30.7140   41.0930 C   0  0  0  0  0  0  0  0  0  0  0  0
   37.0540   31.7440   41.0240 H   0  0  0  0  0  0  0  0  0  0  0  0
   37.1570   29.8220   41.9700 O   0  0  0  0  0  0  0  0  0  0  0  0
  1  2  2  0  0  0  0
  3  4  1  0  0  0  0
  3  9  1  0  0  0  0
  4  1  1  0  0  0  0
  5 10  1  0  0  0  0
  5  4  2  0  0  0  0
  6  5  1  0  0  0  0
  7  6  2  0  0  0  0
  7  8  1  0  0  0  0
  8  3  2  0  0  0  0
 11  7  1  0  0  0  0
 12 19  1  0  0  0  0
 12  1  1  0  0  0  0
 13 12  2  0  0  0  0
 14 13  1  0  0  0  0
 15 13  1  0  0  0  0
 15 17  2  0  0  0  0
 16 15  1  0  0  0  0
 17 19  1  0  0  0  0
 18 17  1  0  0  0  0
M  END
>  <minimizedAffinity>
-3.9953804

$$$$

 OpenBabel03242512053D

 19 20  0  0  0  0  0  0  0  0999 V2000
   35.9360   29.4290   40.4670 C   0  0  0  0  0  0  0  0  0  0  0  0
   34.7090   29.1580   40.3520 O   0  0  0  0  0  0  0  0  0  0  0  0
   36.8670   29.6500   38.2250 C   0  0  0  0  0  0  0  0  0  0  0  0
   36.5370   30.2260   39.4510 C   0  0  0  0  0  0  0  0  0  0  0  0
   36.8270   31.5790   39.6020 C   0  0  0  0  0  0  0  0  0  0  0  0
   37.3980   32.2620   38.5870 N   0  0  0  0  0  0  0  0  0  0  0  0
   37.7050   31.6630   37.4060 C   0  0  0  0  0  0  0  0  0  0  0  0
   37.4380   30.3520   37.2240 N   0  0  0  0  0  0  0  0  0  0  0  0
   36.6450   28.5890   38.0930 H   0  0  0  0  0  0  0  0  0  0  0  0
   36.5850   32.0450   40.5280 H   0  0  0  0  0  0  0  0  0  0  0  0
   38.1520   32.3410   36.7050 H   0  0  0  0  0  0  0  0  0  0  0  0
   36.6450   28.9040   41.6290 C   0  0  0  0  0  0  0  0  0  0  0  0
   36.6470   27.5950   42.0430 C   0  0  0  0  0  0  0  0  0  0  0  0
   36.1290   26.7820   41.5690 H   0  0  0  0  0  0  0  0  0  0  0  0
   37.4490   27.6030   43.1710 C   0  0  0  0  0  0  0  0  0  0  0  0
   37.6760   26.7200   43.7680 H   0  0  0  0  0  0  0  0  0  0  0  0
   37.8900   28.8930   43.3880 C   0  0  0  0  0  0  0  0  0  0  0  0
   38.5380   29.2420   44.1910 H   0  0  0  0  0  0  0  0  0  0  0  0
   37.3850   29.6660   42.4330 O   0  0  0  0  0  0  0  0  0  0  0  0
  1 12  1  0  0  0  0
  2  1  2  0  0  0  0
  3  4  1  0  0  0  0
  4  5  2  0  0  0  0
  4  1  1  0  0  0  0
  5 10  1  0  0  0  0
  6  5  1  0  0  0  0
  7  6  2  0  0  0  0
  8  7  1  0  0  0  0
  8  3  2  0  0  0  0
  9  3  1  0  0  0  0
 11  7  1  0  0  0  0
 12 13  2  0  0  0  0
 12 19  1  0  0  0  0
 13 15  1  0  0  0  0
 14 13  1  0  0  0  0
 15 17  2  0  0  0  0
 15 16  1  0  0  0  0
 17 18  1  0  0  0  0
 19 17  1  0  0  0  0
M  END
>  <minimizedAffinity>
-3.94327569

$$$$

 OpenBabel03242512053D

 19 20  0  0  0  0  0  0  0  0999 V2000
   37.0100   30.4510   41.1370 C   0  0  0  0  0  0  0  0  0  0  0  0
   35.8510   30.8870   40.8950 O   0  0  0  0  0  0  0  0  0  0  0  0
   38.1610   32.5280   40.5880 C   0  0  0  0  0  0  0  0  0  0  0  0
   38.1120   31.1350   40.5510 C   0  0  0  0  0  0  0  0  0  0  0  0
   39.1760   30.4910   39.9240 C   0  0  0  0  0  0  0  0  0  0  0  0
   40.1830   31.2160   39.3940 N   0  0  0  0  0  0  0  0  0  0  0  0
   40.1930   32.5740   39.4500 C   0  0  0  0  0  0  0  0  0  0  0  0
   39.1790   33.2330   40.0500 N   0  0  0  0  0  0  0  0  0  0  0  0
   37.3330   33.0460   41.0770 H   0  0  0  0  0  0  0  0  0  0  0  0
   39.1650   29.4270   39.8810 H   0  0  0  0  0  0  0  0  0  0  0  0
   41.0610   32.9990   38.9840 H   0  0  0  0  0  0  0  0  0  0  0  0
   37.1320   29.2800   41.9990 C   0  0  0  0  0  0  0  0  0  0  0  0
   36.5680   28.0500   41.7640 C   0  0  0  0  0  0  0  0  0  0  0  0
   35.9620   27.7840   40.9170 H   0  0  0  0  0  0  0  0  0  0  0  0
   36.9650   27.2880   42.8490 C   0  0  0  0  0  0  0  0  0  0  0  0
   36.6950   26.2420   42.9950 H   0  0  0  0  0  0  0  0  0  0  0  0
   37.7380   28.0740   43.6800 C   0  0  0  0  0  0  0  0  0  0  0  0
   38.2060   27.7810   44.6180 H   0  0  0  0  0  0  0  0  0  0  0  0
   37.8240   29.2840   43.1370 O   0  0  0  0  0  0  0  0  0  0  0  0
  1 12  1  0  0  0  0
  2  1  2  0  0  0  0
  3  9  1  0  0  0  0
  4  3  1  0  0  0  0
  4  1  1  0  0  0  0
  5  4  2  0  0  0  0
  6  7  2  0  0  0  0
  6  5  1  0  0  0  0
  7  8  1  0  0  0  0
  8  3  2  0  0  0  0
 10  5  1  0  0  0  0
 11  7  1  0  0  0  0
 12 19  1  0  0  0  0
 13 12  2  0  0  0  0
 13 15  1  0  0  0  0
 14 13  1  0  0  0  0
 15 16  1  0  0  0  0
 15 17  2  0  0  0  0
 17 18  1  0  0  0  0
 19 17  1  0  0  0  0
M  END
>  <minimizedAffinity>
-3.86227345

$$$$

 OpenBabel03242512053D

 19 20  0  0  0  0  0  0  0  0999 V2000
   36.1900   30.0060   40.8710 C   0  0  0  0  0  0  0  0  0  0  0  0
   36.1520   31.2340   41.1580 O   0  0  0  0  0  0  0  0  0  0  0  0
   38.1010   29.5650   42.3170 C   0  0  0  0  0  0  0  0  0  0  0  0
   36.9010   29.1410   41.7510 C   0  0  0  0  0  0  0  0  0  0  0  0
   36.4660   27.8630   42.0950 C   0  0  0  0  0  0  0  0  0  0  0  0
   37.2000   27.1070   42.9380 N   0  0  0  0  0  0  0  0  0  0  0  0
   38.3680   27.5580   43.4690 C   0  0  0  0  0  0  0  0  0  0  0  0
   38.8200   28.7920   43.1580 N   0  0  0  0  0  0  0  0  0  0  0  0
   38.4540   30.5650   42.0560 H   0  0  0  0  0  0  0  0  0  0  0  0
   35.5510   27.5130   41.6770 H   0  0  0  0  0  0  0  0  0  0  0  0
   38.8290   26.8390   44.1180 H   0  0  0  0  0  0  0  0  0  0  0  0
   35.5050   29.5670   39.6600 C   0  0  0  0  0  0  0  0  0  0  0  0
   36.0580   29.5010   38.4050 C   0  0  0  0  0  0  0  0  0  0  0  0
   37.0670   29.7640   38.1450 H   0  0  0  0  0  0  0  0  0  0  0  0
   35.0260   29.0340   37.6100 C   0  0  0  0  0  0  0  0  0  0  0  0
   35.1100   28.8580   36.5370 H   0  0  0  0  0  0  0  0  0  0  0  0
   33.9120   28.8400   38.4020 C   0  0  0  0  0  0  0  0  0  0  0  0
   32.9340   28.4800   38.0880 H   0  0  0  0  0  0  0  0  0  0  0  0
   34.2320   29.1720   39.6480 O   0  0  0  0  0  0  0  0  0  0  0  0
  1  2  2  0  0  0  0
  1  4  1  0  0  0  0
  3  8  1  0  0  0  0
  4  5  1  0  0  0  0
  4  3  2  0  0  0  0
  5  6  2  0  0  0  0
  6  7  1  0  0  0  0
  7 11  1  0  0  0  0
  8  7  2  0  0  0  0
  9  3  1  0  0  0  0
 10  5  1  0  0  0  0
 12  1  1  0  0  0  0
 13 12  2  0  0  0  0
 14 13  1  0  0  0  0
 15 17  2  0  0  0  0
 15 13  1  0  0  0  0
 16 15  1  0  0  0  0
 17 19  1  0  0  0  0
 18 17  1  0  0  0  0
 19 12  1  0  0  0  0
M  END
>  <minimizedAffinity>
-3.85763669

$$$$

 OpenBabel03242512053D

 19 20  0  0  0  0  0  0  0  0999 V2000
   37.0460   30.0680   41.2940 C   0  0  0  0  0  0  0  0  0  0  0  0
   35.8340   29.9710   40.9560 O   0  0  0  0  0  0  0  0  0  0  0  0
   37.0950   32.2370   40.1830 C   0  0  0  0  0  0  0  0  0  0  0  0
   37.7410   31.2600   40.9400 C   0  0  0  0  0  0  0  0  0  0  0  0
   39.0580   31.5240   41.3070 C   0  0  0  0  0  0  0  0  0  0  0  0
   39.6420   32.6800   40.9290 N   0  0  0  0  0  0  0  0  0  0  0  0
   38.9780   33.6080   40.1900 C   0  0  0  0  0  0  0  0  0  0  0  0
   37.7000   33.3860   39.8160 N   0  0  0  0  0  0  0  0  0  0  0  0
   36.0620   32.0420   39.8890 H   0  0  0  0  0  0  0  0  0  0  0  0
   39.5750   30.7950   41.8850 H   0  0  0  0  0  0  0  0  0  0  0  0
   39.5810   34.4690   39.9730 H   0  0  0  0  0  0  0  0  0  0  0  0
   37.6430   28.9530   42.0210 C   0  0  0  0  0  0  0  0  0  0  0  0
   37.5530   28.7380   43.3750 C   0  0  0  0  0  0  0  0  0  0  0  0
   37.0320   29.3600   44.0800 H   0  0  0  0  0  0  0  0  0  0  0  0
   38.2720   27.5730   43.5760 C   0  0  0  0  0  0  0  0  0  0  0  0
   38.4130   27.1000   44.5480 H   0  0  0  0  0  0  0  0  0  0  0  0
   38.7580   27.1390   42.3590 C   0  0  0  0  0  0  0  0  0  0  0  0
   39.3630   26.2540   42.1680 H   0  0  0  0  0  0  0  0  0  0  0  0
   38.3600   27.9990   41.4280 O   0  0  0  0  0  0  0  0  0  0  0  0
  1 12  1  0  0  0  0
  2  1  2  0  0  0  0
  3  4  1  0  0  0  0
  4  1  1  0  0  0  0
  4  5  2  0  0  0  0
  5 10  1  0  0  0  0
  6  5  1  0  0  0  0
  7  6  2  0  0  0  0
  8  3  2  0  0  0  0
  8  7  1  0  0  0  0
  9  3  1  0  0  0  0
 11  7  1  0  0  0  0
 12 13  2  0  0  0  0
 13 15  1  0  0  0  0
 13 14  1  0  0  0  0
 15 16  1  0  0  0  0
 17 15  2  0  0  0  0
 18 17  1  0  0  0  0
 19 12  1  0  0  0  0
 19 17  1  0  0  0  0
M  END
>  <minimizedAffinity>
-3.84594107

$$$$

 OpenBabel03242512053D

 19 20  0  0  0  0  0  0  0  0999 V2000
   39.0620   30.5650   42.0580 C   0  0  0  0  0  0  0  0  0  0  0  0
   40.0190   31.2080   42.5690 O   0  0  0  0  0  0  0  0  0  0  0  0
   38.1310   30.2310   39.8310 C   0  0  0  0  0  0  0  0  0  0  0  0
   38.4650   31.0900   40.8760 C   0  0  0  0  0  0  0  0  0  0  0  0
   38.1860   32.4410   40.6870 C   0  0  0  0  0  0  0  0  0  0  0  0
   37.6180   32.8560   39.5350 N   0  0  0  0  0  0  0  0  0  0  0  0
   37.3070   31.9850   38.5380 C   0  0  0  0  0  0  0  0  0  0  0  0
   37.5640   30.6680   38.6860 N   0  0  0  0  0  0  0  0  0  0  0  0
   38.3440   29.1690   39.9660 H   0  0  0  0  0  0  0  0  0  0  0  0
   38.4310   33.1200   41.4700 H   0  0  0  0  0  0  0  0  0  0  0  0
   36.8630   32.4720   37.6910 H   0  0  0  0  0  0  0  0  0  0  0  0
   38.6380   29.3340   42.7170 C   0  0  0  0  0  0  0  0  0  0  0  0
   39.4430   28.2570   42.9980 C   0  0  0  0  0  0  0  0  0  0  0  0
   40.4900   28.1750   42.7710 H   0  0  0  0  0  0  0  0  0  0  0  0
   38.5920   27.3570   43.6140 C   0  0  0  0  0  0  0  0  0  0  0  0
   38.8970   26.3750   43.9770 H   0  0  0  0  0  0  0  0  0  0  0  0
   37.3310   27.9150   43.6790 C   0  0  0  0  0  0  0  0  0  0  0  0
   36.4330   27.4690   44.1040 H   0  0  0  0  0  0  0  0  0  0  0  0
   37.3870   29.1210   43.1250 O   0  0  0  0  0  0  0  0  0  0  0  0
  1  2  2  0  0  0  0
  1 12  1  0  0  0  0
  3  9  1  0  0  0  0
  3  4  1  0  0  0  0
  4  1  1  0  0  0  0
  5  4  2  0  0  0  0
  5 10  1  0  0  0  0
  6  5  1  0  0  0  0
  7  8  1  0  0  0  0
  7  6  2  0  0  0  0
  8  3  2  0  0  0  0
 11  7  1  0  0  0  0
 12 13  2  0  0  0  0
 12 19  1  0  0  0  0
 13 15  1  0  0  0  0
 14 13  1  0  0  0  0
 15 17  2  0  0  0  0
 15 16  1  0  0  0  0
 17 18  1  0  0  0  0
 19 17  1  0  0  0  0
M  END
>  <minimizedAffinity>
-3.76151514

$$$$
