
 OpenBabel03242520313D

 40 42  0  0  0  0  0  0  0  0999 V2000
   37.5460   31.9140   38.1070 C   0  0  0  0  0  0  0  0  0  0  0  0
   37.1860   30.5790   38.4350 C   0  0  0  0  0  0  0  0  0  0  0  0
   36.8570   30.2960   39.7500 C   0  0  0  0  0  0  0  0  0  0  0  0
   36.8910   31.2940   40.6640 N   0  0  0  0  0  0  0  0  0  0  0  0
   37.2350   32.5610   40.3350 C   0  0  0  0  0  0  0  0  0  0  0  0
   37.5570   32.8590   39.0710 N   0  0  0  0  0  0  0  0  0  0  0  0
   37.8100   32.1710   37.0830 H   0  0  0  0  0  0  0  0  0  0  0  0
   37.2260   33.2740   41.1520 H   0  0  0  0  0  0  0  0  0  0  0  0
   37.2040   29.6630   37.3580 N   0  0  0  0  0  0  0  0  0  0  0  0
   38.3870   28.9140   36.9710 C   0  0  0  0  0  0  0  0  0  0  0  0
   38.0470   27.9370   35.8860 C   0  0  0  0  0  0  0  0  0  0  0  0
   37.3450   28.5340   34.7800 N   0  0  0  0  0  0  0  0  0  0  0  0
   36.2360   29.3520   35.1330 C   0  0  0  0  0  0  0  0  0  0  0  0
   35.9700   29.4680   36.6070 C   0  0  0  0  0  0  0  0  0  0  0  0
   39.2360   29.5620   36.6760 H   0  0  0  0  0  0  0  0  0  0  0  0
   38.6730   28.3300   37.8710 H   0  0  0  0  0  0  0  0  0  0  0  0
   38.9640   27.4630   35.5040 H   0  0  0  0  0  0  0  0  0  0  0  0
   37.3720   27.1610   36.3330 H   0  0  0  0  0  0  0  0  0  0  0  0
   37.0290   27.7710   34.1460 H   0  0  0  0  0  0  0  0  0  0  0  0
   35.2910   29.0740   34.6410 H   0  0  0  0  0  0  0  0  0  0  0  0
   36.4640   30.3990   34.7850 H   0  0  0  0  0  0  0  0  0  0  0  0
   35.4140   28.5980   36.9810 H   0  0  0  0  0  0  0  0  0  0  0  0
   35.3060   30.3530   36.7390 H   0  0  0  0  0  0  0  0  0  0  0  0
   36.5150   28.9860   40.0250 O   0  0  0  0  0  0  0  0  0  0  0  0
   38.7980   27.6380   39.9160 O   0  0  0  0  0  0  0  0  0  0  0  0
   37.6570   27.9780   40.8700 P   0  0  1  0  0  0  0  0  0  0  0  0
   38.1720   28.8060   42.2010 O   0  0  0  0  0  0  0  0  0  0  0  0
   39.4800   29.2420   42.4500 C   0  0  0  0  0  0  0  0  0  0  0  0
   40.7470   28.7350   42.7140 C   0  0  0  0  0  0  0  0  0  0  0  0
   40.7580   27.6420   42.7400 H   0  0  0  0  0  0  0  0  0  0  0  0
   41.5870   29.8250   42.8540 C   0  0  0  0  0  0  0  0  0  0  0  0
   42.6210   29.5770   43.0650 H   0  0  0  0  0  0  0  0  0  0  0  0
   40.7870   30.9370   42.6700 C   0  0  0  0  0  0  0  0  0  0  0  0
   41.2760   31.9080   42.7440 H   0  0  0  0  0  0  0  0  0  0  0  0
   39.5720   30.5710   42.4370 O   0  0  0  0  0  0  0  0  0  0  0  0
   36.8200   26.5720   41.2560 O   0  0  0  0  0  0  0  0  0  0  0  0
   37.0310   26.1520   42.5430 C   0  0  0  0  0  0  0  0  0  0  0  0
   36.3310   26.8950   43.4790 F   0  0  0  0  0  0  0  0  0  0  0  0
   38.3370   26.0540   42.9250 F   0  0  0  0  0  0  0  0  0  0  0  0
   36.5190   24.8420   42.5880 F   0  0  0  0  0  0  0  0  0  0  0  0
  1  2  2  0  0  0  0
  1  6  1  0  0  0  0
  2  3  1  0  0  0  0
  3 24  1  0  0  0  0
  3  4  2  0  0  0  0
  5  4  1  0  0  0  0
  5  8  1  0  0  0  0
  6  5  2  0  0  0  0
  7  1  1  0  0  0  0
  9  2  1  0  0  0  0
 10  9  1  0  0  0  0
 10 16  1  0  0  0  0
 11 18  1  0  0  0  0
 11 10  1  0  0  0  0
 12 13  1  0  0  0  0
 12 11  1  0  0  0  0
 13 14  1  0  0  0  0
 14 23  1  0  0  0  0
 14 22  1  0  0  0  0
 14  9  1  0  0  0  0
 15 10  1  0  0  0  0
 17 11  1  0  0  0  0
 19 12  1  0  0  0  0
 20 13  1  0  0  0  0
 21 13  1  0  0  0  0
 24 26  1  0  0  0  0
 26 25  2  6  0  0  0
 26 36  1  0  0  0  0
 26 27  1  0  0  0  0
 27 28  1  0  0  0  0
 28 29  2  0  0  0  0
 29 30  1  0  0  0  0
 29 31  1  0  0  0  0
 31 32  1  0  0  0  0
 33 34  1  0  0  0  0
 33 31  2  0  0  0  0
 35 28  1  0  0  0  0
 35 33  1  0  0  0  0
 36 37  1  0  0  0  0
 37 40  1  0  0  0  0
 37 39  1  0  0  0  0
 37 38  1  0  0  0  0
M  END
>  <minimizedAffinity>
-5.29129314

$$$$

 OpenBabel03242520313D

 40 42  0  0  0  0  0  0  0  0999 V2000
   37.4810   31.0060   37.3840 C   0  0  0  0  0  0  0  0  0  0  0  0
   37.5830   31.1650   38.7920 C   0  0  0  0  0  0  0  0  0  0  0  0
   36.7580   30.3990   39.5970 C   0  0  0  0  0  0  0  0  0  0  0  0
   35.8920   29.5350   39.0160 N   0  0  0  0  0  0  0  0  0  0  0  0
   35.8070   29.3950   37.6720 C   0  0  0  0  0  0  0  0  0  0  0  0
   36.5950   30.1250   36.8730 N   0  0  0  0  0  0  0  0  0  0  0  0
   38.1150   31.5920   36.7220 H   0  0  0  0  0  0  0  0  0  0  0  0
   35.0780   28.6730   37.3240 H   0  0  0  0  0  0  0  0  0  0  0  0
   38.5390   32.1120   39.2290 N   0  0  0  0  0  0  0  0  0  0  0  0
   39.9710   31.8870   39.1550 C   0  0  0  0  0  0  0  0  0  0  0  0
   40.7100   33.1230   39.5710 C   0  0  0  0  0  0  0  0  0  0  0  0
   40.2670   33.6560   40.8320 N   0  0  0  0  0  0  0  0  0  0  0  0
   38.8580   33.8000   40.9700 C   0  0  0  0  0  0  0  0  0  0  0  0
   38.0500   33.3710   39.7780 C   0  0  0  0  0  0  0  0  0  0  0  0
   40.3050   31.0050   39.7380 H   0  0  0  0  0  0  0  0  0  0  0  0
   40.1870   31.7120   38.0790 H   0  0  0  0  0  0  0  0  0  0  0  0
   41.7880   32.9140   39.6390 H   0  0  0  0  0  0  0  0  0  0  0  0
   40.5210   33.9060   38.7900 H   0  0  0  0  0  0  0  0  0  0  0  0
   40.7280   34.5780   40.9750 H   0  0  0  0  0  0  0  0  0  0  0  0
   38.5290   34.8120   41.2530 H   0  0  0  0  0  0  0  0  0  0  0  0
   38.5310   33.1270   41.8140 H   0  0  0  0  0  0  0  0  0  0  0  0
   38.0280   34.1550   39.0090 H   0  0  0  0  0  0  0  0  0  0  0  0
   37.0020   33.2440   40.1360 H   0  0  0  0  0  0  0  0  0  0  0  0
   36.8890   30.5860   40.9590 O   0  0  0  0  0  0  0  0  0  0  0  0
   38.6460   28.5980   40.8900 O   0  0  0  0  0  0  0  0  0  0  0  0
   38.1040   29.6800   41.8190 P   0  0  1  0  0  0  0  0  0  0  0  0
   39.2730   30.7390   42.3040 O   0  0  0  0  0  0  0  0  0  0  0  0
   40.6100   30.4260   42.5840 C   0  0  0  0  0  0  0  0  0  0  0  0
   41.4280   29.3260   42.8110 C   0  0  0  0  0  0  0  0  0  0  0  0
   40.8770   28.3820   42.7590 H   0  0  0  0  0  0  0  0  0  0  0  0
   42.7020   29.8190   43.0290 C   0  0  0  0  0  0  0  0  0  0  0  0
   43.4550   29.0640   43.2220 H   0  0  0  0  0  0  0  0  0  0  0  0
   42.5900   31.1940   42.9250 C   0  0  0  0  0  0  0  0  0  0  0  0
   43.5050   31.7690   43.0690 H   0  0  0  0  0  0  0  0  0  0  0  0
   41.3680   31.5170   42.6670 O   0  0  0  0  0  0  0  0  0  0  0  0
   37.3020   28.9550   43.1060 O   0  0  0  0  0  0  0  0  0  0  0  0
   36.7680   27.7320   42.7920 C   0  0  0  0  0  0  0  0  0  0  0  0
   36.2480   27.6800   41.5090 F   0  0  0  0  0  0  0  0  0  0  0  0
   35.8490   27.2450   43.6740 F   0  0  0  0  0  0  0  0  0  0  0  0
   37.8550   26.8380   42.8350 F   0  0  0  0  0  0  0  0  0  0  0  0
  1  2  1  0  0  0  0
  2  9  1  0  0  0  0
  2  3  2  0  0  0  0
  3 24  1  0  0  0  0
  4  3  1  0  0  0  0
  5  4  2  0  0  0  0
  6  1  2  0  0  0  0
  6  5  1  0  0  0  0
  7  1  1  0  0  0  0
  8  5  1  0  0  0  0
  9 14  1  0  0  0  0
 10  9  1  0  0  0  0
 10 11  1  0  0  0  0
 10 15  1  0  0  0  0
 11 17  1  0  0  0  0
 11 12  1  0  0  0  0
 12 13  1  0  0  0  0
 12 19  1  0  0  0  0
 13 20  1  0  0  0  0
 13 21  1  0  0  0  0
 14 23  1  0  0  0  0
 14 13  1  0  0  0  0
 16 10  1  0  0  0  0
 18 11  1  0  0  0  0
 22 14  1  0  0  0  0
 24 26  1  0  0  0  0
 26 25  2  6  0  0  0
 26 27  1  0  0  0  0
 26 36  1  0  0  0  0
 27 28  1  0  0  0  0
 28 35  1  0  0  0  0
 28 29  2  0  0  0  0
 29 31  1  0  0  0  0
 30 29  1  0  0  0  0
 31 32  1  0  0  0  0
 33 31  2  0  0  0  0
 33 34  1  0  0  0  0
 35 33  1  0  0  0  0
 37 40  1  0  0  0  0
 37 36  1  0  0  0  0
 37 39  1  0  0  0  0
 38 37  1  0  0  0  0
M  END
>  <minimizedAffinity>
-5.21601391

$$$$

 OpenBabel03242520313D

 40 42  0  0  0  0  0  0  0  0999 V2000
   36.6900   30.5090   37.9460 C   0  0  0  0  0  0  0  0  0  0  0  0
   37.0310   30.7250   39.3080 C   0  0  0  0  0  0  0  0  0  0  0  0
   36.3950   29.9590   40.2700 C   0  0  0  0  0  0  0  0  0  0  0  0
   35.4810   29.0410   39.8780 N   0  0  0  0  0  0  0  0  0  0  0  0
   35.1670   28.8470   38.5770 C   0  0  0  0  0  0  0  0  0  0  0  0
   35.7680   29.5750   37.6280 N   0  0  0  0  0  0  0  0  0  0  0  0
   37.1700   31.0930   37.1640 H   0  0  0  0  0  0  0  0  0  0  0  0
   34.4200   28.0840   38.3850 H   0  0  0  0  0  0  0  0  0  0  0  0
   38.0060   31.7240   39.5390 N   0  0  0  0  0  0  0  0  0  0  0  0
   37.6770   33.0680   39.9790 C   0  0  0  0  0  0  0  0  0  0  0  0
   38.9320   33.8400   40.2590 C   0  0  0  0  0  0  0  0  0  0  0  0
   39.8830   33.7940   39.1790 N   0  0  0  0  0  0  0  0  0  0  0  0
   40.1550   32.4970   38.6630 C   0  0  0  0  0  0  0  0  0  0  0  0
   39.4050   31.3740   39.3230 C   0  0  0  0  0  0  0  0  0  0  0  0
   37.0220   33.6110   39.2700 H   0  0  0  0  0  0  0  0  0  0  0  0
   37.1400   32.9400   40.9430 H   0  0  0  0  0  0  0  0  0  0  0  0
   38.6890   34.8930   40.4660 H   0  0  0  0  0  0  0  0  0  0  0  0
   39.4190   33.3760   41.1560 H   0  0  0  0  0  0  0  0  0  0  0  0
   40.7680   34.2320   39.5080 H   0  0  0  0  0  0  0  0  0  0  0  0
   41.2220   32.2260   38.6500 H   0  0  0  0  0  0  0  0  0  0  0  0
   39.8250   32.4870   37.5850 H   0  0  0  0  0  0  0  0  0  0  0  0
   39.8860   31.0720   40.2620 H   0  0  0  0  0  0  0  0  0  0  0  0
   39.4720   30.5010   38.6330 H   0  0  0  0  0  0  0  0  0  0  0  0
   36.7560   30.2020   41.5810 O   0  0  0  0  0  0  0  0  0  0  0  0
   37.3890   28.7060   43.6790 O   0  0  0  0  0  0  0  0  0  0  0  0
   37.9400   29.1680   42.3340 P   0  0  1  0  0  0  0  0  0  0  0  0
   38.2370   27.9110   41.3070 O   0  0  0  0  0  0  0  0  0  0  0  0
   38.2200   26.5500   41.6390 C   0  0  0  0  0  0  0  0  0  0  0  0
   39.0840   25.5250   42.0060 C   0  0  0  0  0  0  0  0  0  0  0  0
   40.1230   25.8620   42.0660 H   0  0  0  0  0  0  0  0  0  0  0  0
   38.3060   24.3950   42.1790 C   0  0  0  0  0  0  0  0  0  0  0  0
   38.8540   23.5070   42.4700 H   0  0  0  0  0  0  0  0  0  0  0  0
   37.0100   24.7920   41.9050 C   0  0  0  0  0  0  0  0  0  0  0  0
   36.2380   24.0260   41.9880 H   0  0  0  0  0  0  0  0  0  0  0  0
   36.9890   26.0440   41.5960 O   0  0  0  0  0  0  0  0  0  0  0  0
   39.2890   30.1380   42.5910 O   0  0  0  0  0  0  0  0  0  0  0  0
   40.4690   29.4410   42.5680 C   0  0  0  0  0  0  0  0  0  0  0  0
   40.8950   29.1370   41.2850 F   0  0  0  0  0  0  0  0  0  0  0  0
   40.5050   28.3160   43.3380 F   0  0  0  0  0  0  0  0  0  0  0  0
   41.4210   30.3170   43.1220 F   0  0  0  0  0  0  0  0  0  0  0  0
  1  2  1  0  0  0  0
  2  9  1  0  0  0  0
  2  3  2  0  0  0  0
  3 24  1  0  0  0  0
  4  3  1  0  0  0  0
  5  4  2  0  0  0  0
  6  1  2  0  0  0  0
  6  5  1  0  0  0  0
  7  1  1  0  0  0  0
  8  5  1  0  0  0  0
  9 10  1  0  0  0  0
 10 11  1  0  0  0  0
 10 16  1  0  0  0  0
 11 17  1  0  0  0  0
 11 18  1  0  0  0  0
 12 19  1  0  0  0  0
 12 11  1  0  0  0  0
 13 12  1  0  0  0  0
 13 14  1  0  0  0  0
 14  9  1  0  0  0  0
 14 22  1  0  0  0  0
 15 10  1  0  0  0  0
 20 13  1  0  0  0  0
 21 13  1  0  0  0  0
 23 14  1  0  0  0  0
 24 26  1  0  0  0  0
 26 36  1  0  0  0  0
 26 25  2  1  0  0  0
 27 28  1  0  0  0  0
 27 26  1  0  0  0  0
 28 29  2  0  0  0  0
 29 30  1  0  0  0  0
 29 31  1  0  0  0  0
 31 32  1  0  0  0  0
 33 34  1  0  0  0  0
 33 31  2  0  0  0  0
 35 28  1  0  0  0  0
 35 33  1  0  0  0  0
 37 36  1  0  0  0  0
 37 40  1  0  0  0  0
 37 39  1  0  0  0  0
 38 37  1  0  0  0  0
M  END
>  <minimizedAffinity>
-5.18595839

$$$$

 OpenBabel03242520313D

 40 42  0  0  0  0  0  0  0  0999 V2000
   41.0300   30.1390   38.4820 C   0  0  0  0  0  0  0  0  0  0  0  0
   39.6760   30.0690   38.9060 C   0  0  0  0  0  0  0  0  0  0  0  0
   39.0340   28.8440   38.8410 C   0  0  0  0  0  0  0  0  0  0  0  0
   39.7170   27.7700   38.3800 N   0  0  0  0  0  0  0  0  0  0  0  0
   41.0070   27.8530   37.9800 C   0  0  0  0  0  0  0  0  0  0  0  0
   41.6490   29.0270   38.0330 N   0  0  0  0  0  0  0  0  0  0  0  0
   41.5640   31.0870   38.5190 H   0  0  0  0  0  0  0  0  0  0  0  0
   41.4480   26.9260   37.6300 H   0  0  0  0  0  0  0  0  0  0  0  0
   39.1160   31.2870   39.3580 N   0  0  0  0  0  0  0  0  0  0  0  0
   39.3090   31.7990   40.7030 C   0  0  0  0  0  0  0  0  0  0  0  0
   38.7030   33.1650   40.8270 C   0  0  0  0  0  0  0  0  0  0  0  0
   37.3410   33.2290   40.3670 N   0  0  0  0  0  0  0  0  0  0  0  0
   37.1020   32.6490   39.0900 C   0  0  0  0  0  0  0  0  0  0  0  0
   38.3090   32.0580   38.4190 C   0  0  0  0  0  0  0  0  0  0  0  0
   38.9260   31.1170   41.4880 H   0  0  0  0  0  0  0  0  0  0  0  0
   40.4080   31.9070   40.8220 H   0  0  0  0  0  0  0  0  0  0  0  0
   38.7340   33.4980   41.8750 H   0  0  0  0  0  0  0  0  0  0  0  0
   39.3070   33.8590   40.1860 H   0  0  0  0  0  0  0  0  0  0  0  0
   37.0480   34.2280   40.3580 H   0  0  0  0  0  0  0  0  0  0  0  0
   36.6130   33.3220   38.3690 H   0  0  0  0  0  0  0  0  0  0  0  0
   36.3880   31.7890   39.2370 H   0  0  0  0  0  0  0  0  0  0  0  0
   38.9100   32.8320   37.9260 H   0  0  0  0  0  0  0  0  0  0  0  0
   37.9270   31.3880   37.6140 H   0  0  0  0  0  0  0  0  0  0  0  0
   37.7190   28.8210   39.2620 O   0  0  0  0  0  0  0  0  0  0  0  0
   36.5890   29.6120   41.5290 O   0  0  0  0  0  0  0  0  0  0  0  0
   37.3750   28.4500   40.9300 P   0  0  1  0  0  0  0  0  0  0  0  0
   36.5350   27.0320   40.9680 O   0  0  0  0  0  0  0  0  0  0  0  0
   37.0810   25.7490   41.1100 C   0  0  0  0  0  0  0  0  0  0  0  0
   37.0170   24.6420   41.9480 C   0  0  0  0  0  0  0  0  0  0  0  0
   36.3180   24.7920   42.7760 H   0  0  0  0  0  0  0  0  0  0  0  0
   37.8870   23.7010   41.4270 C   0  0  0  0  0  0  0  0  0  0  0  0
   37.9400   22.7740   41.9860 H   0  0  0  0  0  0  0  0  0  0  0  0
   38.4360   24.2860   40.3010 C   0  0  0  0  0  0  0  0  0  0  0  0
   39.1580   23.6890   39.7440 H   0  0  0  0  0  0  0  0  0  0  0  0
   37.9520   25.4710   40.1400 O   0  0  0  0  0  0  0  0  0  0  0  0
   38.8730   28.3460   41.6880 O   0  0  0  0  0  0  0  0  0  0  0  0
   38.8100   28.5490   43.0410 C   0  0  0  0  0  0  0  0  0  0  0  0
   37.8530   27.7650   43.6650 F   0  0  0  0  0  0  0  0  0  0  0  0
   38.6620   29.8470   43.4370 F   0  0  0  0  0  0  0  0  0  0  0  0
   40.0640   28.1380   43.5300 F   0  0  0  0  0  0  0  0  0  0  0  0
  1  7  1  0  0  0  0
  1  2  1  0  0  0  0
  2  9  1  0  0  0  0
  3  2  2  0  0  0  0
  3 24  1  0  0  0  0
  4  3  1  0  0  0  0
  5  6  1  0  0  0  0
  5  4  2  0  0  0  0
  6  1  2  0  0  0  0
  8  5  1  0  0  0  0
  9 10  1  0  0  0  0
 10 16  1  0  0  0  0
 10 11  1  0  0  0  0
 10 15  1  0  0  0  0
 11 17  1  0  0  0  0
 12 11  1  0  0  0  0
 13 21  1  0  0  0  0
 13 12  1  0  0  0  0
 14 13  1  0  0  0  0
 14  9  1  0  0  0  0
 18 11  1  0  0  0  0
 19 12  1  0  0  0  0
 20 13  1  0  0  0  0
 22 14  1  0  0  0  0
 23 14  1  0  0  0  0
 24 26  1  0  0  0  0
 26 27  1  0  0  0  0
 26 25  2  1  0  0  0
 26 36  1  0  0  0  0
 27 28  1  0  0  0  0
 28 29  2  0  0  0  0
 29 30  1  0  0  0  0
 31 29  1  0  0  0  0
 31 32  1  0  0  0  0
 33 31  2  0  0  0  0
 34 33  1  0  0  0  0
 35 33  1  0  0  0  0
 35 28  1  0  0  0  0
 36 37  1  0  0  0  0
 37 39  1  0  0  0  0
 37 40  1  0  0  0  0
 37 38  1  0  0  0  0
M  END
>  <minimizedAffinity>
-5.12890244

$$$$

 OpenBabel03242520313D

 40 42  0  0  0  0  0  0  0  0999 V2000
   37.4530   29.0370   36.7740 C   0  0  0  0  0  0  0  0  0  0  0  0
   37.9950   29.3430   38.0510 C   0  0  0  0  0  0  0  0  0  0  0  0
   38.9370   28.4800   38.5850 C   0  0  0  0  0  0  0  0  0  0  0  0
   39.3010   27.3870   37.8740 N   0  0  0  0  0  0  0  0  0  0  0  0
   38.7750   27.1090   36.6580 C   0  0  0  0  0  0  0  0  0  0  0  0
   37.8630   27.9290   36.1220 N   0  0  0  0  0  0  0  0  0  0  0  0
   36.7110   29.6940   36.3250 H   0  0  0  0  0  0  0  0  0  0  0  0
   39.1440   26.2060   36.1860 H   0  0  0  0  0  0  0  0  0  0  0  0
   37.5020   30.5240   38.6530 N   0  0  0  0  0  0  0  0  0  0  0  0
   38.1370   31.8210   38.4960 C   0  0  0  0  0  0  0  0  0  0  0  0
   37.3030   32.8850   39.1450 C   0  0  0  0  0  0  0  0  0  0  0  0
   36.9350   32.5750   40.5020 N   0  0  0  0  0  0  0  0  0  0  0  0
   36.3970   31.2740   40.7040 C   0  0  0  0  0  0  0  0  0  0  0  0
   36.2970   30.4230   39.4690 C   0  0  0  0  0  0  0  0  0  0  0  0
   39.1800   31.8440   38.8710 H   0  0  0  0  0  0  0  0  0  0  0  0
   38.1400   32.0170   37.4030 H   0  0  0  0  0  0  0  0  0  0  0  0
   37.8430   33.8440   39.1400 H   0  0  0  0  0  0  0  0  0  0  0  0
   36.3550   32.9770   38.5520 H   0  0  0  0  0  0  0  0  0  0  0  0
   36.2510   33.2900   40.8240 H   0  0  0  0  0  0  0  0  0  0  0  0
   35.4150   31.2590   41.2020 H   0  0  0  0  0  0  0  0  0  0  0  0
   37.0970   30.7220   41.3940 H   0  0  0  0  0  0  0  0  0  0  0  0
   35.4030   30.6730   38.8840 H   0  0  0  0  0  0  0  0  0  0  0  0
   36.1670   29.3730   39.8190 H   0  0  0  0  0  0  0  0  0  0  0  0
   39.4370   28.8150   39.8270 O   0  0  0  0  0  0  0  0  0  0  0  0
   38.6570   29.0720   42.3510 O   0  0  0  0  0  0  0  0  0  0  0  0
   38.7760   28.0350   41.2390 P   0  0  1  0  0  0  0  0  0  0  0  0
   37.3180   27.3870   40.8200 O   0  0  0  0  0  0  0  0  0  0  0  0
   37.0150   26.0220   40.7280 C   0  0  0  0  0  0  0  0  0  0  0  0
   37.0050   24.8710   41.5070 C   0  0  0  0  0  0  0  0  0  0  0  0
   37.3350   25.0620   42.5320 H   0  0  0  0  0  0  0  0  0  0  0  0
   36.5640   23.8450   40.6900 C   0  0  0  0  0  0  0  0  0  0  0  0
   36.5040   22.8760   41.1710 H   0  0  0  0  0  0  0  0  0  0  0  0
   36.3310   24.4260   39.4570 C   0  0  0  0  0  0  0  0  0  0  0  0
   35.9720   23.7670   38.6670 H   0  0  0  0  0  0  0  0  0  0  0  0
   36.6000   25.6870   39.5070 O   0  0  0  0  0  0  0  0  0  0  0  0
   39.9070   26.8730   41.6840 O   0  0  0  0  0  0  0  0  0  0  0  0
   40.0100   26.7090   43.0400 C   0  0  0  0  0  0  0  0  0  0  0  0
   38.7810   26.6850   43.6800 F   0  0  0  0  0  0  0  0  0  0  0  0
   40.8370   27.5870   43.6800 F   0  0  0  0  0  0  0  0  0  0  0  0
   40.5910   25.4390   43.2110 F   0  0  0  0  0  0  0  0  0  0  0  0
  1  2  1  0  0  0  0
  2  3  2  0  0  0  0
  2  9  1  0  0  0  0
  3 24  1  0  0  0  0
  4  3  1  0  0  0  0
  5  4  2  0  0  0  0
  6  5  1  0  0  0  0
  6  1  2  0  0  0  0
  7  1  1  0  0  0  0
  8  5  1  0  0  0  0
  9 14  1  0  0  0  0
 10  9  1  0  0  0  0
 10 15  1  0  0  0  0
 10 11  1  0  0  0  0
 11 12  1  0  0  0  0
 12 13  1  0  0  0  0
 12 19  1  0  0  0  0
 13 20  1  0  0  0  0
 13 21  1  0  0  0  0
 14 23  1  0  0  0  0
 14 13  1  0  0  0  0
 16 10  1  0  0  0  0
 17 11  1  0  0  0  0
 18 11  1  0  0  0  0
 22 14  1  0  0  0  0
 24 26  1  0  0  0  0
 26 36  1  0  0  0  0
 26 25  2  1  0  0  0
 27 26  1  0  0  0  0
 28 27  1  0  0  0  0
 28 29  2  0  0  0  0
 29 30  1  0  0  0  0
 31 32  1  0  0  0  0
 31 29  1  0  0  0  0
 33 35  1  0  0  0  0
 33 31  2  0  0  0  0
 34 33  1  0  0  0  0
 35 28  1  0  0  0  0
 36 37  1  0  0  0  0
 37 40  1  0  0  0  0
 37 38  1  0  0  0  0
 37 39  1  0  0  0  0
M  END
>  <minimizedAffinity>
-4.89092827

$$$$

 OpenBabel03242520313D

 40 42  0  0  0  0  0  0  0  0999 V2000
   37.9850   27.7190   36.5240 C   0  0  0  0  0  0  0  0  0  0  0  0
   37.4380   28.7950   37.2740 C   0  0  0  0  0  0  0  0  0  0  0  0
   38.3120   29.7020   37.8470 C   0  0  0  0  0  0  0  0  0  0  0  0
   39.6430   29.5290   37.6730 N   0  0  0  0  0  0  0  0  0  0  0  0
   40.1490   28.4990   36.9560 C   0  0  0  0  0  0  0  0  0  0  0  0
   39.3240   27.6090   36.3920 N   0  0  0  0  0  0  0  0  0  0  0  0
   37.3260   26.9880   36.0600 H   0  0  0  0  0  0  0  0  0  0  0  0
   41.2300   28.4650   36.8870 H   0  0  0  0  0  0  0  0  0  0  0  0
   36.0260   28.8230   37.3540 N   0  0  0  0  0  0  0  0  0  0  0  0
   35.2920   28.4780   38.5590 C   0  0  0  0  0  0  0  0  0  0  0  0
   33.8280   28.7340   38.3620 C   0  0  0  0  0  0  0  0  0  0  0  0
   33.3000   28.1360   37.1640 N   0  0  0  0  0  0  0  0  0  0  0  0
   34.0510   28.3780   35.9810 C   0  0  0  0  0  0  0  0  0  0  0  0
   35.2820   29.2200   36.1650 C   0  0  0  0  0  0  0  0  0  0  0  0
   35.4750   27.4390   38.8990 H   0  0  0  0  0  0  0  0  0  0  0  0
   35.6550   29.1830   39.3370 H   0  0  0  0  0  0  0  0  0  0  0  0
   33.2580   28.3540   39.2230 H   0  0  0  0  0  0  0  0  0  0  0  0
   33.6900   29.8440   38.2730 H   0  0  0  0  0  0  0  0  0  0  0  0
   32.3240   28.4760   37.0340 H   0  0  0  0  0  0  0  0  0  0  0  0
   33.4690   28.8110   35.1520 H   0  0  0  0  0  0  0  0  0  0  0  0
   34.4210   27.3820   35.6050 H   0  0  0  0  0  0  0  0  0  0  0  0
   35.0330   30.2890   36.1930 H   0  0  0  0  0  0  0  0  0  0  0  0
   35.9110   29.0620   35.2580 H   0  0  0  0  0  0  0  0  0  0  0  0
   37.7380   30.7320   38.5670 O   0  0  0  0  0  0  0  0  0  0  0  0
   36.3560   30.9470   40.8220 O   0  0  0  0  0  0  0  0  0  0  0  0
   37.7620   30.6570   40.3080 P   0  0  1  0  0  0  0  0  0  0  0  0
   38.2960   29.1570   40.7400 O   0  0  0  0  0  0  0  0  0  0  0  0
   37.6650   28.2790   41.6320 C   0  0  0  0  0  0  0  0  0  0  0  0
   37.0160   27.0500   41.6480 C   0  0  0  0  0  0  0  0  0  0  0  0
   36.9700   26.5940   40.6550 H   0  0  0  0  0  0  0  0  0  0  0  0
   36.6430   26.8180   42.9600 C   0  0  0  0  0  0  0  0  0  0  0  0
   36.1210   25.8830   43.1240 H   0  0  0  0  0  0  0  0  0  0  0  0
   37.0820   27.9190   43.6720 C   0  0  0  0  0  0  0  0  0  0  0  0
   36.8780   27.9210   44.7420 H   0  0  0  0  0  0  0  0  0  0  0  0
   37.6710   28.7490   42.8780 O   0  0  0  0  0  0  0  0  0  0  0  0
   38.7960   31.8880   40.7990 O   0  0  0  0  0  0  0  0  0  0  0  0
   38.4510   33.1170   40.3000 C   0  0  0  0  0  0  0  0  0  0  0  0
   38.7490   34.1570   41.1640 F   0  0  0  0  0  0  0  0  0  0  0  0
   37.1620   33.2380   39.8710 F   0  0  0  0  0  0  0  0  0  0  0  0
   39.2550   33.2850   39.1570 F   0  0  0  0  0  0  0  0  0  0  0  0
  1  2  1  0  0  0  0
  2  9  1  0  0  0  0
  2  3  2  0  0  0  0
  3 24  1  0  0  0  0
  4  3  1  0  0  0  0
  5  4  2  0  0  0  0
  6  1  2  0  0  0  0
  6  5  1  0  0  0  0
  7  1  1  0  0  0  0
  8  5  1  0  0  0  0
  9 10  1  0  0  0  0
 10 15  1  0  0  0  0
 10 16  1  0  0  0  0
 11 10  1  0  0  0  0
 11 17  1  0  0  0  0
 12 11  1  0  0  0  0
 13 14  1  0  0  0  0
 13 12  1  0  0  0  0
 14 22  1  0  0  0  0
 14  9  1  0  0  0  0
 18 11  1  0  0  0  0
 19 12  1  0  0  0  0
 20 13  1  0  0  0  0
 21 13  1  0  0  0  0
 23 14  1  0  0  0  0
 24 26  1  0  0  0  0
 26 27  1  0  0  0  0
 26 36  1  0  0  0  0
 26 25  2  1  0  0  0
 27 28  1  0  0  0  0
 28 29  2  0  0  0  0
 28 35  1  0  0  0  0
 29 31  1  0  0  0  0
 30 29  1  0  0  0  0
 31 32  1  0  0  0  0
 31 33  2  0  0  0  0
 33 34  1  0  0  0  0
 35 33  1  0  0  0  0
 37 36  1  0  0  0  0
 37 38  1  0  0  0  0
 39 37  1  0  0  0  0
 40 37  1  0  0  0  0
M  END
>  <minimizedAffinity>
-4.81141949

$$$$

 OpenBabel03242520313D

 40 42  0  0  0  0  0  0  0  0999 V2000
   37.5600   31.5290   38.0690 C   0  0  0  0  0  0  0  0  0  0  0  0
   37.1660   30.2900   38.6410 C   0  0  0  0  0  0  0  0  0  0  0  0
   36.7430   30.2840   39.9590 C   0  0  0  0  0  0  0  0  0  0  0  0
   36.7210   31.4510   40.6450 N   0  0  0  0  0  0  0  0  0  0  0  0
   37.0990   32.6240   40.0860 C   0  0  0  0  0  0  0  0  0  0  0  0
   37.5130   32.6540   38.8130 N   0  0  0  0  0  0  0  0  0  0  0  0
   37.8980   31.5690   37.0350 H   0  0  0  0  0  0  0  0  0  0  0  0
   37.0390   33.4910   40.7340 H   0  0  0  0  0  0  0  0  0  0  0  0
   37.2520   29.1690   37.7830 N   0  0  0  0  0  0  0  0  0  0  0  0
   38.4140   28.3010   37.7220 C   0  0  0  0  0  0  0  0  0  0  0  0
   38.1420   27.1370   36.8170 C   0  0  0  0  0  0  0  0  0  0  0  0
   37.6320   27.5230   35.5270 N   0  0  0  0  0  0  0  0  0  0  0  0
   36.5520   28.4470   35.5520 C   0  0  0  0  0  0  0  0  0  0  0  0
   36.1100   28.8810   36.9220 C   0  0  0  0  0  0  0  0  0  0  0  0
   39.3400   28.8330   37.4240 H   0  0  0  0  0  0  0  0  0  0  0  0
   38.5400   27.9050   38.7520 H   0  0  0  0  0  0  0  0  0  0  0  0
   39.0610   26.5510   36.6690 H   0  0  0  0  0  0  0  0  0  0  0  0
   37.3600   26.5030   37.3120 H   0  0  0  0  0  0  0  0  0  0  0  0
   37.3430   26.6600   35.0220 H   0  0  0  0  0  0  0  0  0  0  0  0
   35.6580   28.1190   34.9990 H   0  0  0  0  0  0  0  0  0  0  0  0
   36.9000   29.3880   35.0360 H   0  0  0  0  0  0  0  0  0  0  0  0
   35.4480   28.1360   37.3810 H   0  0  0  0  0  0  0  0  0  0  0  0
   35.5030   29.8050   36.7800 H   0  0  0  0  0  0  0  0  0  0  0  0
   36.3700   29.0590   40.4760 O   0  0  0  0  0  0  0  0  0  0  0  0
   36.3140   27.6720   42.7370 O   0  0  0  0  0  0  0  0  0  0  0  0
   37.2810   28.3930   41.8030 P   0  0  1  0  0  0  0  0  0  0  0  0
   38.4230   27.3820   41.1740 O   0  0  0  0  0  0  0  0  0  0  0  0
   38.9010   26.2040   41.7630 C   0  0  0  0  0  0  0  0  0  0  0  0
   38.4370   25.0180   42.3190 C   0  0  0  0  0  0  0  0  0  0  0  0
   37.3450   24.9550   42.3040 H   0  0  0  0  0  0  0  0  0  0  0  0
   39.5530   24.3020   42.7100 C   0  0  0  0  0  0  0  0  0  0  0  0
   39.3400   23.3420   43.1670 H   0  0  0  0  0  0  0  0  0  0  0  0
   40.6380   25.0910   42.3730 C   0  0  0  0  0  0  0  0  0  0  0  0
   41.6240   24.6900   42.6070 H   0  0  0  0  0  0  0  0  0  0  0  0
   40.2320   26.1860   41.8260 O   0  0  0  0  0  0  0  0  0  0  0  0
   37.9430   29.7130   42.6050 O   0  0  0  0  0  0  0  0  0  0  0  0
   39.3060   29.7900   42.4880 C   0  0  0  0  0  0  0  0  0  0  0  0
   39.7400   29.7720   41.1720 F   0  0  0  0  0  0  0  0  0  0  0  0
   40.0140   28.8760   43.2120 F   0  0  0  0  0  0  0  0  0  0  0  0
   39.6480   31.0480   43.0180 F   0  0  0  0  0  0  0  0  0  0  0  0
  1  2  2  0  0  0  0
  1  6  1  0  0  0  0
  2  3  1  0  0  0  0
  3 24  1  0  0  0  0
  3  4  2  0  0  0  0
  5  4  1  0  0  0  0
  5  8  1  0  0  0  0
  6  5  2  0  0  0  0
  7  1  1  0  0  0  0
  9  2  1  0  0  0  0
 10  9  1  0  0  0  0
 10 16  1  0  0  0  0
 11 18  1  0  0  0  0
 11 10  1  0  0  0  0
 12 13  1  0  0  0  0
 12 11  1  0  0  0  0
 13 14  1  0  0  0  0
 14 22  1  0  0  0  0
 14  9  1  0  0  0  0
 15 10  1  0  0  0  0
 17 11  1  0  0  0  0
 19 12  1  0  0  0  0
 20 13  1  0  0  0  0
 21 13  1  0  0  0  0
 23 14  1  0  0  0  0
 24 26  1  0  0  0  0
 26 36  1  0  0  0  0
 26 25  2  1  0  0  0
 27 28  1  0  0  0  0
 27 26  1  0  0  0  0
 28 35  1  0  0  0  0
 28 29  2  0  0  0  0
 29 31  1  0  0  0  0
 30 29  1  0  0  0  0
 31 32  1  0  0  0  0
 33 34  1  0  0  0  0
 33 31  2  0  0  0  0
 35 33  1  0  0  0  0
 37 36  1  0  0  0  0
 37 40  1  0  0  0  0
 37 39  1  0  0  0  0
 38 37  1  0  0  0  0
M  END
>  <minimizedAffinity>
-4.79805517

$$$$

 OpenBabel03242520313D

 40 42  0  0  0  0  0  0  0  0999 V2000
   36.8990   30.6510   38.4280 C   0  0  0  0  0  0  0  0  0  0  0  0
   36.5640   29.5130   39.2100 C   0  0  0  0  0  0  0  0  0  0  0  0
   36.4260   29.6780   40.5770 C   0  0  0  0  0  0  0  0  0  0  0  0
   36.6150   30.9070   41.1120 N   0  0  0  0  0  0  0  0  0  0  0  0
   36.9340   31.9820   40.3530 C   0  0  0  0  0  0  0  0  0  0  0  0
   37.0720   31.8470   39.0280 N   0  0  0  0  0  0  0  0  0  0  0  0
   37.0140   30.5560   37.3500 H   0  0  0  0  0  0  0  0  0  0  0  0
   37.0600   32.9130   40.8930 H   0  0  0  0  0  0  0  0  0  0  0  0
   36.4040   28.3060   38.4900 N   0  0  0  0  0  0  0  0  0  0  0  0
   35.1110   27.7980   38.0670 C   0  0  0  0  0  0  0  0  0  0  0  0
   35.2890   26.5770   37.2160 C   0  0  0  0  0  0  0  0  0  0  0  0
   36.1400   25.5820   37.8160 N   0  0  0  0  0  0  0  0  0  0  0  0
   37.3770   26.0670   38.3250 C   0  0  0  0  0  0  0  0  0  0  0  0
   37.6030   27.5440   38.1600 C   0  0  0  0  0  0  0  0  0  0  0  0
   34.4220   27.6010   38.9130 H   0  0  0  0  0  0  0  0  0  0  0  0
   34.6770   28.5940   37.4250 H   0  0  0  0  0  0  0  0  0  0  0  0
   34.3120   26.1180   37.0040 H   0  0  0  0  0  0  0  0  0  0  0  0
   35.7750   26.9030   36.2590 H   0  0  0  0  0  0  0  0  0  0  0  0
   36.3200   24.8400   37.1080 H   0  0  0  0  0  0  0  0  0  0  0  0
   38.2650   25.5460   37.9360 H   0  0  0  0  0  0  0  0  0  0  0  0
   37.3790   25.8850   39.4380 H   0  0  0  0  0  0  0  0  0  0  0  0
   37.9560   27.7820   37.1490 H   0  0  0  0  0  0  0  0  0  0  0  0
   38.4260   27.8170   38.8600 H   0  0  0  0  0  0  0  0  0  0  0  0
   36.1010   28.5460   41.2990 O   0  0  0  0  0  0  0  0  0  0  0  0
   37.2640   28.6960   43.6800 O   0  0  0  0  0  0  0  0  0  0  0  0
   37.2820   27.8770   42.3930 P   0  0  1  0  0  0  0  0  0  0  0  0
   36.8930   26.2940   42.6460 O   0  0  0  0  0  0  0  0  0  0  0  0
   37.4790   25.1870   42.0170 C   0  0  0  0  0  0  0  0  0  0  0  0
   38.7230   24.6010   41.8170 C   0  0  0  0  0  0  0  0  0  0  0  0
   39.5270   25.1640   42.3000 H   0  0  0  0  0  0  0  0  0  0  0  0
   38.5080   23.4670   41.0540 C   0  0  0  0  0  0  0  0  0  0  0  0
   39.4020   22.9020   40.8190 H   0  0  0  0  0  0  0  0  0  0  0  0
   37.1450   23.4250   40.8280 C   0  0  0  0  0  0  0  0  0  0  0  0
   36.7740   22.5900   40.2340 H   0  0  0  0  0  0  0  0  0  0  0  0
   36.5730   24.4330   41.3960 O   0  0  0  0  0  0  0  0  0  0  0  0
   38.7670   28.0750   41.6310 O   0  0  0  0  0  0  0  0  0  0  0  0
   39.8190   28.1430   42.5050 C   0  0  0  0  0  0  0  0  0  0  0  0
   39.6980   27.2670   43.5710 F   0  0  0  0  0  0  0  0  0  0  0  0
   40.1170   29.3890   42.9740 F   0  0  0  0  0  0  0  0  0  0  0  0
   40.9410   27.7350   41.7590 F   0  0  0  0  0  0  0  0  0  0  0  0
  1  6  2  0  0  0  0
  1  2  1  0  0  0  0
  2  3  2  0  0  0  0
  3  4  1  0  0  0  0
  3 24  1  0  0  0  0
  5  8  1  0  0  0  0
  5  4  2  0  0  0  0
  6  5  1  0  0  0  0
  7  1  1  0  0  0  0
  9  2  1  0  0  0  0
 10  9  1  0  0  0  0
 10 15  1  0  0  0  0
 11 12  1  0  0  0  0
 11 10  1  0  0  0  0
 12 13  1  0  0  0  0
 13 21  1  0  0  0  0
 14 13  1  0  0  0  0
 14  9  1  0  0  0  0
 14 23  1  0  0  0  0
 16 10  1  0  0  0  0
 17 11  1  0  0  0  0
 18 11  1  0  0  0  0
 19 12  1  0  0  0  0
 20 13  1  0  0  0  0
 22 14  1  0  0  0  0
 24 26  1  0  0  0  0
 26 27  1  0  0  0  0
 26 25  2  1  0  0  0
 28 27  1  0  0  0  0
 29 28  2  0  0  0  0
 29 30  1  0  0  0  0
 31 29  1  0  0  0  0
 32 31  1  0  0  0  0
 33 31  2  0  0  0  0
 33 35  1  0  0  0  0
 34 33  1  0  0  0  0
 35 28  1  0  0  0  0
 36 26  1  0  0  0  0
 36 37  1  0  0  0  0
 37 39  1  0  0  0  0
 37 38  1  0  0  0  0
 40 37  1  0  0  0  0
M  END
>  <minimizedAffinity>
-4.78394032

$$$$

 OpenBabel03242520313D

 40 42  0  0  0  0  0  0  0  0999 V2000
   40.9260   29.5120   42.2280 C   0  0  0  0  0  0  0  0  0  0  0  0
   39.7980   29.7980   41.4130 C   0  0  0  0  0  0  0  0  0  0  0  0
   38.7100   28.9450   41.4810 C   0  0  0  0  0  0  0  0  0  0  0  0
   38.7630   27.8800   42.3150 N   0  0  0  0  0  0  0  0  0  0  0  0
   39.8460   27.6210   43.0860 C   0  0  0  0  0  0  0  0  0  0  0  0
   40.9100   28.4320   43.0370 N   0  0  0  0  0  0  0  0  0  0  0  0
   41.7980   30.1630   42.1990 H   0  0  0  0  0  0  0  0  0  0  0  0
   39.7720   26.7400   43.7130 H   0  0  0  0  0  0  0  0  0  0  0  0
   39.9110   30.9500   40.6000 N   0  0  0  0  0  0  0  0  0  0  0  0
   39.4250   32.2580   41.0040 C   0  0  0  0  0  0  0  0  0  0  0  0
   39.8120   33.2890   39.9850 C   0  0  0  0  0  0  0  0  0  0  0  0
   39.4570   32.9220   38.6390 N   0  0  0  0  0  0  0  0  0  0  0  0
   39.8370   31.6100   38.2450 C   0  0  0  0  0  0  0  0  0  0  0  0
   40.5490   30.8060   39.2970 C   0  0  0  0  0  0  0  0  0  0  0  0
   38.3340   32.2770   41.1990 H   0  0  0  0  0  0  0  0  0  0  0  0
   39.9660   32.4960   41.9440 H   0  0  0  0  0  0  0  0  0  0  0  0
   39.3350   34.2510   40.2230 H   0  0  0  0  0  0  0  0  0  0  0  0
   40.9280   33.3940   40.0220 H   0  0  0  0  0  0  0  0  0  0  0  0
   39.8810   33.6180   37.9910 H   0  0  0  0  0  0  0  0  0  0  0  0
   40.4390   31.5670   37.3240 H   0  0  0  0  0  0  0  0  0  0  0  0
   38.8920   31.0380   38.0180 H   0  0  0  0  0  0  0  0  0  0  0  0
   41.6130   31.0710   39.3470 H   0  0  0  0  0  0  0  0  0  0  0  0
   40.4990   29.7420   38.9690 H   0  0  0  0  0  0  0  0  0  0  0  0
   37.6360   29.2590   40.6720 O   0  0  0  0  0  0  0  0  0  0  0  0
   37.7830   28.9190   38.0440 O   0  0  0  0  0  0  0  0  0  0  0  0
   37.2790   28.2320   39.3090 P   0  0  1  0  0  0  0  0  0  0  0  0
   38.0090   26.7760   39.5710 O   0  0  0  0  0  0  0  0  0  0  0  0
   37.3650   25.5710   39.8800 C   0  0  0  0  0  0  0  0  0  0  0  0
   36.2970   24.7870   39.4590 C   0  0  0  0  0  0  0  0  0  0  0  0
   35.7700   25.2300   38.6090 H   0  0  0  0  0  0  0  0  0  0  0  0
   36.2700   23.6790   40.2860 C   0  0  0  0  0  0  0  0  0  0  0  0
   35.4780   22.9710   40.0700 H   0  0  0  0  0  0  0  0  0  0  0  0
   37.3220   23.8480   41.1680 C   0  0  0  0  0  0  0  0  0  0  0  0
   37.4660   23.0630   41.9100 H   0  0  0  0  0  0  0  0  0  0  0  0
   37.9390   24.9510   40.9100 O   0  0  0  0  0  0  0  0  0  0  0  0
   35.6030   28.1240   39.2510 O   0  0  0  0  0  0  0  0  0  0  0  0
   34.9710   29.1430   39.9140 C   0  0  0  0  0  0  0  0  0  0  0  0
   33.6170   29.2190   39.6310 F   0  0  0  0  0  0  0  0  0  0  0  0
   35.5340   30.3780   39.7710 F   0  0  0  0  0  0  0  0  0  0  0  0
   35.0910   28.8210   41.2780 F   0  0  0  0  0  0  0  0  0  0  0  0
  1  6  1  0  0  0  0
  2  3  1  0  0  0  0
  2  1  2  0  0  0  0
  3  4  2  0  0  0  0
  4  5  1  0  0  0  0
  5  8  1  0  0  0  0
  6  5  2  0  0  0  0
  7  1  1  0  0  0  0
  9 10  1  0  0  0  0
  9  2  1  0  0  0  0
 10 15  1  0  0  0  0
 10 16  1  0  0  0  0
 11 18  1  0  0  0  0
 11 17  1  0  0  0  0
 11 10  1  0  0  0  0
 12 11  1  0  0  0  0
 13 12  1  0  0  0  0
 13 14  1  0  0  0  0
 14 22  1  0  0  0  0
 14  9  1  0  0  0  0
 19 12  1  0  0  0  0
 20 13  1  0  0  0  0
 21 13  1  0  0  0  0
 23 14  1  0  0  0  0
 24  3  1  0  0  0  0
 26 25  2  6  0  0  0
 26 27  1  0  0  0  0
 26 24  1  0  0  0  0
 27 28  1  0  0  0  0
 28 35  1  0  0  0  0
 29 28  2  0  0  0  0
 29 31  1  0  0  0  0
 30 29  1  0  0  0  0
 31 33  2  0  0  0  0
 32 31  1  0  0  0  0
 33 34  1  0  0  0  0
 35 33  1  0  0  0  0
 36 26  1  0  0  0  0
 36 37  1  0  0  0  0
 37 40  1  0  0  0  0
 38 37  1  0  0  0  0
 39 37  1  0  0  0  0
M  END
>  <minimizedAffinity>
-4.77668285

$$$$
