
 OpenBabel03252508503D

 27 29  0  0  0  0  0  0  0  0999 V2000
   45.9740   34.1930   41.0400 C   0  0  0  0  0  0  0  0  0  0  0  0
   46.5500   34.8100   42.1420 C   0  0  0  0  0  0  0  0  0  0  0  0
   47.9020   35.1780   42.0210 C   0  0  0  0  0  0  0  0  0  0  0  0
   48.5420   34.9090   40.8540 N   0  0  0  0  0  0  0  0  0  0  0  0
   47.9470   34.3160   39.8260 C   0  0  0  0  0  0  0  0  0  0  0  0
   46.6560   33.9530   39.9110 N   0  0  0  0  0  0  0  0  0  0  0  0
   48.3730   35.6550   42.8530 H   0  0  0  0  0  0  0  0  0  0  0  0
   48.4230   34.0850   38.8760 H   0  0  0  0  0  0  0  0  0  0  0  0
   45.7670   35.0480   43.3390 C   0  0  0  0  0  0  0  0  0  0  0  0
   45.0770   36.2180   43.5720 C   0  0  0  0  0  0  0  0  0  0  0  0
   44.4880   36.0180   44.7980 C   0  0  0  0  0  0  0  0  0  0  0  0
   44.7970   34.7990   45.2860 N   0  0  0  0  0  0  0  0  0  0  0  0
   45.5700   34.2340   44.3840 N   0  0  0  0  0  0  0  0  0  0  0  0
   44.9670   37.1260   42.9930 H   0  0  0  0  0  0  0  0  0  0  0  0
   43.8430   36.6660   45.3980 H   0  0  0  0  0  0  0  0  0  0  0  0
   44.5700   34.2640   46.1510 H   0  0  0  0  0  0  0  0  0  0  0  0
   44.6450   33.8180   41.1220 O   0  0  0  0  0  0  0  0  0  0  0  0
   43.5650   34.4620   40.5930 C   0  0  0  0  0  0  0  0  0  0  0  0
   43.3070   35.7200   40.6600 O   0  0  0  0  0  0  0  0  0  0  0  0
   42.4840   33.7620   39.8340 C   0  0  0  0  0  0  0  0  0  0  0  0
   41.3730   33.0810   40.3460 C   0  0  0  0  0  0  0  0  0  0  0  0
   41.2060   33.0090   41.4330 H   0  0  0  0  0  0  0  0  0  0  0  0
   40.5900   32.5610   39.3400 C   0  0  0  0  0  0  0  0  0  0  0  0
   39.6790   31.9940   39.4620 H   0  0  0  0  0  0  0  0  0  0  0  0
   41.2770   32.9600   38.2150 C   0  0  0  0  0  0  0  0  0  0  0  0
   40.9630   32.7320   37.1860 H   0  0  0  0  0  0  0  0  0  0  0  0
   42.3260   33.6260   38.5430 O   0  0  0  0  0  0  0  0  0  0  0  0
  1 17  1  0  0  0  0
  1  2  1  0  0  0  0
  2  9  1  0  0  0  0
  3  2  2  0  0  0  0
  3  7  1  0  0  0  0
  4  3  1  0  0  0  0
  5  6  1  0  0  0  0
  5  4  2  0  0  0  0
  6  1  2  0  0  0  0
  8  5  1  0  0  0  0
  9 10  1  0  0  0  0
  9 13  2  0  0  0  0
 10 11  2  0  0  0  0
 11 12  1  0  0  0  0
 11 15  1  0  0  0  0
 12 16  1  0  0  0  0
 13 12  1  0  0  0  0
 14 10  1  0  0  0  0
 18 19  2  0  0  0  0
 18 17  1  0  0  0  0
 20 21  2  0  0  0  0
 20 18  1  0  0  0  0
 21 22  1  0  0  0  0
 23 24  1  0  0  0  0
 23 21  1  0  0  0  0
 25 27  1  0  0  0  0
 25 23  2  0  0  0  0
 26 25  1  0  0  0  0
 27 20  1  0  0  0  0
M  END
>  <minimizedAffinity>
-5.01400757

>  <minimizedRMSD>
0.460877687

$$$$
