
 OpenBabel03242514223D

 33 36  0  0  0  0  0  0  0  0999 V2000
   44.7810   33.1320   41.1160 Cl  0  0  0  0  0  0  0  0  0  0  0  0
   46.3170   33.9530   40.9040 C   0  0  0  0  0  0  0  0  0  0  0  0
   46.8320   34.7100   41.9160 C   0  0  0  0  0  0  0  0  0  0  0  0
   48.0510   35.3670   41.7630 C   0  0  0  0  0  0  0  0  0  0  0  0
   48.6880   35.2130   40.5640 C   0  0  0  0  0  0  0  0  0  0  0  0
   48.1650   34.4480   39.5440 C   0  0  0  0  0  0  0  0  0  0  0  0
   46.9700   33.8110   39.7100 C   0  0  0  0  0  0  0  0  0  0  0  0
   48.4810   35.9690   42.5430 H   0  0  0  0  0  0  0  0  0  0  0  0
   49.6490   35.6800   40.3290 H   0  0  0  0  0  0  0  0  0  0  0  0
   48.6660   34.3200   38.5850 H   0  0  0  0  0  0  0  0  0  0  0  0
   45.6010   34.0370   45.3240 C   0  0  0  0  0  0  0  0  0  0  0  0
   44.7180   35.1050   45.5340 C   0  0  0  0  0  0  0  0  0  0  0  0
   44.5500   36.0370   44.5200 C   0  0  0  0  0  0  0  0  0  0  0  0
   45.2490   35.8700   43.3760 N   0  0  0  0  0  0  0  0  0  0  0  0
   46.1010   34.8360   43.1800 C   0  0  0  0  0  0  0  0  0  0  0  0
   46.2820   33.9120   44.1580 N   0  0  0  0  0  0  0  0  0  0  0  0
   45.7190   33.3150   46.1330 H   0  0  0  0  0  0  0  0  0  0  0  0
   44.1520   35.2660   46.4220 H   0  0  0  0  0  0  0  0  0  0  0  0
   43.9230   36.8990   44.5160 H   0  0  0  0  0  0  0  0  0  0  0  0
   46.3880   32.9940   38.6520 C   0  0  0  0  0  0  0  0  0  0  0  0
   45.4700   33.3600   37.7480 N   0  0  0  0  0  0  0  0  0  0  0  0
   45.1980   32.3150   36.9480 C   0  0  0  0  0  0  0  0  0  0  0  0
   45.9540   31.2700   37.3520 N   0  0  0  0  0  0  0  0  0  0  0  0
   46.6800   31.6970   38.3980 N   0  0  0  0  0  0  0  0  0  0  0  0
   44.5330   32.2000   36.1180 H   0  0  0  0  0  0  0  0  0  0  0  0
   46.1000   29.9260   36.9040 C   0  0  0  0  0  0  0  0  0  0  0  0
   45.4200   29.5670   35.7340 C   0  0  0  0  0  0  0  0  0  0  0  0
   44.7720   30.1020   35.0500 H   0  0  0  0  0  0  0  0  0  0  0  0
   45.7170   28.2250   35.5070 C   0  0  0  0  0  0  0  0  0  0  0  0
   45.4430   27.4950   34.7480 H   0  0  0  0  0  0  0  0  0  0  0  0
   46.5620   27.8500   36.5570 C   0  0  0  0  0  0  0  0  0  0  0  0
   47.0650   26.9250   36.8370 H   0  0  0  0  0  0  0  0  0  0  0  0
   46.7590   28.8860   37.3550 O   0  0  0  0  0  0  0  0  0  0  0  0
  2  1  1  0  0  0  0
  2  3  1  0  0  0  0
  3 15  1  0  0  0  0
  4  3  2  0  0  0  0
  4  8  1  0  0  0  0
  5  4  1  0  0  0  0
  6  7  1  0  0  0  0
  6  5  2  0  0  0  0
  7  2  2  0  0  0  0
  9  5  1  0  0  0  0
 10  6  1  0  0  0  0
 11 12  1  0  0  0  0
 11 17  1  0  0  0  0
 12 18  1  0  0  0  0
 13 12  2  0  0  0  0
 14 13  1  0  0  0  0
 15 14  2  0  0  0  0
 15 16  1  0  0  0  0
 16 11  2  0  0  0  0
 19 13  1  0  0  0  0
 20  7  1  0  0  0  0
 21 20  1  0  0  0  0
 22 23  1  0  0  0  0
 22 21  2  0  0  0  0
 23 24  1  0  0  0  0
 24 20  2  0  0  0  0
 25 22  1  0  0  0  0
 26 23  1  0  0  0  0
 26 33  1  0  0  0  0
 27 26  2  0  0  0  0
 28 27  1  0  0  0  0
 29 27  1  0  0  0  0
 29 31  2  0  0  0  0
 30 29  1  0  0  0  0
 31 32  1  0  0  0  0
 31 33  1  0  0  0  0
M  END
>  <minimizedAffinity>
-5.3241806

>  <minimizedRMSD>
0.153515279

$$$$
