
 OpenBabel03252509083D

 40 43  0  0  0  0  0  0  0  0999 V2000
   47.3960   31.8130   38.7000 C   0  0  0  0  0  0  0  0  0  0  0  0
   47.0780   33.1280   38.8530 C   0  0  0  0  0  0  0  0  0  0  0  0
   47.8160   34.1030   38.1990 C   0  0  0  0  0  0  0  0  0  0  0  0
   48.8700   33.7370   37.3960 C   0  0  0  0  0  0  0  0  0  0  0  0
   49.2270   32.4030   37.2100 C   0  0  0  0  0  0  0  0  0  0  0  0
   48.4660   31.4410   37.8820 C   0  0  0  0  0  0  0  0  0  0  0  0
   47.5980   35.1560   38.2940 H   0  0  0  0  0  0  0  0  0  0  0  0
   49.5120   34.3990   36.8400 H   0  0  0  0  0  0  0  0  0  0  0  0
   50.0280   32.0490   36.6030 H   0  0  0  0  0  0  0  0  0  0  0  0
   48.7140   30.3870   37.7640 H   0  0  0  0  0  0  0  0  0  0  0  0
   45.4270   35.2310   43.2710 Cl  0  0  0  0  0  0  0  0  0  0  0  0
   45.2020   34.5740   41.6710 C   0  0  0  0  0  0  0  0  0  0  0  0
   46.2580   34.1430   40.9350 C   0  0  0  0  0  0  0  0  0  0  0  0
   45.9750   33.6190   39.6820 C   0  0  0  0  0  0  0  0  0  0  0  0
   44.6890   33.5380   39.2040 C   0  0  0  0  0  0  0  0  0  0  0  0
   43.6460   33.9750   39.9540 C   0  0  0  0  0  0  0  0  0  0  0  0
   43.9140   34.4940   41.1960 C   0  0  0  0  0  0  0  0  0  0  0  0
   44.5320   33.1230   38.2230 H   0  0  0  0  0  0  0  0  0  0  0  0
   42.6440   33.8980   39.5500 H   0  0  0  0  0  0  0  0  0  0  0  0
   43.0620   34.8370   41.7770 H   0  0  0  0  0  0  0  0  0  0  0  0
   49.6090   35.4870   42.0300 C   0  0  0  0  0  0  0  0  0  0  0  0
   48.3190   35.4090   41.4910 C   0  0  0  0  0  0  0  0  0  0  0  0
   47.5890   34.2360   41.4890 C   0  0  0  0  0  0  0  0  0  0  0  0
   48.2230   33.1740   42.0490 N   0  0  0  0  0  0  0  0  0  0  0  0
   49.4560   33.2400   42.5670 C   0  0  0  0  0  0  0  0  0  0  0  0
   50.1390   34.3890   42.5550 N   0  0  0  0  0  0  0  0  0  0  0  0
   50.1040   36.4500   41.9860 H   0  0  0  0  0  0  0  0  0  0  0  0
   47.8620   36.2860   41.0580 H   0  0  0  0  0  0  0  0  0  0  0  0
   49.8080   32.3010   42.9730 H   0  0  0  0  0  0  0  0  0  0  0  0
   46.4950   30.6030   39.4480 S   0  0  0  0  0  0  0  0  0  0  0  0
   47.0930   29.2290   39.2430 O   0  0  0  0  0  0  0  0  0  0  0  0
   46.7350   30.8560   40.9830 O   0  0  0  0  0  0  0  0  0  0  0  0
   44.7890   30.4240   39.3030 C   0  0  0  0  0  0  0  0  0  0  0  0
   43.9940   30.2770   40.4690 C   0  0  0  0  0  0  0  0  0  0  0  0
   44.3150   30.2570   41.5310 H   0  0  0  0  0  0  0  0  0  0  0  0
   42.6500   30.1420   40.2060 C   0  0  0  0  0  0  0  0  0  0  0  0
   41.8270   30.0170   40.8650 H   0  0  0  0  0  0  0  0  0  0  0  0
   42.6540   30.2110   38.8510 C   0  0  0  0  0  0  0  0  0  0  0  0
   41.8020   30.1540   38.1530 H   0  0  0  0  0  0  0  0  0  0  0  0
   43.8320   30.3640   38.4100 O   0  0  0  0  0  0  0  0  0  0  0  0
  1  2  1  0  0  0  0
  1 30  1  0  0  0  0
  2 14  1  0  0  0  0
  3  7  1  0  0  0  0
  3  2  2  0  0  0  0
  4  3  1  0  0  0  0
  5  4  2  0  0  0  0
  5  6  1  0  0  0  0
  6  1  2  0  0  0  0
  8  4  1  0  0  0  0
  9  5  1  0  0  0  0
 10  6  1  0  0  0  0
 12 11  1  0  0  0  0
 13 23  1  0  0  0  0
 13 12  2  0  0  0  0
 14 13  1  0  0  0  0
 15 14  2  0  0  0  0
 15 16  1  0  0  0  0
 16 17  2  0  0  0  0
 17 12  1  0  0  0  0
 17 20  1  0  0  0  0
 18 15  1  0  0  0  0
 19 16  1  0  0  0  0
 21 26  1  0  0  0  0
 22 21  2  0  0  0  0
 23 22  1  0  0  0  0
 23 24  2  0  0  0  0
 24 25  1  0  0  0  0
 25 29  1  0  0  0  0
 26 25  2  0  0  0  0
 27 21  1  0  0  0  0
 28 22  1  0  0  0  0
 30 32  2  0  0  0  0
 31 30  2  0  0  0  0
 33 30  1  0  0  0  0
 33 34  2  0  0  0  0
 34 35  1  0  0  0  0
 36 34  1  0  0  0  0
 36 37  1  0  0  0  0
 38 36  2  0  0  0  0
 39 38  1  0  0  0  0
 40 38  1  0  0  0  0
 40 33  1  0  0  0  0
M  END
>  <minimizedAffinity>
-4.56963873

>  <minimizedRMSD>
1.50384343

$$$$
