
 OpenBabel03242514233D

 33 36  0  0  0  0  0  0  0  0999 V2000
   44.7890   33.1330   41.1110 Cl  0  0  0  0  0  0  0  0  0  0  0  0
   46.3230   33.9560   40.9020 C   0  0  0  0  0  0  0  0  0  0  0  0
   46.8360   34.7130   41.9150 C   0  0  0  0  0  0  0  0  0  0  0  0
   48.0540   35.3730   41.7620 C   0  0  0  0  0  0  0  0  0  0  0  0
   48.6930   35.2210   40.5640 C   0  0  0  0  0  0  0  0  0  0  0  0
   48.1720   34.4550   39.5430 C   0  0  0  0  0  0  0  0  0  0  0  0
   46.9780   33.8160   39.7070 C   0  0  0  0  0  0  0  0  0  0  0  0
   48.4830   35.9750   42.5430 H   0  0  0  0  0  0  0  0  0  0  0  0
   49.6530   35.6890   40.3300 H   0  0  0  0  0  0  0  0  0  0  0  0
   48.6740   34.3290   38.5840 H   0  0  0  0  0  0  0  0  0  0  0  0
   45.6040   34.0380   45.3210 C   0  0  0  0  0  0  0  0  0  0  0  0
   44.7190   35.1030   45.5300 C   0  0  0  0  0  0  0  0  0  0  0  0
   44.5500   36.0360   44.5170 C   0  0  0  0  0  0  0  0  0  0  0  0
   45.2500   35.8710   43.3730 N   0  0  0  0  0  0  0  0  0  0  0  0
   46.1040   34.8380   43.1780 C   0  0  0  0  0  0  0  0  0  0  0  0
   46.2860   33.9130   44.1560 N   0  0  0  0  0  0  0  0  0  0  0  0
   45.7230   33.3150   46.1300 H   0  0  0  0  0  0  0  0  0  0  0  0
   44.1520   35.2630   46.4180 H   0  0  0  0  0  0  0  0  0  0  0  0
   43.9210   36.8970   44.5130 H   0  0  0  0  0  0  0  0  0  0  0  0
   46.3980   32.9980   38.6490 C   0  0  0  0  0  0  0  0  0  0  0  0
   45.4580   33.3540   37.7640 N   0  0  0  0  0  0  0  0  0  0  0  0
   45.1960   32.3130   36.9560 C   0  0  0  0  0  0  0  0  0  0  0  0
   45.9830   31.2810   37.3340 N   0  0  0  0  0  0  0  0  0  0  0  0
   46.7160   31.7130   38.3740 N   0  0  0  0  0  0  0  0  0  0  0  0
   44.5210   32.1920   36.1350 H   0  0  0  0  0  0  0  0  0  0  0  0
   46.1540   29.9460   36.8670 C   0  0  0  0  0  0  0  0  0  0  0  0
   47.2530   29.6970   36.0370 C   0  0  0  0  0  0  0  0  0  0  0  0
   48.0500   30.3170   35.6440 H   0  0  0  0  0  0  0  0  0  0  0  0
   47.2010   28.3420   35.7190 C   0  0  0  0  0  0  0  0  0  0  0  0
   47.8120   27.6710   35.1180 H   0  0  0  0  0  0  0  0  0  0  0  0
   46.0700   27.8490   36.3780 C   0  0  0  0  0  0  0  0  0  0  0  0
   45.5980   26.8710   36.4510 H   0  0  0  0  0  0  0  0  0  0  0  0
   45.4840   28.8320   37.0420 O   0  0  0  0  0  0  0  0  0  0  0  0
  2  1  1  0  0  0  0
  2  3  1  0  0  0  0
  3 15  1  0  0  0  0
  4  3  2  0  0  0  0
  4  8  1  0  0  0  0
  5  4  1  0  0  0  0
  6  7  1  0  0  0  0
  6  5  2  0  0  0  0
  7  2  2  0  0  0  0
  9  5  1  0  0  0  0
 10  6  1  0  0  0  0
 11 12  1  0  0  0  0
 11 17  1  0  0  0  0
 12 18  1  0  0  0  0
 13 12  2  0  0  0  0
 14 13  1  0  0  0  0
 15 14  2  0  0  0  0
 15 16  1  0  0  0  0
 16 11  2  0  0  0  0
 19 13  1  0  0  0  0
 20  7  1  0  0  0  0
 21 20  1  0  0  0  0
 22 23  1  0  0  0  0
 22 21  2  0  0  0  0
 23 24  1  0  0  0  0
 24 20  2  0  0  0  0
 25 22  1  0  0  0  0
 26 33  1  0  0  0  0
 26 23  1  0  0  0  0
 27 26  2  0  0  0  0
 28 27  1  0  0  0  0
 29 27  1  0  0  0  0
 29 31  2  0  0  0  0
 30 29  1  0  0  0  0
 31 32  1  0  0  0  0
 31 33  1  0  0  0  0
M  END
>  <minimizedAffinity>
-5.31549835

>  <minimizedRMSD>
0.187897518

$$$$
