
 OpenBabel03252501123D

 38 41  0  0  1  0  0  0  0  0999 V2000
   48.6960   31.8280   39.0710 C   0  0  2  0  0  0  0  0  0  0  0  0
   49.8560   31.7610   39.9850 C   0  0  0  0  0  0  0  0  0  0  0  0
   49.6670   32.5950   41.1130 N   0  0  0  0  0  0  0  0  0  0  0  0
   49.7300   33.5530   42.1670 C   0  0  0  0  0  0  0  0  0  0  0  0
   50.7100   34.2950   42.4640 O   0  0  0  0  0  0  0  0  0  0  0  0
   48.3730   33.2970   42.6340 C   0  0  2  0  0  0  0  0  0  0  0  0
   48.4420   32.1490   41.6540 C   0  0  1  0  0  0  0  0  0  0  0  0
   47.3410   32.2850   40.2170 S   0  0  0  0  0  0  0  0  0  0  0  0
   50.7550   32.1680   39.4360 H   0  0  0  0  0  0  0  0  0  0  0  0
   50.1480   30.7270   40.2740 H   0  0  0  0  0  0  0  0  0  0  0  0
   48.3690   32.9500   43.6730 H   0  0  0  0  0  0  0  0  0  0  0  0
   48.3980   31.1380   42.1130 H   0  0  0  0  0  0  0  0  0  0  0  0
   48.3680   30.4300   38.5800 C   0  0  0  0  0  0  0  0  0  0  0  0
   49.2160   29.7420   38.8280 H   0  0  0  0  0  0  0  0  0  0  0  0
   48.3250   30.4100   37.4620 H   0  0  0  0  0  0  0  0  0  0  0  0
   47.4900   29.9820   39.0700 H   0  0  0  0  0  0  0  0  0  0  0  0
   48.8320   32.8200   37.9510 C   0  0  0  0  0  0  0  0  0  0  0  0
   49.8830   32.8690   37.6520 H   0  0  0  0  0  0  0  0  0  0  0  0
   48.5590   33.8150   38.3960 H   0  0  0  0  0  0  0  0  0  0  0  0
   47.8710   32.5780   36.8660 C   0  0  0  0  0  0  0  0  0  0  0  0
   46.5070   32.6550   36.6660 C   0  0  0  0  0  0  0  0  0  0  0  0
   45.9040   32.9720   37.4810 H   0  0  0  0  0  0  0  0  0  0  0  0
   46.2080   32.2800   35.3730 C   0  0  0  0  0  0  0  0  0  0  0  0
   45.2230   32.2500   34.9580 H   0  0  0  0  0  0  0  0  0  0  0  0
   47.4500   31.9860   34.8410 C   0  0  0  0  0  0  0  0  0  0  0  0
   47.5720   31.6470   33.8000 H   0  0  0  0  0  0  0  0  0  0  0  0
   48.4030   32.1660   35.7240 O   0  0  0  0  0  0  0  0  0  0  0  0
   47.4670   34.4110   42.3140 C   0  0  0  0  0  0  0  0  0  0  0  0
   47.4820   35.1240   41.2820 O   0  0  0  0  0  0  0  0  0  0  0  0
   44.6870   35.7990   44.2950 C   0  0  0  0  0  0  0  0  0  0  0  0
   45.6190   35.6070   43.2620 C   0  0  0  0  0  0  0  0  0  0  0  0
   46.5420   34.5630   43.3980 C   0  0  0  0  0  0  0  0  0  0  0  0
   46.5070   33.7800   44.5100 N   0  0  0  0  0  0  0  0  0  0  0  0
   45.5840   34.0040   45.4870 C   0  0  0  0  0  0  0  0  0  0  0  0
   44.6690   35.0060   45.3940 N   0  0  0  0  0  0  0  0  0  0  0  0
   43.9390   36.5800   44.2720 H   0  0  0  0  0  0  0  0  0  0  0  0
   45.5980   36.2610   42.4050 H   0  0  0  0  0  0  0  0  0  0  0  0
   45.7310   33.2760   46.2700 H   0  0  0  0  0  0  0  0  0  0  0  0
  1 17  1  6  0  0  0
  1  2  1  0  0  0  0
  1  8  1  0  0  0  0
  2 10  1  0  0  0  0
  2  3  1  0  0  0  0
  3  7  1  0  0  0  0
  3  4  1  0  0  0  0
  4  5  2  0  0  0  0
  4  6  1  0  0  0  0
  6 11  1  1  0  0  0
  7 12  1  1  0  0  0
  7  6  1  0  0  0  0
  8  7  1  0  0  0  0
  9  2  1  0  0  0  0
 13 14  1  0  0  0  0
 13 16  1  0  0  0  0
 13  1  1  0  0  0  0
 15 13  1  0  0  0  0
 17 19  1  0  0  0  0
 18 17  1  0  0  0  0
 20 17  1  0  0  0  0
 21 20  2  0  0  0  0
 21 22  1  0  0  0  0
 23 21  1  0  0  0  0
 24 23  1  0  0  0  0
 25 23  2  0  0  0  0
 25 27  1  0  0  0  0
 26 25  1  0  0  0  0
 27 20  1  0  0  0  0
 28  6  1  0  0  0  0
 28 32  1  0  0  0  0
 29 28  2  0  0  0  0
 30 35  1  0  0  0  0
 31 32  1  0  0  0  0
 31 30  2  0  0  0  0
 32 33  2  0  0  0  0
 33 34  1  0  0  0  0
 34 38  1  0  0  0  0
 35 34  2  0  0  0  0
 36 30  1  0  0  0  0
 37 31  1  0  0  0  0
M  END
>  <minimizedAffinity>
-4.94648218

>  <minimizedRMSD>
2.0794878

$$$$
