
 OpenBabel03242514233D

 33 36  0  0  0  0  0  0  0  0999 V2000
   44.7320   33.1550   41.1170 Cl  0  0  0  0  0  0  0  0  0  0  0  0
   46.2800   33.9520   40.9070 C   0  0  0  0  0  0  0  0  0  0  0  0
   46.8110   34.6930   41.9220 C   0  0  0  0  0  0  0  0  0  0  0  0
   48.0400   35.3310   41.7690 C   0  0  0  0  0  0  0  0  0  0  0  0
   48.6720   35.1750   40.5670 C   0  0  0  0  0  0  0  0  0  0  0  0
   48.1330   34.4250   39.5440 C   0  0  0  0  0  0  0  0  0  0  0  0
   46.9290   33.8070   39.7090 C   0  0  0  0  0  0  0  0  0  0  0  0
   48.4830   35.9210   42.5520 H   0  0  0  0  0  0  0  0  0  0  0  0
   49.6400   35.6270   40.3330 H   0  0  0  0  0  0  0  0  0  0  0  0
   48.6290   34.2950   38.5830 H   0  0  0  0  0  0  0  0  0  0  0  0
   45.5860   34.0250   45.3320 C   0  0  0  0  0  0  0  0  0  0  0  0
   44.7140   35.1000   45.5480 C   0  0  0  0  0  0  0  0  0  0  0  0
   44.5510   36.0360   44.5370 C   0  0  0  0  0  0  0  0  0  0  0  0
   45.2440   35.8650   43.3900 N   0  0  0  0  0  0  0  0  0  0  0  0
   46.0860   34.8240   43.1890 C   0  0  0  0  0  0  0  0  0  0  0  0
   46.2610   33.8950   44.1640 N   0  0  0  0  0  0  0  0  0  0  0  0
   45.7010   33.3000   46.1400 H   0  0  0  0  0  0  0  0  0  0  0  0
   44.1530   35.2650   46.4380 H   0  0  0  0  0  0  0  0  0  0  0  0
   43.9320   36.9040   44.5370 H   0  0  0  0  0  0  0  0  0  0  0  0
   46.3300   33.0060   38.6480 C   0  0  0  0  0  0  0  0  0  0  0  0
   45.3800   33.3780   37.7810 N   0  0  0  0  0  0  0  0  0  0  0  0
   45.1020   32.3490   36.9620 C   0  0  0  0  0  0  0  0  0  0  0  0
   45.8870   31.3080   37.3170 N   0  0  0  0  0  0  0  0  0  0  0  0
   46.6370   31.7220   38.3520 N   0  0  0  0  0  0  0  0  0  0  0  0
   44.4150   32.2430   36.1490 H   0  0  0  0  0  0  0  0  0  0  0  0
   46.0440   29.9780   36.8310 C   0  0  0  0  0  0  0  0  0  0  0  0
   47.3050   29.6250   36.3350 C   0  0  0  0  0  0  0  0  0  0  0  0
   48.2430   30.1570   36.2280 H   0  0  0  0  0  0  0  0  0  0  0  0
   47.2040   28.2980   35.9260 C   0  0  0  0  0  0  0  0  0  0  0  0
   47.8880   27.5770   35.4820 H   0  0  0  0  0  0  0  0  0  0  0  0
   45.8840   27.9250   36.2000 C   0  0  0  0  0  0  0  0  0  0  0  0
   45.3090   27.0080   36.0700 H   0  0  0  0  0  0  0  0  0  0  0  0
   45.2390   28.9490   36.7330 O   0  0  0  0  0  0  0  0  0  0  0  0
  2  1  1  0  0  0  0
  2  3  1  0  0  0  0
  3 15  1  0  0  0  0
  4  3  2  0  0  0  0
  4  8  1  0  0  0  0
  5  4  1  0  0  0  0
  6  7  1  0  0  0  0
  6  5  2  0  0  0  0
  7  2  2  0  0  0  0
  9  5  1  0  0  0  0
 10  6  1  0  0  0  0
 11 12  1  0  0  0  0
 11 17  1  0  0  0  0
 12 18  1  0  0  0  0
 13 12  2  0  0  0  0
 14 13  1  0  0  0  0
 15 14  2  0  0  0  0
 15 16  1  0  0  0  0
 16 11  2  0  0  0  0
 19 13  1  0  0  0  0
 20  7  1  0  0  0  0
 21 20  1  0  0  0  0
 22 23  1  0  0  0  0
 22 21  2  0  0  0  0
 23 24  1  0  0  0  0
 24 20  2  0  0  0  0
 25 22  1  0  0  0  0
 26 23  1  0  0  0  0
 27 26  2  0  0  0  0
 28 27  1  0  0  0  0
 29 31  2  0  0  0  0
 29 27  1  0  0  0  0
 30 29  1  0  0  0  0
 31 33  1  0  0  0  0
 32 31  1  0  0  0  0
 33 26  1  0  0  0  0
M  END
>  <minimizedAffinity>
-5.31923723

>  <minimizedRMSD>
0.224790469

$$$$
