
 OpenBabel03252509083D

 40 43  0  0  0  0  0  0  0  0999 V2000
   47.5340   31.7700   38.9230 C   0  0  0  0  0  0  0  0  0  0  0  0
   47.1460   33.0750   38.9530 C   0  0  0  0  0  0  0  0  0  0  0  0
   47.8270   34.0200   38.2030 C   0  0  0  0  0  0  0  0  0  0  0  0
   48.8970   33.6380   37.4290 C   0  0  0  0  0  0  0  0  0  0  0  0
   49.3260   32.3130   37.3680 C   0  0  0  0  0  0  0  0  0  0  0  0
   48.6210   31.3790   38.1360 C   0  0  0  0  0  0  0  0  0  0  0  0
   47.5530   35.0650   38.2000 H   0  0  0  0  0  0  0  0  0  0  0  0
   49.5000   34.2770   36.8080 H   0  0  0  0  0  0  0  0  0  0  0  0
   50.1440   31.9460   36.7920 H   0  0  0  0  0  0  0  0  0  0  0  0
   48.9250   30.3340   38.1150 H   0  0  0  0  0  0  0  0  0  0  0  0
   45.3910   35.4300   43.1990 Cl  0  0  0  0  0  0  0  0  0  0  0  0
   45.2010   34.6490   41.6520 C   0  0  0  0  0  0  0  0  0  0  0  0
   46.2760   34.2060   40.9520 C   0  0  0  0  0  0  0  0  0  0  0  0
   46.0200   33.5820   39.7400 C   0  0  0  0  0  0  0  0  0  0  0  0
   44.7410   33.4170   39.2660 C   0  0  0  0  0  0  0  0  0  0  0  0
   43.6780   33.8670   39.9790 C   0  0  0  0  0  0  0  0  0  0  0  0
   43.9200   34.4860   41.1810 C   0  0  0  0  0  0  0  0  0  0  0  0
   44.6050   32.9250   38.3180 H   0  0  0  0  0  0  0  0  0  0  0  0
   42.6820   33.7220   39.5800 H   0  0  0  0  0  0  0  0  0  0  0  0
   43.0510   34.8370   41.7320 H   0  0  0  0  0  0  0  0  0  0  0  0
   49.5810   35.7460   41.9260 C   0  0  0  0  0  0  0  0  0  0  0  0
   48.2970   35.5780   41.3900 C   0  0  0  0  0  0  0  0  0  0  0  0
   47.6000   34.3920   41.5010 C   0  0  0  0  0  0  0  0  0  0  0  0
   48.2570   33.4080   42.1690 N   0  0  0  0  0  0  0  0  0  0  0  0
   49.4840   33.5600   42.6840 C   0  0  0  0  0  0  0  0  0  0  0  0
   50.1360   34.7200   42.5610 N   0  0  0  0  0  0  0  0  0  0  0  0
   50.0510   36.7120   41.7880 H   0  0  0  0  0  0  0  0  0  0  0  0
   47.8210   36.3940   40.8680 H   0  0  0  0  0  0  0  0  0  0  0  0
   49.8580   32.6760   43.1850 H   0  0  0  0  0  0  0  0  0  0  0  0
   46.7030   30.5900   39.7900 S   0  0  0  0  0  0  0  0  0  0  0  0
   45.4140   30.1780   39.1130 O   0  0  0  0  0  0  0  0  0  0  0  0
   47.6010   29.3080   39.6260 O   0  0  0  0  0  0  0  0  0  0  0  0
   46.3690   30.6700   41.4770 C   0  0  0  0  0  0  0  0  0  0  0  0
   45.0410   30.8860   41.9240 C   0  0  0  0  0  0  0  0  0  0  0  0
   44.1190   31.0210   41.3210 H   0  0  0  0  0  0  0  0  0  0  0  0
   44.9190   30.9280   43.2930 C   0  0  0  0  0  0  0  0  0  0  0  0
   44.0660   31.0730   43.9070 H   0  0  0  0  0  0  0  0  0  0  0  0
   46.2110   30.7330   43.6630 C   0  0  0  0  0  0  0  0  0  0  0  0
   46.6400   30.6820   44.6770 H   0  0  0  0  0  0  0  0  0  0  0  0
   46.9550   30.5990   42.6460 O   0  0  0  0  0  0  0  0  0  0  0  0
  1  2  1  0  0  0  0
  1 30  1  0  0  0  0
  2 14  1  0  0  0  0
  3  2  2  0  0  0  0
  4  3  1  0  0  0  0
  5  4  2  0  0  0  0
  5  6  1  0  0  0  0
  6  1  2  0  0  0  0
  7  3  1  0  0  0  0
  8  4  1  0  0  0  0
  9  5  1  0  0  0  0
 10  6  1  0  0  0  0
 12 11  1  0  0  0  0
 13 23  1  0  0  0  0
 13 12  2  0  0  0  0
 14 13  1  0  0  0  0
 15 14  2  0  0  0  0
 15 16  1  0  0  0  0
 16 17  2  0  0  0  0
 17 12  1  0  0  0  0
 17 20  1  0  0  0  0
 18 15  1  0  0  0  0
 19 16  1  0  0  0  0
 21 26  1  0  0  0  0
 22 23  1  0  0  0  0
 22 21  2  0  0  0  0
 23 24  2  0  0  0  0
 24 25  1  0  0  0  0
 25 29  1  0  0  0  0
 26 25  2  0  0  0  0
 27 21  1  0  0  0  0
 28 22  1  0  0  0  0
 30 33  1  0  0  0  0
 31 30  2  0  0  0  0
 32 30  2  0  0  0  0
 33 34  2  0  0  0  0
 33 40  1  0  0  0  0
 34 36  1  0  0  0  0
 35 34  1  0  0  0  0
 36 38  2  0  0  0  0
 36 37  1  0  0  0  0
 38 39  1  0  0  0  0
 40 38  1  0  0  0  0
M  END
>  <minimizedAffinity>
-4.66107559

>  <minimizedRMSD>
0.822810411

$$$$
