
 OpenBabel03252509083D

 40 43  0  0  0  0  0  0  0  0999 V2000
   47.4900   31.7650   38.8780 C   0  0  0  0  0  0  0  0  0  0  0  0
   47.1250   33.0760   38.9320 C   0  0  0  0  0  0  0  0  0  0  0  0
   47.8230   34.0220   38.1980 C   0  0  0  0  0  0  0  0  0  0  0  0
   48.8850   33.6340   37.4160 C   0  0  0  0  0  0  0  0  0  0  0  0
   49.2910   32.3040   37.3320 C   0  0  0  0  0  0  0  0  0  0  0  0
   48.5690   31.3690   38.0830 C   0  0  0  0  0  0  0  0  0  0  0  0
   47.5670   35.0710   38.2130 H   0  0  0  0  0  0  0  0  0  0  0  0
   49.4990   34.2740   36.8060 H   0  0  0  0  0  0  0  0  0  0  0  0
   50.1010   31.9320   36.7480 H   0  0  0  0  0  0  0  0  0  0  0  0
   48.8550   30.3200   38.0440 H   0  0  0  0  0  0  0  0  0  0  0  0
   45.4180   35.4030   43.2130 Cl  0  0  0  0  0  0  0  0  0  0  0  0
   45.2110   34.6440   41.6560 C   0  0  0  0  0  0  0  0  0  0  0  0
   46.2780   34.1950   40.9470 C   0  0  0  0  0  0  0  0  0  0  0  0
   46.0090   33.5880   39.7290 C   0  0  0  0  0  0  0  0  0  0  0  0
   44.7260   33.4470   39.2580 C   0  0  0  0  0  0  0  0  0  0  0  0
   43.6720   33.9030   39.9800 C   0  0  0  0  0  0  0  0  0  0  0  0
   43.9260   34.5040   41.1880 C   0  0  0  0  0  0  0  0  0  0  0  0
   44.5810   32.9690   38.3040 H   0  0  0  0  0  0  0  0  0  0  0  0
   42.6730   33.7770   39.5820 H   0  0  0  0  0  0  0  0  0  0  0  0
   43.0650   34.8600   41.7470 H   0  0  0  0  0  0  0  0  0  0  0  0
   49.5940   35.6870   41.9570 C   0  0  0  0  0  0  0  0  0  0  0  0
   48.3060   35.5430   41.4240 C   0  0  0  0  0  0  0  0  0  0  0  0
   47.6060   34.3550   41.4940 C   0  0  0  0  0  0  0  0  0  0  0  0
   48.2650   33.3450   42.1190 N   0  0  0  0  0  0  0  0  0  0  0  0
   49.4950   33.4740   42.6310 C   0  0  0  0  0  0  0  0  0  0  0  0
   50.1500   34.6360   42.5480 N   0  0  0  0  0  0  0  0  0  0  0  0
   50.0650   36.6570   41.8540 H   0  0  0  0  0  0  0  0  0  0  0  0
   47.8280   36.3800   40.9380 H   0  0  0  0  0  0  0  0  0  0  0  0
   49.8700   32.5700   43.0930 H   0  0  0  0  0  0  0  0  0  0  0  0
   46.6390   30.5850   39.7250 S   0  0  0  0  0  0  0  0  0  0  0  0
   45.3680   30.1710   39.0160 O   0  0  0  0  0  0  0  0  0  0  0  0
   47.5420   29.3030   39.5850 O   0  0  0  0  0  0  0  0  0  0  0  0
   46.2630   30.6650   41.4030 C   0  0  0  0  0  0  0  0  0  0  0  0
   44.9180   30.8460   41.8160 C   0  0  0  0  0  0  0  0  0  0  0  0
   44.0080   30.9520   41.1900 H   0  0  0  0  0  0  0  0  0  0  0  0
   44.7630   30.8920   43.1820 C   0  0  0  0  0  0  0  0  0  0  0  0
   43.8900   31.0160   43.7730 H   0  0  0  0  0  0  0  0  0  0  0  0
   46.0490   30.7350   43.5840 C   0  0  0  0  0  0  0  0  0  0  0  0
   46.4540   30.7020   44.6080 H   0  0  0  0  0  0  0  0  0  0  0  0
   46.8210   30.6160   42.5860 O   0  0  0  0  0  0  0  0  0  0  0  0
  1  2  1  0  0  0  0
  1 30  1  0  0  0  0
  2 14  1  0  0  0  0
  3  7  1  0  0  0  0
  3  2  2  0  0  0  0
  4  3  1  0  0  0  0
  5  4  2  0  0  0  0
  5  6  1  0  0  0  0
  6  1  2  0  0  0  0
  8  4  1  0  0  0  0
  9  5  1  0  0  0  0
 10  6  1  0  0  0  0
 12 11  1  0  0  0  0
 13 23  1  0  0  0  0
 13 12  2  0  0  0  0
 14 13  1  0  0  0  0
 15 14  2  0  0  0  0
 15 16  1  0  0  0  0
 16 17  2  0  0  0  0
 17 12  1  0  0  0  0
 17 20  1  0  0  0  0
 18 15  1  0  0  0  0
 19 16  1  0  0  0  0
 21 26  1  0  0  0  0
 22 23  1  0  0  0  0
 22 21  2  0  0  0  0
 23 24  2  0  0  0  0
 24 25  1  0  0  0  0
 25 29  1  0  0  0  0
 26 25  2  0  0  0  0
 27 21  1  0  0  0  0
 28 22  1  0  0  0  0
 30 33  1  0  0  0  0
 31 30  2  0  0  0  0
 32 30  2  0  0  0  0
 33 34  2  0  0  0  0
 33 40  1  0  0  0  0
 34 36  1  0  0  0  0
 35 34  1  0  0  0  0
 36 38  2  0  0  0  0
 36 37  1  0  0  0  0
 38 39  1  0  0  0  0
 40 38  1  0  0  0  0
M  END
>  <minimizedAffinity>
-4.67525721

>  <minimizedRMSD>
0.831028998

$$$$
