
 OpenBabel03252505403D

 27 29  0  0  1  0  0  0  0  0999 V2000
   44.8900   34.1600   42.9500 C   0  0  1  0  0  0  0  0  0  0  0  0
   45.5150   35.5270   43.2600 C   0  0  0  0  0  0  0  0  0  0  0  0
   45.7930   34.7920   41.9910 C   0  0  1  0  0  0  0  0  0  0  0  0
   43.7950   34.1650   42.7550 H   0  0  0  0  0  0  0  0  0  0  0  0
   46.2410   35.5500   44.0860 H   0  0  0  0  0  0  0  0  0  0  0  0
   44.7820   36.3580   43.2720 H   0  0  0  0  0  0  0  0  0  0  0  0
   45.3030   35.2570   41.0830 H   0  0  0  0  0  0  0  0  0  0  0  0
   45.2900   33.0660   43.8580 C   0  0  0  0  0  0  0  0  0  0  0  0
   45.3790   31.7730   43.2810 C   0  0  0  0  0  0  0  0  0  0  0  0
   45.7710   30.7300   44.1030 C   0  0  0  0  0  0  0  0  0  0  0  0
   46.0460   31.0100   45.4150 N   0  0  0  0  0  0  0  0  0  0  0  0
   45.9470   32.2520   45.9180 C   0  0  0  0  0  0  0  0  0  0  0  0
   45.5680   33.2740   45.1300 N   0  0  0  0  0  0  0  0  0  0  0  0
   45.1640   31.5020   42.2560 H   0  0  0  0  0  0  0  0  0  0  0  0
   45.8550   29.7290   43.7180 H   0  0  0  0  0  0  0  0  0  0  0  0
   46.2930   32.3390   47.3720 C   0  0  0  0  0  0  0  0  0  0  0  0
   45.3350   33.0150   48.0850 F   0  0  0  0  0  0  0  0  0  0  0  0
   47.5170   32.9910   47.5330 F   0  0  0  0  0  0  0  0  0  0  0  0
   46.4820   31.0500   47.8650 F   0  0  0  0  0  0  0  0  0  0  0  0
   47.2400   34.4710   41.8550 C   0  0  0  0  0  0  0  0  0  0  0  0
   48.1770   35.4660   42.0490 C   0  0  0  0  0  0  0  0  0  0  0  0
   48.0760   36.5320   42.3040 H   0  0  0  0  0  0  0  0  0  0  0  0
   49.4380   34.9160   41.8680 C   0  0  0  0  0  0  0  0  0  0  0  0
   50.4300   35.3520   41.9290 H   0  0  0  0  0  0  0  0  0  0  0  0
   49.1950   33.6060   41.5700 C   0  0  0  0  0  0  0  0  0  0  0  0
   49.9600   32.8680   41.3650 H   0  0  0  0  0  0  0  0  0  0  0  0
   47.9220   33.3920   41.5720 O   0  0  0  0  0  0  0  0  0  0  0  0
  1  4  1  6  0  0  0
  1  2  1  0  0  0  0
  1  8  1  0  0  0  0
  2  6  1  0  0  0  0
  2  5  1  0  0  0  0
  3  7  1  6  0  0  0
  3  1  1  0  0  0  0
  3  2  1  0  0  0  0
  8 13  1  0  0  0  0
  9  8  2  0  0  0  0
  9 10  1  0  0  0  0
 10 11  2  0  0  0  0
 11 12  1  0  0  0  0
 12 16  1  0  0  0  0
 13 12  2  0  0  0  0
 14  9  1  0  0  0  0
 15 10  1  0  0  0  0
 16 18  1  0  0  0  0
 16 19  1  0  0  0  0
 16 17  1  0  0  0  0
 20  3  1  0  0  0  0
 20 21  2  0  0  0  0
 21 22  1  0  0  0  0
 23 24  1  0  0  0  0
 23 21  1  0  0  0  0
 25 27  1  0  0  0  0
 25 23  2  0  0  0  0
 26 25  1  0  0  0  0
 27 20  1  0  0  0  0
M  END
>  <minimizedAffinity>
-4.61625195

>  <minimizedRMSD>
1.82952714

$$$$
