
 OpenBabel03252505403D

 27 29  0  0  1  0  0  0  0  0999 V2000
   44.8200   34.1240   43.6170 C   0  0  1  0  0  0  0  0  0  0  0  0
   45.1750   35.6070   43.7970 C   0  0  0  0  0  0  0  0  0  0  0  0
   45.3020   34.9090   42.4830 C   0  0  1  0  0  0  0  0  0  0  0  0
   43.7380   33.8760   43.6890 H   0  0  0  0  0  0  0  0  0  0  0  0
   46.0520   35.8210   44.4250 H   0  0  0  0  0  0  0  0  0  0  0  0
   44.2980   36.2520   44.0000 H   0  0  0  0  0  0  0  0  0  0  0  0
   44.5190   35.2210   41.7280 H   0  0  0  0  0  0  0  0  0  0  0  0
   45.6600   33.1800   44.3800 C   0  0  0  0  0  0  0  0  0  0  0  0
   46.3950   32.2360   43.6180 C   0  0  0  0  0  0  0  0  0  0  0  0
   47.2070   31.3490   44.3050 C   0  0  0  0  0  0  0  0  0  0  0  0
   47.2500   31.4390   45.6710 N   0  0  0  0  0  0  0  0  0  0  0  0
   46.5360   32.3510   46.3510 C   0  0  0  0  0  0  0  0  0  0  0  0
   45.7430   33.2170   45.6960 N   0  0  0  0  0  0  0  0  0  0  0  0
   46.3860   32.1210   42.5420 H   0  0  0  0  0  0  0  0  0  0  0  0
   47.7860   30.6130   43.7770 H   0  0  0  0  0  0  0  0  0  0  0  0
   46.7280   32.2780   47.8340 C   0  0  0  0  0  0  0  0  0  0  0  0
   45.6910   32.8640   48.5140 F   0  0  0  0  0  0  0  0  0  0  0  0
   47.9180   32.9150   48.1930 F   0  0  0  0  0  0  0  0  0  0  0  0
   46.8880   30.9430   48.2000 F   0  0  0  0  0  0  0  0  0  0  0  0
   46.7100   34.9160   41.9990 C   0  0  0  0  0  0  0  0  0  0  0  0
   46.9960   34.4340   40.7370 C   0  0  0  0  0  0  0  0  0  0  0  0
   46.3540   34.0100   39.9490 H   0  0  0  0  0  0  0  0  0  0  0  0
   48.3620   34.5510   40.5260 C   0  0  0  0  0  0  0  0  0  0  0  0
   48.9850   34.2900   39.6760 H   0  0  0  0  0  0  0  0  0  0  0  0
   48.8350   35.1030   41.6820 C   0  0  0  0  0  0  0  0  0  0  0  0
   49.8740   35.3370   41.8720 H   0  0  0  0  0  0  0  0  0  0  0  0
   47.8560   35.2980   42.5000 O   0  0  0  0  0  0  0  0  0  0  0  0
  1  4  1  6  0  0  0
  1  2  1  0  0  0  0
  1  8  1  0  0  0  0
  2  6  1  0  0  0  0
  2  5  1  0  0  0  0
  3  7  1  6  0  0  0
  3  1  1  0  0  0  0
  3  2  1  0  0  0  0
  8 13  1  0  0  0  0
  9 10  1  0  0  0  0
  9  8  2  0  0  0  0
 10 11  2  0  0  0  0
 11 12  1  0  0  0  0
 12 16  1  0  0  0  0
 13 12  2  0  0  0  0
 14  9  1  0  0  0  0
 15 10  1  0  0  0  0
 16 18  1  0  0  0  0
 16 19  1  0  0  0  0
 16 17  1  0  0  0  0
 20  3  1  0  0  0  0
 20 27  1  0  0  0  0
 21 20  2  0  0  0  0
 22 21  1  0  0  0  0
 23 21  1  0  0  0  0
 23 25  2  0  0  0  0
 24 23  1  0  0  0  0
 25 26  1  0  0  0  0
 25 27  1  0  0  0  0
M  END
>  <minimizedAffinity>
-4.87450647

>  <minimizedRMSD>
1.23946548

$$$$
