
 OpenBabel03252509003D

 44 46  0  0  1  0  0  0  0  0999 V2000
   46.9170   34.2760   43.3120 N   0  0  0  0  0  0  0  0  0  0  0  0
   46.4890   35.5040   42.7480 C   0  0  0  0  0  0  0  0  0  0  0  0
   45.0180   35.8150   42.9300 C   0  0  0  0  0  0  0  0  0  0  0  0
   44.4210   35.2890   44.2070 C   0  0  0  0  0  0  0  0  0  0  0  0
   45.4710   34.6620   45.0920 C   0  0  0  0  0  0  0  0  0  0  0  0
   46.1060   33.5550   44.1710 C   0  0  2  0  0  0  0  0  0  0  0  0
   46.7300   35.6610   41.6910 H   0  0  0  0  0  0  0  0  0  0  0  0
   47.0490   36.3130   43.2940 H   0  0  0  0  0  0  0  0  0  0  0  0
   44.4390   35.5120   42.0320 H   0  0  0  0  0  0  0  0  0  0  0  0
   44.8970   36.9260   42.9720 H   0  0  0  0  0  0  0  0  0  0  0  0
   43.9220   36.0590   44.8140 H   0  0  0  0  0  0  0  0  0  0  0  0
   43.6790   34.5120   43.9680 H   0  0  0  0  0  0  0  0  0  0  0  0
   44.9810   34.1840   45.9480 H   0  0  0  0  0  0  0  0  0  0  0  0
   46.2860   35.3310   45.3640 H   0  0  0  0  0  0  0  0  0  0  0  0
   45.2780   32.9620   43.7340 H   0  0  0  0  0  0  0  0  0  0  0  0
   47.8870   33.5700   42.5200 C   0  0  0  0  0  0  0  0  0  0  0  0
   48.5680   34.3270   42.0670 H   0  0  0  0  0  0  0  0  0  0  0  0
   48.4950   32.8850   43.1460 H   0  0  0  0  0  0  0  0  0  0  0  0
   47.1590   32.7530   41.4970 C   0  0  0  0  0  0  0  0  0  0  0  0
   46.0940   33.0950   41.3920 H   0  0  0  0  0  0  0  0  0  0  0  0
   47.1170   31.6770   41.7390 H   0  0  0  0  0  0  0  0  0  0  0  0
   49.2960   32.1640   38.4660 C   0  0  0  0  0  0  0  0  0  0  0  0
   48.6830   31.9900   39.7210 C   0  0  0  0  0  0  0  0  0  0  0  0
   47.8010   32.9460   40.1710 C   0  0  0  0  0  0  0  0  0  0  0  0
   47.5730   34.0010   39.3830 N   0  0  0  0  0  0  0  0  0  0  0  0
   48.1630   34.1600   38.1850 C   0  0  0  0  0  0  0  0  0  0  0  0
   49.0330   33.2380   37.7160 N   0  0  0  0  0  0  0  0  0  0  0  0
   49.9860   31.4710   38.0530 H   0  0  0  0  0  0  0  0  0  0  0  0
   48.9570   31.0920   40.2560 H   0  0  0  0  0  0  0  0  0  0  0  0
   47.9540   35.0340   37.5670 H   0  0  0  0  0  0  0  0  0  0  0  0
   46.8460   32.8240   45.0870 O   0  0  0  0  0  0  0  0  0  0  0  0
   45.3150   30.8520   44.1700 O   0  0  0  0  0  0  0  0  0  0  0  0
   46.2530   31.2660   45.3100 P   0  0  2  0  0  0  0  0  0  0  0  0
   45.2390   31.3430   46.6900 O   0  0  0  0  0  0  0  0  0  0  0  0
   45.6680   31.9280   47.3740 H   0  0  0  0  0  0  0  0  0  0  0  0
   47.4350   30.1510   45.6090 O   0  0  0  0  0  0  0  0  0  0  0  0
   48.5830   29.8670   44.9210 C   0  0  0  0  0  0  0  0  0  0  0  0
   48.6800   30.1210   43.5490 C   0  0  0  0  0  0  0  0  0  0  0  0
   47.9340   30.5410   42.8850 H   0  0  0  0  0  0  0  0  0  0  0  0
   49.9690   29.7120   43.2040 C   0  0  0  0  0  0  0  0  0  0  0  0
   50.3170   29.8030   42.1640 H   0  0  0  0  0  0  0  0  0  0  0  0
   50.5720   29.2390   44.3710 C   0  0  0  0  0  0  0  0  0  0  0  0
   51.5880   28.8810   44.2650 H   0  0  0  0  0  0  0  0  0  0  0  0
   49.7150   29.3520   45.3530 O   0  0  0  0  0  0  0  0  0  0  0  0
  1  6  1  0  0  0  0
  2  3  1  0  0  0  0
  2  8  1  0  0  0  0
  2  1  1  0  0  0  0
  3 10  1  0  0  0  0
  3  4  1  0  0  0  0
  4 11  1  0  0  0  0
  4  5  1  0  0  0  0
  5 14  1  0  0  0  0
  5 13  1  0  0  0  0
  6 15  1  6  0  0  0
  6 31  1  0  0  0  0
  6  5  1  0  0  0  0
  7  2  1  0  0  0  0
  9  3  1  0  0  0  0
 12  4  1  0  0  0  0
 16 18  1  0  0  0  0
 16  1  1  0  0  0  0
 17 16  1  0  0  0  0
 19 21  1  0  0  0  0
 19 16  1  0  0  0  0
 20 19  1  0  0  0  0
 22 23  1  0  0  0  0
 23 24  2  0  0  0  0
 23 29  1  0  0  0  0
 24 19  1  0  0  0  0
 25 24  1  0  0  0  0
 26 25  2  0  0  0  0
 27 26  1  0  0  0  0
 27 22  2  0  0  0  0
 28 22  1  0  0  0  0
 30 26  1  0  0  0  0
 31 33  1  0  0  0  0
 33 32  2  6  0  0  0
 33 36  1  0  0  0  0
 33 34  1  0  0  0  0
 34 35  1  0  0  0  0
 37 44  1  0  0  0  0
 37 36  1  0  0  0  0
 38 37  2  0  0  0  0
 39 38  1  0  0  0  0
 40 38  1  0  0  0  0
 40 42  2  0  0  0  0
 41 40  1  0  0  0  0
 42 44  1  0  0  0  0
 43 42  1  0  0  0  0
M  END
>  <minimizedAffinity>
-3.93435121

>  <minimizedRMSD>
1.41006041

$$$$
