
 OpenBabel03252509003D

 44 46  0  0  1  0  0  0  0  0999 V2000
   47.3940   33.8750   42.8980 N   0  0  0  0  0  0  0  0  0  0  0  0
   46.9470   35.1550   42.4860 C   0  0  0  0  0  0  0  0  0  0  0  0
   45.4960   35.4590   42.7990 C   0  0  0  0  0  0  0  0  0  0  0  0
   44.9810   34.8170   44.0590 C   0  0  0  0  0  0  0  0  0  0  0  0
   46.0810   34.0990   44.8030 C   0  0  0  0  0  0  0  0  0  0  0  0
   46.6340   33.0820   43.7380 C   0  0  2  0  0  0  0  0  0  0  0  0
   47.1160   35.4120   41.4340 H   0  0  0  0  0  0  0  0  0  0  0  0
   47.5550   35.9030   43.0660 H   0  0  0  0  0  0  0  0  0  0  0  0
   44.8530   35.2490   41.9190 H   0  0  0  0  0  0  0  0  0  0  0  0
   45.3940   36.5620   42.9560 H   0  0  0  0  0  0  0  0  0  0  0  0
   44.5370   35.5290   44.7700 H   0  0  0  0  0  0  0  0  0  0  0  0
   44.2130   34.0720   43.7980 H   0  0  0  0  0  0  0  0  0  0  0  0
   45.6430   33.5440   45.6420 H   0  0  0  0  0  0  0  0  0  0  0  0
   46.9220   34.7320   45.0810 H   0  0  0  0  0  0  0  0  0  0  0  0
   45.7680   32.5400   43.3060 H   0  0  0  0  0  0  0  0  0  0  0  0
   48.2970   33.2410   41.9760 C   0  0  0  0  0  0  0  0  0  0  0  0
   48.9810   34.0260   41.5810 H   0  0  0  0  0  0  0  0  0  0  0  0
   48.9090   32.4670   42.4820 H   0  0  0  0  0  0  0  0  0  0  0  0
   47.4890   32.5770   40.9030 C   0  0  0  0  0  0  0  0  0  0  0  0
   46.4260   32.9400   40.9170 H   0  0  0  0  0  0  0  0  0  0  0  0
   47.4430   31.4790   41.0010 H   0  0  0  0  0  0  0  0  0  0  0  0
   49.3770   32.3650   37.6640 C   0  0  0  0  0  0  0  0  0  0  0  0
   48.8430   32.0290   38.9230 C   0  0  0  0  0  0  0  0  0  0  0  0
   48.0470   32.9420   39.5760 C   0  0  0  0  0  0  0  0  0  0  0  0
   47.8210   34.1130   38.9720 N   0  0  0  0  0  0  0  0  0  0  0  0
   48.3340   34.4270   37.7690 C   0  0  0  0  0  0  0  0  0  0  0  0
   49.1200   33.5510   37.1030 N   0  0  0  0  0  0  0  0  0  0  0  0
   49.9980   31.7150   37.1010 H   0  0  0  0  0  0  0  0  0  0  0  0
   49.1060   31.0500   39.2960 H   0  0  0  0  0  0  0  0  0  0  0  0
   48.1280   35.3920   37.3060 H   0  0  0  0  0  0  0  0  0  0  0  0
   47.4240   32.2600   44.5260 O   0  0  0  0  0  0  0  0  0  0  0  0
   46.9130   29.9610   43.2900 O   0  0  0  0  0  0  0  0  0  0  0  0
   46.8280   30.6900   44.6370 P   0  0  2  0  0  0  0  0  0  0  0  0
   45.1460   30.8470   44.9310 O   0  0  0  0  0  0  0  0  0  0  0  0
   44.9990   31.5940   45.5750 H   0  0  0  0  0  0  0  0  0  0  0  0
   47.4840   29.8250   45.8810 O   0  0  0  0  0  0  0  0  0  0  0  0
   47.9480   30.2340   47.1010 C   0  0  0  0  0  0  0  0  0  0  0  0
   47.2960   31.2470   47.8130 C   0  0  0  0  0  0  0  0  0  0  0  0
   46.4110   31.8080   47.5350 H   0  0  0  0  0  0  0  0  0  0  0  0
   48.0400   31.3900   48.9850 C   0  0  0  0  0  0  0  0  0  0  0  0
   47.7430   32.1330   49.7400 H   0  0  0  0  0  0  0  0  0  0  0  0
   49.0860   30.4670   48.9180 C   0  0  0  0  0  0  0  0  0  0  0  0
   49.7590   30.4560   49.7650 H   0  0  0  0  0  0  0  0  0  0  0  0
   48.9870   29.8120   47.7900 O   0  0  0  0  0  0  0  0  0  0  0  0
  1  6  1  0  0  0  0
  2  3  1  0  0  0  0
  2  1  1  0  0  0  0
  2  8  1  0  0  0  0
  3 10  1  0  0  0  0
  3  4  1  0  0  0  0
  4 11  1  0  0  0  0
  4  5  1  0  0  0  0
  5 14  1  0  0  0  0
  5 13  1  0  0  0  0
  6 15  1  6  0  0  0
  6 31  1  0  0  0  0
  6  5  1  0  0  0  0
  7  2  1  0  0  0  0
  9  3  1  0  0  0  0
 12  4  1  0  0  0  0
 16 18  1  0  0  0  0
 16  1  1  0  0  0  0
 17 16  1  0  0  0  0
 19 20  1  0  0  0  0
 19 21  1  0  0  0  0
 19 16  1  0  0  0  0
 22 23  1  0  0  0  0
 23 29  1  0  0  0  0
 23 24  2  0  0  0  0
 24 19  1  0  0  0  0
 25 24  1  0  0  0  0
 26 25  2  0  0  0  0
 27 22  2  0  0  0  0
 27 26  1  0  0  0  0
 28 22  1  0  0  0  0
 30 26  1  0  0  0  0
 31 33  1  0  0  0  0
 33 32  2  6  0  0  0
 33 34  1  0  0  0  0
 33 36  1  0  0  0  0
 34 35  1  0  0  0  0
 36 37  1  0  0  0  0
 37 44  1  0  0  0  0
 37 38  2  0  0  0  0
 38 40  1  0  0  0  0
 39 38  1  0  0  0  0
 40 41  1  0  0  0  0
 42 40  2  0  0  0  0
 42 43  1  0  0  0  0
 44 42  1  0  0  0  0
M  END
>  <minimizedAffinity>
-4.38887548

>  <minimizedRMSD>
1.13527548

$$$$
