
 OpenBabel03242518183D

 22 23  0  0  0  0  0  0  0  0999 V2000
   39.1190   32.2130   39.1100 C   0  0  0  0  0  0  0  0  0  0  0  0
   38.8590   31.8700   37.7750 C   0  0  0  0  0  0  0  0  0  0  0  0
   37.6850   31.1800   37.5140 C   0  0  0  0  0  0  0  0  0  0  0  0
   36.8600   30.8780   38.5430 N   0  0  0  0  0  0  0  0  0  0  0  0
   37.1490   31.2280   39.8230 C   0  0  0  0  0  0  0  0  0  0  0  0
   38.2950   31.9050   40.1080 N   0  0  0  0  0  0  0  0  0  0  0  0
   40.0120   32.7500   39.3900 H   0  0  0  0  0  0  0  0  0  0  0  0
   37.5090   30.9320   36.4930 H   0  0  0  0  0  0  0  0  0  0  0  0
   39.8350   32.2700   36.8360 N   0  0  0  0  0  0  0  0  0  0  0  0
   40.0380   31.5930   36.0890 H   0  0  0  0  0  0  0  0  0  0  0  0
   40.2940   33.2000   36.9280 H   0  0  0  0  0  0  0  0  0  0  0  0
   36.2380   30.8910   40.9480 C   0  0  0  0  0  0  0  0  0  0  0  0
   36.1810   31.7870   41.5990 H   0  0  0  0  0  0  0  0  0  0  0  0
   35.2410   30.6970   40.5110 H   0  0  0  0  0  0  0  0  0  0  0  0
   36.7470   29.6900   41.6960 C   0  0  0  0  0  0  0  0  0  0  0  0
   36.2870   28.4030   41.4930 C   0  0  0  0  0  0  0  0  0  0  0  0
   35.5460   28.0260   40.8290 H   0  0  0  0  0  0  0  0  0  0  0  0
   36.9840   27.5680   42.3550 C   0  0  0  0  0  0  0  0  0  0  0  0
   36.9700   26.5000   42.5550 H   0  0  0  0  0  0  0  0  0  0  0  0
   37.8470   28.4150   43.0470 C   0  0  0  0  0  0  0  0  0  0  0  0
   38.5940   28.2210   43.8310 H   0  0  0  0  0  0  0  0  0  0  0  0
   37.6620   29.6240   42.6200 O   0  0  0  0  0  0  0  0  0  0  0  0
  1  7  1  0  0  0  0
  1  6  1  0  0  0  0
  2  1  2  0  0  0  0
  3  2  1  0  0  0  0
  3  4  2  0  0  0  0
  4  5  1  0  0  0  0
  5  6  2  0  0  0  0
  5 12  1  0  0  0  0
  8  3  1  0  0  0  0
  9 11  1  0  0  0  0
  9  2  1  0  0  0  0
 10  9  1  0  0  0  0
 12 13  1  0  0  0  0
 12 15  1  0  0  0  0
 14 12  1  0  0  0  0
 15 22  1  0  0  0  0
 16 15  2  0  0  0  0
 16 18  1  0  0  0  0
 17 16  1  0  0  0  0
 18 19  1  0  0  0  0
 18 20  2  0  0  0  0
 20 21  1  0  0  0  0
 22 20  1  0  0  0  0
M  END
>  <minimizedAffinity>
-4.43010998

$$$$

 OpenBabel03242518183D

 22 23  0  0  0  0  0  0  0  0999 V2000
   37.3910   30.3510   37.3600 C   0  0  0  0  0  0  0  0  0  0  0  0
   37.7780   31.6920   37.4870 C   0  0  0  0  0  0  0  0  0  0  0  0
   37.4190   32.3480   38.6540 C   0  0  0  0  0  0  0  0  0  0  0  0
   36.7270   31.6730   39.5990 N   0  0  0  0  0  0  0  0  0  0  0  0
   36.3710   30.3720   39.4370 C   0  0  0  0  0  0  0  0  0  0  0  0
   36.7100   29.7040   38.3010 N   0  0  0  0  0  0  0  0  0  0  0  0
   37.6350   29.7750   36.4800 H   0  0  0  0  0  0  0  0  0  0  0  0
   37.7240   33.3670   38.7280 H   0  0  0  0  0  0  0  0  0  0  0  0
   38.4970   32.2320   36.3970 N   0  0  0  0  0  0  0  0  0  0  0  0
   38.2620   33.2000   36.1430 H   0  0  0  0  0  0  0  0  0  0  0  0
   39.2130   31.6530   35.9100 H   0  0  0  0  0  0  0  0  0  0  0  0
   35.6090   29.6360   40.4800 C   0  0  0  0  0  0  0  0  0  0  0  0
   34.8670   30.3440   40.9000 H   0  0  0  0  0  0  0  0  0  0  0  0
   35.0750   28.8120   39.9700 H   0  0  0  0  0  0  0  0  0  0  0  0
   36.5390   29.1080   41.5370 C   0  0  0  0  0  0  0  0  0  0  0  0
   36.6880   27.7660   41.8320 C   0  0  0  0  0  0  0  0  0  0  0  0
   36.2220   26.9060   41.4150 H   0  0  0  0  0  0  0  0  0  0  0  0
   37.6240   27.6640   42.8530 C   0  0  0  0  0  0  0  0  0  0  0  0
   38.0580   26.8350   43.4050 H   0  0  0  0  0  0  0  0  0  0  0  0
   37.9960   28.9790   43.1240 C   0  0  0  0  0  0  0  0  0  0  0  0
   38.7060   29.4060   43.8480 H   0  0  0  0  0  0  0  0  0  0  0  0
   37.3360   29.7620   42.3320 O   0  0  0  0  0  0  0  0  0  0  0  0
  1  2  2  0  0  0  0
  1  6  1  0  0  0  0
  2  3  1  0  0  0  0
  3  8  1  0  0  0  0
  3  4  2  0  0  0  0
  5  4  1  0  0  0  0
  5 12  1  0  0  0  0
  6  5  2  0  0  0  0
  7  1  1  0  0  0  0
  9  2  1  0  0  0  0
 10  9  1  0  0  0  0
 11  9  1  0  0  0  0
 12 13  1  0  0  0  0
 12 15  1  0  0  0  0
 14 12  1  0  0  0  0
 15 16  2  0  0  0  0
 15 22  1  0  0  0  0
 16 18  1  0  0  0  0
 17 16  1  0  0  0  0
 18 20  2  0  0  0  0
 18 19  1  0  0  0  0
 20 21  1  0  0  0  0
 22 20  1  0  0  0  0
M  END
>  <minimizedAffinity>
-4.38799

$$$$

 OpenBabel03242518183D

 22 23  0  0  0  0  0  0  0  0999 V2000
   38.4950   31.4990   41.0640 C   0  0  0  0  0  0  0  0  0  0  0  0
   37.1660   31.7410   40.6890 C   0  0  0  0  0  0  0  0  0  0  0  0
   36.2290   30.7730   41.0150 C   0  0  0  0  0  0  0  0  0  0  0  0
   36.6350   29.6620   41.6690 N   0  0  0  0  0  0  0  0  0  0  0  0
   37.9340   29.4640   42.0140 C   0  0  0  0  0  0  0  0  0  0  0  0
   38.8750   30.3980   41.7070 N   0  0  0  0  0  0  0  0  0  0  0  0
   39.2800   32.2070   40.8450 H   0  0  0  0  0  0  0  0  0  0  0  0
   35.2260   30.9790   40.7200 H   0  0  0  0  0  0  0  0  0  0  0  0
   36.9290   32.9580   40.0130 N   0  0  0  0  0  0  0  0  0  0  0  0
   36.2550   32.9130   39.2380 H   0  0  0  0  0  0  0  0  0  0  0  0
   37.4240   33.8240   40.3120 H   0  0  0  0  0  0  0  0  0  0  0  0
   38.3730   28.2400   42.7330 C   0  0  0  0  0  0  0  0  0  0  0  0
   39.4700   28.3230   42.8740 H   0  0  0  0  0  0  0  0  0  0  0  0
   37.8790   28.2490   43.7220 H   0  0  0  0  0  0  0  0  0  0  0  0
   38.0020   27.0090   41.9510 C   0  0  0  0  0  0  0  0  0  0  0  0
   37.1660   26.0170   42.4260 C   0  0  0  0  0  0  0  0  0  0  0  0
   36.6570   25.9230   43.3550 H   0  0  0  0  0  0  0  0  0  0  0  0
   37.0580   25.0510   41.4350 C   0  0  0  0  0  0  0  0  0  0  0  0
   36.5240   24.1090   41.3490 H   0  0  0  0  0  0  0  0  0  0  0  0
   37.8520   25.5240   40.3930 C   0  0  0  0  0  0  0  0  0  0  0  0
   38.0810   25.1100   39.3990 H   0  0  0  0  0  0  0  0  0  0  0  0
   38.3680   26.6570   40.7530 O   0  0  0  0  0  0  0  0  0  0  0  0
  1  6  1  0  0  0  0
  2  3  1  0  0  0  0
  2  1  2  0  0  0  0
  3  4  2  0  0  0  0
  4  5  1  0  0  0  0
  5 12  1  0  0  0  0
  6  5  2  0  0  0  0
  7  1  1  0  0  0  0
  8  3  1  0  0  0  0
  9 11  1  0  0  0  0
  9  2  1  0  0  0  0
 10  9  1  0  0  0  0
 12 13  1  0  0  0  0
 12 14  1  0  0  0  0
 15 16  2  0  0  0  0
 15 12  1  0  0  0  0
 16 17  1  0  0  0  0
 18 16  1  0  0  0  0
 19 18  1  0  0  0  0
 20 22  1  0  0  0  0
 20 18  2  0  0  0  0
 21 20  1  0  0  0  0
 22 15  1  0  0  0  0
M  END
>  <minimizedAffinity>
-4.16910505

$$$$

 OpenBabel03242518183D

 22 23  0  0  0  0  0  0  0  0999 V2000
   40.1870   30.8020   38.7510 C   0  0  0  0  0  0  0  0  0  0  0  0
   39.4720   31.9210   38.2990 C   0  0  0  0  0  0  0  0  0  0  0  0
   38.6450   32.5560   39.2130 C   0  0  0  0  0  0  0  0  0  0  0  0
   38.5700   32.0740   40.4740 N   0  0  0  0  0  0  0  0  0  0  0  0
   39.2790   30.9860   40.8720 C   0  0  0  0  0  0  0  0  0  0  0  0
   40.0990   30.3440   39.9960 N   0  0  0  0  0  0  0  0  0  0  0  0
   40.8510   30.2570   38.0980 H   0  0  0  0  0  0  0  0  0  0  0  0
   38.1120   33.4030   38.8470 H   0  0  0  0  0  0  0  0  0  0  0  0
   39.6780   32.2790   36.9490 N   0  0  0  0  0  0  0  0  0  0  0  0
   38.8410   32.5890   36.4380 H   0  0  0  0  0  0  0  0  0  0  0  0
   40.6310   32.2190   36.5350 H   0  0  0  0  0  0  0  0  0  0  0  0
   39.1900   30.4620   42.2600 C   0  0  0  0  0  0  0  0  0  0  0  0
   40.1900   30.0600   42.5190 H   0  0  0  0  0  0  0  0  0  0  0  0
   38.9640   31.3230   42.9180 H   0  0  0  0  0  0  0  0  0  0  0  0
   38.1220   29.4080   42.3580 C   0  0  0  0  0  0  0  0  0  0  0  0
   37.9010   28.6350   43.4820 C   0  0  0  0  0  0  0  0  0  0  0  0
   38.3930   28.6230   44.4250 H   0  0  0  0  0  0  0  0  0  0  0  0
   36.8440   27.7810   43.2010 C   0  0  0  0  0  0  0  0  0  0  0  0
   36.3220   27.0090   43.7610 H   0  0  0  0  0  0  0  0  0  0  0  0
   36.4750   28.0930   41.8940 C   0  0  0  0  0  0  0  0  0  0  0  0
   35.6910   27.6870   41.2370 H   0  0  0  0  0  0  0  0  0  0  0  0
   37.2500   29.0380   41.4650 O   0  0  0  0  0  0  0  0  0  0  0  0
  1  6  1  0  0  0  0
  2  1  2  0  0  0  0
  2  3  1  0  0  0  0
  3  4  2  0  0  0  0
  4  5  1  0  0  0  0
  5 12  1  0  0  0  0
  6  5  2  0  0  0  0
  7  1  1  0  0  0  0
  8  3  1  0  0  0  0
  9  2  1  0  0  0  0
 10  9  1  0  0  0  0
 11  9  1  0  0  0  0
 12 15  1  0  0  0  0
 12 13  1  0  0  0  0
 12 14  1  0  0  0  0
 15 16  2  0  0  0  0
 16 17  1  0  0  0  0
 18 16  1  0  0  0  0
 18 19  1  0  0  0  0
 20 18  2  0  0  0  0
 21 20  1  0  0  0  0
 22 20  1  0  0  0  0
 22 15  1  0  0  0  0
M  END
>  <minimizedAffinity>
-4.1315012

$$$$

 OpenBabel03242518183D

 22 23  0  0  0  0  0  0  0  0999 V2000
   36.1200   28.5920   41.4290 C   0  0  0  0  0  0  0  0  0  0  0  0
   36.6500   29.8820   41.5750 C   0  0  0  0  0  0  0  0  0  0  0  0
   37.9350   29.9860   42.0840 C   0  0  0  0  0  0  0  0  0  0  0  0
   38.6050   28.8560   42.4080 N   0  0  0  0  0  0  0  0  0  0  0  0
   38.0550   27.6240   42.2510 C   0  0  0  0  0  0  0  0  0  0  0  0
   36.7940   27.4940   41.7540 N   0  0  0  0  0  0  0  0  0  0  0  0
   35.1260   28.4330   41.0400 H   0  0  0  0  0  0  0  0  0  0  0  0
   38.3170   30.9760   42.1860 H   0  0  0  0  0  0  0  0  0  0  0  0
   35.8040   30.9440   41.1840 N   0  0  0  0  0  0  0  0  0  0  0  0
   35.8280   31.7780   41.7850 H   0  0  0  0  0  0  0  0  0  0  0  0
   35.2110   30.8490   40.3330 H   0  0  0  0  0  0  0  0  0  0  0  0
   38.7960   26.3870   42.6100 C   0  0  0  0  0  0  0  0  0  0  0  0
   39.8760   26.6370   42.5840 H   0  0  0  0  0  0  0  0  0  0  0  0
   38.5100   26.1270   43.6470 H   0  0  0  0  0  0  0  0  0  0  0  0
   38.4560   25.2740   41.6580 C   0  0  0  0  0  0  0  0  0  0  0  0
   37.7210   24.1580   42.0070 C   0  0  0  0  0  0  0  0  0  0  0  0
   37.2830   23.8760   42.9340 H   0  0  0  0  0  0  0  0  0  0  0  0
   37.6110   23.3590   40.8760 C   0  0  0  0  0  0  0  0  0  0  0  0
   37.1370   22.4050   40.6650 H   0  0  0  0  0  0  0  0  0  0  0  0
   38.3010   24.0530   39.8850 C   0  0  0  0  0  0  0  0  0  0  0  0
   38.4910   23.8230   38.8260 H   0  0  0  0  0  0  0  0  0  0  0  0
   38.7640   25.1490   40.3990 O   0  0  0  0  0  0  0  0  0  0  0  0
  1  2  2  0  0  0  0
  1  6  1  0  0  0  0
  2  3  1  0  0  0  0
  3  8  1  0  0  0  0
  3  4  2  0  0  0  0
  5  4  1  0  0  0  0
  5 12  1  0  0  0  0
  6  5  2  0  0  0  0
  7  1  1  0  0  0  0
  9  2  1  0  0  0  0
  9 10  1  0  0  0  0
 11  9  1  0  0  0  0
 12 14  1  0  0  0  0
 13 12  1  0  0  0  0
 15 16  2  0  0  0  0
 15 12  1  0  0  0  0
 16 17  1  0  0  0  0
 18 16  1  0  0  0  0
 19 18  1  0  0  0  0
 20 22  1  0  0  0  0
 20 18  2  0  0  0  0
 21 20  1  0  0  0  0
 22 15  1  0  0  0  0
M  END
>  <minimizedAffinity>
-4.11214447

$$$$

 OpenBabel03242518183D

 22 23  0  0  0  0  0  0  0  0999 V2000
   39.3030   25.3500   42.7730 C   0  0  0  0  0  0  0  0  0  0  0  0
   38.2880   24.5930   42.1710 C   0  0  0  0  0  0  0  0  0  0  0  0
   37.0330   25.1740   42.0790 C   0  0  0  0  0  0  0  0  0  0  0  0
   36.8520   26.4230   42.5650 N   0  0  0  0  0  0  0  0  0  0  0  0
   37.8630   27.1230   43.1420 C   0  0  0  0  0  0  0  0  0  0  0  0
   39.1050   26.5770   43.2460 N   0  0  0  0  0  0  0  0  0  0  0  0
   40.3060   24.9640   42.8800 H   0  0  0  0  0  0  0  0  0  0  0  0
   36.2780   24.5800   41.6170 H   0  0  0  0  0  0  0  0  0  0  0  0
   38.6630   23.3070   41.7210 N   0  0  0  0  0  0  0  0  0  0  0  0
   37.9700   22.5630   41.8720 H   0  0  0  0  0  0  0  0  0  0  0  0
   39.5900   23.1650   41.2690 H   0  0  0  0  0  0  0  0  0  0  0  0
   37.6560   28.4950   43.6760 C   0  0  0  0  0  0  0  0  0  0  0  0
   36.5940   28.5670   43.9850 H   0  0  0  0  0  0  0  0  0  0  0  0
   38.3010   28.5960   44.5690 H   0  0  0  0  0  0  0  0  0  0  0  0
   38.0060   29.5230   42.6350 C   0  0  0  0  0  0  0  0  0  0  0  0
   39.2440   30.1280   42.5330 C   0  0  0  0  0  0  0  0  0  0  0  0
   40.1260   30.0070   43.1140 H   0  0  0  0  0  0  0  0  0  0  0  0
   39.1910   31.0110   41.4640 C   0  0  0  0  0  0  0  0  0  0  0  0
   39.9020   31.6950   41.0080 H   0  0  0  0  0  0  0  0  0  0  0  0
   37.8960   30.8870   40.9660 C   0  0  0  0  0  0  0  0  0  0  0  0
   37.3820   31.3810   40.1280 H   0  0  0  0  0  0  0  0  0  0  0  0
   37.2640   30.0140   41.6840 O   0  0  0  0  0  0  0  0  0  0  0  0
  1  7  1  0  0  0  0
  1  6  1  0  0  0  0
  2  1  2  0  0  0  0
  3  2  1  0  0  0  0
  3  4  2  0  0  0  0
  4  5  1  0  0  0  0
  5  6  2  0  0  0  0
  5 12  1  0  0  0  0
  8  3  1  0  0  0  0
  9 10  1  0  0  0  0
  9  2  1  0  0  0  0
 11  9  1  0  0  0  0
 12 13  1  0  0  0  0
 12 14  1  0  0  0  0
 15 12  1  0  0  0  0
 16 15  2  0  0  0  0
 16 17  1  0  0  0  0
 18 16  1  0  0  0  0
 19 18  1  0  0  0  0
 20 18  2  0  0  0  0
 20 22  1  0  0  0  0
 21 20  1  0  0  0  0
 22 15  1  0  0  0  0
M  END
>  <minimizedAffinity>
-3.93201447

$$$$

 OpenBabel03242518183D

 22 23  0  0  0  0  0  0  0  0999 V2000
   37.0610   29.2320   42.3970 C   0  0  0  0  0  0  0  0  0  0  0  0
   37.0790   30.3660   41.5720 C   0  0  0  0  0  0  0  0  0  0  0  0
   38.3180   30.8350   41.1650 C   0  0  0  0  0  0  0  0  0  0  0  0
   39.4310   30.1860   41.5750 N   0  0  0  0  0  0  0  0  0  0  0  0
   39.3720   29.0910   42.3750 C   0  0  0  0  0  0  0  0  0  0  0  0
   38.1680   28.6080   42.7900 N   0  0  0  0  0  0  0  0  0  0  0  0
   36.1350   28.8090   42.7530 H   0  0  0  0  0  0  0  0  0  0  0  0
   38.3060   31.6970   40.5390 H   0  0  0  0  0  0  0  0  0  0  0  0
   35.8170   30.9090   41.2450 N   0  0  0  0  0  0  0  0  0  0  0  0
   35.7640   31.9360   41.2300 H   0  0  0  0  0  0  0  0  0  0  0  0
   35.0160   30.2760   41.0380 H   0  0  0  0  0  0  0  0  0  0  0  0
   40.6000   28.3830   42.8230 C   0  0  0  0  0  0  0  0  0  0  0  0
   41.4450   28.8010   42.2410 H   0  0  0  0  0  0  0  0  0  0  0  0
   40.7420   28.6270   43.8930 H   0  0  0  0  0  0  0  0  0  0  0  0
   40.4580   26.9000   42.6180 C   0  0  0  0  0  0  0  0  0  0  0  0
   40.4190   25.9790   43.6480 C   0  0  0  0  0  0  0  0  0  0  0  0
   40.4760   26.1120   44.7010 H   0  0  0  0  0  0  0  0  0  0  0  0
   40.2810   24.7210   43.0780 C   0  0  0  0  0  0  0  0  0  0  0  0
   40.2080   23.7120   43.4750 H   0  0  0  0  0  0  0  0  0  0  0  0
   40.2430   24.9570   41.7060 C   0  0  0  0  0  0  0  0  0  0  0  0
   40.1450   24.2750   40.8470 H   0  0  0  0  0  0  0  0  0  0  0  0
   40.3490   26.2320   41.5060 O   0  0  0  0  0  0  0  0  0  0  0  0
  1  7  1  0  0  0  0
  1  6  1  0  0  0  0
  2  1  2  0  0  0  0
  3  2  1  0  0  0  0
  3  4  2  0  0  0  0
  4  5  1  0  0  0  0
  5  6  2  0  0  0  0
  5 12  1  0  0  0  0
  8  3  1  0  0  0  0
  9  2  1  0  0  0  0
 10  9  1  0  0  0  0
 11  9  1  0  0  0  0
 12 14  1  0  0  0  0
 13 12  1  0  0  0  0
 15 12  1  0  0  0  0
 15 16  2  0  0  0  0
 16 17  1  0  0  0  0
 18 19  1  0  0  0  0
 18 16  1  0  0  0  0
 20 18  2  0  0  0  0
 21 20  1  0  0  0  0
 22 20  1  0  0  0  0
 22 15  1  0  0  0  0
M  END
>  <minimizedAffinity>
-3.89899206

$$$$

 OpenBabel03242518183D

 22 23  0  0  0  0  0  0  0  0999 V2000
   39.3200   31.8310   41.1740 C   0  0  0  0  0  0  0  0  0  0  0  0
   38.4370   32.8570   40.8070 C   0  0  0  0  0  0  0  0  0  0  0  0
   37.2990   32.4920   40.1040 C   0  0  0  0  0  0  0  0  0  0  0  0
   37.0990   31.1870   39.8130 N   0  0  0  0  0  0  0  0  0  0  0  0
   37.9800   30.2230   40.1860 C   0  0  0  0  0  0  0  0  0  0  0  0
   39.1060   30.5530   40.8770 N   0  0  0  0  0  0  0  0  0  0  0  0
   40.2270   32.0380   41.7220 H   0  0  0  0  0  0  0  0  0  0  0  0
   36.6430   33.2880   39.8370 H   0  0  0  0  0  0  0  0  0  0  0  0
   38.8110   34.1610   41.1990 N   0  0  0  0  0  0  0  0  0  0  0  0
   38.6260   34.9030   40.5110 H   0  0  0  0  0  0  0  0  0  0  0  0
   39.2420   34.3190   42.1340 H   0  0  0  0  0  0  0  0  0  0  0  0
   37.7540   28.7900   39.8620 C   0  0  0  0  0  0  0  0  0  0  0  0
   36.9620   28.7540   39.0870 H   0  0  0  0  0  0  0  0  0  0  0  0
   38.6980   28.4020   39.4330 H   0  0  0  0  0  0  0  0  0  0  0  0
   37.3630   28.0260   41.0960 C   0  0  0  0  0  0  0  0  0  0  0  0
   37.5840   26.6730   41.2680 C   0  0  0  0  0  0  0  0  0  0  0  0
   38.0340   25.9550   40.6250 H   0  0  0  0  0  0  0  0  0  0  0  0
   37.0940   26.3240   42.5190 C   0  0  0  0  0  0  0  0  0  0  0  0
   37.0430   25.3970   43.0830 H   0  0  0  0  0  0  0  0  0  0  0  0
   36.5940   27.5130   43.0460 C   0  0  0  0  0  0  0  0  0  0  0  0
   36.1080   27.7420   44.0070 H   0  0  0  0  0  0  0  0  0  0  0  0
   36.7800   28.4560   42.1780 O   0  0  0  0  0  0  0  0  0  0  0  0
  1  7  1  0  0  0  0
  2  1  2  0  0  0  0
  2  9  1  0  0  0  0
  3  2  1  0  0  0  0
  4  3  2  0  0  0  0
  4  5  1  0  0  0  0
  5  6  2  0  0  0  0
  6  1  1  0  0  0  0
  8  3  1  0  0  0  0
  9 11  1  0  0  0  0
 10  9  1  0  0  0  0
 12  5  1  0  0  0  0
 12 15  1  0  0  0  0
 13 12  1  0  0  0  0
 14 12  1  0  0  0  0
 15 16  2  0  0  0  0
 15 22  1  0  0  0  0
 16 18  1  0  0  0  0
 17 16  1  0  0  0  0
 18 20  2  0  0  0  0
 18 19  1  0  0  0  0
 20 21  1  0  0  0  0
 22 20  1  0  0  0  0
M  END
>  <minimizedAffinity>
-3.8958261

$$$$

 OpenBabel03242518183D

 22 23  0  0  0  0  0  0  0  0999 V2000
   35.8410   29.7380   40.7490 C   0  0  0  0  0  0  0  0  0  0  0  0
   36.8230   30.7190   40.9520 C   0  0  0  0  0  0  0  0  0  0  0  0
   37.8810   30.3940   41.7860 C   0  0  0  0  0  0  0  0  0  0  0  0
   37.9160   29.1660   42.3520 N   0  0  0  0  0  0  0  0  0  0  0  0
   36.9440   28.2440   42.1300 C   0  0  0  0  0  0  0  0  0  0  0  0
   35.8930   28.5360   41.3160 N   0  0  0  0  0  0  0  0  0  0  0  0
   34.9880   29.9180   40.1120 H   0  0  0  0  0  0  0  0  0  0  0  0
   38.6140   31.1540   41.9250 H   0  0  0  0  0  0  0  0  0  0  0  0
   36.6190   31.9430   40.2770 N   0  0  0  0  0  0  0  0  0  0  0  0
   36.8610   32.7900   40.8070 H   0  0  0  0  0  0  0  0  0  0  0  0
   36.2480   31.9430   39.3040 H   0  0  0  0  0  0  0  0  0  0  0  0
   36.9880   26.8970   42.7570 C   0  0  0  0  0  0  0  0  0  0  0  0
   36.8990   27.0450   43.8520 H   0  0  0  0  0  0  0  0  0  0  0  0
   36.1030   26.3410   42.3930 H   0  0  0  0  0  0  0  0  0  0  0  0
   38.2630   26.1870   42.3920 C   0  0  0  0  0  0  0  0  0  0  0  0
   39.3200   26.0030   43.2620 C   0  0  0  0  0  0  0  0  0  0  0  0
   39.4440   26.2970   44.2770 H   0  0  0  0  0  0  0  0  0  0  0  0
   40.3110   25.3130   42.5770 C   0  0  0  0  0  0  0  0  0  0  0  0
   41.3010   24.9500   42.8380 H   0  0  0  0  0  0  0  0  0  0  0  0
   39.7850   25.1130   41.3030 C   0  0  0  0  0  0  0  0  0  0  0  0
   40.1960   24.6170   40.4100 H   0  0  0  0  0  0  0  0  0  0  0  0
   38.6030   25.6400   41.2600 O   0  0  0  0  0  0  0  0  0  0  0  0
  1  2  2  0  0  0  0
  1  6  1  0  0  0  0
  2  3  1  0  0  0  0
  3  8  1  0  0  0  0
  3  4  2  0  0  0  0
  5  4  1  0  0  0  0
  5 12  1  0  0  0  0
  6  5  2  0  0  0  0
  7  1  1  0  0  0  0
  9 10  1  0  0  0  0
  9  2  1  0  0  0  0
 11  9  1  0  0  0  0
 12 13  1  0  0  0  0
 14 12  1  0  0  0  0
 15 12  1  0  0  0  0
 15 16  2  0  0  0  0
 16 17  1  0  0  0  0
 18 19  1  0  0  0  0
 18 16  1  0  0  0  0
 20 18  2  0  0  0  0
 21 20  1  0  0  0  0
 22 20  1  0  0  0  0
 22 15  1  0  0  0  0
M  END
>  <minimizedAffinity>
-3.89164853

$$$$
