
 OpenBabel03252509263D

 29 31  0  0  1  0  0  0  0  0999 V2000
   46.7490   35.1820   41.9810 C   0  0  1  0  0  0  0  0  0  0  0  0
   48.2950   35.3000   42.0270 C   0  0  0  0  0  0  0  0  0  0  0  0
   47.4750   34.1880   41.3050 C   0  0  2  0  0  0  0  0  0  0  0  0
   46.3070   36.0670   41.4980 H   0  0  0  0  0  0  0  0  0  0  0  0
   48.7670   35.9850   41.3090 H   0  0  0  0  0  0  0  0  0  0  0  0
   48.8250   34.9710   42.9260 H   0  0  0  0  0  0  0  0  0  0  0  0
   47.5610   33.1690   41.7800 H   0  0  0  0  0  0  0  0  0  0  0  0
   44.6760   35.2930   45.1020 C   0  0  0  0  0  0  0  0  0  0  0  0
   45.1840   35.6640   43.8290 C   0  0  0  0  0  0  0  0  0  0  0  0
   46.1910   34.8880   43.3490 C   0  0  0  0  0  0  0  0  0  0  0  0
   46.6810   33.8180   44.0590 N   0  0  0  0  0  0  0  0  0  0  0  0
   46.1700   33.5000   45.2680 C   0  0  0  0  0  0  0  0  0  0  0  0
   45.1640   34.2410   45.7900 N   0  0  0  0  0  0  0  0  0  0  0  0
   43.8680   35.8990   45.5040 H   0  0  0  0  0  0  0  0  0  0  0  0
   46.5250   32.6710   45.8580 H   0  0  0  0  0  0  0  0  0  0  0  0
   44.6840   36.7850   43.1270 N   0  0  0  0  0  0  0  0  0  0  0  0
   43.8110   36.9580   42.5850 H   0  0  0  0  0  0  0  0  0  0  0  0
   45.4490   37.5100   43.2670 H   0  0  0  0  0  0  0  0  0  0  0  0
   47.5300   34.1220   39.7970 C   0  0  0  0  0  0  0  0  0  0  0  0
   48.5270   33.8190   39.4790 H   0  0  0  0  0  0  0  0  0  0  0  0
   47.2490   35.0880   39.3280 H   0  0  0  0  0  0  0  0  0  0  0  0
   46.5410   33.0620   39.4160 C   0  0  0  0  0  0  0  0  0  0  0  0
   45.1730   33.1800   39.3470 C   0  0  0  0  0  0  0  0  0  0  0  0
   44.6180   34.0670   39.5620 H   0  0  0  0  0  0  0  0  0  0  0  0
   44.6930   31.9390   38.9510 C   0  0  0  0  0  0  0  0  0  0  0  0
   43.6500   31.6830   38.8000 H   0  0  0  0  0  0  0  0  0  0  0  0
   45.8110   31.1250   38.8000 C   0  0  0  0  0  0  0  0  0  0  0  0
   45.6820   30.1010   38.4930 H   0  0  0  0  0  0  0  0  0  0  0  0
   46.8760   31.8290   39.0830 O   0  0  0  0  0  0  0  0  0  0  0  0
  1  4  1  6  0  0  0
  1  2  1  0  0  0  0
  1 10  1  0  0  0  0
  2  6  1  0  0  0  0
  3  7  1  1  0  0  0
  3  1  1  0  0  0  0
  3  2  1  0  0  0  0
  5  2  1  0  0  0  0
  8 14  1  0  0  0  0
  8 13  1  0  0  0  0
  9  8  2  0  0  0  0
 10  9  1  0  0  0  0
 10 11  2  0  0  0  0
 11 12  1  0  0  0  0
 12 13  2  0  0  0  0
 12 15  1  0  0  0  0
 16 18  1  0  0  0  0
 16  9  1  0  0  0  0
 17 16  1  0  0  0  0
 19  3  1  0  0  0  0
 20 19  1  0  0  0  0
 21 19  1  0  0  0  0
 22 19  1  0  0  0  0
 23 22  2  0  0  0  0
 23 24  1  0  0  0  0
 25 23  1  0  0  0  0
 26 25  1  0  0  0  0
 27 25  2  0  0  0  0
 27 29  1  0  0  0  0
 28 27  1  0  0  0  0
 29 22  1  0  0  0  0
M  END
>  <minimizedAffinity>
-4.38310528

>  <minimizedRMSD>
0.900540292

$$$$
