
 OpenBabel03252504293D

 26 27  0  0  0  0  0  0  0  0999 V2000
   43.2370   35.7980   41.6170 O   0  0  0  0  0  0  0  0  0  0  0  0
   44.4580   35.1760   41.7460 C   0  0  0  0  0  0  0  0  0  0  0  0
   45.2780   35.9450   41.5350 H   0  0  0  0  0  0  0  0  0  0  0  0
   44.5430   34.3280   41.0500 H   0  0  0  0  0  0  0  0  0  0  0  0
   44.4370   35.6490   44.0880 C   0  0  0  0  0  0  0  0  0  0  0  0
   44.7750   34.7020   43.1070 C   0  0  0  0  0  0  0  0  0  0  0  0
   45.3400   33.5340   43.5420 C   0  0  0  0  0  0  0  0  0  0  0  0
   45.5250   33.3870   44.8510 N   0  0  0  0  0  0  0  0  0  0  0  0
   45.2060   34.2820   45.7780 C   0  0  0  0  0  0  0  0  0  0  0  0
   44.6280   35.4930   45.4260 N   0  0  0  0  0  0  0  0  0  0  0  0
   43.9780   36.6290   43.8940 H   0  0  0  0  0  0  0  0  0  0  0  0
   45.5700   32.8590   42.7300 H   0  0  0  0  0  0  0  0  0  0  0  0
   45.4330   33.9750   46.7700 H   0  0  0  0  0  0  0  0  0  0  0  0
   42.0150   35.2070   41.3460 C   0  0  0  0  0  3  0  0  0  0  0  0
   41.0640   36.0190   40.8230 C   0  0  0  0  0  3  0  0  0  0  0  0
   39.6770   35.5830   40.3940 C   0  0  0  0  0  0  0  0  0  0  0  0
   39.2040   36.4010   39.8240 H   0  0  0  0  0  0  0  0  0  0  0  0
   39.1080   35.4160   41.3070 H   0  0  0  0  0  0  0  0  0  0  0  0
   39.8410   34.3490   39.5770 C   0  0  0  0  0  0  0  0  0  0  0  0
   40.2680   34.2260   38.2750 C   0  0  0  0  0  0  0  0  0  0  0  0
   40.5610   35.0410   37.6240 H   0  0  0  0  0  0  0  0  0  0  0  0
   40.2330   32.8590   38.0100 C   0  0  0  0  0  0  0  0  0  0  0  0
   40.5140   32.3990   37.0560 H   0  0  0  0  0  0  0  0  0  0  0  0
   39.7860   32.2320   39.1720 C   0  0  0  0  0  0  0  0  0  0  0  0
   39.6530   31.1620   39.2820 H   0  0  0  0  0  0  0  0  0  0  0  0
   39.5600   33.1570   40.0900 O   0  0  0  0  0  0  0  0  0  0  0  0
  1  2  1  0  0  0  0
  2  6  1  0  0  0  0
  3  2  1  0  0  0  0
  4  2  1  0  0  0  0
  5 10  1  0  0  0  0
  6  7  1  0  0  0  0
  6  5  2  0  0  0  0
  7  8  2  0  0  0  0
  8  9  1  0  0  0  0
  9 13  1  0  0  0  0
 10  9  2  0  0  0  0
 11  5  1  0  0  0  0
 12  7  1  0  0  0  0
 14  1  1  0  0  0  0
 15 14  2  0  0  0  0
 16 15  1  0  0  0  0
 16 18  1  0  0  0  0
 17 16  1  0  0  0  0
 19 26  1  0  0  0  0
 19 16  1  0  0  0  0
 20 19  2  0  0  0  0
 21 20  1  0  0  0  0
 22 20  1  0  0  0  0
 22 24  2  0  0  0  0
 23 22  1  0  0  0  0
 24 25  1  0  0  0  0
 24 26  1  0  0  0  0
M  END
>  <minimizedAffinity>
-4.30284548

>  <minimizedRMSD>
0.790860057

$$$$
