
 OpenBabel03252509003D

 44 46  0  0  1  0  0  0  0  0999 V2000
   47.0130   34.2000   43.5860 N   0  0  0  0  0  0  0  0  0  0  0  0
   46.6050   35.3580   42.8780 C   0  0  0  0  0  0  0  0  0  0  0  0
   45.1180   35.6420   42.9170 C   0  0  0  0  0  0  0  0  0  0  0  0
   44.4330   35.2210   44.1890 C   0  0  0  0  0  0  0  0  0  0  0  0
   45.4250   34.7090   45.2070 C   0  0  0  0  0  0  0  0  0  0  0  0
   46.1520   33.5400   44.4460 C   0  0  2  0  0  0  0  0  0  0  0  0
   46.9250   35.4220   41.8320 H   0  0  0  0  0  0  0  0  0  0  0  0
   47.1040   36.2290   43.3850 H   0  0  0  0  0  0  0  0  0  0  0  0
   44.6180   35.2410   42.0110 H   0  0  0  0  0  0  0  0  0  0  0  0
   44.9710   36.7490   42.8440 H   0  0  0  0  0  0  0  0  0  0  0  0
   43.8730   36.0310   44.6800 H   0  0  0  0  0  0  0  0  0  0  0  0
   43.7290   34.4050   43.9690 H   0  0  0  0  0  0  0  0  0  0  0  0
   44.8780   34.2990   46.0640 H   0  0  0  0  0  0  0  0  0  0  0  0
   46.2020   35.4230   45.4750 H   0  0  0  0  0  0  0  0  0  0  0  0
   45.3730   32.8860   44.0050 H   0  0  0  0  0  0  0  0  0  0  0  0
   48.0560   33.4510   42.9420 C   0  0  0  0  0  0  0  0  0  0  0  0
   48.7260   34.1780   42.4270 H   0  0  0  0  0  0  0  0  0  0  0  0
   48.6590   32.8840   43.6800 H   0  0  0  0  0  0  0  0  0  0  0  0
   47.4240   32.4730   41.9980 C   0  0  0  0  0  0  0  0  0  0  0  0
   46.3090   32.6070   41.9670 H   0  0  0  0  0  0  0  0  0  0  0  0
   47.6030   31.4180   42.2710 H   0  0  0  0  0  0  0  0  0  0  0  0
   49.2890   32.0710   38.7640 C   0  0  0  0  0  0  0  0  0  0  0  0
   48.8110   31.8370   40.0670 C   0  0  0  0  0  0  0  0  0  0  0  0
   47.9230   32.7290   40.6230 C   0  0  0  0  0  0  0  0  0  0  0  0
   47.5580   33.7830   39.8860 N   0  0  0  0  0  0  0  0  0  0  0  0
   48.0190   33.9990   38.6410 C   0  0  0  0  0  0  0  0  0  0  0  0
   48.8920   33.1410   38.0690 N   0  0  0  0  0  0  0  0  0  0  0  0
   49.9740   31.4280   38.2700 H   0  0  0  0  0  0  0  0  0  0  0  0
   49.1870   30.9470   40.5520 H   0  0  0  0  0  0  0  0  0  0  0  0
   47.7000   34.8700   38.0680 H   0  0  0  0  0  0  0  0  0  0  0  0
   46.8330   32.9180   45.4810 O   0  0  0  0  0  0  0  0  0  0  0  0
   45.4910   30.7840   44.6330 O   0  0  0  0  0  0  0  0  0  0  0  0
   46.2290   31.3880   45.8340 P   0  0  2  0  0  0  0  0  0  0  0  0
   45.0050   31.6270   47.0100 O   0  0  0  0  0  0  0  0  0  0  0  0
   45.3110   32.3190   47.6600 H   0  0  0  0  0  0  0  0  0  0  0  0
   47.3590   30.3690   46.4750 O   0  0  0  0  0  0  0  0  0  0  0  0
   48.2250   30.5450   47.5190 C   0  0  0  0  0  0  0  0  0  0  0  0
   48.0300   31.5750   48.4470 C   0  0  0  0  0  0  0  0  0  0  0  0
   47.2410   32.3160   48.4800 H   0  0  0  0  0  0  0  0  0  0  0  0
   49.0900   31.4440   49.3470 C   0  0  0  0  0  0  0  0  0  0  0  0
   49.1820   32.1390   50.1950 H   0  0  0  0  0  0  0  0  0  0  0  0
   49.8560   30.3580   48.9180 C   0  0  0  0  0  0  0  0  0  0  0  0
   50.7250   30.1280   49.5200 H   0  0  0  0  0  0  0  0  0  0  0  0
   49.3060   29.8650   47.8400 O   0  0  0  0  0  0  0  0  0  0  0  0
  1  6  1  0  0  0  0
  2  3  1  0  0  0  0
  2  8  1  0  0  0  0
  2  1  1  0  0  0  0
  3  4  1  0  0  0  0
  4 11  1  0  0  0  0
  4  5  1  0  0  0  0
  5 14  1  0  0  0  0
  5 13  1  0  0  0  0
  6 15  1  6  0  0  0
  6  5  1  0  0  0  0
  6 31  1  0  0  0  0
  7  2  1  0  0  0  0
  9  3  1  0  0  0  0
 10  3  1  0  0  0  0
 12  4  1  0  0  0  0
 16  1  1  0  0  0  0
 16 18  1  0  0  0  0
 17 16  1  0  0  0  0
 19 21  1  0  0  0  0
 19 16  1  0  0  0  0
 20 19  1  0  0  0  0
 22 23  1  0  0  0  0
 23 29  1  0  0  0  0
 23 24  2  0  0  0  0
 24 19  1  0  0  0  0
 25 24  1  0  0  0  0
 26 25  2  0  0  0  0
 27 26  1  0  0  0  0
 27 22  2  0  0  0  0
 28 22  1  0  0  0  0
 30 26  1  0  0  0  0
 31 33  1  0  0  0  0
 33 32  2  6  0  0  0
 33 36  1  0  0  0  0
 33 34  1  0  0  0  0
 34 35  1  0  0  0  0
 36 37  1  0  0  0  0
 37 44  1  0  0  0  0
 37 38  2  0  0  0  0
 38 39  1  0  0  0  0
 38 40  1  0  0  0  0
 40 41  1  0  0  0  0
 42 40  2  0  0  0  0
 42 43  1  0  0  0  0
 44 42  1  0  0  0  0
M  END
>  <minimizedAffinity>
-4.48856592

>  <minimizedRMSD>
1.11266923

$$$$
