
 OpenBabel03252508503D

 27 29  0  0  0  0  0  0  0  0999 V2000
   45.9000   34.2150   41.0140 C   0  0  0  0  0  0  0  0  0  0  0  0
   46.5070   34.7920   42.1220 C   0  0  0  0  0  0  0  0  0  0  0  0
   47.8720   35.1070   41.9980 C   0  0  0  0  0  0  0  0  0  0  0  0
   48.4950   34.8280   40.8240 N   0  0  0  0  0  0  0  0  0  0  0  0
   47.8720   34.2730   39.7920 C   0  0  0  0  0  0  0  0  0  0  0  0
   46.5670   33.9620   39.8780 N   0  0  0  0  0  0  0  0  0  0  0  0
   48.3660   35.5520   42.8340 H   0  0  0  0  0  0  0  0  0  0  0  0
   48.3330   34.0360   38.8370 H   0  0  0  0  0  0  0  0  0  0  0  0
   45.7390   35.0450   43.3250 C   0  0  0  0  0  0  0  0  0  0  0  0
   45.1010   36.2400   43.5790 C   0  0  0  0  0  0  0  0  0  0  0  0
   44.5090   36.0470   44.8050 C   0  0  0  0  0  0  0  0  0  0  0  0
   44.7670   34.8090   45.2730 N   0  0  0  0  0  0  0  0  0  0  0  0
   45.5120   34.2240   44.3590 N   0  0  0  0  0  0  0  0  0  0  0  0
   45.0280   37.1600   43.0140 H   0  0  0  0  0  0  0  0  0  0  0  0
   43.8940   36.7130   45.4170 H   0  0  0  0  0  0  0  0  0  0  0  0
   44.5210   34.2700   46.1300 H   0  0  0  0  0  0  0  0  0  0  0  0
   44.5580   33.8920   41.0980 O   0  0  0  0  0  0  0  0  0  0  0  0
   43.5000   34.6000   40.6050 C   0  0  0  0  0  0  0  0  0  0  0  0
   43.1780   35.8100   40.8970 O   0  0  0  0  0  0  0  0  0  0  0  0
   42.5280   34.0400   39.6170 C   0  0  0  0  0  0  0  0  0  0  0  0
   41.4090   34.6700   39.0570 C   0  0  0  0  0  0  0  0  0  0  0  0
   41.1490   35.7050   39.3290 H   0  0  0  0  0  0  0  0  0  0  0  0
   40.7470   33.8390   38.1810 C   0  0  0  0  0  0  0  0  0  0  0  0
   39.8570   34.0780   37.6170 H   0  0  0  0  0  0  0  0  0  0  0  0
   41.5140   32.6970   38.2430 C   0  0  0  0  0  0  0  0  0  0  0  0
   41.3070   31.7810   37.6710 H   0  0  0  0  0  0  0  0  0  0  0  0
   42.4940   32.8590   39.0570 O   0  0  0  0  0  0  0  0  0  0  0  0
  1 17  1  0  0  0  0
  1  2  1  0  0  0  0
  2  9  1  0  0  0  0
  3  2  2  0  0  0  0
  3  7  1  0  0  0  0
  4  3  1  0  0  0  0
  5  6  1  0  0  0  0
  5  4  2  0  0  0  0
  6  1  2  0  0  0  0
  8  5  1  0  0  0  0
  9 10  1  0  0  0  0
  9 13  2  0  0  0  0
 10 11  2  0  0  0  0
 11 12  1  0  0  0  0
 11 15  1  0  0  0  0
 12 16  1  0  0  0  0
 13 12  1  0  0  0  0
 14 10  1  0  0  0  0
 18 19  2  0  0  0  0
 18 17  1  0  0  0  0
 20 18  1  0  0  0  0
 21 22  1  0  0  0  0
 21 20  2  0  0  0  0
 23 25  2  0  0  0  0
 23 21  1  0  0  0  0
 24 23  1  0  0  0  0
 25 27  1  0  0  0  0
 26 25  1  0  0  0  0
 27 20  1  0  0  0  0
M  END
>  <minimizedAffinity>
-5.16456556

>  <minimizedRMSD>
0.604193628

$$$$
