
 OpenBabel03242512093D

 32 34  0  0  1  0  0  0  0  0999 V2000
   48.2430   34.5390   41.2030 C   0  0  1  0  0  0  0  0  0  0  0  0
   48.8970   35.8720   41.7380 C   0  0  0  0  0  0  0  0  0  0  0  0
   49.1500   34.5610   42.3440 C   0  0  2  0  0  0  0  0  0  0  0  0
   48.6350   34.2420   40.2150 H   0  0  0  0  0  0  0  0  0  0  0  0
   48.2000   36.6080   42.1900 H   0  0  0  0  0  0  0  0  0  0  0  0
   49.6180   36.3360   41.0280 H   0  0  0  0  0  0  0  0  0  0  0  0
   48.6650   34.2010   43.2630 H   0  0  0  0  0  0  0  0  0  0  0  0
   46.7660   34.5240   41.4110 C   0  0  0  0  0  0  0  0  0  0  0  0
   46.0620   34.2850   40.4380 O   0  0  0  0  0  0  0  0  0  0  0  0
   45.4510   35.9060   42.9470 C   0  0  0  0  0  0  0  0  0  0  0  0
   46.1240   34.7660   42.6610 C   0  0  0  0  0  0  0  0  0  0  0  0
   46.1770   33.7680   43.6760 C   0  0  0  0  0  0  0  0  0  0  0  0
   45.5750   33.9730   44.8690 N   0  0  0  0  0  0  0  0  0  0  0  0
   44.9100   35.1420   45.1030 C   0  0  0  0  0  0  0  0  0  0  0  0
   44.8530   36.0730   44.1710 N   0  0  0  0  0  0  0  0  0  0  0  0
   45.3840   36.6910   42.2060 H   0  0  0  0  0  0  0  0  0  0  0  0
   46.6680   32.8330   43.5760 H   0  0  0  0  0  0  0  0  0  0  0  0
   44.3940   35.4160   46.0140 H   0  0  0  0  0  0  0  0  0  0  0  0
   50.4620   34.1230   42.2210 O   0  0  0  0  0  0  0  0  0  0  0  0
   49.0990   32.0210   42.8390 O   0  0  0  0  0  0  0  0  0  0  0  0
   50.4040   32.4220   42.1780 P   0  0  2  0  0  0  0  0  0  0  0  0
   51.7220   31.7060   42.9000 O   0  0  0  0  0  0  0  0  0  0  0  0
   51.4020   31.3060   43.7470 H   0  0  0  0  0  0  0  0  0  0  0  0
   50.2440   31.9570   40.5350 O   0  0  0  0  0  0  0  0  0  0  0  0
   51.3370   31.6750   39.7260 C   0  0  0  0  0  0  0  0  0  0  0  0
   51.3460   31.4980   38.3420 C   0  0  0  0  0  0  0  0  0  0  0  0
   50.4760   31.5550   37.6710 H   0  0  0  0  0  0  0  0  0  0  0  0
   52.6260   31.2330   37.8940 C   0  0  0  0  0  0  0  0  0  0  0  0
   52.9930   31.0460   36.8980 H   0  0  0  0  0  0  0  0  0  0  0  0
   53.3540   31.2640   39.0800 C   0  0  0  0  0  0  0  0  0  0  0  0
   54.4390   31.1000   39.1800 H   0  0  0  0  0  0  0  0  0  0  0  0
   52.5920   31.5200   40.1120 O   0  0  0  0  0  0  0  0  0  0  0  0
  1  4  1  6  0  0  0
  1  8  1  0  0  0  0
  1  2  1  0  0  0  0
  1  3  1  0  0  0  0
  2  5  1  0  0  0  0
  2  3  1  0  0  0  0
  3  7  1  1  0  0  0
  6  2  1  0  0  0  0
  8 11  1  0  0  0  0
  9  8  2  0  0  0  0
 10 15  1  0  0  0  0
 11 10  2  0  0  0  0
 11 12  1  0  0  0  0
 12 13  2  0  0  0  0
 13 14  1  0  0  0  0
 14 18  1  0  0  0  0
 15 14  2  0  0  0  0
 16 10  1  0  0  0  0
 17 12  1  0  0  0  0
 19  3  1  0  0  0  0
 21 19  1  0  0  0  0
 21 20  2  1  0  0  0
 21 22  1  0  0  0  0
 22 23  1  0  0  0  0
 24 21  1  0  0  0  0
 25 32  1  0  0  0  0
 25 24  1  0  0  0  0
 26 25  2  0  0  0  0
 27 26  1  0  0  0  0
 28 26  1  0  0  0  0
 28 30  2  0  0  0  0
 29 28  1  0  0  0  0
 30 31  1  0  0  0  0
 30 32  1  0  0  0  0
M  END
>  <minimizedAffinity>
-5.08376789

>  <minimizedRMSD>
1.07406187

$$$$
