
 OpenBabel03242514233D

 33 36  0  0  0  0  0  0  0  0999 V2000
   44.7800   33.1340   41.1140 Cl  0  0  0  0  0  0  0  0  0  0  0  0
   46.3160   33.9540   40.9040 C   0  0  0  0  0  0  0  0  0  0  0  0
   46.8320   34.7100   41.9160 C   0  0  0  0  0  0  0  0  0  0  0  0
   48.0510   35.3660   41.7630 C   0  0  0  0  0  0  0  0  0  0  0  0
   48.6890   35.2130   40.5640 C   0  0  0  0  0  0  0  0  0  0  0  0
   48.1650   34.4490   39.5440 C   0  0  0  0  0  0  0  0  0  0  0  0
   46.9700   33.8130   39.7090 C   0  0  0  0  0  0  0  0  0  0  0  0
   48.4820   35.9680   42.5440 H   0  0  0  0  0  0  0  0  0  0  0  0
   49.6500   35.6790   40.3300 H   0  0  0  0  0  0  0  0  0  0  0  0
   48.6660   34.3210   38.5850 H   0  0  0  0  0  0  0  0  0  0  0  0
   45.6020   34.0370   45.3240 C   0  0  0  0  0  0  0  0  0  0  0  0
   44.7180   35.1040   45.5340 C   0  0  0  0  0  0  0  0  0  0  0  0
   44.5490   36.0360   44.5200 C   0  0  0  0  0  0  0  0  0  0  0  0
   45.2490   35.8700   43.3760 N   0  0  0  0  0  0  0  0  0  0  0  0
   46.1010   34.8360   43.1800 C   0  0  0  0  0  0  0  0  0  0  0  0
   46.2820   33.9110   44.1580 N   0  0  0  0  0  0  0  0  0  0  0  0
   45.7200   33.3150   46.1330 H   0  0  0  0  0  0  0  0  0  0  0  0
   44.1520   35.2650   46.4220 H   0  0  0  0  0  0  0  0  0  0  0  0
   43.9220   36.8980   44.5160 H   0  0  0  0  0  0  0  0  0  0  0  0
   46.3870   32.9970   38.6510 C   0  0  0  0  0  0  0  0  0  0  0  0
   45.4590   33.3600   37.7560 N   0  0  0  0  0  0  0  0  0  0  0  0
   45.1900   32.3170   36.9520 C   0  0  0  0  0  0  0  0  0  0  0  0
   45.9590   31.2770   37.3430 N   0  0  0  0  0  0  0  0  0  0  0  0
   46.6900   31.7050   38.3860 N   0  0  0  0  0  0  0  0  0  0  0  0
   44.5200   32.2010   36.1260 H   0  0  0  0  0  0  0  0  0  0  0  0
   46.1150   29.9370   36.8850 C   0  0  0  0  0  0  0  0  0  0  0  0
   45.2820   29.5200   35.8400 C   0  0  0  0  0  0  0  0  0  0  0  0
   44.5010   30.0060   35.2650 H   0  0  0  0  0  0  0  0  0  0  0  0
   45.6200   28.1940   35.5770 C   0  0  0  0  0  0  0  0  0  0  0  0
   45.2740   27.4380   34.8750 H   0  0  0  0  0  0  0  0  0  0  0  0
   46.6420   27.8880   36.4820 C   0  0  0  0  0  0  0  0  0  0  0  0
   47.2380   26.9980   36.6830 H   0  0  0  0  0  0  0  0  0  0  0  0
   46.8990   28.9450   37.2320 O   0  0  0  0  0  0  0  0  0  0  0  0
  2  1  1  0  0  0  0
  2  3  1  0  0  0  0
  3 15  1  0  0  0  0
  4  3  2  0  0  0  0
  4  8  1  0  0  0  0
  5  4  1  0  0  0  0
  6  7  1  0  0  0  0
  6  5  2  0  0  0  0
  7  2  2  0  0  0  0
  9  5  1  0  0  0  0
 10  6  1  0  0  0  0
 11 12  1  0  0  0  0
 11 17  1  0  0  0  0
 12 18  1  0  0  0  0
 13 12  2  0  0  0  0
 14 13  1  0  0  0  0
 15 14  2  0  0  0  0
 15 16  1  0  0  0  0
 16 11  2  0  0  0  0
 19 13  1  0  0  0  0
 20  7  1  0  0  0  0
 21 20  1  0  0  0  0
 22 23  1  0  0  0  0
 22 21  2  0  0  0  0
 23 24  1  0  0  0  0
 24 20  2  0  0  0  0
 25 22  1  0  0  0  0
 26 33  1  0  0  0  0
 26 23  1  0  0  0  0
 27 26  2  0  0  0  0
 28 27  1  0  0  0  0
 29 27  1  0  0  0  0
 29 31  2  0  0  0  0
 30 29  1  0  0  0  0
 31 32  1  0  0  0  0
 31 33  1  0  0  0  0
M  END
>  <minimizedAffinity>
-5.32251883

>  <minimizedRMSD>
0.159938827

$$$$
