
 OpenBabel03252504283D

 26 27  0  0  0  0  0  0  0  0999 V2000
   43.4510   35.7600   41.5060 O   0  0  0  0  0  0  0  0  0  0  0  0
   44.6180   35.0630   41.7170 C   0  0  0  0  0  0  0  0  0  0  0  0
   45.4990   35.7590   41.4910 H   0  0  0  0  0  0  0  0  0  0  0  0
   44.6650   34.1700   41.0770 H   0  0  0  0  0  0  0  0  0  0  0  0
   44.4870   35.6550   44.0290 C   0  0  0  0  0  0  0  0  0  0  0  0
   44.8560   34.6540   43.1150 C   0  0  0  0  0  0  0  0  0  0  0  0
   45.3760   33.5010   43.6370 C   0  0  0  0  0  0  0  0  0  0  0  0
   45.4910   33.4170   44.9590 N   0  0  0  0  0  0  0  0  0  0  0  0
   45.1410   34.3640   45.8220 C   0  0  0  0  0  0  0  0  0  0  0  0
   44.6060   35.5640   45.3800 N   0  0  0  0  0  0  0  0  0  0  0  0
   44.0560   36.6320   43.7610 H   0  0  0  0  0  0  0  0  0  0  0  0
   45.6340   32.7810   42.8730 H   0  0  0  0  0  0  0  0  0  0  0  0
   45.3120   34.1040   46.8390 H   0  0  0  0  0  0  0  0  0  0  0  0
   42.1850   35.2390   41.2940 C   0  0  0  0  0  3  0  0  0  0  0  0
   41.2370   36.1220   40.8970 C   0  0  0  0  0  3  0  0  0  0  0  0
   39.8040   35.7720   40.5490 C   0  0  0  0  0  0  0  0  0  0  0  0
   39.3120   36.6600   40.1160 H   0  0  0  0  0  0  0  0  0  0  0  0
   39.3100   35.5190   41.4860 H   0  0  0  0  0  0  0  0  0  0  0  0
   39.8520   34.6330   39.5910 C   0  0  0  0  0  0  0  0  0  0  0  0
   40.1960   34.6400   38.2580 C   0  0  0  0  0  0  0  0  0  0  0  0
   40.4960   35.5090   37.6860 H   0  0  0  0  0  0  0  0  0  0  0  0
   40.0720   33.3150   37.8470 C   0  0  0  0  0  0  0  0  0  0  0  0
   40.2710   32.9540   36.8310 H   0  0  0  0  0  0  0  0  0  0  0  0
   39.6570   32.5820   38.9570 C   0  0  0  0  0  0  0  0  0  0  0  0
   39.4720   31.5140   38.9540 H   0  0  0  0  0  0  0  0  0  0  0  0
   39.5360   33.4060   39.9850 O   0  0  0  0  0  0  0  0  0  0  0  0
  1  2  1  0  0  0  0
  2  6  1  0  0  0  0
  3  2  1  0  0  0  0
  4  2  1  0  0  0  0
  5 10  1  0  0  0  0
  6  7  1  0  0  0  0
  6  5  2  0  0  0  0
  7  8  2  0  0  0  0
  8  9  1  0  0  0  0
  9 13  1  0  0  0  0
 10  9  2  0  0  0  0
 11  5  1  0  0  0  0
 12  7  1  0  0  0  0
 14  1  1  0  0  0  0
 15 14  2  0  0  0  0
 16 15  1  0  0  0  0
 16 18  1  0  0  0  0
 17 16  1  0  0  0  0
 19 26  1  0  0  0  0
 19 16  1  0  0  0  0
 20 19  2  0  0  0  0
 21 20  1  0  0  0  0
 22 20  1  0  0  0  0
 22 24  2  0  0  0  0
 23 22  1  0  0  0  0
 24 26  1  0  0  0  0
 25 24  1  0  0  0  0
M  END
>  <minimizedAffinity>
-4.33266115

>  <minimizedRMSD>
0.883782089

$$$$
