
 OpenBabel03252502293D

 34 36  0  0  0  0  0  0  0  0999 V2000
   37.3740   31.3010   39.9570 C   0  0  0  0  0  0  0  0  0  0  0  0
   37.3250   32.6360   39.5470 C   0  0  0  0  0  0  0  0  0  0  0  0
   38.2320   33.5340   40.0870 C   0  0  0  0  0  0  0  0  0  0  0  0
   39.1580   33.0950   41.0120 C   0  0  0  0  0  0  0  0  0  0  0  0
   39.2220   31.7870   41.4290 C   0  0  0  0  0  0  0  0  0  0  0  0
   38.2980   30.9070   40.8700 C   0  0  0  0  0  0  0  0  0  0  0  0
   36.5880   32.9640   38.8160 H   0  0  0  0  0  0  0  0  0  0  0  0
   38.1480   34.5530   39.7320 H   0  0  0  0  0  0  0  0  0  0  0  0
   39.8440   33.8370   41.4040 H   0  0  0  0  0  0  0  0  0  0  0  0
   39.9370   31.4360   42.1480 H   0  0  0  0  0  0  0  0  0  0  0  0
   35.3390   29.2360   37.5560 C   0  0  0  0  0  0  0  0  0  0  0  0
   36.3450   30.1080   38.0170 C   0  0  0  0  0  0  0  0  0  0  0  0
   36.3890   30.4150   39.3470 C   0  0  0  0  0  0  0  0  0  0  0  0
   35.4530   29.8580   40.1550 N   0  0  0  0  0  0  0  0  0  0  0  0
   34.4900   29.0230   39.7070 C   0  0  0  0  0  0  0  0  0  0  0  0
   34.4310   28.7070   38.3940 N   0  0  0  0  0  0  0  0  0  0  0  0
   37.0820   30.5410   37.3530 H   0  0  0  0  0  0  0  0  0  0  0  0
   33.7840   28.6240   40.4240 H   0  0  0  0  0  0  0  0  0  0  0  0
   35.2700   28.8890   36.1190 C   0  0  0  0  0  0  0  0  0  0  0  0
   36.1530   29.7320   35.4330 F   0  0  0  0  0  0  0  0  0  0  0  0
   34.0040   29.2870   35.6740 F   0  0  0  0  0  0  0  0  0  0  0  0
   35.5370   27.5840   35.8490 F   0  0  0  0  0  0  0  0  0  0  0  0
   37.9980   28.7930   42.3980 C   0  0  0  0  0  0  0  0  0  0  0  0
   37.7090   29.2850   43.4980 O   0  0  0  0  0  0  0  0  0  0  0  0
   38.2580   29.5370   41.2100 N   0  0  0  0  0  0  0  0  0  0  0  0
   38.4870   29.0160   40.3070 H   0  0  0  0  0  0  0  0  0  0  0  0
   38.0830   27.3310   42.2910 C   0  0  0  0  0  0  0  0  0  0  0  0
   36.9490   26.5480   42.2950 C   0  0  0  0  0  0  0  0  0  0  0  0
   35.8860   26.8100   42.3690 H   0  0  0  0  0  0  0  0  0  0  0  0
   37.3160   25.2000   42.1810 C   0  0  0  0  0  0  0  0  0  0  0  0
   36.7770   24.2630   42.1430 H   0  0  0  0  0  0  0  0  0  0  0  0
   38.7060   25.2760   42.1140 C   0  0  0  0  0  0  0  0  0  0  0  0
   39.4350   24.4740   42.0190 H   0  0  0  0  0  0  0  0  0  0  0  0
   39.0950   26.5220   42.1810 O   0  0  0  0  0  0  0  0  0  0  0  0
  1  6  1  0  0  0  0
  2  1  2  0  0  0  0
  2  3  1  0  0  0  0
  3  4  2  0  0  0  0
  4  9  1  0  0  0  0
  4  5  1  0  0  0  0
  5 10  1  0  0  0  0
  6 25  1  0  0  0  0
  6  5  2  0  0  0  0
  7  2  1  0  0  0  0
  8  3  1  0  0  0  0
 11 12  2  0  0  0  0
 11 16  1  0  0  0  0
 12 13  1  0  0  0  0
 13  1  1  0  0  0  0
 13 14  2  0  0  0  0
 15 14  1  0  0  0  0
 15 18  1  0  0  0  0
 16 15  2  0  0  0  0
 17 12  1  0  0  0  0
 19 11  1  0  0  0  0
 20 19  1  0  0  0  0
 21 19  1  0  0  0  0
 22 19  1  0  0  0  0
 23 24  2  0  0  0  0
 25 23  1  0  0  0  0
 26 25  1  0  0  0  0
 27 28  2  0  0  0  0
 27 23  1  0  0  0  0
 28 29  1  0  0  0  0
 30 28  1  0  0  0  0
 31 30  1  0  0  0  0
 32 30  2  0  0  0  0
 32 34  1  0  0  0  0
 33 32  1  0  0  0  0
 34 27  1  0  0  0  0
M  END
>  <minimizedAffinity>
-5.64136028

$$$$

 OpenBabel03252502293D

 34 36  0  0  0  0  0  0  0  0999 V2000
   35.5750   29.1060   38.1590 C   0  0  0  0  0  0  0  0  0  0  0  0
   34.4170   28.3520   37.9570 C   0  0  0  0  0  0  0  0  0  0  0  0
   33.9560   28.1710   36.6610 C   0  0  0  0  0  0  0  0  0  0  0  0
   34.6450   28.7360   35.6070 C   0  0  0  0  0  0  0  0  0  0  0  0
   35.7860   29.4820   35.7850 C   0  0  0  0  0  0  0  0  0  0  0  0
   36.2250   29.6460   37.0970 C   0  0  0  0  0  0  0  0  0  0  0  0
   33.8860   27.9130   38.7990 H   0  0  0  0  0  0  0  0  0  0  0  0
   33.0560   27.5780   36.5640 H   0  0  0  0  0  0  0  0  0  0  0  0
   34.2430   28.5650   34.6150 H   0  0  0  0  0  0  0  0  0  0  0  0
   36.3280   29.9250   34.9730 H   0  0  0  0  0  0  0  0  0  0  0  0
   36.6570   28.4920   41.7120 C   0  0  0  0  0  0  0  0  0  0  0  0
   36.2530   28.2110   40.3920 C   0  0  0  0  0  0  0  0  0  0  0  0
   35.9990   29.2530   39.5460 C   0  0  0  0  0  0  0  0  0  0  0  0
   36.1520   30.5110   40.0310 N   0  0  0  0  0  0  0  0  0  0  0  0
   36.5390   30.7750   41.2980 C   0  0  0  0  0  0  0  0  0  0  0  0
   36.7960   29.7550   42.1500 N   0  0  0  0  0  0  0  0  0  0  0  0
   36.1380   27.1980   40.0270 H   0  0  0  0  0  0  0  0  0  0  0  0
   36.6350   31.8100   41.6000 H   0  0  0  0  0  0  0  0  0  0  0  0
   36.9370   27.3800   42.6480 C   0  0  0  0  0  0  0  0  0  0  0  0
   35.9910   27.4400   43.6780 F   0  0  0  0  0  0  0  0  0  0  0  0
   38.1480   27.6870   43.2780 F   0  0  0  0  0  0  0  0  0  0  0  0
   36.9420   26.1520   42.0650 F   0  0  0  0  0  0  0  0  0  0  0  0
   38.7580   30.0800   37.6370 C   0  0  0  0  0  0  0  0  0  0  0  0
   39.2550   28.9480   37.5620 O   0  0  0  0  0  0  0  0  0  0  0  0
   37.3830   30.3880   37.4180 N   0  0  0  0  0  0  0  0  0  0  0  0
   37.0570   31.4010   37.4960 H   0  0  0  0  0  0  0  0  0  0  0  0
   39.6390   31.2060   37.9750 C   0  0  0  0  0  0  0  0  0  0  0  0
   39.6480   31.7500   39.2410 C   0  0  0  0  0  0  0  0  0  0  0  0
   39.0790   31.4940   40.1450 H   0  0  0  0  0  0  0  0  0  0  0  0
   40.5720   32.8020   39.2880 C   0  0  0  0  0  0  0  0  0  0  0  0
   40.9020   33.4940   40.0510 H   0  0  0  0  0  0  0  0  0  0  0  0
   41.0720   32.8150   37.9880 C   0  0  0  0  0  0  0  0  0  0  0  0
   41.8220   33.4670   37.5450 H   0  0  0  0  0  0  0  0  0  0  0  0
   40.5030   31.8780   37.2750 O   0  0  0  0  0  0  0  0  0  0  0  0
  1 13  1  0  0  0  0
  2  1  1  0  0  0  0
  2  7  1  0  0  0  0
  3  2  2  0  0  0  0
  4  5  2  0  0  0  0
  4  3  1  0  0  0  0
  5  6  1  0  0  0  0
  6 25  1  0  0  0  0
  6  1  2  0  0  0  0
  8  3  1  0  0  0  0
  9  4  1  0  0  0  0
 10  5  1  0  0  0  0
 11 16  1  0  0  0  0
 11 19  1  0  0  0  0
 12 11  2  0  0  0  0
 13 14  2  0  0  0  0
 13 12  1  0  0  0  0
 14 15  1  0  0  0  0
 15 18  1  0  0  0  0
 15 16  2  0  0  0  0
 17 12  1  0  0  0  0
 19 21  1  0  0  0  0
 19 20  1  0  0  0  0
 22 19  1  0  0  0  0
 23 27  1  0  0  0  0
 24 23  2  0  0  0  0
 25 26  1  0  0  0  0
 25 23  1  0  0  0  0
 27 28  2  0  0  0  0
 28 30  1  0  0  0  0
 28 29  1  0  0  0  0
 30 31  1  0  0  0  0
 32 30  2  0  0  0  0
 33 32  1  0  0  0  0
 34 27  1  0  0  0  0
 34 32  1  0  0  0  0
M  END
>  <minimizedAffinity>
-5.59435081

$$$$

 OpenBabel03252502293D

 34 36  0  0  0  0  0  0  0  0999 V2000
   36.9600   28.7080   40.0600 C   0  0  0  0  0  0  0  0  0  0  0  0
   35.8520   28.1160   39.4500 C   0  0  0  0  0  0  0  0  0  0  0  0
   35.3380   28.6900   38.2960 C   0  0  0  0  0  0  0  0  0  0  0  0
   35.9280   29.8260   37.7800 C   0  0  0  0  0  0  0  0  0  0  0  0
   37.0190   30.4240   38.3650 C   0  0  0  0  0  0  0  0  0  0  0  0
   37.5130   29.8250   39.5220 C   0  0  0  0  0  0  0  0  0  0  0  0
   35.4000   27.2200   39.8710 H   0  0  0  0  0  0  0  0  0  0  0  0
   34.4810   28.1890   37.8670 H   0  0  0  0  0  0  0  0  0  0  0  0
   35.4890   30.2350   36.8780 H   0  0  0  0  0  0  0  0  0  0  0  0
   37.4840   31.3060   37.9720 H   0  0  0  0  0  0  0  0  0  0  0  0
   38.3720   26.2580   42.5450 C   0  0  0  0  0  0  0  0  0  0  0  0
   37.9360   26.7760   41.3090 C   0  0  0  0  0  0  0  0  0  0  0  0
   37.4440   28.0490   41.2670 C   0  0  0  0  0  0  0  0  0  0  0  0
   37.4020   28.7480   42.4290 N   0  0  0  0  0  0  0  0  0  0  0  0
   37.8210   28.2460   43.6120 C   0  0  0  0  0  0  0  0  0  0  0  0
   38.3120   26.9870   43.6720 N   0  0  0  0  0  0  0  0  0  0  0  0
   37.9790   26.1990   40.3940 H   0  0  0  0  0  0  0  0  0  0  0  0
   37.7500   28.8750   44.4890 H   0  0  0  0  0  0  0  0  0  0  0  0
   38.9090   24.8800   42.6160 C   0  0  0  0  0  0  0  0  0  0  0  0
   39.5730   24.6180   41.4120 F   0  0  0  0  0  0  0  0  0  0  0  0
   37.8040   24.0210   42.5900 F   0  0  0  0  0  0  0  0  0  0  0  0
   39.7250   24.6570   43.6790 F   0  0  0  0  0  0  0  0  0  0  0  0
   38.9690   31.5880   40.8130 C   0  0  0  0  0  0  0  0  0  0  0  0
   38.2390   32.5880   40.8340 O   0  0  0  0  0  0  0  0  0  0  0  0
   38.6280   30.3370   40.2200 N   0  0  0  0  0  0  0  0  0  0  0  0
   39.3260   29.5300   40.2670 H   0  0  0  0  0  0  0  0  0  0  0  0
   40.2930   31.6780   41.4430 C   0  0  0  0  0  0  0  0  0  0  0  0
   40.6070   30.9250   42.5540 C   0  0  0  0  0  0  0  0  0  0  0  0
   40.0190   30.1960   43.1260 H   0  0  0  0  0  0  0  0  0  0  0  0
   41.9230   31.2040   42.9460 C   0  0  0  0  0  0  0  0  0  0  0  0
   42.5720   30.8590   43.7390 H   0  0  0  0  0  0  0  0  0  0  0  0
   42.3200   32.1480   42.0010 C   0  0  0  0  0  0  0  0  0  0  0  0
   43.2740   32.6620   41.8990 H   0  0  0  0  0  0  0  0  0  0  0  0
   41.3470   32.3840   41.1610 O   0  0  0  0  0  0  0  0  0  0  0  0
  1 13  1  0  0  0  0
  2  7  1  0  0  0  0
  2  1  2  0  0  0  0
  3  2  1  0  0  0  0
  4  3  2  0  0  0  0
  4  5  1  0  0  0  0
  5  6  2  0  0  0  0
  6  1  1  0  0  0  0
  6 25  1  0  0  0  0
  8  3  1  0  0  0  0
  9  4  1  0  0  0  0
 10  5  1  0  0  0  0
 11 19  1  0  0  0  0
 11 16  1  0  0  0  0
 12 11  2  0  0  0  0
 13 12  1  0  0  0  0
 13 14  2  0  0  0  0
 14 15  1  0  0  0  0
 15 16  2  0  0  0  0
 15 18  1  0  0  0  0
 17 12  1  0  0  0  0
 19 22  1  0  0  0  0
 20 19  1  0  0  0  0
 21 19  1  0  0  0  0
 23 24  2  0  0  0  0
 23 27  1  0  0  0  0
 25 26  1  0  0  0  0
 25 23  1  0  0  0  0
 27 28  2  0  0  0  0
 28 30  1  0  0  0  0
 28 29  1  0  0  0  0
 30 31  1  0  0  0  0
 32 30  2  0  0  0  0
 33 32  1  0  0  0  0
 34 27  1  0  0  0  0
 34 32  1  0  0  0  0
M  END
>  <minimizedAffinity>
-5.58952093

$$$$

 OpenBabel03252502293D

 34 36  0  0  0  0  0  0  0  0999 V2000
   37.6500   29.4580   41.6680 C   0  0  0  0  0  0  0  0  0  0  0  0
   38.0410   29.3250   43.0030 C   0  0  0  0  0  0  0  0  0  0  0  0
   37.7220   28.1580   43.6800 C   0  0  0  0  0  0  0  0  0  0  0  0
   37.0300   27.1580   43.0260 C   0  0  0  0  0  0  0  0  0  0  0  0
   36.6350   27.2700   41.7130 C   0  0  0  0  0  0  0  0  0  0  0  0
   36.9700   28.4530   41.0590 C   0  0  0  0  0  0  0  0  0  0  0  0
   38.5870   30.1230   43.5020 H   0  0  0  0  0  0  0  0  0  0  0  0
   38.0500   28.1100   44.7090 H   0  0  0  0  0  0  0  0  0  0  0  0
   36.8050   26.2670   43.5990 H   0  0  0  0  0  0  0  0  0  0  0  0
   36.0970   26.4990   41.1970 H   0  0  0  0  0  0  0  0  0  0  0  0
   39.5250   32.3530   40.1610 C   0  0  0  0  0  0  0  0  0  0  0  0
   39.3050   31.1150   40.7960 C   0  0  0  0  0  0  0  0  0  0  0  0
   38.0200   30.7120   41.0230 C   0  0  0  0  0  0  0  0  0  0  0  0
   37.0200   31.5340   40.6190 N   0  0  0  0  0  0  0  0  0  0  0  0
   37.2370   32.7210   40.0100 C   0  0  0  0  0  0  0  0  0  0  0  0
   38.5030   33.1370   39.7780 N   0  0  0  0  0  0  0  0  0  0  0  0
   40.1200   30.4750   41.1100 H   0  0  0  0  0  0  0  0  0  0  0  0
   36.3780   33.3130   39.7220 H   0  0  0  0  0  0  0  0  0  0  0  0
   40.9090   32.8130   39.9060 C   0  0  0  0  0  0  0  0  0  0  0  0
   40.8920   33.5900   38.7410 F   0  0  0  0  0  0  0  0  0  0  0  0
   41.6450   31.6780   39.5480 F   0  0  0  0  0  0  0  0  0  0  0  0
   41.4650   33.4980   40.9390 F   0  0  0  0  0  0  0  0  0  0  0  0
   35.4250   29.0030   39.0080 C   0  0  0  0  0  0  0  0  0  0  0  0
   34.3110   29.1470   39.5310 O   0  0  0  0  0  0  0  0  0  0  0  0
   36.6270   28.6940   39.7110 N   0  0  0  0  0  0  0  0  0  0  0  0
   37.5410   28.6020   39.1670 H   0  0  0  0  0  0  0  0  0  0  0  0
   35.5360   29.1600   37.5520 C   0  0  0  0  0  0  0  0  0  0  0  0
   36.6170   29.7980   36.9840 C   0  0  0  0  0  0  0  0  0  0  0  0
   37.5050   30.2610   37.4330 H   0  0  0  0  0  0  0  0  0  0  0  0
   36.4700   29.8070   35.5900 C   0  0  0  0  0  0  0  0  0  0  0  0
   37.0560   30.1870   34.7640 H   0  0  0  0  0  0  0  0  0  0  0  0
   35.2570   29.1450   35.4160 C   0  0  0  0  0  0  0  0  0  0  0  0
   34.7270   28.9100   34.4950 H   0  0  0  0  0  0  0  0  0  0  0  0
   34.7620   28.7940   36.5740 O   0  0  0  0  0  0  0  0  0  0  0  0
  1  2  1  0  0  0  0
  2  7  1  0  0  0  0
  2  3  2  0  0  0  0
  3  8  1  0  0  0  0
  4  9  1  0  0  0  0
  4  3  1  0  0  0  0
  5  4  2  0  0  0  0
  6  1  2  0  0  0  0
  6  5  1  0  0  0  0
 10  5  1  0  0  0  0
 11 12  1  0  0  0  0
 12 13  2  0  0  0  0
 12 17  1  0  0  0  0
 13  1  1  0  0  0  0
 14 13  1  0  0  0  0
 15 14  2  0  0  0  0
 16 15  1  0  0  0  0
 16 11  2  0  0  0  0
 18 15  1  0  0  0  0
 19 11  1  0  0  0  0
 19 22  1  0  0  0  0
 20 19  1  0  0  0  0
 21 19  1  0  0  0  0
 23 24  2  0  0  0  0
 23 25  1  0  0  0  0
 25  6  1  0  0  0  0
 26 25  1  0  0  0  0
 27 23  1  0  0  0  0
 28 29  1  0  0  0  0
 28 27  2  0  0  0  0
 30 28  1  0  0  0  0
 31 30  1  0  0  0  0
 32 30  2  0  0  0  0
 32 34  1  0  0  0  0
 33 32  1  0  0  0  0
 34 27  1  0  0  0  0
M  END
>  <minimizedAffinity>
-5.55785179

$$$$

 OpenBabel03252502293D

 34 36  0  0  0  0  0  0  0  0999 V2000
   35.4270   29.1580   38.4970 C   0  0  0  0  0  0  0  0  0  0  0  0
   34.0530   28.9100   38.5240 C   0  0  0  0  0  0  0  0  0  0  0  0
   33.3720   28.7880   37.3220 C   0  0  0  0  0  0  0  0  0  0  0  0
   34.0620   28.9130   36.1320 C   0  0  0  0  0  0  0  0  0  0  0  0
   35.4130   29.1580   36.0840 C   0  0  0  0  0  0  0  0  0  0  0  0
   36.0700   29.2760   37.3070 C   0  0  0  0  0  0  0  0  0  0  0  0
   33.5260   28.8140   39.4710 H   0  0  0  0  0  0  0  0  0  0  0  0
   32.3110   28.5960   37.4030 H   0  0  0  0  0  0  0  0  0  0  0  0
   33.4830   28.8100   35.2220 H   0  0  0  0  0  0  0  0  0  0  0  0
   35.9580   29.2570   35.1650 H   0  0  0  0  0  0  0  0  0  0  0  0
   36.8470   28.4990   41.9200 C   0  0  0  0  0  0  0  0  0  0  0  0
   36.1980   28.2520   40.6940 C   0  0  0  0  0  0  0  0  0  0  0  0
   36.0740   29.2740   39.7980 C   0  0  0  0  0  0  0  0  0  0  0  0
   36.5900   30.4810   40.1430 N   0  0  0  0  0  0  0  0  0  0  0  0
   37.2120   30.7130   41.3190 C   0  0  0  0  0  0  0  0  0  0  0  0
   37.3430   29.7120   42.2190 N   0  0  0  0  0  0  0  0  0  0  0  0
   35.7940   27.2800   40.4410 H   0  0  0  0  0  0  0  0  0  0  0  0
   37.5930   31.7070   41.5110 H   0  0  0  0  0  0  0  0  0  0  0  0
   36.9920   27.4070   42.9090 C   0  0  0  0  0  0  0  0  0  0  0  0
   36.9380   26.1920   42.2130 F   0  0  0  0  0  0  0  0  0  0  0  0
   35.8250   27.4110   43.6800 F   0  0  0  0  0  0  0  0  0  0  0  0
   38.1210   27.4850   43.6610 F   0  0  0  0  0  0  0  0  0  0  0  0
   38.6350   28.7220   37.4060 C   0  0  0  0  0  0  0  0  0  0  0  0
   38.6560   27.4870   37.3090 O   0  0  0  0  0  0  0  0  0  0  0  0
   37.4570   29.5250   37.3980 N   0  0  0  0  0  0  0  0  0  0  0  0
   37.5480   30.5860   37.4770 H   0  0  0  0  0  0  0  0  0  0  0  0
   39.9140   29.4310   37.5400 C   0  0  0  0  0  0  0  0  0  0  0  0
   40.0410   30.5230   38.3720 C   0  0  0  0  0  0  0  0  0  0  0  0
   39.3160   31.0270   39.0240 H   0  0  0  0  0  0  0  0  0  0  0  0
   41.3560   31.0030   38.3090 C   0  0  0  0  0  0  0  0  0  0  0  0
   41.8940   31.8170   38.7780 H   0  0  0  0  0  0  0  0  0  0  0  0
   41.9490   30.1270   37.4030 C   0  0  0  0  0  0  0  0  0  0  0  0
   42.9730   30.1040   37.0360 H   0  0  0  0  0  0  0  0  0  0  0  0
   41.0780   29.2430   36.9920 O   0  0  0  0  0  0  0  0  0  0  0  0
  1  2  1  0  0  0  0
  1 13  1  0  0  0  0
  2  7  1  0  0  0  0
  3  8  1  0  0  0  0
  3  2  2  0  0  0  0
  4  3  1  0  0  0  0
  5  4  2  0  0  0  0
  5  6  1  0  0  0  0
  6 25  1  0  0  0  0
  6  1  2  0  0  0  0
  9  4  1  0  0  0  0
 10  5  1  0  0  0  0
 11 16  1  0  0  0  0
 11 19  1  0  0  0  0
 12 11  2  0  0  0  0
 13 14  2  0  0  0  0
 13 12  1  0  0  0  0
 14 15  1  0  0  0  0
 15 18  1  0  0  0  0
 15 16  2  0  0  0  0
 17 12  1  0  0  0  0
 19 22  1  0  0  0  0
 19 21  1  0  0  0  0
 20 19  1  0  0  0  0
 23 27  1  0  0  0  0
 24 23  2  0  0  0  0
 25 23  1  0  0  0  0
 25 26  1  0  0  0  0
 27 28  2  0  0  0  0
 28 29  1  0  0  0  0
 30 28  1  0  0  0  0
 30 31  1  0  0  0  0
 32 30  2  0  0  0  0
 33 32  1  0  0  0  0
 34 32  1  0  0  0  0
 34 27  1  0  0  0  0
M  END
>  <minimizedAffinity>
-5.45369339

$$$$

 OpenBabel03252502293D

 34 36  0  0  0  0  0  0  0  0999 V2000
   36.2640   27.8380   38.5440 C   0  0  0  0  0  0  0  0  0  0  0  0
   35.6640   26.6900   38.0190 C   0  0  0  0  0  0  0  0  0  0  0  0
   34.5860   26.8340   37.1580 C   0  0  0  0  0  0  0  0  0  0  0  0
   34.1320   28.0980   36.8400 C   0  0  0  0  0  0  0  0  0  0  0  0
   34.7070   29.2390   37.3460 C   0  0  0  0  0  0  0  0  0  0  0  0
   35.7880   29.0640   38.2080 C   0  0  0  0  0  0  0  0  0  0  0  0
   36.0360   25.7020   38.2800 H   0  0  0  0  0  0  0  0  0  0  0  0
   34.1630   25.9130   36.7830 H   0  0  0  0  0  0  0  0  0  0  0  0
   33.2870   28.1550   36.1640 H   0  0  0  0  0  0  0  0  0  0  0  0
   34.3610   30.2260   37.1050 H   0  0  0  0  0  0  0  0  0  0  0  0
   38.4510   26.9550   41.4770 C   0  0  0  0  0  0  0  0  0  0  0  0
   37.2800   27.1300   40.7150 C   0  0  0  0  0  0  0  0  0  0  0  0
   37.3900   27.6090   39.4400 C   0  0  0  0  0  0  0  0  0  0  0  0
   38.6340   27.8900   38.9770 N   0  0  0  0  0  0  0  0  0  0  0  0
   39.7550   27.7200   39.7130 C   0  0  0  0  0  0  0  0  0  0  0  0
   39.6640   27.2470   40.9770 N   0  0  0  0  0  0  0  0  0  0  0  0
   36.2970   26.8990   41.1060 H   0  0  0  0  0  0  0  0  0  0  0  0
   40.7060   27.9700   39.2630 H   0  0  0  0  0  0  0  0  0  0  0  0
   38.3570   26.4390   42.8610 C   0  0  0  0  0  0  0  0  0  0  0  0
   37.2370   25.6020   42.9290 F   0  0  0  0  0  0  0  0  0  0  0  0
   38.0190   27.5300   43.6700 F   0  0  0  0  0  0  0  0  0  0  0  0
   39.4730   25.7910   43.2890 F   0  0  0  0  0  0  0  0  0  0  0  0
   36.4560   30.7910   40.0690 C   0  0  0  0  0  0  0  0  0  0  0  0
   35.7520   30.4510   41.0290 O   0  0  0  0  0  0  0  0  0  0  0  0
   36.4700   30.1520   38.7950 N   0  0  0  0  0  0  0  0  0  0  0  0
   37.1240   30.5170   38.0350 H   0  0  0  0  0  0  0  0  0  0  0  0
   37.3550   31.9410   40.2380 C   0  0  0  0  0  0  0  0  0  0  0  0
   37.1710   33.1020   39.5190 C   0  0  0  0  0  0  0  0  0  0  0  0
   36.4180   33.3800   38.7700 H   0  0  0  0  0  0  0  0  0  0  0  0
   38.1610   34.0280   39.8720 C   0  0  0  0  0  0  0  0  0  0  0  0
   38.4020   35.0390   39.5720 H   0  0  0  0  0  0  0  0  0  0  0  0
   38.9020   33.3240   40.8190 C   0  0  0  0  0  0  0  0  0  0  0  0
   39.7800   33.6380   41.3800 H   0  0  0  0  0  0  0  0  0  0  0  0
   38.3960   32.1310   40.9920 O   0  0  0  0  0  0  0  0  0  0  0  0
  1 13  1  0  0  0  0
  2  7  1  0  0  0  0
  2  1  2  0  0  0  0
  3  2  1  0  0  0  0
  4  3  2  0  0  0  0
  4  5  1  0  0  0  0
  5  6  2  0  0  0  0
  6  1  1  0  0  0  0
  6 25  1  0  0  0  0
  8  3  1  0  0  0  0
  9  4  1  0  0  0  0
 10  5  1  0  0  0  0
 11 19  1  0  0  0  0
 12 17  1  0  0  0  0
 12 11  2  0  0  0  0
 13 12  1  0  0  0  0
 14 13  2  0  0  0  0
 14 15  1  0  0  0  0
 15 16  2  0  0  0  0
 16 11  1  0  0  0  0
 18 15  1  0  0  0  0
 19 20  1  0  0  0  0
 19 22  1  0  0  0  0
 19 21  1  0  0  0  0
 23 27  1  0  0  0  0
 23 24  2  0  0  0  0
 25 23  1  0  0  0  0
 26 25  1  0  0  0  0
 27 34  1  0  0  0  0
 28 30  1  0  0  0  0
 28 27  2  0  0  0  0
 29 28  1  0  0  0  0
 30 32  2  0  0  0  0
 31 30  1  0  0  0  0
 32 34  1  0  0  0  0
 32 33  1  0  0  0  0
M  END
>  <minimizedAffinity>
-5.39088297

$$$$

 OpenBabel03252502293D

 34 36  0  0  0  0  0  0  0  0999 V2000
   36.9370   26.8440   40.9800 C   0  0  0  0  0  0  0  0  0  0  0  0
   37.0390   26.1960   42.2140 C   0  0  0  0  0  0  0  0  0  0  0  0
   36.9340   24.8140   42.2520 C   0  0  0  0  0  0  0  0  0  0  0  0
   36.7330   24.1120   41.0800 C   0  0  0  0  0  0  0  0  0  0  0  0
   36.6300   24.7320   39.8570 C   0  0  0  0  0  0  0  0  0  0  0  0
   36.7400   26.1210   39.8490 C   0  0  0  0  0  0  0  0  0  0  0  0
   37.1970   26.7650   43.1270 H   0  0  0  0  0  0  0  0  0  0  0  0
   37.0200   24.3660   43.2320 H   0  0  0  0  0  0  0  0  0  0  0  0
   36.6580   23.0350   41.1640 H   0  0  0  0  0  0  0  0  0  0  0  0
   36.4740   24.1960   38.9410 H   0  0  0  0  0  0  0  0  0  0  0  0
   38.1770   30.3790   41.3520 C   0  0  0  0  0  0  0  0  0  0  0  0
   38.1960   28.9700   41.3550 C   0  0  0  0  0  0  0  0  0  0  0  0
   37.0570   28.2970   41.0180 C   0  0  0  0  0  0  0  0  0  0  0  0
   35.9620   29.0300   40.6970 N   0  0  0  0  0  0  0  0  0  0  0  0
   35.9490   30.3810   40.6960 C   0  0  0  0  0  0  0  0  0  0  0  0
   37.0680   31.0650   41.0270 N   0  0  0  0  0  0  0  0  0  0  0  0
   39.0830   28.4060   41.6160 H   0  0  0  0  0  0  0  0  0  0  0  0
   35.0300   30.8850   40.4260 H   0  0  0  0  0  0  0  0  0  0  0  0
   39.3990   31.1320   41.7150 C   0  0  0  0  0  0  0  0  0  0  0  0
   39.5860   31.0020   43.0970 F   0  0  0  0  0  0  0  0  0  0  0  0
   39.0990   32.4870   41.5370 F   0  0  0  0  0  0  0  0  0  0  0  0
   40.5110   30.7450   41.0370 F   0  0  0  0  0  0  0  0  0  0  0  0
   35.6880   27.0350   37.6230 C   0  0  0  0  0  0  0  0  0  0  0  0
   34.5920   26.4620   37.5790 O   0  0  0  0  0  0  0  0  0  0  0  0
   36.6540   26.8780   38.6610 N   0  0  0  0  0  0  0  0  0  0  0  0
   37.5670   27.4290   38.6120 H   0  0  0  0  0  0  0  0  0  0  0  0
   36.0400   27.9530   36.5320 C   0  0  0  0  0  0  0  0  0  0  0  0
   36.1690   29.3070   36.7510 C   0  0  0  0  0  0  0  0  0  0  0  0
   36.0540   29.9090   37.6620 H   0  0  0  0  0  0  0  0  0  0  0  0
   36.5060   29.9420   35.5490 C   0  0  0  0  0  0  0  0  0  0  0  0
   36.7010   30.9650   35.2540 H   0  0  0  0  0  0  0  0  0  0  0  0
   36.5560   28.8750   34.6540 C   0  0  0  0  0  0  0  0  0  0  0  0
   36.7830   28.8790   33.5900 H   0  0  0  0  0  0  0  0  0  0  0  0
   36.2810   27.7550   35.2690 O   0  0  0  0  0  0  0  0  0  0  0  0
  1 13  1  0  0  0  0
  1  2  1  0  0  0  0
  2  3  2  0  0  0  0
  2  7  1  0  0  0  0
  3  8  1  0  0  0  0
  4  9  1  0  0  0  0
  4  3  1  0  0  0  0
  5  4  2  0  0  0  0
  6  5  1  0  0  0  0
  6  1  2  0  0  0  0
 10  5  1  0  0  0  0
 11 12  1  0  0  0  0
 11 19  1  0  0  0  0
 12 17  1  0  0  0  0
 13 12  2  0  0  0  0
 14 13  1  0  0  0  0
 15 14  2  0  0  0  0
 15 16  1  0  0  0  0
 16 11  2  0  0  0  0
 18 15  1  0  0  0  0
 19 20  1  0  0  0  0
 21 19  1  0  0  0  0
 22 19  1  0  0  0  0
 23 25  1  0  0  0  0
 24 23  2  0  0  0  0
 25  6  1  0  0  0  0
 26 25  1  0  0  0  0
 27 28  2  0  0  0  0
 27 23  1  0  0  0  0
 28 29  1  0  0  0  0
 30 28  1  0  0  0  0
 31 30  1  0  0  0  0
 32 34  1  0  0  0  0
 32 30  2  0  0  0  0
 33 32  1  0  0  0  0
 34 27  1  0  0  0  0
M  END
>  <minimizedAffinity>
-5.38367414

$$$$

 OpenBabel03252502293D

 34 36  0  0  0  0  0  0  0  0999 V2000
   37.1640   27.5650   40.4150 C   0  0  0  0  0  0  0  0  0  0  0  0
   36.9660   26.2030   40.6600 C   0  0  0  0  0  0  0  0  0  0  0  0
   36.9150   25.7620   41.9730 C   0  0  0  0  0  0  0  0  0  0  0  0
   37.0600   26.6690   43.0030 C   0  0  0  0  0  0  0  0  0  0  0  0
   37.2560   28.0120   42.7830 C   0  0  0  0  0  0  0  0  0  0  0  0
   37.3030   28.4260   41.4540 C   0  0  0  0  0  0  0  0  0  0  0  0
   36.8540   25.5030   39.8350 H   0  0  0  0  0  0  0  0  0  0  0  0
   36.7600   24.7000   42.1030 H   0  0  0  0  0  0  0  0  0  0  0  0
   37.0130   26.2730   44.0110 H   0  0  0  0  0  0  0  0  0  0  0  0
   37.3700   28.7250   43.5770 H   0  0  0  0  0  0  0  0  0  0  0  0
   36.2850   28.5420   36.8870 C   0  0  0  0  0  0  0  0  0  0  0  0
   36.1040   28.1680   38.2330 C   0  0  0  0  0  0  0  0  0  0  0  0
   37.2060   27.9540   39.0100 C   0  0  0  0  0  0  0  0  0  0  0  0
   38.4250   28.1150   38.4350 N   0  0  0  0  0  0  0  0  0  0  0  0
   38.5930   28.4740   37.1430 C   0  0  0  0  0  0  0  0  0  0  0  0
   37.5120   28.6900   36.3590 N   0  0  0  0  0  0  0  0  0  0  0  0
   35.1210   28.0450   38.6710 H   0  0  0  0  0  0  0  0  0  0  0  0
   39.6020   28.5790   36.7680 H   0  0  0  0  0  0  0  0  0  0  0  0
   35.1050   28.7790   36.0250 C   0  0  0  0  0  0  0  0  0  0  0  0
   35.4290   29.8080   35.1320 F   0  0  0  0  0  0  0  0  0  0  0  0
   34.1190   29.3360   36.8450 F   0  0  0  0  0  0  0  0  0  0  0  0
   34.6760   27.6760   35.3580 F   0  0  0  0  0  0  0  0  0  0  0  0
   38.4760   30.7740   41.3710 C   0  0  0  0  0  0  0  0  0  0  0  0
   39.4810   30.6070   42.0750 O   0  0  0  0  0  0  0  0  0  0  0  0
   37.4960   29.7770   41.0900 N   0  0  0  0  0  0  0  0  0  0  0  0
   36.6700   30.0200   40.4590 H   0  0  0  0  0  0  0  0  0  0  0  0
   38.2590   32.0960   40.7690 C   0  0  0  0  0  0  0  0  0  0  0  0
   37.2190   32.3200   39.8930 C   0  0  0  0  0  0  0  0  0  0  0  0
   36.4370   31.6530   39.5100 H   0  0  0  0  0  0  0  0  0  0  0  0
   37.2460   33.6570   39.4740 C   0  0  0  0  0  0  0  0  0  0  0  0
   36.6420   34.2600   38.8090 H   0  0  0  0  0  0  0  0  0  0  0  0
   38.3500   34.1610   40.1580 C   0  0  0  0  0  0  0  0  0  0  0  0
   38.7670   35.1660   40.1480 H   0  0  0  0  0  0  0  0  0  0  0  0
   38.8960   33.2240   40.8880 O   0  0  0  0  0  0  0  0  0  0  0  0
  1  2  2  0  0  0  0
  1  6  1  0  0  0  0
  2  3  1  0  0  0  0
  3  8  1  0  0  0  0
  3  4  2  0  0  0  0
  4  9  1  0  0  0  0
  5  4  1  0  0  0  0
  5 10  1  0  0  0  0
  6  5  2  0  0  0  0
  7  2  1  0  0  0  0
 11 12  1  0  0  0  0
 12 17  1  0  0  0  0
 12 13  2  0  0  0  0
 13  1  1  0  0  0  0
 14 13  1  0  0  0  0
 15 14  2  0  0  0  0
 16 11  2  0  0  0  0
 16 15  1  0  0  0  0
 18 15  1  0  0  0  0
 19 21  1  0  0  0  0
 19 11  1  0  0  0  0
 20 19  1  0  0  0  0
 22 19  1  0  0  0  0
 23 24  2  0  0  0  0
 25 23  1  0  0  0  0
 25  6  1  0  0  0  0
 26 25  1  0  0  0  0
 27 34  1  0  0  0  0
 27 23  1  0  0  0  0
 28 27  2  0  0  0  0
 29 28  1  0  0  0  0
 30 28  1  0  0  0  0
 30 32  2  0  0  0  0
 31 30  1  0  0  0  0
 32 34  1  0  0  0  0
 33 32  1  0  0  0  0
M  END
>  <minimizedAffinity>
-5.36677265

$$$$

 OpenBabel03252502293D

 34 36  0  0  0  0  0  0  0  0999 V2000
   36.8620   29.8880   37.3050 C   0  0  0  0  0  0  0  0  0  0  0  0
   36.6720   30.0860   35.9350 C   0  0  0  0  0  0  0  0  0  0  0  0
   35.9920   29.1210   35.2090 C   0  0  0  0  0  0  0  0  0  0  0  0
   35.5210   27.9920   35.8490 C   0  0  0  0  0  0  0  0  0  0  0  0
   35.6980   27.7780   37.1950 C   0  0  0  0  0  0  0  0  0  0  0  0
   36.3840   28.7650   37.8990 C   0  0  0  0  0  0  0  0  0  0  0  0
   37.0500   30.9820   35.4470 H   0  0  0  0  0  0  0  0  0  0  0  0
   35.8740   29.3270   34.1530 H   0  0  0  0  0  0  0  0  0  0  0  0
   34.9970   27.2680   35.2360 H   0  0  0  0  0  0  0  0  0  0  0  0
   35.3360   26.9050   37.7020 H   0  0  0  0  0  0  0  0  0  0  0  0
   39.4790   32.2960   38.5410 C   0  0  0  0  0  0  0  0  0  0  0  0
   38.9010   31.2470   37.7990 C   0  0  0  0  0  0  0  0  0  0  0  0
   37.5840   30.9460   38.0020 C   0  0  0  0  0  0  0  0  0  0  0  0
   36.9030   31.6810   38.9170 N   0  0  0  0  0  0  0  0  0  0  0  0
   37.4620   32.6850   39.6260 C   0  0  0  0  0  0  0  0  0  0  0  0
   38.7650   32.9980   39.4370 N   0  0  0  0  0  0  0  0  0  0  0  0
   39.4650   30.6730   37.0740 H   0  0  0  0  0  0  0  0  0  0  0  0
   36.8430   33.2190   40.3350 H   0  0  0  0  0  0  0  0  0  0  0  0
   40.9040   32.6400   38.3390 C   0  0  0  0  0  0  0  0  0  0  0  0
   41.0380   34.0230   38.5180 F   0  0  0  0  0  0  0  0  0  0  0  0
   41.1710   32.4450   36.9790 F   0  0  0  0  0  0  0  0  0  0  0  0
   41.7590   31.9610   39.1470 F   0  0  0  0  0  0  0  0  0  0  0  0
   35.8440   28.7870   40.4690 C   0  0  0  0  0  0  0  0  0  0  0  0
   34.6270   29.0140   40.4940 O   0  0  0  0  0  0  0  0  0  0  0  0
   36.6320   28.6700   39.2860 N   0  0  0  0  0  0  0  0  0  0  0  0
   37.6750   28.4610   39.3720 H   0  0  0  0  0  0  0  0  0  0  0  0
   36.5490   28.6220   41.7470 C   0  0  0  0  0  0  0  0  0  0  0  0
   37.5730   29.4680   42.1120 C   0  0  0  0  0  0  0  0  0  0  0  0
   38.0210   30.3290   41.5990 H   0  0  0  0  0  0  0  0  0  0  0  0
   38.0640   29.0870   43.3680 C   0  0  0  0  0  0  0  0  0  0  0  0
   38.8420   29.4520   44.0250 H   0  0  0  0  0  0  0  0  0  0  0  0
   37.2640   27.9900   43.6790 C   0  0  0  0  0  0  0  0  0  0  0  0
   37.2760   27.3580   44.5650 H   0  0  0  0  0  0  0  0  0  0  0  0
   36.4100   27.7650   42.7150 O   0  0  0  0  0  0  0  0  0  0  0  0
  1  6  1  0  0  0  0
  1 13  1  0  0  0  0
  2  1  2  0  0  0  0
  3  4  2  0  0  0  0
  3  2  1  0  0  0  0
  4  5  1  0  0  0  0
  5 10  1  0  0  0  0
  5  6  2  0  0  0  0
  6 25  1  0  0  0  0
  7  2  1  0  0  0  0
  8  3  1  0  0  0  0
  9  4  1  0  0  0  0
 11 16  1  0  0  0  0
 12 13  1  0  0  0  0
 12 11  2  0  0  0  0
 13 14  2  0  0  0  0
 14 15  1  0  0  0  0
 15 18  1  0  0  0  0
 16 15  2  0  0  0  0
 17 12  1  0  0  0  0
 19 20  1  0  0  0  0
 19 11  1  0  0  0  0
 19 22  1  0  0  0  0
 21 19  1  0  0  0  0
 23 24  2  0  0  0  0
 23 27  1  0  0  0  0
 25 26  1  0  0  0  0
 25 23  1  0  0  0  0
 27 28  2  0  0  0  0
 27 34  1  0  0  0  0
 28 30  1  0  0  0  0
 29 28  1  0  0  0  0
 30 32  2  0  0  0  0
 30 31  1  0  0  0  0
 32 33  1  0  0  0  0
 34 32  1  0  0  0  0
M  END
>  <minimizedAffinity>
-5.36307764

$$$$
