
 OpenBabel03252503193D

 38 41  0  0  0  0  0  0  0  0999 V2000
   45.4530   34.1780   40.7380 C   0  0  0  0  0  0  0  0  0  0  0  0
   44.1130   34.3710   40.5640 C   0  0  0  0  0  0  0  0  0  0  0  0
   43.7990   33.6770   39.4450 N   0  0  0  0  0  0  0  0  0  0  0  0
   44.8900   33.0970   38.9680 C   0  0  0  0  0  0  0  0  0  0  0  0
   45.9260   33.4050   39.7700 N   0  0  0  0  0  0  0  0  0  0  0  0
   45.0760   32.2700   37.8270 N   0  0  0  0  0  0  0  0  0  0  0  0
   43.4400   34.9400   41.1640 H   0  0  0  0  0  0  0  0  0  0  0  0
   45.9690   32.2200   37.2980 H   0  0  0  0  0  0  0  0  0  0  0  0
   44.3200   31.6580   37.4480 H   0  0  0  0  0  0  0  0  0  0  0  0
   42.4900   33.5490   38.8140 C   0  0  0  0  0  0  0  0  0  0  0  0
   42.1880   32.4900   38.7650 H   0  0  0  0  0  0  0  0  0  0  0  0
   42.6020   33.9410   37.7820 H   0  0  0  0  0  0  0  0  0  0  0  0
   41.4460   34.2770   39.5600 C   0  0  0  0  0  0  0  0  0  0  0  0
   40.9180   35.5340   39.3930 C   0  0  0  0  0  0  0  0  0  0  0  0
   41.2140   36.2220   38.6360 H   0  0  0  0  0  0  0  0  0  0  0  0
   39.9700   35.7100   40.3670 C   0  0  0  0  0  0  0  0  0  0  0  0
   39.3910   36.6240   40.4670 H   0  0  0  0  0  0  0  0  0  0  0  0
   39.9460   34.5460   41.1040 C   0  0  0  0  0  0  0  0  0  0  0  0
   39.2980   34.3790   41.9460 H   0  0  0  0  0  0  0  0  0  0  0  0
   40.8300   33.7200   40.6020 O   0  0  0  0  0  0  0  0  0  0  0  0
   46.3000   34.7440   41.8500 C   0  0  0  0  0  0  0  0  0  0  0  0
   47.5010   35.0990   41.7270 O   0  0  0  0  0  0  0  0  0  0  0  0
   45.1070   36.1140   43.5050 C   0  0  0  0  0  0  0  0  0  0  0  0
   45.7390   34.9060   43.1540 C   0  0  0  0  0  0  0  0  0  0  0  0
   45.7520   33.9540   44.1580 C   0  0  0  0  0  0  0  0  0  0  0  0
   45.2170   34.1440   45.3650 N   0  0  0  0  0  0  0  0  0  0  0  0
   44.6150   35.3430   45.6470 C   0  0  0  0  0  0  0  0  0  0  0  0
   44.5700   36.3040   44.7180 N   0  0  0  0  0  0  0  0  0  0  0  0
   45.0350   36.9380   42.7980 H   0  0  0  0  0  0  0  0  0  0  0  0
   44.1720   35.5200   46.6230 H   0  0  0  0  0  0  0  0  0  0  0  0
   46.3790   32.7010   43.8810 C   0  0  0  0  0  0  0  0  0  0  0  0
   47.6390   32.2060   43.9480 C   0  0  0  0  0  0  0  0  0  0  0  0
   47.9470   30.9740   43.6220 C   0  0  0  0  0  0  0  0  0  0  0  0
   46.9270   30.2080   43.2090 C   0  0  0  0  0  0  0  0  0  0  0  0
   45.4650   31.2850   43.2870 S   0  0  0  0  0  0  0  0  0  0  0  0
   48.3760   32.9540   44.3060 H   0  0  0  0  0  0  0  0  0  0  0  0
   48.9330   30.5270   43.6560 H   0  0  0  0  0  0  0  0  0  0  0  0
   46.9340   29.0960   42.8680 H   0  0  0  0  0  0  0  0  0  0  0  0
  1 21  1  0  0  0  0
  2  1  2  0  0  0  0
  2  7  1  0  0  0  0
  3  2  1  0  0  0  0
  4  3  1  0  0  0  0
  4  5  2  0  0  0  0
  5  1  1  0  0  0  0
  6  4  1  0  0  0  0
  8  6  1  0  0  0  0
  9  6  1  0  0  0  0
 10  3  1  0  0  0  0
 10 13  1  0  0  0  0
 11 10  1  0  0  0  0
 12 10  1  0  0  0  0
 13 20  1  0  0  0  0
 14 13  2  0  0  0  0
 14 16  1  0  0  0  0
 15 14  1  0  0  0  0
 16 17  1  0  0  0  0
 16 18  2  0  0  0  0
 18 19  1  0  0  0  0
 20 18  1  0  0  0  0
 21 24  1  0  0  0  0
 22 21  2  0  0  0  0
 23 28  1  0  0  0  0
 24 23  2  0  0  0  0
 24 25  1  0  0  0  0
 25 26  2  0  0  0  0
 26 27  1  0  0  0  0
 27 30  1  0  0  0  0
 28 27  2  0  0  0  0
 29 23  1  0  0  0  0
 31 32  2  0  0  0  0
 31 25  1  0  0  0  0
 32 36  1  0  0  0  0
 33 37  1  0  0  0  0
 33 32  1  0  0  0  0
 34 35  1  0  0  0  0
 34 33  2  0  0  0  0
 35 31  1  0  0  0  0
 38 34  1  0  0  0  0
M  END
>  <minimizedAffinity>
-5.6105628

>  <minimizedRMSD>
2.03091812

$$$$
