
 OpenBabel03252505403D

 27 29  0  0  1  0  0  0  0  0999 V2000
   45.9690   32.6980   43.8580 C   0  0  1  0  0  0  0  0  0  0  0  0
   46.1130   33.9870   44.6800 C   0  0  0  0  0  0  0  0  0  0  0  0
   46.1370   33.9850   43.1870 C   0  0  1  0  0  0  0  0  0  0  0  0
   44.9640   32.2220   43.8820 H   0  0  0  0  0  0  0  0  0  0  0  0
   47.0340   34.0810   45.2730 H   0  0  0  0  0  0  0  0  0  0  0  0
   45.1890   34.2750   45.2190 H   0  0  0  0  0  0  0  0  0  0  0  0
   45.2060   34.4240   42.7180 H   0  0  0  0  0  0  0  0  0  0  0  0
   47.0570   31.7150   44.0360 C   0  0  0  0  0  0  0  0  0  0  0  0
   47.0330   30.9640   45.2390 C   0  0  0  0  0  0  0  0  0  0  0  0
   48.0280   30.0200   45.4260 C   0  0  0  0  0  0  0  0  0  0  0  0
   48.9700   29.8720   44.4420 N   0  0  0  0  0  0  0  0  0  0  0  0
   48.9530   30.6070   43.3180 C   0  0  0  0  0  0  0  0  0  0  0  0
   47.9910   31.5270   43.1240 N   0  0  0  0  0  0  0  0  0  0  0  0
   46.3170   31.0520   46.0460 H   0  0  0  0  0  0  0  0  0  0  0  0
   48.0580   29.4230   46.3200 H   0  0  0  0  0  0  0  0  0  0  0  0
   50.0700   30.2860   42.3750 C   0  0  0  0  0  0  0  0  0  0  0  0
   49.9700   30.9940   41.2040 F   0  0  0  0  0  0  0  0  0  0  0  0
   50.0660   28.9210   42.0770 F   0  0  0  0  0  0  0  0  0  0  0  0
   51.2820   30.5300   43.0160 F   0  0  0  0  0  0  0  0  0  0  0  0
   47.4320   34.5020   42.6650 C   0  0  0  0  0  0  0  0  0  0  0  0
   47.5060   34.9600   41.3640 C   0  0  0  0  0  0  0  0  0  0  0  0
   46.7520   35.0290   40.5650 H   0  0  0  0  0  0  0  0  0  0  0  0
   48.8050   35.3850   41.1250 C   0  0  0  0  0  0  0  0  0  0  0  0
   49.2750   35.8060   40.2430 H   0  0  0  0  0  0  0  0  0  0  0  0
   49.4550   35.1610   42.3060 C   0  0  0  0  0  0  0  0  0  0  0  0
   50.5000   35.3770   42.4850 H   0  0  0  0  0  0  0  0  0  0  0  0
   48.6320   34.6530   43.1620 O   0  0  0  0  0  0  0  0  0  0  0  0
  1  4  1  6  0  0  0
  1  8  1  0  0  0  0
  1  2  1  0  0  0  0
  2  6  1  0  0  0  0
  2  5  1  0  0  0  0
  3  7  1  6  0  0  0
  3  1  1  0  0  0  0
  3  2  1  0  0  0  0
  8  9  1  0  0  0  0
  9 10  2  0  0  0  0
  9 14  1  0  0  0  0
 10 15  1  0  0  0  0
 11 10  1  0  0  0  0
 12 11  2  0  0  0  0
 13 12  1  0  0  0  0
 13  8  2  0  0  0  0
 16 19  1  0  0  0  0
 16 12  1  0  0  0  0
 17 16  1  0  0  0  0
 18 16  1  0  0  0  0
 20 27  1  0  0  0  0
 20  3  1  0  0  0  0
 21 20  2  0  0  0  0
 22 21  1  0  0  0  0
 23 21  1  0  0  0  0
 23 25  2  0  0  0  0
 24 23  1  0  0  0  0
 25 26  1  0  0  0  0
 25 27  1  0  0  0  0
M  END
>  <minimizedAffinity>
-3.64098215

>  <minimizedRMSD>
4.40532017

$$$$
