
 OpenBabel03242523133D

 45 49  0  0  1  0  0  0  0  0999 V2000
   40.7810   34.0580   39.2490 C   0  0  0  0  0  0  0  0  0  0  0  0
   40.4400   32.7540   39.6120 C   0  0  0  0  0  0  0  0  0  0  0  0
   39.4210   32.5510   40.4930 C   0  0  0  0  0  0  0  0  0  0  0  0
   38.7850   33.6610   40.9790 N   0  0  0  0  0  0  0  0  0  0  0  0
   39.1140   34.9110   40.6300 C   0  0  0  0  0  0  0  0  0  0  0  0
   40.0940   35.0970   39.7810 N   0  0  0  0  0  0  0  0  0  0  0  0
   41.5930   34.2260   38.5460 H   0  0  0  0  0  0  0  0  0  0  0  0
   38.6500   35.8220   40.9790 H   0  0  0  0  0  0  0  0  0  0  0  0
   41.1950   31.7190   39.0610 N   0  0  0  0  0  0  0  0  0  0  0  0
   40.8160   31.0700   37.8470 C   0  0  0  0  0  0  0  0  0  0  0  0
   41.8260   30.1000   37.3070 C   0  0  0  0  0  0  0  0  0  0  0  0
   43.1600   30.5050   37.4240 N   0  0  0  0  0  0  0  0  0  0  0  0
   43.5260   31.0960   38.6140 C   0  0  0  0  0  0  0  0  0  0  0  0
   42.3810   31.1860   39.5990 C   0  0  0  0  0  0  0  0  0  0  0  0
   40.4930   31.7780   37.0440 H   0  0  0  0  0  0  0  0  0  0  0  0
   39.8930   30.4730   38.0800 H   0  0  0  0  0  0  0  0  0  0  0  0
   41.6820   29.1100   37.8080 H   0  0  0  0  0  0  0  0  0  0  0  0
   41.5520   29.9100   36.2400 H   0  0  0  0  0  0  0  0  0  0  0  0
   43.5880   30.8320   36.5400 H   0  0  0  0  0  0  0  0  0  0  0  0
   43.9940   32.1000   38.5470 H   0  0  0  0  0  0  0  0  0  0  0  0
   44.3040   30.4570   39.1250 H   0  0  0  0  0  0  0  0  0  0  0  0
   42.7510   31.8500   40.4300 H   0  0  0  0  0  0  0  0  0  0  0  0
   42.1920   30.1970   40.0740 H   0  0  0  0  0  0  0  0  0  0  0  0
   37.5440   31.1370   40.5460 C   0  0  0  0  0  0  0  0  0  0  0  0
   38.8340   31.4120   41.0480 C   0  0  0  0  0  0  0  0  0  0  0  0
   39.1920   30.5070   42.0180 C   0  0  0  0  0  0  0  0  0  0  0  0
   38.4320   29.4720   42.4680 C   0  0  0  0  0  0  0  0  0  0  0  0
   37.1700   29.2770   41.9220 C   0  0  0  0  0  0  0  0  0  0  0  0
   36.7230   30.1200   40.9480 C   0  0  0  0  0  0  0  0  0  0  0  0
   36.6660   28.1690   42.5890 O   0  0  0  0  0  0  0  0  0  0  0  0
   37.6290   27.6620   43.4950 C   0  0  2  0  0  0  0  0  0  0  0  0
   38.7520   28.5360   43.4390 O   0  0  0  0  0  0  0  0  0  0  0  0
   36.9670   31.6620   39.7540 H   0  0  0  0  0  0  0  0  0  0  0  0
   40.1460   30.6930   42.4040 H   0  0  0  0  0  0  0  0  0  0  0  0
   35.7440   29.8720   40.6030 H   0  0  0  0  0  0  0  0  0  0  0  0
   37.2740   27.5910   44.5310 H   0  0  0  0  0  0  0  0  0  0  0  0
   38.0050   26.3990   43.0100 O   0  0  0  0  0  0  0  0  0  0  0  0
   37.5100   25.7830   41.8730 C   0  0  0  0  0  0  0  0  0  0  0  0
   36.8090   24.5900   42.0790 C   0  0  0  0  0  0  0  0  0  0  0  0
   36.5300   23.9780   42.9270 H   0  0  0  0  0  0  0  0  0  0  0  0
   36.4180   24.1680   40.8030 C   0  0  0  0  0  0  0  0  0  0  0  0
   35.8590   23.3180   40.3900 H   0  0  0  0  0  0  0  0  0  0  0  0
   36.9000   25.1210   39.9120 C   0  0  0  0  0  0  0  0  0  0  0  0
   36.8110   25.1630   38.8350 H   0  0  0  0  0  0  0  0  0  0  0  0
   37.5310   26.0440   40.5860 O   0  0  0  0  0  0  0  0  0  0  0  0
  1  2  2  0  0  0  0
  1  6  1  0  0  0  0
  2  3  1  0  0  0  0
  3  4  2  0  0  0  0
  3 25  1  0  0  0  0
  5  8  1  0  0  0  0
  5  4  1  0  0  0  0
  6  5  2  0  0  0  0
  7  1  1  0  0  0  0
  9 14  1  0  0  0  0
  9  2  1  0  0  0  0
 10 16  1  0  0  0  0
 10  9  1  0  0  0  0
 11 12  1  0  0  0  0
 11 17  1  0  0  0  0
 11 10  1  0  0  0  0
 12 13  1  0  0  0  0
 13 21  1  0  0  0  0
 13 14  1  0  0  0  0
 14 23  1  0  0  0  0
 14 22  1  0  0  0  0
 15 10  1  0  0  0  0
 18 11  1  0  0  0  0
 19 12  1  0  0  0  0
 20 13  1  0  0  0  0
 24 29  2  0  0  0  0
 24 25  1  0  0  0  0
 25 26  2  0  0  0  0
 26 34  1  0  0  0  0
 26 27  1  0  0  0  0
 27 32  1  0  0  0  0
 28 27  2  0  0  0  0
 28 30  1  0  0  0  0
 29 28  1  0  0  0  0
 30 31  1  0  0  0  0
 31 36  1  1  0  0  0
 32 31  1  0  0  0  0
 33 24  1  0  0  0  0
 35 29  1  0  0  0  0
 37 31  1  0  0  0  0
 38 39  2  0  0  0  0
 38 37  1  0  0  0  0
 39 40  1  0  0  0  0
 41 39  1  0  0  0  0
 42 41  1  0  0  0  0
 43 45  1  0  0  0  0
 43 41  2  0  0  0  0
 44 43  1  0  0  0  0
 45 38  1  0  0  0  0
M  END
>  <minimizedAffinity>
-6.19834614

$$$$

 OpenBabel03242523133D

 45 49  0  0  1  0  0  0  0  0999 V2000
   38.1100   32.0120   37.6930 C   0  0  0  0  0  0  0  0  0  0  0  0
   38.4950   31.4530   38.9130 C   0  0  0  0  0  0  0  0  0  0  0  0
   38.1510   30.1650   39.1960 C   0  0  0  0  0  0  0  0  0  0  0  0
   37.4350   29.4870   38.2470 N   0  0  0  0  0  0  0  0  0  0  0  0
   37.0660   30.0250   37.0770 C   0  0  0  0  0  0  0  0  0  0  0  0
   37.4030   31.2630   36.8130 N   0  0  0  0  0  0  0  0  0  0  0  0
   38.3830   33.0380   37.4610 H   0  0  0  0  0  0  0  0  0  0  0  0
   36.5020   29.5410   36.2930 H   0  0  0  0  0  0  0  0  0  0  0  0
   39.1970   32.2710   39.7970 N   0  0  0  0  0  0  0  0  0  0  0  0
   40.6240   32.3270   39.8040 C   0  0  0  0  0  0  0  0  0  0  0  0
   41.2110   33.3820   40.6970 C   0  0  0  0  0  0  0  0  0  0  0  0
   40.5240   34.6010   40.7070 N   0  0  0  0  0  0  0  0  0  0  0  0
   39.1480   34.5360   40.7390 C   0  0  0  0  0  0  0  0  0  0  0  0
   38.6290   33.1160   40.7700 C   0  0  0  0  0  0  0  0  0  0  0  0
   41.0740   32.3930   38.7820 H   0  0  0  0  0  0  0  0  0  0  0  0
   40.9800   31.3380   40.2020 H   0  0  0  0  0  0  0  0  0  0  0  0
   41.2840   32.9760   41.7370 H   0  0  0  0  0  0  0  0  0  0  0  0
   42.2740   33.5180   40.3800 H   0  0  0  0  0  0  0  0  0  0  0  0
   40.9860   35.3580   40.1730 H   0  0  0  0  0  0  0  0  0  0  0  0
   38.6060   35.0770   39.9360 H   0  0  0  0  0  0  0  0  0  0  0  0
   38.7740   35.0060   41.6950 H   0  0  0  0  0  0  0  0  0  0  0  0
   37.5190   33.1970   40.5960 H   0  0  0  0  0  0  0  0  0  0  0  0
   38.7380   32.6780   41.7870 H   0  0  0  0  0  0  0  0  0  0  0  0
   37.5820   29.6280   41.4120 C   0  0  0  0  0  0  0  0  0  0  0  0
   38.3740   29.3210   40.2860 C   0  0  0  0  0  0  0  0  0  0  0  0
   39.2290   28.2780   40.5490 C   0  0  0  0  0  0  0  0  0  0  0  0
   39.3340   27.6060   41.7270 C   0  0  0  0  0  0  0  0  0  0  0  0
   38.5180   27.9780   42.7890 C   0  0  0  0  0  0  0  0  0  0  0  0
   37.6320   29.0010   42.6270 C   0  0  0  0  0  0  0  0  0  0  0  0
   38.8720   27.1200   43.8210 O   0  0  0  0  0  0  0  0  0  0  0  0
   39.8550   26.2010   43.3800 C   0  0  2  0  0  0  0  0  0  0  0  0
   40.1760   26.5500   42.0370 O   0  0  0  0  0  0  0  0  0  0  0  0
   36.7910   30.4000   41.5310 H   0  0  0  0  0  0  0  0  0  0  0  0
   39.8260   28.0340   39.7260 H   0  0  0  0  0  0  0  0  0  0  0  0
   37.0590   29.1950   43.5060 H   0  0  0  0  0  0  0  0  0  0  0  0
   40.7700   26.2010   43.9850 H   0  0  0  0  0  0  0  0  0  0  0  0
   39.2500   24.9340   43.3920 O   0  0  0  0  0  0  0  0  0  0  0  0
   38.5900   24.3370   42.3310 C   0  0  0  0  0  0  0  0  0  0  0  0
   37.2250   24.6240   42.2190 C   0  0  0  0  0  0  0  0  0  0  0  0
   36.4980   25.2160   42.7610 H   0  0  0  0  0  0  0  0  0  0  0  0
   36.7910   23.9170   41.0920 C   0  0  0  0  0  0  0  0  0  0  0  0
   35.8400   23.7850   40.5610 H   0  0  0  0  0  0  0  0  0  0  0  0
   37.9070   23.2520   40.5960 C   0  0  0  0  0  0  0  0  0  0  0  0
   37.9940   22.6000   39.7370 H   0  0  0  0  0  0  0  0  0  0  0  0
   38.9330   23.5290   41.3550 O   0  0  0  0  0  0  0  0  0  0  0  0
  1  2  1  0  0  0  0
  2  3  2  0  0  0  0
  2  9  1  0  0  0  0
  3 25  1  0  0  0  0
  4  3  1  0  0  0  0
  5  4  2  0  0  0  0
  6  5  1  0  0  0  0
  6  1  2  0  0  0  0
  7  1  1  0  0  0  0
  8  5  1  0  0  0  0
  9 10  1  0  0  0  0
  9 14  1  0  0  0  0
 10 16  1  0  0  0  0
 10 11  1  0  0  0  0
 11 12  1  0  0  0  0
 11 17  1  0  0  0  0
 12 13  1  0  0  0  0
 13 14  1  0  0  0  0
 13 21  1  0  0  0  0
 14 23  1  0  0  0  0
 15 10  1  0  0  0  0
 18 11  1  0  0  0  0
 19 12  1  0  0  0  0
 20 13  1  0  0  0  0
 22 14  1  0  0  0  0
 24 33  1  0  0  0  0
 24 29  1  0  0  0  0
 25 26  1  0  0  0  0
 25 24  2  0  0  0  0
 26 27  2  0  0  0  0
 27 32  1  0  0  0  0
 27 28  1  0  0  0  0
 28 30  1  0  0  0  0
 29 28  2  0  0  0  0
 29 35  1  0  0  0  0
 31 37  1  0  0  0  0
 31 30  1  0  0  0  0
 31 36  1  1  0  0  0
 32 31  1  0  0  0  0
 34 26  1  0  0  0  0
 38 37  1  0  0  0  0
 39 38  2  0  0  0  0
 39 40  1  0  0  0  0
 41 39  1  0  0  0  0
 42 41  1  0  0  0  0
 43 41  2  0  0  0  0
 43 45  1  0  0  0  0
 44 43  1  0  0  0  0
 45 38  1  0  0  0  0
M  END
>  <minimizedAffinity>
-6.04751062

$$$$

 OpenBabel03242523133D

 45 49  0  0  1  0  0  0  0  0999 V2000
   37.2710   32.2090   39.0470 C   0  0  0  0  0  0  0  0  0  0  0  0
   37.3630   30.9150   39.5620 C   0  0  0  0  0  0  0  0  0  0  0  0
   38.1520   30.6830   40.6480 C   0  0  0  0  0  0  0  0  0  0  0  0
   38.8190   31.7560   41.1760 N   0  0  0  0  0  0  0  0  0  0  0  0
   38.7300   32.9960   40.6800 C   0  0  0  0  0  0  0  0  0  0  0  0
   37.9680   33.2100   39.6360 N   0  0  0  0  0  0  0  0  0  0  0  0
   36.6420   32.4000   38.1810 H   0  0  0  0  0  0  0  0  0  0  0  0
   39.2320   33.8780   41.0520 H   0  0  0  0  0  0  0  0  0  0  0  0
   36.6500   29.9140   38.9040 N   0  0  0  0  0  0  0  0  0  0  0  0
   35.3890   29.4440   39.3840 C   0  0  0  0  0  0  0  0  0  0  0  0
   34.6800   28.4900   38.4670 C   0  0  0  0  0  0  0  0  0  0  0  0
   34.7710   28.7970   37.1050 N   0  0  0  0  0  0  0  0  0  0  0  0
   36.0010   29.2120   36.6440 C   0  0  0  0  0  0  0  0  0  0  0  0
   37.0530   29.2470   37.7310 C   0  0  0  0  0  0  0  0  0  0  0  0
   34.6970   30.2630   39.6980 H   0  0  0  0  0  0  0  0  0  0  0  0
   35.6000   28.8780   40.3320 H   0  0  0  0  0  0  0  0  0  0  0  0
   35.0650   27.4550   38.6520 H   0  0  0  0  0  0  0  0  0  0  0  0
   33.6160   28.4500   38.8040 H   0  0  0  0  0  0  0  0  0  0  0  0
   33.9110   29.2050   36.6990 H   0  0  0  0  0  0  0  0  0  0  0  0
   36.0300   30.1880   36.1140 H   0  0  0  0  0  0  0  0  0  0  0  0
   36.3870   28.4700   35.8860 H   0  0  0  0  0  0  0  0  0  0  0  0
   37.9360   29.7810   37.2790 H   0  0  0  0  0  0  0  0  0  0  0  0
   37.4140   28.2210   37.9630 H   0  0  0  0  0  0  0  0  0  0  0  0
   37.8780   29.5450   42.6870 C   0  0  0  0  0  0  0  0  0  0  0  0
   38.4550   29.5450   41.3990 C   0  0  0  0  0  0  0  0  0  0  0  0
   39.2350   28.4310   41.2040 C   0  0  0  0  0  0  0  0  0  0  0  0
   39.4520   27.4370   42.1070 C   0  0  0  0  0  0  0  0  0  0  0  0
   38.8480   27.5190   43.3560 C   0  0  0  0  0  0  0  0  0  0  0  0
   38.0510   28.5860   43.6460 C   0  0  0  0  0  0  0  0  0  0  0  0
   39.2700   26.3780   44.0250 O   0  0  0  0  0  0  0  0  0  0  0  0
   40.0800   25.5840   43.1790 C   0  0  2  0  0  0  0  0  0  0  0  0
   40.2250   26.2970   41.9550 O   0  0  0  0  0  0  0  0  0  0  0  0
   37.1920   30.2840   43.1540 H   0  0  0  0  0  0  0  0  0  0  0  0
   39.6730   28.4120   40.2550 H   0  0  0  0  0  0  0  0  0  0  0  0
   37.6390   28.5400   44.6300 H   0  0  0  0  0  0  0  0  0  0  0  0
   41.0730   25.3610   43.5910 H   0  0  0  0  0  0  0  0  0  0  0  0
   39.3640   24.4010   42.9380 O   0  0  0  0  0  0  0  0  0  0  0  0
   38.5350   24.1570   41.8550 C   0  0  0  0  0  0  0  0  0  0  0  0
   37.1790   24.4410   42.0460 C   0  0  0  0  0  0  0  0  0  0  0  0
   36.5590   24.8190   42.8500 H   0  0  0  0  0  0  0  0  0  0  0  0
   36.5610   24.1170   40.8330 C   0  0  0  0  0  0  0  0  0  0  0  0
   35.5370   24.1430   40.4370 H   0  0  0  0  0  0  0  0  0  0  0  0
   37.5690   23.6620   39.9900 C   0  0  0  0  0  0  0  0  0  0  0  0
   37.5070   23.3160   38.9680 H   0  0  0  0  0  0  0  0  0  0  0  0
   38.7040   23.7040   40.6340 O   0  0  0  0  0  0  0  0  0  0  0  0
  1  2  2  0  0  0  0
  1  6  1  0  0  0  0
  2  3  1  0  0  0  0
  3  4  2  0  0  0  0
  3 25  1  0  0  0  0
  5  8  1  0  0  0  0
  5  4  1  0  0  0  0
  6  5  2  0  0  0  0
  7  1  1  0  0  0  0
  9 10  1  0  0  0  0
  9  2  1  0  0  0  0
 10 15  1  0  0  0  0
 10 16  1  0  0  0  0
 11 17  1  0  0  0  0
 11 18  1  0  0  0  0
 11 10  1  0  0  0  0
 12 11  1  0  0  0  0
 13 12  1  0  0  0  0
 13 14  1  0  0  0  0
 14 23  1  0  0  0  0
 14  9  1  0  0  0  0
 19 12  1  0  0  0  0
 20 13  1  0  0  0  0
 21 13  1  0  0  0  0
 22 14  1  0  0  0  0
 24 33  1  0  0  0  0
 24 29  1  0  0  0  0
 25 24  2  0  0  0  0
 26 25  1  0  0  0  0
 26 27  2  0  0  0  0
 27 28  1  0  0  0  0
 28 29  2  0  0  0  0
 28 30  1  0  0  0  0
 29 35  1  0  0  0  0
 31 36  1  1  0  0  0
 31 30  1  0  0  0  0
 32 27  1  0  0  0  0
 32 31  1  0  0  0  0
 34 26  1  0  0  0  0
 37 31  1  0  0  0  0
 38 39  2  0  0  0  0
 38 37  1  0  0  0  0
 39 40  1  0  0  0  0
 41 39  1  0  0  0  0
 42 41  1  0  0  0  0
 43 45  1  0  0  0  0
 43 41  2  0  0  0  0
 44 43  1  0  0  0  0
 45 38  1  0  0  0  0
M  END
>  <minimizedAffinity>
-6.0460434

$$$$

 OpenBabel03242523133D

 45 49  0  0  1  0  0  0  0  0999 V2000
   42.0300   32.5110   37.2950 C   0  0  0  0  0  0  0  0  0  0  0  0
   41.1220   32.2970   38.3340 C   0  0  0  0  0  0  0  0  0  0  0  0
   40.7440   31.0240   38.6380 C   0  0  0  0  0  0  0  0  0  0  0  0
   41.2880   30.0150   37.8900 N   0  0  0  0  0  0  0  0  0  0  0  0
   42.1590   30.2230   36.8940 C   0  0  0  0  0  0  0  0  0  0  0  0
   42.5180   31.4500   36.6090 N   0  0  0  0  0  0  0  0  0  0  0  0
   42.3360   33.5250   37.0480 H   0  0  0  0  0  0  0  0  0  0  0  0
   42.6190   29.4690   36.2710 H   0  0  0  0  0  0  0  0  0  0  0  0
   40.6260   33.4220   38.9910 N   0  0  0  0  0  0  0  0  0  0  0  0
   39.2870   33.4820   39.4830 C   0  0  0  0  0  0  0  0  0  0  0  0
   38.9710   34.6920   40.3120 C   0  0  0  0  0  0  0  0  0  0  0  0
   39.9890   35.0980   41.1820 N   0  0  0  0  0  0  0  0  0  0  0  0
   41.2740   35.0730   40.6870 C   0  0  0  0  0  0  0  0  0  0  0  0
   41.3390   34.6090   39.2480 C   0  0  0  0  0  0  0  0  0  0  0  0
   38.9650   32.5540   40.0170 H   0  0  0  0  0  0  0  0  0  0  0  0
   38.6190   33.5300   38.5800 H   0  0  0  0  0  0  0  0  0  0  0  0
   38.6930   35.5360   39.6320 H   0  0  0  0  0  0  0  0  0  0  0  0
   38.0290   34.4650   40.8680 H   0  0  0  0  0  0  0  0  0  0  0  0
   39.8220   34.8630   42.1770 H   0  0  0  0  0  0  0  0  0  0  0  0
   42.0200   34.4870   41.2650 H   0  0  0  0  0  0  0  0  0  0  0  0
   41.6910   36.1220   40.6760 H   0  0  0  0  0  0  0  0  0  0  0  0
   42.4320   34.4470   39.0330 H   0  0  0  0  0  0  0  0  0  0  0  0
   41.0180   35.4210   38.5580 H   0  0  0  0  0  0  0  0  0  0  0  0
   38.6430   30.0590   39.0660 C   0  0  0  0  0  0  0  0  0  0  0  0
   39.8870   30.4710   39.5920 C   0  0  0  0  0  0  0  0  0  0  0  0
   39.9410   30.2740   40.9500 C   0  0  0  0  0  0  0  0  0  0  0  0
   38.9490   29.7580   41.7250 C   0  0  0  0  0  0  0  0  0  0  0  0
   37.7530   29.3820   41.1260 C   0  0  0  0  0  0  0  0  0  0  0  0
   37.6010   29.5350   39.7790 C   0  0  0  0  0  0  0  0  0  0  0  0
   36.9690   28.9140   42.1700 O   0  0  0  0  0  0  0  0  0  0  0  0
   37.6950   28.9530   43.3850 C   0  0  2  0  0  0  0  0  0  0  0  0
   38.9590   29.5380   43.0940 O   0  0  0  0  0  0  0  0  0  0  0  0
   38.2820   30.0700   38.0150 H   0  0  0  0  0  0  0  0  0  0  0  0
   40.8550   30.5730   41.3600 H   0  0  0  0  0  0  0  0  0  0  0  0
   36.6460   29.2120   39.4310 H   0  0  0  0  0  0  0  0  0  0  0  0
   37.2030   29.5260   44.1810 H   0  0  0  0  0  0  0  0  0  0  0  0
   37.8860   27.6190   43.7780 O   0  0  0  0  0  0  0  0  0  0  0  0
   37.8500   26.5120   42.9460 C   0  0  0  0  0  0  0  0  0  0  0  0
   39.0860   26.0750   42.4550 C   0  0  0  0  0  0  0  0  0  0  0  0
   40.1210   26.3770   42.5480 H   0  0  0  0  0  0  0  0  0  0  0  0
   38.7910   24.9650   41.6540 C   0  0  0  0  0  0  0  0  0  0  0  0
   39.3680   24.2580   41.0440 H   0  0  0  0  0  0  0  0  0  0  0  0
   37.4120   24.8000   41.7080 C   0  0  0  0  0  0  0  0  0  0  0  0
   36.7880   24.0580   41.2280 H   0  0  0  0  0  0  0  0  0  0  0  0
   36.9070   25.7290   42.4760 O   0  0  0  0  0  0  0  0  0  0  0  0
  1  2  1  0  0  0  0
  2  3  2  0  0  0  0
  2  9  1  0  0  0  0
  3 25  1  0  0  0  0
  4  3  1  0  0  0  0
  5  4  2  0  0  0  0
  6  5  1  0  0  0  0
  6  1  2  0  0  0  0
  7  1  1  0  0  0  0
  8  5  1  0  0  0  0
  9 14  1  0  0  0  0
  9 10  1  0  0  0  0
 10 15  1  0  0  0  0
 10 11  1  0  0  0  0
 11 18  1  0  0  0  0
 11 12  1  0  0  0  0
 12 19  1  0  0  0  0
 13 12  1  0  0  0  0
 13 20  1  0  0  0  0
 14 13  1  0  0  0  0
 16 10  1  0  0  0  0
 17 11  1  0  0  0  0
 21 13  1  0  0  0  0
 22 14  1  0  0  0  0
 23 14  1  0  0  0  0
 24 25  2  0  0  0  0
 24 29  1  0  0  0  0
 25 26  1  0  0  0  0
 26 34  1  0  0  0  0
 26 27  2  0  0  0  0
 27 32  1  0  0  0  0
 28 27  1  0  0  0  0
 28 30  1  0  0  0  0
 29 28  2  0  0  0  0
 30 31  1  0  0  0  0
 31 37  1  0  0  0  0
 31 36  1  1  0  0  0
 32 31  1  0  0  0  0
 33 24  1  0  0  0  0
 35 29  1  0  0  0  0
 38 37  1  0  0  0  0
 39 40  1  0  0  0  0
 39 38  2  0  0  0  0
 41 43  2  0  0  0  0
 41 39  1  0  0  0  0
 42 41  1  0  0  0  0
 43 45  1  0  0  0  0
 44 43  1  0  0  0  0
 45 38  1  0  0  0  0
M  END
>  <minimizedAffinity>
-5.95444155

$$$$

 OpenBabel03242523133D

 45 49  0  0  1  0  0  0  0  0999 V2000
   40.8530   34.0460   39.3190 C   0  0  0  0  0  0  0  0  0  0  0  0
   40.4630   32.7480   39.6530 C   0  0  0  0  0  0  0  0  0  0  0  0
   39.4150   32.5650   40.5050 C   0  0  0  0  0  0  0  0  0  0  0  0
   38.8000   33.6880   40.9900 N   0  0  0  0  0  0  0  0  0  0  0  0
   39.1770   34.9320   40.6670 C   0  0  0  0  0  0  0  0  0  0  0  0
   40.1840   35.0980   39.8470 N   0  0  0  0  0  0  0  0  0  0  0  0
   41.6880   34.1990   38.6390 H   0  0  0  0  0  0  0  0  0  0  0  0
   38.7320   35.8520   41.0180 H   0  0  0  0  0  0  0  0  0  0  0  0
   41.2000   31.6980   39.1080 N   0  0  0  0  0  0  0  0  0  0  0  0
   42.3160   31.1240   39.7890 C   0  0  0  0  0  0  0  0  0  0  0  0
   42.8870   29.8960   39.1410 C   0  0  0  0  0  0  0  0  0  0  0  0
   41.9430   29.0130   38.6040 N   0  0  0  0  0  0  0  0  0  0  0  0
   40.8910   29.5760   37.9160 C   0  0  0  0  0  0  0  0  0  0  0  0
   40.9660   31.0860   37.8620 C   0  0  0  0  0  0  0  0  0  0  0  0
   42.1280   30.9350   40.8750 H   0  0  0  0  0  0  0  0  0  0  0  0
   43.1290   31.8990   39.7770 H   0  0  0  0  0  0  0  0  0  0  0  0
   43.6120   30.2080   38.3480 H   0  0  0  0  0  0  0  0  0  0  0  0
   43.5220   29.3920   39.9100 H   0  0  0  0  0  0  0  0  0  0  0  0
   41.7850   28.1600   39.1680 H   0  0  0  0  0  0  0  0  0  0  0  0
   39.8700   29.3000   38.2560 H   0  0  0  0  0  0  0  0  0  0  0  0
   40.9270   29.2410   36.8390 H   0  0  0  0  0  0  0  0  0  0  0  0
   39.9710   31.4220   37.4560 H   0  0  0  0  0  0  0  0  0  0  0  0
   41.7180   31.4150   37.1100 H   0  0  0  0  0  0  0  0  0  0  0  0
   37.5010   31.2000   40.4770 C   0  0  0  0  0  0  0  0  0  0  0  0
   38.7790   31.4370   41.0280 C   0  0  0  0  0  0  0  0  0  0  0  0
   39.0780   30.5160   42.0030 C   0  0  0  0  0  0  0  0  0  0  0  0
   38.2760   29.4970   42.4150 C   0  0  0  0  0  0  0  0  0  0  0  0
   37.0300   29.3390   41.8220 C   0  0  0  0  0  0  0  0  0  0  0  0
   36.6400   30.2020   40.8400 C   0  0  0  0  0  0  0  0  0  0  0  0
   36.4740   28.2400   42.4610 O   0  0  0  0  0  0  0  0  0  0  0  0
   37.3890   27.7010   43.3960 C   0  0  2  0  0  0  0  0  0  0  0  0
   38.5360   28.5450   43.3880 O   0  0  0  0  0  0  0  0  0  0  0  0
   36.9680   31.7470   39.6700 H   0  0  0  0  0  0  0  0  0  0  0  0
   40.0220   30.6740   42.4240 H   0  0  0  0  0  0  0  0  0  0  0  0
   35.6690   29.9820   40.4580 H   0  0  0  0  0  0  0  0  0  0  0  0
   36.9950   27.6310   44.4180 H   0  0  0  0  0  0  0  0  0  0  0  0
   37.7510   26.4330   42.9140 O   0  0  0  0  0  0  0  0  0  0  0  0
   39.0400   25.9340   42.8220 C   0  0  0  0  0  0  0  0  0  0  0  0
   39.5580   25.8120   41.5290 C   0  0  0  0  0  0  0  0  0  0  0  0
   39.2140   26.0090   40.5210 H   0  0  0  0  0  0  0  0  0  0  0  0
   40.8480   25.2950   41.6960 C   0  0  0  0  0  0  0  0  0  0  0  0
   41.6770   25.0120   41.0340 H   0  0  0  0  0  0  0  0  0  0  0  0
   41.0310   25.1380   43.0660 C   0  0  0  0  0  0  0  0  0  0  0  0
   41.8900   24.7670   43.6080 H   0  0  0  0  0  0  0  0  0  0  0  0
   39.9450   25.5250   43.6810 O   0  0  0  0  0  0  0  0  0  0  0  0
  1  2  2  0  0  0  0
  1  6  1  0  0  0  0
  2  3  1  0  0  0  0
  3  4  2  0  0  0  0
  3 25  1  0  0  0  0
  5  4  1  0  0  0  0
  5  8  1  0  0  0  0
  6  5  2  0  0  0  0
  7  1  1  0  0  0  0
  9  2  1  0  0  0  0
  9 10  1  0  0  0  0
 10 15  1  0  0  0  0
 11 10  1  0  0  0  0
 11 18  1  0  0  0  0
 12 11  1  0  0  0  0
 12 19  1  0  0  0  0
 13 20  1  0  0  0  0
 13 12  1  0  0  0  0
 14 13  1  0  0  0  0
 14  9  1  0  0  0  0
 16 10  1  0  0  0  0
 17 11  1  0  0  0  0
 21 13  1  0  0  0  0
 22 14  1  0  0  0  0
 23 14  1  0  0  0  0
 24 29  2  0  0  0  0
 24 25  1  0  0  0  0
 25 26  2  0  0  0  0
 26 27  1  0  0  0  0
 26 34  1  0  0  0  0
 27 32  1  0  0  0  0
 28 27  2  0  0  0  0
 28 30  1  0  0  0  0
 29 28  1  0  0  0  0
 30 31  1  0  0  0  0
 31 36  1  1  0  0  0
 32 31  1  0  0  0  0
 33 24  1  0  0  0  0
 35 29  1  0  0  0  0
 37 31  1  0  0  0  0
 38 37  1  0  0  0  0
 38 45  1  0  0  0  0
 39 41  1  0  0  0  0
 39 38  2  0  0  0  0
 40 39  1  0  0  0  0
 41 43  2  0  0  0  0
 42 41  1  0  0  0  0
 43 44  1  0  0  0  0
 43 45  1  0  0  0  0
M  END
>  <minimizedAffinity>
-5.91528368

$$$$

 OpenBabel03242523133D

 45 49  0  0  1  0  0  0  0  0999 V2000
   37.6560   31.7050   36.6790 C   0  0  0  0  0  0  0  0  0  0  0  0
   37.8470   31.3710   38.0210 C   0  0  0  0  0  0  0  0  0  0  0  0
   37.3900   30.1730   38.4810 C   0  0  0  0  0  0  0  0  0  0  0  0
   36.7590   29.3570   37.5810 N   0  0  0  0  0  0  0  0  0  0  0  0
   36.5770   29.6800   36.2950 C   0  0  0  0  0  0  0  0  0  0  0  0
   37.0210   30.8330   35.8600 N   0  0  0  0  0  0  0  0  0  0  0  0
   38.0190   32.6590   36.3050 H   0  0  0  0  0  0  0  0  0  0  0  0
   36.0870   29.0800   35.5420 H   0  0  0  0  0  0  0  0  0  0  0  0
   38.4810   32.3130   38.8300 N   0  0  0  0  0  0  0  0  0  0  0  0
   37.7460   33.2470   39.6210 C   0  0  0  0  0  0  0  0  0  0  0  0
   38.5770   34.0720   40.5600 C   0  0  0  0  0  0  0  0  0  0  0  0
   39.6210   33.3840   41.1900 N   0  0  0  0  0  0  0  0  0  0  0  0
   40.3480   32.5130   40.4090 C   0  0  0  0  0  0  0  0  0  0  0  0
   39.8720   32.4750   38.9740 C   0  0  0  0  0  0  0  0  0  0  0  0
   36.8850   32.7900   40.1680 H   0  0  0  0  0  0  0  0  0  0  0  0
   37.2690   33.9670   38.9010 H   0  0  0  0  0  0  0  0  0  0  0  0
   38.9820   34.9550   40.0050 H   0  0  0  0  0  0  0  0  0  0  0  0
   37.8740   34.5160   41.3070 H   0  0  0  0  0  0  0  0  0  0  0  0
   39.4420   33.1520   42.1830 H   0  0  0  0  0  0  0  0  0  0  0  0
   40.4220   31.4650   40.7690 H   0  0  0  0  0  0  0  0  0  0  0  0
   41.4190   32.8660   40.3540 H   0  0  0  0  0  0  0  0  0  0  0  0
   40.4050   31.6010   38.5030 H   0  0  0  0  0  0  0  0  0  0  0  0
   40.2260   33.3720   38.4170 H   0  0  0  0  0  0  0  0  0  0  0  0
   36.1880   28.9600   40.0970 C   0  0  0  0  0  0  0  0  0  0  0  0
   37.4200   29.5400   39.7260 C   0  0  0  0  0  0  0  0  0  0  0  0
   38.3590   29.3860   40.7170 C   0  0  0  0  0  0  0  0  0  0  0  0
   38.1670   28.7680   41.9140 C   0  0  0  0  0  0  0  0  0  0  0  0
   36.9190   28.2280   42.2000 C   0  0  0  0  0  0  0  0  0  0  0  0
   35.9190   28.3260   41.2780 C   0  0  0  0  0  0  0  0  0  0  0  0
   37.0530   27.6910   43.4720 O   0  0  0  0  0  0  0  0  0  0  0  0
   38.3800   27.8530   43.9370 C   0  0  2  0  0  0  0  0  0  0  0  0
   39.0820   28.5870   42.9390 O   0  0  0  0  0  0  0  0  0  0  0  0
   35.2360   28.8980   39.5260 H   0  0  0  0  0  0  0  0  0  0  0  0
   39.2810   29.8090   40.4620 H   0  0  0  0  0  0  0  0  0  0  0  0
   35.0090   27.8750   41.6050 H   0  0  0  0  0  0  0  0  0  0  0  0
   38.4560   28.3790   44.8970 H   0  0  0  0  0  0  0  0  0  0  0  0
   38.9300   26.5650   44.0300 O   0  0  0  0  0  0  0  0  0  0  0  0
   40.2560   26.2270   43.8140 C   0  0  0  0  0  0  0  0  0  0  0  0
   40.4950   25.3220   42.7740 C   0  0  0  0  0  0  0  0  0  0  0  0
   39.9000   24.7790   42.0510 H   0  0  0  0  0  0  0  0  0  0  0  0
   41.8840   25.1430   42.7550 C   0  0  0  0  0  0  0  0  0  0  0  0
   42.5950   24.5570   42.1590 H   0  0  0  0  0  0  0  0  0  0  0  0
   42.3940   25.9420   43.7720 C   0  0  0  0  0  0  0  0  0  0  0  0
   43.4190   26.0870   44.0850 H   0  0  0  0  0  0  0  0  0  0  0  0
   41.4030   26.5560   44.3610 O   0  0  0  0  0  0  0  0  0  0  0  0
  1  2  1  0  0  0  0
  2  3  2  0  0  0  0
  2  9  1  0  0  0  0
  3 25  1  0  0  0  0
  4  3  1  0  0  0  0
  5  4  2  0  0  0  0
  6  5  1  0  0  0  0
  6  1  2  0  0  0  0
  7  1  1  0  0  0  0
  8  5  1  0  0  0  0
  9 14  1  0  0  0  0
  9 10  1  0  0  0  0
 10 15  1  0  0  0  0
 10 11  1  0  0  0  0
 11 12  1  0  0  0  0
 11 18  1  0  0  0  0
 12 19  1  0  0  0  0
 13 20  1  0  0  0  0
 13 12  1  0  0  0  0
 14 13  1  0  0  0  0
 16 10  1  0  0  0  0
 17 11  1  0  0  0  0
 21 13  1  0  0  0  0
 22 14  1  0  0  0  0
 23 14  1  0  0  0  0
 24 29  1  0  0  0  0
 25 24  2  0  0  0  0
 25 26  1  0  0  0  0
 26 27  2  0  0  0  0
 27 28  1  0  0  0  0
 27 32  1  0  0  0  0
 28 30  1  0  0  0  0
 29 35  1  0  0  0  0
 29 28  2  0  0  0  0
 30 31  1  0  0  0  0
 31 37  1  0  0  0  0
 31 36  1  1  0  0  0
 32 31  1  0  0  0  0
 33 24  1  0  0  0  0
 34 26  1  0  0  0  0
 38 37  1  0  0  0  0
 38 45  1  0  0  0  0
 39 38  2  0  0  0  0
 40 39  1  0  0  0  0
 41 39  1  0  0  0  0
 41 43  2  0  0  0  0
 42 41  1  0  0  0  0
 43 44  1  0  0  0  0
 43 45  1  0  0  0  0
M  END
>  <minimizedAffinity>
-5.8456192

$$$$

 OpenBabel03242523133D

 45 49  0  0  1  0  0  0  0  0999 V2000
   38.8310   23.4330   40.3900 C   0  0  0  0  0  0  0  0  0  0  0  0
   38.8620   24.7810   40.7510 C   0  0  0  0  0  0  0  0  0  0  0  0
   37.8830   25.6160   40.3000 C   0  0  0  0  0  0  0  0  0  0  0  0
   36.9140   25.0680   39.5030 N   0  0  0  0  0  0  0  0  0  0  0  0
   36.8860   23.7750   39.1580 C   0  0  0  0  0  0  0  0  0  0  0  0
   37.8300   22.9800   39.5980 N   0  0  0  0  0  0  0  0  0  0  0  0
   39.6070   22.7630   40.7480 H   0  0  0  0  0  0  0  0  0  0  0  0
   36.1500   23.2890   38.5350 H   0  0  0  0  0  0  0  0  0  0  0  0
   39.9270   25.2060   41.5440 N   0  0  0  0  0  0  0  0  0  0  0  0
   39.9430   25.0090   42.9580 C   0  0  0  0  0  0  0  0  0  0  0  0
   41.2340   25.3700   43.6320 C   0  0  0  0  0  0  0  0  0  0  0  0
   42.3910   25.0220   42.9250 N   0  0  0  0  0  0  0  0  0  0  0  0
   42.3800   25.2520   41.5670 C   0  0  0  0  0  0  0  0  0  0  0  0
   41.0830   25.8670   41.0880 C   0  0  0  0  0  0  0  0  0  0  0  0
   39.6180   23.9850   43.2700 H   0  0  0  0  0  0  0  0  0  0  0  0
   39.1580   25.6920   43.3840 H   0  0  0  0  0  0  0  0  0  0  0  0
   41.2360   26.4680   43.8480 H   0  0  0  0  0  0  0  0  0  0  0  0
   41.2160   24.8920   44.6410 H   0  0  0  0  0  0  0  0  0  0  0  0
   42.8870   24.1930   43.2980 H   0  0  0  0  0  0  0  0  0  0  0  0
   42.6040   24.3830   40.9130 H   0  0  0  0  0  0  0  0  0  0  0  0
   43.1770   26.0090   41.3100 H   0  0  0  0  0  0  0  0  0  0  0  0
   41.1260   25.8200   39.9630 H   0  0  0  0  0  0  0  0  0  0  0  0
   41.0450   26.9510   41.3370 H   0  0  0  0  0  0  0  0  0  0  0  0
   36.7030   27.2480   41.5110 C   0  0  0  0  0  0  0  0  0  0  0  0
   37.6160   26.9760   40.4710 C   0  0  0  0  0  0  0  0  0  0  0  0
   37.9940   28.1290   39.8270 C   0  0  0  0  0  0  0  0  0  0  0  0
   37.5650   29.3870   40.1180 C   0  0  0  0  0  0  0  0  0  0  0  0
   36.6600   29.5650   41.1580 C   0  0  0  0  0  0  0  0  0  0  0  0
   36.2260   28.4810   41.8620 C   0  0  0  0  0  0  0  0  0  0  0  0
   36.4250   30.9320   41.1890 O   0  0  0  0  0  0  0  0  0  0  0  0
   37.2160   31.5880   40.2150 C   0  0  2  0  0  0  0  0  0  0  0  0
   37.9190   30.5760   39.5010 O   0  0  0  0  0  0  0  0  0  0  0  0
   36.2180   26.5490   42.2270 H   0  0  0  0  0  0  0  0  0  0  0  0
   38.6710   27.9490   39.0510 H   0  0  0  0  0  0  0  0  0  0  0  0
   35.5380   28.7380   42.6360 H   0  0  0  0  0  0  0  0  0  0  0  0
   36.6400   32.1990   39.5080 H   0  0  0  0  0  0  0  0  0  0  0  0
   38.1400   32.3780   40.9180 O   0  0  0  0  0  0  0  0  0  0  0  0
   39.1390   33.1560   40.3570 C   0  0  0  0  0  0  0  0  0  0  0  0
   38.9920   34.5400   40.5040 C   0  0  0  0  0  0  0  0  0  0  0  0
   38.2750   35.2120   40.9580 H   0  0  0  0  0  0  0  0  0  0  0  0
   40.1060   35.0980   39.8650 C   0  0  0  0  0  0  0  0  0  0  0  0
   40.4850   36.1120   39.6830 H   0  0  0  0  0  0  0  0  0  0  0  0
   40.8510   34.0300   39.3770 C   0  0  0  0  0  0  0  0  0  0  0  0
   41.7810   34.0350   38.8240 H   0  0  0  0  0  0  0  0  0  0  0  0
   40.2440   32.9170   39.6900 O   0  0  0  0  0  0  0  0  0  0  0  0
  1  7  1  0  0  0  0
  1  2  1  0  0  0  0
  2  9  1  0  0  0  0
  3 25  1  0  0  0  0
  3  2  2  0  0  0  0
  4  3  1  0  0  0  0
  5  4  2  0  0  0  0
  5  6  1  0  0  0  0
  6  1  2  0  0  0  0
  8  5  1  0  0  0  0
  9 10  1  0  0  0  0
 10 15  1  0  0  0  0
 10 16  1  0  0  0  0
 10 11  1  0  0  0  0
 11 17  1  0  0  0  0
 11 18  1  0  0  0  0
 12 19  1  0  0  0  0
 12 11  1  0  0  0  0
 13 12  1  0  0  0  0
 14 23  1  0  0  0  0
 14  9  1  0  0  0  0
 14 13  1  0  0  0  0
 20 13  1  0  0  0  0
 21 13  1  0  0  0  0
 22 14  1  0  0  0  0
 24 29  1  0  0  0  0
 24 33  1  0  0  0  0
 25 24  2  0  0  0  0
 26 27  2  0  0  0  0
 26 25  1  0  0  0  0
 27 28  1  0  0  0  0
 28 30  1  0  0  0  0
 28 29  2  0  0  0  0
 29 35  1  0  0  0  0
 31 36  1  6  0  0  0
 31 37  1  0  0  0  0
 31 30  1  0  0  0  0
 32 27  1  0  0  0  0
 32 31  1  0  0  0  0
 34 26  1  0  0  0  0
 38 39  2  0  0  0  0
 38 37  1  0  0  0  0
 39 40  1  0  0  0  0
 41 39  1  0  0  0  0
 42 41  1  0  0  0  0
 43 45  1  0  0  0  0
 43 41  2  0  0  0  0
 44 43  1  0  0  0  0
 45 38  1  0  0  0  0
M  END
>  <minimizedAffinity>
-5.79388046

$$$$

 OpenBabel03242523133D

 45 49  0  0  1  0  0  0  0  0999 V2000
   36.7270   24.4940   40.1910 C   0  0  0  0  0  0  0  0  0  0  0  0
   37.0530   25.7900   40.5930 C   0  0  0  0  0  0  0  0  0  0  0  0
   36.7350   26.8390   39.7830 C   0  0  0  0  0  0  0  0  0  0  0  0
   36.1050   26.5490   38.6030 N   0  0  0  0  0  0  0  0  0  0  0  0
   35.7940   25.3040   38.2200 C   0  0  0  0  0  0  0  0  0  0  0  0
   36.1020   24.3020   39.0050 N   0  0  0  0  0  0  0  0  0  0  0  0
   36.9770   23.6530   40.8330 H   0  0  0  0  0  0  0  0  0  0  0  0
   35.3000   25.0160   37.3030 H   0  0  0  0  0  0  0  0  0  0  0  0
   37.7210   25.9340   41.8080 N   0  0  0  0  0  0  0  0  0  0  0  0
   39.0480   25.4460   42.0030 C   0  0  0  0  0  0  0  0  0  0  0  0
   39.6780   25.8340   43.3090 C   0  0  0  0  0  0  0  0  0  0  0  0
   39.4100   27.1410   43.7320 N   0  0  0  0  0  0  0  0  0  0  0  0
   38.1180   27.5900   43.5740 C   0  0  0  0  0  0  0  0  0  0  0  0
   37.2060   26.5480   42.9650 C   0  0  0  0  0  0  0  0  0  0  0  0
   39.7400   25.6790   41.1560 H   0  0  0  0  0  0  0  0  0  0  0  0
   38.9770   24.3240   42.0050 H   0  0  0  0  0  0  0  0  0  0  0  0
   39.3610   25.1060   44.0960 H   0  0  0  0  0  0  0  0  0  0  0  0
   40.7770   25.6600   43.2010 H   0  0  0  0  0  0  0  0  0  0  0  0
   40.1980   27.8010   43.6090 H   0  0  0  0  0  0  0  0  0  0  0  0
   37.9850   28.5330   43.0020 H   0  0  0  0  0  0  0  0  0  0  0  0
   37.6730   27.8140   44.5880 H   0  0  0  0  0  0  0  0  0  0  0  0
   36.2530   27.0940   42.7120 H   0  0  0  0  0  0  0  0  0  0  0  0
   36.9170   25.7860   43.7230 H   0  0  0  0  0  0  0  0  0  0  0  0
   35.8230   28.8840   40.5010 C   0  0  0  0  0  0  0  0  0  0  0  0
   36.9040   28.2220   39.8800 C   0  0  0  0  0  0  0  0  0  0  0  0
   37.8600   29.1160   39.4630 C   0  0  0  0  0  0  0  0  0  0  0  0
   37.8100   30.4680   39.6060 C   0  0  0  0  0  0  0  0  0  0  0  0
   36.7040   31.0380   40.2260 C   0  0  0  0  0  0  0  0  0  0  0  0
   35.7010   30.2340   40.6790 C   0  0  0  0  0  0  0  0  0  0  0  0
   36.9560   32.4030   40.2060 O   0  0  0  0  0  0  0  0  0  0  0  0
   38.2220   32.6600   39.6280 C   0  0  2  0  0  0  0  0  0  0  0  0
   38.7480   31.4060   39.2070 O   0  0  0  0  0  0  0  0  0  0  0  0
   34.9020   28.4600   40.9560 H   0  0  0  0  0  0  0  0  0  0  0  0
   38.6710   28.6460   38.9990 H   0  0  0  0  0  0  0  0  0  0  0  0
   34.9080   30.7810   41.1380 H   0  0  0  0  0  0  0  0  0  0  0  0
   38.1920   33.3480   38.7730 H   0  0  0  0  0  0  0  0  0  0  0  0
   39.0300   33.1760   40.6530 O   0  0  0  0  0  0  0  0  0  0  0  0
   40.4090   33.3120   40.6130 C   0  0  0  0  0  0  0  0  0  0  0  0
   40.8930   34.4440   39.9490 C   0  0  0  0  0  0  0  0  0  0  0  0
   40.4680   35.2920   39.4270 H   0  0  0  0  0  0  0  0  0  0  0  0
   42.2870   34.3570   40.0430 C   0  0  0  0  0  0  0  0  0  0  0  0
   43.1390   34.9620   39.7060 H   0  0  0  0  0  0  0  0  0  0  0  0
   42.5580   33.1920   40.7500 C   0  0  0  0  0  0  0  0  0  0  0  0
   43.5110   32.7650   41.0340 H   0  0  0  0  0  0  0  0  0  0  0  0
   41.4280   32.6160   41.0610 O   0  0  0  0  0  0  0  0  0  0  0  0
  1  2  1  0  0  0  0
  1  7  1  0  0  0  0
  2  9  1  0  0  0  0
  3 25  1  0  0  0  0
  3  2  2  0  0  0  0
  4  3  1  0  0  0  0
  5  4  2  0  0  0  0
  5  6  1  0  0  0  0
  6  1  2  0  0  0  0
  8  5  1  0  0  0  0
  9 10  1  0  0  0  0
  9 14  1  0  0  0  0
 10 16  1  0  0  0  0
 10 11  1  0  0  0  0
 11 12  1  0  0  0  0
 11 17  1  0  0  0  0
 13 12  1  0  0  0  0
 13 21  1  0  0  0  0
 14 13  1  0  0  0  0
 14 23  1  0  0  0  0
 15 10  1  0  0  0  0
 18 11  1  0  0  0  0
 19 12  1  0  0  0  0
 20 13  1  0  0  0  0
 22 14  1  0  0  0  0
 24 29  1  0  0  0  0
 24 33  1  0  0  0  0
 25 24  2  0  0  0  0
 26 27  2  0  0  0  0
 26 25  1  0  0  0  0
 27 28  1  0  0  0  0
 28 29  2  0  0  0  0
 29 35  1  0  0  0  0
 30 28  1  0  0  0  0
 31 36  1  6  0  0  0
 31 30  1  0  0  0  0
 31 37  1  0  0  0  0
 32 27  1  0  0  0  0
 32 31  1  0  0  0  0
 34 26  1  0  0  0  0
 38 37  1  0  0  0  0
 38 45  1  0  0  0  0
 39 41  1  0  0  0  0
 39 38  2  0  0  0  0
 40 39  1  0  0  0  0
 41 43  2  0  0  0  0
 42 41  1  0  0  0  0
 43 44  1  0  0  0  0
 43 45  1  0  0  0  0
M  END
>  <minimizedAffinity>
-5.71913004

$$$$

 OpenBabel03242523133D

 45 49  0  0  1  0  0  0  0  0999 V2000
   41.3260   32.8760   37.5730 C   0  0  0  0  0  0  0  0  0  0  0  0
   40.9760   32.2210   38.7550 C   0  0  0  0  0  0  0  0  0  0  0  0
   41.7720   31.2190   39.2230 C   0  0  0  0  0  0  0  0  0  0  0  0
   42.8860   30.9110   38.4890 N   0  0  0  0  0  0  0  0  0  0  0  0
   43.2190   31.5420   37.3560 C   0  0  0  0  0  0  0  0  0  0  0  0
   42.4490   32.5040   36.9140 N   0  0  0  0  0  0  0  0  0  0  0  0
   40.6950   33.6770   37.1950 H   0  0  0  0  0  0  0  0  0  0  0  0
   44.0820   31.3420   36.7360 H   0  0  0  0  0  0  0  0  0  0  0  0
   39.7960   32.6200   39.3810 N   0  0  0  0  0  0  0  0  0  0  0  0
   39.6860   33.8720   40.0590 C   0  0  0  0  0  0  0  0  0  0  0  0
   38.3020   34.2170   40.5280 C   0  0  0  0  0  0  0  0  0  0  0  0
   37.2730   33.8780   39.6430 N   0  0  0  0  0  0  0  0  0  0  0  0
   37.3690   32.6510   39.0220 C   0  0  0  0  0  0  0  0  0  0  0  0
   38.6000   31.8780   39.4400 C   0  0  0  0  0  0  0  0  0  0  0  0
   40.1250   34.7280   39.4910 H   0  0  0  0  0  0  0  0  0  0  0  0
   40.3240   33.7920   40.9810 H   0  0  0  0  0  0  0  0  0  0  0  0
   38.1250   33.7340   41.5220 H   0  0  0  0  0  0  0  0  0  0  0  0
   38.3020   35.3120   40.7510 H   0  0  0  0  0  0  0  0  0  0  0  0
   36.8700   34.6800   39.1270 H   0  0  0  0  0  0  0  0  0  0  0  0
   37.3290   32.6510   37.9130 H   0  0  0  0  0  0  0  0  0  0  0  0
   36.4970   32.0060   39.3340 H   0  0  0  0  0  0  0  0  0  0  0  0
   38.6630   31.0060   38.7300 H   0  0  0  0  0  0  0  0  0  0  0  0
   38.4610   31.4300   40.4490 H   0  0  0  0  0  0  0  0  0  0  0  0
   42.1580   31.0060   41.5320 C   0  0  0  0  0  0  0  0  0  0  0  0
   41.7210   30.3860   40.3420 C   0  0  0  0  0  0  0  0  0  0  0  0
   41.3910   29.0700   40.5610 C   0  0  0  0  0  0  0  0  0  0  0  0
   41.4660   28.4120   41.7490 C   0  0  0  0  0  0  0  0  0  0  0  0
   41.9140   29.0980   42.8720 C   0  0  0  0  0  0  0  0  0  0  0  0
   42.2630   30.4120   42.7590 C   0  0  0  0  0  0  0  0  0  0  0  0
   41.8800   28.1600   43.8940 O   0  0  0  0  0  0  0  0  0  0  0  0
   41.3690   26.9300   43.4140 C   0  0  2  0  0  0  0  0  0  0  0  0
   41.1420   27.0910   42.0170 O   0  0  0  0  0  0  0  0  0  0  0  0
   42.4830   32.0550   41.7030 H   0  0  0  0  0  0  0  0  0  0  0  0
   41.0630   28.5910   39.6910 H   0  0  0  0  0  0  0  0  0  0  0  0
   42.5870   30.8340   43.6830 H   0  0  0  0  0  0  0  0  0  0  0  0
   42.0360   26.0740   43.5790 H   0  0  0  0  0  0  0  0  0  0  0  0
   40.1370   26.7330   44.0580 O   0  0  0  0  0  0  0  0  0  0  0  0
   38.8990   26.6540   43.4410 C   0  0  0  0  0  0  0  0  0  0  0  0
   38.0540   27.7550   43.6220 C   0  0  0  0  0  0  0  0  0  0  0  0
   38.0990   28.7050   44.1390 H   0  0  0  0  0  0  0  0  0  0  0  0
   36.8860   27.4420   42.9160 C   0  0  0  0  0  0  0  0  0  0  0  0
   35.9240   27.9340   42.7260 H   0  0  0  0  0  0  0  0  0  0  0  0
   37.0930   26.1860   42.3580 C   0  0  0  0  0  0  0  0  0  0  0  0
   36.4340   25.5900   41.7410 H   0  0  0  0  0  0  0  0  0  0  0  0
   38.2840   25.7670   42.6940 O   0  0  0  0  0  0  0  0  0  0  0  0
  1  2  1  0  0  0  0
  2  3  2  0  0  0  0
  2  9  1  0  0  0  0
  3 25  1  0  0  0  0
  4  3  1  0  0  0  0
  5  4  2  0  0  0  0
  6  5  1  0  0  0  0
  6  1  2  0  0  0  0
  7  1  1  0  0  0  0
  8  5  1  0  0  0  0
  9 14  1  0  0  0  0
  9 10  1  0  0  0  0
 10 11  1  0  0  0  0
 10 16  1  0  0  0  0
 11 18  1  0  0  0  0
 11 17  1  0  0  0  0
 12 11  1  0  0  0  0
 13 21  1  0  0  0  0
 13 14  1  0  0  0  0
 13 12  1  0  0  0  0
 14 23  1  0  0  0  0
 15 10  1  0  0  0  0
 19 12  1  0  0  0  0
 20 13  1  0  0  0  0
 22 14  1  0  0  0  0
 24 33  1  0  0  0  0
 24 29  1  0  0  0  0
 25 26  1  0  0  0  0
 25 24  2  0  0  0  0
 26 27  2  0  0  0  0
 27 32  1  0  0  0  0
 27 28  1  0  0  0  0
 28 30  1  0  0  0  0
 29 28  2  0  0  0  0
 29 35  1  0  0  0  0
 31 36  1  1  0  0  0
 31 30  1  0  0  0  0
 31 37  1  0  0  0  0
 32 31  1  0  0  0  0
 34 26  1  0  0  0  0
 38 39  2  0  0  0  0
 38 37  1  0  0  0  0
 39 40  1  0  0  0  0
 41 39  1  0  0  0  0
 42 41  1  0  0  0  0
 43 45  1  0  0  0  0
 43 41  2  0  0  0  0
 44 43  1  0  0  0  0
 45 38  1  0  0  0  0
M  END
>  <minimizedAffinity>
-5.66320515

$$$$
