
 OpenBabel03242512333D

 19 20  0  0  0  0  0  0  0  0999 V2000
   47.2550   34.9760   41.9380 C   0  0  0  0  0  0  0  0  0  0  0  0
   48.3270   35.6630   41.8400 O   0  0  0  0  0  0  0  0  0  0  0  0
   46.4330   34.8910   43.1100 C   0  0  0  0  0  0  0  0  0  0  0  0
   45.4350   35.8800   43.2030 C   0  0  0  0  0  0  0  0  0  0  0  0
   44.6130   35.8390   44.3230 C   0  0  0  0  0  0  0  0  0  0  0  0
   44.8220   34.8540   45.2500 N   0  0  0  0  0  0  0  0  0  0  0  0
   45.7840   33.9330   45.1220 C   0  0  0  0  0  0  0  0  0  0  0  0
   46.5900   33.9430   44.0610 N   0  0  0  0  0  0  0  0  0  0  0  0
   45.2860   36.6430   42.4670 H   0  0  0  0  0  0  0  0  0  0  0  0
   43.8160   36.5680   44.4710 H   0  0  0  0  0  0  0  0  0  0  0  0
   45.9710   33.1520   45.8300 H   0  0  0  0  0  0  0  0  0  0  0  0
   46.9050   34.2450   40.6990 C   0  0  0  0  0  0  0  0  0  0  0  0
   47.6930   34.0610   39.6010 C   0  0  0  0  0  0  0  0  0  0  0  0
   48.7000   34.4200   39.4560 H   0  0  0  0  0  0  0  0  0  0  0  0
   46.9480   33.3220   38.7000 C   0  0  0  0  0  0  0  0  0  0  0  0
   47.3450   33.0360   37.7350 H   0  0  0  0  0  0  0  0  0  0  0  0
   45.7200   33.0910   39.3140 C   0  0  0  0  0  0  0  0  0  0  0  0
   45.0040   32.5180   38.7400 H   0  0  0  0  0  0  0  0  0  0  0  0
   45.7320   33.6540   40.4990 O   0  0  0  0  0  0  0  0  0  0  0  0
  1  3  1  0  0  0  0
  2  1  2  0  0  0  0
  3  4  2  0  0  0  0
  3  8  1  0  0  0  0
  4  5  1  0  0  0  0
  5 10  1  0  0  0  0
  5  6  2  0  0  0  0
  7  6  1  0  0  0  0
  7 11  1  0  0  0  0
  8  7  2  0  0  0  0
  9  4  1  0  0  0  0
 12  1  1  0  0  0  0
 13 12  2  0  0  0  0
 14 13  1  0  0  0  0
 15 17  2  0  0  0  0
 15 13  1  0  0  0  0
 16 15  1  0  0  0  0
 17 19  1  0  0  0  0
 18 17  1  0  0  0  0
 19 12  1  0  0  0  0
M  END
>  <minimizedAffinity>
-4.07223463

>  <minimizedRMSD>
0.651588738

$$$$
