
 OpenBabel03252504283D

 26 27  0  0  0  0  0  0  0  0999 V2000
   43.6840   35.5530   40.9220 O   0  0  0  0  0  0  0  0  0  0  0  0
   44.6260   34.6280   41.3090 C   0  0  0  0  0  0  0  0  0  0  0  0
   45.6500   34.9800   40.9390 H   0  0  0  0  0  0  0  0  0  0  0  0
   44.3940   33.6350   40.8980 H   0  0  0  0  0  0  0  0  0  0  0  0
   44.4660   35.6800   43.4490 C   0  0  0  0  0  0  0  0  0  0  0  0
   44.8150   34.5020   42.7670 C   0  0  0  0  0  0  0  0  0  0  0  0
   45.2740   33.4610   43.5270 C   0  0  0  0  0  0  0  0  0  0  0  0
   45.3550   33.6430   44.8420 N   0  0  0  0  0  0  0  0  0  0  0  0
   45.0250   34.7570   45.4850 C   0  0  0  0  0  0  0  0  0  0  0  0
   44.5500   35.8610   44.7940 N   0  0  0  0  0  0  0  0  0  0  0  0
   44.0820   36.5970   42.9770 H   0  0  0  0  0  0  0  0  0  0  0  0
   45.5200   32.5930   42.9320 H   0  0  0  0  0  0  0  0  0  0  0  0
   45.1610   34.7030   46.5380 H   0  0  0  0  0  0  0  0  0  0  0  0
   42.4960   35.3160   40.2520 C   0  0  0  0  0  3  0  0  0  0  0  0
   41.3610   35.6240   40.9250 C   0  0  0  0  0  3  0  0  0  0  0  0
   39.9540   35.5060   40.3740 C   0  0  0  0  0  0  0  0  0  0  0  0
   39.9690   35.7460   39.2970 H   0  0  0  0  0  0  0  0  0  0  0  0
   39.3540   36.2530   40.8910 H   0  0  0  0  0  0  0  0  0  0  0  0
   39.4980   34.1120   40.6340 C   0  0  0  0  0  0  0  0  0  0  0  0
   39.8770   33.2550   41.6410 C   0  0  0  0  0  0  0  0  0  0  0  0
   40.5910   33.4730   42.4250 H   0  0  0  0  0  0  0  0  0  0  0  0
   39.1500   32.0880   41.4140 C   0  0  0  0  0  0  0  0  0  0  0  0
   39.2060   31.1860   42.0340 H   0  0  0  0  0  0  0  0  0  0  0  0
   38.3700   32.3090   40.2800 C   0  0  0  0  0  0  0  0  0  0  0  0
   37.6920   31.5830   39.8490 H   0  0  0  0  0  0  0  0  0  0  0  0
   38.6050   33.5350   39.8390 O   0  0  0  0  0  0  0  0  0  0  0  0
  1  2  1  0  0  0  0
  2  6  1  0  0  0  0
  3  2  1  0  0  0  0
  4  2  1  0  0  0  0
  5 10  1  0  0  0  0
  6  5  2  0  0  0  0
  6  7  1  0  0  0  0
  7  8  2  0  0  0  0
  8  9  1  0  0  0  0
  9 13  1  0  0  0  0
 10  9  2  0  0  0  0
 11  5  1  0  0  0  0
 12  7  1  0  0  0  0
 14  1  1  0  0  0  0
 14 15  2  0  0  0  0
 16 19  1  0  0  0  0
 16 18  1  0  0  0  0
 16 15  1  0  0  0  0
 17 16  1  0  0  0  0
 19 20  2  0  0  0  0
 20 21  1  0  0  0  0
 22 20  1  0  0  0  0
 22 23  1  0  0  0  0
 24 22  2  0  0  0  0
 25 24  1  0  0  0  0
 26 24  1  0  0  0  0
 26 19  1  0  0  0  0
M  END
>  <minimizedAffinity>
-4.56665421

>  <minimizedRMSD>
1.612661

$$$$
