
 OpenBabel03252509263D

 29 31  0  0  1  0  0  0  0  0999 V2000
   46.6480   35.1300   41.9630 C   0  0  1  0  0  0  0  0  0  0  0  0
   48.1930   35.2700   41.9750 C   0  0  0  0  0  0  0  0  0  0  0  0
   47.3760   34.1250   41.3040 C   0  0  2  0  0  0  0  0  0  0  0  0
   46.1840   35.9930   41.4630 H   0  0  0  0  0  0  0  0  0  0  0  0
   48.6400   35.9390   41.2260 H   0  0  0  0  0  0  0  0  0  0  0  0
   48.7450   34.9770   42.8730 H   0  0  0  0  0  0  0  0  0  0  0  0
   47.4850   33.1230   41.8080 H   0  0  0  0  0  0  0  0  0  0  0  0
   44.6690   35.3410   45.1390 C   0  0  0  0  0  0  0  0  0  0  0  0
   45.1500   35.6800   43.8470 C   0  0  0  0  0  0  0  0  0  0  0  0
   46.1220   34.8700   43.3510 C   0  0  0  0  0  0  0  0  0  0  0  0
   46.6040   33.7980   44.0640 N   0  0  0  0  0  0  0  0  0  0  0  0
   46.1190   33.5120   45.2910 C   0  0  0  0  0  0  0  0  0  0  0  0
   45.1480   34.2870   45.8290 N   0  0  0  0  0  0  0  0  0  0  0  0
   43.8890   35.9750   45.5540 H   0  0  0  0  0  0  0  0  0  0  0  0
   46.4690   32.6820   45.8830 H   0  0  0  0  0  0  0  0  0  0  0  0
   44.6590   36.8030   43.1420 N   0  0  0  0  0  0  0  0  0  0  0  0
   43.7760   36.9910   42.6230 H   0  0  0  0  0  0  0  0  0  0  0  0
   45.4460   37.5090   43.2500 H   0  0  0  0  0  0  0  0  0  0  0  0
   47.4010   34.0130   39.7980 C   0  0  0  0  0  0  0  0  0  0  0  0
   48.3440   33.5710   39.4790 H   0  0  0  0  0  0  0  0  0  0  0  0
   47.2460   34.9960   39.3050 H   0  0  0  0  0  0  0  0  0  0  0  0
   46.2750   33.0850   39.4560 C   0  0  0  0  0  0  0  0  0  0  0  0
   46.3550   31.7480   39.1490 C   0  0  0  0  0  0  0  0  0  0  0  0
   47.2580   31.1770   39.1150 H   0  0  0  0  0  0  0  0  0  0  0  0
   45.0570   31.3230   38.9060 C   0  0  0  0  0  0  0  0  0  0  0  0
   44.7610   30.3160   38.6370 H   0  0  0  0  0  0  0  0  0  0  0  0
   44.2480   32.4410   39.0810 C   0  0  0  0  0  0  0  0  0  0  0  0
   43.1840   32.3500   38.9420 H   0  0  0  0  0  0  0  0  0  0  0  0
   45.0080   33.4560   39.4030 O   0  0  0  0  0  0  0  0  0  0  0  0
  1  4  1  6  0  0  0
  1  2  1  0  0  0  0
  1 10  1  0  0  0  0
  2  6  1  0  0  0  0
  3  7  1  1  0  0  0
  3  1  1  0  0  0  0
  3  2  1  0  0  0  0
  5  2  1  0  0  0  0
  8 14  1  0  0  0  0
  8 13  1  0  0  0  0
  9  8  2  0  0  0  0
 10  9  1  0  0  0  0
 10 11  2  0  0  0  0
 11 12  1  0  0  0  0
 12 13  2  0  0  0  0
 12 15  1  0  0  0  0
 16 18  1  0  0  0  0
 16  9  1  0  0  0  0
 17 16  1  0  0  0  0
 19  3  1  0  0  0  0
 20 19  1  0  0  0  0
 21 19  1  0  0  0  0
 22 19  1  0  0  0  0
 23 22  2  0  0  0  0
 24 23  1  0  0  0  0
 25 27  2  0  0  0  0
 25 23  1  0  0  0  0
 26 25  1  0  0  0  0
 27 29  1  0  0  0  0
 28 27  1  0  0  0  0
 29 22  1  0  0  0  0
M  END
>  <minimizedAffinity>
-4.40343475

>  <minimizedRMSD>
0.70399946

$$$$
