
 OpenBabel03242522593D

 30 32  0  0  0  0  0  0  0  0999 V2000
   44.5880   34.4030   46.7230 C   0  0  0  0  0  0  0  0  0  0  0  0
   44.9560   34.6440   45.3940 C   0  0  0  0  0  0  0  0  0  0  0  0
   45.9110   33.8620   44.7600 C   0  0  0  0  0  0  0  0  0  0  0  0
   46.4610   32.8570   45.5040 N   0  0  0  0  0  0  0  0  0  0  0  0
   46.0980   32.6330   46.7850 C   0  0  0  0  0  0  0  0  0  0  0  0
   45.1710   33.3970   47.3930 N   0  0  0  0  0  0  0  0  0  0  0  0
   43.8410   35.0290   47.1960 H   0  0  0  0  0  0  0  0  0  0  0  0
   44.5020   35.4450   44.8390 H   0  0  0  0  0  0  0  0  0  0  0  0
   44.1150   32.6700   42.7040 Cl  0  0  0  0  0  0  0  0  0  0  0  0
   45.5700   33.5670   42.3850 C   0  0  0  0  0  0  0  0  0  0  0  0
   46.3280   34.0740   43.3730 C   0  0  0  0  0  0  0  0  0  0  0  0
   47.4680   34.7730   43.0100 C   0  0  0  0  0  0  0  0  0  0  0  0
   47.8250   34.9510   41.7160 C   0  0  0  0  0  0  0  0  0  0  0  0
   47.0540   34.4340   40.7020 C   0  0  0  0  0  0  0  0  0  0  0  0
   45.9300   33.7450   41.0540 C   0  0  0  0  0  0  0  0  0  0  0  0
   48.0800   35.1840   43.8140 H   0  0  0  0  0  0  0  0  0  0  0  0
   47.3060   34.5540   39.6550 H   0  0  0  0  0  0  0  0  0  0  0  0
   45.3190   33.3350   40.2530 H   0  0  0  0  0  0  0  0  0  0  0  0
   49.0530   35.7040   41.3260 C   0  0  0  0  0  0  0  0  0  0  0  0
   50.1450   34.9590   41.6710 F   0  0  0  0  0  0  0  0  0  0  0  0
   49.0670   36.9680   41.8880 F   0  0  0  0  0  0  0  0  0  0  0  0
   49.0230   35.8730   39.9410 F   0  0  0  0  0  0  0  0  0  0  0  0
   46.8180   31.5100   47.3740 C   0  0  0  0  0  0  0  0  0  0  0  0
   47.6010   31.8070   48.4930 C   0  0  0  0  0  0  0  0  0  0  0  0
   47.8020   32.7270   49.0470 H   0  0  0  0  0  0  0  0  0  0  0  0
   48.1960   30.6180   48.8990 C   0  0  0  0  0  0  0  0  0  0  0  0
   48.8830   30.4160   49.7360 H   0  0  0  0  0  0  0  0  0  0  0  0
   47.7350   29.6650   47.9940 C   0  0  0  0  0  0  0  0  0  0  0  0
   48.0110   28.6220   48.0260 H   0  0  0  0  0  0  0  0  0  0  0  0
   46.9390   30.2170   47.1240 O   0  0  0  0  0  0  0  0  0  0  0  0
  1  7  1  0  0  0  0
  1  6  1  0  0  0  0
  2  1  2  0  0  0  0
  3  2  1  0  0  0  0
  3  4  2  0  0  0  0
  4  5  1  0  0  0  0
  5 23  1  0  0  0  0
  5  6  2  0  0  0  0
  8  2  1  0  0  0  0
 10  9  1  0  0  0  0
 10 11  1  0  0  0  0
 11  3  1  0  0  0  0
 12 11  2  0  0  0  0
 12 16  1  0  0  0  0
 13 12  1  0  0  0  0
 14 15  1  0  0  0  0
 14 13  2  0  0  0  0
 15 10  2  0  0  0  0
 17 14  1  0  0  0  0
 18 15  1  0  0  0  0
 19 20  1  0  0  0  0
 19 13  1  0  0  0  0
 19 21  1  0  0  0  0
 22 19  1  0  0  0  0
 23 24  2  0  0  0  0
 24 26  1  0  0  0  0
 24 25  1  0  0  0  0
 26 27  1  0  0  0  0
 28 29  1  0  0  0  0
 28 26  2  0  0  0  0
 30 23  1  0  0  0  0
 30 28  1  0  0  0  0
M  END
>  <minimizedAffinity>
-5.97550869

>  <minimizedRMSD>
0.485934198

$$$$
