
 OpenBabel03242515573D

 36 39  0  0  0  0  0  0  0  0999 V2000
   36.9810   26.5910   39.8030 C   0  0  0  0  0  0  0  0  0  0  0  0
   36.8220   25.1870   39.9470 C   0  0  0  0  0  0  0  0  0  0  0  0
   36.8110   24.5430   41.1590 C   0  0  0  0  0  0  0  0  0  0  0  0
   36.9540   25.2380   42.3050 C   0  0  0  0  0  0  0  0  0  0  0  0
   37.1150   26.6110   42.2250 C   0  0  0  0  0  0  0  0  0  0  0  0
   37.2620   27.2840   43.4100 C   0  0  0  0  0  0  0  0  0  0  0  0
   37.4330   28.6480   43.3990 C   0  0  0  0  0  0  0  0  0  0  0  0
   37.4480   29.2780   42.1580 C   0  0  0  0  0  0  0  0  0  0  0  0
   37.2960   28.5420   41.0380 C   0  0  0  0  0  0  0  0  0  0  0  0
   37.1240   27.2280   40.9940 C   0  0  0  0  0  0  0  0  0  0  0  0
   36.7030   24.5850   39.0580 H   0  0  0  0  0  0  0  0  0  0  0  0
   36.6850   23.4700   41.1830 H   0  0  0  0  0  0  0  0  0  0  0  0
   36.9400   24.7000   43.2420 H   0  0  0  0  0  0  0  0  0  0  0  0
   37.2400   26.6980   44.3550 H   0  0  0  0  0  0  0  0  0  0  0  0
   37.5360   29.0570   44.4220 H   0  0  0  0  0  0  0  0  0  0  0  0
   37.5950   30.3030   42.4590 H   0  0  0  0  0  0  0  0  0  0  0  0
   38.3080   27.6830   36.6460 C   0  0  0  0  0  0  0  0  0  0  0  0
   37.1600   28.2670   36.0150 C   0  0  0  0  0  0  0  0  0  0  0  0
   35.9080   28.3000   36.7000 C   0  0  0  0  0  0  0  0  0  0  0  0
   35.8740   27.7680   37.9290 N   0  0  0  0  0  0  0  0  0  0  0  0
   36.9140   27.2340   38.5100 C   0  0  0  0  0  0  0  0  0  0  0  0
   38.1210   27.1970   37.8620 N   0  0  0  0  0  0  0  0  0  0  0  0
   39.2370   27.6760   36.0990 H   0  0  0  0  0  0  0  0  0  0  0  0
   35.1660   28.7560   36.0860 H   0  0  0  0  0  0  0  0  0  0  0  0
   37.3610   28.7900   34.7090 N   0  0  0  0  0  0  0  0  0  0  0  0
   37.7630   29.7360   34.4800 H   0  0  0  0  0  0  0  0  0  0  0  0
   37.0770   28.1590   33.9350 H   0  0  0  0  0  0  0  0  0  0  0  0
   37.3660   29.4110   39.9920 O   0  0  0  0  0  0  0  0  0  0  0  0
   37.8020   30.7370   40.0760 C   0  0  0  0  0  0  0  0  0  0  0  0
   36.9140   31.7250   39.7250 C   0  0  0  0  0  0  0  0  0  0  0  0
   35.8860   31.8710   39.3590 H   0  0  0  0  0  0  0  0  0  0  0  0
   37.4640   32.9580   39.8470 C   0  0  0  0  0  0  0  0  0  0  0  0
   37.2430   34.0150   39.7180 H   0  0  0  0  0  0  0  0  0  0  0  0
   38.7250   32.7140   40.2860 C   0  0  0  0  0  0  0  0  0  0  0  0
   39.6710   33.1660   40.5820 H   0  0  0  0  0  0  0  0  0  0  0  0
   38.8420   31.4370   40.3920 O   0  0  0  0  0  0  0  0  0  0  0  0
  1  2  2  0  0  0  0
  1 10  1  0  0  0  0
  2  3  1  0  0  0  0
  3 12  1  0  0  0  0
  3  4  2  0  0  0  0
  4 13  1  0  0  0  0
  5  4  1  0  0  0  0
  5  6  1  0  0  0  0
  6 14  1  0  0  0  0
  7  6  2  0  0  0  0
  7 15  1  0  0  0  0
  8 16  1  0  0  0  0
  8  7  1  0  0  0  0
  9  8  2  0  0  0  0
 10  9  1  0  0  0  0
 10  5  2  0  0  0  0
 11  2  1  0  0  0  0
 17 22  1  0  0  0  0
 18 17  2  0  0  0  0
 18 19  1  0  0  0  0
 19 20  2  0  0  0  0
 20 21  1  0  0  0  0
 21  1  1  0  0  0  0
 22 21  2  0  0  0  0
 23 17  1  0  0  0  0
 24 19  1  0  0  0  0
 25 18  1  0  0  0  0
 26 25  1  0  0  0  0
 27 25  1  0  0  0  0
 28 29  1  0  0  0  0
 28  9  1  0  0  0  0
 29 36  1  0  0  0  0
 30 32  1  0  0  0  0
 30 29  2  0  0  0  0
 31 30  1  0  0  0  0
 32 34  2  0  0  0  0
 33 32  1  0  0  0  0
 34 36  1  0  0  0  0
 34 35  1  0  0  0  0
M  END
>  <minimizedAffinity>
-6.24434948

$$$$

 OpenBabel03242515573D

 36 39  0  0  0  0  0  0  0  0999 V2000
   37.7690   29.1610   41.1490 C   0  0  0  0  0  0  0  0  0  0  0  0
   38.0630   29.5920   42.4700 C   0  0  0  0  0  0  0  0  0  0  0  0
   38.0250   28.7660   43.5650 C   0  0  0  0  0  0  0  0  0  0  0  0
   37.6970   27.4660   43.4330 C   0  0  0  0  0  0  0  0  0  0  0  0
   37.3980   26.9900   42.1670 C   0  0  0  0  0  0  0  0  0  0  0  0
   37.0650   25.6640   42.0710 C   0  0  0  0  0  0  0  0  0  0  0  0
   36.7510   25.1310   40.8440 C   0  0  0  0  0  0  0  0  0  0  0  0
   36.7890   25.9890   39.7480 C   0  0  0  0  0  0  0  0  0  0  0  0
   37.1270   27.2810   39.9280 C   0  0  0  0  0  0  0  0  0  0  0  0
   37.4430   27.8430   41.0880 C   0  0  0  0  0  0  0  0  0  0  0  0
   38.3330   30.6260   42.6290 H   0  0  0  0  0  0  0  0  0  0  0  0
   38.2630   29.1730   44.5380 H   0  0  0  0  0  0  0  0  0  0  0  0
   37.6780   26.8440   44.3150 H   0  0  0  0  0  0  0  0  0  0  0  0
   37.0580   25.0540   43.0000 H   0  0  0  0  0  0  0  0  0  0  0  0
   36.5050   24.0550   40.9140 H   0  0  0  0  0  0  0  0  0  0  0  0
   36.5040   25.3120   38.9570 H   0  0  0  0  0  0  0  0  0  0  0  0
   39.4620   30.6140   38.3310 C   0  0  0  0  0  0  0  0  0  0  0  0
   38.4680   31.4980   37.7970 C   0  0  0  0  0  0  0  0  0  0  0  0
   37.1940   31.6080   38.4320 C   0  0  0  0  0  0  0  0  0  0  0  0
   36.9920   30.8570   39.5220 N   0  0  0  0  0  0  0  0  0  0  0  0
   37.8920   30.0490   40.0150 C   0  0  0  0  0  0  0  0  0  0  0  0
   39.1180   29.9360   39.4140 N   0  0  0  0  0  0  0  0  0  0  0  0
   40.4130   30.5570   37.8250 H   0  0  0  0  0  0  0  0  0  0  0  0
   36.5780   32.2960   37.9020 H   0  0  0  0  0  0  0  0  0  0  0  0
   38.8370   32.2270   36.6340 N   0  0  0  0  0  0  0  0  0  0  0  0
   39.4000   33.1170   36.6190 H   0  0  0  0  0  0  0  0  0  0  0  0
   38.5080   31.8200   35.7380 H   0  0  0  0  0  0  0  0  0  0  0  0
   37.0660   27.8710   38.7030 O   0  0  0  0  0  0  0  0  0  0  0  0
   35.9530   27.8560   37.8570 C   0  0  0  0  0  0  0  0  0  0  0  0
   34.8060   28.4710   38.2970 C   0  0  0  0  0  0  0  0  0  0  0  0
   34.3980   29.0200   39.1600 H   0  0  0  0  0  0  0  0  0  0  0  0
   33.8070   28.3790   37.3860 C   0  0  0  0  0  0  0  0  0  0  0  0
   32.7710   28.6590   37.2140 H   0  0  0  0  0  0  0  0  0  0  0  0
   34.3620   27.6870   36.3580 C   0  0  0  0  0  0  0  0  0  0  0  0
   34.1900   27.2670   35.3680 H   0  0  0  0  0  0  0  0  0  0  0  0
   35.5750   27.4270   36.6970 O   0  0  0  0  0  0  0  0  0  0  0  0
  1  2  1  0  0  0  0
  2 11  1  0  0  0  0
  2  3  2  0  0  0  0
  3 12  1  0  0  0  0
  4  3  1  0  0  0  0
  4 13  1  0  0  0  0
  5  4  2  0  0  0  0
  6  5  1  0  0  0  0
  6 14  1  0  0  0  0
  7 15  1  0  0  0  0
  7  6  2  0  0  0  0
  8  9  2  0  0  0  0
  8  7  1  0  0  0  0
  9 10  1  0  0  0  0
 10  1  2  0  0  0  0
 10  5  1  0  0  0  0
 16  8  1  0  0  0  0
 17 22  1  0  0  0  0
 18 17  2  0  0  0  0
 18 19  1  0  0  0  0
 19 20  2  0  0  0  0
 20 21  1  0  0  0  0
 21  1  1  0  0  0  0
 22 21  2  0  0  0  0
 23 17  1  0  0  0  0
 24 19  1  0  0  0  0
 25 18  1  0  0  0  0
 26 25  1  0  0  0  0
 27 25  1  0  0  0  0
 28  9  1  0  0  0  0
 29 30  2  0  0  0  0
 29 28  1  0  0  0  0
 30 31  1  0  0  0  0
 32 30  1  0  0  0  0
 33 32  1  0  0  0  0
 34 36  1  0  0  0  0
 34 32  2  0  0  0  0
 35 34  1  0  0  0  0
 36 29  1  0  0  0  0
M  END
>  <minimizedAffinity>
-5.93946028

$$$$

 OpenBabel03242515573D

 36 39  0  0  0  0  0  0  0  0999 V2000
   37.3150   27.2280   40.7050 C   0  0  0  0  0  0  0  0  0  0  0  0
   36.6390   26.3890   39.7790 C   0  0  0  0  0  0  0  0  0  0  0  0
   36.7350   25.0190   39.7840 C   0  0  0  0  0  0  0  0  0  0  0  0
   37.4970   24.3890   40.6990 C   0  0  0  0  0  0  0  0  0  0  0  0
   38.1810   25.1570   41.6270 C   0  0  0  0  0  0  0  0  0  0  0  0
   38.9500   24.4830   42.5380 C   0  0  0  0  0  0  0  0  0  0  0  0
   39.6600   25.1870   43.4810 C   0  0  0  0  0  0  0  0  0  0  0  0
   39.5540   26.5750   43.4510 C   0  0  0  0  0  0  0  0  0  0  0  0
   38.7740   27.1620   42.5210 C   0  0  0  0  0  0  0  0  0  0  0  0
   38.0670   26.5290   41.5940 C   0  0  0  0  0  0  0  0  0  0  0  0
   36.0140   26.8460   39.0260 H   0  0  0  0  0  0  0  0  0  0  0  0
   36.1880   24.4530   39.0450 H   0  0  0  0  0  0  0  0  0  0  0  0
   37.5490   23.3110   40.6760 H   0  0  0  0  0  0  0  0  0  0  0  0
   38.9770   23.3720   42.4860 H   0  0  0  0  0  0  0  0  0  0  0  0
   40.2320   24.5180   44.1500 H   0  0  0  0  0  0  0  0  0  0  0  0
   40.1980   26.8390   44.2760 H   0  0  0  0  0  0  0  0  0  0  0  0
   37.9020   30.5810   39.5520 C   0  0  0  0  0  0  0  0  0  0  0  0
   36.9930   31.3460   40.3540 C   0  0  0  0  0  0  0  0  0  0  0  0
   36.1730   30.6940   41.3240 C   0  0  0  0  0  0  0  0  0  0  0  0
   36.3030   29.3650   41.4340 N   0  0  0  0  0  0  0  0  0  0  0  0
   37.1280   28.6610   40.7070 C   0  0  0  0  0  0  0  0  0  0  0  0
   37.9200   29.2770   39.7730 N   0  0  0  0  0  0  0  0  0  0  0  0
   38.5050   31.1080   38.8300 H   0  0  0  0  0  0  0  0  0  0  0  0
   35.5550   31.4050   41.8200 H   0  0  0  0  0  0  0  0  0  0  0  0
   36.9740   32.7480   40.1170 N   0  0  0  0  0  0  0  0  0  0  0  0
   37.6540   33.4470   40.5140 H   0  0  0  0  0  0  0  0  0  0  0  0
   36.2120   33.0780   39.4940 H   0  0  0  0  0  0  0  0  0  0  0  0
   38.8750   28.5040   42.7230 O   0  0  0  0  0  0  0  0  0  0  0  0
   40.0610   29.2420   42.6530 C   0  0  0  0  0  0  0  0  0  0  0  0
   39.9630   30.6130   42.6470 C   0  0  0  0  0  0  0  0  0  0  0  0
   39.2200   31.4240   42.6740 H   0  0  0  0  0  0  0  0  0  0  0  0
   41.1810   31.2010   42.5720 C   0  0  0  0  0  0  0  0  0  0  0  0
   41.6660   32.1730   42.5360 H   0  0  0  0  0  0  0  0  0  0  0  0
   42.0490   30.1580   42.5290 C   0  0  0  0  0  0  0  0  0  0  0  0
   43.0980   29.8700   42.4710 H   0  0  0  0  0  0  0  0  0  0  0  0
   41.3430   29.0840   42.5790 O   0  0  0  0  0  0  0  0  0  0  0  0
  1 21  1  0  0  0  0
  1 10  1  0  0  0  0
  2  3  1  0  0  0  0
  2  1  2  0  0  0  0
  3  4  2  0  0  0  0
  4  5  1  0  0  0  0
  5  6  1  0  0  0  0
  6  7  2  0  0  0  0
  7 15  1  0  0  0  0
  8  7  1  0  0  0  0
  8 16  1  0  0  0  0
  9 28  1  0  0  0  0
  9  8  2  0  0  0  0
 10  5  2  0  0  0  0
 10  9  1  0  0  0  0
 11  2  1  0  0  0  0
 12  3  1  0  0  0  0
 13  4  1  0  0  0  0
 14  6  1  0  0  0  0
 17 22  2  0  0  0  0
 17 18  1  0  0  0  0
 18 19  2  0  0  0  0
 19 20  1  0  0  0  0
 19 24  1  0  0  0  0
 21 20  2  0  0  0  0
 22 21  1  0  0  0  0
 23 17  1  0  0  0  0
 25 18  1  0  0  0  0
 25 26  1  0  0  0  0
 27 25  1  0  0  0  0
 29 28  1  0  0  0  0
 30 29  2  0  0  0  0
 30 31  1  0  0  0  0
 32 30  1  0  0  0  0
 33 32  1  0  0  0  0
 34 32  2  0  0  0  0
 34 36  1  0  0  0  0
 35 34  1  0  0  0  0
 36 29  1  0  0  0  0
M  END
>  <minimizedAffinity>
-5.93731928

$$$$

 OpenBabel03242515573D

 36 39  0  0  0  0  0  0  0  0999 V2000
   36.3940   27.4450   39.5610 C   0  0  0  0  0  0  0  0  0  0  0  0
   35.7750   27.0300   38.3520 C   0  0  0  0  0  0  0  0  0  0  0  0
   35.5880   25.7150   38.0060 C   0  0  0  0  0  0  0  0  0  0  0  0
   35.9950   24.7260   38.8250 C   0  0  0  0  0  0  0  0  0  0  0  0
   36.6070   25.0720   40.0190 C   0  0  0  0  0  0  0  0  0  0  0  0
   37.0130   24.0400   40.8240 C   0  0  0  0  0  0  0  0  0  0  0  0
   37.6340   24.3160   42.0190 C   0  0  0  0  0  0  0  0  0  0  0  0
   37.8190   25.6570   42.3450 C   0  0  0  0  0  0  0  0  0  0  0  0
   37.3900   26.6120   41.4960 C   0  0  0  0  0  0  0  0  0  0  0  0
   36.7830   26.4000   40.3370 C   0  0  0  0  0  0  0  0  0  0  0  0
   35.4300   27.7850   37.6610 H   0  0  0  0  0  0  0  0  0  0  0  0
   35.1080   25.4830   37.0660 H   0  0  0  0  0  0  0  0  0  0  0  0
   35.8310   23.7020   38.5230 H   0  0  0  0  0  0  0  0  0  0  0  0
   36.8250   22.9990   40.4820 H   0  0  0  0  0  0  0  0  0  0  0  0
   37.9040   23.3930   42.5650 H   0  0  0  0  0  0  0  0  0  0  0  0
   38.3140   25.5610   43.3000 H   0  0  0  0  0  0  0  0  0  0  0  0
   37.7470   30.7650   39.3020 C   0  0  0  0  0  0  0  0  0  0  0  0
   36.9510   31.4960   40.2440 C   0  0  0  0  0  0  0  0  0  0  0  0
   35.9390   30.8270   40.9960 C   0  0  0  0  0  0  0  0  0  0  0  0
   35.7840   29.5150   40.7730 N   0  0  0  0  0  0  0  0  0  0  0  0
   36.5050   28.8420   39.9170 C   0  0  0  0  0  0  0  0  0  0  0  0
   37.4790   29.4740   39.1910 N   0  0  0  0  0  0  0  0  0  0  0  0
   38.5020   31.3030   38.7530 H   0  0  0  0  0  0  0  0  0  0  0  0
   35.4400   31.5160   41.6360 H   0  0  0  0  0  0  0  0  0  0  0  0
   37.2390   32.8830   40.3660 N   0  0  0  0  0  0  0  0  0  0  0  0
   38.0120   33.3010   40.9450 H   0  0  0  0  0  0  0  0  0  0  0  0
   36.6140   33.5100   39.8240 H   0  0  0  0  0  0  0  0  0  0  0  0
   37.7150   27.8070   42.0630 O   0  0  0  0  0  0  0  0  0  0  0  0
   39.0140   28.3050   42.2020 C   0  0  0  0  0  0  0  0  0  0  0  0
   39.1600   29.6170   42.5820 C   0  0  0  0  0  0  0  0  0  0  0  0
   38.5710   30.5110   42.8360 H   0  0  0  0  0  0  0  0  0  0  0  0
   40.4650   29.9700   42.6740 C   0  0  0  0  0  0  0  0  0  0  0  0
   41.1150   30.8080   42.9130 H   0  0  0  0  0  0  0  0  0  0  0  0
   41.1370   28.8390   42.3390 C   0  0  0  0  0  0  0  0  0  0  0  0
   42.1190   28.3910   42.2010 H   0  0  0  0  0  0  0  0  0  0  0  0
   40.2500   27.9410   42.0860 O   0  0  0  0  0  0  0  0  0  0  0  0
  1 21  1  0  0  0  0
  1 10  1  0  0  0  0
  2  1  2  0  0  0  0
  3  2  1  0  0  0  0
  3  4  2  0  0  0  0
  4  5  1  0  0  0  0
  5 10  2  0  0  0  0
  5  6  1  0  0  0  0
  6  7  2  0  0  0  0
  7  8  1  0  0  0  0
  7 15  1  0  0  0  0
  8 16  1  0  0  0  0
  9 28  1  0  0  0  0
  9  8  2  0  0  0  0
 10  9  1  0  0  0  0
 11  2  1  0  0  0  0
 12  3  1  0  0  0  0
 13  4  1  0  0  0  0
 14  6  1  0  0  0  0
 17 18  1  0  0  0  0
 18 25  1  0  0  0  0
 18 19  2  0  0  0  0
 19 24  1  0  0  0  0
 20 19  1  0  0  0  0
 21 20  2  0  0  0  0
 22 17  2  0  0  0  0
 22 21  1  0  0  0  0
 23 17  1  0  0  0  0
 25 26  1  0  0  0  0
 27 25  1  0  0  0  0
 28 29  1  0  0  0  0
 29 30  2  0  0  0  0
 30 32  1  0  0  0  0
 30 31  1  0  0  0  0
 32 33  1  0  0  0  0
 34 32  2  0  0  0  0
 35 34  1  0  0  0  0
 36 29  1  0  0  0  0
 36 34  1  0  0  0  0
M  END
>  <minimizedAffinity>
-5.89030457

$$$$

 OpenBabel03242515573D

 36 39  0  0  0  0  0  0  0  0999 V2000
   35.3950   28.6940   38.3870 C   0  0  0  0  0  0  0  0  0  0  0  0
   34.3400   28.8860   37.4550 C   0  0  0  0  0  0  0  0  0  0  0  0
   33.7200   27.8600   36.7860 C   0  0  0  0  0  0  0  0  0  0  0  0
   34.0960   26.5820   36.9910 C   0  0  0  0  0  0  0  0  0  0  0  0
   35.1220   26.3350   37.8890 C   0  0  0  0  0  0  0  0  0  0  0  0
   35.4800   25.0250   38.0690 C   0  0  0  0  0  0  0  0  0  0  0  0
   36.4960   24.7130   38.9410 C   0  0  0  0  0  0  0  0  0  0  0  0
   37.1150   25.7700   39.6020 C   0  0  0  0  0  0  0  0  0  0  0  0
   36.7010   27.0320   39.3680 C   0  0  0  0  0  0  0  0  0  0  0  0
   35.7250   27.3850   38.5430 C   0  0  0  0  0  0  0  0  0  0  0  0
   34.0010   29.8920   37.2560 H   0  0  0  0  0  0  0  0  0  0  0  0
   32.9250   28.0900   36.0920 H   0  0  0  0  0  0  0  0  0  0  0  0
   33.5860   25.7990   36.4500 H   0  0  0  0  0  0  0  0  0  0  0  0
   34.9320   24.2450   37.4960 H   0  0  0  0  0  0  0  0  0  0  0  0
   36.6770   23.6220   38.9880 H   0  0  0  0  0  0  0  0  0  0  0  0
   37.8430   25.2350   40.1910 H   0  0  0  0  0  0  0  0  0  0  0  0
   37.5170   31.5650   38.8010 C   0  0  0  0  0  0  0  0  0  0  0  0
   37.1980   31.9930   40.1320 C   0  0  0  0  0  0  0  0  0  0  0  0
   36.2450   31.2670   40.9080 C   0  0  0  0  0  0  0  0  0  0  0  0
   35.6850   30.1950   40.3330 N   0  0  0  0  0  0  0  0  0  0  0  0
   35.9690   29.7980   39.1210 C   0  0  0  0  0  0  0  0  0  0  0  0
   36.8830   30.4880   38.3680 N   0  0  0  0  0  0  0  0  0  0  0  0
   38.2420   32.1380   38.2460 H   0  0  0  0  0  0  0  0  0  0  0  0
   36.1220   31.7260   41.8610 H   0  0  0  0  0  0  0  0  0  0  0  0
   37.8800   33.1500   40.5980 N   0  0  0  0  0  0  0  0  0  0  0  0
   38.8530   33.1700   41.0010 H   0  0  0  0  0  0  0  0  0  0  0  0
   37.3460   34.0360   40.5190 H   0  0  0  0  0  0  0  0  0  0  0  0
   37.4860   27.8430   40.1300 O   0  0  0  0  0  0  0  0  0  0  0  0
   37.7820   27.6380   41.4810 C   0  0  0  0  0  0  0  0  0  0  0  0
   36.7560   27.7620   42.3880 C   0  0  0  0  0  0  0  0  0  0  0  0
   35.6820   27.9940   42.4480 H   0  0  0  0  0  0  0  0  0  0  0  0
   37.1800   27.5430   43.6560 C   0  0  0  0  0  0  0  0  0  0  0  0
   36.8330   27.5110   44.6860 H   0  0  0  0  0  0  0  0  0  0  0  0
   38.5050   27.2770   43.5200 C   0  0  0  0  0  0  0  0  0  0  0  0
   39.4240   27.0280   44.0460 H   0  0  0  0  0  0  0  0  0  0  0  0
   38.7710   27.3480   42.2630 O   0  0  0  0  0  0  0  0  0  0  0  0
  1 10  1  0  0  0  0
  1 21  1  0  0  0  0
  2  1  2  0  0  0  0
  3  4  2  0  0  0  0
  3  2  1  0  0  0  0
  4  5  1  0  0  0  0
  5  6  2  0  0  0  0
  5 10  1  0  0  0  0
  6  7  1  0  0  0  0
  7 15  1  0  0  0  0
  7  8  2  0  0  0  0
  8 16  1  0  0  0  0
  9  8  1  0  0  0  0
  9 28  1  0  0  0  0
 10  9  2  0  0  0  0
 11  2  1  0  0  0  0
 12  3  1  0  0  0  0
 13  4  1  0  0  0  0
 14  6  1  0  0  0  0
 17 18  1  0  0  0  0
 18 25  1  0  0  0  0
 18 19  2  0  0  0  0
 19 24  1  0  0  0  0
 20 19  1  0  0  0  0
 21 20  2  0  0  0  0
 22 17  2  0  0  0  0
 22 21  1  0  0  0  0
 23 17  1  0  0  0  0
 25 26  1  0  0  0  0
 27 25  1  0  0  0  0
 28 29  1  0  0  0  0
 29 36  1  0  0  0  0
 29 30  2  0  0  0  0
 30 31  1  0  0  0  0
 30 32  1  0  0  0  0
 32 33  1  0  0  0  0
 34 32  2  0  0  0  0
 34 35  1  0  0  0  0
 36 34  1  0  0  0  0
M  END
>  <minimizedAffinity>
-5.8186655

$$$$

 OpenBabel03242515573D

 36 39  0  0  0  0  0  0  0  0999 V2000
   37.4540   27.7470   41.1380 C   0  0  0  0  0  0  0  0  0  0  0  0
   38.0350   27.3340   42.3660 C   0  0  0  0  0  0  0  0  0  0  0  0
   38.1070   26.0250   42.7710 C   0  0  0  0  0  0  0  0  0  0  0  0
   37.6150   25.0390   41.9950 C   0  0  0  0  0  0  0  0  0  0  0  0
   37.0350   25.3840   40.7850 C   0  0  0  0  0  0  0  0  0  0  0  0
   36.5410   24.3560   40.0250 C   0  0  0  0  0  0  0  0  0  0  0  0
   35.9470   24.6320   38.8160 C   0  0  0  0  0  0  0  0  0  0  0  0
   35.8780   25.9680   38.4300 C   0  0  0  0  0  0  0  0  0  0  0  0
   36.3890   26.9190   39.2370 C   0  0  0  0  0  0  0  0  0  0  0  0
   36.9750   26.7060   40.4080 C   0  0  0  0  0  0  0  0  0  0  0  0
   38.4450   28.0870   43.0240 H   0  0  0  0  0  0  0  0  0  0  0  0
   38.5660   25.7940   43.7220 H   0  0  0  0  0  0  0  0  0  0  0  0
   37.6900   24.0200   42.3430 H   0  0  0  0  0  0  0  0  0  0  0  0
   36.6380   23.3190   40.4130 H   0  0  0  0  0  0  0  0  0  0  0  0
   35.5970   23.7120   38.3100 H   0  0  0  0  0  0  0  0  0  0  0  0
   35.3770   25.8720   37.4790 H   0  0  0  0  0  0  0  0  0  0  0  0
   36.1710   31.1010   40.9750 C   0  0  0  0  0  0  0  0  0  0  0  0
   37.1780   31.7790   40.2120 C   0  0  0  0  0  0  0  0  0  0  0  0
   38.3130   31.0610   39.7300 C   0  0  0  0  0  0  0  0  0  0  0  0
   38.3770   29.7560   40.0250 N   0  0  0  0  0  0  0  0  0  0  0  0
   37.4650   29.1310   40.7200 C   0  0  0  0  0  0  0  0  0  0  0  0
   36.3710   29.8110   41.1870 N   0  0  0  0  0  0  0  0  0  0  0  0
   35.3270   31.6750   41.3230 H   0  0  0  0  0  0  0  0  0  0  0  0
   38.9620   31.7160   39.1960 H   0  0  0  0  0  0  0  0  0  0  0  0
   36.9630   33.1660   39.9830 N   0  0  0  0  0  0  0  0  0  0  0  0
   36.3510   33.5770   39.2320 H   0  0  0  0  0  0  0  0  0  0  0  0
   37.4680   33.8010   40.6310 H   0  0  0  0  0  0  0  0  0  0  0  0
   36.1680   28.1110   38.6170 O   0  0  0  0  0  0  0  0  0  0  0  0
   34.9760   28.4830   37.9900 C   0  0  0  0  0  0  0  0  0  0  0  0
   35.0240   28.7840   36.6500 C   0  0  0  0  0  0  0  0  0  0  0  0
   35.7280   28.8530   35.8070 H   0  0  0  0  0  0  0  0  0  0  0  0
   33.8050   29.1320   36.1700 C   0  0  0  0  0  0  0  0  0  0  0  0
   33.2940   29.4410   35.2630 H   0  0  0  0  0  0  0  0  0  0  0  0
   32.9880   29.0410   37.2510 C   0  0  0  0  0  0  0  0  0  0  0  0
   31.9670   29.1560   37.6110 H   0  0  0  0  0  0  0  0  0  0  0  0
   33.7210   28.6690   38.2420 O   0  0  0  0  0  0  0  0  0  0  0  0
  1  2  1  0  0  0  0
  2  3  2  0  0  0  0
  2 11  1  0  0  0  0
  3 12  1  0  0  0  0
  4 13  1  0  0  0  0
  4  3  1  0  0  0  0
  5  4  2  0  0  0  0
  6 14  1  0  0  0  0
  6  5  1  0  0  0  0
  7  6  2  0  0  0  0
  8  7  1  0  0  0  0
  8  9  2  0  0  0  0
  9 10  1  0  0  0  0
 10  5  1  0  0  0  0
 10  1  2  0  0  0  0
 15  7  1  0  0  0  0
 16  8  1  0  0  0  0
 17 22  1  0  0  0  0
 17 23  1  0  0  0  0
 18 17  2  0  0  0  0
 19 20  2  0  0  0  0
 19 18  1  0  0  0  0
 20 21  1  0  0  0  0
 21  1  1  0  0  0  0
 21 22  2  0  0  0  0
 24 19  1  0  0  0  0
 25 18  1  0  0  0  0
 25 27  1  0  0  0  0
 26 25  1  0  0  0  0
 28  9  1  0  0  0  0
 29 36  1  0  0  0  0
 29 28  1  0  0  0  0
 30 29  2  0  0  0  0
 31 30  1  0  0  0  0
 32 30  1  0  0  0  0
 32 34  2  0  0  0  0
 33 32  1  0  0  0  0
 34 35  1  0  0  0  0
 34 36  1  0  0  0  0
M  END
>  <minimizedAffinity>
-5.79229021

$$$$

 OpenBabel03242515573D

 36 39  0  0  0  0  0  0  0  0999 V2000
   39.9270   29.3170   41.5590 C   0  0  0  0  0  0  0  0  0  0  0  0
   41.1900   29.0030   42.1260 C   0  0  0  0  0  0  0  0  0  0  0  0
   41.3650   28.0870   43.1340 C   0  0  0  0  0  0  0  0  0  0  0  0
   40.3110   27.4220   43.6460 C   0  0  0  0  0  0  0  0  0  0  0  0
   39.0530   27.6890   43.1320 C   0  0  0  0  0  0  0  0  0  0  0  0
   38.0050   26.9980   43.6800 C   0  0  0  0  0  0  0  0  0  0  0  0
   36.7290   27.2220   43.2190 C   0  0  0  0  0  0  0  0  0  0  0  0
   36.5750   28.1610   42.2020 C   0  0  0  0  0  0  0  0  0  0  0  0
   37.6600   28.7980   41.7180 C   0  0  0  0  0  0  0  0  0  0  0  0
   38.9100   28.6150   42.1230 C   0  0  0  0  0  0  0  0  0  0  0  0
   42.0670   29.5090   41.7500 H   0  0  0  0  0  0  0  0  0  0  0  0
   42.3610   27.9060   43.5110 H   0  0  0  0  0  0  0  0  0  0  0  0
   40.4840   26.7070   44.4370 H   0  0  0  0  0  0  0  0  0  0  0  0
   38.2200   26.2680   44.4900 H   0  0  0  0  0  0  0  0  0  0  0  0
   35.9850   26.5970   43.7470 H   0  0  0  0  0  0  0  0  0  0  0  0
   35.5060   28.1220   42.0590 H   0  0  0  0  0  0  0  0  0  0  0  0
   40.0180   30.2520   38.0900 C   0  0  0  0  0  0  0  0  0  0  0  0
   39.5910   31.6210   38.1290 C   0  0  0  0  0  0  0  0  0  0  0  0
   39.2830   32.2380   39.3780 C   0  0  0  0  0  0  0  0  0  0  0  0
   39.4120   31.4830   40.4770 N   0  0  0  0  0  0  0  0  0  0  0  0
   39.7990   30.2360   40.4500 C   0  0  0  0  0  0  0  0  0  0  0  0
   40.0990   29.6340   39.2560 N   0  0  0  0  0  0  0  0  0  0  0  0
   40.2430   29.8200   37.1280 H   0  0  0  0  0  0  0  0  0  0  0  0
   38.9750   33.2460   39.2240 H   0  0  0  0  0  0  0  0  0  0  0  0
   39.5060   32.2860   36.8750 N   0  0  0  0  0  0  0  0  0  0  0  0
   40.3100   32.7230   36.3550 H   0  0  0  0  0  0  0  0  0  0  0  0
   38.5530   32.3260   36.4640 H   0  0  0  0  0  0  0  0  0  0  0  0
   37.2090   29.6530   40.7590 O   0  0  0  0  0  0  0  0  0  0  0  0
   36.2550   29.3410   39.7860 C   0  0  0  0  0  0  0  0  0  0  0  0
   36.6890   28.7240   38.6380 C   0  0  0  0  0  0  0  0  0  0  0  0
   37.6040   28.3560   38.1500 H   0  0  0  0  0  0  0  0  0  0  0  0
   35.6660   28.4830   37.7810 C   0  0  0  0  0  0  0  0  0  0  0  0
   35.4420   28.0570   36.8080 H   0  0  0  0  0  0  0  0  0  0  0  0
   34.5740   28.9680   38.4280 C   0  0  0  0  0  0  0  0  0  0  0  0
   33.4970   29.1170   38.3730 H   0  0  0  0  0  0  0  0  0  0  0  0
   34.9860   29.4360   39.5530 O   0  0  0  0  0  0  0  0  0  0  0  0
  1 10  2  0  0  0  0
  1  2  1  0  0  0  0
  2  3  2  0  0  0  0
  3 12  1  0  0  0  0
  3  4  1  0  0  0  0
  4 13  1  0  0  0  0
  5  4  2  0  0  0  0
  5  6  1  0  0  0  0
  6 14  1  0  0  0  0
  7  6  2  0  0  0  0
  7 15  1  0  0  0  0
  8  7  1  0  0  0  0
  9 10  1  0  0  0  0
  9  8  2  0  0  0  0
 10  5  1  0  0  0  0
 11  2  1  0  0  0  0
 16  8  1  0  0  0  0
 17 18  2  0  0  0  0
 17 22  1  0  0  0  0
 18 19  1  0  0  0  0
 19 20  2  0  0  0  0
 21 20  1  0  0  0  0
 21  1  1  0  0  0  0
 22 21  2  0  0  0  0
 23 17  1  0  0  0  0
 24 19  1  0  0  0  0
 25 18  1  0  0  0  0
 26 25  1  0  0  0  0
 27 25  1  0  0  0  0
 28  9  1  0  0  0  0
 29 28  1  0  0  0  0
 30 29  2  0  0  0  0
 31 30  1  0  0  0  0
 32 34  2  0  0  0  0
 32 30  1  0  0  0  0
 33 32  1  0  0  0  0
 34 36  1  0  0  0  0
 35 34  1  0  0  0  0
 36 29  1  0  0  0  0
M  END
>  <minimizedAffinity>
-5.76699972

$$$$

 OpenBabel03242515573D

 36 39  0  0  0  0  0  0  0  0999 V2000
   39.6760   30.6860   41.5770 C   0  0  0  0  0  0  0  0  0  0  0  0
   41.0670   30.7720   41.8550 C   0  0  0  0  0  0  0  0  0  0  0  0
   41.8340   31.8720   41.5630 C   0  0  0  0  0  0  0  0  0  0  0  0
   41.2840   32.9560   40.9820 C   0  0  0  0  0  0  0  0  0  0  0  0
   39.9310   32.9290   40.6870 C   0  0  0  0  0  0  0  0  0  0  0  0
   39.4080   34.0470   40.0930 C   0  0  0  0  0  0  0  0  0  0  0  0
   38.0730   34.0810   39.7670 C   0  0  0  0  0  0  0  0  0  0  0  0
   37.3160   32.9510   40.0660 C   0  0  0  0  0  0  0  0  0  0  0  0
   37.9090   31.8910   40.6520 C   0  0  0  0  0  0  0  0  0  0  0  0
   39.1890   31.8100   40.9890 C   0  0  0  0  0  0  0  0  0  0  0  0
   41.5540   29.9280   42.3210 H   0  0  0  0  0  0  0  0  0  0  0  0
   42.8870   31.8570   41.8060 H   0  0  0  0  0  0  0  0  0  0  0  0
   41.9160   33.8050   40.7680 H   0  0  0  0  0  0  0  0  0  0  0  0
   40.0880   34.9030   39.8890 H   0  0  0  0  0  0  0  0  0  0  0  0
   37.7880   35.0410   39.2980 H   0  0  0  0  0  0  0  0  0  0  0  0
   36.3470   33.2620   39.7060 H   0  0  0  0  0  0  0  0  0  0  0  0
   38.4010   27.3470   41.2020 C   0  0  0  0  0  0  0  0  0  0  0  0
   37.6290   27.1760   42.3980 C   0  0  0  0  0  0  0  0  0  0  0  0
   37.5330   28.2400   43.3450 C   0  0  0  0  0  0  0  0  0  0  0  0
   38.1880   29.3720   43.0540 N   0  0  0  0  0  0  0  0  0  0  0  0
   38.8930   29.5360   41.9680 C   0  0  0  0  0  0  0  0  0  0  0  0
   38.9920   28.5210   41.0520 N   0  0  0  0  0  0  0  0  0  0  0  0
   38.4500   26.5220   40.5100 H   0  0  0  0  0  0  0  0  0  0  0  0
   36.9340   27.9420   44.1730 H   0  0  0  0  0  0  0  0  0  0  0  0
   36.9930   25.9150   42.5590 N   0  0  0  0  0  0  0  0  0  0  0  0
   36.0770   25.6290   42.1240 H   0  0  0  0  0  0  0  0  0  0  0  0
   37.5010   25.2410   43.1630 H   0  0  0  0  0  0  0  0  0  0  0  0
   36.9420   30.9450   40.8070 O   0  0  0  0  0  0  0  0  0  0  0  0
   36.2720   30.3000   39.7630 C   0  0  0  0  0  0  0  0  0  0  0  0
   35.2550   29.4360   40.0920 C   0  0  0  0  0  0  0  0  0  0  0  0
   34.7270   29.0180   40.9620 H   0  0  0  0  0  0  0  0  0  0  0  0
   34.6960   28.8790   38.9900 C   0  0  0  0  0  0  0  0  0  0  0  0
   33.9220   28.1840   38.6770 H   0  0  0  0  0  0  0  0  0  0  0  0
   35.3930   29.4190   37.9580 C   0  0  0  0  0  0  0  0  0  0  0  0
   35.5070   29.4490   36.8750 H   0  0  0  0  0  0  0  0  0  0  0  0
   36.2660   30.2130   38.4720 O   0  0  0  0  0  0  0  0  0  0  0  0
  1  2  1  0  0  0  0
  1 21  1  0  0  0  0
  2 11  1  0  0  0  0
  3 12  1  0  0  0  0
  3  2  2  0  0  0  0
  4  3  1  0  0  0  0
  5  4  2  0  0  0  0
  5 10  1  0  0  0  0
  6  5  1  0  0  0  0
  7  8  1  0  0  0  0
  7  6  2  0  0  0  0
  8  9  2  0  0  0  0
  9 28  1  0  0  0  0
  9 10  1  0  0  0  0
 10  1  2  0  0  0  0
 13  4  1  0  0  0  0
 14  6  1  0  0  0  0
 15  7  1  0  0  0  0
 16  8  1  0  0  0  0
 17 18  1  0  0  0  0
 18 25  1  0  0  0  0
 18 19  2  0  0  0  0
 19 24  1  0  0  0  0
 20 19  1  0  0  0  0
 21 20  2  0  0  0  0
 22 17  2  0  0  0  0
 22 21  1  0  0  0  0
 23 17  1  0  0  0  0
 25 27  1  0  0  0  0
 26 25  1  0  0  0  0
 29 30  2  0  0  0  0
 29 28  1  0  0  0  0
 30 31  1  0  0  0  0
 32 30  1  0  0  0  0
 33 32  1  0  0  0  0
 34 36  1  0  0  0  0
 34 32  2  0  0  0  0
 35 34  1  0  0  0  0
 36 29  1  0  0  0  0
M  END
>  <minimizedAffinity>
-5.66323519

$$$$

 OpenBabel03242515573D

 36 39  0  0  0  0  0  0  0  0999 V2000
   37.6940   30.4570   38.5900 C   0  0  0  0  0  0  0  0  0  0  0  0
   38.0850   30.5480   37.2280 C   0  0  0  0  0  0  0  0  0  0  0  0
   37.2880   30.1600   36.1800 C   0  0  0  0  0  0  0  0  0  0  0  0
   36.0570   29.6610   36.4040 C   0  0  0  0  0  0  0  0  0  0  0  0
   35.6210   29.5480   37.7140 C   0  0  0  0  0  0  0  0  0  0  0  0
   34.3670   29.0320   37.9030 C   0  0  0  0  0  0  0  0  0  0  0  0
   33.8780   28.8870   39.1800 C   0  0  0  0  0  0  0  0  0  0  0  0
   34.7080   29.2800   40.2270 C   0  0  0  0  0  0  0  0  0  0  0  0
   35.9300   29.7780   39.9550 C   0  0  0  0  0  0  0  0  0  0  0  0
   36.4450   29.9430   38.7440 C   0  0  0  0  0  0  0  0  0  0  0  0
   39.0640   30.9420   36.9960 H   0  0  0  0  0  0  0  0  0  0  0  0
   37.6610   30.2620   35.1710 H   0  0  0  0  0  0  0  0  0  0  0  0
   35.4550   29.3670   35.5560 H   0  0  0  0  0  0  0  0  0  0  0  0
   33.7750   28.7430   37.0080 H   0  0  0  0  0  0  0  0  0  0  0  0
   32.8570   28.4630   39.1840 H   0  0  0  0  0  0  0  0  0  0  0  0
   34.0770   29.0530   41.0730 H   0  0  0  0  0  0  0  0  0  0  0  0
   40.4250   30.2590   40.9180 C   0  0  0  0  0  0  0  0  0  0  0  0
   40.3700   31.5370   41.5660 C   0  0  0  0  0  0  0  0  0  0  0  0
   39.3610   32.4790   41.2040 C   0  0  0  0  0  0  0  0  0  0  0  0
   38.4950   32.1060   40.2520 N   0  0  0  0  0  0  0  0  0  0  0  0
   38.5380   30.9440   39.6570 C   0  0  0  0  0  0  0  0  0  0  0  0
   39.5030   30.0330   39.9970 N   0  0  0  0  0  0  0  0  0  0  0  0
   41.2010   29.5730   41.2170 H   0  0  0  0  0  0  0  0  0  0  0  0
   39.4720   33.3730   41.7730 H   0  0  0  0  0  0  0  0  0  0  0  0
   41.3600   31.7800   42.5570 N   0  0  0  0  0  0  0  0  0  0  0  0
   41.3210   31.4550   43.5580 H   0  0  0  0  0  0  0  0  0  0  0  0
   42.1800   32.3280   42.2330 H   0  0  0  0  0  0  0  0  0  0  0  0
   36.5100   30.0580   41.1550 O   0  0  0  0  0  0  0  0  0  0  0  0
   36.9680   29.1040   42.0680 C   0  0  0  0  0  0  0  0  0  0  0  0
   37.0270   27.7950   41.6530 C   0  0  0  0  0  0  0  0  0  0  0  0
   36.8180   27.1580   40.7810 H   0  0  0  0  0  0  0  0  0  0  0  0
   37.4830   26.9790   42.6340 C   0  0  0  0  0  0  0  0  0  0  0  0
   37.7140   25.9390   42.8490 H   0  0  0  0  0  0  0  0  0  0  0  0
   37.7090   27.8140   43.6800 C   0  0  0  0  0  0  0  0  0  0  0  0
   38.0480   27.8820   44.7120 H   0  0  0  0  0  0  0  0  0  0  0  0
   37.3960   28.9980   43.2850 O   0  0  0  0  0  0  0  0  0  0  0  0
  1 10  1  0  0  0  0
  1 21  1  0  0  0  0
  2  1  2  0  0  0  0
  3  4  2  0  0  0  0
  3  2  1  0  0  0  0
  4  5  1  0  0  0  0
  5  6  2  0  0  0  0
  5 10  1  0  0  0  0
  6  7  1  0  0  0  0
  7 15  1  0  0  0  0
  7  8  2  0  0  0  0
  8 16  1  0  0  0  0
  9  8  1  0  0  0  0
  9 28  1  0  0  0  0
 10  9  2  0  0  0  0
 11  2  1  0  0  0  0
 12  3  1  0  0  0  0
 13  4  1  0  0  0  0
 14  6  1  0  0  0  0
 17 23  1  0  0  0  0
 17 18  1  0  0  0  0
 18 25  1  0  0  0  0
 19 18  2  0  0  0  0
 19 24  1  0  0  0  0
 20 19  1  0  0  0  0
 21 22  1  0  0  0  0
 21 20  2  0  0  0  0
 22 17  2  0  0  0  0
 25 26  1  0  0  0  0
 27 25  1  0  0  0  0
 28 29  1  0  0  0  0
 29 36  1  0  0  0  0
 30 29  2  0  0  0  0
 30 32  1  0  0  0  0
 31 30  1  0  0  0  0
 32 33  1  0  0  0  0
 32 34  2  0  0  0  0
 34 35  1  0  0  0  0
 36 34  1  0  0  0  0
M  END
>  <minimizedAffinity>
-5.56573105

$$$$
