
 OpenBabel03242514233D

 33 36  0  0  0  0  0  0  0  0999 V2000
   44.8000   33.1270   41.1100 Cl  0  0  0  0  0  0  0  0  0  0  0  0
   46.3320   33.9560   40.9010 C   0  0  0  0  0  0  0  0  0  0  0  0
   46.8410   34.7160   41.9130 C   0  0  0  0  0  0  0  0  0  0  0  0
   48.0560   35.3800   41.7610 C   0  0  0  0  0  0  0  0  0  0  0  0
   48.6970   35.2290   40.5630 C   0  0  0  0  0  0  0  0  0  0  0  0
   48.1790   34.4600   39.5430 C   0  0  0  0  0  0  0  0  0  0  0  0
   46.9880   33.8170   39.7070 C   0  0  0  0  0  0  0  0  0  0  0  0
   48.4820   35.9850   42.5410 H   0  0  0  0  0  0  0  0  0  0  0  0
   49.6560   35.7010   40.3300 H   0  0  0  0  0  0  0  0  0  0  0  0
   48.6830   34.3350   38.5850 H   0  0  0  0  0  0  0  0  0  0  0  0
   45.6070   34.0380   45.3180 C   0  0  0  0  0  0  0  0  0  0  0  0
   44.7190   35.1020   45.5270 C   0  0  0  0  0  0  0  0  0  0  0  0
   44.5490   36.0340   44.5130 C   0  0  0  0  0  0  0  0  0  0  0  0
   45.2510   35.8700   43.3700 N   0  0  0  0  0  0  0  0  0  0  0  0
   46.1070   34.8390   43.1760 C   0  0  0  0  0  0  0  0  0  0  0  0
   46.2900   33.9150   44.1540 N   0  0  0  0  0  0  0  0  0  0  0  0
   45.7270   33.3160   46.1270 H   0  0  0  0  0  0  0  0  0  0  0  0
   44.1510   35.2610   46.4140 H   0  0  0  0  0  0  0  0  0  0  0  0
   43.9190   36.8930   44.5090 H   0  0  0  0  0  0  0  0  0  0  0  0
   46.4120   32.9960   38.6490 C   0  0  0  0  0  0  0  0  0  0  0  0
   45.4650   33.3440   37.7690 N   0  0  0  0  0  0  0  0  0  0  0  0
   45.2110   32.3020   36.9590 C   0  0  0  0  0  0  0  0  0  0  0  0
   46.0090   31.2770   37.3330 N   0  0  0  0  0  0  0  0  0  0  0  0
   46.7420   31.7140   38.3700 N   0  0  0  0  0  0  0  0  0  0  0  0
   44.5330   32.1770   36.1410 H   0  0  0  0  0  0  0  0  0  0  0  0
   46.1910   29.9450   36.8620 C   0  0  0  0  0  0  0  0  0  0  0  0
   45.0360   29.1830   36.6450 C   0  0  0  0  0  0  0  0  0  0  0  0
   43.9770   29.3800   36.7590 H   0  0  0  0  0  0  0  0  0  0  0  0
   45.4710   27.9380   36.1940 C   0  0  0  0  0  0  0  0  0  0  0  0
   44.9780   27.0160   35.8950 H   0  0  0  0  0  0  0  0  0  0  0  0
   46.8670   28.0220   36.1640 C   0  0  0  0  0  0  0  0  0  0  0  0
   47.6640   27.3330   35.8910 H   0  0  0  0  0  0  0  0  0  0  0  0
   47.2450   29.2230   36.5660 O   0  0  0  0  0  0  0  0  0  0  0  0
  2  1  1  0  0  0  0
  2  3  1  0  0  0  0
  3 15  1  0  0  0  0
  4  3  2  0  0  0  0
  4  8  1  0  0  0  0
  5  4  1  0  0  0  0
  6  7  1  0  0  0  0
  6  5  2  0  0  0  0
  7  2  2  0  0  0  0
  9  5  1  0  0  0  0
 10  6  1  0  0  0  0
 11 12  1  0  0  0  0
 11 17  1  0  0  0  0
 12 18  1  0  0  0  0
 13 12  2  0  0  0  0
 14 13  1  0  0  0  0
 15 14  2  0  0  0  0
 15 16  1  0  0  0  0
 16 11  2  0  0  0  0
 19 13  1  0  0  0  0
 20  7  1  0  0  0  0
 21 20  1  0  0  0  0
 22 23  1  0  0  0  0
 22 21  2  0  0  0  0
 23 24  1  0  0  0  0
 24 20  2  0  0  0  0
 25 22  1  0  0  0  0
 26 23  1  0  0  0  0
 27 28  1  0  0  0  0
 27 26  2  0  0  0  0
 29 27  1  0  0  0  0
 30 29  1  0  0  0  0
 31 29  2  0  0  0  0
 31 33  1  0  0  0  0
 32 31  1  0  0  0  0
 33 26  1  0  0  0  0
M  END
>  <minimizedAffinity>
-5.3205781

>  <minimizedRMSD>
0.209845349

$$$$
