
 OpenBabel03242517183D

 32 34  0  0  0  0  0  0  0  0999 V2000
   34.2590   29.0950   37.3350 C   0  0  0  0  0  3  0  0  0  0  0  0
   33.0490   28.6510   37.1150 C   0  0  0  0  0  3  0  0  0  0  0  0
   36.3320   28.1720   38.3790 C   0  0  0  0  0  0  0  0  0  0  0  0
   35.0810   28.7960   38.5070 C   0  0  0  0  0  0  0  0  0  0  0  0
   34.6500   29.1190   39.7790 C   0  0  0  0  0  0  0  0  0  0  0  0
   35.4650   28.8130   40.8180 N   0  0  0  0  0  0  0  0  0  0  0  0
   36.6640   28.2130   40.6760 C   0  0  0  0  0  0  0  0  0  0  0  0
   37.0790   27.9010   39.4480 N   0  0  0  0  0  0  0  0  0  0  0  0
   36.6510   27.9270   37.3740 H   0  0  0  0  0  0  0  0  0  0  0  0
   33.7020   29.5940   39.8880 H   0  0  0  0  0  0  0  0  0  0  0  0
   37.4430   27.9380   41.8780 C   0  0  0  0  0  0  0  0  0  0  0  0
   36.7500   27.8960   43.0930 C   0  0  0  0  0  0  0  0  0  0  0  0
   35.7170   28.0300   43.3440 H   0  0  0  0  0  0  0  0  0  0  0  0
   37.7000   27.6230   44.0600 C   0  0  0  0  0  0  0  0  0  0  0  0
   37.5580   27.5100   45.1330 H   0  0  0  0  0  0  0  0  0  0  0  0
   38.9200   27.5100   43.3890 C   0  0  0  0  0  0  0  0  0  0  0  0
   39.8890   27.3000   43.8310 H   0  0  0  0  0  0  0  0  0  0  0  0
   38.7030   27.7080   42.0960 O   0  0  0  0  0  0  0  0  0  0  0  0
   32.2450   28.9820   35.9040 C   0  0  0  0  0  0  0  0  0  0  0  0
   32.9620   29.1610   35.0520 H   0  0  0  0  0  0  0  0  0  0  0  0
   31.5860   28.1260   35.6230 H   0  0  0  0  0  0  0  0  0  0  0  0
   32.0340   30.9520   33.9340 F   0  0  0  0  0  0  0  0  0  0  0  0
   31.3720   31.1500   35.0930 C   0  0  0  0  0  0  0  0  0  0  0  0
   31.4560   30.1800   36.1050 C   0  0  0  0  0  0  0  0  0  0  0  0
   30.7340   30.5230   37.2140 C   0  0  0  0  0  0  0  0  0  0  0  0
   29.9780   31.6460   37.4370 C   0  0  0  0  0  0  0  0  0  0  0  0
   29.9670   32.5420   36.3620 C   0  0  0  0  0  0  0  0  0  0  0  0
   30.6440   32.3310   35.1870 C   0  0  0  0  0  0  0  0  0  0  0  0
   30.7510   29.8110   38.0550 H   0  0  0  0  0  0  0  0  0  0  0  0
   29.4480   31.8250   38.3420 H   0  0  0  0  0  0  0  0  0  0  0  0
   29.3970   33.4590   36.4440 H   0  0  0  0  0  0  0  0  0  0  0  0
   30.6210   33.0260   34.3820 H   0  0  0  0  0  0  0  0  0  0  0  0
  1  4  1  0  0  0  0
  2  1  2  0  0  0  0
  3  4  2  0  0  0  0
  3  8  1  0  0  0  0
  4  5  1  0  0  0  0
  5 10  1  0  0  0  0
  5  6  2  0  0  0  0
  7  6  1  0  0  0  0
  7 11  1  0  0  0  0
  8  7  2  0  0  0  0
  9  3  1  0  0  0  0
 11 18  1  0  0  0  0
 11 12  2  0  0  0  0
 12 13  1  0  0  0  0
 12 14  1  0  0  0  0
 14 15  1  0  0  0  0
 16 17  1  0  0  0  0
 16 14  2  0  0  0  0
 18 16  1  0  0  0  0
 19 24  1  0  0  0  0
 19  2  1  0  0  0  0
 20 19  1  0  0  0  0
 21 19  1  0  0  0  0
 22 23  1  0  0  0  0
 23 28  2  0  0  0  0
 23 24  1  0  0  0  0
 24 25  2  0  0  0  0
 25 26  1  0  0  0  0
 25 29  1  0  0  0  0
 26 30  1  0  0  0  0
 27 31  1  0  0  0  0
 27 26  2  0  0  0  0
 28 27  1  0  0  0  0
 32 28  1  0  0  0  0
M  END
>  <minimizedAffinity>
-5.69598341

$$$$

 OpenBabel03242517183D

 32 34  0  0  0  0  0  0  0  0999 V2000
   33.9870   28.3130   37.2470 C   0  0  0  0  0  3  0  0  0  0  0  0
   32.8600   28.9650   37.1380 C   0  0  0  0  0  3  0  0  0  0  0  0
   34.5890   29.0850   39.5450 C   0  0  0  0  0  0  0  0  0  0  0  0
   34.8280   28.2490   38.4430 C   0  0  0  0  0  0  0  0  0  0  0  0
   35.8840   27.3620   38.5230 C   0  0  0  0  0  0  0  0  0  0  0  0
   36.6180   27.3590   39.6620 N   0  0  0  0  0  0  0  0  0  0  0  0
   36.3750   28.1690   40.7120 C   0  0  0  0  0  0  0  0  0  0  0  0
   35.3550   29.0260   40.6330 N   0  0  0  0  0  0  0  0  0  0  0  0
   33.7580   29.7730   39.4620 H   0  0  0  0  0  0  0  0  0  0  0  0
   36.0730   26.7220   37.6930 H   0  0  0  0  0  0  0  0  0  0  0  0
   37.2440   28.0650   41.8790 C   0  0  0  0  0  0  0  0  0  0  0  0
   36.6530   27.6590   43.0810 C   0  0  0  0  0  0  0  0  0  0  0  0
   35.6480   27.3940   43.3420 H   0  0  0  0  0  0  0  0  0  0  0  0
   37.6720   27.6400   44.0150 C   0  0  0  0  0  0  0  0  0  0  0  0
   37.6170   27.3760   45.0690 H   0  0  0  0  0  0  0  0  0  0  0  0
   38.8300   28.0340   43.3380 C   0  0  0  0  0  0  0  0  0  0  0  0
   39.8260   28.1350   43.7570 H   0  0  0  0  0  0  0  0  0  0  0  0
   38.5110   28.2730   42.0740 O   0  0  0  0  0  0  0  0  0  0  0  0
   32.0330   29.0030   35.8980 C   0  0  0  0  0  0  0  0  0  0  0  0
   32.7170   28.8160   35.0210 H   0  0  0  0  0  0  0  0  0  0  0  0
   31.2640   28.1950   35.9120 H   0  0  0  0  0  0  0  0  0  0  0  0
   30.2850   30.0530   37.8080 F   0  0  0  0  0  0  0  0  0  0  0  0
   30.5280   30.7930   36.7060 C   0  0  0  0  0  0  0  0  0  0  0  0
   31.4010   30.2950   35.7260 C   0  0  0  0  0  0  0  0  0  0  0  0
   31.5440   31.1560   34.6730 C   0  0  0  0  0  0  0  0  0  0  0  0
   30.9620   32.3840   34.4790 C   0  0  0  0  0  0  0  0  0  0  0  0
   30.1130   32.7770   35.5180 C   0  0  0  0  0  0  0  0  0  0  0  0
   29.8730   32.0180   36.6360 C   0  0  0  0  0  0  0  0  0  0  0  0
   32.2140   30.8360   33.8600 H   0  0  0  0  0  0  0  0  0  0  0  0
   31.1370   32.9860   33.6180 H   0  0  0  0  0  0  0  0  0  0  0  0
   29.6070   33.7330   35.4550 H   0  0  0  0  0  0  0  0  0  0  0  0
   29.2230   32.3360   37.4140 H   0  0  0  0  0  0  0  0  0  0  0  0
  1  4  1  0  0  0  0
  2  1  2  0  0  0  0
  3  8  1  0  0  0  0
  4  5  1  0  0  0  0
  4  3  2  0  0  0  0
  5  6  2  0  0  0  0
  6  7  1  0  0  0  0
  7 11  1  0  0  0  0
  8  7  2  0  0  0  0
  9  3  1  0  0  0  0
 10  5  1  0  0  0  0
 11 18  1  0  0  0  0
 11 12  2  0  0  0  0
 12 13  1  0  0  0  0
 12 14  1  0  0  0  0
 14 15  1  0  0  0  0
 16 17  1  0  0  0  0
 16 14  2  0  0  0  0
 18 16  1  0  0  0  0
 19 21  1  0  0  0  0
 19  2  1  0  0  0  0
 20 19  1  0  0  0  0
 23 22  1  0  0  0  0
 24 19  1  0  0  0  0
 24 23  2  0  0  0  0
 25 24  1  0  0  0  0
 26 25  2  0  0  0  0
 26 27  1  0  0  0  0
 27 28  2  0  0  0  0
 28 23  1  0  0  0  0
 28 32  1  0  0  0  0
 29 25  1  0  0  0  0
 30 26  1  0  0  0  0
 31 27  1  0  0  0  0
M  END
>  <minimizedAffinity>
-5.65515423

$$$$

 OpenBabel03242517183D

 32 34  0  0  0  0  0  0  0  0999 V2000
   36.6220   27.8650   41.9950 C   0  0  0  0  0  3  0  0  0  0  0  0
   37.3370   26.7710   42.0210 C   0  0  0  0  0  3  0  0  0  0  0  0
   36.2490   30.1450   41.0470 C   0  0  0  0  0  0  0  0  0  0  0  0
   37.1050   29.1950   41.6260 C   0  0  0  0  0  0  0  0  0  0  0  0
   38.4210   29.5580   41.8370 C   0  0  0  0  0  0  0  0  0  0  0  0
   38.7970   30.8080   41.4710 N   0  0  0  0  0  0  0  0  0  0  0  0
   37.9610   31.7080   40.9150 C   0  0  0  0  0  0  0  0  0  0  0  0
   36.6910   31.3560   40.7120 N   0  0  0  0  0  0  0  0  0  0  0  0
   35.2220   29.8410   40.8900 H   0  0  0  0  0  0  0  0  0  0  0  0
   39.0800   28.8450   42.2770 H   0  0  0  0  0  0  0  0  0  0  0  0
   38.4940   33.0200   40.5660 C   0  0  0  0  0  0  0  0  0  0  0  0
   39.8850   33.1730   40.5940 C   0  0  0  0  0  0  0  0  0  0  0  0
   40.6840   32.4990   40.8290 H   0  0  0  0  0  0  0  0  0  0  0  0
   40.1280   34.4840   40.2290 C   0  0  0  0  0  0  0  0  0  0  0  0
   41.0850   34.9910   40.1320 H   0  0  0  0  0  0  0  0  0  0  0  0
   38.8780   35.0630   39.9970 C   0  0  0  0  0  0  0  0  0  0  0  0
   38.6810   36.0860   39.6930 H   0  0  0  0  0  0  0  0  0  0  0  0
   37.9470   34.1440   40.2140 O   0  0  0  0  0  0  0  0  0  0  0  0
   36.8040   25.4320   42.4050 C   0  0  0  0  0  0  0  0  0  0  0  0
   37.3690   25.0840   43.3160 H   0  0  0  0  0  0  0  0  0  0  0  0
   35.7240   25.5020   42.6760 H   0  0  0  0  0  0  0  0  0  0  0  0
   39.1250   23.8900   42.2220 F   0  0  0  0  0  0  0  0  0  0  0  0
   38.1740   23.7060   41.2820 C   0  0  0  0  0  0  0  0  0  0  0  0
   36.9950   24.4650   41.3440 C   0  0  0  0  0  0  0  0  0  0  0  0
   36.1320   24.1660   40.3260 C   0  0  0  0  0  0  0  0  0  0  0  0
   36.2810   23.2580   39.3080 C   0  0  0  0  0  0  0  0  0  0  0  0
   37.4930   22.5600   39.3470 C   0  0  0  0  0  0  0  0  0  0  0  0
   38.4540   22.7540   40.3080 C   0  0  0  0  0  0  0  0  0  0  0  0
   35.1810   24.7220   40.3050 H   0  0  0  0  0  0  0  0  0  0  0  0
   35.5460   23.0950   38.5550 H   0  0  0  0  0  0  0  0  0  0  0  0
   37.7020   21.8200   38.5840 H   0  0  0  0  0  0  0  0  0  0  0  0
   39.3690   22.2120   40.3180 H   0  0  0  0  0  0  0  0  0  0  0  0
  1  2  2  0  0  0  0
  2 19  1  0  0  0  0
  3  4  1  0  0  0  0
  4  5  2  0  0  0  0
  4  1  1  0  0  0  0
  5 10  1  0  0  0  0
  6  5  1  0  0  0  0
  7  6  2  0  0  0  0
  8  7  1  0  0  0  0
  8  3  2  0  0  0  0
  9  3  1  0  0  0  0
 11 12  2  0  0  0  0
 11  7  1  0  0  0  0
 12 13  1  0  0  0  0
 14 12  1  0  0  0  0
 15 14  1  0  0  0  0
 16 18  1  0  0  0  0
 16 14  2  0  0  0  0
 17 16  1  0  0  0  0
 18 11  1  0  0  0  0
 19 21  1  0  0  0  0
 19 20  1  0  0  0  0
 23 24  1  0  0  0  0
 23 22  1  0  0  0  0
 24 19  1  0  0  0  0
 25 24  2  0  0  0  0
 26 27  2  0  0  0  0
 26 25  1  0  0  0  0
 27 28  1  0  0  0  0
 28 32  1  0  0  0  0
 28 23  2  0  0  0  0
 29 25  1  0  0  0  0
 30 26  1  0  0  0  0
 31 27  1  0  0  0  0
M  END
>  <minimizedAffinity>
-5.61155128

$$$$

 OpenBabel03242517183D

 32 34  0  0  0  0  0  0  0  0999 V2000
   36.5640   27.4170   41.9370 C   0  0  0  0  0  3  0  0  0  0  0  0
   37.3650   26.3940   42.0770 C   0  0  0  0  0  3  0  0  0  0  0  0
   38.2730   29.2360   41.8530 C   0  0  0  0  0  0  0  0  0  0  0  0
   36.9680   28.7820   41.6030 C   0  0  0  0  0  0  0  0  0  0  0  0
   36.0770   29.6680   41.0290 C   0  0  0  0  0  0  0  0  0  0  0  0
   36.5230   30.9160   40.7460 N   0  0  0  0  0  0  0  0  0  0  0  0
   37.7800   31.3350   40.9930 C   0  0  0  0  0  0  0  0  0  0  0  0
   38.6400   30.4800   41.5470 N   0  0  0  0  0  0  0  0  0  0  0  0
   38.9560   28.5270   42.3030 H   0  0  0  0  0  0  0  0  0  0  0  0
   35.0840   29.3330   40.8340 H   0  0  0  0  0  0  0  0  0  0  0  0
   38.1310   32.7070   40.6400 C   0  0  0  0  0  0  0  0  0  0  0  0
   37.3270   33.3490   39.6920 C   0  0  0  0  0  0  0  0  0  0  0  0
   36.4640   33.0330   39.1400 H   0  0  0  0  0  0  0  0  0  0  0  0
   37.8620   34.6140   39.5380 C   0  0  0  0  0  0  0  0  0  0  0  0
   37.5200   35.4170   38.8890 H   0  0  0  0  0  0  0  0  0  0  0  0
   38.9620   34.6810   40.3970 C   0  0  0  0  0  0  0  0  0  0  0  0
   39.6250   35.5280   40.5400 H   0  0  0  0  0  0  0  0  0  0  0  0
   39.0700   33.5180   41.0240 O   0  0  0  0  0  0  0  0  0  0  0  0
   36.9090   25.0160   42.4190 C   0  0  0  0  0  0  0  0  0  0  0  0
   37.5840   24.6220   43.2330 H   0  0  0  0  0  0  0  0  0  0  0  0
   35.8670   25.0330   42.8170 H   0  0  0  0  0  0  0  0  0  0  0  0
   39.2480   23.6100   41.8230 F   0  0  0  0  0  0  0  0  0  0  0  0
   38.1890   23.4400   41.0050 C   0  0  0  0  0  0  0  0  0  0  0  0
   36.9970   24.1320   41.2750 C   0  0  0  0  0  0  0  0  0  0  0  0
   36.0190   23.8580   40.3600 C   0  0  0  0  0  0  0  0  0  0  0  0
   36.0680   23.0280   39.2680 C   0  0  0  0  0  0  0  0  0  0  0  0
   37.3030   22.3920   39.0970 C   0  0  0  0  0  0  0  0  0  0  0  0
   38.3750   22.5710   39.9360 C   0  0  0  0  0  0  0  0  0  0  0  0
   35.0510   24.3640   40.5040 H   0  0  0  0  0  0  0  0  0  0  0  0
   35.2470   22.8780   38.6080 H   0  0  0  0  0  0  0  0  0  0  0  0
   37.4390   21.7160   38.2620 H   0  0  0  0  0  0  0  0  0  0  0  0
   39.3050   22.0770   39.7870 H   0  0  0  0  0  0  0  0  0  0  0  0
  1  2  2  0  0  0  0
  2 19  1  0  0  0  0
  3  9  1  0  0  0  0
  4  3  1  0  0  0  0
  4  1  1  0  0  0  0
  5  4  2  0  0  0  0
  6  7  2  0  0  0  0
  6  5  1  0  0  0  0
  7  8  1  0  0  0  0
  8  3  2  0  0  0  0
 10  5  1  0  0  0  0
 11  7  1  0  0  0  0
 11 18  1  0  0  0  0
 12 11  2  0  0  0  0
 13 12  1  0  0  0  0
 14 12  1  0  0  0  0
 14 16  2  0  0  0  0
 15 14  1  0  0  0  0
 16 17  1  0  0  0  0
 16 18  1  0  0  0  0
 19 21  1  0  0  0  0
 19 20  1  0  0  0  0
 23 24  1  0  0  0  0
 23 22  1  0  0  0  0
 24 19  1  0  0  0  0
 25 29  1  0  0  0  0
 25 24  2  0  0  0  0
 26 25  1  0  0  0  0
 27 26  2  0  0  0  0
 27 28  1  0  0  0  0
 28 23  2  0  0  0  0
 30 26  1  0  0  0  0
 31 27  1  0  0  0  0
 32 28  1  0  0  0  0
M  END
>  <minimizedAffinity>
-5.52691698

$$$$

 OpenBabel03242517183D

 32 34  0  0  0  0  0  0  0  0999 V2000
   36.5950   27.2400   41.5820 C   0  0  0  0  0  3  0  0  0  0  0  0
   37.4210   26.2470   41.7830 C   0  0  0  0  0  3  0  0  0  0  0  0
   38.2100   29.1370   41.7550 C   0  0  0  0  0  0  0  0  0  0  0  0
   36.9720   28.6300   41.3280 C   0  0  0  0  0  0  0  0  0  0  0  0
   36.1210   29.4870   40.6600 C   0  0  0  0  0  0  0  0  0  0  0  0
   36.5390   30.7610   40.4600 N   0  0  0  0  0  0  0  0  0  0  0  0
   37.7310   31.2320   40.8770 C   0  0  0  0  0  0  0  0  0  0  0  0
   38.5530   30.4030   41.5230 N   0  0  0  0  0  0  0  0  0  0  0  0
   38.8630   28.4490   42.2780 H   0  0  0  0  0  0  0  0  0  0  0  0
   35.1800   29.1120   40.3300 H   0  0  0  0  0  0  0  0  0  0  0  0
   38.0580   32.6260   40.5980 C   0  0  0  0  0  0  0  0  0  0  0  0
   37.2660   33.2920   39.6560 C   0  0  0  0  0  0  0  0  0  0  0  0
   36.4270   32.9830   39.0650 H   0  0  0  0  0  0  0  0  0  0  0  0
   37.7730   34.5750   39.5770 C   0  0  0  0  0  0  0  0  0  0  0  0
   37.4300   35.4000   38.9550 H   0  0  0  0  0  0  0  0  0  0  0  0
   38.8450   34.6280   40.4710 C   0  0  0  0  0  0  0  0  0  0  0  0
   39.4830   35.4830   40.6730 H   0  0  0  0  0  0  0  0  0  0  0  0
   38.9650   33.4400   41.0470 O   0  0  0  0  0  0  0  0  0  0  0  0
   36.9930   24.8420   42.0390 C   0  0  0  0  0  0  0  0  0  0  0  0
   37.5170   24.4850   42.9720 H   0  0  0  0  0  0  0  0  0  0  0  0
   35.8930   24.7930   42.2240 H   0  0  0  0  0  0  0  0  0  0  0  0
   35.0640   23.5850   40.4560 F   0  0  0  0  0  0  0  0  0  0  0  0
   36.3620   23.3550   40.1650 C   0  0  0  0  0  0  0  0  0  0  0  0
   37.3570   23.9710   40.9410 C   0  0  0  0  0  0  0  0  0  0  0  0
   38.6170   23.6410   40.5250 C   0  0  0  0  0  0  0  0  0  0  0  0
   38.9970   22.8220   39.4910 C   0  0  0  0  0  0  0  0  0  0  0  0
   37.9230   22.2640   38.7890 C   0  0  0  0  0  0  0  0  0  0  0  0
   36.6060   22.5050   39.0920 C   0  0  0  0  0  0  0  0  0  0  0  0
   39.4550   24.0850   41.0850 H   0  0  0  0  0  0  0  0  0  0  0  0
   40.0130   22.6250   39.2420 H   0  0  0  0  0  0  0  0  0  0  0  0
   38.1220   21.6030   37.9540 H   0  0  0  0  0  0  0  0  0  0  0  0
   35.8050   22.0700   38.5450 H   0  0  0  0  0  0  0  0  0  0  0  0
  1  2  2  0  0  0  0
  2 19  1  0  0  0  0
  3  9  1  0  0  0  0
  4  1  1  0  0  0  0
  4  3  2  0  0  0  0
  5  4  1  0  0  0  0
  6  5  2  0  0  0  0
  6  7  1  0  0  0  0
  7  8  2  0  0  0  0
  8  3  1  0  0  0  0
 10  5  1  0  0  0  0
 11  7  1  0  0  0  0
 11 18  1  0  0  0  0
 12 11  2  0  0  0  0
 13 12  1  0  0  0  0
 14 12  1  0  0  0  0
 14 16  2  0  0  0  0
 15 14  1  0  0  0  0
 16 17  1  0  0  0  0
 16 18  1  0  0  0  0
 19 21  1  0  0  0  0
 19 20  1  0  0  0  0
 23 22  1  0  0  0  0
 23 24  1  0  0  0  0
 24 19  1  0  0  0  0
 25 24  2  0  0  0  0
 25 29  1  0  0  0  0
 26 25  1  0  0  0  0
 27 28  1  0  0  0  0
 27 26  2  0  0  0  0
 28 23  2  0  0  0  0
 30 26  1  0  0  0  0
 31 27  1  0  0  0  0
 32 28  1  0  0  0  0
M  END
>  <minimizedAffinity>
-5.15319109

$$$$

 OpenBabel03242517183D

 32 34  0  0  0  0  0  0  0  0999 V2000
   34.3790   29.0320   37.2510 C   0  0  0  0  0  3  0  0  0  0  0  0
   33.0920   28.9590   37.4640 C   0  0  0  0  0  3  0  0  0  0  0  0
   36.7600   29.3100   37.9540 C   0  0  0  0  0  0  0  0  0  0  0  0
   35.4170   29.0650   38.2810 C   0  0  0  0  0  0  0  0  0  0  0  0
   35.1060   28.8570   39.6110 C   0  0  0  0  0  0  0  0  0  0  0  0
   36.1190   28.9040   40.5100 N   0  0  0  0  0  0  0  0  0  0  0  0
   37.4040   29.1400   40.1780 C   0  0  0  0  0  0  0  0  0  0  0  0
   37.7030   29.3410   38.8930 N   0  0  0  0  0  0  0  0  0  0  0  0
   36.9830   29.4710   36.9070 H   0  0  0  0  0  0  0  0  0  0  0  0
   34.0890   28.6710   39.8710 H   0  0  0  0  0  0  0  0  0  0  0  0
   38.3990   29.1630   41.2440 C   0  0  0  0  0  0  0  0  0  0  0  0
   38.9330   30.4080   41.5940 C   0  0  0  0  0  0  0  0  0  0  0  0
   38.7600   31.4000   41.2270 H   0  0  0  0  0  0  0  0  0  0  0  0
   39.8360   30.1590   42.6110 C   0  0  0  0  0  0  0  0  0  0  0  0
   40.4570   30.8700   43.1510 H   0  0  0  0  0  0  0  0  0  0  0  0
   39.8070   28.7800   42.8300 C   0  0  0  0  0  0  0  0  0  0  0  0
   40.3900   28.2240   43.5580 H   0  0  0  0  0  0  0  0  0  0  0  0
   38.9350   28.2430   41.9880 O   0  0  0  0  0  0  0  0  0  0  0  0
   32.0660   28.9280   36.3820 C   0  0  0  0  0  0  0  0  0  0  0  0
   32.6010   28.7520   35.4040 H   0  0  0  0  0  0  0  0  0  0  0  0
   31.3530   28.0840   36.5390 H   0  0  0  0  0  0  0  0  0  0  0  0
   32.0970   30.4870   34.0640 F   0  0  0  0  0  0  0  0  0  0  0  0
   31.3860   30.9430   35.1170 C   0  0  0  0  0  0  0  0  0  0  0  0
   31.3490   30.1840   36.2980 C   0  0  0  0  0  0  0  0  0  0  0  0
   30.5920   30.7750   37.2710 C   0  0  0  0  0  0  0  0  0  0  0  0
   29.9010   31.9600   37.2240 C   0  0  0  0  0  0  0  0  0  0  0  0
   30.0100   32.6290   36.0010 C   0  0  0  0  0  0  0  0  0  0  0  0
   30.7350   32.1570   34.9350 C   0  0  0  0  0  0  0  0  0  0  0  0
   30.5140   30.2400   38.2300 H   0  0  0  0  0  0  0  0  0  0  0  0
   29.3340   32.3400   38.0410 H   0  0  0  0  0  0  0  0  0  0  0  0
   29.4980   33.5750   35.8680 H   0  0  0  0  0  0  0  0  0  0  0  0
   30.8040   32.6830   34.0140 H   0  0  0  0  0  0  0  0  0  0  0  0
  1  2  2  0  0  0  0
  1  4  1  0  0  0  0
  3  4  2  0  0  0  0
  3  8  1  0  0  0  0
  4  5  1  0  0  0  0
  5 10  1  0  0  0  0
  5  6  2  0  0  0  0
  7  6  1  0  0  0  0
  7 11  1  0  0  0  0
  8  7  2  0  0  0  0
  9  3  1  0  0  0  0
 11 12  2  0  0  0  0
 11 18  1  0  0  0  0
 12 14  1  0  0  0  0
 13 12  1  0  0  0  0
 14 16  2  0  0  0  0
 14 15  1  0  0  0  0
 16 17  1  0  0  0  0
 18 16  1  0  0  0  0
 19 21  1  0  0  0  0
 19  2  1  0  0  0  0
 20 19  1  0  0  0  0
 22 23  1  0  0  0  0
 23 24  1  0  0  0  0
 24 19  1  0  0  0  0
 24 25  2  0  0  0  0
 25 29  1  0  0  0  0
 26 25  1  0  0  0  0
 26 30  1  0  0  0  0
 27 26  2  0  0  0  0
 28 23  2  0  0  0  0
 28 27  1  0  0  0  0
 31 27  1  0  0  0  0
 32 28  1  0  0  0  0
M  END
>  <minimizedAffinity>
-5.12129354

$$$$

 OpenBabel03242517183D

 32 34  0  0  0  0  0  0  0  0999 V2000
   34.6310   29.2350   38.2900 C   0  0  0  0  0  3  0  0  0  0  0  0
   33.6650   28.6360   37.6440 C   0  0  0  0  0  3  0  0  0  0  0  0
   36.2920   27.4750   38.9110 C   0  0  0  0  0  0  0  0  0  0  0  0
   35.5340   28.6060   39.2540 C   0  0  0  0  0  0  0  0  0  0  0  0
   35.6690   29.1080   40.5340 C   0  0  0  0  0  0  0  0  0  0  0  0
   36.5260   28.4750   41.3720 N   0  0  0  0  0  0  0  0  0  0  0  0
   37.2460   27.3890   41.0260 C   0  0  0  0  0  0  0  0  0  0  0  0
   37.1140   26.9050   39.7900 N   0  0  0  0  0  0  0  0  0  0  0  0
   36.1710   27.0970   37.9040 H   0  0  0  0  0  0  0  0  0  0  0  0
   35.1000   29.9670   40.8040 H   0  0  0  0  0  0  0  0  0  0  0  0
   38.1310   26.8020   42.0260 C   0  0  0  0  0  0  0  0  0  0  0  0
   38.4030   27.5650   43.1660 C   0  0  0  0  0  0  0  0  0  0  0  0
   38.0840   28.5390   43.4800 H   0  0  0  0  0  0  0  0  0  0  0  0
   39.2500   26.7960   43.9420 C   0  0  0  0  0  0  0  0  0  0  0  0
   39.6880   27.0390   44.9080 H   0  0  0  0  0  0  0  0  0  0  0  0
   39.4520   25.6060   43.2380 C   0  0  0  0  0  0  0  0  0  0  0  0
   40.0650   24.7640   43.5460 H   0  0  0  0  0  0  0  0  0  0  0  0
   38.7610   25.6690   42.1080 O   0  0  0  0  0  0  0  0  0  0  0  0
   32.7660   29.3160   36.6680 C   0  0  0  0  0  0  0  0  0  0  0  0
   33.1470   30.3670   36.5210 H   0  0  0  0  0  0  0  0  0  0  0  0
   32.7960   28.8000   35.6790 H   0  0  0  0  0  0  0  0  0  0  0  0
   30.6580   28.0550   35.3380 F   0  0  0  0  0  0  0  0  0  0  0  0
   30.3700   28.7350   36.4670 C   0  0  0  0  0  0  0  0  0  0  0  0
   31.4060   29.3810   37.1610 C   0  0  0  0  0  0  0  0  0  0  0  0
   30.9570   30.0260   38.2800 C   0  0  0  0  0  0  0  0  0  0  0  0
   29.6800   30.1070   38.7740 C   0  0  0  0  0  0  0  0  0  0  0  0
   28.7310   29.4270   38.0030 C   0  0  0  0  0  0  0  0  0  0  0  0
   29.0350   28.7370   36.8550 C   0  0  0  0  0  0  0  0  0  0  0  0
   31.7120   30.5590   38.8800 H   0  0  0  0  0  0  0  0  0  0  0  0
   29.4270   30.6370   39.6620 H   0  0  0  0  0  0  0  0  0  0  0  0
   27.6930   29.4330   38.3130 H   0  0  0  0  0  0  0  0  0  0  0  0
   28.2970   28.2270   36.2840 H   0  0  0  0  0  0  0  0  0  0  0  0
  1  4  1  0  0  0  0
  2  1  2  0  0  0  0
  3  4  2  0  0  0  0
  3  8  1  0  0  0  0
  4  5  1  0  0  0  0
  5 10  1  0  0  0  0
  5  6  2  0  0  0  0
  7  6  1  0  0  0  0
  7 11  1  0  0  0  0
  8  7  2  0  0  0  0
  9  3  1  0  0  0  0
 11 18  1  0  0  0  0
 11 12  2  0  0  0  0
 12 13  1  0  0  0  0
 12 14  1  0  0  0  0
 14 15  1  0  0  0  0
 16 17  1  0  0  0  0
 16 14  2  0  0  0  0
 18 16  1  0  0  0  0
 19 24  1  0  0  0  0
 19  2  1  0  0  0  0
 20 19  1  0  0  0  0
 21 19  1  0  0  0  0
 22 23  1  0  0  0  0
 23 28  2  0  0  0  0
 23 24  1  0  0  0  0
 24 25  2  0  0  0  0
 25 26  1  0  0  0  0
 25 29  1  0  0  0  0
 26 30  1  0  0  0  0
 27 31  1  0  0  0  0
 27 26  2  0  0  0  0
 28 27  1  0  0  0  0
 32 28  1  0  0  0  0
M  END
>  <minimizedAffinity>
-4.92161703

$$$$

 OpenBabel03242517183D

 32 34  0  0  0  0  0  0  0  0999 V2000
   36.4940   28.6550   41.3060 C   0  0  0  0  0  3  0  0  0  0  0  0
   36.4810   27.8800   42.3580 C   0  0  0  0  0  3  0  0  0  0  0  0
   36.1150   27.4800   39.1340 C   0  0  0  0  0  0  0  0  0  0  0  0
   35.7280   28.4450   40.0780 C   0  0  0  0  0  0  0  0  0  0  0  0
   34.5970   29.1910   39.8090 C   0  0  0  0  0  0  0  0  0  0  0  0
   33.9360   28.9400   38.6520 N   0  0  0  0  0  0  0  0  0  0  0  0
   34.3230   28.0100   37.7570 C   0  0  0  0  0  0  0  0  0  0  0  0
   35.4160   27.2900   38.0170 N   0  0  0  0  0  0  0  0  0  0  0  0
   37.0050   26.9070   39.3630 H   0  0  0  0  0  0  0  0  0  0  0  0
   34.2930   29.9250   40.5190 H   0  0  0  0  0  0  0  0  0  0  0  0
   33.5230   27.8410   36.5490 C   0  0  0  0  0  0  0  0  0  0  0  0
   33.1750   29.0000   35.8460 C   0  0  0  0  0  0  0  0  0  0  0  0
   33.3800   30.0380   36.0130 H   0  0  0  0  0  0  0  0  0  0  0  0
   32.4310   28.5740   34.7610 C   0  0  0  0  0  0  0  0  0  0  0  0
   31.9780   29.1750   33.9760 H   0  0  0  0  0  0  0  0  0  0  0  0
   32.3640   27.1810   34.8550 C   0  0  0  0  0  0  0  0  0  0  0  0
   31.8580   26.5070   34.1720 H   0  0  0  0  0  0  0  0  0  0  0  0
   33.0310   26.8060   35.9380 O   0  0  0  0  0  0  0  0  0  0  0  0
   37.2790   28.1320   43.5920 C   0  0  0  0  0  0  0  0  0  0  0  0
   36.7920   28.9800   44.1520 H   0  0  0  0  0  0  0  0  0  0  0  0
   37.2730   27.2340   44.2550 H   0  0  0  0  0  0  0  0  0  0  0  0
   39.3870   26.3050   43.7400 F   0  0  0  0  0  0  0  0  0  0  0  0
   39.6760   27.5660   43.3560 C   0  0  0  0  0  0  0  0  0  0  0  0
   38.6400   28.5100   43.2710 C   0  0  0  0  0  0  0  0  0  0  0  0
   39.0890   29.7380   42.8710 C   0  0  0  0  0  0  0  0  0  0  0  0
   40.3680   30.1290   42.5600 C   0  0  0  0  0  0  0  0  0  0  0  0
   41.3160   29.1070   42.6800 C   0  0  0  0  0  0  0  0  0  0  0  0
   41.0120   27.8270   43.0710 C   0  0  0  0  0  0  0  0  0  0  0  0
   38.3350   30.5350   42.7810 H   0  0  0  0  0  0  0  0  0  0  0  0
   40.6210   31.1170   42.2550 H   0  0  0  0  0  0  0  0  0  0  0  0
   42.3540   29.3190   42.4550 H   0  0  0  0  0  0  0  0  0  0  0  0
   41.7490   27.0650   43.1550 H   0  0  0  0  0  0  0  0  0  0  0  0
  1  2  2  0  0  0  0
  2 19  1  0  0  0  0
  3  9  1  0  0  0  0
  3  4  1  0  0  0  0
  4  1  1  0  0  0  0
  5  4  2  0  0  0  0
  5 10  1  0  0  0  0
  6  5  1  0  0  0  0
  7  8  1  0  0  0  0
  7  6  2  0  0  0  0
  8  3  2  0  0  0  0
 11  7  1  0  0  0  0
 12 13  1  0  0  0  0
 12 11  2  0  0  0  0
 14 16  2  0  0  0  0
 14 12  1  0  0  0  0
 15 14  1  0  0  0  0
 16 18  1  0  0  0  0
 17 16  1  0  0  0  0
 18 11  1  0  0  0  0
 19 20  1  0  0  0  0
 19 21  1  0  0  0  0
 23 22  1  0  0  0  0
 24 23  1  0  0  0  0
 24 19  1  0  0  0  0
 25 24  2  0  0  0  0
 26 27  2  0  0  0  0
 26 25  1  0  0  0  0
 27 28  1  0  0  0  0
 28 32  1  0  0  0  0
 28 23  2  0  0  0  0
 29 25  1  0  0  0  0
 30 26  1  0  0  0  0
 31 27  1  0  0  0  0
M  END
>  <minimizedAffinity>
-4.89596844

$$$$

 OpenBabel03242517183D

 32 34  0  0  0  0  0  0  0  0999 V2000
   37.3630   28.2430   41.4570 C   0  0  0  0  0  3  0  0  0  0  0  0
   37.0400   27.7350   42.6160 C   0  0  0  0  0  3  0  0  0  0  0  0
   35.2000   29.0220   40.4800 C   0  0  0  0  0  0  0  0  0  0  0  0
   36.4610   28.4260   40.3200 C   0  0  0  0  0  0  0  0  0  0  0  0
   36.8230   28.0160   39.0520 C   0  0  0  0  0  0  0  0  0  0  0  0
   35.9370   28.2190   38.0470 N   0  0  0  0  0  0  0  0  0  0  0  0
   34.7290   28.7940   38.2190 C   0  0  0  0  0  0  0  0  0  0  0  0
   34.3800   29.1880   39.4440 N   0  0  0  0  0  0  0  0  0  0  0  0
   34.9350   29.3350   41.4820 H   0  0  0  0  0  0  0  0  0  0  0  0
   37.7790   27.5640   38.9180 H   0  0  0  0  0  0  0  0  0  0  0  0
   33.8690   28.9520   37.0520 C   0  0  0  0  0  0  0  0  0  0  0  0
   32.5310   29.2900   37.2850 C   0  0  0  0  0  0  0  0  0  0  0  0
   31.9740   29.4670   38.1830 H   0  0  0  0  0  0  0  0  0  0  0  0
   31.9410   29.3790   36.0380 C   0  0  0  0  0  0  0  0  0  0  0  0
   30.9090   29.6220   35.7960 H   0  0  0  0  0  0  0  0  0  0  0  0
   32.9450   29.0920   35.1100 C   0  0  0  0  0  0  0  0  0  0  0  0
   32.8440   29.0680   34.0290 H   0  0  0  0  0  0  0  0  0  0  0  0
   34.0660   28.8460   35.7720 O   0  0  0  0  0  0  0  0  0  0  0  0
   37.9930   27.5660   43.7510 C   0  0  0  0  0  0  0  0  0  0  0  0
   38.3920   28.5850   44.0210 H   0  0  0  0  0  0  0  0  0  0  0  0
   37.4710   27.1530   44.6460 H   0  0  0  0  0  0  0  0  0  0  0  0
   40.5590   28.5950   43.3480 F   0  0  0  0  0  0  0  0  0  0  0  0
   40.3830   27.2670   43.1870 C   0  0  0  0  0  0  0  0  0  0  0  0
   39.1070   26.7160   43.3820 C   0  0  0  0  0  0  0  0  0  0  0  0
   39.0890   25.3630   43.1820 C   0  0  0  0  0  0  0  0  0  0  0  0
   40.1230   24.5300   42.8330 C   0  0  0  0  0  0  0  0  0  0  0  0
   41.3460   25.1880   42.6660 C   0  0  0  0  0  0  0  0  0  0  0  0
   41.5140   26.5400   42.8330 C   0  0  0  0  0  0  0  0  0  0  0  0
   38.1210   24.8560   43.3150 H   0  0  0  0  0  0  0  0  0  0  0  0
   40.0100   23.4800   42.7000 H   0  0  0  0  0  0  0  0  0  0  0  0
   42.2220   24.6130   42.3900 H   0  0  0  0  0  0  0  0  0  0  0  0
   42.4540   27.0190   42.7010 H   0  0  0  0  0  0  0  0  0  0  0  0
  1  2  2  0  0  0  0
  2 19  1  0  0  0  0
  3  9  1  0  0  0  0
  4  3  1  0  0  0  0
  4  1  1  0  0  0  0
  5  4  2  0  0  0  0
  6  7  2  0  0  0  0
  6  5  1  0  0  0  0
  7  8  1  0  0  0  0
  8  3  2  0  0  0  0
 10  5  1  0  0  0  0
 11 12  2  0  0  0  0
 11  7  1  0  0  0  0
 12 13  1  0  0  0  0
 14 12  1  0  0  0  0
 15 14  1  0  0  0  0
 16 18  1  0  0  0  0
 16 14  2  0  0  0  0
 17 16  1  0  0  0  0
 18 11  1  0  0  0  0
 19 20  1  0  0  0  0
 19 21  1  0  0  0  0
 23 22  1  0  0  0  0
 23 24  1  0  0  0  0
 24 19  1  0  0  0  0
 25 29  1  0  0  0  0
 25 24  2  0  0  0  0
 26 25  1  0  0  0  0
 27 26  2  0  0  0  0
 27 28  1  0  0  0  0
 28 23  2  0  0  0  0
 30 26  1  0  0  0  0
 31 27  1  0  0  0  0
 32 28  1  0  0  0  0
M  END
>  <minimizedAffinity>
-4.89328957

$$$$
