
 OpenBabel03252504143D

 34 36  0  0  0  0  0  0  0  0999 V2000
   47.6490   30.0230   44.9300 F   0  0  0  0  0  0  0  0  0  0  0  0
   47.5140   30.8000   46.0520 C   0  0  0  0  0  0  0  0  0  0  0  0
   46.9390   32.0440   45.9510 C   0  0  0  0  0  0  0  0  0  0  0  0
   46.8430   32.7650   47.1420 C   0  0  0  0  0  0  0  0  0  0  0  0
   47.2960   32.2550   48.3350 C   0  0  0  0  0  0  0  0  0  0  0  0
   47.8640   30.9920   48.3570 C   0  0  0  0  0  0  0  0  0  0  0  0
   47.9910   30.2260   47.2130 C   0  0  0  0  0  0  0  0  0  0  0  0
   46.3930   33.7600   47.1140 H   0  0  0  0  0  0  0  0  0  0  0  0
   47.2200   32.8130   49.2510 H   0  0  0  0  0  0  0  0  0  0  0  0
   48.2290   30.5680   49.2840 H   0  0  0  0  0  0  0  0  0  0  0  0
   48.5880   28.8950   47.2270 C   0  0  0  0  0  0  0  0  0  0  0  0
   49.9300   28.6610   47.0080 C   0  0  0  0  0  0  0  0  0  0  0  0
   50.6730   29.3980   46.8080 H   0  0  0  0  0  0  0  0  0  0  0  0
   50.0230   27.2730   47.1170 C   0  0  0  0  0  0  0  0  0  0  0  0
   50.9500   26.7080   47.0020 H   0  0  0  0  0  0  0  0  0  0  0  0
   48.7680   26.7520   47.3890 C   0  0  0  0  0  0  0  0  0  0  0  0
   48.4860   25.7180   47.5330 H   0  0  0  0  0  0  0  0  0  0  0  0
   47.9540   27.7910   47.4410 O   0  0  0  0  0  0  0  0  0  0  0  0
   46.7710   34.1120   42.9650 C   0  0  0  0  0  0  0  0  0  0  0  0
   45.6350   33.6580   42.2930 C   0  0  0  0  0  0  0  0  0  0  0  0
   44.9180   32.6100   42.8980 C   0  0  0  0  0  0  0  0  0  0  0  0
   45.3460   32.0960   44.0790 N   0  0  0  0  0  0  0  0  0  0  0  0
   46.4590   32.5810   44.6830 C   0  0  0  0  0  0  0  0  0  0  0  0
   47.1690   33.5870   44.1260 N   0  0  0  0  0  0  0  0  0  0  0  0
   44.0330   32.2360   42.4010 H   0  0  0  0  0  0  0  0  0  0  0  0
   45.2370   34.2720   41.0110 C   0  0  0  0  0  0  0  0  0  0  0  0
   44.9200   35.5960   41.2050 F   0  0  0  0  0  0  0  0  0  0  0  0
   46.3370   34.2350   40.1620 F   0  0  0  0  0  0  0  0  0  0  0  0
   44.1970   33.6660   40.3930 F   0  0  0  0  0  0  0  0  0  0  0  0
   47.4650   35.1270   42.3780 O   0  0  0  0  0  0  0  0  0  0  0  0
   48.7860   35.0640   41.8780 C   0  0  0  0  0  0  0  0  0  0  0  0
   49.6290   35.3540   42.9560 F   0  0  0  0  0  0  0  0  0  0  0  0
   49.0310   33.8380   41.3210 F   0  0  0  0  0  0  0  0  0  0  0  0
   48.9990   36.0980   40.9940 F   0  0  0  0  0  0  0  0  0  0  0  0
  1  2  1  0  0  0  0
  2  7  1  0  0  0  0
  3  2  2  0  0  0  0
  3  4  1  0  0  0  0
  4  5  2  0  0  0  0
  5  6  1  0  0  0  0
  5  9  1  0  0  0  0
  6 10  1  0  0  0  0
  7 11  1  0  0  0  0
  7  6  2  0  0  0  0
  8  4  1  0  0  0  0
 11 18  1  0  0  0  0
 12 14  1  0  0  0  0
 12 11  2  0  0  0  0
 13 12  1  0  0  0  0
 14 16  2  0  0  0  0
 15 14  1  0  0  0  0
 16 18  1  0  0  0  0
 16 17  1  0  0  0  0
 19 24  1  0  0  0  0
 20 21  1  0  0  0  0
 20 19  2  0  0  0  0
 21 22  2  0  0  0  0
 22 23  1  0  0  0  0
 23  3  1  0  0  0  0
 24 23  2  0  0  0  0
 25 21  1  0  0  0  0
 26 27  1  0  0  0  0
 26 20  1  0  0  0  0
 28 26  1  0  0  0  0
 29 26  1  0  0  0  0
 30 19  1  0  0  0  0
 31 30  1  0  0  0  0
 31 32  1  0  0  0  0
 33 31  1  0  0  0  0
 34 31  1  0  0  0  0
M  END
>  <minimizedAffinity>
-5.5286212

>  <minimizedRMSD>
0.362941414

$$$$
