
 OpenBabel03252503023D

 32 33  0  0  0  0  0  0  0  0999 V2000
   43.5420   33.7350   41.6310 S   0  0  0  0  0  0  0  0  0  0  0  0
   41.1760   32.5410   40.8510 C   0  0  0  0  0  0  0  0  0  0  0  0
   42.2110   33.3660   40.4680 C   0  0  0  0  0  0  0  0  0  0  0  0
   42.2530   33.9290   39.1860 C   0  0  0  0  0  0  0  0  0  0  0  0
   41.2250   33.6150   38.3600 N   0  0  0  0  0  0  0  0  0  0  0  0
   40.2330   32.8120   38.7550 C   0  0  0  0  0  0  0  0  0  0  0  0
   40.1810   32.2710   39.9670 N   0  0  0  0  0  0  0  0  0  0  0  0
   41.1500   32.1010   41.8600 H   0  0  0  0  0  0  0  0  0  0  0  0
   43.0730   34.5830   38.8830 H   0  0  0  0  0  0  0  0  0  0  0  0
   39.1840   32.5490   37.7720 C   0  0  0  0  0  0  0  0  0  0  0  0
   38.3230   33.6050   37.4820 C   0  0  0  0  0  0  0  0  0  0  0  0
   38.2220   34.6270   37.8140 H   0  0  0  0  0  0  0  0  0  0  0  0
   37.4330   33.0920   36.5310 C   0  0  0  0  0  0  0  0  0  0  0  0
   36.5970   33.5610   36.0230 H   0  0  0  0  0  0  0  0  0  0  0  0
   37.8110   31.7670   36.3070 C   0  0  0  0  0  0  0  0  0  0  0  0
   37.3840   31.0030   35.6400 H   0  0  0  0  0  0  0  0  0  0  0  0
   38.8550   31.5010   37.0710 O   0  0  0  0  0  0  0  0  0  0  0  0
   43.5630   35.4930   41.9940 C   0  0  0  0  0  0  0  0  0  0  0  0
   44.5530   35.8930   41.6760 H   0  0  0  0  0  0  0  0  0  0  0  0
   42.7070   35.9860   41.4640 H   0  0  0  0  0  0  0  0  0  0  0  0
   43.3210   35.6300   43.4180 N   0  0  0  0  0  0  0  0  0  0  0  0
   42.6970   36.4360   43.6360 H   0  0  0  0  0  0  0  0  0  0  0  0
   44.7630   35.8420   44.3220 S   0  0  0  0  0  0  0  0  0  0  0  0
   45.9620   35.3640   43.5760 O   0  0  0  0  0  0  0  0  0  0  0  0
   46.0710   34.4400   43.1950 H   0  0  0  0  0  0  0  0  0  0  0  0
   44.8740   37.3290   44.5820 O   0  0  0  0  0  0  0  0  0  0  0  0
   45.6250   37.8550   44.1800 H   0  0  0  0  0  0  0  0  0  0  0  0
   44.6220   35.0950   45.8020 O   0  0  0  0  0  0  0  0  0  0  0  0
   45.4120   33.9520   45.8870 C   0  0  0  0  0  0  0  0  0  0  0  0
   45.7040   33.7170   46.9280 H   0  0  0  0  0  0  0  0  0  0  0  0
   44.9810   33.0820   45.3660 H   0  0  0  0  0  0  0  0  0  0  0  0
   46.3580   34.1890   45.3510 H   0  0  0  0  0  0  0  0  0  0  0  0
  1 18  1  0  0  0  0
  2  8  1  0  0  0  0
  3  2  1  0  0  0  0
  3  1  1  0  0  0  0
  4  3  2  0  0  0  0
  5  6  2  0  0  0  0
  5  4  1  0  0  0  0
  6  7  1  0  0  0  0
  7  2  2  0  0  0  0
  9  4  1  0  0  0  0
 10  6  1  0  0  0  0
 11 10  2  0  0  0  0
 11 12  1  0  0  0  0
 13 11  1  0  0  0  0
 14 13  1  0  0  0  0
 15 13  2  0  0  0  0
 15 17  1  0  0  0  0
 16 15  1  0  0  0  0
 17 10  1  0  0  0  0
 18 21  1  0  0  0  0
 19 18  1  0  0  0  0
 20 18  1  0  0  0  0
 21 22  1  0  0  0  0
 21 23  1  0  0  0  0
 23 26  1  0  0  0  0
 23 28  1  0  0  0  0
 24 23  1  0  0  0  0
 25 24  1  0  0  0  0
 27 26  1  0  0  0  0
 28 29  1  0  0  0  0
 29 30  1  0  0  0  0
 31 29  1  0  0  0  0
 32 29  1  0  0  0  0
M  END
>  <minimizedAffinity>
-4.44890547

>  <minimizedRMSD>
2.15083694

$$$$
