
 OpenBabel03242513023D

 30 33  0  0  0  0  0  0  0  0999 V2000
   46.9480   35.0180   42.5800 C   0  0  0  0  0  0  0  0  0  0  0  0
   47.9720   34.5160   41.7790 C   0  0  0  0  0  0  0  0  0  0  0  0
   48.5170   33.2730   42.1220 C   0  0  0  0  0  0  0  0  0  0  0  0
   48.0260   32.6090   43.2220 N   0  0  0  0  0  0  0  0  0  0  0  0
   47.0290   33.1390   43.9700 C   0  0  0  0  0  0  0  0  0  0  0  0
   46.4970   34.3320   43.6500 N   0  0  0  0  0  0  0  0  0  0  0  0
   46.5250   35.9770   42.3180 H   0  0  0  0  0  0  0  0  0  0  0  0
   48.3720   35.0250   40.9080 H   0  0  0  0  0  0  0  0  0  0  0  0
   46.2930   31.0330   45.0110 C   0  0  0  0  0  0  0  0  0  0  0  0
   46.5540   32.3800   45.1250 C   0  0  0  0  0  0  0  0  0  0  0  0
   46.3910   33.1000   46.3140 C   0  0  0  0  0  0  0  0  0  0  0  0
   45.9410   32.4190   47.4460 C   0  0  0  0  0  0  0  0  0  0  0  0
   45.6700   32.7690   48.7340 N   0  0  0  0  0  0  0  0  0  0  0  0
   45.2500   31.6440   49.3960 C   0  0  0  0  0  0  0  0  0  0  0  0
   45.2690   30.6200   48.4940 N   0  0  0  0  0  0  0  0  0  0  0  0
   45.6880   31.0750   47.3020 C   0  0  0  0  0  0  0  0  0  0  0  0
   45.8420   30.3550   46.1450 C   0  0  0  0  0  0  0  0  0  0  0  0
   46.4490   30.5560   44.0440 H   0  0  0  0  0  0  0  0  0  0  0  0
   46.5980   34.1450   46.3890 H   0  0  0  0  0  0  0  0  0  0  0  0
   45.8040   33.7460   49.0270 H   0  0  0  0  0  0  0  0  0  0  0  0
   44.9980   31.7640   50.4290 H   0  0  0  0  0  0  0  0  0  0  0  0
   45.6350   29.2970   46.0620 H   0  0  0  0  0  0  0  0  0  0  0  0
   49.5910   32.6300   41.3720 C   0  0  0  0  0  0  0  0  0  0  0  0
   50.8800   32.5170   41.9010 C   0  0  0  0  0  0  0  0  0  0  0  0
   51.2540   32.8600   42.8700 H   0  0  0  0  0  0  0  0  0  0  0  0
   51.6770   31.8690   40.9760 C   0  0  0  0  0  0  0  0  0  0  0  0
   52.7160   31.6190   41.0550 H   0  0  0  0  0  0  0  0  0  0  0  0
   50.8250   31.6190   39.9210 C   0  0  0  0  0  0  0  0  0  0  0  0
   51.1160   31.1180   39.0080 H   0  0  0  0  0  0  0  0  0  0  0  0
   49.6230   32.0740   40.1850 O   0  0  0  0  0  0  0  0  0  0  0  0
  1  6  1  0  0  0  0
  2  3  1  0  0  0  0
  2  1  2  0  0  0  0
  3  4  2  0  0  0  0
  4  5  1  0  0  0  0
  5 10  1  0  0  0  0
  6  5  2  0  0  0  0
  7  1  1  0  0  0  0
  8  2  1  0  0  0  0
  9 10  2  0  0  0  0
  9 17  1  0  0  0  0
 10 11  1  0  0  0  0
 11 19  1  0  0  0  0
 11 12  2  0  0  0  0
 12 13  1  0  0  0  0
 13 20  1  0  0  0  0
 13 14  1  0  0  0  0
 14 21  1  0  0  0  0
 15 14  2  0  0  0  0
 16 12  1  0  0  0  0
 16 15  1  0  0  0  0
 17 16  2  0  0  0  0
 18  9  1  0  0  0  0
 22 17  1  0  0  0  0
 23 24  2  0  0  0  0
 23  3  1  0  0  0  0
 24 25  1  0  0  0  0
 26 27  1  0  0  0  0
 26 24  1  0  0  0  0
 28 30  1  0  0  0  0
 28 26  2  0  0  0  0
 29 28  1  0  0  0  0
 30 23  1  0  0  0  0
M  END
>  <minimizedAffinity>
-5.59459591

>  <minimizedRMSD>
1.03787816

$$$$
