
 OpenBabel03242510293D

 33 35  0  0  1  0  0  0  0  0999 V2000
   45.7860   33.8770   41.2960 C   0  0  1  0  0  0  0  0  0  0  0  0
   46.4570   33.9150   39.9500 C   0  0  0  0  0  0  0  0  0  0  0  0
   47.9390   33.6800   40.2260 C   0  0  0  0  0  0  0  0  0  0  0  0
   48.4410   34.9290   40.9170 C   0  0  0  0  0  0  0  0  0  0  0  0
   47.7050   35.2390   42.1690 C   0  0  0  0  0  0  0  0  0  0  0  0
   46.2360   35.0560   42.1290 C   0  0  2  0  0  0  0  0  0  0  0  0
   46.1230   32.9690   41.8240 H   0  0  0  0  0  0  0  0  0  0  0  0
   46.3840   34.9480   39.5350 H   0  0  0  0  0  0  0  0  0  0  0  0
   46.0370   33.1680   39.2620 H   0  0  0  0  0  0  0  0  0  0  0  0
   48.0360   32.8260   40.9380 H   0  0  0  0  0  0  0  0  0  0  0  0
   48.5090   33.4910   39.3200 H   0  0  0  0  0  0  0  0  0  0  0  0
   49.5020   34.7650   41.1500 H   0  0  0  0  0  0  0  0  0  0  0  0
   48.3780   35.7360   40.1480 H   0  0  0  0  0  0  0  0  0  0  0  0
   48.1200   34.6010   42.9870 H   0  0  0  0  0  0  0  0  0  0  0  0
   47.9440   36.2820   42.4700 H   0  0  0  0  0  0  0  0  0  0  0  0
   45.7740   35.9550   41.6670 H   0  0  0  0  0  0  0  0  0  0  0  0
   42.1820   34.9460   40.7020 C   0  0  0  0  0  0  0  0  0  0  0  0
   43.5730   34.9950   40.7750 C   0  0  0  0  0  0  0  0  0  0  0  0
   44.3180   33.8870   41.1980 C   0  0  0  0  0  0  0  0  0  0  0  0
   43.6080   32.7790   41.5260 N   0  0  0  0  0  0  0  0  0  0  0  0
   42.2600   32.7390   41.4530 C   0  0  0  0  0  0  0  0  0  0  0  0
   41.5410   33.7960   41.0490 N   0  0  0  0  0  0  0  0  0  0  0  0
   41.7270   35.8640   40.3620 H   0  0  0  0  0  0  0  0  0  0  0  0
   44.1260   35.8690   40.5150 H   0  0  0  0  0  0  0  0  0  0  0  0
   41.7240   31.8220   41.7290 H   0  0  0  0  0  0  0  0  0  0  0  0
   45.7280   34.9160   43.5240 C   0  0  0  0  0  0  0  0  0  0  0  0
   45.9390   33.9410   44.5040 C   0  0  0  0  0  0  0  0  0  0  0  0
   46.5910   33.1000   44.2490 H   0  0  0  0  0  0  0  0  0  0  0  0
   45.2250   34.3030   45.6290 C   0  0  0  0  0  0  0  0  0  0  0  0
   45.2590   33.6700   46.5050 H   0  0  0  0  0  0  0  0  0  0  0  0
   44.6050   35.4880   45.2890 C   0  0  0  0  0  0  0  0  0  0  0  0
   43.9690   35.9980   46.0050 H   0  0  0  0  0  0  0  0  0  0  0  0
   44.9270   35.8010   44.0650 O   0  0  0  0  0  0  0  0  0  0  0  0
  1  7  1  1  0  0  0
  1  6  1  0  0  0  0
  2  3  1  0  0  0  0
  2  1  1  0  0  0  0
  3  4  1  0  0  0  0
  3 10  1  0  0  0  0
  4 12  1  0  0  0  0
  4  5  1  0  0  0  0
  5 15  1  0  0  0  0
  5 14  1  0  0  0  0
  6 16  1  6  0  0  0
  6  5  1  0  0  0  0
  6 26  1  0  0  0  0
  8  2  1  0  0  0  0
  9  2  1  0  0  0  0
 11  3  1  0  0  0  0
 13  4  1  0  0  0  0
 17 18  2  0  0  0  0
 17 22  1  0  0  0  0
 18 19  1  0  0  0  0
 19  1  1  0  0  0  0
 19 20  2  0  0  0  0
 21 20  1  0  0  0  0
 21 25  1  0  0  0  0
 22 21  2  0  0  0  0
 23 17  1  0  0  0  0
 24 18  1  0  0  0  0
 26 33  1  0  0  0  0
 26 27  2  0  0  0  0
 27 29  1  0  0  0  0
 28 27  1  0  0  0  0
 29 30  1  0  0  0  0
 31 29  2  0  0  0  0
 31 32  1  0  0  0  0
 33 31  1  0  0  0  0
M  END
>  <minimizedAffinity>
-5.24436188

>  <minimizedRMSD>
3.7102437

$$$$
