
 OpenBabel03242515463D

 40 43  0  0  1  0  0  0  0  0999 V2000
   40.1680   34.9150   40.4120 C   0  0  0  0  0  0  0  0  0  0  0  0
   41.2300   34.2750   41.0520 C   0  0  0  0  0  0  0  0  0  0  0  0
   41.1220   32.9720   41.4960 C   0  0  0  0  0  0  0  0  0  0  0  0
   39.9480   32.2750   41.3110 C   0  0  0  0  0  0  0  0  0  0  0  0
   38.8950   32.8990   40.6800 C   0  0  0  0  0  0  0  0  0  0  0  0
   38.9790   34.1850   40.2340 C   0  0  0  0  0  0  0  0  0  0  0  0
   37.8490   31.9460   40.6380 O   0  0  0  0  0  0  0  0  0  0  0  0
   38.1740   30.9110   41.4830 C   0  0  2  0  0  0  0  0  0  0  0  0
   39.5730   30.9770   41.6500 O   0  0  0  0  0  0  0  0  0  0  0  0
   40.1790   35.9310   40.0400 H   0  0  0  0  0  0  0  0  0  0  0  0
   41.9990   32.5640   41.9800 H   0  0  0  0  0  0  0  0  0  0  0  0
   38.1360   34.6400   39.7460 H   0  0  0  0  0  0  0  0  0  0  0  0
   37.7530   31.1690   42.4980 H   0  0  0  0  0  0  0  0  0  0  0  0
   37.6830   29.5790   41.1130 C   0  0  0  0  0  0  0  0  0  0  0  0
   36.8310   29.1980   40.0870 C   0  0  0  0  0  0  0  0  0  0  0  0
   36.3870   29.8960   39.3750 H   0  0  0  0  0  0  0  0  0  0  0  0
   36.7120   27.8250   40.2080 C   0  0  0  0  0  0  0  0  0  0  0  0
   36.1030   27.2280   39.5400 H   0  0  0  0  0  0  0  0  0  0  0  0
   37.4950   27.4640   41.2910 C   0  0  0  0  0  0  0  0  0  0  0  0
   37.5740   26.4120   41.6030 H   0  0  0  0  0  0  0  0  0  0  0  0
   38.0560   28.5260   41.8050 O   0  0  0  0  0  0  0  0  0  0  0  0
   42.6790   35.3180   41.1880 S   0  0  0  0  0  0  0  0  0  0  0  0
   44.1350   34.4340   40.5380 C   0  0  0  0  0  0  0  0  0  0  0  0
   43.9670   33.7870   39.3660 C   0  0  0  0  0  0  0  0  0  0  0  0
   45.0820   33.1000   38.8980 C   0  0  0  0  0  0  0  0  0  0  0  0
   46.2400   33.0920   39.5780 N   0  0  0  0  0  0  0  0  0  0  0  0
   46.3680   33.7520   40.7460 C   0  0  0  0  0  0  0  0  0  0  0  0
   45.3050   34.3990   41.1810 N   0  0  0  0  0  0  0  0  0  0  0  0
   45.0010   32.3570   37.6640 N   0  0  0  0  0  0  0  0  0  0  0  0
   45.3370   32.7440   36.7630 H   0  0  0  0  0  0  0  0  0  0  0  0
   44.5730   31.4130   37.8080 H   0  0  0  0  0  0  0  0  0  0  0  0
   42.8260   33.6520   38.4020 C   0  0  0  0  0  0  0  0  0  0  0  0
   43.1590   33.7720   37.3600 H   0  0  0  0  0  0  0  0  0  0  0  0
   42.2700   32.7440   38.6310 H   0  0  0  0  0  0  0  0  0  0  0  0
   42.1410   34.5250   38.5870 H   0  0  0  0  0  0  0  0  0  0  0  0
   47.5120   33.7980   41.5040 O   0  0  0  0  0  0  0  0  0  0  0  0
   48.3600   34.9190   41.3490 C   0  0  0  0  0  0  0  0  0  0  0  0
   49.6170   34.6740   41.8190 F   0  0  0  0  0  0  0  0  0  0  0  0
   48.3540   35.2410   39.9770 F   0  0  0  0  0  0  0  0  0  0  0  0
   47.8240   35.9670   42.0880 F   0  0  0  0  0  0  0  0  0  0  0  0
  1  2  1  0  0  0  0
  2 22  1  0  0  0  0
  2  3  2  0  0  0  0
  3 11  1  0  0  0  0
  4  3  1  0  0  0  0
  4  9  1  0  0  0  0
  5  4  2  0  0  0  0
  6  1  2  0  0  0  0
  6  5  1  0  0  0  0
  7  5  1  0  0  0  0
  7  8  1  0  0  0  0
  8  9  1  0  0  0  0
  8 13  1  1  0  0  0
 10  1  1  0  0  0  0
 12  6  1  0  0  0  0
 14  8  1  0  0  0  0
 14 21  1  0  0  0  0
 15 17  1  0  0  0  0
 15 14  2  0  0  0  0
 16 15  1  0  0  0  0
 17 19  2  0  0  0  0
 18 17  1  0  0  0  0
 19 20  1  0  0  0  0
 19 21  1  0  0  0  0
 23 28  1  0  0  0  0
 23 22  1  0  0  0  0
 24 23  2  0  0  0  0
 25 24  1  0  0  0  0
 25 26  2  0  0  0  0
 26 27  1  0  0  0  0
 27 28  2  0  0  0  0
 27 36  1  0  0  0  0
 29 31  1  0  0  0  0
 29 25  1  0  0  0  0
 30 29  1  0  0  0  0
 32 35  1  0  0  0  0
 32 34  1  0  0  0  0
 32 24  1  0  0  0  0
 33 32  1  0  0  0  0
 37 36  1  0  0  0  0
 37 38  1  0  0  0  0
 37 40  1  0  0  0  0
 39 37  1  0  0  0  0
M  END
>  <minimizedAffinity>
-6.20452261

>  <minimizedRMSD>
0.646450102

$$$$
