
 OpenBabel03252506573D

 37 41  0  0  0  0  0  0  0  0999 V2000
   47.2570   31.2740   45.2010 C   0  0  0  0  0  0  0  0  0  0  0  0
   46.9130   32.6170   45.1340 C   0  0  0  0  0  0  0  0  0  0  0  0
   46.3140   33.2890   46.1740 C   0  0  0  0  0  0  0  0  0  0  0  0
   46.0270   32.6230   47.3640 C   0  0  0  0  0  0  0  0  0  0  0  0
   45.4620   32.9420   48.5660 N   0  0  0  0  0  0  0  0  0  0  0  0
   45.4570   31.8350   49.3480 C   0  0  0  0  0  0  0  0  0  0  0  0
   46.0210   30.8390   48.6230 N   0  0  0  0  0  0  0  0  0  0  0  0
   46.3780   31.2960   47.4020 C   0  0  0  0  0  0  0  0  0  0  0  0
   46.9720   30.5980   46.3930 C   0  0  0  0  0  0  0  0  0  0  0  0
   47.7260   30.7700   44.3700 H   0  0  0  0  0  0  0  0  0  0  0  0
   46.0400   34.3410   46.1280 H   0  0  0  0  0  0  0  0  0  0  0  0
   45.1130   33.9060   48.7720 H   0  0  0  0  0  0  0  0  0  0  0  0
   45.0600   31.8400   50.3490 H   0  0  0  0  0  0  0  0  0  0  0  0
   46.6510   35.0760   42.4010 C   0  0  0  0  0  0  0  0  0  0  0  0
   47.7410   34.7330   41.5930 C   0  0  0  0  0  0  0  0  0  0  0  0
   48.5540   33.6700   41.9840 C   0  0  0  0  0  0  0  0  0  0  0  0
   48.2480   33.0050   43.1480 N   0  0  0  0  0  0  0  0  0  0  0  0
   47.1950   33.3570   43.9040 C   0  0  0  0  0  0  0  0  0  0  0  0
   46.3930   34.3860   43.5430 N   0  0  0  0  0  0  0  0  0  0  0  0
   46.0370   35.9070   42.0730 H   0  0  0  0  0  0  0  0  0  0  0  0
   48.0040   35.2360   40.6780 H   0  0  0  0  0  0  0  0  0  0  0  0
   49.4140   33.3250   41.4370 H   0  0  0  0  0  0  0  0  0  0  0  0
   47.3060   29.1780   46.5410 C   0  0  0  0  0  0  0  0  0  0  0  0
   48.5580   28.6480   46.3410 C   0  0  0  0  0  0  0  0  0  0  0  0
   48.4110   27.2800   46.5900 C   0  0  0  0  0  0  0  0  0  0  0  0
   47.0920   27.0650   46.9220 C   0  0  0  0  0  0  0  0  0  0  0  0
   46.4700   28.2450   46.8770 O   0  0  0  0  0  0  0  0  0  0  0  0
   49.4930   29.1140   46.0560 H   0  0  0  0  0  0  0  0  0  0  0  0
   49.1390   26.4850   46.5500 H   0  0  0  0  0  0  0  0  0  0  0  0
   46.3770   25.8410   47.2770 C   0  0  0  0  0  0  0  0  0  0  0  0
   46.5200   25.2770   48.5480 C   0  0  0  0  0  0  0  0  0  0  0  0
   47.1330   25.6390   49.3850 H   0  0  0  0  0  0  0  0  0  0  0  0
   45.7480   24.1360   48.6350 C   0  0  0  0  0  0  0  0  0  0  0  0
   45.5770   23.4210   49.4180 H   0  0  0  0  0  0  0  0  0  0  0  0
   45.1650   24.0610   47.3880 C   0  0  0  0  0  0  0  0  0  0  0  0
   44.4800   23.3630   46.9420 H   0  0  0  0  0  0  0  0  0  0  0  0
   45.5480   25.0670   46.6160 O   0  0  0  0  0  0  0  0  0  0  0  0
  1  9  1  0  0  0  0
  2  1  2  0  0  0  0
  2  3  1  0  0  0  0
  3  4  2  0  0  0  0
  4  8  1  0  0  0  0
  4  5  1  0  0  0  0
  5 12  1  0  0  0  0
  5  6  1  0  0  0  0
  6 13  1  0  0  0  0
  7  6  2  0  0  0  0
  8  7  1  0  0  0  0
  9 23  1  0  0  0  0
  9  8  2  0  0  0  0
 10  1  1  0  0  0  0
 11  3  1  0  0  0  0
 14 19  1  0  0  0  0
 15 16  1  0  0  0  0
 15 14  2  0  0  0  0
 16 17  2  0  0  0  0
 17 18  1  0  0  0  0
 18  2  1  0  0  0  0
 19 18  2  0  0  0  0
 20 14  1  0  0  0  0
 21 15  1  0  0  0  0
 22 16  1  0  0  0  0
 23 27  1  0  0  0  0
 24 23  2  0  0  0  0
 24 25  1  0  0  0  0
 25 26  2  0  0  0  0
 26 30  1  0  0  0  0
 27 26  1  0  0  0  0
 28 24  1  0  0  0  0
 29 25  1  0  0  0  0
 30 31  2  0  0  0  0
 31 33  1  0  0  0  0
 31 32  1  0  0  0  0
 33 34  1  0  0  0  0
 35 33  2  0  0  0  0
 36 35  1  0  0  0  0
 37 30  1  0  0  0  0
 37 35  1  0  0  0  0
M  END
>  <minimizedAffinity>
-5.57998896

>  <minimizedRMSD>
0.643339574

$$$$
