
 OpenBabel03252506563D

 37 41  0  0  0  0  0  0  0  0999 V2000
   47.1210   31.3060   45.1050 C   0  0  0  0  0  0  0  0  0  0  0  0
   46.8680   32.6710   45.1100 C   0  0  0  0  0  0  0  0  0  0  0  0
   46.3370   33.3300   46.1940 C   0  0  0  0  0  0  0  0  0  0  0  0
   46.0270   32.6270   47.3570 C   0  0  0  0  0  0  0  0  0  0  0  0
   45.5080   32.9240   48.5850 N   0  0  0  0  0  0  0  0  0  0  0  0
   45.4420   31.7820   49.3130 C   0  0  0  0  0  0  0  0  0  0  0  0
   45.9220   30.7870   48.5290 N   0  0  0  0  0  0  0  0  0  0  0  0
   46.2870   31.2790   47.3230 C   0  0  0  0  0  0  0  0  0  0  0  0
   46.8120   30.5930   46.2690 C   0  0  0  0  0  0  0  0  0  0  0  0
   47.5380   30.8130   44.2410 H   0  0  0  0  0  0  0  0  0  0  0  0
   46.1360   34.3990   46.2050 H   0  0  0  0  0  0  0  0  0  0  0  0
   45.2300   33.8970   48.8450 H   0  0  0  0  0  0  0  0  0  0  0  0
   45.0650   31.7640   50.3220 H   0  0  0  0  0  0  0  0  0  0  0  0
   46.6080   35.1460   42.3910 C   0  0  0  0  0  0  0  0  0  0  0  0
   47.7760   34.9010   41.6600 C   0  0  0  0  0  0  0  0  0  0  0  0
   48.6400   33.8990   42.0980 C   0  0  0  0  0  0  0  0  0  0  0  0
   48.3060   33.1940   43.2290 N   0  0  0  0  0  0  0  0  0  0  0  0
   47.1780   33.4500   43.9120 C   0  0  0  0  0  0  0  0  0  0  0  0
   46.3250   34.4190   43.5040 N   0  0  0  0  0  0  0  0  0  0  0  0
   45.9540   35.9310   42.0290 H   0  0  0  0  0  0  0  0  0  0  0  0
   48.0620   35.4380   40.7720 H   0  0  0  0  0  0  0  0  0  0  0  0
   49.5620   33.6310   41.6100 H   0  0  0  0  0  0  0  0  0  0  0  0
   47.0510   29.1490   46.3410 C   0  0  0  0  0  0  0  0  0  0  0  0
   48.2810   28.5540   46.1960 C   0  0  0  0  0  0  0  0  0  0  0  0
   48.0350   27.1850   46.3370 C   0  0  0  0  0  0  0  0  0  0  0  0
   46.6850   27.0320   46.5570 C   0  0  0  0  0  0  0  0  0  0  0  0
   46.1380   28.2500   46.5500 O   0  0  0  0  0  0  0  0  0  0  0  0
   49.2610   28.9780   46.0120 H   0  0  0  0  0  0  0  0  0  0  0  0
   48.7160   26.3490   46.2940 H   0  0  0  0  0  0  0  0  0  0  0  0
   45.8740   25.8360   46.7730 C   0  0  0  0  0  0  0  0  0  0  0  0
   44.4780   25.9140   46.7730 C   0  0  0  0  0  0  0  0  0  0  0  0
   43.8490   26.8020   46.6260 H   0  0  0  0  0  0  0  0  0  0  0  0
   43.9470   24.6580   46.9960 C   0  0  0  0  0  0  0  0  0  0  0  0
   42.9430   24.2870   47.0700 H   0  0  0  0  0  0  0  0  0  0  0  0
   45.0690   23.8670   47.1210 C   0  0  0  0  0  0  0  0  0  0  0  0
   45.2050   22.8160   47.3010 H   0  0  0  0  0  0  0  0  0  0  0  0
   46.1780   24.5780   46.9870 O   0  0  0  0  0  0  0  0  0  0  0  0
  1  2  2  0  0  0  0
  1  9  1  0  0  0  0
  2  3  1  0  0  0  0
  3 11  1  0  0  0  0
  3  4  2  0  0  0  0
  4  5  1  0  0  0  0
  5 12  1  0  0  0  0
  5  6  1  0  0  0  0
  6 13  1  0  0  0  0
  7  6  2  0  0  0  0
  8  4  1  0  0  0  0
  8  7  1  0  0  0  0
  9 23  1  0  0  0  0
  9  8  2  0  0  0  0
 10  1  1  0  0  0  0
 14 19  1  0  0  0  0
 15 16  1  0  0  0  0
 15 14  2  0  0  0  0
 16 17  2  0  0  0  0
 17 18  1  0  0  0  0
 18  2  1  0  0  0  0
 19 18  2  0  0  0  0
 20 14  1  0  0  0  0
 21 15  1  0  0  0  0
 22 16  1  0  0  0  0
 23 27  1  0  0  0  0
 24 25  1  0  0  0  0
 24 23  2  0  0  0  0
 25 26  2  0  0  0  0
 26 30  1  0  0  0  0
 27 26  1  0  0  0  0
 28 24  1  0  0  0  0
 29 25  1  0  0  0  0
 30 37  1  0  0  0  0
 31 30  2  0  0  0  0
 31 33  1  0  0  0  0
 32 31  1  0  0  0  0
 33 34  1  0  0  0  0
 33 35  2  0  0  0  0
 35 36  1  0  0  0  0
 37 35  1  0  0  0  0
M  END
>  <minimizedAffinity>
-5.51670408

>  <minimizedRMSD>
0.534648538

$$$$
