
 OpenBabel03242515053D

 38 40  0  0  0  0  0  0  0  0999 V2000
   44.9770   34.6570   42.2680 C   0  0  0  0  0  0  0  0  0  0  0  0
   46.2650   34.3200   41.8510 C   0  0  0  0  0  0  0  0  0  0  0  0
   47.2200   33.9650   42.8190 C   0  0  0  0  0  0  0  0  0  0  0  0
   46.8200   33.9760   44.1060 N   0  0  0  0  0  0  0  0  0  0  0  0
   45.5720   34.3030   44.4900 C   0  0  0  0  0  0  0  0  0  0  0  0
   44.6790   34.6360   43.5660 N   0  0  0  0  0  0  0  0  0  0  0  0
   46.5930   34.3090   40.8360 H   0  0  0  0  0  0  0  0  0  0  0  0
   48.5830   33.6030   42.4440 C   0  0  0  0  0  0  0  0  0  0  0  0
   48.8940   32.5610   41.5960 C   0  0  0  0  0  0  0  0  0  0  0  0
   48.2290   31.8750   41.0930 H   0  0  0  0  0  0  0  0  0  0  0  0
   50.2920   32.6170   41.5510 C   0  0  0  0  0  0  0  0  0  0  0  0
   50.9340   31.9560   40.9850 H   0  0  0  0  0  0  0  0  0  0  0  0
   50.7340   33.6660   42.3570 C   0  0  0  0  0  0  0  0  0  0  0  0
   51.7430   34.0060   42.5630 H   0  0  0  0  0  0  0  0  0  0  0  0
   49.6510   34.2170   42.8640 O   0  0  0  0  0  0  0  0  0  0  0  0
   45.2720   34.2720   45.9090 C   0  0  0  0  0  0  0  0  0  0  0  0
   44.3810   35.0360   46.3390 O   0  0  0  0  0  0  0  0  0  0  0  0
   46.0290   33.3560   46.7210 N   0  0  0  0  0  0  0  0  0  0  0  0
   45.7380   32.4600   47.1730 H   0  0  0  0  0  0  0  0  0  0  0  0
   47.0210   33.6290   46.8800 H   0  0  0  0  0  0  0  0  0  0  0  0
   43.8270   35.0990   40.9750 S   0  0  0  0  0  0  0  0  0  0  0  0
   42.1110   34.9150   41.4800 C   0  0  0  0  0  0  0  0  0  0  0  0
   42.0690   35.0700   42.5820 H   0  0  0  0  0  0  0  0  0  0  0  0
   41.8050   33.8630   41.2220 H   0  0  0  0  0  0  0  0  0  0  0  0
   41.1760   35.8720   40.8250 C   0  0  0  0  0  0  0  0  0  0  0  0
   41.6960   36.7220   40.3340 H   0  0  0  0  0  0  0  0  0  0  0  0
   40.5330   36.3290   41.6240 H   0  0  0  0  0  0  0  0  0  0  0  0
   42.0030   36.1030   37.9130 Cl  0  0  0  0  0  0  0  0  0  0  0  0
   40.6110   35.2300   38.4660 C   0  0  0  0  0  0  0  0  0  0  0  0
   40.3220   35.1900   39.8330 C   0  0  0  0  0  0  0  0  0  0  0  0
   39.1980   34.4750   40.1940 C   0  0  0  0  0  0  0  0  0  0  0  0
   38.3320   33.7990   39.3420 C   0  0  0  0  0  0  0  0  0  0  0  0
   38.6530   33.8650   37.9980 C   0  0  0  0  0  0  0  0  0  0  0  0
   37.6160   33.0390   36.8360 Cl  0  0  0  0  0  0  0  0  0  0  0  0
   39.7630   34.5620   37.5790 C   0  0  0  0  0  0  0  0  0  0  0  0
   38.9760   34.4450   41.2550 H   0  0  0  0  0  0  0  0  0  0  0  0
   37.4830   33.2730   39.7320 H   0  0  0  0  0  0  0  0  0  0  0  0
   39.9920   34.5970   36.5200 H   0  0  0  0  0  0  0  0  0  0  0  0
  1  6  1  0  0  0  0
  2  1  2  0  0  0  0
  2  3  1  0  0  0  0
  3  4  2  0  0  0  0
  4  5  1  0  0  0  0
  5 16  1  0  0  0  0
  6  5  2  0  0  0  0
  7  2  1  0  0  0  0
  8  3  1  0  0  0  0
  8 15  1  0  0  0  0
  9  8  2  0  0  0  0
 10  9  1  0  0  0  0
 11  9  1  0  0  0  0
 11 13  2  0  0  0  0
 12 11  1  0  0  0  0
 13 14  1  0  0  0  0
 13 15  1  0  0  0  0
 16 17  2  0  0  0  0
 16 18  1  0  0  0  0
 18 20  1  0  0  0  0
 18 19  1  0  0  0  0
 21 22  1  0  0  0  0
 21  1  1  0  0  0  0
 22 23  1  0  0  0  0
 24 22  1  0  0  0  0
 25 22  1  0  0  0  0
 25 27  1  0  0  0  0
 26 25  1  0  0  0  0
 28 29  1  0  0  0  0
 29 30  1  0  0  0  0
 30 31  2  0  0  0  0
 30 25  1  0  0  0  0
 31 36  1  0  0  0  0
 32 37  1  0  0  0  0
 32 31  1  0  0  0  0
 33 32  2  0  0  0  0
 34 33  1  0  0  0  0
 35 33  1  0  0  0  0
 35 29  2  0  0  0  0
 38 35  1  0  0  0  0
M  END
>  <minimizedAffinity>
-6.87596273

>  <minimizedRMSD>
0.452591687

$$$$
