
 OpenBabel03252505213D

 27 29  0  0  0  0  0  0  0  0999 V2000
   47.7140   32.7290   44.1430 F   0  0  0  0  0  0  0  0  0  0  0  0
   46.7230   33.6300   44.3270 C   0  0  0  0  0  0  0  0  0  0  0  0
   46.0090   33.5620   45.5190 C   0  0  0  0  0  0  0  0  0  0  0  0
   45.0070   34.4620   45.7250 C   0  0  0  0  0  0  0  0  0  0  0  0
   44.7120   35.4110   44.7780 C   0  0  0  0  0  0  0  0  0  0  0  0
   45.4050   35.4920   43.6030 C   0  0  0  0  0  0  0  0  0  0  0  0
   46.4470   34.5680   43.3720 C   0  0  0  0  0  0  0  0  0  0  0  0
   44.4270   34.4400   46.6410 H   0  0  0  0  0  0  0  0  0  0  0  0
   43.9070   36.1270   44.9560 H   0  0  0  0  0  0  0  0  0  0  0  0
   45.1740   36.2400   42.8560 H   0  0  0  0  0  0  0  0  0  0  0  0
   46.0890   30.3940   47.3590 C   0  0  0  0  0  0  0  0  0  0  0  0
   47.0120   30.6400   48.3920 C   0  0  0  0  0  0  0  0  0  0  0  0
   47.5870   31.9060   48.4250 C   0  0  0  0  0  0  0  0  0  0  0  0
   47.2290   32.8220   47.4700 N   0  0  0  0  0  0  0  0  0  0  0  0
   46.3470   32.5370   46.5090 C   0  0  0  0  0  0  0  0  0  0  0  0
   45.7760   31.3260   46.4500 N   0  0  0  0  0  0  0  0  0  0  0  0
   45.6450   29.4010   47.3400 H   0  0  0  0  0  0  0  0  0  0  0  0
   47.2580   29.8900   49.1150 H   0  0  0  0  0  0  0  0  0  0  0  0
   48.3120   32.1760   49.1970 H   0  0  0  0  0  0  0  0  0  0  0  0
   47.1720   34.6770   42.1070 C   0  0  0  0  0  0  0  0  0  0  0  0
   48.2800   35.4250   41.8330 C   0  0  0  0  0  0  0  0  0  0  0  0
   48.8410   36.0800   42.4810 H   0  0  0  0  0  0  0  0  0  0  0  0
   48.6680   35.2610   40.5200 C   0  0  0  0  0  0  0  0  0  0  0  0
   49.4560   35.6380   39.8850 H   0  0  0  0  0  0  0  0  0  0  0  0
   47.7100   34.3620   40.0450 C   0  0  0  0  0  0  0  0  0  0  0  0
   47.5730   33.9150   39.0680 H   0  0  0  0  0  0  0  0  0  0  0  0
   46.8750   34.0610   41.0010 O   0  0  0  0  0  0  0  0  0  0  0  0
  1  2  1  0  0  0  0
  2  3  1  0  0  0  0
  3  4  2  0  0  0  0
  3 15  1  0  0  0  0
  4  8  1  0  0  0  0
  5  9  1  0  0  0  0
  5  4  1  0  0  0  0
  6  5  2  0  0  0  0
  7  6  1  0  0  0  0
  7  2  2  0  0  0  0
 10  6  1  0  0  0  0
 11 12  1  0  0  0  0
 12 13  2  0  0  0  0
 12 18  1  0  0  0  0
 13 19  1  0  0  0  0
 14 13  1  0  0  0  0
 15 14  2  0  0  0  0
 16 15  1  0  0  0  0
 16 11  2  0  0  0  0
 17 11  1  0  0  0  0
 20  7  1  0  0  0  0
 21 20  2  0  0  0  0
 21 22  1  0  0  0  0
 23 21  1  0  0  0  0
 24 23  1  0  0  0  0
 25 23  2  0  0  0  0
 25 27  1  0  0  0  0
 26 25  1  0  0  0  0
 27 20  1  0  0  0  0
M  END
>  <minimizedAffinity>
-5.90977287

>  <minimizedRMSD>
7.14290142

$$$$
