
 OpenBabel03242511243D

 27 29  0  0  0  0  0  0  0  0999 V2000
   44.8070   33.1140   41.1290 Cl  0  0  0  0  0  0  0  0  0  0  0  0
   46.3250   33.9440   40.9170 C   0  0  0  0  0  0  0  0  0  0  0  0
   46.8250   34.7140   41.9180 C   0  0  0  0  0  0  0  0  0  0  0  0
   48.0470   35.3930   41.7690 C   0  0  0  0  0  0  0  0  0  0  0  0
   48.6950   35.2300   40.5630 C   0  0  0  0  0  0  0  0  0  0  0  0
   48.1730   34.4470   39.5610 C   0  0  0  0  0  0  0  0  0  0  0  0
   46.9870   33.7950   39.7220 C   0  0  0  0  0  0  0  0  0  0  0  0
   48.4490   36.0060   42.5600 H   0  0  0  0  0  0  0  0  0  0  0  0
   49.6490   35.7260   40.3740 H   0  0  0  0  0  0  0  0  0  0  0  0
   48.7150   34.3460   38.6280 H   0  0  0  0  0  0  0  0  0  0  0  0
   45.6060   34.0480   45.3210 C   0  0  0  0  0  0  0  0  0  0  0  0
   44.7090   35.1210   45.5400 C   0  0  0  0  0  0  0  0  0  0  0  0
   44.5440   36.0430   44.5190 C   0  0  0  0  0  0  0  0  0  0  0  0
   45.2460   35.8700   43.3730 N   0  0  0  0  0  0  0  0  0  0  0  0
   46.0950   34.8490   43.1770 C   0  0  0  0  0  0  0  0  0  0  0  0
   46.2790   33.9250   44.1590 N   0  0  0  0  0  0  0  0  0  0  0  0
   45.8460   33.2490   46.0120 H   0  0  0  0  0  0  0  0  0  0  0  0
   44.2300   35.1150   46.4980 H   0  0  0  0  0  0  0  0  0  0  0  0
   43.8600   36.8460   44.7040 H   0  0  0  0  0  0  0  0  0  0  0  0
   46.4150   32.9570   38.6720 C   0  0  0  0  0  0  0  0  0  0  0  0
   46.7370   31.6430   38.4020 C   0  0  0  0  0  0  0  0  0  0  0  0
   47.4430   31.0150   38.8980 H   0  0  0  0  0  0  0  0  0  0  0  0
   45.9400   31.2730   37.3230 C   0  0  0  0  0  0  0  0  0  0  0  0
   45.9730   30.2820   36.8830 H   0  0  0  0  0  0  0  0  0  0  0  0
   45.1790   32.3840   37.0000 C   0  0  0  0  0  0  0  0  0  0  0  0
   44.4470   32.4030   36.1810 H   0  0  0  0  0  0  0  0  0  0  0  0
   45.4950   33.3390   37.8170 O   0  0  0  0  0  0  0  0  0  0  0  0
  2  1  1  0  0  0  0
  2  3  1  0  0  0  0
  3 15  1  0  0  0  0
  4  3  2  0  0  0  0
  4  8  1  0  0  0  0
  5  4  1  0  0  0  0
  6  7  1  0  0  0  0
  6  5  2  0  0  0  0
  7  2  2  0  0  0  0
  9  5  1  0  0  0  0
 10  6  1  0  0  0  0
 11 12  1  0  0  0  0
 11 17  1  0  0  0  0
 12 18  1  0  0  0  0
 13 19  1  0  0  0  0
 13 12  2  0  0  0  0
 14 13  1  0  0  0  0
 15 14  2  0  0  0  0
 15 16  1  0  0  0  0
 16 11  2  0  0  0  0
 20  7  1  0  0  0  0
 21 20  2  0  0  0  0
 21 22  1  0  0  0  0
 23 21  1  0  0  0  0
 24 23  1  0  0  0  0
 25 23  2  0  0  0  0
 25 27  1  0  0  0  0
 26 25  1  0  0  0  0
 27 20  1  0  0  0  0
M  END
>  <minimizedAffinity>
-5.351717

>  <minimizedRMSD>
0.080840461

$$$$
