
 OpenBabel03242512393D

 33 36  0  0  0  0  0  0  0  0999 V2000
   37.3540   27.7060   42.6120 C   0  0  0  0  0  0  0  0  0  0  0  0
   36.5770   27.5900   43.6000 O   0  0  0  0  0  0  0  0  0  0  0  0
   36.6850   26.7060   40.3860 C   0  0  0  0  0  0  0  0  0  0  0  0
   37.2480   26.5820   41.6630 C   0  0  0  0  0  0  0  0  0  0  0  0
   37.7310   25.3500   42.0470 C   0  0  0  0  0  0  0  0  0  0  0  0
   37.6980   24.2110   41.2510 C   0  0  0  0  0  0  0  0  0  0  0  0
   38.0970   22.9470   41.4140 N   0  0  0  0  0  0  0  0  0  0  0  0
   37.8250   22.2460   40.3150 C   0  0  0  0  0  0  0  0  0  0  0  0
   37.2240   23.1010   39.4090 C   0  0  0  0  0  0  0  0  0  0  0  0
   37.1340   24.3620   39.9880 C   0  0  0  0  0  0  0  0  0  0  0  0
   36.6450   25.5780   39.5790 C   0  0  0  0  0  0  0  0  0  0  0  0
   36.3120   27.6620   40.0930 H   0  0  0  0  0  0  0  0  0  0  0  0
   38.1900   25.1540   43.0320 H   0  0  0  0  0  0  0  0  0  0  0  0
   38.5580   22.5350   42.2630 H   0  0  0  0  0  0  0  0  0  0  0  0
   38.0130   21.1920   40.1030 H   0  0  0  0  0  0  0  0  0  0  0  0
   36.8630   22.8900   38.4060 H   0  0  0  0  0  0  0  0  0  0  0  0
   36.2200   25.6410   38.5980 H   0  0  0  0  0  0  0  0  0  0  0  0
   38.2650   28.7770   42.3670 C   0  0  0  0  0  0  0  0  0  0  0  0
   39.5710   28.5700   42.8340 C   0  0  0  0  0  0  0  0  0  0  0  0
   40.4770   29.6220   42.5970 C   0  0  0  0  0  0  0  0  0  0  0  0
   40.0410   30.7410   41.9480 N   0  0  0  0  0  0  0  0  0  0  0  0
   38.7660   30.8760   41.5230 C   0  0  0  0  0  0  0  0  0  0  0  0
   37.8810   29.8750   41.7420 N   0  0  0  0  0  0  0  0  0  0  0  0
   39.9130   27.6840   43.3470 H   0  0  0  0  0  0  0  0  0  0  0  0
   41.4970   29.5850   42.9030 H   0  0  0  0  0  0  0  0  0  0  0  0
   38.3890   32.1090   40.8370 C   0  0  0  0  0  0  0  0  0  0  0  0
   37.2970   32.2380   39.9800 C   0  0  0  0  0  0  0  0  0  0  0  0
   36.5630   31.4980   39.6760 H   0  0  0  0  0  0  0  0  0  0  0  0
   37.2700   33.5440   39.5310 C   0  0  0  0  0  0  0  0  0  0  0  0
   36.6070   34.0800   38.8610 H   0  0  0  0  0  0  0  0  0  0  0  0
   38.3480   34.1610   40.1330 C   0  0  0  0  0  0  0  0  0  0  0  0
   38.7540   35.1610   40.1070 H   0  0  0  0  0  0  0  0  0  0  0  0
   38.9730   33.2860   40.8870 O   0  0  0  0  0  0  0  0  0  0  0  0
  1  2  2  0  0  0  0
  3  4  1  0  0  0  0
  4  5  2  0  0  0  0
  4  1  1  0  0  0  0
  5 13  1  0  0  0  0
  6  7  1  0  0  0  0
  6  5  1  0  0  0  0
  7 14  1  0  0  0  0
  8  7  1  0  0  0  0
  9 10  1  0  0  0  0
  9  8  2  0  0  0  0
 10  6  2  0  0  0  0
 11 10  1  0  0  0  0
 11  3  2  0  0  0  0
 12  3  1  0  0  0  0
 15  8  1  0  0  0  0
 16  9  1  0  0  0  0
 17 11  1  0  0  0  0
 18  1  1  0  0  0  0
 18 19  1  0  0  0  0
 19 24  1  0  0  0  0
 20 19  2  0  0  0  0
 20 25  1  0  0  0  0
 21 20  1  0  0  0  0
 22 23  1  0  0  0  0
 22 21  2  0  0  0  0
 23 18  2  0  0  0  0
 26 33  1  0  0  0  0
 26 22  1  0  0  0  0
 27 26  2  0  0  0  0
 28 27  1  0  0  0  0
 29 27  1  0  0  0  0
 29 31  2  0  0  0  0
 30 29  1  0  0  0  0
 31 33  1  0  0  0  0
 32 31  1  0  0  0  0
M  END
>  <minimizedAffinity>
-6.0323205

$$$$

 OpenBabel03242512393D

 33 36  0  0  0  0  0  0  0  0999 V2000
   36.2980   29.7570   40.8010 C   0  0  0  0  0  0  0  0  0  0  0  0
   36.0890   30.9360   41.2010 O   0  0  0  0  0  0  0  0  0  0  0  0
   34.5690   29.0320   39.1010 C   0  0  0  0  0  0  0  0  0  0  0  0
   35.8400   29.5300   39.4170 C   0  0  0  0  0  0  0  0  0  0  0  0
   36.7010   29.8270   38.3830 C   0  0  0  0  0  0  0  0  0  0  0  0
   36.3960   29.6650   37.0370 C   0  0  0  0  0  0  0  0  0  0  0  0
   37.0580   29.8820   35.8980 N   0  0  0  0  0  0  0  0  0  0  0  0
   36.2870   29.5540   34.8620 C   0  0  0  0  0  0  0  0  0  0  0  0
   35.0790   29.1060   35.3630 C   0  0  0  0  0  0  0  0  0  0  0  0
   35.1280   29.1700   36.7510 C   0  0  0  0  0  0  0  0  0  0  0  0
   34.2490   28.8650   37.7620 C   0  0  0  0  0  0  0  0  0  0  0  0
   33.9060   28.8040   39.9050 H   0  0  0  0  0  0  0  0  0  0  0  0
   37.7210   30.2220   38.5320 H   0  0  0  0  0  0  0  0  0  0  0  0
   38.0350   30.2540   35.7960 H   0  0  0  0  0  0  0  0  0  0  0  0
   36.5070   29.6030   33.7940 H   0  0  0  0  0  0  0  0  0  0  0  0
   34.2030   28.7530   34.8230 H   0  0  0  0  0  0  0  0  0  0  0  0
   33.2850   28.4860   37.4880 H   0  0  0  0  0  0  0  0  0  0  0  0
   36.9040   28.7010   41.5450 C   0  0  0  0  0  0  0  0  0  0  0  0
   37.3930   29.0630   42.8080 C   0  0  0  0  0  0  0  0  0  0  0  0
   37.9930   28.0260   43.5490 C   0  0  0  0  0  0  0  0  0  0  0  0
   38.0590   26.7740   43.0090 N   0  0  0  0  0  0  0  0  0  0  0  0
   37.5660   26.4930   41.7830 C   0  0  0  0  0  0  0  0  0  0  0  0
   36.9860   27.4760   41.0550 N   0  0  0  0  0  0  0  0  0  0  0  0
   37.3410   30.0530   43.2330 H   0  0  0  0  0  0  0  0  0  0  0  0
   38.4020   28.1740   44.5220 H   0  0  0  0  0  0  0  0  0  0  0  0
   37.6800   25.1240   41.2850 C   0  0  0  0  0  0  0  0  0  0  0  0
   36.6300   24.3900   40.7350 C   0  0  0  0  0  0  0  0  0  0  0  0
   35.5940   24.6720   40.5790 H   0  0  0  0  0  0  0  0  0  0  0  0
   37.1270   23.1500   40.3840 C   0  0  0  0  0  0  0  0  0  0  0  0
   36.6730   22.2750   39.9320 H   0  0  0  0  0  0  0  0  0  0  0  0
   38.4610   23.1760   40.7340 C   0  0  0  0  0  0  0  0  0  0  0  0
   39.2720   22.4660   40.6670 H   0  0  0  0  0  0  0  0  0  0  0  0
   38.7420   24.3480   41.2560 O   0  0  0  0  0  0  0  0  0  0  0  0
  1  2  2  0  0  0  0
  1 18  1  0  0  0  0
  3  4  1  0  0  0  0
  3 12  1  0  0  0  0
  4  1  1  0  0  0  0
  5 13  1  0  0  0  0
  5  4  2  0  0  0  0
  6  5  1  0  0  0  0
  7  6  1  0  0  0  0
  8  9  2  0  0  0  0
  8  7  1  0  0  0  0
  9 10  1  0  0  0  0
 10  6  2  0  0  0  0
 10 11  1  0  0  0  0
 11  3  2  0  0  0  0
 14  7  1  0  0  0  0
 15  8  1  0  0  0  0
 16  9  1  0  0  0  0
 17 11  1  0  0  0  0
 18 19  1  0  0  0  0
 19 24  1  0  0  0  0
 19 20  2  0  0  0  0
 20 25  1  0  0  0  0
 21 20  1  0  0  0  0
 22 21  2  0  0  0  0
 23 18  2  0  0  0  0
 23 22  1  0  0  0  0
 26 22  1  0  0  0  0
 27 26  2  0  0  0  0
 28 27  1  0  0  0  0
 29 31  2  0  0  0  0
 29 27  1  0  0  0  0
 30 29  1  0  0  0  0
 31 33  1  0  0  0  0
 32 31  1  0  0  0  0
 33 26  1  0  0  0  0
M  END
>  <minimizedAffinity>
-5.85493612

$$$$

 OpenBabel03242512393D

 33 36  0  0  0  0  0  0  0  0999 V2000
   35.7750   29.1100   39.9560 C   0  0  0  0  0  0  0  0  0  0  0  0
   34.5290   29.2620   40.0970 O   0  0  0  0  0  0  0  0  0  0  0  0
   36.5280   27.9310   42.0630 C   0  0  0  0  0  0  0  0  0  0  0  0
   36.2970   27.9370   40.6810 C   0  0  0  0  0  0  0  0  0  0  0  0
   36.5660   26.7890   39.9680 C   0  0  0  0  0  0  0  0  0  0  0  0
   37.0550   25.6150   40.5270 C   0  0  0  0  0  0  0  0  0  0  0  0
   37.3800   24.4150   40.0400 N   0  0  0  0  0  0  0  0  0  0  0  0
   37.8070   23.6310   41.0280 C   0  0  0  0  0  0  0  0  0  0  0  0
   37.7540   24.3640   42.1990 C   0  0  0  0  0  0  0  0  0  0  0  0
   37.2760   25.6350   41.9000 C   0  0  0  0  0  0  0  0  0  0  0  0
   37.0170   26.7650   42.6360 C   0  0  0  0  0  0  0  0  0  0  0  0
   36.3190   28.8220   42.6110 H   0  0  0  0  0  0  0  0  0  0  0  0
   36.4160   26.6990   38.8780 H   0  0  0  0  0  0  0  0  0  0  0  0
   37.3190   24.1010   39.0390 H   0  0  0  0  0  0  0  0  0  0  0  0
   38.1500   22.5950   40.9900 H   0  0  0  0  0  0  0  0  0  0  0  0
   38.0240   24.0620   43.2080 H   0  0  0  0  0  0  0  0  0  0  0  0
   37.2050   26.7290   43.6900 H   0  0  0  0  0  0  0  0  0  0  0  0
   36.6520   29.9400   39.1950 C   0  0  0  0  0  0  0  0  0  0  0  0
   36.4830   29.8730   37.8040 C   0  0  0  0  0  0  0  0  0  0  0  0
   37.3450   30.6900   37.0460 C   0  0  0  0  0  0  0  0  0  0  0  0
   38.2610   31.4690   37.6910 N   0  0  0  0  0  0  0  0  0  0  0  0
   38.3710   31.4860   39.0370 C   0  0  0  0  0  0  0  0  0  0  0  0
   37.5510   30.7080   39.7830 N   0  0  0  0  0  0  0  0  0  0  0  0
   35.7580   29.2560   37.2960 H   0  0  0  0  0  0  0  0  0  0  0  0
   37.3150   30.7280   35.9820 H   0  0  0  0  0  0  0  0  0  0  0  0
   39.3810   32.3510   39.6410 C   0  0  0  0  0  0  0  0  0  0  0  0
   40.5190   31.8970   40.3050 C   0  0  0  0  0  0  0  0  0  0  0  0
   40.8560   30.8820   40.4920 H   0  0  0  0  0  0  0  0  0  0  0  0
   41.2240   33.0060   40.7320 C   0  0  0  0  0  0  0  0  0  0  0  0
   42.1520   33.1250   41.2800 H   0  0  0  0  0  0  0  0  0  0  0  0
   40.4860   34.0940   40.3110 C   0  0  0  0  0  0  0  0  0  0  0  0
   40.6060   35.1640   40.3940 H   0  0  0  0  0  0  0  0  0  0  0  0
   39.4190   33.6650   39.6780 O   0  0  0  0  0  0  0  0  0  0  0  0
  1  2  2  0  0  0  0
  1  4  1  0  0  0  0
  3 12  1  0  0  0  0
  3 11  1  0  0  0  0
  4  3  2  0  0  0  0
  5  6  2  0  0  0  0
  5  4  1  0  0  0  0
  6 10  1  0  0  0  0
  7  6  1  0  0  0  0
  7  8  1  0  0  0  0
  8  9  2  0  0  0  0
  9 16  1  0  0  0  0
 10  9  1  0  0  0  0
 10 11  2  0  0  0  0
 11 17  1  0  0  0  0
 13  5  1  0  0  0  0
 14  7  1  0  0  0  0
 15  8  1  0  0  0  0
 18 23  1  0  0  0  0
 18  1  1  0  0  0  0
 19 18  2  0  0  0  0
 20 21  2  0  0  0  0
 20 19  1  0  0  0  0
 21 22  1  0  0  0  0
 22 26  1  0  0  0  0
 22 23  2  0  0  0  0
 24 19  1  0  0  0  0
 25 20  1  0  0  0  0
 26 33  1  0  0  0  0
 26 27  2  0  0  0  0
 27 28  1  0  0  0  0
 27 29  1  0  0  0  0
 29 30  1  0  0  0  0
 31 32  1  0  0  0  0
 31 29  2  0  0  0  0
 33 31  1  0  0  0  0
M  END
>  <minimizedAffinity>
-5.66188574

$$$$

 OpenBabel03242512393D

 33 36  0  0  0  0  0  0  0  0999 V2000
   36.0010   29.2680   40.2180 C   0  0  0  0  0  0  0  0  0  0  0  0
   34.7640   29.3000   39.9640 O   0  0  0  0  0  0  0  0  0  0  0  0
   36.6610   27.9100   42.2480 C   0  0  0  0  0  0  0  0  0  0  0  0
   36.4220   28.0150   40.8710 C   0  0  0  0  0  0  0  0  0  0  0  0
   36.5840   26.8900   40.0920 C   0  0  0  0  0  0  0  0  0  0  0  0
   36.9720   25.6470   40.5780 C   0  0  0  0  0  0  0  0  0  0  0  0
   37.1860   24.4530   40.0220 N   0  0  0  0  0  0  0  0  0  0  0  0
   37.5480   23.5800   40.9600 C   0  0  0  0  0  0  0  0  0  0  0  0
   37.5680   24.2470   42.1710 C   0  0  0  0  0  0  0  0  0  0  0  0
   37.2020   25.5710   41.9480 C   0  0  0  0  0  0  0  0  0  0  0  0
   37.0490   26.6760   42.7490 C   0  0  0  0  0  0  0  0  0  0  0  0
   36.5350   28.7830   42.8470 H   0  0  0  0  0  0  0  0  0  0  0  0
   36.4210   26.8750   39.0000 H   0  0  0  0  0  0  0  0  0  0  0  0
   37.0910   24.2030   39.0060 H   0  0  0  0  0  0  0  0  0  0  0  0
   37.7990   22.5220   40.8600 H   0  0  0  0  0  0  0  0  0  0  0  0
   37.8160   23.8670   43.1580 H   0  0  0  0  0  0  0  0  0  0  0  0
   37.2390   26.5640   43.7970 H   0  0  0  0  0  0  0  0  0  0  0  0
   36.9540   30.2930   39.9350 C   0  0  0  0  0  0  0  0  0  0  0  0
   36.6640   31.5490   40.4870 C   0  0  0  0  0  0  0  0  0  0  0  0
   37.5990   32.5660   40.2120 C   0  0  0  0  0  0  0  0  0  0  0  0
   38.6940   32.2750   39.4500 N   0  0  0  0  0  0  0  0  0  0  0  0
   38.9130   31.0400   38.9490 C   0  0  0  0  0  0  0  0  0  0  0  0
   38.0250   30.0490   39.2020 N   0  0  0  0  0  0  0  0  0  0  0  0
   35.7980   31.7770   41.0890 H   0  0  0  0  0  0  0  0  0  0  0  0
   37.4920   33.5620   40.5750 H   0  0  0  0  0  0  0  0  0  0  0  0
   40.1120   30.8200   38.1440 C   0  0  0  0  0  0  0  0  0  0  0  0
   40.5730   29.5700   37.7330 C   0  0  0  0  0  0  0  0  0  0  0  0
   40.1600   28.5830   37.9170 H   0  0  0  0  0  0  0  0  0  0  0  0
   41.7240   29.7700   36.9960 C   0  0  0  0  0  0  0  0  0  0  0  0
   42.4050   29.0930   36.4920 H   0  0  0  0  0  0  0  0  0  0  0  0
   41.9200   31.1360   36.9870 C   0  0  0  0  0  0  0  0  0  0  0  0
   42.6660   31.7880   36.5550 H   0  0  0  0  0  0  0  0  0  0  0  0
   40.9560   31.7100   37.6680 O   0  0  0  0  0  0  0  0  0  0  0  0
  1  4  1  0  0  0  0
  2  1  2  0  0  0  0
  3 11  1  0  0  0  0
  3 12  1  0  0  0  0
  4  3  2  0  0  0  0
  5  6  2  0  0  0  0
  5  4  1  0  0  0  0
  6 10  1  0  0  0  0
  7  6  1  0  0  0  0
  7  8  1  0  0  0  0
  8  9  2  0  0  0  0
  9 16  1  0  0  0  0
 10  9  1  0  0  0  0
 10 11  2  0  0  0  0
 11 17  1  0  0  0  0
 13  5  1  0  0  0  0
 14  7  1  0  0  0  0
 15  8  1  0  0  0  0
 18  1  1  0  0  0  0
 18 19  1  0  0  0  0
 19 24  1  0  0  0  0
 20 19  2  0  0  0  0
 20 25  1  0  0  0  0
 21 20  1  0  0  0  0
 22 23  1  0  0  0  0
 22 21  2  0  0  0  0
 23 18  2  0  0  0  0
 26 22  1  0  0  0  0
 27 28  1  0  0  0  0
 27 26  2  0  0  0  0
 29 27  1  0  0  0  0
 30 29  1  0  0  0  0
 31 29  2  0  0  0  0
 31 33  1  0  0  0  0
 32 31  1  0  0  0  0
 33 26  1  0  0  0  0
M  END
>  <minimizedAffinity>
-5.57546139

$$$$

 OpenBabel03242512393D

 33 36  0  0  0  0  0  0  0  0999 V2000
   37.3140   30.6880   41.0540 C   0  0  0  0  0  0  0  0  0  0  0  0
   36.1970   31.2760   41.0650 O   0  0  0  0  0  0  0  0  0  0  0  0
   38.9000   32.6570   40.9700 C   0  0  0  0  0  0  0  0  0  0  0  0
   38.3760   31.4840   40.4110 C   0  0  0  0  0  0  0  0  0  0  0  0
   38.8830   31.0520   39.2050 C   0  0  0  0  0  0  0  0  0  0  0  0
   39.8850   31.7030   38.4960 C   0  0  0  0  0  0  0  0  0  0  0  0
   40.5120   31.4710   37.3410 N   0  0  0  0  0  0  0  0  0  0  0  0
   41.4130   32.4270   37.1200 C   0  0  0  0  0  0  0  0  0  0  0  0
   41.3590   33.3100   38.1820 C   0  0  0  0  0  0  0  0  0  0  0  0
   40.3880   32.8650   39.0740 C   0  0  0  0  0  0  0  0  0  0  0  0
   39.9020   33.3190   40.2750 C   0  0  0  0  0  0  0  0  0  0  0  0
   38.5050   32.9880   41.9040 H   0  0  0  0  0  0  0  0  0  0  0  0
   38.5340   30.1420   38.6880 H   0  0  0  0  0  0  0  0  0  0  0  0
   40.3480   30.6690   36.6830 H   0  0  0  0  0  0  0  0  0  0  0  0
   42.0980   32.5500   36.2790 H   0  0  0  0  0  0  0  0  0  0  0  0
   41.9420   34.2110   38.3540 H   0  0  0  0  0  0  0  0  0  0  0  0
   40.3220   34.2190   40.6760 H   0  0  0  0  0  0  0  0  0  0  0  0
   37.6000   29.3940   41.5840 C   0  0  0  0  0  0  0  0  0  0  0  0
   38.3610   29.3840   42.7620 C   0  0  0  0  0  0  0  0  0  0  0  0
   38.6470   28.1110   43.2920 C   0  0  0  0  0  0  0  0  0  0  0  0
   38.1810   27.0020   42.6470 N   0  0  0  0  0  0  0  0  0  0  0  0
   37.4510   27.0820   41.5140 C   0  0  0  0  0  0  0  0  0  0  0  0
   37.1650   28.2980   40.9890 N   0  0  0  0  0  0  0  0  0  0  0  0
   38.7290   30.2620   43.2700 H   0  0  0  0  0  0  0  0  0  0  0  0
   39.2160   27.9710   44.1820 H   0  0  0  0  0  0  0  0  0  0  0  0
   36.9930   25.8420   40.8920 C   0  0  0  0  0  0  0  0  0  0  0  0
   36.9330   24.6080   41.5370 C   0  0  0  0  0  0  0  0  0  0  0  0
   37.1960   24.3430   42.5560 H   0  0  0  0  0  0  0  0  0  0  0  0
   36.4530   23.6850   40.6270 C   0  0  0  0  0  0  0  0  0  0  0  0
   36.2480   22.6220   40.6930 H   0  0  0  0  0  0  0  0  0  0  0  0
   36.2380   24.3940   39.4630 C   0  0  0  0  0  0  0  0  0  0  0  0
   35.8760   24.1360   38.4790 H   0  0  0  0  0  0  0  0  0  0  0  0
   36.5670   25.6500   39.6630 O   0  0  0  0  0  0  0  0  0  0  0  0
  1  2  2  0  0  0  0
  1 18  1  0  0  0  0
  3 12  1  0  0  0  0
  4  3  1  0  0  0  0
  4  1  1  0  0  0  0
  5  4  2  0  0  0  0
  6 10  2  0  0  0  0
  6  5  1  0  0  0  0
  7  6  1  0  0  0  0
  8  7  1  0  0  0  0
  8  9  2  0  0  0  0
  9 16  1  0  0  0  0
  9 10  1  0  0  0  0
 10 11  1  0  0  0  0
 11 17  1  0  0  0  0
 11  3  2  0  0  0  0
 13  5  1  0  0  0  0
 14  7  1  0  0  0  0
 15  8  1  0  0  0  0
 18 19  1  0  0  0  0
 19 24  1  0  0  0  0
 19 20  2  0  0  0  0
 20 25  1  0  0  0  0
 21 20  1  0  0  0  0
 22 21  2  0  0  0  0
 23 22  1  0  0  0  0
 23 18  2  0  0  0  0
 26 22  1  0  0  0  0
 26 27  2  0  0  0  0
 27 28  1  0  0  0  0
 29 30  1  0  0  0  0
 29 27  1  0  0  0  0
 31 33  1  0  0  0  0
 31 29  2  0  0  0  0
 32 31  1  0  0  0  0
 33 26  1  0  0  0  0
M  END
>  <minimizedAffinity>
-5.56442881

$$$$

 OpenBabel03242512393D

 33 36  0  0  0  0  0  0  0  0999 V2000
   36.6290   29.9450   41.0600 C   0  0  0  0  0  0  0  0  0  0  0  0
   35.4490   30.1350   40.6530 O   0  0  0  0  0  0  0  0  0  0  0  0
   37.0780   32.2920   40.2280 C   0  0  0  0  0  0  0  0  0  0  0  0
   37.5240   31.0840   40.7800 C   0  0  0  0  0  0  0  0  0  0  0  0
   38.8620   30.9560   41.0810 C   0  0  0  0  0  0  0  0  0  0  0  0
   39.8110   31.9500   40.8730 C   0  0  0  0  0  0  0  0  0  0  0  0
   41.1260   32.0430   41.0840 N   0  0  0  0  0  0  0  0  0  0  0  0
   41.5580   33.2430   40.7000 C   0  0  0  0  0  0  0  0  0  0  0  0
   40.4700   33.9490   40.2220 C   0  0  0  0  0  0  0  0  0  0  0  0
   39.3430   33.1390   40.3240 C   0  0  0  0  0  0  0  0  0  0  0  0
   38.0140   33.2940   40.0140 C   0  0  0  0  0  0  0  0  0  0  0  0
   36.0410   32.3860   39.9960 H   0  0  0  0  0  0  0  0  0  0  0  0
   39.3060   30.0440   41.5170 H   0  0  0  0  0  0  0  0  0  0  0  0
   41.7550   31.3050   41.4890 H   0  0  0  0  0  0  0  0  0  0  0  0
   42.5680   33.6560   40.7300 H   0  0  0  0  0  0  0  0  0  0  0  0
   40.4310   34.9590   39.8230 H   0  0  0  0  0  0  0  0  0  0  0  0
   37.7050   34.2290   39.5930 H   0  0  0  0  0  0  0  0  0  0  0  0
   37.1220   28.7830   41.7260 C   0  0  0  0  0  0  0  0  0  0  0  0
   37.6270   29.0010   43.0150 C   0  0  0  0  0  0  0  0  0  0  0  0
   38.1160   27.8580   43.6790 C   0  0  0  0  0  0  0  0  0  0  0  0
   38.0690   26.6500   43.0460 N   0  0  0  0  0  0  0  0  0  0  0  0
   37.5670   26.5100   41.8000 C   0  0  0  0  0  0  0  0  0  0  0  0
   37.0920   27.5960   41.1450 N   0  0  0  0  0  0  0  0  0  0  0  0
   37.6640   29.9570   43.5140 H   0  0  0  0  0  0  0  0  0  0  0  0
   38.5240   27.8940   44.6620 H   0  0  0  0  0  0  0  0  0  0  0  0
   37.5570   25.1780   41.2010 C   0  0  0  0  0  0  0  0  0  0  0  0
   36.6160   24.7330   40.2730 C   0  0  0  0  0  0  0  0  0  0  0  0
   35.7660   25.2530   39.8430 H   0  0  0  0  0  0  0  0  0  0  0  0
   36.9370   23.4300   39.9440 C   0  0  0  0  0  0  0  0  0  0  0  0
   36.4870   22.7060   39.2740 H   0  0  0  0  0  0  0  0  0  0  0  0
   38.0620   23.1310   40.6860 C   0  0  0  0  0  0  0  0  0  0  0  0
   38.6890   22.2570   40.7850 H   0  0  0  0  0  0  0  0  0  0  0  0
   38.3890   24.1800   41.4050 O   0  0  0  0  0  0  0  0  0  0  0  0
  1 18  1  0  0  0  0
  2  1  2  0  0  0  0
  3  4  1  0  0  0  0
  4  1  1  0  0  0  0
  4  5  2  0  0  0  0
  5 13  1  0  0  0  0
  6  5  1  0  0  0  0
  6  7  1  0  0  0  0
  7 14  1  0  0  0  0
  8 15  1  0  0  0  0
  8  7  1  0  0  0  0
  9 10  1  0  0  0  0
  9  8  2  0  0  0  0
 10  6  2  0  0  0  0
 11  3  2  0  0  0  0
 11 10  1  0  0  0  0
 12  3  1  0  0  0  0
 16  9  1  0  0  0  0
 17 11  1  0  0  0  0
 18 19  1  0  0  0  0
 19 24  1  0  0  0  0
 19 20  2  0  0  0  0
 20 25  1  0  0  0  0
 21 20  1  0  0  0  0
 22 21  2  0  0  0  0
 23 18  2  0  0  0  0
 23 22  1  0  0  0  0
 26 33  1  0  0  0  0
 26 22  1  0  0  0  0
 27 26  2  0  0  0  0
 28 27  1  0  0  0  0
 29 27  1  0  0  0  0
 29 31  2  0  0  0  0
 30 29  1  0  0  0  0
 31 32  1  0  0  0  0
 31 33  1  0  0  0  0
M  END
>  <minimizedAffinity>
-5.5592761

$$$$

 OpenBabel03242512393D

 33 36  0  0  0  0  0  0  0  0999 V2000
   36.8210   27.3530   42.5820 C   0  0  0  0  0  0  0  0  0  0  0  0
   36.2020   27.4400   43.6780 O   0  0  0  0  0  0  0  0  0  0  0  0
   35.7070   28.8770   40.8980 C   0  0  0  0  0  0  0  0  0  0  0  0
   36.7540   28.5910   41.7830 C   0  0  0  0  0  0  0  0  0  0  0  0
   37.7680   29.5150   41.9170 C   0  0  0  0  0  0  0  0  0  0  0  0
   37.8260   30.7210   41.2300 C   0  0  0  0  0  0  0  0  0  0  0  0
   38.6890   31.7400   41.2050 N   0  0  0  0  0  0  0  0  0  0  0  0
   38.2590   32.6700   40.3540 C   0  0  0  0  0  0  0  0  0  0  0  0
   37.0680   32.2250   39.8100 C   0  0  0  0  0  0  0  0  0  0  0  0
   36.7730   30.9810   40.3580 C   0  0  0  0  0  0  0  0  0  0  0  0
   35.7500   30.0780   40.2030 C   0  0  0  0  0  0  0  0  0  0  0  0
   34.9250   28.1590   40.7960 H   0  0  0  0  0  0  0  0  0  0  0  0
   38.6330   29.3780   42.5880 H   0  0  0  0  0  0  0  0  0  0  0  0
   39.5780   31.8290   41.7580 H   0  0  0  0  0  0  0  0  0  0  0  0
   38.7140   33.6260   40.0880 H   0  0  0  0  0  0  0  0  0  0  0  0
   36.4260   32.7100   39.0800 H   0  0  0  0  0  0  0  0  0  0  0  0
   34.9650   30.3250   39.5190 H   0  0  0  0  0  0  0  0  0  0  0  0
   37.5320   26.2150   42.0940 C   0  0  0  0  0  0  0  0  0  0  0  0
   38.8350   26.0650   42.5900 C   0  0  0  0  0  0  0  0  0  0  0  0
   39.5430   24.9440   42.1150 C   0  0  0  0  0  0  0  0  0  0  0  0
   38.9370   24.1020   41.2290 N   0  0  0  0  0  0  0  0  0  0  0  0
   37.6760   24.3040   40.7910 C   0  0  0  0  0  0  0  0  0  0  0  0
   36.9780   25.3760   41.2370 N   0  0  0  0  0  0  0  0  0  0  0  0
   39.3120   26.7330   43.2910 H   0  0  0  0  0  0  0  0  0  0  0  0
   40.5400   24.7220   42.4170 H   0  0  0  0  0  0  0  0  0  0  0  0
   37.1070   23.3500   39.8430 C   0  0  0  0  0  0  0  0  0  0  0  0
   35.7450   23.2040   39.5840 C   0  0  0  0  0  0  0  0  0  0  0  0
   34.8980   23.7350   40.0070 H   0  0  0  0  0  0  0  0  0  0  0  0
   35.6030   22.2090   38.6360 C   0  0  0  0  0  0  0  0  0  0  0  0
   34.7390   21.7720   38.1480 H   0  0  0  0  0  0  0  0  0  0  0  0
   36.8860   21.7870   38.3540 C   0  0  0  0  0  0  0  0  0  0  0  0
   37.3070   21.0430   37.6930 H   0  0  0  0  0  0  0  0  0  0  0  0
   37.7330   22.4790   39.0800 O   0  0  0  0  0  0  0  0  0  0  0  0
  1  2  2  0  0  0  0
  3  4  1  0  0  0  0
  4  5  2  0  0  0  0
  4  1  1  0  0  0  0
  5 13  1  0  0  0  0
  6  5  1  0  0  0  0
  7  6  1  0  0  0  0
  7 14  1  0  0  0  0
  8  7  1  0  0  0  0
  9  8  2  0  0  0  0
  9 10  1  0  0  0  0
 10  6  2  0  0  0  0
 11 10  1  0  0  0  0
 11  3  2  0  0  0  0
 12  3  1  0  0  0  0
 15  8  1  0  0  0  0
 16  9  1  0  0  0  0
 17 11  1  0  0  0  0
 18  1  1  0  0  0  0
 18 19  1  0  0  0  0
 19 24  1  0  0  0  0
 20 25  1  0  0  0  0
 20 19  2  0  0  0  0
 21 20  1  0  0  0  0
 22 21  2  0  0  0  0
 22 23  1  0  0  0  0
 23 18  2  0  0  0  0
 26 22  1  0  0  0  0
 27 26  2  0  0  0  0
 27 28  1  0  0  0  0
 29 27  1  0  0  0  0
 30 29  1  0  0  0  0
 31 29  2  0  0  0  0
 31 33  1  0  0  0  0
 32 31  1  0  0  0  0
 33 26  1  0  0  0  0
M  END
>  <minimizedAffinity>
-5.48411226

$$$$

 OpenBabel03242512393D

 33 36  0  0  0  0  0  0  0  0999 V2000
   37.9730   27.8840   42.5080 C   0  0  0  0  0  0  0  0  0  0  0  0
   38.4580   27.9290   43.6730 O   0  0  0  0  0  0  0  0  0  0  0  0
   36.9620   25.5670   42.4150 C   0  0  0  0  0  0  0  0  0  0  0  0
   37.8950   26.5130   41.9700 C   0  0  0  0  0  0  0  0  0  0  0  0
   38.7780   26.1440   40.9790 C   0  0  0  0  0  0  0  0  0  0  0  0
   38.8100   24.8890   40.3830 C   0  0  0  0  0  0  0  0  0  0  0  0
   39.5590   24.3280   39.4310 N   0  0  0  0  0  0  0  0  0  0  0  0
   39.1630   23.0720   39.2320 C   0  0  0  0  0  0  0  0  0  0  0  0
   38.1150   22.8190   40.0980 C   0  0  0  0  0  0  0  0  0  0  0  0
   37.8730   23.9690   40.8430 C   0  0  0  0  0  0  0  0  0  0  0  0
   36.9810   24.3080   41.8300 C   0  0  0  0  0  0  0  0  0  0  0  0
   36.2810   25.8560   43.1820 H   0  0  0  0  0  0  0  0  0  0  0  0
   39.5480   26.8190   40.5660 H   0  0  0  0  0  0  0  0  0  0  0  0
   40.3450   24.7770   38.8980 H   0  0  0  0  0  0  0  0  0  0  0  0
   39.5500   22.3270   38.5350 H   0  0  0  0  0  0  0  0  0  0  0  0
   37.5370   21.9070   40.2260 H   0  0  0  0  0  0  0  0  0  0  0  0
   36.2810   23.5630   42.1480 H   0  0  0  0  0  0  0  0  0  0  0  0
   37.5260   28.9940   41.7290 C   0  0  0  0  0  0  0  0  0  0  0  0
   36.2010   28.9140   41.2780 C   0  0  0  0  0  0  0  0  0  0  0  0
   35.7520   30.0050   40.5090 C   0  0  0  0  0  0  0  0  0  0  0  0
   36.6080   31.0390   40.2590 N   0  0  0  0  0  0  0  0  0  0  0  0
   37.8750   31.0530   40.7250 C   0  0  0  0  0  0  0  0  0  0  0  0
   38.3250   30.0130   41.4670 N   0  0  0  0  0  0  0  0  0  0  0  0
   35.5260   28.0950   41.4770 H   0  0  0  0  0  0  0  0  0  0  0  0
   34.7660   30.0620   40.1100 H   0  0  0  0  0  0  0  0  0  0  0  0
   38.7200   32.2010   40.4080 C   0  0  0  0  0  0  0  0  0  0  0  0
   39.6550   32.2370   39.3740 C   0  0  0  0  0  0  0  0  0  0  0  0
   39.9210   31.4710   38.6520 H   0  0  0  0  0  0  0  0  0  0  0  0
   40.2500   33.4830   39.3920 C   0  0  0  0  0  0  0  0  0  0  0  0
   41.0190   33.9420   38.7800 H   0  0  0  0  0  0  0  0  0  0  0  0
   39.6540   34.1600   40.4360 C   0  0  0  0  0  0  0  0  0  0  0  0
   39.7660   35.1490   40.8560 H   0  0  0  0  0  0  0  0  0  0  0  0
   38.7660   33.3740   41.0020 O   0  0  0  0  0  0  0  0  0  0  0  0
  1  2  2  0  0  0  0
  3 12  1  0  0  0  0
  4  3  1  0  0  0  0
  4  1  1  0  0  0  0
  5  4  2  0  0  0  0
  6 10  2  0  0  0  0
  6  5  1  0  0  0  0
  7  6  1  0  0  0  0
  8  7  1  0  0  0  0
  8  9  2  0  0  0  0
  9 16  1  0  0  0  0
  9 10  1  0  0  0  0
 10 11  1  0  0  0  0
 11 17  1  0  0  0  0
 11  3  2  0  0  0  0
 13  5  1  0  0  0  0
 14  7  1  0  0  0  0
 15  8  1  0  0  0  0
 18  1  1  0  0  0  0
 19 24  1  0  0  0  0
 19 18  2  0  0  0  0
 20 19  1  0  0  0  0
 21 20  2  0  0  0  0
 21 22  1  0  0  0  0
 22 23  2  0  0  0  0
 23 18  1  0  0  0  0
 25 20  1  0  0  0  0
 26 22  1  0  0  0  0
 26 33  1  0  0  0  0
 27 29  1  0  0  0  0
 27 26  2  0  0  0  0
 28 27  1  0  0  0  0
 29 31  2  0  0  0  0
 30 29  1  0  0  0  0
 31 32  1  0  0  0  0
 31 33  1  0  0  0  0
M  END
>  <minimizedAffinity>
-5.46344757

$$$$

 OpenBabel03242512393D

 33 36  0  0  0  0  0  0  0  0999 V2000
   37.6530   31.1150   38.7610 C   0  0  0  0  0  0  0  0  0  0  0  0
   37.1190   30.9250   37.6330 O   0  0  0  0  0  0  0  0  0  0  0  0
   35.8970   29.7020   39.9110 C   0  0  0  0  0  0  0  0  0  0  0  0
   37.2230   30.1310   39.7730 C   0  0  0  0  0  0  0  0  0  0  0  0
   38.1720   29.6050   40.6220 C   0  0  0  0  0  0  0  0  0  0  0  0
   37.9050   28.6700   41.6150 C   0  0  0  0  0  0  0  0  0  0  0  0
   38.6490   28.0400   42.5270 N   0  0  0  0  0  0  0  0  0  0  0  0
   37.8800   27.2260   43.2470 C   0  0  0  0  0  0  0  0  0  0  0  0
   36.5860   27.3410   42.7740 C   0  0  0  0  0  0  0  0  0  0  0  0
   36.5810   28.2600   41.7290 C   0  0  0  0  0  0  0  0  0  0  0  0
   35.6140   28.7680   40.8980 C   0  0  0  0  0  0  0  0  0  0  0  0
   35.1650   30.1120   39.2520 H   0  0  0  0  0  0  0  0  0  0  0  0
   39.2400   29.8830   40.5910 H   0  0  0  0  0  0  0  0  0  0  0  0
   39.6830   28.1440   42.6810 H   0  0  0  0  0  0  0  0  0  0  0  0
   38.1540   26.5640   44.0710 H   0  0  0  0  0  0  0  0  0  0  0  0
   35.6850   26.8350   43.1120 H   0  0  0  0  0  0  0  0  0  0  0  0
   34.6090   28.4200   41.0280 H   0  0  0  0  0  0  0  0  0  0  0  0
   38.5790   32.1460   39.1010 C   0  0  0  0  0  0  0  0  0  0  0  0
   38.0840   33.1350   39.9620 C   0  0  0  0  0  0  0  0  0  0  0  0
   38.9920   34.1570   40.3030 C   0  0  0  0  0  0  0  0  0  0  0  0
   40.2560   34.1220   39.7890 N   0  0  0  0  0  0  0  0  0  0  0  0
   40.6690   33.1370   38.9620 C   0  0  0  0  0  0  0  0  0  0  0  0
   39.8110   32.1460   38.6230 N   0  0  0  0  0  0  0  0  0  0  0  0
   37.0840   33.1620   40.3680 H   0  0  0  0  0  0  0  0  0  0  0  0
   38.7360   34.9640   40.9490 H   0  0  0  0  0  0  0  0  0  0  0  0
   42.0400   33.1810   38.4600 C   0  0  0  0  0  0  0  0  0  0  0  0
   42.6450   32.1680   37.7170 C   0  0  0  0  0  0  0  0  0  0  0  0
   42.2440   31.2140   37.3880 H   0  0  0  0  0  0  0  0  0  0  0  0
   43.9340   32.5740   37.4300 C   0  0  0  0  0  0  0  0  0  0  0  0
   44.7490   32.1100   36.8840 H   0  0  0  0  0  0  0  0  0  0  0  0
   44.0640   33.8190   38.0090 C   0  0  0  0  0  0  0  0  0  0  0  0
   44.8640   34.5430   38.0700 H   0  0  0  0  0  0  0  0  0  0  0  0
   42.9350   34.1340   38.6000 O   0  0  0  0  0  0  0  0  0  0  0  0
  1 18  1  0  0  0  0
  1  4  1  0  0  0  0
  2  1  2  0  0  0  0
  3 11  1  0  0  0  0
  4  3  2  0  0  0  0
  4  5  1  0  0  0  0
  5  6  2  0  0  0  0
  6 10  1  0  0  0  0
  6  7  1  0  0  0  0
  7 14  1  0  0  0  0
  7  8  1  0  0  0  0
  8 15  1  0  0  0  0
  9 16  1  0  0  0  0
  9  8  2  0  0  0  0
 10  9  1  0  0  0  0
 11 17  1  0  0  0  0
 11 10  2  0  0  0  0
 12  3  1  0  0  0  0
 13  5  1  0  0  0  0
 18 19  1  0  0  0  0
 19 20  2  0  0  0  0
 19 24  1  0  0  0  0
 20 25  1  0  0  0  0
 21 20  1  0  0  0  0
 22 21  2  0  0  0  0
 23 22  1  0  0  0  0
 23 18  2  0  0  0  0
 26 33  1  0  0  0  0
 26 22  1  0  0  0  0
 27 26  2  0  0  0  0
 28 27  1  0  0  0  0
 29 27  1  0  0  0  0
 29 31  2  0  0  0  0
 30 29  1  0  0  0  0
 31 32  1  0  0  0  0
 31 33  1  0  0  0  0
M  END
>  <minimizedAffinity>
-5.42388439

$$$$
