
 OpenBabel03242517173D

 32 34  0  0  0  0  0  0  0  0999 V2000
   43.7930   35.4670   41.9110 C   0  0  0  0  0  0  0  0  0  0  0  0
   42.7050   35.0690   41.3060 C   0  0  0  0  0  0  0  0  0  0  0  0
   44.4070   35.5730   44.3300 C   0  0  0  0  0  0  0  0  0  0  0  0
   44.3700   34.8700   43.1150 C   0  0  0  0  0  0  0  0  0  0  0  0
   44.8960   33.5940   43.0940 C   0  0  0  0  0  0  0  0  0  0  0  0
   45.4130   33.1050   44.2480 N   0  0  0  0  0  0  0  0  0  0  0  0
   45.4410   33.7950   45.4060 C   0  0  0  0  0  0  0  0  0  0  0  0
   44.9330   35.0280   45.4260 N   0  0  0  0  0  0  0  0  0  0  0  0
   43.9900   36.5720   44.3260 H   0  0  0  0  0  0  0  0  0  0  0  0
   44.8720   33.0500   42.1770 H   0  0  0  0  0  0  0  0  0  0  0  0
   46.0290   33.1530   46.5770 C   0  0  0  0  0  0  0  0  0  0  0  0
   45.1760   32.8850   47.6540 C   0  0  0  0  0  0  0  0  0  0  0  0
   44.1310   33.0600   47.8120 H   0  0  0  0  0  0  0  0  0  0  0  0
   45.9640   32.2850   48.6180 C   0  0  0  0  0  0  0  0  0  0  0  0
   45.6700   31.9270   49.6030 H   0  0  0  0  0  0  0  0  0  0  0  0
   47.2530   32.2160   48.0830 C   0  0  0  0  0  0  0  0  0  0  0  0
   48.1350   31.8040   48.5630 H   0  0  0  0  0  0  0  0  0  0  0  0
   47.2270   32.7470   46.8690 O   0  0  0  0  0  0  0  0  0  0  0  0
   42.1500   35.7080   40.0780 C   0  0  0  0  0  0  0  0  0  0  0  0
   41.9330   36.7880   40.3190 H   0  0  0  0  0  0  0  0  0  0  0  0
   42.8970   35.6840   39.2500 H   0  0  0  0  0  0  0  0  0  0  0  0
   41.3520   35.6530   37.4020 F   0  0  0  0  0  0  0  0  0  0  0  0
   40.5470   35.0610   38.3080 C   0  0  0  0  0  0  0  0  0  0  0  0
   40.9180   35.0700   39.6630 C   0  0  0  0  0  0  0  0  0  0  0  0
   40.0030   34.4330   40.4550 C   0  0  0  0  0  0  0  0  0  0  0  0
   38.8300   33.8190   40.0940 C   0  0  0  0  0  0  0  0  0  0  0  0
   38.5630   33.8720   38.7220 C   0  0  0  0  0  0  0  0  0  0  0  0
   39.3890   34.4770   37.8080 C   0  0  0  0  0  0  0  0  0  0  0  0
   40.2230   34.3980   41.5340 H   0  0  0  0  0  0  0  0  0  0  0  0
   38.1780   33.3460   40.7910 H   0  0  0  0  0  0  0  0  0  0  0  0
   37.6580   33.4140   38.3410 H   0  0  0  0  0  0  0  0  0  0  0  0
   39.1660   34.5050   36.7680 H   0  0  0  0  0  0  0  0  0  0  0  0
  1  4  1  0  0  0  0
  2  1  2  0  0  0  0
  3  8  1  0  0  0  0
  4  3  2  0  0  0  0
  5  4  1  0  0  0  0
  5  6  2  0  0  0  0
  6  7  1  0  0  0  0
  7  8  2  0  0  0  0
  7 11  1  0  0  0  0
  9  3  1  0  0  0  0
 10  5  1  0  0  0  0
 11 18  1  0  0  0  0
 11 12  2  0  0  0  0
 12 13  1  0  0  0  0
 12 14  1  0  0  0  0
 14 15  1  0  0  0  0
 16 17  1  0  0  0  0
 16 14  2  0  0  0  0
 18 16  1  0  0  0  0
 19 20  1  0  0  0  0
 19  2  1  0  0  0  0
 21 19  1  0  0  0  0
 22 23  1  0  0  0  0
 23 24  1  0  0  0  0
 24 19  1  0  0  0  0
 24 25  2  0  0  0  0
 25 29  1  0  0  0  0
 26 25  1  0  0  0  0
 26 30  1  0  0  0  0
 27 26  2  0  0  0  0
 28 23  2  0  0  0  0
 28 27  1  0  0  0  0
 31 27  1  0  0  0  0
 32 28  1  0  0  0  0
M  END
>  <minimizedAffinity>
-6.55723286

>  <minimizedRMSD>
0.687984705

$$$$
