
 OpenBabel03252508393D

 40 43  0  0  0  0  0  0  0  0999 V2000
   45.1820   33.9810   40.7310 C   0  0  0  0  0  0  0  0  0  0  0  0
   44.1200   33.6730   39.9250 C   0  0  0  0  0  0  0  0  0  0  0  0
   44.4080   33.1780   38.6880 C   0  0  0  0  0  0  0  0  0  0  0  0
   45.6800   32.9750   38.2110 C   0  0  0  0  0  0  0  0  0  0  0  0
   46.7270   33.2930   39.0460 C   0  0  0  0  0  0  0  0  0  0  0  0
   46.4910   33.7950   40.3030 C   0  0  0  0  0  0  0  0  0  0  0  0
   43.5650   32.9290   38.0360 H   0  0  0  0  0  0  0  0  0  0  0  0
   45.8400   32.5760   37.2120 H   0  0  0  0  0  0  0  0  0  0  0  0
   47.7160   33.1220   38.6410 H   0  0  0  0  0  0  0  0  0  0  0  0
   40.9350   35.3690   41.0340 C   0  0  0  0  0  0  0  0  0  0  0  0
   42.2290   35.1820   40.5110 C   0  0  0  0  0  0  0  0  0  0  0  0
   42.7970   33.8980   40.4550 C   0  0  0  0  0  0  0  0  0  0  0  0
   42.0110   32.9100   40.9310 N   0  0  0  0  0  0  0  0  0  0  0  0
   40.7850   33.1010   41.4240 C   0  0  0  0  0  0  0  0  0  0  0  0
   40.2480   34.3160   41.4770 N   0  0  0  0  0  0  0  0  0  0  0  0
   40.4220   36.6780   41.0640 N   0  0  0  0  0  0  0  0  0  0  0  0
   42.8230   36.0170   40.1390 H   0  0  0  0  0  0  0  0  0  0  0  0
   40.2570   32.2230   41.7750 H   0  0  0  0  0  0  0  0  0  0  0  0
   41.0070   37.3860   41.5920 H   0  0  0  0  0  0  0  0  0  0  0  0
   39.5120   36.8310   40.5630 H   0  0  0  0  0  0  0  0  0  0  0  0
   47.6560   34.1050   41.1150 C   0  0  0  0  0  0  0  0  0  0  0  0
   48.1820   35.3670   40.9540 C   0  0  0  0  0  0  0  0  0  0  0  0
   49.2940   35.8340   41.6510 C   0  0  0  0  0  0  0  0  0  0  0  0
   49.8950   34.9700   42.5520 C   0  0  0  0  0  0  0  0  0  0  0  0
   49.3910   33.7060   42.7310 C   0  0  0  0  0  0  0  0  0  0  0  0
   48.2820   33.2730   42.0220 C   0  0  0  0  0  0  0  0  0  0  0  0
   47.7640   36.0920   40.2700 H   0  0  0  0  0  0  0  0  0  0  0  0
   49.6970   36.8300   41.5140 H   0  0  0  0  0  0  0  0  0  0  0  0
   50.7600   35.2570   43.1280 H   0  0  0  0  0  0  0  0  0  0  0  0
   49.7820   32.9520   43.4080 H   0  0  0  0  0  0  0  0  0  0  0  0
   47.6960   31.9430   42.1660 C   0  0  0  0  0  0  0  0  0  0  0  0
   48.3440   30.9220   41.4680 C   0  0  0  0  0  0  0  0  0  0  0  0
   49.2210   30.8940   40.8180 H   0  0  0  0  0  0  0  0  0  0  0  0
   47.6550   29.7380   41.7200 C   0  0  0  0  0  0  0  0  0  0  0  0
   47.8010   28.7100   41.3890 H   0  0  0  0  0  0  0  0  0  0  0  0
   46.6190   30.1290   42.5660 C   0  0  0  0  0  0  0  0  0  0  0  0
   45.8190   29.5580   43.0310 H   0  0  0  0  0  0  0  0  0  0  0  0
   46.6780   31.4190   42.8000 O   0  0  0  0  0  0  0  0  0  0  0  0
   44.8080   34.9310   43.1400 N   0  0  0  0  0  0  0  0  0  0  0  0
   44.9740   34.5080   42.0540 C   0  0  0  0  0  0  0  0  0  0  0  0
  1 40  1  0  0  0  0
  2 12  1  0  0  0  0
  2  1  2  0  0  0  0
  3  2  1  0  0  0  0
  4  3  2  0  0  0  0
  4  5  1  0  0  0  0
  5  6  2  0  0  0  0
  6  1  1  0  0  0  0
  6 21  1  0  0  0  0
  7  3  1  0  0  0  0
  8  4  1  0  0  0  0
  9  5  1  0  0  0  0
 10 16  1  0  0  0  0
 10 15  1  0  0  0  0
 11 10  2  0  0  0  0
 12 11  1  0  0  0  0
 12 13  2  0  0  0  0
 13 14  1  0  0  0  0
 14 15  2  0  0  0  0
 14 18  1  0  0  0  0
 16 19  1  0  0  0  0
 17 11  1  0  0  0  0
 20 16  1  0  0  0  0
 21 26  1  0  0  0  0
 22 21  2  0  0  0  0
 22 23  1  0  0  0  0
 23 24  2  0  0  0  0
 24 25  1  0  0  0  0
 24 29  1  0  0  0  0
 25 30  1  0  0  0  0
 26 31  1  0  0  0  0
 26 25  2  0  0  0  0
 27 22  1  0  0  0  0
 28 23  1  0  0  0  0
 31 38  1  0  0  0  0
 32 34  1  0  0  0  0
 32 31  2  0  0  0  0
 33 32  1  0  0  0  0
 34 36  2  0  0  0  0
 35 34  1  0  0  0  0
 36 38  1  0  0  0  0
 36 37  1  0  0  0  0
 40 39  3  0  0  0  0
M  END
>  <minimizedAffinity>
-5.89466953

>  <minimizedRMSD>
0.446367204

$$$$
