
 OpenBabel03242515053D

 38 40  0  0  0  0  0  0  0  0999 V2000
   45.1040   34.5050   42.2950 C   0  0  0  0  0  0  0  0  0  0  0  0
   46.4080   34.1760   41.9260 C   0  0  0  0  0  0  0  0  0  0  0  0
   47.3370   33.8550   42.9310 C   0  0  0  0  0  0  0  0  0  0  0  0
   46.8960   33.8870   44.2040 N   0  0  0  0  0  0  0  0  0  0  0  0
   45.6320   34.2060   44.5420 C   0  0  0  0  0  0  0  0  0  0  0  0
   44.7650   34.5080   43.5830 N   0  0  0  0  0  0  0  0  0  0  0  0
   46.7690   34.1470   40.9230 H   0  0  0  0  0  0  0  0  0  0  0  0
   48.7150   33.5030   42.6080 C   0  0  0  0  0  0  0  0  0  0  0  0
   49.7690   34.3900   42.6750 C   0  0  0  0  0  0  0  0  0  0  0  0
   49.7620   35.4320   42.9610 H   0  0  0  0  0  0  0  0  0  0  0  0
   50.8540   33.5980   42.2810 C   0  0  0  0  0  0  0  0  0  0  0  0
   51.8820   33.9270   42.2010 H   0  0  0  0  0  0  0  0  0  0  0  0
   50.4040   32.3070   42.0040 C   0  0  0  0  0  0  0  0  0  0  0  0
   50.9550   31.4350   41.6750 H   0  0  0  0  0  0  0  0  0  0  0  0
   49.1040   32.3220   42.2230 O   0  0  0  0  0  0  0  0  0  0  0  0
   45.2870   34.2020   45.9510 C   0  0  0  0  0  0  0  0  0  0  0  0
   44.4070   34.9970   46.3450 O   0  0  0  0  0  0  0  0  0  0  0  0
   45.9920   33.2730   46.7960 N   0  0  0  0  0  0  0  0  0  0  0  0
   45.6600   32.3920   47.2500 H   0  0  0  0  0  0  0  0  0  0  0  0
   46.9860   33.5180   46.9830 H   0  0  0  0  0  0  0  0  0  0  0  0
   43.9900   34.9030   40.9580 S   0  0  0  0  0  0  0  0  0  0  0  0
   42.2610   34.7650   41.4290 C   0  0  0  0  0  0  0  0  0  0  0  0
   42.2060   34.8790   42.5360 H   0  0  0  0  0  0  0  0  0  0  0  0
   41.9210   33.7350   41.1260 H   0  0  0  0  0  0  0  0  0  0  0  0
   41.3720   35.7810   40.7980 C   0  0  0  0  0  0  0  0  0  0  0  0
   41.9330   36.5940   40.2920 H   0  0  0  0  0  0  0  0  0  0  0  0
   40.7820   36.2780   41.6130 H   0  0  0  0  0  0  0  0  0  0  0  0
   42.0890   36.0280   37.8590 Cl  0  0  0  0  0  0  0  0  0  0  0  0
   40.6830   35.2080   38.4540 C   0  0  0  0  0  0  0  0  0  0  0  0
   40.4490   35.1550   39.8320 C   0  0  0  0  0  0  0  0  0  0  0  0
   39.3100   34.4840   40.2270 C   0  0  0  0  0  0  0  0  0  0  0  0
   38.3800   33.8630   39.4000 C   0  0  0  0  0  0  0  0  0  0  0  0
   38.6490   33.9390   38.0460 C   0  0  0  0  0  0  0  0  0  0  0  0
   37.5290   33.1810   36.9140 Cl  0  0  0  0  0  0  0  0  0  0  0  0
   39.7710   34.5940   37.5920 C   0  0  0  0  0  0  0  0  0  0  0  0
   39.1300   34.4440   41.2950 H   0  0  0  0  0  0  0  0  0  0  0  0
   37.5250   33.3670   39.8170 H   0  0  0  0  0  0  0  0  0  0  0  0
   39.9570   34.6390   36.5260 H   0  0  0  0  0  0  0  0  0  0  0  0
  1  6  1  0  0  0  0
  2  1  2  0  0  0  0
  2  3  1  0  0  0  0
  3  4  2  0  0  0  0
  4  5  1  0  0  0  0
  5 16  1  0  0  0  0
  6  5  2  0  0  0  0
  7  2  1  0  0  0  0
  8  9  2  0  0  0  0
  8  3  1  0  0  0  0
  9 10  1  0  0  0  0
 11  9  1  0  0  0  0
 12 11  1  0  0  0  0
 13 15  1  0  0  0  0
 13 11  2  0  0  0  0
 14 13  1  0  0  0  0
 15  8  1  0  0  0  0
 16 17  2  0  0  0  0
 16 18  1  0  0  0  0
 18 20  1  0  0  0  0
 18 19  1  0  0  0  0
 21 22  1  0  0  0  0
 21  1  1  0  0  0  0
 22 23  1  0  0  0  0
 24 22  1  0  0  0  0
 25 22  1  0  0  0  0
 25 27  1  0  0  0  0
 26 25  1  0  0  0  0
 28 29  1  0  0  0  0
 29 30  1  0  0  0  0
 30 31  2  0  0  0  0
 30 25  1  0  0  0  0
 31 36  1  0  0  0  0
 32 37  1  0  0  0  0
 32 31  1  0  0  0  0
 33 32  2  0  0  0  0
 34 33  1  0  0  0  0
 35 33  1  0  0  0  0
 35 29  2  0  0  0  0
 38 35  1  0  0  0  0
M  END
>  <minimizedAffinity>
-6.9875741

>  <minimizedRMSD>
0.656900823

$$$$
