
 OpenBabel03252501183D

 20 21  0  0  0  0  0  0  0  0999 V2000
   40.0110   28.8500   42.6000 C   0  0  0  0  0  0  0  0  0  0  0  0
   38.6770   28.4860   42.2850 C   0  0  0  0  0  0  0  0  0  0  0  0
   38.2950   27.2230   42.7280 C   0  0  0  0  0  0  0  0  0  0  0  0
   39.2010   26.4510   43.4110 N   0  0  0  0  0  0  0  0  0  0  0  0
   40.4570   26.8590   43.6770 C   0  0  0  0  0  0  0  0  0  0  0  0
   40.8550   28.0690   43.2640 N   0  0  0  0  0  0  0  0  0  0  0  0
   40.4170   29.8090   42.3060 H   0  0  0  0  0  0  0  0  0  0  0  0
   40.9670   26.0760   44.2230 H   0  0  0  0  0  0  0  0  0  0  0  0
   37.8550   29.4320   41.5420 C   0  0  0  0  0  0  0  0  0  0  0  0
   38.0500   29.7490   40.2190 C   0  0  0  0  0  0  0  0  0  0  0  0
   38.8120   29.3710   39.5220 H   0  0  0  0  0  0  0  0  0  0  0  0
   37.1030   30.6700   39.8320 C   0  0  0  0  0  0  0  0  0  0  0  0
   37.0120   31.1030   38.8380 H   0  0  0  0  0  0  0  0  0  0  0  0
   36.3510   30.8890   40.9470 C   0  0  0  0  0  0  0  0  0  0  0  0
   35.5100   31.5730   40.9750 H   0  0  0  0  0  0  0  0  0  0  0  0
   36.8250   30.1570   41.8920 O   0  0  0  0  0  0  0  0  0  0  0  0
   36.9270   26.8220   42.4120 C   0  0  0  0  0  0  0  0  0  0  0  0
   36.0330   27.4880   43.2410 F   0  0  0  0  0  0  0  0  0  0  0  0
   36.8180   25.4830   42.7920 F   0  0  0  0  0  0  0  0  0  0  0  0
   36.5730   27.0580   41.1280 F   0  0  0  0  0  0  0  0  0  0  0  0
  1  6  1  0  0  0  0
  2  1  2  0  0  0  0
  2  3  1  0  0  0  0
  3  4  2  0  0  0  0
  4  5  1  0  0  0  0
  5  8  1  0  0  0  0
  6  5  2  0  0  0  0
  7  1  1  0  0  0  0
  9 16  1  0  0  0  0
  9  2  1  0  0  0  0
 10  9  2  0  0  0  0
 11 10  1  0  0  0  0
 12 10  1  0  0  0  0
 12 14  2  0  0  0  0
 13 12  1  0  0  0  0
 14 15  1  0  0  0  0
 14 16  1  0  0  0  0
 17  3  1  0  0  0  0
 17 19  1  0  0  0  0
 17 18  1  0  0  0  0
 20 17  1  0  0  0  0
M  END
>  <minimizedAffinity>
-4.40822983

$$$$

 OpenBabel03252501183D

 20 21  0  0  0  0  0  0  0  0999 V2000
   38.8870   30.7550   41.3200 C   0  0  0  0  0  0  0  0  0  0  0  0
   38.0650   29.6030   41.4200 C   0  0  0  0  0  0  0  0  0  0  0  0
   36.7580   29.7760   40.9750 C   0  0  0  0  0  0  0  0  0  0  0  0
   36.3730   31.0010   40.4900 N   0  0  0  0  0  0  0  0  0  0  0  0
   37.2070   32.0570   40.4230 C   0  0  0  0  0  0  0  0  0  0  0  0
   38.4710   31.9220   40.8440 N   0  0  0  0  0  0  0  0  0  0  0  0
   39.9210   30.7370   41.6370 H   0  0  0  0  0  0  0  0  0  0  0  0
   36.6680   32.8980   40.0070 H   0  0  0  0  0  0  0  0  0  0  0  0
   38.6420   28.3820   41.9700 C   0  0  0  0  0  0  0  0  0  0  0  0
   38.8740   28.1760   43.3080 C   0  0  0  0  0  0  0  0  0  0  0  0
   38.6790   28.8490   44.1570 H   0  0  0  0  0  0  0  0  0  0  0  0
   39.4230   26.9260   43.4830 C   0  0  0  0  0  0  0  0  0  0  0  0
   39.7100   26.4900   44.4370 H   0  0  0  0  0  0  0  0  0  0  0  0
   39.5100   26.4030   42.2270 C   0  0  0  0  0  0  0  0  0  0  0  0
   39.9070   25.4160   42.0180 H   0  0  0  0  0  0  0  0  0  0  0  0
   39.0500   27.2770   41.4040 O   0  0  0  0  0  0  0  0  0  0  0  0
   35.8900   28.6060   41.0700 C   0  0  0  0  0  0  0  0  0  0  0  0
   36.2840   27.6450   40.1490 F   0  0  0  0  0  0  0  0  0  0  0  0
   34.6330   29.0180   40.6230 F   0  0  0  0  0  0  0  0  0  0  0  0
   35.8750   28.0380   42.2970 F   0  0  0  0  0  0  0  0  0  0  0  0
  1  2  1  0  0  0  0
  1  7  1  0  0  0  0
  2  9  1  0  0  0  0
  3 17  1  0  0  0  0
  3  2  2  0  0  0  0
  4  3  1  0  0  0  0
  5  4  2  0  0  0  0
  5  6  1  0  0  0  0
  6  1  2  0  0  0  0
  8  5  1  0  0  0  0
  9 10  2  0  0  0  0
 10 12  1  0  0  0  0
 10 11  1  0  0  0  0
 12 13  1  0  0  0  0
 14 12  2  0  0  0  0
 15 14  1  0  0  0  0
 16  9  1  0  0  0  0
 16 14  1  0  0  0  0
 17 20  1  0  0  0  0
 18 17  1  0  0  0  0
 19 17  1  0  0  0  0
M  END
>  <minimizedAffinity>
-4.33987141

$$$$

 OpenBabel03252501183D

 20 21  0  0  0  0  0  0  0  0999 V2000
   40.1310   30.4180   42.1300 C   0  0  0  0  0  0  0  0  0  0  0  0
   38.7780   30.2650   41.7310 C   0  0  0  0  0  0  0  0  0  0  0  0
   38.2890   31.2840   40.9190 C   0  0  0  0  0  0  0  0  0  0  0  0
   39.1180   32.3220   40.5750 N   0  0  0  0  0  0  0  0  0  0  0  0
   40.3960   32.4060   40.9900 C   0  0  0  0  0  0  0  0  0  0  0  0
   40.8970   31.4420   41.7730 N   0  0  0  0  0  0  0  0  0  0  0  0
   40.6170   29.6870   42.7620 H   0  0  0  0  0  0  0  0  0  0  0  0
   40.8330   33.3110   40.5860 H   0  0  0  0  0  0  0  0  0  0  0  0
   38.0430   29.0970   42.2000 C   0  0  0  0  0  0  0  0  0  0  0  0
   37.6280   28.9190   43.4970 C   0  0  0  0  0  0  0  0  0  0  0  0
   37.7640   29.5810   44.3650 H   0  0  0  0  0  0  0  0  0  0  0  0
   36.9660   27.7160   43.5970 C   0  0  0  0  0  0  0  0  0  0  0  0
   36.5260   27.3100   44.5060 H   0  0  0  0  0  0  0  0  0  0  0  0
   36.9990   27.1920   42.3390 C   0  0  0  0  0  0  0  0  0  0  0  0
   36.5580   26.2370   42.0780 H   0  0  0  0  0  0  0  0  0  0  0  0
   37.6260   28.0230   41.5840 O   0  0  0  0  0  0  0  0  0  0  0  0
   36.8970   31.1520   40.4980 C   0  0  0  0  0  0  0  0  0  0  0  0
   36.7580   30.0600   39.6520 F   0  0  0  0  0  0  0  0  0  0  0  0
   36.6320   32.2550   39.6840 F   0  0  0  0  0  0  0  0  0  0  0  0
   36.0290   31.0080   41.5250 F   0  0  0  0  0  0  0  0  0  0  0  0
  1  7  1  0  0  0  0
  2  1  2  0  0  0  0
  2  9  1  0  0  0  0
  3  2  1  0  0  0  0
  4  3  2  0  0  0  0
  4  5  1  0  0  0  0
  5  6  2  0  0  0  0
  6  1  1  0  0  0  0
  8  5  1  0  0  0  0
  9 10  2  0  0  0  0
 10 12  1  0  0  0  0
 10 11  1  0  0  0  0
 12 13  1  0  0  0  0
 14 12  2  0  0  0  0
 15 14  1  0  0  0  0
 16  9  1  0  0  0  0
 16 14  1  0  0  0  0
 17  3  1  0  0  0  0
 17 20  1  0  0  0  0
 18 17  1  0  0  0  0
 19 17  1  0  0  0  0
M  END
>  <minimizedAffinity>
-4.32361174

$$$$

 OpenBabel03252501183D

 20 21  0  0  0  0  0  0  0  0999 V2000
   36.3940   27.2420   39.4850 C   0  0  0  0  0  0  0  0  0  0  0  0
   36.9300   26.4970   40.5670 C   0  0  0  0  0  0  0  0  0  0  0  0
   36.9020   25.1160   40.3960 C   0  0  0  0  0  0  0  0  0  0  0  0
   36.3790   24.5950   39.2390 N   0  0  0  0  0  0  0  0  0  0  0  0
   35.8850   25.3620   38.2490 C   0  0  0  0  0  0  0  0  0  0  0  0
   35.8970   26.6940   38.3830 N   0  0  0  0  0  0  0  0  0  0  0  0
   36.3640   28.3240   39.5080 H   0  0  0  0  0  0  0  0  0  0  0  0
   35.5360   24.7170   37.4520 H   0  0  0  0  0  0  0  0  0  0  0  0
   37.4370   27.2200   41.7260 C   0  0  0  0  0  0  0  0  0  0  0  0
   36.6470   27.6860   42.7480 C   0  0  0  0  0  0  0  0  0  0  0  0
   35.5570   27.6060   42.8730 H   0  0  0  0  0  0  0  0  0  0  0  0
   37.4400   28.3200   43.6780 C   0  0  0  0  0  0  0  0  0  0  0  0
   37.0890   28.7880   44.5950 H   0  0  0  0  0  0  0  0  0  0  0  0
   38.7070   28.2180   43.1850 C   0  0  0  0  0  0  0  0  0  0  0  0
   39.5780   28.6230   43.6880 H   0  0  0  0  0  0  0  0  0  0  0  0
   38.6450   27.5810   42.0700 O   0  0  0  0  0  0  0  0  0  0  0  0
   37.4440   24.3250   41.4970 C   0  0  0  0  0  0  0  0  0  0  0  0
   37.3590   22.9720   41.1980 F   0  0  0  0  0  0  0  0  0  0  0  0
   36.5650   24.4980   42.5680 F   0  0  0  0  0  0  0  0  0  0  0  0
   38.7320   24.6150   41.7930 F   0  0  0  0  0  0  0  0  0  0  0  0
  1  7  1  0  0  0  0
  1  2  1  0  0  0  0
  2  9  1  0  0  0  0
  3  2  2  0  0  0  0
  3 17  1  0  0  0  0
  4  3  1  0  0  0  0
  5  6  1  0  0  0  0
  5  4  2  0  0  0  0
  6  1  2  0  0  0  0
  8  5  1  0  0  0  0
  9 16  1  0  0  0  0
  9 10  2  0  0  0  0
 10 11  1  0  0  0  0
 10 12  1  0  0  0  0
 12 13  1  0  0  0  0
 14 12  2  0  0  0  0
 14 15  1  0  0  0  0
 16 14  1  0  0  0  0
 17 20  1  0  0  0  0
 17 19  1  0  0  0  0
 18 17  1  0  0  0  0
M  END
>  <minimizedAffinity>
-4.2228651

$$$$

 OpenBabel03252501183D

 20 21  0  0  0  0  0  0  0  0999 V2000
   37.3170   30.9090   37.3770 C   0  0  0  0  0  0  0  0  0  0  0  0
   37.1710   30.9650   38.7870 C   0  0  0  0  0  0  0  0  0  0  0  0
   36.3580   29.9750   39.3310 C   0  0  0  0  0  0  0  0  0  0  0  0
   35.7790   29.0520   38.4960 N   0  0  0  0  0  0  0  0  0  0  0  0
   35.9590   29.0560   37.1620 C   0  0  0  0  0  0  0  0  0  0  0  0
   36.7360   29.9960   36.6080 N   0  0  0  0  0  0  0  0  0  0  0  0
   37.9260   31.6290   36.8460 H   0  0  0  0  0  0  0  0  0  0  0  0
   35.4020   28.2330   36.7340 H   0  0  0  0  0  0  0  0  0  0  0  0
   37.8560   32.0250   39.5160 C   0  0  0  0  0  0  0  0  0  0  0  0
   37.4650   33.3420   39.5070 C   0  0  0  0  0  0  0  0  0  0  0  0
   36.6180   33.8090   38.9830 H   0  0  0  0  0  0  0  0  0  0  0  0
   38.3250   34.0730   40.2940 C   0  0  0  0  0  0  0  0  0  0  0  0
   38.2620   35.1440   40.4740 H   0  0  0  0  0  0  0  0  0  0  0  0
   39.2260   33.1650   40.7650 C   0  0  0  0  0  0  0  0  0  0  0  0
   40.0480   33.4250   41.4230 H   0  0  0  0  0  0  0  0  0  0  0  0
   38.9100   32.0130   40.2880 O   0  0  0  0  0  0  0  0  0  0  0  0
   36.1880   30.0130   40.7800 C   0  0  0  0  0  0  0  0  0  0  0  0
   37.3570   29.6010   41.4070 F   0  0  0  0  0  0  0  0  0  0  0  0
   35.2610   29.0140   41.0880 F   0  0  0  0  0  0  0  0  0  0  0  0
   35.8570   31.2340   41.2580 F   0  0  0  0  0  0  0  0  0  0  0  0
  1  2  1  0  0  0  0
  2  3  2  0  0  0  0
  2  9  1  0  0  0  0
  3 17  1  0  0  0  0
  4  3  1  0  0  0  0
  5  4  2  0  0  0  0
  6  5  1  0  0  0  0
  6  1  2  0  0  0  0
  7  1  1  0  0  0  0
  8  5  1  0  0  0  0
  9 16  1  0  0  0  0
 10  9  2  0  0  0  0
 10 12  1  0  0  0  0
 11 10  1  0  0  0  0
 12 13  1  0  0  0  0
 12 14  2  0  0  0  0
 14 15  1  0  0  0  0
 16 14  1  0  0  0  0
 17 19  1  0  0  0  0
 17 20  1  0  0  0  0
 17 18  1  0  0  0  0
M  END
>  <minimizedAffinity>
-4.1743865

$$$$

 OpenBabel03252501183D

 20 21  0  0  0  0  0  0  0  0999 V2000
   36.1810   27.7200   39.8860 C   0  0  0  0  0  0  0  0  0  0  0  0
   37.0760   27.4840   40.9610 C   0  0  0  0  0  0  0  0  0  0  0  0
   37.3200   28.5870   41.7730 C   0  0  0  0  0  0  0  0  0  0  0  0
   36.7000   29.7780   41.4870 N   0  0  0  0  0  0  0  0  0  0  0  0
   35.8590   29.9350   40.4470 C   0  0  0  0  0  0  0  0  0  0  0  0
   35.6040   28.8920   39.6470 N   0  0  0  0  0  0  0  0  0  0  0  0
   35.9180   26.9340   39.1900 H   0  0  0  0  0  0  0  0  0  0  0  0
   35.5050   30.9570   40.4390 H   0  0  0  0  0  0  0  0  0  0  0  0
   37.6500   26.1520   41.1080 C   0  0  0  0  0  0  0  0  0  0  0  0
   36.9810   25.0830   41.6540 C   0  0  0  0  0  0  0  0  0  0  0  0
   35.9570   25.0370   42.0530 H   0  0  0  0  0  0  0  0  0  0  0  0
   37.8080   23.9820   41.6430 C   0  0  0  0  0  0  0  0  0  0  0  0
   37.5470   22.9920   42.0120 H   0  0  0  0  0  0  0  0  0  0  0  0
   38.9700   24.4220   41.0830 C   0  0  0  0  0  0  0  0  0  0  0  0
   39.8360   23.7880   40.9300 H   0  0  0  0  0  0  0  0  0  0  0  0
   38.8230   25.6670   40.7980 O   0  0  0  0  0  0  0  0  0  0  0  0
   38.2420   28.3720   42.8840 C   0  0  0  0  0  0  0  0  0  0  0  0
   38.3170   29.5150   43.6690 F   0  0  0  0  0  0  0  0  0  0  0  0
   39.5120   28.2580   42.3170 F   0  0  0  0  0  0  0  0  0  0  0  0
   37.9010   27.3320   43.6800 F   0  0  0  0  0  0  0  0  0  0  0  0
  1  2  1  0  0  0  0
  2  9  1  0  0  0  0
  2  3  2  0  0  0  0
  3 17  1  0  0  0  0
  4  3  1  0  0  0  0
  5  4  2  0  0  0  0
  6  1  2  0  0  0  0
  6  5  1  0  0  0  0
  7  1  1  0  0  0  0
  8  5  1  0  0  0  0
  9 10  2  0  0  0  0
 10 11  1  0  0  0  0
 12 10  1  0  0  0  0
 12 13  1  0  0  0  0
 14 12  2  0  0  0  0
 15 14  1  0  0  0  0
 16 14  1  0  0  0  0
 16  9  1  0  0  0  0
 17 18  1  0  0  0  0
 17 20  1  0  0  0  0
 19 17  1  0  0  0  0
M  END
>  <minimizedAffinity>
-4.17325449

$$$$

 OpenBabel03252501183D

 20 21  0  0  0  0  0  0  0  0999 V2000
   36.6120   27.4480   42.1310 C   0  0  0  0  0  0  0  0  0  0  0  0
   36.5590   28.6160   41.3270 C   0  0  0  0  0  0  0  0  0  0  0  0
   37.3900   29.6510   41.7440 C   0  0  0  0  0  0  0  0  0  0  0  0
   38.1720   29.4740   42.8570 N   0  0  0  0  0  0  0  0  0  0  0  0
   38.1750   28.3360   43.5770 C   0  0  0  0  0  0  0  0  0  0  0  0
   37.3850   27.3210   43.2030 N   0  0  0  0  0  0  0  0  0  0  0  0
   36.0080   26.5790   41.9020 H   0  0  0  0  0  0  0  0  0  0  0  0
   38.8700   28.4470   44.3990 H   0  0  0  0  0  0  0  0  0  0  0  0
   35.6600   28.6300   40.1800 C   0  0  0  0  0  0  0  0  0  0  0  0
   35.9070   27.9690   39.0010 C   0  0  0  0  0  0  0  0  0  0  0  0
   36.7710   27.3480   38.7230 H   0  0  0  0  0  0  0  0  0  0  0  0
   34.8620   28.1910   38.1330 C   0  0  0  0  0  0  0  0  0  0  0  0
   34.7830   27.7920   37.1240 H   0  0  0  0  0  0  0  0  0  0  0  0
   33.9990   28.9910   38.8210 C   0  0  0  0  0  0  0  0  0  0  0  0
   33.0630   29.3510   38.4100 H   0  0  0  0  0  0  0  0  0  0  0  0
   34.5050   29.2090   39.9820 O   0  0  0  0  0  0  0  0  0  0  0  0
   37.3510   30.8660   40.9350 C   0  0  0  0  0  0  0  0  0  0  0  0
   37.6660   30.5700   39.6160 F   0  0  0  0  0  0  0  0  0  0  0  0
   38.4140   31.6580   41.3740 F   0  0  0  0  0  0  0  0  0  0  0  0
   36.1540   31.4950   40.9570 F   0  0  0  0  0  0  0  0  0  0  0  0
  1  6  1  0  0  0  0
  2  3  1  0  0  0  0
  2  1  2  0  0  0  0
  3  4  2  0  0  0  0
  4  5  1  0  0  0  0
  5  8  1  0  0  0  0
  6  5  2  0  0  0  0
  7  1  1  0  0  0  0
  9  2  1  0  0  0  0
 10  9  2  0  0  0  0
 11 10  1  0  0  0  0
 12 14  2  0  0  0  0
 12 10  1  0  0  0  0
 13 12  1  0  0  0  0
 14 16  1  0  0  0  0
 15 14  1  0  0  0  0
 16  9  1  0  0  0  0
 17 20  1  0  0  0  0
 17 19  1  0  0  0  0
 17  3  1  0  0  0  0
 18 17  1  0  0  0  0
M  END
>  <minimizedAffinity>
-4.14100027

$$$$

 OpenBabel03252501183D

 20 21  0  0  0  0  0  0  0  0999 V2000
   37.5230   28.1850   38.9090 C   0  0  0  0  0  0  0  0  0  0  0  0
   37.3710   29.1300   39.9560 C   0  0  0  0  0  0  0  0  0  0  0  0
   37.1510   30.4380   39.5360 C   0  0  0  0  0  0  0  0  0  0  0  0
   37.0990   30.7090   38.1910 N   0  0  0  0  0  0  0  0  0  0  0  0
   37.2530   29.7610   37.2470 C   0  0  0  0  0  0  0  0  0  0  0  0
   37.4660   28.4930   37.6190 N   0  0  0  0  0  0  0  0  0  0  0  0
   37.6990   27.1380   39.1180 H   0  0  0  0  0  0  0  0  0  0  0  0
   37.1690   30.2260   36.2730 H   0  0  0  0  0  0  0  0  0  0  0  0
   37.4650   28.6630   41.3340 C   0  0  0  0  0  0  0  0  0  0  0  0
   36.4460   28.0300   42.0020 C   0  0  0  0  0  0  0  0  0  0  0  0
   35.4370   27.7740   41.6450 H   0  0  0  0  0  0  0  0  0  0  0  0
   36.8640   27.7250   43.2770 C   0  0  0  0  0  0  0  0  0  0  0  0
   36.2680   27.2200   44.0340 H   0  0  0  0  0  0  0  0  0  0  0  0
   38.1440   28.1890   43.3460 C   0  0  0  0  0  0  0  0  0  0  0  0
   38.7630   28.1040   44.2320 H   0  0  0  0  0  0  0  0  0  0  0  0
   38.4330   28.7150   42.2090 O   0  0  0  0  0  0  0  0  0  0  0  0
   36.9950   31.4320   40.5940 C   0  0  0  0  0  0  0  0  0  0  0  0
   36.8140   32.6920   40.0400 F   0  0  0  0  0  0  0  0  0  0  0  0
   38.2330   31.5110   41.2360 F   0  0  0  0  0  0  0  0  0  0  0  0
   35.9610   31.1810   41.4280 F   0  0  0  0  0  0  0  0  0  0  0  0
  1  7  1  0  0  0  0
  1  2  1  0  0  0  0
  2  9  1  0  0  0  0
  3  2  2  0  0  0  0
  3 17  1  0  0  0  0
  4  3  1  0  0  0  0
  5  6  1  0  0  0  0
  5  4  2  0  0  0  0
  6  1  2  0  0  0  0
  8  5  1  0  0  0  0
  9 10  2  0  0  0  0
  9 16  1  0  0  0  0
 10 12  1  0  0  0  0
 11 10  1  0  0  0  0
 12 14  2  0  0  0  0
 12 13  1  0  0  0  0
 14 15  1  0  0  0  0
 16 14  1  0  0  0  0
 17 19  1  0  0  0  0
 17 20  1  0  0  0  0
 18 17  1  0  0  0  0
M  END
>  <minimizedAffinity>
-4.13108969

$$$$

 OpenBabel03252501183D

 20 21  0  0  0  0  0  0  0  0999 V2000
   39.1440   28.8980   42.7900 C   0  0  0  0  0  0  0  0  0  0  0  0
   38.3550   29.6520   41.8830 C   0  0  0  0  0  0  0  0  0  0  0  0
   37.0500   29.1960   41.7240 C   0  0  0  0  0  0  0  0  0  0  0  0
   36.6360   28.0940   42.4280 N   0  0  0  0  0  0  0  0  0  0  0  0
   37.4390   27.4210   43.2750 C   0  0  0  0  0  0  0  0  0  0  0  0
   38.7010   27.8350   43.4500 N   0  0  0  0  0  0  0  0  0  0  0  0
   40.1740   29.1610   42.9930 H   0  0  0  0  0  0  0  0  0  0  0  0
   36.8810   26.5980   43.7020 H   0  0  0  0  0  0  0  0  0  0  0  0
   38.9650   30.7950   41.2150 C   0  0  0  0  0  0  0  0  0  0  0  0
   39.8330   30.6930   40.1550 C   0  0  0  0  0  0  0  0  0  0  0  0
   40.2030   29.7900   39.6470 H   0  0  0  0  0  0  0  0  0  0  0  0
   40.2190   31.9560   39.7660 C   0  0  0  0  0  0  0  0  0  0  0  0
   40.9020   32.1850   38.9510 H   0  0  0  0  0  0  0  0  0  0  0  0
   39.5650   32.7990   40.6140 C   0  0  0  0  0  0  0  0  0  0  0  0
   39.6580   33.8780   40.5720 H   0  0  0  0  0  0  0  0  0  0  0  0
   38.8650   32.0820   41.4190 O   0  0  0  0  0  0  0  0  0  0  0  0
   36.2180   29.9530   40.7930 C   0  0  0  0  0  0  0  0  0  0  0  0
   35.9630   31.2180   41.3040 F   0  0  0  0  0  0  0  0  0  0  0  0
   34.9720   29.3240   40.7880 F   0  0  0  0  0  0  0  0  0  0  0  0
   36.7660   30.0930   39.5640 F   0  0  0  0  0  0  0  0  0  0  0  0
  1  7  1  0  0  0  0
  1  6  1  0  0  0  0
  2  1  2  0  0  0  0
  3  2  1  0  0  0  0
  3  4  2  0  0  0  0
  4  5  1  0  0  0  0
  5  6  2  0  0  0  0
  5  8  1  0  0  0  0
  9 16  1  0  0  0  0
  9  2  1  0  0  0  0
 10  9  2  0  0  0  0
 11 10  1  0  0  0  0
 12 10  1  0  0  0  0
 12 14  2  0  0  0  0
 13 12  1  0  0  0  0
 14 16  1  0  0  0  0
 15 14  1  0  0  0  0
 17 18  1  0  0  0  0
 17  3  1  0  0  0  0
 19 17  1  0  0  0  0
 20 17  1  0  0  0  0
M  END
>  <minimizedAffinity>
-4.10298109

$$$$
