
 OpenBabel03242515473D

 40 43  0  0  1  0  0  0  0  0999 V2000
   39.2110   32.8140   39.4290 C   0  0  0  0  0  0  0  0  0  0  0  0
   40.0510   31.7020   39.3630 C   0  0  0  0  0  0  0  0  0  0  0  0
   41.3690   31.7720   39.7700 C   0  0  0  0  0  0  0  0  0  0  0  0
   41.8790   32.9560   40.2550 C   0  0  0  0  0  0  0  0  0  0  0  0
   41.0570   34.0580   40.3240 C   0  0  0  0  0  0  0  0  0  0  0  0
   39.7520   34.0130   39.9270 C   0  0  0  0  0  0  0  0  0  0  0  0
   41.8510   35.1020   40.8540 O   0  0  0  0  0  0  0  0  0  0  0  0
   43.1680   34.7080   40.8080 C   0  0  2  0  0  0  0  0  0  0  0  0
   43.1440   33.3010   40.7270 O   0  0  0  0  0  0  0  0  0  0  0  0
   38.1710   32.8340   39.1280 H   0  0  0  0  0  0  0  0  0  0  0  0
   41.9400   30.8580   39.6790 H   0  0  0  0  0  0  0  0  0  0  0  0
   39.1390   34.8930   39.9950 H   0  0  0  0  0  0  0  0  0  0  0  0
   43.5790   35.0460   39.8140 H   0  0  0  0  0  0  0  0  0  0  0  0
   44.0480   35.2260   41.8620 C   0  0  0  0  0  0  0  0  0  0  0  0
   45.4250   35.3920   41.8690 C   0  0  0  0  0  0  0  0  0  0  0  0
   46.0730   35.1370   41.0280 H   0  0  0  0  0  0  0  0  0  0  0  0
   45.7190   35.9160   43.1160 C   0  0  0  0  0  0  0  0  0  0  0  0
   46.7280   36.1570   43.4280 H   0  0  0  0  0  0  0  0  0  0  0  0
   44.5090   36.0330   43.7790 C   0  0  0  0  0  0  0  0  0  0  0  0
   44.4660   36.4310   44.8040 H   0  0  0  0  0  0  0  0  0  0  0  0
   43.5410   35.6170   43.0090 O   0  0  0  0  0  0  0  0  0  0  0  0
   39.2190   30.2480   38.7300 S   0  0  0  0  0  0  0  0  0  0  0  0
   37.8690   29.7750   39.8600 C   0  0  0  0  0  0  0  0  0  0  0  0
   36.6360   29.6970   39.3180 C   0  0  0  0  0  0  0  0  0  0  0  0
   35.6160   29.3560   40.2000 C   0  0  0  0  0  0  0  0  0  0  0  0
   35.8590   29.1220   41.5000 N   0  0  0  0  0  0  0  0  0  0  0  0
   37.1060   29.2090   42.0030 C   0  0  0  0  0  0  0  0  0  0  0  0
   38.0650   29.5340   41.1590 N   0  0  0  0  0  0  0  0  0  0  0  0
   34.2560   29.2690   39.7260 N   0  0  0  0  0  0  0  0  0  0  0  0
   33.8180   28.3640   39.4700 H   0  0  0  0  0  0  0  0  0  0  0  0
   33.8010   30.2090   39.6800 H   0  0  0  0  0  0  0  0  0  0  0  0
   36.0910   29.8730   37.9310 C   0  0  0  0  0  0  0  0  0  0  0  0
   35.3720   29.0800   37.6740 H   0  0  0  0  0  0  0  0  0  0  0  0
   35.7450   30.8990   37.8110 H   0  0  0  0  0  0  0  0  0  0  0  0
   36.9530   29.7200   37.2240 H   0  0  0  0  0  0  0  0  0  0  0  0
   37.4440   28.9850   43.3160 O   0  0  0  0  0  0  0  0  0  0  0  0
   37.2490   27.6840   43.8330 C   0  0  0  0  0  0  0  0  0  0  0  0
   36.7420   26.8350   42.8930 F   0  0  0  0  0  0  0  0  0  0  0  0
   38.4970   27.2550   44.3240 F   0  0  0  0  0  0  0  0  0  0  0  0
   36.3300   27.7700   44.8720 F   0  0  0  0  0  0  0  0  0  0  0  0
  1  6  1  0  0  0  0
  2  1  2  0  0  0  0
  2  3  1  0  0  0  0
  3  4  2  0  0  0  0
  4  5  1  0  0  0  0
  4  9  1  0  0  0  0
  5  7  1  0  0  0  0
  6 12  1  0  0  0  0
  6  5  2  0  0  0  0
  8 13  1  6  0  0  0
  8  7  1  0  0  0  0
  8 14  1  0  0  0  0
  9  8  1  0  0  0  0
 10  1  1  0  0  0  0
 11  3  1  0  0  0  0
 14 15  2  0  0  0  0
 14 21  1  0  0  0  0
 15 17  1  0  0  0  0
 16 15  1  0  0  0  0
 17 18  1  0  0  0  0
 17 19  2  0  0  0  0
 19 20  1  0  0  0  0
 21 19  1  0  0  0  0
 22  2  1  0  0  0  0
 22 23  1  0  0  0  0
 23 28  1  0  0  0  0
 24 23  2  0  0  0  0
 24 25  1  0  0  0  0
 25 26  2  0  0  0  0
 26 27  1  0  0  0  0
 27 36  1  0  0  0  0
 28 27  2  0  0  0  0
 29 25  1  0  0  0  0
 30 29  1  0  0  0  0
 31 29  1  0  0  0  0
 32 24  1  0  0  0  0
 33 32  1  0  0  0  0
 34 32  1  0  0  0  0
 35 32  1  0  0  0  0
 36 37  1  0  0  0  0
 37 39  1  0  0  0  0
 37 40  1  0  0  0  0
 38 37  1  0  0  0  0
M  END
>  <minimizedAffinity>
-7.01581287

$$$$

 OpenBabel03242515473D

 40 43  0  0  1  0  0  0  0  0999 V2000
   37.3570   33.2750   39.6330 C   0  0  0  0  0  0  0  0  0  0  0  0
   38.0640   32.1030   39.3630 C   0  0  0  0  0  0  0  0  0  0  0  0
   39.4310   32.0320   39.5390 C   0  0  0  0  0  0  0  0  0  0  0  0
   40.1270   33.1310   39.9940 C   0  0  0  0  0  0  0  0  0  0  0  0
   39.4370   34.2910   40.2640 C   0  0  0  0  0  0  0  0  0  0  0  0
   38.0860   34.3850   40.0960 C   0  0  0  0  0  0  0  0  0  0  0  0
   40.4050   35.2240   40.7050 O   0  0  0  0  0  0  0  0  0  0  0  0
   41.6520   34.7230   40.4120 C   0  0  2  0  0  0  0  0  0  0  0  0
   41.4800   33.3320   40.2580 O   0  0  0  0  0  0  0  0  0  0  0  0
   36.2880   33.4040   39.5170 H   0  0  0  0  0  0  0  0  0  0  0  0
   39.8890   31.0800   39.3020 H   0  0  0  0  0  0  0  0  0  0  0  0
   37.5800   35.3080   40.3160 H   0  0  0  0  0  0  0  0  0  0  0  0
   41.9220   35.0940   39.3810 H   0  0  0  0  0  0  0  0  0  0  0  0
   42.7410   35.0890   41.3250 C   0  0  0  0  0  0  0  0  0  0  0  0
   42.7720   36.0360   42.3380 C   0  0  0  0  0  0  0  0  0  0  0  0
   41.9260   36.6750   42.5990 H   0  0  0  0  0  0  0  0  0  0  0  0
   44.0480   35.9540   42.8690 C   0  0  0  0  0  0  0  0  0  0  0  0
   44.3820   36.5790   43.6890 H   0  0  0  0  0  0  0  0  0  0  0  0
   44.7020   34.9690   42.1500 C   0  0  0  0  0  0  0  0  0  0  0  0
   45.7450   34.7040   42.3780 H   0  0  0  0  0  0  0  0  0  0  0  0
   43.9000   34.4770   41.2440 O   0  0  0  0  0  0  0  0  0  0  0  0
   37.0030   30.7730   38.8040 S   0  0  0  0  0  0  0  0  0  0  0  0
   37.3900   29.2500   39.7270 C   0  0  0  0  0  0  0  0  0  0  0  0
   38.2000   28.3660   39.1100 C   0  0  0  0  0  0  0  0  0  0  0  0
   38.4660   27.2010   39.8210 C   0  0  0  0  0  0  0  0  0  0  0  0
   37.9460   26.9860   41.0400 N   0  0  0  0  0  0  0  0  0  0  0  0
   37.1420   27.8960   41.6250 C   0  0  0  0  0  0  0  0  0  0  0  0
   36.8950   28.9970   40.9410 N   0  0  0  0  0  0  0  0  0  0  0  0
   39.3030   26.1800   39.2390 N   0  0  0  0  0  0  0  0  0  0  0  0
   40.3120   26.0950   39.4680 H   0  0  0  0  0  0  0  0  0  0  0  0
   38.7670   25.5680   38.5820 H   0  0  0  0  0  0  0  0  0  0  0  0
   38.9280   28.3560   37.7970 C   0  0  0  0  0  0  0  0  0  0  0  0
   39.9610   27.9940   37.9100 H   0  0  0  0  0  0  0  0  0  0  0  0
   38.3150   27.8500   37.0520 H   0  0  0  0  0  0  0  0  0  0  0  0
   39.0320   29.4300   37.4780 H   0  0  0  0  0  0  0  0  0  0  0  0
   36.5690   27.7600   42.8660 O   0  0  0  0  0  0  0  0  0  0  0  0
   37.3500   28.1070   43.9930 C   0  0  0  0  0  0  0  0  0  0  0  0
   38.0270   29.2750   43.8010 F   0  0  0  0  0  0  0  0  0  0  0  0
   36.4680   28.1720   45.0890 F   0  0  0  0  0  0  0  0  0  0  0  0
   38.2850   27.0980   44.1910 F   0  0  0  0  0  0  0  0  0  0  0  0
  1  6  1  0  0  0  0
  2  3  1  0  0  0  0
  2  1  2  0  0  0  0
  3  4  2  0  0  0  0
  4  9  1  0  0  0  0
  4  5  1  0  0  0  0
  5  7  1  0  0  0  0
  6  5  2  0  0  0  0
  6 12  1  0  0  0  0
  8 13  1  6  0  0  0
  8  7  1  0  0  0  0
  8 14  1  0  0  0  0
  9  8  1  0  0  0  0
 10  1  1  0  0  0  0
 11  3  1  0  0  0  0
 14 15  2  0  0  0  0
 15 16  1  0  0  0  0
 15 17  1  0  0  0  0
 17 18  1  0  0  0  0
 19 20  1  0  0  0  0
 19 17  2  0  0  0  0
 21 14  1  0  0  0  0
 21 19  1  0  0  0  0
 22  2  1  0  0  0  0
 22 23  1  0  0  0  0
 23 28  1  0  0  0  0
 24 23  2  0  0  0  0
 24 25  1  0  0  0  0
 25 26  2  0  0  0  0
 26 27  1  0  0  0  0
 27 36  1  0  0  0  0
 28 27  2  0  0  0  0
 29 30  1  0  0  0  0
 29 25  1  0  0  0  0
 31 29  1  0  0  0  0
 32 33  1  0  0  0  0
 32 24  1  0  0  0  0
 34 32  1  0  0  0  0
 35 32  1  0  0  0  0
 36 37  1  0  0  0  0
 37 40  1  0  0  0  0
 37 39  1  0  0  0  0
 38 37  1  0  0  0  0
M  END
>  <minimizedAffinity>
-6.89393854

$$$$

 OpenBabel03242515473D

 40 43  0  0  1  0  0  0  0  0999 V2000
   36.7090   29.7690   39.0870 C   0  0  0  0  0  0  0  0  0  0  0  0
   37.9130   29.0990   38.8680 C   0  0  0  0  0  0  0  0  0  0  0  0
   39.1230   29.7620   38.9170 C   0  0  0  0  0  0  0  0  0  0  0  0
   39.1600   31.1120   39.1880 C   0  0  0  0  0  0  0  0  0  0  0  0
   37.9760   31.7810   39.4060 C   0  0  0  0  0  0  0  0  0  0  0  0
   36.7690   31.1470   39.3620 C   0  0  0  0  0  0  0  0  0  0  0  0
   38.3320   33.1280   39.6540 O   0  0  0  0  0  0  0  0  0  0  0  0
   39.6480   33.3000   39.2920 C   0  0  2  0  0  0  0  0  0  0  0  0
   40.2190   32.0110   39.2970 O   0  0  0  0  0  0  0  0  0  0  0  0
   35.7250   29.3170   39.0640 H   0  0  0  0  0  0  0  0  0  0  0  0
   40.0000   29.1560   38.7330 H   0  0  0  0  0  0  0  0  0  0  0  0
   35.8650   31.7020   39.5370 H   0  0  0  0  0  0  0  0  0  0  0  0
   39.6540   33.6120   38.2080 H   0  0  0  0  0  0  0  0  0  0  0  0
   40.4160   34.2920   40.0530 C   0  0  0  0  0  0  0  0  0  0  0  0
   40.0360   35.5390   40.5280 C   0  0  0  0  0  0  0  0  0  0  0  0
   39.0420   35.9680   40.3830 H   0  0  0  0  0  0  0  0  0  0  0  0
   41.1560   36.0360   41.1720 C   0  0  0  0  0  0  0  0  0  0  0  0
   41.1720   37.0070   41.6530 H   0  0  0  0  0  0  0  0  0  0  0  0
   42.1350   35.0660   41.0470 C   0  0  0  0  0  0  0  0  0  0  0  0
   43.1350   35.2170   41.4790 H   0  0  0  0  0  0  0  0  0  0  0  0
   41.6650   34.0470   40.3800 O   0  0  0  0  0  0  0  0  0  0  0  0
   37.6790   27.3520   38.5530 S   0  0  0  0  0  0  0  0  0  0  0  0
   37.5130   26.4610   40.1340 C   0  0  0  0  0  0  0  0  0  0  0  0
   37.8950   25.1670   40.1350 C   0  0  0  0  0  0  0  0  0  0  0  0
   37.7400   24.4990   41.3440 C   0  0  0  0  0  0  0  0  0  0  0  0
   37.2430   25.1130   42.4300 N   0  0  0  0  0  0  0  0  0  0  0  0
   36.8740   26.4090   42.3890 C   0  0  0  0  0  0  0  0  0  0  0  0
   37.0240   27.0330   41.2370 N   0  0  0  0  0  0  0  0  0  0  0  0
   38.0970   23.1040   41.4450 N   0  0  0  0  0  0  0  0  0  0  0  0
   39.0100   22.7940   41.8290 H   0  0  0  0  0  0  0  0  0  0  0  0
   37.3350   22.4830   41.0890 H   0  0  0  0  0  0  0  0  0  0  0  0
   38.4930   24.2540   39.1050 C   0  0  0  0  0  0  0  0  0  0  0  0
   39.3190   23.6570   39.5230 H   0  0  0  0  0  0  0  0  0  0  0  0
   37.6960   23.7000   38.6120 H   0  0  0  0  0  0  0  0  0  0  0  0
   38.9780   24.9130   38.3330 H   0  0  0  0  0  0  0  0  0  0  0  0
   36.3600   27.1160   43.4490 O   0  0  0  0  0  0  0  0  0  0  0  0
   37.2110   28.0390   44.1000 C   0  0  0  0  0  0  0  0  0  0  0  0
   37.4040   29.1650   43.3530 F   0  0  0  0  0  0  0  0  0  0  0  0
   36.6230   28.3180   45.3480 F   0  0  0  0  0  0  0  0  0  0  0  0
   38.4470   27.4270   44.2790 F   0  0  0  0  0  0  0  0  0  0  0  0
  1  6  1  0  0  0  0
  2  3  1  0  0  0  0
  2  1  2  0  0  0  0
  3  4  2  0  0  0  0
  4  9  1  0  0  0  0
  4  5  1  0  0  0  0
  5  7  1  0  0  0  0
  6  5  2  0  0  0  0
  6 12  1  0  0  0  0
  8 13  1  6  0  0  0
  8  9  1  0  0  0  0
  8  7  1  0  0  0  0
  8 14  1  0  0  0  0
 10  1  1  0  0  0  0
 11  3  1  0  0  0  0
 14 21  1  0  0  0  0
 14 15  2  0  0  0  0
 15 17  1  0  0  0  0
 16 15  1  0  0  0  0
 17 18  1  0  0  0  0
 19 17  2  0  0  0  0
 19 20  1  0  0  0  0
 21 19  1  0  0  0  0
 22  2  1  0  0  0  0
 22 23  1  0  0  0  0
 23 24  2  0  0  0  0
 23 28  1  0  0  0  0
 24 25  1  0  0  0  0
 25 29  1  0  0  0  0
 25 26  2  0  0  0  0
 27 26  1  0  0  0  0
 27 36  1  0  0  0  0
 28 27  2  0  0  0  0
 29 30  1  0  0  0  0
 31 29  1  0  0  0  0
 32 33  1  0  0  0  0
 32 24  1  0  0  0  0
 34 32  1  0  0  0  0
 35 32  1  0  0  0  0
 36 37  1  0  0  0  0
 37 40  1  0  0  0  0
 37 39  1  0  0  0  0
 38 37  1  0  0  0  0
M  END
>  <minimizedAffinity>
-6.76976967

$$$$

 OpenBabel03242515473D

 40 43  0  0  1  0  0  0  0  0999 V2000
   36.8570   31.7410   40.4890 C   0  0  0  0  0  0  0  0  0  0  0  0
   38.1970   31.8770   40.8530 C   0  0  0  0  0  0  0  0  0  0  0  0
   38.8950   30.8330   41.4270 C   0  0  0  0  0  0  0  0  0  0  0  0
   38.2720   29.6250   41.6490 C   0  0  0  0  0  0  0  0  0  0  0  0
   36.9490   29.4820   41.2920 C   0  0  0  0  0  0  0  0  0  0  0  0
   36.2400   30.5000   40.7250 C   0  0  0  0  0  0  0  0  0  0  0  0
   36.5970   28.1560   41.6380 O   0  0  0  0  0  0  0  0  0  0  0  0
   37.5840   27.6430   42.4460 C   0  0  2  0  0  0  0  0  0  0  0  0
   38.7280   28.4290   42.1980 O   0  0  0  0  0  0  0  0  0  0  0  0
   36.2480   32.5130   40.0370 H   0  0  0  0  0  0  0  0  0  0  0  0
   39.9290   31.0360   41.6750 H   0  0  0  0  0  0  0  0  0  0  0  0
   35.2090   30.3520   40.4590 H   0  0  0  0  0  0  0  0  0  0  0  0
   37.2970   27.8820   43.5110 H   0  0  0  0  0  0  0  0  0  0  0  0
   37.8260   26.1990   42.3550 C   0  0  0  0  0  0  0  0  0  0  0  0
   37.0060   25.1880   41.8760 C   0  0  0  0  0  0  0  0  0  0  0  0
   36.0040   25.3560   41.4770 H   0  0  0  0  0  0  0  0  0  0  0  0
   37.7400   24.0250   42.0300 C   0  0  0  0  0  0  0  0  0  0  0  0
   37.3620   23.0510   41.7420 H   0  0  0  0  0  0  0  0  0  0  0  0
   38.9490   24.4030   42.5890 C   0  0  0  0  0  0  0  0  0  0  0  0
   39.7230   23.6550   42.8140 H   0  0  0  0  0  0  0  0  0  0  0  0
   38.9670   25.6960   42.7680 O   0  0  0  0  0  0  0  0  0  0  0  0
   38.8510   33.5000   40.4730 S   0  0  0  0  0  0  0  0  0  0  0  0
   40.1630   33.3540   39.2160 C   0  0  0  0  0  0  0  0  0  0  0  0
   40.9800   34.4170   39.0770 C   0  0  0  0  0  0  0  0  0  0  0  0
   41.9600   34.2950   38.0990 C   0  0  0  0  0  0  0  0  0  0  0  0
   42.0730   33.1860   37.3510 N   0  0  0  0  0  0  0  0  0  0  0  0
   41.2380   32.1420   37.5210 C   0  0  0  0  0  0  0  0  0  0  0  0
   40.3110   32.2690   38.4510 N   0  0  0  0  0  0  0  0  0  0  0  0
   42.8710   35.3870   37.8540 N   0  0  0  0  0  0  0  0  0  0  0  0
   43.8240   35.4130   38.2640 H   0  0  0  0  0  0  0  0  0  0  0  0
   42.4470   36.1140   37.2330 H   0  0  0  0  0  0  0  0  0  0  0  0
   41.1000   35.7410   39.7750 C   0  0  0  0  0  0  0  0  0  0  0  0
   42.1480   35.9870   40.0010 H   0  0  0  0  0  0  0  0  0  0  0  0
   40.5340   36.4890   39.2210 H   0  0  0  0  0  0  0  0  0  0  0  0
   40.6090   35.6210   40.7800 H   0  0  0  0  0  0  0  0  0  0  0  0
   41.2820   30.9710   36.8040 O   0  0  0  0  0  0  0  0  0  0  0  0
   42.5080   30.2660   36.7710 C   0  0  0  0  0  0  0  0  0  0  0  0
   43.1850   30.3690   37.9510 F   0  0  0  0  0  0  0  0  0  0  0  0
   42.1950   28.9310   36.4480 F   0  0  0  0  0  0  0  0  0  0  0  0
   43.2970   30.8270   35.7740 F   0  0  0  0  0  0  0  0  0  0  0  0
  1  6  2  0  0  0  0
  1  2  1  0  0  0  0
  2  3  2  0  0  0  0
  3  4  1  0  0  0  0
  3 11  1  0  0  0  0
  4  9  1  0  0  0  0
  5  7  1  0  0  0  0
  5  4  2  0  0  0  0
  6  5  1  0  0  0  0
  7  8  1  0  0  0  0
  8 13  1  1  0  0  0
  9  8  1  0  0  0  0
 10  1  1  0  0  0  0
 12  6  1  0  0  0  0
 14  8  1  0  0  0  0
 14 21  1  0  0  0  0
 15 17  1  0  0  0  0
 15 14  2  0  0  0  0
 16 15  1  0  0  0  0
 17 19  2  0  0  0  0
 18 17  1  0  0  0  0
 19 21  1  0  0  0  0
 19 20  1  0  0  0  0
 22  2  1  0  0  0  0
 23 22  1  0  0  0  0
 24 23  1  0  0  0  0
 24 32  1  0  0  0  0
 25 24  2  0  0  0  0
 26 27  2  0  0  0  0
 26 25  1  0  0  0  0
 27 28  1  0  0  0  0
 28 23  2  0  0  0  0
 29 25  1  0  0  0  0
 29 30  1  0  0  0  0
 31 29  1  0  0  0  0
 32 33  1  0  0  0  0
 32 35  1  0  0  0  0
 34 32  1  0  0  0  0
 36 27  1  0  0  0  0
 37 36  1  0  0  0  0
 37 38  1  0  0  0  0
 39 37  1  0  0  0  0
 40 37  1  0  0  0  0
M  END
>  <minimizedAffinity>
-6.70493174

$$$$

 OpenBabel03242515473D

 40 43  0  0  1  0  0  0  0  0999 V2000
   36.0460   29.2400   41.0040 C   0  0  0  0  0  0  0  0  0  0  0  0
   37.0220   29.0070   41.9730 C   0  0  0  0  0  0  0  0  0  0  0  0
   38.1290   29.8230   42.0890 C   0  0  0  0  0  0  0  0  0  0  0  0
   38.2870   30.8960   41.2390 C   0  0  0  0  0  0  0  0  0  0  0  0
   37.3280   31.1340   40.2800 C   0  0  0  0  0  0  0  0  0  0  0  0
   36.2270   30.3400   40.1470 C   0  0  0  0  0  0  0  0  0  0  0  0
   37.7610   32.2820   39.5760 O   0  0  0  0  0  0  0  0  0  0  0  0
   39.0730   32.5240   39.9090 C   0  0  2  0  0  0  0  0  0  0  0  0
   39.2840   31.8640   41.1370 O   0  0  0  0  0  0  0  0  0  0  0  0
   35.1550   28.6430   40.8540 H   0  0  0  0  0  0  0  0  0  0  0  0
   38.8300   29.5610   42.8700 H   0  0  0  0  0  0  0  0  0  0  0  0
   35.4980   30.5550   39.3860 H   0  0  0  0  0  0  0  0  0  0  0  0
   39.7110   31.9610   39.1680 H   0  0  0  0  0  0  0  0  0  0  0  0
   39.5060   33.9260   39.9080 C   0  0  0  0  0  0  0  0  0  0  0  0
   40.7560   34.4710   39.6530 C   0  0  0  0  0  0  0  0  0  0  0  0
   41.6380   33.8780   39.4030 H   0  0  0  0  0  0  0  0  0  0  0  0
   40.5880   35.8380   39.7900 C   0  0  0  0  0  0  0  0  0  0  0  0
   41.3980   36.5440   39.6510 H   0  0  0  0  0  0  0  0  0  0  0  0
   39.2570   36.0320   40.1170 C   0  0  0  0  0  0  0  0  0  0  0  0
   38.8600   37.0440   40.2820 H   0  0  0  0  0  0  0  0  0  0  0  0
   38.6440   34.8800   40.1780 O   0  0  0  0  0  0  0  0  0  0  0  0
   36.6450   27.5890   43.0010 S   0  0  0  0  0  0  0  0  0  0  0  0
   38.0200   26.3940   42.9230 C   0  0  0  0  0  0  0  0  0  0  0  0
   37.7860   25.2580   42.2360 C   0  0  0  0  0  0  0  0  0  0  0  0
   38.8390   24.3500   42.2070 C   0  0  0  0  0  0  0  0  0  0  0  0
   40.0040   24.6020   42.8250 N   0  0  0  0  0  0  0  0  0  0  0  0
   40.1990   25.7520   43.5010 C   0  0  0  0  0  0  0  0  0  0  0  0
   39.1940   26.6050   43.5240 N   0  0  0  0  0  0  0  0  0  0  0  0
   38.6830   23.0920   41.5180 N   0  0  0  0  0  0  0  0  0  0  0  0
   39.0330   22.9440   40.5520 H   0  0  0  0  0  0  0  0  0  0  0  0
   38.1880   22.3850   42.1090 H   0  0  0  0  0  0  0  0  0  0  0  0
   36.6230   24.7350   41.4450 C   0  0  0  0  0  0  0  0  0  0  0  0
   36.9480   24.2870   40.4940 H   0  0  0  0  0  0  0  0  0  0  0  0
   36.0040   24.1110   42.0890 H   0  0  0  0  0  0  0  0  0  0  0  0
   36.0090   25.6290   41.1470 H   0  0  0  0  0  0  0  0  0  0  0  0
   41.3560   26.0930   44.1600 O   0  0  0  0  0  0  0  0  0  0  0  0
   42.2450   26.9800   43.5110 C   0  0  0  0  0  0  0  0  0  0  0  0
   43.5330   26.8010   43.9250 F   0  0  0  0  0  0  0  0  0  0  0  0
   42.0920   26.7620   42.1280 F   0  0  0  0  0  0  0  0  0  0  0  0
   41.8680   28.2770   43.8360 F   0  0  0  0  0  0  0  0  0  0  0  0
  1  2  1  0  0  0  0
  2  3  2  0  0  0  0
  2 22  1  0  0  0  0
  3 11  1  0  0  0  0
  4  3  1  0  0  0  0
  5  4  2  0  0  0  0
  6  5  1  0  0  0  0
  6  1  2  0  0  0  0
  7  8  1  0  0  0  0
  7  5  1  0  0  0  0
  8 13  1  6  0  0  0
  8  9  1  0  0  0  0
  9  4  1  0  0  0  0
 10  1  1  0  0  0  0
 12  6  1  0  0  0  0
 14  8  1  0  0  0  0
 14 21  1  0  0  0  0
 15 17  1  0  0  0  0
 15 14  2  0  0  0  0
 16 15  1  0  0  0  0
 17 19  2  0  0  0  0
 18 17  1  0  0  0  0
 19 21  1  0  0  0  0
 19 20  1  0  0  0  0
 23 22  1  0  0  0  0
 23 28  1  0  0  0  0
 24 23  2  0  0  0  0
 25 24  1  0  0  0  0
 25 26  2  0  0  0  0
 26 27  1  0  0  0  0
 27 28  2  0  0  0  0
 27 36  1  0  0  0  0
 29 31  1  0  0  0  0
 29 25  1  0  0  0  0
 30 29  1  0  0  0  0
 32 34  1  0  0  0  0
 32 24  1  0  0  0  0
 33 32  1  0  0  0  0
 35 32  1  0  0  0  0
 37 40  1  0  0  0  0
 37 38  1  0  0  0  0
 37 36  1  0  0  0  0
 39 37  1  0  0  0  0
M  END
>  <minimizedAffinity>
-6.68042183

$$$$

 OpenBabel03242515473D

 40 43  0  0  1  0  0  0  0  0999 V2000
   36.5610   31.3730   40.4330 C   0  0  0  0  0  0  0  0  0  0  0  0
   37.8550   31.8400   40.6640 C   0  0  0  0  0  0  0  0  0  0  0  0
   38.7930   31.0630   41.3140 C   0  0  0  0  0  0  0  0  0  0  0  0
   38.4620   29.7990   41.7470 C   0  0  0  0  0  0  0  0  0  0  0  0
   37.1870   29.3300   41.5230 C   0  0  0  0  0  0  0  0  0  0  0  0
   36.2430   30.0790   40.8840 C   0  0  0  0  0  0  0  0  0  0  0  0
   37.1510   28.0260   42.0720 O   0  0  0  0  0  0  0  0  0  0  0  0
   38.2680   27.8580   42.8580 C   0  0  2  0  0  0  0  0  0  0  0  0
   39.1980   28.8200   42.4130 O   0  0  0  0  0  0  0  0  0  0  0  0
   35.7740   31.9240   39.9330 H   0  0  0  0  0  0  0  0  0  0  0  0
   39.7690   31.5130   41.4460 H   0  0  0  0  0  0  0  0  0  0  0  0
   35.2570   29.6810   40.7270 H   0  0  0  0  0  0  0  0  0  0  0  0
   37.9900   28.1880   43.9000 H   0  0  0  0  0  0  0  0  0  0  0  0
   38.8150   26.4990   42.9430 C   0  0  0  0  0  0  0  0  0  0  0  0
   39.9610   26.0400   43.5760 C   0  0  0  0  0  0  0  0  0  0  0  0
   40.6490   26.6820   44.1300 H   0  0  0  0  0  0  0  0  0  0  0  0
   39.9860   24.6780   43.3310 C   0  0  0  0  0  0  0  0  0  0  0  0
   40.7730   24.0300   43.7010 H   0  0  0  0  0  0  0  0  0  0  0  0
   38.8620   24.4010   42.5720 C   0  0  0  0  0  0  0  0  0  0  0  0
   38.6460   23.3750   42.2400 H   0  0  0  0  0  0  0  0  0  0  0  0
   38.1910   25.5010   42.3600 O   0  0  0  0  0  0  0  0  0  0  0  0
   38.1170   33.4890   40.0160 S   0  0  0  0  0  0  0  0  0  0  0  0
   39.9040   33.8050   39.8490 C   0  0  0  0  0  0  0  0  0  0  0  0
   40.5450   33.1140   38.8840 C   0  0  0  0  0  0  0  0  0  0  0  0
   41.9120   33.3520   38.7870 C   0  0  0  0  0  0  0  0  0  0  0  0
   42.5360   34.2160   39.6040 N   0  0  0  0  0  0  0  0  0  0  0  0
   41.8590   34.8890   40.5550 C   0  0  0  0  0  0  0  0  0  0  0  0
   40.5640   34.6550   40.6400 N   0  0  0  0  0  0  0  0  0  0  0  0
   42.6950   32.6450   37.8020 N   0  0  0  0  0  0  0  0  0  0  0  0
   42.9440   33.0680   36.8880 H   0  0  0  0  0  0  0  0  0  0  0  0
   42.9610   31.6890   38.1330 H   0  0  0  0  0  0  0  0  0  0  0  0
   40.1100   32.1310   37.8380 C   0  0  0  0  0  0  0  0  0  0  0  0
   40.5700   32.3470   36.8620 H   0  0  0  0  0  0  0  0  0  0  0  0
   40.2380   31.1200   38.2210 H   0  0  0  0  0  0  0  0  0  0  0  0
   39.0080   32.2970   37.6790 H   0  0  0  0  0  0  0  0  0  0  0  0
   42.4150   35.7910   41.4300 O   0  0  0  0  0  0  0  0  0  0  0  0
   43.3980   35.3150   42.3280 C   0  0  0  0  0  0  0  0  0  0  0  0
   43.3920   36.0100   43.5020 F   0  0  0  0  0  0  0  0  0  0  0  0
   43.1400   33.9430   42.5170 F   0  0  0  0  0  0  0  0  0  0  0  0
   44.6410   35.4910   41.7320 F   0  0  0  0  0  0  0  0  0  0  0  0
  1  2  2  0  0  0  0
  1  6  1  0  0  0  0
  2  3  1  0  0  0  0
  3 11  1  0  0  0  0
  3  4  2  0  0  0  0
  4  9  1  0  0  0  0
  5  4  1  0  0  0  0
  5  7  1  0  0  0  0
  6  5  2  0  0  0  0
  7  8  1  0  0  0  0
  8 14  1  0  0  0  0
  8 13  1  1  0  0  0
  9  8  1  0  0  0  0
 10  1  1  0  0  0  0
 12  6  1  0  0  0  0
 14 15  2  0  0  0  0
 15 16  1  0  0  0  0
 17 15  1  0  0  0  0
 17 18  1  0  0  0  0
 19 17  2  0  0  0  0
 20 19  1  0  0  0  0
 21 19  1  0  0  0  0
 21 14  1  0  0  0  0
 22  2  1  0  0  0  0
 23 22  1  0  0  0  0
 23 28  1  0  0  0  0
 24 23  2  0  0  0  0
 25 24  1  0  0  0  0
 25 26  2  0  0  0  0
 26 27  1  0  0  0  0
 27 28  2  0  0  0  0
 27 36  1  0  0  0  0
 29 31  1  0  0  0  0
 29 25  1  0  0  0  0
 30 29  1  0  0  0  0
 32 34  1  0  0  0  0
 32 24  1  0  0  0  0
 33 32  1  0  0  0  0
 35 32  1  0  0  0  0
 36 37  1  0  0  0  0
 37 39  1  0  0  0  0
 37 38  1  0  0  0  0
 40 37  1  0  0  0  0
M  END
>  <minimizedAffinity>
-6.65495253

$$$$

 OpenBabel03242515473D

 40 43  0  0  1  0  0  0  0  0999 V2000
   36.6330   26.6860   41.4920 C   0  0  0  0  0  0  0  0  0  0  0  0
   36.8650   28.0610   41.5370 C   0  0  0  0  0  0  0  0  0  0  0  0
   37.9860   28.5800   42.1510 C   0  0  0  0  0  0  0  0  0  0  0  0
   38.9070   27.7370   42.7340 C   0  0  0  0  0  0  0  0  0  0  0  0
   38.6860   26.3790   42.6930 C   0  0  0  0  0  0  0  0  0  0  0  0
   37.5840   25.8430   42.0930 C   0  0  0  0  0  0  0  0  0  0  0  0
   39.7840   25.7880   43.3620 O   0  0  0  0  0  0  0  0  0  0  0  0
   40.4630   26.7760   44.0350 C   0  0  2  0  0  0  0  0  0  0  0  0
   40.1030   27.9850   43.4050 O   0  0  0  0  0  0  0  0  0  0  0  0
   35.7770   26.2080   41.0300 H   0  0  0  0  0  0  0  0  0  0  0  0
   38.0770   29.6590   42.1350 H   0  0  0  0  0  0  0  0  0  0  0  0
   37.4440   24.7770   42.0810 H   0  0  0  0  0  0  0  0  0  0  0  0
   40.0110   26.8450   45.0660 H   0  0  0  0  0  0  0  0  0  0  0  0
   41.9110   26.5960   44.1870 C   0  0  0  0  0  0  0  0  0  0  0  0
   42.7980   27.2060   45.0620 C   0  0  0  0  0  0  0  0  0  0  0  0
   42.5040   27.9540   45.8010 H   0  0  0  0  0  0  0  0  0  0  0  0
   44.0330   26.6590   44.7640 C   0  0  0  0  0  0  0  0  0  0  0  0
   44.9400   26.9410   45.2860 H   0  0  0  0  0  0  0  0  0  0  0  0
   43.8180   25.7580   43.7360 C   0  0  0  0  0  0  0  0  0  0  0  0
   44.6510   25.1800   43.3100 H   0  0  0  0  0  0  0  0  0  0  0  0
   42.5520   25.7440   43.4170 O   0  0  0  0  0  0  0  0  0  0  0  0
   35.5820   29.0020   40.7140 S   0  0  0  0  0  0  0  0  0  0  0  0
   36.3410   30.2770   39.6550 C   0  0  0  0  0  0  0  0  0  0  0  0
   36.5950   29.9200   38.3800 C   0  0  0  0  0  0  0  0  0  0  0  0
   37.1950   30.8980   37.5940 C   0  0  0  0  0  0  0  0  0  0  0  0
   37.4920   32.1120   38.0860 N   0  0  0  0  0  0  0  0  0  0  0  0
   37.2200   32.4310   39.3670 C   0  0  0  0  0  0  0  0  0  0  0  0
   36.6530   31.4950   40.1040 N   0  0  0  0  0  0  0  0  0  0  0  0
   37.5300   30.6100   36.2210 N   0  0  0  0  0  0  0  0  0  0  0  0
   36.9190   30.8930   35.4320 H   0  0  0  0  0  0  0  0  0  0  0  0
   38.4390   30.0970   36.1440 H   0  0  0  0  0  0  0  0  0  0  0  0
   36.3520   28.6780   37.5740 C   0  0  0  0  0  0  0  0  0  0  0  0
   35.9530   28.9140   36.5760 H   0  0  0  0  0  0  0  0  0  0  0  0
   37.2430   28.0520   37.6040 H   0  0  0  0  0  0  0  0  0  0  0  0
   35.5250   28.1160   38.0890 H   0  0  0  0  0  0  0  0  0  0  0  0
   37.4870   33.6450   39.9520 O   0  0  0  0  0  0  0  0  0  0  0  0
   38.7790   33.8450   40.4910 C   0  0  0  0  0  0  0  0  0  0  0  0
   39.7480   33.7570   39.5350 F   0  0  0  0  0  0  0  0  0  0  0  0
   38.7610   35.1040   41.1220 F   0  0  0  0  0  0  0  0  0  0  0  0
   39.0100   32.8440   41.4280 F   0  0  0  0  0  0  0  0  0  0  0  0
  1  2  2  0  0  0  0
  1  6  1  0  0  0  0
  2  3  1  0  0  0  0
  3  4  2  0  0  0  0
  4  9  1  0  0  0  0
  5  4  1  0  0  0  0
  5  7  1  0  0  0  0
  6  5  2  0  0  0  0
  7  8  1  0  0  0  0
  8 14  1  0  0  0  0
  8 13  1  1  0  0  0
  9  8  1  0  0  0  0
 10  1  1  0  0  0  0
 11  3  1  0  0  0  0
 12  6  1  0  0  0  0
 14 15  2  0  0  0  0
 15 16  1  0  0  0  0
 17 15  1  0  0  0  0
 17 18  1  0  0  0  0
 19 17  2  0  0  0  0
 20 19  1  0  0  0  0
 21 19  1  0  0  0  0
 21 14  1  0  0  0  0
 22  2  1  0  0  0  0
 23 28  1  0  0  0  0
 23 22  1  0  0  0  0
 24 23  2  0  0  0  0
 25 26  2  0  0  0  0
 25 24  1  0  0  0  0
 26 27  1  0  0  0  0
 27 36  1  0  0  0  0
 27 28  2  0  0  0  0
 29 25  1  0  0  0  0
 30 29  1  0  0  0  0
 31 29  1  0  0  0  0
 32 34  1  0  0  0  0
 32 35  1  0  0  0  0
 32 24  1  0  0  0  0
 33 32  1  0  0  0  0
 36 37  1  0  0  0  0
 37 39  1  0  0  0  0
 37 40  1  0  0  0  0
 38 37  1  0  0  0  0
M  END
>  <minimizedAffinity>
-6.63826132

$$$$

 OpenBabel03242515473D

 40 43  0  0  1  0  0  0  0  0999 V2000
   36.0380   29.1140   41.2600 C   0  0  0  0  0  0  0  0  0  0  0  0
   37.0520   28.9100   42.1970 C   0  0  0  0  0  0  0  0  0  0  0  0
   38.1500   29.7430   42.2610 C   0  0  0  0  0  0  0  0  0  0  0  0
   38.2620   30.8050   41.3910 C   0  0  0  0  0  0  0  0  0  0  0  0
   37.2660   31.0150   40.4630 C   0  0  0  0  0  0  0  0  0  0  0  0
   36.1720   30.2040   40.3810 C   0  0  0  0  0  0  0  0  0  0  0  0
   37.6570   32.1590   39.7270 O   0  0  0  0  0  0  0  0  0  0  0  0
   38.9760   32.4240   40.0100 C   0  0  2  0  0  0  0  0  0  0  0  0
   39.2410   31.7850   41.2390 O   0  0  0  0  0  0  0  0  0  0  0  0
   35.1510   28.5030   41.1500 H   0  0  0  0  0  0  0  0  0  0  0  0
   38.8820   29.5020   43.0200 H   0  0  0  0  0  0  0  0  0  0  0  0
   35.4140   30.3980   39.6440 H   0  0  0  0  0  0  0  0  0  0  0  0
   39.5960   31.8600   39.2540 H   0  0  0  0  0  0  0  0  0  0  0  0
   39.3880   33.8320   39.9730 C   0  0  0  0  0  0  0  0  0  0  0  0
   40.6440   34.3870   39.7710 C   0  0  0  0  0  0  0  0  0  0  0  0
   41.5480   33.7990   39.6030 H   0  0  0  0  0  0  0  0  0  0  0  0
   40.4480   35.7550   39.8380 C   0  0  0  0  0  0  0  0  0  0  0  0
   41.2550   36.4690   39.7170 H   0  0  0  0  0  0  0  0  0  0  0  0
   39.0970   35.9400   40.0730 C   0  0  0  0  0  0  0  0  0  0  0  0
   38.6760   36.9520   40.1680 H   0  0  0  0  0  0  0  0  0  0  0  0
   38.4980   34.7820   40.1470 O   0  0  0  0  0  0  0  0  0  0  0  0
   36.7330   27.5020   43.2570 S   0  0  0  0  0  0  0  0  0  0  0  0
   37.6440   26.0500   42.6380 C   0  0  0  0  0  0  0  0  0  0  0  0
   38.9330   25.9450   43.0200 C   0  0  0  0  0  0  0  0  0  0  0  0
   39.6170   24.8420   42.5200 C   0  0  0  0  0  0  0  0  0  0  0  0
   39.0210   23.9510   41.7130 N   0  0  0  0  0  0  0  0  0  0  0  0
   37.7290   24.0900   41.3550 C   0  0  0  0  0  0  0  0  0  0  0  0
   37.0900   25.1390   41.8330 N   0  0  0  0  0  0  0  0  0  0  0  0
   41.0090   24.6510   42.8500 N   0  0  0  0  0  0  0  0  0  0  0  0
   41.3130   24.0130   43.6110 H   0  0  0  0  0  0  0  0  0  0  0  0
   41.6350   25.2230   42.2380 H   0  0  0  0  0  0  0  0  0  0  0  0
   39.8280   26.7550   43.9120 C   0  0  0  0  0  0  0  0  0  0  0  0
   40.4200   26.1140   44.5830 H   0  0  0  0  0  0  0  0  0  0  0  0
   40.3850   27.4690   43.3070 H   0  0  0  0  0  0  0  0  0  0  0  0
   39.1550   27.3420   44.5960 H   0  0  0  0  0  0  0  0  0  0  0  0
   37.0400   23.2270   40.5370 O   0  0  0  0  0  0  0  0  0  0  0  0
   36.7790   23.6440   39.2110 C   0  0  0  0  0  0  0  0  0  0  0  0
   37.7130   24.5340   38.7660 F   0  0  0  0  0  0  0  0  0  0  0  0
   36.7320   22.4770   38.4240 F   0  0  0  0  0  0  0  0  0  0  0  0
   35.5430   24.2800   39.1990 F   0  0  0  0  0  0  0  0  0  0  0  0
  1  2  1  0  0  0  0
  2  3  2  0  0  0  0
  2 22  1  0  0  0  0
  3 11  1  0  0  0  0
  4  3  1  0  0  0  0
  5  4  2  0  0  0  0
  6  5  1  0  0  0  0
  6  1  2  0  0  0  0
  7  8  1  0  0  0  0
  7  5  1  0  0  0  0
  8 13  1  6  0  0  0
  8  9  1  0  0  0  0
  9  4  1  0  0  0  0
 10  1  1  0  0  0  0
 12  6  1  0  0  0  0
 14  8  1  0  0  0  0
 14 21  1  0  0  0  0
 15 17  1  0  0  0  0
 15 14  2  0  0  0  0
 16 15  1  0  0  0  0
 17 19  2  0  0  0  0
 18 17  1  0  0  0  0
 19 21  1  0  0  0  0
 19 20  1  0  0  0  0
 23 24  1  0  0  0  0
 23 22  1  0  0  0  0
 24 32  1  0  0  0  0
 25 29  1  0  0  0  0
 25 24  2  0  0  0  0
 26 25  1  0  0  0  0
 27 26  2  0  0  0  0
 27 28  1  0  0  0  0
 28 23  2  0  0  0  0
 29 30  1  0  0  0  0
 31 29  1  0  0  0  0
 32 33  1  0  0  0  0
 32 35  1  0  0  0  0
 34 32  1  0  0  0  0
 36 27  1  0  0  0  0
 37 36  1  0  0  0  0
 38 37  1  0  0  0  0
 39 37  1  0  0  0  0
 40 37  1  0  0  0  0
M  END
>  <minimizedAffinity>
-6.62724781

$$$$

 OpenBabel03242515473D

 40 43  0  0  1  0  0  0  0  0999 V2000
   37.9230   33.5020   39.6470 C   0  0  0  0  0  0  0  0  0  0  0  0
   39.1580   33.4160   40.2900 C   0  0  0  0  0  0  0  0  0  0  0  0
   39.4820   32.3350   41.0840 C   0  0  0  0  0  0  0  0  0  0  0  0
   38.5790   31.3080   41.2540 C   0  0  0  0  0  0  0  0  0  0  0  0
   37.3570   31.3840   40.6230 C   0  0  0  0  0  0  0  0  0  0  0  0
   37.0150   32.4440   39.8350 C   0  0  0  0  0  0  0  0  0  0  0  0
   36.6620   30.2060   40.9820 O   0  0  0  0  0  0  0  0  0  0  0  0
   37.3300   29.6120   42.0270 C   0  0  2  0  0  0  0  0  0  0  0  0
   38.6430   30.1220   41.9820 O   0  0  0  0  0  0  0  0  0  0  0  0
   37.6000   34.3170   39.0130 H   0  0  0  0  0  0  0  0  0  0  0  0
   40.4630   32.3600   41.5400 H   0  0  0  0  0  0  0  0  0  0  0  0
   36.0520   32.4700   39.3580 H   0  0  0  0  0  0  0  0  0  0  0  0
   36.8920   30.0310   42.9790 H   0  0  0  0  0  0  0  0  0  0  0  0
   37.2650   28.1480   42.1050 C   0  0  0  0  0  0  0  0  0  0  0  0
   36.7200   27.3320   43.0850 C   0  0  0  0  0  0  0  0  0  0  0  0
   36.2370   27.7070   43.9890 H   0  0  0  0  0  0  0  0  0  0  0  0
   36.9410   26.0390   42.6420 C   0  0  0  0  0  0  0  0  0  0  0  0
   36.6240   25.1660   43.2010 H   0  0  0  0  0  0  0  0  0  0  0  0
   37.5990   26.1540   41.4300 C   0  0  0  0  0  0  0  0  0  0  0  0
   37.8920   25.2600   40.8620 H   0  0  0  0  0  0  0  0  0  0  0  0
   37.7750   27.4150   41.1410 O   0  0  0  0  0  0  0  0  0  0  0  0
   40.2130   34.8220   39.9420 S   0  0  0  0  0  0  0  0  0  0  0  0
   41.9610   34.3250   40.0780 C   0  0  0  0  0  0  0  0  0  0  0  0
   42.5630   33.9350   38.9360 C   0  0  0  0  0  0  0  0  0  0  0  0
   43.8890   33.5380   39.0640 C   0  0  0  0  0  0  0  0  0  0  0  0
   44.5160   33.5500   40.2520 N   0  0  0  0  0  0  0  0  0  0  0  0
   43.8800   33.9490   41.3710 C   0  0  0  0  0  0  0  0  0  0  0  0
   42.6220   34.3210   41.2390 N   0  0  0  0  0  0  0  0  0  0  0  0
   44.6170   33.0810   37.9050 N   0  0  0  0  0  0  0  0  0  0  0  0
   45.2540   33.7020   37.3720 H   0  0  0  0  0  0  0  0  0  0  0  0
   44.4150   32.0770   37.6930 H   0  0  0  0  0  0  0  0  0  0  0  0
   42.1270   33.8490   37.5030 C   0  0  0  0  0  0  0  0  0  0  0  0
   42.8960   34.2440   36.8210 H   0  0  0  0  0  0  0  0  0  0  0  0
   41.7680   32.8410   37.2970 H   0  0  0  0  0  0  0  0  0  0  0  0
   41.2550   34.5500   37.3880 H   0  0  0  0  0  0  0  0  0  0  0  0
   44.4420   33.9940   42.6240 O   0  0  0  0  0  0  0  0  0  0  0  0
   44.8400   35.2570   43.1210 C   0  0  0  0  0  0  0  0  0  0  0  0
   45.8400   35.1470   44.0430 F   0  0  0  0  0  0  0  0  0  0  0  0
   45.2230   36.0260   42.0050 F   0  0  0  0  0  0  0  0  0  0  0  0
   43.7420   35.8350   43.7470 F   0  0  0  0  0  0  0  0  0  0  0  0
  1  6  2  0  0  0  0
  1  2  1  0  0  0  0
  2  3  2  0  0  0  0
  3  4  1  0  0  0  0
  3 11  1  0  0  0  0
  4  9  1  0  0  0  0
  5  7  1  0  0  0  0
  5  4  2  0  0  0  0
  6  5  1  0  0  0  0
  7  8  1  0  0  0  0
  8 14  1  0  0  0  0
  8 13  1  1  0  0  0
  9  8  1  0  0  0  0
 10  1  1  0  0  0  0
 12  6  1  0  0  0  0
 14 15  2  0  0  0  0
 15 16  1  0  0  0  0
 17 15  1  0  0  0  0
 17 18  1  0  0  0  0
 19 17  2  0  0  0  0
 20 19  1  0  0  0  0
 21 19  1  0  0  0  0
 21 14  1  0  0  0  0
 22 23  1  0  0  0  0
 22  2  1  0  0  0  0
 23 28  1  0  0  0  0
 24 25  1  0  0  0  0
 24 23  2  0  0  0  0
 25 26  2  0  0  0  0
 26 27  1  0  0  0  0
 27 36  1  0  0  0  0
 28 27  2  0  0  0  0
 29 25  1  0  0  0  0
 30 29  1  0  0  0  0
 31 29  1  0  0  0  0
 32 24  1  0  0  0  0
 33 32  1  0  0  0  0
 34 32  1  0  0  0  0
 35 32  1  0  0  0  0
 36 37  1  0  0  0  0
 37 40  1  0  0  0  0
 37 38  1  0  0  0  0
 39 37  1  0  0  0  0
M  END
>  <minimizedAffinity>
-6.58876848

$$$$
