
 OpenBabel03242522283D

 37 40  0  0  0  0  0  0  0  0999 V2000
   38.0940   27.6920   39.6940 F   0  0  0  0  0  0  0  0  0  0  0  0
   37.7450   27.7170   41.0160 C   0  0  0  0  0  0  0  0  0  0  0  0
   37.6630   26.5480   41.7010 C   0  0  0  0  0  0  0  0  0  0  0  0
   37.4010   26.6630   43.0510 C   0  0  0  0  0  0  0  0  0  0  0  0
   37.2300   27.8770   43.6790 C   0  0  0  0  0  0  0  0  0  0  0  0
   37.3280   28.9870   42.9160 C   0  0  0  0  0  0  0  0  0  0  0  0
   37.5840   28.9410   41.5800 C   0  0  0  0  0  0  0  0  0  0  0  0
   37.3560   25.6500   43.5160 H   0  0  0  0  0  0  0  0  0  0  0  0
   37.0410   27.6810   44.7220 H   0  0  0  0  0  0  0  0  0  0  0  0
   37.2010   29.7180   43.6600 H   0  0  0  0  0  0  0  0  0  0  0  0
   37.7720   30.2070   40.8910 C   0  0  0  0  0  0  0  0  0  0  0  0
   38.7820   31.0720   41.3290 C   0  0  0  0  0  0  0  0  0  0  0  0
   38.8550   32.3300   40.7900 C   0  0  0  0  0  0  0  0  0  0  0  0
   37.9460   32.7320   39.8330 C   0  0  0  0  0  0  0  0  0  0  0  0
   36.9560   31.8220   39.4270 C   0  0  0  0  0  0  0  0  0  0  0  0
   36.8700   30.5630   39.9490 C   0  0  0  0  0  0  0  0  0  0  0  0
   39.5450   30.9420   42.0480 H   0  0  0  0  0  0  0  0  0  0  0  0
   39.6090   33.0780   41.0690 H   0  0  0  0  0  0  0  0  0  0  0  0
   38.0320   33.7600   39.4220 H   0  0  0  0  0  0  0  0  0  0  0  0
   36.3180   32.2870   38.6720 H   0  0  0  0  0  0  0  0  0  0  0  0
   35.8310   29.8870   39.2380 C   0  0  0  0  0  0  0  0  0  0  0  0
   34.6280   29.2660   39.6600 C   0  0  0  0  0  0  0  0  0  0  0  0
   34.3470   29.2370   40.7030 H   0  0  0  0  0  0  0  0  0  0  0  0
   34.0690   28.8070   38.4580 C   0  0  0  0  0  0  0  0  0  0  0  0
   33.1300   28.2830   38.4760 H   0  0  0  0  0  0  0  0  0  0  0  0
   34.9300   29.1610   37.4130 C   0  0  0  0  0  0  0  0  0  0  0  0
   34.7050   28.9090   36.3820 H   0  0  0  0  0  0  0  0  0  0  0  0
   35.9610   29.7970   37.9040 O   0  0  0  0  0  0  0  0  0  0  0  0
   36.9060   23.2470   40.0340 C   0  0  0  0  0  0  0  0  0  0  0  0
   36.7390   24.4530   40.7050 C   0  0  0  0  0  0  0  0  0  0  0  0
   37.8250   25.2970   41.0020 C   0  0  0  0  0  0  0  0  0  0  0  0
   39.0210   24.8600   40.5950 N   0  0  0  0  0  0  0  0  0  0  0  0
   39.1650   23.6900   39.9460 C   0  0  0  0  0  0  0  0  0  0  0  0
   38.1290   22.8960   39.6690 N   0  0  0  0  0  0  0  0  0  0  0  0
   35.9390   22.7560   39.9080 H   0  0  0  0  0  0  0  0  0  0  0  0
   35.7770   24.8560   41.0600 H   0  0  0  0  0  0  0  0  0  0  0  0
   40.1600   23.3900   39.6420 H   0  0  0  0  0  0  0  0  0  0  0  0
  1  2  1  0  0  0  0
  2  7  2  0  0  0  0
  2  3  1  0  0  0  0
  3  4  2  0  0  0  0
  4  8  1  0  0  0  0
  4  5  1  0  0  0  0
  5  9  1  0  0  0  0
  6 10  1  0  0  0  0
  6  5  2  0  0  0  0
  7  6  1  0  0  0  0
 11 12  1  0  0  0  0
 11  7  1  0  0  0  0
 12 17  1  0  0  0  0
 13 18  1  0  0  0  0
 13 12  2  0  0  0  0
 14 13  1  0  0  0  0
 15 14  2  0  0  0  0
 15 16  1  0  0  0  0
 16 11  2  0  0  0  0
 19 14  1  0  0  0  0
 20 15  1  0  0  0  0
 21 22  2  0  0  0  0
 21 16  1  0  0  0  0
 22 23  1  0  0  0  0
 24 25  1  0  0  0  0
 24 22  1  0  0  0  0
 26 28  1  0  0  0  0
 26 24  2  0  0  0  0
 27 26  1  0  0  0  0
 28 21  1  0  0  0  0
 29 30  1  0  0  0  0
 30 31  2  0  0  0  0
 30 36  1  0  0  0  0
 31  3  1  0  0  0  0
 32 31  1  0  0  0  0
 33 32  2  0  0  0  0
 34 33  1  0  0  0  0
 34 29  2  0  0  0  0
 35 29  1  0  0  0  0
 37 33  1  0  0  0  0
M  END
>  <minimizedAffinity>
-6.02572918

$$$$

 OpenBabel03242522283D

 37 40  0  0  0  0  0  0  0  0999 V2000
   40.0470   29.7120   40.3080 F   0  0  0  0  0  0  0  0  0  0  0  0
   39.2020   30.7800   40.1860 C   0  0  0  0  0  0  0  0  0  0  0  0
   39.5250   31.7860   39.3350 C   0  0  0  0  0  0  0  0  0  0  0  0
   38.5770   32.7800   39.1940 C   0  0  0  0  0  0  0  0  0  0  0  0
   37.3750   32.7660   39.8680 C   0  0  0  0  0  0  0  0  0  0  0  0
   37.1410   31.7250   40.6950 C   0  0  0  0  0  0  0  0  0  0  0  0
   38.0350   30.7140   40.8770 C   0  0  0  0  0  0  0  0  0  0  0  0
   38.9400   33.5510   38.4760 H   0  0  0  0  0  0  0  0  0  0  0  0
   36.8290   33.6490   39.5780 H   0  0  0  0  0  0  0  0  0  0  0  0
   36.1690   31.9710   41.0090 H   0  0  0  0  0  0  0  0  0  0  0  0
   37.6220   29.5980   41.7100 C   0  0  0  0  0  0  0  0  0  0  0  0
   38.2290   29.4260   42.9600 C   0  0  0  0  0  0  0  0  0  0  0  0
   37.9620   28.2880   43.6750 C   0  0  0  0  0  0  0  0  0  0  0  0
   37.1090   27.3290   43.1660 C   0  0  0  0  0  0  0  0  0  0  0  0
   36.5250   27.5540   41.9080 C   0  0  0  0  0  0  0  0  0  0  0  0
   36.7750   28.6840   41.1840 C   0  0  0  0  0  0  0  0  0  0  0  0
   38.9050   30.0380   43.4950 H   0  0  0  0  0  0  0  0  0  0  0  0
   38.3890   28.0640   44.6610 H   0  0  0  0  0  0  0  0  0  0  0  0
   36.9200   26.4170   43.7700 H   0  0  0  0  0  0  0  0  0  0  0  0
   35.8830   26.7110   41.6460 H   0  0  0  0  0  0  0  0  0  0  0  0
   35.9410   28.6300   40.0250 C   0  0  0  0  0  0  0  0  0  0  0  0
   34.6530   29.1540   39.7470 C   0  0  0  0  0  0  0  0  0  0  0  0
   34.1030   29.7170   40.4870 H   0  0  0  0  0  0  0  0  0  0  0  0
   34.4230   28.7470   38.4240 C   0  0  0  0  0  0  0  0  0  0  0  0
   33.4990   29.0100   37.9410 H   0  0  0  0  0  0  0  0  0  0  0  0
   35.5420   28.0260   37.9900 C   0  0  0  0  0  0  0  0  0  0  0  0
   35.5930   27.6080   36.9900 H   0  0  0  0  0  0  0  0  0  0  0  0
   36.4200   27.9750   38.9550 O   0  0  0  0  0  0  0  0  0  0  0  0
   43.1450   32.4640   38.5060 C   0  0  0  0  0  0  0  0  0  0  0  0
   41.9180   32.4790   39.1600 C   0  0  0  0  0  0  0  0  0  0  0  0
   40.8040   31.7750   38.6670 C   0  0  0  0  0  0  0  0  0  0  0  0
   41.0070   31.0960   37.5340 N   0  0  0  0  0  0  0  0  0  0  0  0
   42.2020   31.0920   36.9140 C   0  0  0  0  0  0  0  0  0  0  0  0
   43.2530   31.7620   37.3890 N   0  0  0  0  0  0  0  0  0  0  0  0
   43.8660   33.0720   39.0570 H   0  0  0  0  0  0  0  0  0  0  0  0
   41.7000   33.0220   40.0930 H   0  0  0  0  0  0  0  0  0  0  0  0
   42.3040   30.5220   36.0000 H   0  0  0  0  0  0  0  0  0  0  0  0
  2  1  1  0  0  0  0
  2  7  1  0  0  0  0
  3  2  2  0  0  0  0
  4  3  1  0  0  0  0
  4  5  2  0  0  0  0
  5  6  1  0  0  0  0
  6  7  2  0  0  0  0
  6 10  1  0  0  0  0
  7 11  1  0  0  0  0
  8  4  1  0  0  0  0
  9  5  1  0  0  0  0
 11 12  1  0  0  0  0
 12 17  1  0  0  0  0
 12 13  2  0  0  0  0
 13 18  1  0  0  0  0
 14 13  1  0  0  0  0
 14 19  1  0  0  0  0
 15 14  2  0  0  0  0
 16 11  2  0  0  0  0
 16 15  1  0  0  0  0
 20 15  1  0  0  0  0
 21 16  1  0  0  0  0
 22 21  2  0  0  0  0
 22 23  1  0  0  0  0
 24 22  1  0  0  0  0
 25 24  1  0  0  0  0
 26 24  2  0  0  0  0
 26 28  1  0  0  0  0
 27 26  1  0  0  0  0
 28 21  1  0  0  0  0
 29 35  1  0  0  0  0
 29 30  1  0  0  0  0
 30 36  1  0  0  0  0
 31 30  2  0  0  0  0
 31  3  1  0  0  0  0
 32 31  1  0  0  0  0
 33 34  1  0  0  0  0
 33 32  2  0  0  0  0
 34 29  2  0  0  0  0
 37 33  1  0  0  0  0
M  END
>  <minimizedAffinity>
-5.99808121

$$$$

 OpenBabel03242522283D

 37 40  0  0  0  0  0  0  0  0999 V2000
   39.4930   27.0750   40.7320 F   0  0  0  0  0  0  0  0  0  0  0  0
   38.5430   27.3700   41.6700 C   0  0  0  0  0  0  0  0  0  0  0  0
   37.5400   26.4850   41.8970 C   0  0  0  0  0  0  0  0  0  0  0  0
   36.6770   26.8080   42.9240 C   0  0  0  0  0  0  0  0  0  0  0  0
   36.8100   27.9530   43.6800 C   0  0  0  0  0  0  0  0  0  0  0  0
   37.8370   28.7760   43.3800 C   0  0  0  0  0  0  0  0  0  0  0  0
   38.7230   28.5130   42.3790 C   0  0  0  0  0  0  0  0  0  0  0  0
   35.8960   26.0190   43.0260 H   0  0  0  0  0  0  0  0  0  0  0  0
   36.0130   27.9590   44.4060 H   0  0  0  0  0  0  0  0  0  0  0  0
   37.7000   29.5010   44.1280 H   0  0  0  0  0  0  0  0  0  0  0  0
   39.8470   29.4210   42.2250 C   0  0  0  0  0  0  0  0  0  0  0  0
   41.0370   29.1460   42.9100 C   0  0  0  0  0  0  0  0  0  0  0  0
   42.0390   30.0810   42.8990 C   0  0  0  0  0  0  0  0  0  0  0  0
   41.8720   31.2720   42.2210 C   0  0  0  0  0  0  0  0  0  0  0  0
   40.6600   31.4940   41.5470 C   0  0  0  0  0  0  0  0  0  0  0  0
   39.6520   30.5720   41.5440 C   0  0  0  0  0  0  0  0  0  0  0  0
   41.3320   28.3070   43.4820 H   0  0  0  0  0  0  0  0  0  0  0  0
   43.0050   29.9570   43.4050 H   0  0  0  0  0  0  0  0  0  0  0  0
   42.7040   32.0080   42.2360 H   0  0  0  0  0  0  0  0  0  0  0  0
   40.6830   32.4740   41.0650 H   0  0  0  0  0  0  0  0  0  0  0  0
   38.6300   31.0760   40.6830 C   0  0  0  0  0  0  0  0  0  0  0  0
   37.8710   30.4780   39.6450 C   0  0  0  0  0  0  0  0  0  0  0  0
   38.0170   29.4440   39.3660 H   0  0  0  0  0  0  0  0  0  0  0  0
   37.0380   31.5220   39.2170 C   0  0  0  0  0  0  0  0  0  0  0  0
   36.3390   31.3500   38.4190 H   0  0  0  0  0  0  0  0  0  0  0  0
   37.3260   32.6530   39.9900 C   0  0  0  0  0  0  0  0  0  0  0  0
   36.8030   33.5920   39.8390 H   0  0  0  0  0  0  0  0  0  0  0  0
   38.2690   32.3590   40.8450 O   0  0  0  0  0  0  0  0  0  0  0  0
   37.8040   22.9300   40.6550 C   0  0  0  0  0  0  0  0  0  0  0  0
   37.9200   24.0550   41.4630 C   0  0  0  0  0  0  0  0  0  0  0  0
   37.4220   25.3100   41.0680 C   0  0  0  0  0  0  0  0  0  0  0  0
   36.8320   25.3440   39.8690 N   0  0  0  0  0  0  0  0  0  0  0  0
   36.7280   24.2450   39.0990 C   0  0  0  0  0  0  0  0  0  0  0  0
   37.2040   23.0580   39.4820 N   0  0  0  0  0  0  0  0  0  0  0  0
   38.2550   22.0680   41.1520 H   0  0  0  0  0  0  0  0  0  0  0  0
   38.3960   24.0790   42.4560 H   0  0  0  0  0  0  0  0  0  0  0  0
   36.2390   24.3360   38.1380 H   0  0  0  0  0  0  0  0  0  0  0  0
  1  2  1  0  0  0  0
  2  3  2  0  0  0  0
  2  7  1  0  0  0  0
  3  4  1  0  0  0  0
  4  8  1  0  0  0  0
  4  5  2  0  0  0  0
  5  9  1  0  0  0  0
  6  5  1  0  0  0  0
  6 10  1  0  0  0  0
  7  6  2  0  0  0  0
 11  7  1  0  0  0  0
 11 12  1  0  0  0  0
 12 17  1  0  0  0  0
 13 12  2  0  0  0  0
 13 18  1  0  0  0  0
 14 19  1  0  0  0  0
 14 13  1  0  0  0  0
 15 14  2  0  0  0  0
 16 15  1  0  0  0  0
 16 11  2  0  0  0  0
 20 15  1  0  0  0  0
 21 28  1  0  0  0  0
 21 16  1  0  0  0  0
 22 21  2  0  0  0  0
 23 22  1  0  0  0  0
 24 22  1  0  0  0  0
 24 26  2  0  0  0  0
 25 24  1  0  0  0  0
 26 28  1  0  0  0  0
 27 26  1  0  0  0  0
 29 35  1  0  0  0  0
 29 30  1  0  0  0  0
 30 36  1  0  0  0  0
 31 30  2  0  0  0  0
 31  3  1  0  0  0  0
 32 31  1  0  0  0  0
 33 34  1  0  0  0  0
 33 32  2  0  0  0  0
 34 29  2  0  0  0  0
 37 33  1  0  0  0  0
M  END
>  <minimizedAffinity>
-5.91197205

$$$$

 OpenBabel03242522283D

 37 40  0  0  0  0  0  0  0  0999 V2000
   38.8060   28.1750   39.5250 F   0  0  0  0  0  0  0  0  0  0  0  0
   37.5750   28.5470   39.0610 C   0  0  0  0  0  0  0  0  0  0  0  0
   37.4100   29.7910   38.5460 C   0  0  0  0  0  0  0  0  0  0  0  0
   36.1660   30.0570   38.0110 C   0  0  0  0  0  0  0  0  0  0  0  0
   35.1460   29.1310   37.9940 C   0  0  0  0  0  0  0  0  0  0  0  0
   35.4010   27.9190   38.5310 C   0  0  0  0  0  0  0  0  0  0  0  0
   36.6080   27.5940   39.0740 C   0  0  0  0  0  0  0  0  0  0  0  0
   36.1370   31.0990   37.6170 H   0  0  0  0  0  0  0  0  0  0  0  0
   34.2930   29.5930   37.5230 H   0  0  0  0  0  0  0  0  0  0  0  0
   34.4850   27.4460   38.3320 H   0  0  0  0  0  0  0  0  0  0  0  0
   36.7930   26.2250   39.5220 C   0  0  0  0  0  0  0  0  0  0  0  0
   36.6220   25.1830   38.6020 C   0  0  0  0  0  0  0  0  0  0  0  0
   36.6340   23.8900   39.0560 C   0  0  0  0  0  0  0  0  0  0  0  0
   36.8120   23.6250   40.3990 C   0  0  0  0  0  0  0  0  0  0  0  0
   36.9830   24.7080   41.2780 C   0  0  0  0  0  0  0  0  0  0  0  0
   36.9790   26.0020   40.8430 C   0  0  0  0  0  0  0  0  0  0  0  0
   36.4650   25.1970   37.5570 H   0  0  0  0  0  0  0  0  0  0  0  0
   36.5080   23.0090   38.4140 H   0  0  0  0  0  0  0  0  0  0  0  0
   36.8120   22.5660   40.7320 H   0  0  0  0  0  0  0  0  0  0  0  0
   37.1100   24.3370   42.2970 H   0  0  0  0  0  0  0  0  0  0  0  0
   37.2860   26.8220   41.9720 C   0  0  0  0  0  0  0  0  0  0  0  0
   36.5450   27.8100   42.6680 C   0  0  0  0  0  0  0  0  0  0  0  0
   35.5420   28.0780   42.3670 H   0  0  0  0  0  0  0  0  0  0  0  0
   37.4280   28.2160   43.6790 C   0  0  0  0  0  0  0  0  0  0  0  0
   37.1230   28.9770   44.3760 H   0  0  0  0  0  0  0  0  0  0  0  0
   38.6110   27.4800   43.5460 C   0  0  0  0  0  0  0  0  0  0  0  0
   39.4470   27.6220   44.2230 H   0  0  0  0  0  0  0  0  0  0  0  0
   38.4970   26.6660   42.5310 O   0  0  0  0  0  0  0  0  0  0  0  0
   39.7440   32.5000   39.7550 C   0  0  0  0  0  0  0  0  0  0  0  0
   38.6970   31.5860   39.7100 C   0  0  0  0  0  0  0  0  0  0  0  0
   38.4950   30.7390   38.6050 C   0  0  0  0  0  0  0  0  0  0  0  0
   39.3750   30.8730   37.6090 N   0  0  0  0  0  0  0  0  0  0  0  0
   40.3840   31.7630   37.6690 C   0  0  0  0  0  0  0  0  0  0  0  0
   40.5680   32.5620   38.7210 N   0  0  0  0  0  0  0  0  0  0  0  0
   39.7150   33.0510   40.6980 H   0  0  0  0  0  0  0  0  0  0  0  0
   37.9460   31.4390   40.5030 H   0  0  0  0  0  0  0  0  0  0  0  0
   41.0650   31.8240   36.8300 H   0  0  0  0  0  0  0  0  0  0  0  0
  2  7  1  0  0  0  0
  2  1  1  0  0  0  0
  3 31  1  0  0  0  0
  3  2  2  0  0  0  0
  4  3  1  0  0  0  0
  5  4  2  0  0  0  0
  5  6  1  0  0  0  0
  6  7  2  0  0  0  0
  7 11  1  0  0  0  0
  8  4  1  0  0  0  0
  9  5  1  0  0  0  0
 10  6  1  0  0  0  0
 11 16  1  0  0  0  0
 12 13  1  0  0  0  0
 12 11  2  0  0  0  0
 13 14  2  0  0  0  0
 14 19  1  0  0  0  0
 14 15  1  0  0  0  0
 15 20  1  0  0  0  0
 16 15  2  0  0  0  0
 16 21  1  0  0  0  0
 17 12  1  0  0  0  0
 18 13  1  0  0  0  0
 21 28  1  0  0  0  0
 21 22  2  0  0  0  0
 22 24  1  0  0  0  0
 23 22  1  0  0  0  0
 24 25  1  0  0  0  0
 26 24  2  0  0  0  0
 26 27  1  0  0  0  0
 28 26  1  0  0  0  0
 29 35  1  0  0  0  0
 30 29  1  0  0  0  0
 30 36  1  0  0  0  0
 31 30  2  0  0  0  0
 32 33  2  0  0  0  0
 32 31  1  0  0  0  0
 33 34  1  0  0  0  0
 34 29  2  0  0  0  0
 37 33  1  0  0  0  0
M  END
>  <minimizedAffinity>
-5.85684156

$$$$

 OpenBabel03242522283D

 37 40  0  0  0  0  0  0  0  0999 V2000
   38.1930   27.8910   39.6990 F   0  0  0  0  0  0  0  0  0  0  0  0
   37.9640   28.0080   41.0420 C   0  0  0  0  0  0  0  0  0  0  0  0
   37.8630   29.2440   41.5920 C   0  0  0  0  0  0  0  0  0  0  0  0
   37.5360   29.2790   42.9320 C   0  0  0  0  0  0  0  0  0  0  0  0
   37.3250   28.1400   43.6790 C   0  0  0  0  0  0  0  0  0  0  0  0
   37.4500   26.9540   43.0480 C   0  0  0  0  0  0  0  0  0  0  0  0
   37.7690   26.8530   41.7280 C   0  0  0  0  0  0  0  0  0  0  0  0
   37.4770   30.3360   43.2810 H   0  0  0  0  0  0  0  0  0  0  0  0
   37.0860   28.4490   44.6840 H   0  0  0  0  0  0  0  0  0  0  0  0
   37.1940   26.3110   43.8380 H   0  0  0  0  0  0  0  0  0  0  0  0
   37.7690   25.5240   41.1390 C   0  0  0  0  0  0  0  0  0  0  0  0
   36.5630   24.9990   40.6580 C   0  0  0  0  0  0  0  0  0  0  0  0
   36.5260   23.6900   40.2540 C   0  0  0  0  0  0  0  0  0  0  0  0
   37.6610   22.9070   40.3220 C   0  0  0  0  0  0  0  0  0  0  0  0
   38.8450   23.4870   40.8090 C   0  0  0  0  0  0  0  0  0  0  0  0
   38.9020   24.7900   41.2120 C   0  0  0  0  0  0  0  0  0  0  0  0
   35.6090   25.4380   40.5460 H   0  0  0  0  0  0  0  0  0  0  0  0
   35.6310   23.1890   39.8640 H   0  0  0  0  0  0  0  0  0  0  0  0
   37.5940   21.8500   39.9910 H   0  0  0  0  0  0  0  0  0  0  0  0
   39.6460   22.7450   40.8030 H   0  0  0  0  0  0  0  0  0  0  0  0
   40.2650   25.0670   41.5370 C   0  0  0  0  0  0  0  0  0  0  0  0
   41.3480   25.5750   40.7760 C   0  0  0  0  0  0  0  0  0  0  0  0
   41.2300   25.8320   39.7330 H   0  0  0  0  0  0  0  0  0  0  0  0
   42.4000   25.6080   41.7020 C   0  0  0  0  0  0  0  0  0  0  0  0
   43.3690   25.9590   41.3930 H   0  0  0  0  0  0  0  0  0  0  0  0
   41.9170   25.1360   42.9280 C   0  0  0  0  0  0  0  0  0  0  0  0
   42.5560   25.0690   43.8020 H   0  0  0  0  0  0  0  0  0  0  0  0
   40.6550   24.8250   42.8000 O   0  0  0  0  0  0  0  0  0  0  0  0
   37.3330   32.3430   39.5010 C   0  0  0  0  0  0  0  0  0  0  0  0
   37.0790   31.2230   40.2850 C   0  0  0  0  0  0  0  0  0  0  0  0
   38.1150   30.4100   40.7810 C   0  0  0  0  0  0  0  0  0  0  0  0
   39.3530   30.7880   40.4470 N   0  0  0  0  0  0  0  0  0  0  0  0
   39.5810   31.8760   39.6870 C   0  0  0  0  0  0  0  0  0  0  0  0
   38.5920   32.6410   39.2220 N   0  0  0  0  0  0  0  0  0  0  0  0
   36.3920   32.8250   39.2280 H   0  0  0  0  0  0  0  0  0  0  0  0
   36.0790   30.8700   40.5860 H   0  0  0  0  0  0  0  0  0  0  0  0
   40.6060   32.1310   39.4510 H   0  0  0  0  0  0  0  0  0  0  0  0
  1  2  1  0  0  0  0
  2  3  2  0  0  0  0
  2  7  1  0  0  0  0
  3  4  1  0  0  0  0
  4  8  1  0  0  0  0
  4  5  2  0  0  0  0
  5  9  1  0  0  0  0
  6  5  1  0  0  0  0
  6 10  1  0  0  0  0
  7  6  2  0  0  0  0
 11 16  1  0  0  0  0
 11  7  1  0  0  0  0
 12 11  2  0  0  0  0
 13 14  2  0  0  0  0
 13 12  1  0  0  0  0
 14 15  1  0  0  0  0
 15 16  2  0  0  0  0
 16 21  1  0  0  0  0
 17 12  1  0  0  0  0
 18 13  1  0  0  0  0
 19 14  1  0  0  0  0
 20 15  1  0  0  0  0
 21 28  1  0  0  0  0
 22 21  2  0  0  0  0
 22 24  1  0  0  0  0
 23 22  1  0  0  0  0
 24 26  2  0  0  0  0
 25 24  1  0  0  0  0
 26 27  1  0  0  0  0
 28 26  1  0  0  0  0
 29 30  1  0  0  0  0
 30 36  1  0  0  0  0
 30 31  2  0  0  0  0
 31  3  1  0  0  0  0
 32 31  1  0  0  0  0
 33 32  2  0  0  0  0
 34 29  2  0  0  0  0
 34 33  1  0  0  0  0
 35 29  1  0  0  0  0
 37 33  1  0  0  0  0
M  END
>  <minimizedAffinity>
-5.84182501

$$$$

 OpenBabel03242522283D

 37 40  0  0  0  0  0  0  0  0999 V2000
   39.9830   30.7680   38.4740 F   0  0  0  0  0  0  0  0  0  0  0  0
   39.3110   31.7890   39.0870 C   0  0  0  0  0  0  0  0  0  0  0  0
   39.9490   32.9660   39.3040 C   0  0  0  0  0  0  0  0  0  0  0  0
   39.1770   33.9770   39.8390 C   0  0  0  0  0  0  0  0  0  0  0  0
   37.8410   33.8170   40.1400 C   0  0  0  0  0  0  0  0  0  0  0  0
   37.2910   32.6100   39.8910 C   0  0  0  0  0  0  0  0  0  0  0  0
   38.0000   31.5730   39.3650 C   0  0  0  0  0  0  0  0  0  0  0  0
   39.7940   34.8950   39.9750 H   0  0  0  0  0  0  0  0  0  0  0  0
   37.4830   34.7530   40.5390 H   0  0  0  0  0  0  0  0  0  0  0  0
   36.3000   32.8130   40.1710 H   0  0  0  0  0  0  0  0  0  0  0  0
   37.2690   30.3580   39.0440 C   0  0  0  0  0  0  0  0  0  0  0  0
   36.5540   30.2970   37.8420 C   0  0  0  0  0  0  0  0  0  0  0  0
   35.7350   29.2220   37.6130 C   0  0  0  0  0  0  0  0  0  0  0  0
   35.6210   28.2200   38.5550 C   0  0  0  0  0  0  0  0  0  0  0  0
   36.3650   28.3300   39.7420 C   0  0  0  0  0  0  0  0  0  0  0  0
   37.1890   29.3910   39.9850 C   0  0  0  0  0  0  0  0  0  0  0  0
   36.5090   30.9650   37.0250 H   0  0  0  0  0  0  0  0  0  0  0  0
   35.1350   29.0860   36.7040 H   0  0  0  0  0  0  0  0  0  0  0  0
   34.9450   27.3670   38.3380 H   0  0  0  0  0  0  0  0  0  0  0  0
   36.1670   27.4670   40.3800 H   0  0  0  0  0  0  0  0  0  0  0  0
   37.8610   29.1230   41.2170 C   0  0  0  0  0  0  0  0  0  0  0  0
   39.1960   28.7560   41.5210 C   0  0  0  0  0  0  0  0  0  0  0  0
   39.9330   28.6220   40.7420 H   0  0  0  0  0  0  0  0  0  0  0  0
   39.1890   28.6590   42.9200 C   0  0  0  0  0  0  0  0  0  0  0  0
   40.0930   28.3890   43.4380 H   0  0  0  0  0  0  0  0  0  0  0  0
   37.8990   28.9610   43.3720 C   0  0  0  0  0  0  0  0  0  0  0  0
   37.6510   28.9500   44.4280 H   0  0  0  0  0  0  0  0  0  0  0  0
   37.1380   29.2300   42.3450 O   0  0  0  0  0  0  0  0  0  0  0  0
   43.1770   33.8080   37.5360 C   0  0  0  0  0  0  0  0  0  0  0  0
   41.8200   33.7020   37.8230 C   0  0  0  0  0  0  0  0  0  0  0  0
   41.3540   33.0850   38.9980 C   0  0  0  0  0  0  0  0  0  0  0  0
   42.3010   32.6100   39.8130 N   0  0  0  0  0  0  0  0  0  0  0  0
   43.6100   32.7210   39.5200 C   0  0  0  0  0  0  0  0  0  0  0  0
   44.0430   33.3090   38.4030 N   0  0  0  0  0  0  0  0  0  0  0  0
   43.3140   34.3200   36.5810 H   0  0  0  0  0  0  0  0  0  0  0  0
   41.0030   34.0760   37.1850 H   0  0  0  0  0  0  0  0  0  0  0  0
   44.3290   32.3170   40.2200 H   0  0  0  0  0  0  0  0  0  0  0  0
  1  2  1  0  0  0  0
  2  3  2  0  0  0  0
  2  7  1  0  0  0  0
  3  4  1  0  0  0  0
  4  8  1  0  0  0  0
  4  5  2  0  0  0  0
  5  9  1  0  0  0  0
  6  5  1  0  0  0  0
  6 10  1  0  0  0  0
  7  6  2  0  0  0  0
 11  7  1  0  0  0  0
 11 16  1  0  0  0  0
 12 11  2  0  0  0  0
 13 12  1  0  0  0  0
 13 14  2  0  0  0  0
 14 15  1  0  0  0  0
 15 16  2  0  0  0  0
 15 20  1  0  0  0  0
 16 21  1  0  0  0  0
 17 12  1  0  0  0  0
 18 13  1  0  0  0  0
 19 14  1  0  0  0  0
 21 22  2  0  0  0  0
 21 28  1  0  0  0  0
 22 24  1  0  0  0  0
 23 22  1  0  0  0  0
 24 26  2  0  0  0  0
 24 25  1  0  0  0  0
 26 27  1  0  0  0  0
 28 26  1  0  0  0  0
 29 30  2  0  0  0  0
 29 34  1  0  0  0  0
 30 31  1  0  0  0  0
 31  3  1  0  0  0  0
 31 32  2  0  0  0  0
 33 32  1  0  0  0  0
 33 37  1  0  0  0  0
 34 33  2  0  0  0  0
 35 29  1  0  0  0  0
 36 30  1  0  0  0  0
M  END
>  <minimizedAffinity>
-5.74057961

$$$$

 OpenBabel03242522283D

 37 40  0  0  0  0  0  0  0  0999 V2000
   39.5090   27.6220   40.4090 F   0  0  0  0  0  0  0  0  0  0  0  0
   38.5950   27.6260   41.4250 C   0  0  0  0  0  0  0  0  0  0  0  0
   39.0220   27.4530   42.7020 C   0  0  0  0  0  0  0  0  0  0  0  0
   38.0530   27.5660   43.6780 C   0  0  0  0  0  0  0  0  0  0  0  0
   36.7320   27.8360   43.3930 C   0  0  0  0  0  0  0  0  0  0  0  0
   36.3990   27.9910   42.0940 C   0  0  0  0  0  0  0  0  0  0  0  0
   37.3080   27.8920   41.0840 C   0  0  0  0  0  0  0  0  0  0  0  0
   38.5080   27.4090   44.6840 H   0  0  0  0  0  0  0  0  0  0  0  0
   36.1970   27.8720   44.3280 H   0  0  0  0  0  0  0  0  0  0  0  0
   35.3810   28.2220   42.2040 H   0  0  0  0  0  0  0  0  0  0  0  0
   36.8470   28.1860   39.7380 C   0  0  0  0  0  0  0  0  0  0  0  0
   36.2630   27.1600   38.9850 C   0  0  0  0  0  0  0  0  0  0  0  0
   35.9780   27.3880   37.6640 C   0  0  0  0  0  0  0  0  0  0  0  0
   36.2640   28.6110   37.0910 C   0  0  0  0  0  0  0  0  0  0  0  0
   36.8470   29.6060   37.8940 C   0  0  0  0  0  0  0  0  0  0  0  0
   37.1330   29.3980   39.2120 C   0  0  0  0  0  0  0  0  0  0  0  0
   35.9880   26.1740   39.2480 H   0  0  0  0  0  0  0  0  0  0  0  0
   35.5210   26.6490   36.9940 H   0  0  0  0  0  0  0  0  0  0  0  0
   36.0240   28.7590   36.0170 H   0  0  0  0  0  0  0  0  0  0  0  0
   37.0120   30.5070   37.2990 H   0  0  0  0  0  0  0  0  0  0  0  0
   37.6070   30.6390   39.7370 C   0  0  0  0  0  0  0  0  0  0  0  0
   36.9410   31.8160   40.1630 C   0  0  0  0  0  0  0  0  0  0  0  0
   35.8640   31.8990   40.1220 H   0  0  0  0  0  0  0  0  0  0  0  0
   37.9940   32.6480   40.5710 C   0  0  0  0  0  0  0  0  0  0  0  0
   37.7770   33.6310   40.9510 H   0  0  0  0  0  0  0  0  0  0  0  0
   39.1950   31.9570   40.3770 C   0  0  0  0  0  0  0  0  0  0  0  0
   40.1530   32.4040   40.6240 H   0  0  0  0  0  0  0  0  0  0  0  0
   38.9350   30.7750   39.8840 O   0  0  0  0  0  0  0  0  0  0  0  0
   42.2310   25.5450   43.2640 C   0  0  0  0  0  0  0  0  0  0  0  0
   40.8920   25.8280   43.0150 C   0  0  0  0  0  0  0  0  0  0  0  0
   40.4090   27.1480   42.9560 C   0  0  0  0  0  0  0  0  0  0  0  0
   41.3200   28.1040   43.1560 N   0  0  0  0  0  0  0  0  0  0  0  0
   42.6130   27.8130   43.3970 C   0  0  0  0  0  0  0  0  0  0  0  0
   43.0620   26.5570   43.4500 N   0  0  0  0  0  0  0  0  0  0  0  0
   42.3870   24.4640   43.2650 H   0  0  0  0  0  0  0  0  0  0  0  0
   40.1040   25.0770   42.8440 H   0  0  0  0  0  0  0  0  0  0  0  0
   43.3040   28.6310   43.5510 H   0  0  0  0  0  0  0  0  0  0  0  0
  1  2  1  0  0  0  0
  2  3  1  0  0  0  0
  3 31  1  0  0  0  0
  3  4  2  0  0  0  0
  4  8  1  0  0  0  0
  5  4  1  0  0  0  0
  5  9  1  0  0  0  0
  6 10  1  0  0  0  0
  6  5  2  0  0  0  0
  7  2  2  0  0  0  0
  7  6  1  0  0  0  0
 11  7  1  0  0  0  0
 12 17  1  0  0  0  0
 12 11  2  0  0  0  0
 13 12  1  0  0  0  0
 14 13  2  0  0  0  0
 14 15  1  0  0  0  0
 15 16  2  0  0  0  0
 16 21  1  0  0  0  0
 16 11  1  0  0  0  0
 18 13  1  0  0  0  0
 19 14  1  0  0  0  0
 20 15  1  0  0  0  0
 21 28  1  0  0  0  0
 21 22  2  0  0  0  0
 22 24  1  0  0  0  0
 23 22  1  0  0  0  0
 24 25  1  0  0  0  0
 26 24  2  0  0  0  0
 26 27  1  0  0  0  0
 28 26  1  0  0  0  0
 29 35  1  0  0  0  0
 29 34  1  0  0  0  0
 30 29  2  0  0  0  0
 31 30  1  0  0  0  0
 31 32  2  0  0  0  0
 32 33  1  0  0  0  0
 33 34  2  0  0  0  0
 33 37  1  0  0  0  0
 36 30  1  0  0  0  0
M  END
>  <minimizedAffinity>
-5.660851

$$$$

 OpenBabel03242522283D

 37 40  0  0  0  0  0  0  0  0999 V2000
   39.8940   28.7680   40.9000 F   0  0  0  0  0  0  0  0  0  0  0  0
   38.8890   28.5430   41.8000 C   0  0  0  0  0  0  0  0  0  0  0  0
   37.6830   29.1340   41.6090 C   0  0  0  0  0  0  0  0  0  0  0  0
   36.6940   28.7810   42.5040 C   0  0  0  0  0  0  0  0  0  0  0  0
   36.9010   27.8880   43.5330 C   0  0  0  0  0  0  0  0  0  0  0  0
   38.1350   27.3510   43.6470 C   0  0  0  0  0  0  0  0  0  0  0  0
   39.1520   27.6580   42.7950 C   0  0  0  0  0  0  0  0  0  0  0  0
   35.7500   29.3190   42.2580 H   0  0  0  0  0  0  0  0  0  0  0  0
   35.9740   27.7930   44.0740 H   0  0  0  0  0  0  0  0  0  0  0  0
   37.9670   26.7060   44.4590 H   0  0  0  0  0  0  0  0  0  0  0  0
   40.4010   26.9330   42.9570 C   0  0  0  0  0  0  0  0  0  0  0  0
   41.4480   27.5370   43.6650 C   0  0  0  0  0  0  0  0  0  0  0  0
   42.6760   26.9290   43.6790 C   0  0  0  0  0  0  0  0  0  0  0  0
   42.8720   25.7410   43.0040 C   0  0  0  0  0  0  0  0  0  0  0  0
   41.7870   25.1760   42.3130 C   0  0  0  0  0  0  0  0  0  0  0  0
   40.5550   25.7660   42.2920 C   0  0  0  0  0  0  0  0  0  0  0  0
   41.4830   28.4350   44.2210 H   0  0  0  0  0  0  0  0  0  0  0  0
   43.5540   27.3250   44.2040 H   0  0  0  0  0  0  0  0  0  0  0  0
   43.8820   25.2790   43.0330 H   0  0  0  0  0  0  0  0  0  0  0  0
   42.1010   24.2470   41.8340 H   0  0  0  0  0  0  0  0  0  0  0  0
   39.6790   24.8750   41.6000 C   0  0  0  0  0  0  0  0  0  0  0  0
   38.5980   24.0660   42.0310 C   0  0  0  0  0  0  0  0  0  0  0  0
   38.2940   24.0390   43.0680 H   0  0  0  0  0  0  0  0  0  0  0  0
   38.1680   23.4500   40.8470 C   0  0  0  0  0  0  0  0  0  0  0  0
   37.3400   22.7640   40.8750 H   0  0  0  0  0  0  0  0  0  0  0  0
   38.9810   23.9020   39.8010 C   0  0  0  0  0  0  0  0  0  0  0  0
   38.8370   23.5600   38.7810 H   0  0  0  0  0  0  0  0  0  0  0  0
   39.8630   24.7410   40.2760 O   0  0  0  0  0  0  0  0  0  0  0  0
   37.3150   32.3760   39.7090 C   0  0  0  0  0  0  0  0  0  0  0  0
   37.4820   31.4710   40.7520 C   0  0  0  0  0  0  0  0  0  0  0  0
   37.5140   30.0820   40.5340 C   0  0  0  0  0  0  0  0  0  0  0  0
   37.3740   29.6950   39.2630 N   0  0  0  0  0  0  0  0  0  0  0  0
   37.2130   30.5850   38.2650 C   0  0  0  0  0  0  0  0  0  0  0  0
   37.1840   31.9010   38.4810 N   0  0  0  0  0  0  0  0  0  0  0  0
   37.3200   33.3960   40.1000 H   0  0  0  0  0  0  0  0  0  0  0  0
   37.6000   31.7390   41.8150 H   0  0  0  0  0  0  0  0  0  0  0  0
   37.1050   30.2100   37.2550 H   0  0  0  0  0  0  0  0  0  0  0  0
  1  2  1  0  0  0  0
  2  7  1  0  0  0  0
  3  2  2  0  0  0  0
  3  4  1  0  0  0  0
  4  5  2  0  0  0  0
  5  6  1  0  0  0  0
  5  9  1  0  0  0  0
  6 10  1  0  0  0  0
  7 11  1  0  0  0  0
  7  6  2  0  0  0  0
  8  4  1  0  0  0  0
 11 12  1  0  0  0  0
 12 13  2  0  0  0  0
 12 17  1  0  0  0  0
 13 18  1  0  0  0  0
 14 19  1  0  0  0  0
 14 13  1  0  0  0  0
 15 14  2  0  0  0  0
 16 15  1  0  0  0  0
 16 11  2  0  0  0  0
 20 15  1  0  0  0  0
 21 22  2  0  0  0  0
 21 16  1  0  0  0  0
 22 23  1  0  0  0  0
 24 25  1  0  0  0  0
 24 22  1  0  0  0  0
 26 28  1  0  0  0  0
 26 24  2  0  0  0  0
 27 26  1  0  0  0  0
 28 21  1  0  0  0  0
 29 35  1  0  0  0  0
 29 30  1  0  0  0  0
 30 36  1  0  0  0  0
 31 30  2  0  0  0  0
 31  3  1  0  0  0  0
 32 31  1  0  0  0  0
 33 34  1  0  0  0  0
 33 32  2  0  0  0  0
 34 29  2  0  0  0  0
 37 33  1  0  0  0  0
M  END
>  <minimizedAffinity>
-5.64924908

$$$$

 OpenBabel03242522283D

 37 40  0  0  0  0  0  0  0  0999 V2000
   40.1230   29.0710   39.9160 F   0  0  0  0  0  0  0  0  0  0  0  0
   39.4310   28.7960   41.0620 C   0  0  0  0  0  0  0  0  0  0  0  0
   39.6860   27.6420   41.7290 C   0  0  0  0  0  0  0  0  0  0  0  0
   39.0180   27.4810   42.9260 C   0  0  0  0  0  0  0  0  0  0  0  0
   38.1450   28.4230   43.4270 C   0  0  0  0  0  0  0  0  0  0  0  0
   37.9530   29.5400   42.6930 C   0  0  0  0  0  0  0  0  0  0  0  0
   38.5810   29.7570   41.5050 C   0  0  0  0  0  0  0  0  0  0  0  0
   39.2980   26.5070   43.3890 H   0  0  0  0  0  0  0  0  0  0  0  0
   37.7680   28.0510   44.3660 H   0  0  0  0  0  0  0  0  0  0  0  0
   37.3000   30.0550   43.3350 H   0  0  0  0  0  0  0  0  0  0  0  0
   38.3730   31.0450   40.8640 C   0  0  0  0  0  0  0  0  0  0  0  0
   39.2130   32.1120   41.2030 C   0  0  0  0  0  0  0  0  0  0  0  0
   38.9190   33.3630   40.7270 C   0  0  0  0  0  0  0  0  0  0  0  0
   37.8120   33.5610   39.9270 C   0  0  0  0  0  0  0  0  0  0  0  0
   37.0060   32.4540   39.6140 C   0  0  0  0  0  0  0  0  0  0  0  0
   37.2860   31.2000   40.0760 C   0  0  0  0  0  0  0  0  0  0  0  0
   40.0830   32.1490   41.8020 H   0  0  0  0  0  0  0  0  0  0  0  0
   39.5160   34.2600   40.9380 H   0  0  0  0  0  0  0  0  0  0  0  0
   37.6020   34.5890   39.5620 H   0  0  0  0  0  0  0  0  0  0  0  0
   36.1760   32.7730   38.9800 H   0  0  0  0  0  0  0  0  0  0  0  0
   36.3350   30.3150   39.4810 C   0  0  0  0  0  0  0  0  0  0  0  0
   35.3050   29.5080   40.0260 C   0  0  0  0  0  0  0  0  0  0  0  0
   35.1180   29.4770   41.0900 H   0  0  0  0  0  0  0  0  0  0  0  0
   34.7450   28.8990   38.8930 C   0  0  0  0  0  0  0  0  0  0  0  0
   33.9220   28.2160   39.0100 H   0  0  0  0  0  0  0  0  0  0  0  0
   35.4390   29.3530   37.7660 C   0  0  0  0  0  0  0  0  0  0  0  0
   35.1810   29.0160   36.7670 H   0  0  0  0  0  0  0  0  0  0  0  0
   36.3710   30.1870   38.1440 O   0  0  0  0  0  0  0  0  0  0  0  0
   42.7770   25.5850   41.0450 C   0  0  0  0  0  0  0  0  0  0  0  0
   41.9140   26.5220   41.6040 C   0  0  0  0  0  0  0  0  0  0  0  0
   40.5880   26.6710   41.1580 C   0  0  0  0  0  0  0  0  0  0  0  0
   40.2180   25.8550   40.1670 N   0  0  0  0  0  0  0  0  0  0  0  0
   41.0670   24.9530   39.6370 C   0  0  0  0  0  0  0  0  0  0  0  0
   42.3230   24.8190   40.0660 N   0  0  0  0  0  0  0  0  0  0  0  0
   43.7510   25.6390   41.5370 H   0  0  0  0  0  0  0  0  0  0  0  0
   42.1710   27.2160   42.4200 H   0  0  0  0  0  0  0  0  0  0  0  0
   40.7080   24.3200   38.8360 H   0  0  0  0  0  0  0  0  0  0  0  0
  1  2  1  0  0  0  0
  2  7  2  0  0  0  0
  2  3  1  0  0  0  0
  3  4  2  0  0  0  0
  4  8  1  0  0  0  0
  4  5  1  0  0  0  0
  5  9  1  0  0  0  0
  6 10  1  0  0  0  0
  6  5  2  0  0  0  0
  7  6  1  0  0  0  0
 11 12  1  0  0  0  0
 11  7  1  0  0  0  0
 12 17  1  0  0  0  0
 13 18  1  0  0  0  0
 13 12  2  0  0  0  0
 14 13  1  0  0  0  0
 15 14  2  0  0  0  0
 15 16  1  0  0  0  0
 16 11  2  0  0  0  0
 19 14  1  0  0  0  0
 20 15  1  0  0  0  0
 21 22  2  0  0  0  0
 21 16  1  0  0  0  0
 22 23  1  0  0  0  0
 24 25  1  0  0  0  0
 24 22  1  0  0  0  0
 26 28  1  0  0  0  0
 26 24  2  0  0  0  0
 27 26  1  0  0  0  0
 28 21  1  0  0  0  0
 29 35  1  0  0  0  0
 29 30  1  0  0  0  0
 30 36  1  0  0  0  0
 31 30  2  0  0  0  0
 31  3  1  0  0  0  0
 32 31  1  0  0  0  0
 33 34  1  0  0  0  0
 33 32  2  0  0  0  0
 34 29  2  0  0  0  0
 37 33  1  0  0  0  0
M  END
>  <minimizedAffinity>
-5.60353231

$$$$
