
 OpenBabel03252509113D

 30 33  0  0  0  0  0  0  0  0999 V2000
   45.8430   29.6030   43.9070 C   0  0  0  0  0  0  0  0  0  0  0  0
   47.1420   29.4330   44.3550 C   0  0  0  0  0  0  0  0  0  0  0  0
   47.4310   28.8700   45.5830 C   0  0  0  0  0  0  0  0  0  0  0  0
   46.3950   28.4540   46.4150 C   0  0  0  0  0  0  0  0  0  0  0  0
   46.3000   27.8810   47.6420 N   0  0  0  0  0  0  0  0  0  0  0  0
   44.9930   27.7030   47.9450 C   0  0  0  0  0  0  0  0  0  0  0  0
   44.2910   28.1690   46.8940 N   0  0  0  0  0  0  0  0  0  0  0  0
   45.1190   28.6370   45.9400 C   0  0  0  0  0  0  0  0  0  0  0  0
   44.7890   29.1920   44.7230 C   0  0  0  0  0  0  0  0  0  0  0  0
   45.6540   30.0490   42.9350 H   0  0  0  0  0  0  0  0  0  0  0  0
   47.1600   27.6590   48.1750 H   0  0  0  0  0  0  0  0  0  0  0  0
   44.6640   27.2600   48.8790 H   0  0  0  0  0  0  0  0  0  0  0  0
   43.7580   29.3030   44.4190 H   0  0  0  0  0  0  0  0  0  0  0  0
   49.6320   31.5470   42.6780 C   0  0  0  0  0  0  0  0  0  0  0  0
   50.3510   30.6270   41.9140 C   0  0  0  0  0  0  0  0  0  0  0  0
   49.9760   29.2740   41.9760 C   0  0  0  0  0  0  0  0  0  0  0  0
   48.9250   28.9630   42.7910 N   0  0  0  0  0  0  0  0  0  0  0  0
   48.2490   29.8580   43.5160 C   0  0  0  0  0  0  0  0  0  0  0  0
   48.5980   31.1610   43.4670 N   0  0  0  0  0  0  0  0  0  0  0  0
   49.9320   32.5910   42.6230 H   0  0  0  0  0  0  0  0  0  0  0  0
   51.1730   30.9310   41.2890 H   0  0  0  0  0  0  0  0  0  0  0  0
   50.4970   28.5170   41.4050 H   0  0  0  0  0  0  0  0  0  0  0  0
   48.7890   28.6790   46.0820 C   0  0  0  0  0  0  0  0  0  0  0  0
   49.1770   29.6200   47.0410 C   0  0  0  0  0  0  0  0  0  0  0  0
   48.7340   30.4750   47.5270 H   0  0  0  0  0  0  0  0  0  0  0  0
   50.4880   29.2990   47.4110 C   0  0  0  0  0  0  0  0  0  0  0  0
   51.1600   29.7850   48.1330 H   0  0  0  0  0  0  0  0  0  0  0  0
   50.8080   28.1750   46.6440 C   0  0  0  0  0  0  0  0  0  0  0  0
   51.7340   27.6070   46.6260 H   0  0  0  0  0  0  0  0  0  0  0  0
   49.7810   27.8560   45.8870 O   0  0  0  0  0  0  0  0  0  0  0  0
  1  2  2  0  0  0  0
  1  9  1  0  0  0  0
  2  3  1  0  0  0  0
  3 23  1  0  0  0  0
  3  4  2  0  0  0  0
  4  5  1  0  0  0  0
  5  6  1  0  0  0  0
  5 11  1  0  0  0  0
  6 12  1  0  0  0  0
  7  6  2  0  0  0  0
  8  4  1  0  0  0  0
  8  7  1  0  0  0  0
  9  8  2  0  0  0  0
 10  1  1  0  0  0  0
 13  9  1  0  0  0  0
 14 19  1  0  0  0  0
 15 16  1  0  0  0  0
 15 14  2  0  0  0  0
 16 17  2  0  0  0  0
 17 18  1  0  0  0  0
 18  2  1  0  0  0  0
 19 18  2  0  0  0  0
 20 14  1  0  0  0  0
 21 15  1  0  0  0  0
 22 16  1  0  0  0  0
 23 24  2  0  0  0  0
 24 26  1  0  0  0  0
 24 25  1  0  0  0  0
 26 27  1  0  0  0  0
 28 26  2  0  0  0  0
 29 28  1  0  0  0  0
 30 23  1  0  0  0  0
 30 28  1  0  0  0  0
M  END
>  <minimizedAffinity>
-2.2775836

>  <minimizedRMSD>
5.56937408

$$$$
