
 OpenBabel03252504143D

 34 36  0  0  0  0  0  0  0  0999 V2000
   47.7260   30.0590   44.9190 F   0  0  0  0  0  0  0  0  0  0  0  0
   47.5580   30.8230   46.0460 C   0  0  0  0  0  0  0  0  0  0  0  0
   46.9470   32.0510   45.9490 C   0  0  0  0  0  0  0  0  0  0  0  0
   46.8190   32.7590   47.1440 C   0  0  0  0  0  0  0  0  0  0  0  0
   47.2760   32.2520   48.3380 C   0  0  0  0  0  0  0  0  0  0  0  0
   47.8810   31.0060   48.3550 C   0  0  0  0  0  0  0  0  0  0  0  0
   48.0400   30.2540   47.2070 C   0  0  0  0  0  0  0  0  0  0  0  0
   46.3400   33.7400   47.1200 H   0  0  0  0  0  0  0  0  0  0  0  0
   47.1750   32.8000   49.2580 H   0  0  0  0  0  0  0  0  0  0  0  0
   48.2500   30.5860   49.2820 H   0  0  0  0  0  0  0  0  0  0  0  0
   48.6760   28.9400   47.2160 C   0  0  0  0  0  0  0  0  0  0  0  0
   50.0230   28.7450   46.9900 C   0  0  0  0  0  0  0  0  0  0  0  0
   50.7430   29.5030   46.7870 H   0  0  0  0  0  0  0  0  0  0  0  0
   50.1560   27.3610   47.0980 C   0  0  0  0  0  0  0  0  0  0  0  0
   51.0980   26.8240   46.9790 H   0  0  0  0  0  0  0  0  0  0  0  0
   48.9180   26.8040   47.3760 C   0  0  0  0  0  0  0  0  0  0  0  0
   48.6670   25.7620   47.5220 H   0  0  0  0  0  0  0  0  0  0  0  0
   48.0760   27.8190   47.4330 O   0  0  0  0  0  0  0  0  0  0  0  0
   46.7680   34.1110   42.9590 C   0  0  0  0  0  0  0  0  0  0  0  0
   45.6320   33.6520   42.2890 C   0  0  0  0  0  0  0  0  0  0  0  0
   44.9190   32.6040   42.8990 C   0  0  0  0  0  0  0  0  0  0  0  0
   45.3510   32.0930   44.0800 N   0  0  0  0  0  0  0  0  0  0  0  0
   46.4630   32.5830   44.6800 C   0  0  0  0  0  0  0  0  0  0  0  0
   47.1690   33.5900   44.1210 N   0  0  0  0  0  0  0  0  0  0  0  0
   44.0340   32.2270   42.4040 H   0  0  0  0  0  0  0  0  0  0  0  0
   45.2300   34.2630   41.0080 C   0  0  0  0  0  0  0  0  0  0  0  0
   44.9160   35.5880   41.1980 F   0  0  0  0  0  0  0  0  0  0  0  0
   46.3260   34.2200   40.1540 F   0  0  0  0  0  0  0  0  0  0  0  0
   44.1860   33.6570   40.3960 F   0  0  0  0  0  0  0  0  0  0  0  0
   47.4580   35.1270   42.3680 O   0  0  0  0  0  0  0  0  0  0  0  0
   48.7730   35.0620   41.8520 C   0  0  0  0  0  0  0  0  0  0  0  0
   49.6270   35.4000   42.9070 F   0  0  0  0  0  0  0  0  0  0  0  0
   49.0250   33.8200   41.3350 F   0  0  0  0  0  0  0  0  0  0  0  0
   48.9600   36.0660   40.9290 F   0  0  0  0  0  0  0  0  0  0  0  0
  1  2  1  0  0  0  0
  2  7  1  0  0  0  0
  3  2  2  0  0  0  0
  3  4  1  0  0  0  0
  4  5  2  0  0  0  0
  5  6  1  0  0  0  0
  5  9  1  0  0  0  0
  6 10  1  0  0  0  0
  7 11  1  0  0  0  0
  7  6  2  0  0  0  0
  8  4  1  0  0  0  0
 11 18  1  0  0  0  0
 12 14  1  0  0  0  0
 12 11  2  0  0  0  0
 13 12  1  0  0  0  0
 14 16  2  0  0  0  0
 15 14  1  0  0  0  0
 16 18  1  0  0  0  0
 16 17  1  0  0  0  0
 19 24  1  0  0  0  0
 20 21  1  0  0  0  0
 20 19  2  0  0  0  0
 21 22  2  0  0  0  0
 22 23  1  0  0  0  0
 23  3  1  0  0  0  0
 24 23  2  0  0  0  0
 25 21  1  0  0  0  0
 26 27  1  0  0  0  0
 26 20  1  0  0  0  0
 28 26  1  0  0  0  0
 29 26  1  0  0  0  0
 30 19  1  0  0  0  0
 31 30  1  0  0  0  0
 31 32  1  0  0  0  0
 33 31  1  0  0  0  0
 34 31  1  0  0  0  0
M  END
>  <minimizedAffinity>
-5.5128274

>  <minimizedRMSD>
0.498796344

$$$$
