
 OpenBabel03252502023D

 33 36  0  0  0  0  0  0  0  0999 V2000
   47.5550   32.3310   48.1170 C   0  0  0  0  0  0  0  0  0  0  0  0
   47.1330   31.0010   48.1980 C   0  0  0  0  0  0  0  0  0  0  0  0
   46.2370   30.5680   47.2400 C   0  0  0  0  0  0  0  0  0  0  0  0
   45.8350   31.4440   46.3060 N   0  0  0  0  0  0  0  0  0  0  0  0
   46.2270   32.6960   46.2250 C   0  0  0  0  0  0  0  0  0  0  0  0
   47.0930   33.1150   47.1480 N   0  0  0  0  0  0  0  0  0  0  0  0
   48.2700   32.6730   48.8840 H   0  0  0  0  0  0  0  0  0  0  0  0
   45.8910   33.7620   45.2830 C   0  0  0  0  0  0  0  0  0  0  0  0
   44.9170   34.6910   45.4970 N   0  0  0  0  0  0  0  0  0  0  0  0
   44.5850   35.6750   44.6640 C   0  0  0  0  0  0  0  0  0  0  0  0
   45.2370   35.8100   43.4900 N   0  0  0  0  0  0  0  0  0  0  0  0
   46.2240   34.9560   43.1530 C   0  0  0  0  0  0  0  0  0  0  0  0
   46.8900   35.0990   41.9480 C   0  0  0  0  0  0  0  0  0  0  0  0
   47.8950   34.2370   41.5990 C   0  0  0  0  0  0  0  0  0  0  0  0
   48.2120   33.2320   42.4850 C   0  0  0  0  0  0  0  0  0  0  0  0
   47.5270   33.1230   43.6700 C   0  0  0  0  0  0  0  0  0  0  0  0
   46.5150   33.9590   44.0680 C   0  0  0  0  0  0  0  0  0  0  0  0
   43.7890   36.3500   44.9530 H   0  0  0  0  0  0  0  0  0  0  0  0
   46.6110   35.9030   41.2800 H   0  0  0  0  0  0  0  0  0  0  0  0
   48.4530   34.2920   40.6780 H   0  0  0  0  0  0  0  0  0  0  0  0
   49.0020   32.5420   42.2270 H   0  0  0  0  0  0  0  0  0  0  0  0
   47.8180   32.3100   44.3360 H   0  0  0  0  0  0  0  0  0  0  0  0
   45.7360   29.2130   47.2300 C   0  0  0  0  0  0  0  0  0  0  0  0
   44.5160   28.6880   46.8760 C   0  0  0  0  0  0  0  0  0  0  0  0
   43.6790   29.2360   46.5270 H   0  0  0  0  0  0  0  0  0  0  0  0
   44.5010   27.3200   47.0330 C   0  0  0  0  0  0  0  0  0  0  0  0
   43.7350   26.5740   46.8610 H   0  0  0  0  0  0  0  0  0  0  0  0
   45.7750   27.0510   47.4980 C   0  0  0  0  0  0  0  0  0  0  0  0
   46.2460   26.1160   47.7690 H   0  0  0  0  0  0  0  0  0  0  0  0
   46.4420   28.1710   47.5920 O   0  0  0  0  0  0  0  0  0  0  0  0
   47.6350   30.1900   49.2310 N   0  0  0  0  0  0  0  0  0  0  0  0
   46.9460   30.3640   50.0010 H   0  0  0  0  0  0  0  0  0  0  0  0
   48.5100   29.6150   49.0740 H   0  0  0  0  0  0  0  0  0  0  0  0
  1  2  1  0  0  0  0
  1  7  1  0  0  0  0
  2 31  1  0  0  0  0
  3  2  2  0  0  0  0
  4  3  1  0  0  0  0
  5  4  2  0  0  0  0
  5  6  1  0  0  0  0
  6  1  2  0  0  0  0
  8  9  1  0  0  0  0
  8  5  1  0  0  0  0
 10 18  1  0  0  0  0
 10  9  2  0  0  0  0
 11 10  1  0  0  0  0
 12 11  2  0  0  0  0
 12 17  1  0  0  0  0
 13 12  1  0  0  0  0
 14 13  2  0  0  0  0
 14 15  1  0  0  0  0
 15 16  2  0  0  0  0
 16 17  1  0  0  0  0
 16 22  1  0  0  0  0
 17  8  2  0  0  0  0
 19 13  1  0  0  0  0
 20 14  1  0  0  0  0
 21 15  1  0  0  0  0
 23  3  1  0  0  0  0
 23 30  1  0  0  0  0
 24 26  1  0  0  0  0
 24 23  2  0  0  0  0
 25 24  1  0  0  0  0
 26 28  2  0  0  0  0
 27 26  1  0  0  0  0
 28 30  1  0  0  0  0
 28 29  1  0  0  0  0
 31 32  1  0  0  0  0
 33 31  1  0  0  0  0
M  END
>  <minimizedAffinity>
-6.24438667

>  <minimizedRMSD>
0.210478663

$$$$
