
 OpenBabel03252509113D

 30 33  0  0  0  0  0  0  0  0999 V2000
   44.9400   28.2020   44.7640 C   0  0  0  0  0  0  0  0  0  0  0  0
   45.5020   29.2180   45.5190 C   0  0  0  0  0  0  0  0  0  0  0  0
   45.5460   29.1730   46.8980 C   0  0  0  0  0  0  0  0  0  0  0  0
   45.0120   28.0800   47.5730 C   0  0  0  0  0  0  0  0  0  0  0  0
   44.8790   27.7040   48.8710 N   0  0  0  0  0  0  0  0  0  0  0  0
   44.2580   26.5020   48.9210 C   0  0  0  0  0  0  0  0  0  0  0  0
   44.0140   26.1460   47.6450 N   0  0  0  0  0  0  0  0  0  0  0  0
   44.4620   27.0910   46.7940 C   0  0  0  0  0  0  0  0  0  0  0  0
   44.3990   27.0960   45.4180 C   0  0  0  0  0  0  0  0  0  0  0  0
   44.9240   28.2710   43.6800 H   0  0  0  0  0  0  0  0  0  0  0  0
   45.2340   28.3190   49.6250 H   0  0  0  0  0  0  0  0  0  0  0  0
   44.0390   25.9950   49.8540 H   0  0  0  0  0  0  0  0  0  0  0  0
   43.9490   26.2780   44.8740 H   0  0  0  0  0  0  0  0  0  0  0  0
   45.8370   32.5350   43.9820 C   0  0  0  0  0  0  0  0  0  0  0  0
   47.1730   32.5540   43.5790 C   0  0  0  0  0  0  0  0  0  0  0  0
   47.9610   31.4190   43.8360 C   0  0  0  0  0  0  0  0  0  0  0  0
   47.3490   30.3750   44.4700 N   0  0  0  0  0  0  0  0  0  0  0  0
   46.0680   30.3770   44.8490 C   0  0  0  0  0  0  0  0  0  0  0  0
   45.2990   31.4590   44.6100 N   0  0  0  0  0  0  0  0  0  0  0  0
   45.2370   33.4200   43.7780 H   0  0  0  0  0  0  0  0  0  0  0  0
   47.6020   33.4070   43.0820 H   0  0  0  0  0  0  0  0  0  0  0  0
   49.0020   31.3770   43.5460 H   0  0  0  0  0  0  0  0  0  0  0  0
   46.1320   30.2280   47.7200 C   0  0  0  0  0  0  0  0  0  0  0  0
   45.1960   31.1350   48.2260 C   0  0  0  0  0  0  0  0  0  0  0  0
   44.1270   31.2730   48.1750 H   0  0  0  0  0  0  0  0  0  0  0  0
   45.9110   32.0710   48.9830 C   0  0  0  0  0  0  0  0  0  0  0  0
   45.5570   32.9450   49.5480 H   0  0  0  0  0  0  0  0  0  0  0  0
   47.2440   31.6640   48.8820 C   0  0  0  0  0  0  0  0  0  0  0  0
   48.1270   32.1160   49.3230 H   0  0  0  0  0  0  0  0  0  0  0  0
   47.3160   30.5840   48.1350 O   0  0  0  0  0  0  0  0  0  0  0  0
  1  9  2  0  0  0  0
  1  2  1  0  0  0  0
  2  3  2  0  0  0  0
  3  4  1  0  0  0  0
  3 23  1  0  0  0  0
  4  5  1  0  0  0  0
  5  6  1  0  0  0  0
  5 11  1  0  0  0  0
  6 12  1  0  0  0  0
  7  6  2  0  0  0  0
  8  4  2  0  0  0  0
  8  7  1  0  0  0  0
  9  8  1  0  0  0  0
 10  1  1  0  0  0  0
 13  9  1  0  0  0  0
 14 19  1  0  0  0  0
 15 16  1  0  0  0  0
 15 14  2  0  0  0  0
 16 17  2  0  0  0  0
 17 18  1  0  0  0  0
 18  2  1  0  0  0  0
 19 18  2  0  0  0  0
 20 14  1  0  0  0  0
 21 15  1  0  0  0  0
 22 16  1  0  0  0  0
 23 30  1  0  0  0  0
 23 24  2  0  0  0  0
 24 26  1  0  0  0  0
 25 24  1  0  0  0  0
 26 27  1  0  0  0  0
 28 26  2  0  0  0  0
 28 29  1  0  0  0  0
 30 28  1  0  0  0  0
M  END
>  <minimizedAffinity>
-3.98196006

>  <minimizedRMSD>
4.41452789

$$$$
