
 OpenBabel03252504143D

 34 36  0  0  0  0  0  0  0  0999 V2000
   47.6490   30.0240   44.9290 F   0  0  0  0  0  0  0  0  0  0  0  0
   47.5140   30.8020   46.0510 C   0  0  0  0  0  0  0  0  0  0  0  0
   46.9390   32.0450   45.9500 C   0  0  0  0  0  0  0  0  0  0  0  0
   46.8420   32.7660   47.1410 C   0  0  0  0  0  0  0  0  0  0  0  0
   47.2960   32.2550   48.3340 C   0  0  0  0  0  0  0  0  0  0  0  0
   47.8650   30.9930   48.3550 C   0  0  0  0  0  0  0  0  0  0  0  0
   47.9910   30.2270   47.2120 C   0  0  0  0  0  0  0  0  0  0  0  0
   46.3920   33.7610   47.1140 H   0  0  0  0  0  0  0  0  0  0  0  0
   47.2200   32.8140   49.2510 H   0  0  0  0  0  0  0  0  0  0  0  0
   48.2300   30.5690   49.2820 H   0  0  0  0  0  0  0  0  0  0  0  0
   48.5880   28.8960   47.2260 C   0  0  0  0  0  0  0  0  0  0  0  0
   49.9300   28.6620   47.0070 C   0  0  0  0  0  0  0  0  0  0  0  0
   50.6730   29.3990   46.8060 H   0  0  0  0  0  0  0  0  0  0  0  0
   50.0230   27.2750   47.1160 C   0  0  0  0  0  0  0  0  0  0  0  0
   50.9510   26.7110   47.0010 H   0  0  0  0  0  0  0  0  0  0  0  0
   48.7680   26.7540   47.3890 C   0  0  0  0  0  0  0  0  0  0  0  0
   48.4870   25.7200   47.5330 H   0  0  0  0  0  0  0  0  0  0  0  0
   47.9550   27.7920   47.4400 O   0  0  0  0  0  0  0  0  0  0  0  0
   46.7700   34.1120   42.9640 C   0  0  0  0  0  0  0  0  0  0  0  0
   45.6330   33.6590   42.2920 C   0  0  0  0  0  0  0  0  0  0  0  0
   44.9160   32.6120   42.8980 C   0  0  0  0  0  0  0  0  0  0  0  0
   45.3450   32.0970   44.0790 N   0  0  0  0  0  0  0  0  0  0  0  0
   46.4580   32.5820   44.6820 C   0  0  0  0  0  0  0  0  0  0  0  0
   47.1680   33.5880   44.1250 N   0  0  0  0  0  0  0  0  0  0  0  0
   44.0300   32.2380   42.4010 H   0  0  0  0  0  0  0  0  0  0  0  0
   45.2350   34.2730   41.0110 C   0  0  0  0  0  0  0  0  0  0  0  0
   44.9190   35.5970   41.2050 F   0  0  0  0  0  0  0  0  0  0  0  0
   46.3340   34.2350   40.1610 F   0  0  0  0  0  0  0  0  0  0  0  0
   44.1940   33.6680   40.3940 F   0  0  0  0  0  0  0  0  0  0  0  0
   47.4640   35.1280   42.3760 O   0  0  0  0  0  0  0  0  0  0  0  0
   48.7840   35.0630   41.8740 C   0  0  0  0  0  0  0  0  0  0  0  0
   49.6290   35.3600   42.9490 F   0  0  0  0  0  0  0  0  0  0  0  0
   49.0290   33.8340   41.3230 F   0  0  0  0  0  0  0  0  0  0  0  0
   48.9940   36.0920   40.9840 F   0  0  0  0  0  0  0  0  0  0  0  0
  1  2  1  0  0  0  0
  2  7  1  0  0  0  0
  3  2  2  0  0  0  0
  3  4  1  0  0  0  0
  4  5  2  0  0  0  0
  5  6  1  0  0  0  0
  5  9  1  0  0  0  0
  6 10  1  0  0  0  0
  7 11  1  0  0  0  0
  7  6  2  0  0  0  0
  8  4  1  0  0  0  0
 11 18  1  0  0  0  0
 12 14  1  0  0  0  0
 12 11  2  0  0  0  0
 13 12  1  0  0  0  0
 14 16  2  0  0  0  0
 15 14  1  0  0  0  0
 16 18  1  0  0  0  0
 16 17  1  0  0  0  0
 19 24  1  0  0  0  0
 20 21  1  0  0  0  0
 20 19  2  0  0  0  0
 21 22  2  0  0  0  0
 22 23  1  0  0  0  0
 23  3  1  0  0  0  0
 24 23  2  0  0  0  0
 25 21  1  0  0  0  0
 26 27  1  0  0  0  0
 26 20  1  0  0  0  0
 28 26  1  0  0  0  0
 29 26  1  0  0  0  0
 30 19  1  0  0  0  0
 31 30  1  0  0  0  0
 31 32  1  0  0  0  0
 33 31  1  0  0  0  0
 34 31  1  0  0  0  0
M  END
>  <minimizedAffinity>
-5.52787352

>  <minimizedRMSD>
0.255615324

$$$$
