
 OpenBabel03242515053D

 38 40  0  0  0  0  0  0  0  0999 V2000
   44.9840   34.6510   42.2660 C   0  0  0  0  0  0  0  0  0  0  0  0
   46.2770   34.3270   41.8570 C   0  0  0  0  0  0  0  0  0  0  0  0
   47.2310   33.9840   42.8300 C   0  0  0  0  0  0  0  0  0  0  0  0
   46.8240   33.9920   44.1150 N   0  0  0  0  0  0  0  0  0  0  0  0
   45.5710   34.3070   44.4920 C   0  0  0  0  0  0  0  0  0  0  0  0
   44.6790   34.6290   43.5630 N   0  0  0  0  0  0  0  0  0  0  0  0
   46.6110   34.3170   40.8440 H   0  0  0  0  0  0  0  0  0  0  0  0
   48.5990   33.6360   42.4630 C   0  0  0  0  0  0  0  0  0  0  0  0
   49.6950   34.4190   42.7570 C   0  0  0  0  0  0  0  0  0  0  0  0
   49.7320   35.3660   43.2770 H   0  0  0  0  0  0  0  0  0  0  0  0
   50.7500   33.6780   42.2120 C   0  0  0  0  0  0  0  0  0  0  0  0
   51.7960   33.9550   42.2330 H   0  0  0  0  0  0  0  0  0  0  0  0
   50.2420   32.5150   41.6320 C   0  0  0  0  0  0  0  0  0  0  0  0
   50.7570   31.7110   41.1220 H   0  0  0  0  0  0  0  0  0  0  0  0
   48.9390   32.5550   41.8200 O   0  0  0  0  0  0  0  0  0  0  0  0
   45.2640   34.2750   45.9100 C   0  0  0  0  0  0  0  0  0  0  0  0
   44.3750   35.0430   46.3370 O   0  0  0  0  0  0  0  0  0  0  0  0
   46.0130   33.3530   46.7230 N   0  0  0  0  0  0  0  0  0  0  0  0
   45.7140   32.4580   47.1730 H   0  0  0  0  0  0  0  0  0  0  0  0
   47.0050   33.6190   46.8870 H   0  0  0  0  0  0  0  0  0  0  0  0
   43.8350   35.0780   40.9680 S   0  0  0  0  0  0  0  0  0  0  0  0
   42.1190   34.9070   41.4740 C   0  0  0  0  0  0  0  0  0  0  0  0
   42.0780   35.0650   42.5760 H   0  0  0  0  0  0  0  0  0  0  0  0
   41.8060   33.8560   41.2190 H   0  0  0  0  0  0  0  0  0  0  0  0
   41.1890   35.8690   40.8170 C   0  0  0  0  0  0  0  0  0  0  0  0
   41.7150   36.7130   40.3240 H   0  0  0  0  0  0  0  0  0  0  0  0
   40.5500   36.3320   41.6150 H   0  0  0  0  0  0  0  0  0  0  0  0
   42.0060   36.0990   37.9030 Cl  0  0  0  0  0  0  0  0  0  0  0  0
   40.6140   35.2300   38.4590 C   0  0  0  0  0  0  0  0  0  0  0  0
   40.3300   35.1900   39.8280 C   0  0  0  0  0  0  0  0  0  0  0  0
   39.2060   34.4770   40.1920 C   0  0  0  0  0  0  0  0  0  0  0  0
   38.3340   33.8050   39.3430 C   0  0  0  0  0  0  0  0  0  0  0  0
   38.6510   33.8700   37.9980 C   0  0  0  0  0  0  0  0  0  0  0  0
   37.6070   33.0480   36.8380 Cl  0  0  0  0  0  0  0  0  0  0  0  0
   39.7610   34.5650   37.5750 C   0  0  0  0  0  0  0  0  0  0  0  0
   38.9870   34.4470   41.2540 H   0  0  0  0  0  0  0  0  0  0  0  0
   37.4860   33.2800   39.7360 H   0  0  0  0  0  0  0  0  0  0  0  0
   39.9860   34.6010   36.5160 H   0  0  0  0  0  0  0  0  0  0  0  0
  1  6  1  0  0  0  0
  2  1  2  0  0  0  0
  2  3  1  0  0  0  0
  3  4  2  0  0  0  0
  4  5  1  0  0  0  0
  5 16  1  0  0  0  0
  6  5  2  0  0  0  0
  7  2  1  0  0  0  0
  8  9  2  0  0  0  0
  8  3  1  0  0  0  0
  9 10  1  0  0  0  0
 11 12  1  0  0  0  0
 11  9  1  0  0  0  0
 13 15  1  0  0  0  0
 13 11  2  0  0  0  0
 14 13  1  0  0  0  0
 15  8  1  0  0  0  0
 16 17  2  0  0  0  0
 16 18  1  0  0  0  0
 18 20  1  0  0  0  0
 18 19  1  0  0  0  0
 21 22  1  0  0  0  0
 21  1  1  0  0  0  0
 22 23  1  0  0  0  0
 24 22  1  0  0  0  0
 25 22  1  0  0  0  0
 25 27  1  0  0  0  0
 26 25  1  0  0  0  0
 28 29  1  0  0  0  0
 29 30  1  0  0  0  0
 30 31  2  0  0  0  0
 30 25  1  0  0  0  0
 31 36  1  0  0  0  0
 32 37  1  0  0  0  0
 32 31  1  0  0  0  0
 33 32  2  0  0  0  0
 34 33  1  0  0  0  0
 35 33  1  0  0  0  0
 35 29  2  0  0  0  0
 38 35  1  0  0  0  0
M  END
>  <minimizedAffinity>
-6.96640491

>  <minimizedRMSD>
0.509584486

$$$$
