
 OpenBabel03242514373D

 32 34  0  0  0  0  0  0  0  0999 V2000
   47.4600   34.0080   39.4220 C   0  0  0  0  0  0  0  0  0  0  0  0
   46.3180   33.5530   39.8060 O   0  0  0  0  0  0  0  0  0  0  0  0
   47.6790   33.4770   38.0630 C   0  0  0  0  0  0  0  0  0  0  0  0
   48.7350   33.7850   37.1660 C   0  0  0  0  0  0  0  0  0  0  0  0
   48.6740   33.1490   35.9840 C   0  0  0  0  0  0  0  0  0  0  0  0
   47.6970   32.2790   35.6500 C   0  0  0  0  0  0  0  0  0  0  0  0
   46.6600   32.3280   37.2380 S   0  0  0  0  0  0  0  0  0  0  0  0
   49.5180   34.4790   37.4260 H   0  0  0  0  0  0  0  0  0  0  0  0
   49.3780   33.2450   35.1680 H   0  0  0  0  0  0  0  0  0  0  0  0
   47.2850   31.4410   34.5680 C   0  0  0  0  0  0  0  0  0  0  0  0
   46.1170   30.7760   34.4040 C   0  0  0  0  0  0  0  0  0  0  0  0
   45.2610   30.7320   35.0400 H   0  0  0  0  0  0  0  0  0  0  0  0
   46.2660   30.1250   33.1740 C   0  0  0  0  0  0  0  0  0  0  0  0
   45.5680   29.4800   32.6570 H   0  0  0  0  0  0  0  0  0  0  0  0
   47.5330   30.4480   32.6760 C   0  0  0  0  0  0  0  0  0  0  0  0
   48.0320   30.1450   31.7470 H   0  0  0  0  0  0  0  0  0  0  0  0
   48.0710   31.2390   33.5730 O   0  0  0  0  0  0  0  0  0  0  0  0
   48.0440   34.7870   40.3600 O   0  0  0  0  0  0  0  0  0  0  0  0
   49.3800   35.4790   42.4390 O   0  0  0  0  0  0  0  0  0  0  0  0
   48.8070   34.2860   41.7480 P   0  0  2  0  0  0  0  0  0  0  0  0
   50.0710   33.2630   41.3260 O   0  0  0  0  0  0  0  0  0  0  0  0
   49.6910   32.3590   41.1270 H   0  0  0  0  0  0  0  0  0  0  0  0
   47.6780   33.4810   42.7750 O   0  0  0  0  0  0  0  0  0  0  0  0
   46.1260   35.3080   42.7680 C   0  0  0  0  0  0  0  0  0  0  0  0
   46.6630   34.1980   43.4080 C   0  0  0  0  0  0  0  0  0  0  0  0
   46.1630   33.8370   44.6740 C   0  0  0  0  0  0  0  0  0  0  0  0
   45.1690   34.6110   45.1980 N   0  0  0  0  0  0  0  0  0  0  0  0
   44.6760   35.6730   44.5530 C   0  0  0  0  0  0  0  0  0  0  0  0
   45.1500   36.0200   43.3460 N   0  0  0  0  0  0  0  0  0  0  0  0
   46.4420   35.6600   41.8040 H   0  0  0  0  0  0  0  0  0  0  0  0
   46.5860   32.9720   45.1670 H   0  0  0  0  0  0  0  0  0  0  0  0
   43.8830   36.2280   45.0570 H   0  0  0  0  0  0  0  0  0  0  0  0
  1  2  2  0  0  0  0
  1 18  1  0  0  0  0
  3  1  1  0  0  0  0
  4  8  1  0  0  0  0
  4  3  2  0  0  0  0
  5  4  1  0  0  0  0
  6  5  2  0  0  0  0
  6  7  1  0  0  0  0
  7  3  1  0  0  0  0
  9  5  1  0  0  0  0
 10  6  1  0  0  0  0
 11 10  2  0  0  0  0
 11 12  1  0  0  0  0
 13 11  1  0  0  0  0
 14 13  1  0  0  0  0
 15 13  2  0  0  0  0
 15 17  1  0  0  0  0
 16 15  1  0  0  0  0
 17 10  1  0  0  0  0
 18 20  1  0  0  0  0
 20 19  2  1  0  0  0
 20 23  1  0  0  0  0
 21 20  1  0  0  0  0
 22 21  1  0  0  0  0
 23 25  1  0  0  0  0
 24 29  2  0  0  0  0
 24 25  1  0  0  0  0
 25 26  2  0  0  0  0
 26 31  1  0  0  0  0
 26 27  1  0  0  0  0
 28 32  1  0  0  0  0
 28 27  2  0  0  0  0
 29 28  1  0  0  0  0
 30 24  1  0  0  0  0
M  END
>  <minimizedAffinity>
-5.04674292

>  <minimizedRMSD>
0.245805606

$$$$
