
 OpenBabel03252506563D

 37 41  0  0  0  0  0  0  0  0999 V2000
   47.2350   31.3290   45.1580 C   0  0  0  0  0  0  0  0  0  0  0  0
   46.8890   32.6730   45.1260 C   0  0  0  0  0  0  0  0  0  0  0  0
   46.2860   33.3160   46.1820 C   0  0  0  0  0  0  0  0  0  0  0  0
   45.9960   32.6180   47.3530 C   0  0  0  0  0  0  0  0  0  0  0  0
   45.4260   32.9050   48.5610 N   0  0  0  0  0  0  0  0  0  0  0  0
   45.4210   31.7770   49.3140 C   0  0  0  0  0  0  0  0  0  0  0  0
   45.9880   30.8020   48.5640 N   0  0  0  0  0  0  0  0  0  0  0  0
   46.3490   31.2920   47.3560 C   0  0  0  0  0  0  0  0  0  0  0  0
   46.9460   30.6210   46.3310 C   0  0  0  0  0  0  0  0  0  0  0  0
   47.7070   30.8480   44.3160 H   0  0  0  0  0  0  0  0  0  0  0  0
   46.0110   34.3690   46.1630 H   0  0  0  0  0  0  0  0  0  0  0  0
   45.0750   33.8620   48.7910 H   0  0  0  0  0  0  0  0  0  0  0  0
   45.0200   31.7550   50.3130 H   0  0  0  0  0  0  0  0  0  0  0  0
   46.5780   35.1390   42.4040 C   0  0  0  0  0  0  0  0  0  0  0  0
   47.7260   34.8850   41.6470 C   0  0  0  0  0  0  0  0  0  0  0  0
   48.5950   33.8790   42.0670 C   0  0  0  0  0  0  0  0  0  0  0  0
   48.2840   33.1800   43.2090 N   0  0  0  0  0  0  0  0  0  0  0  0
   47.1740   33.4460   43.9170 C   0  0  0  0  0  0  0  0  0  0  0  0
   46.3170   34.4180   43.5270 N   0  0  0  0  0  0  0  0  0  0  0  0
   45.9210   35.9270   42.0550 H   0  0  0  0  0  0  0  0  0  0  0  0
   47.9950   35.4160   40.7500 H   0  0  0  0  0  0  0  0  0  0  0  0
   49.5030   33.6040   41.5590 H   0  0  0  0  0  0  0  0  0  0  0  0
   47.2830   29.1990   46.4430 C   0  0  0  0  0  0  0  0  0  0  0  0
   48.5530   28.6870   46.3300 C   0  0  0  0  0  0  0  0  0  0  0  0
   48.4000   27.3080   46.5010 C   0  0  0  0  0  0  0  0  0  0  0  0
   47.0600   27.0680   46.7050 C   0  0  0  0  0  0  0  0  0  0  0  0
   46.4310   28.2450   46.6600 O   0  0  0  0  0  0  0  0  0  0  0  0
   49.5050   29.1730   46.1510 H   0  0  0  0  0  0  0  0  0  0  0  0
   49.1370   26.5210   46.4900 H   0  0  0  0  0  0  0  0  0  0  0  0
   46.3290   25.8240   46.9380 C   0  0  0  0  0  0  0  0  0  0  0  0
   45.8350   25.0790   45.8630 C   0  0  0  0  0  0  0  0  0  0  0  0
   45.9150   25.3000   44.7890 H   0  0  0  0  0  0  0  0  0  0  0  0
   45.1880   23.9560   46.3400 C   0  0  0  0  0  0  0  0  0  0  0  0
   44.6810   23.1400   45.8620 H   0  0  0  0  0  0  0  0  0  0  0  0
   45.3270   24.0780   47.7060 C   0  0  0  0  0  0  0  0  0  0  0  0
   45.0030   23.4690   48.5310 H   0  0  0  0  0  0  0  0  0  0  0  0
   45.9950   25.1750   48.0280 O   0  0  0  0  0  0  0  0  0  0  0  0
  1  9  1  0  0  0  0
  2  1  2  0  0  0  0
  2  3  1  0  0  0  0
  3  4  2  0  0  0  0
  4  8  1  0  0  0  0
  4  5  1  0  0  0  0
  5 12  1  0  0  0  0
  5  6  1  0  0  0  0
  6 13  1  0  0  0  0
  7  6  2  0  0  0  0
  8  7  1  0  0  0  0
  9 23  1  0  0  0  0
  9  8  2  0  0  0  0
 10  1  1  0  0  0  0
 11  3  1  0  0  0  0
 14 19  1  0  0  0  0
 15 16  1  0  0  0  0
 15 14  2  0  0  0  0
 16 17  2  0  0  0  0
 17 18  1  0  0  0  0
 18  2  1  0  0  0  0
 19 18  2  0  0  0  0
 20 14  1  0  0  0  0
 21 15  1  0  0  0  0
 22 16  1  0  0  0  0
 23 27  1  0  0  0  0
 24 23  2  0  0  0  0
 24 25  1  0  0  0  0
 25 26  2  0  0  0  0
 26 30  1  0  0  0  0
 27 26  1  0  0  0  0
 28 24  1  0  0  0  0
 29 25  1  0  0  0  0
 30 37  1  0  0  0  0
 31 33  1  0  0  0  0
 31 30  2  0  0  0  0
 32 31  1  0  0  0  0
 33 35  2  0  0  0  0
 34 33  1  0  0  0  0
 35 37  1  0  0  0  0
 35 36  1  0  0  0  0
M  END
>  <minimizedAffinity>
-5.39887905

>  <minimizedRMSD>
0.446903676

$$$$
