
 OpenBabel03252504143D

 34 36  0  0  0  0  0  0  0  0999 V2000
   47.6200   30.0400   44.8770 F   0  0  0  0  0  0  0  0  0  0  0  0
   47.5070   30.7990   46.0150 C   0  0  0  0  0  0  0  0  0  0  0  0
   46.9360   32.0470   45.9440 C   0  0  0  0  0  0  0  0  0  0  0  0
   46.8620   32.7480   47.1480 C   0  0  0  0  0  0  0  0  0  0  0  0
   47.3310   32.2150   48.3250 C   0  0  0  0  0  0  0  0  0  0  0  0
   47.8930   30.9490   48.3160 C   0  0  0  0  0  0  0  0  0  0  0  0
   47.9980   30.2030   47.1580 C   0  0  0  0  0  0  0  0  0  0  0  0
   46.4160   33.7450   47.1440 H   0  0  0  0  0  0  0  0  0  0  0  0
   47.2720   32.7580   49.2520 H   0  0  0  0  0  0  0  0  0  0  0  0
   48.2710   30.5080   49.2300 H   0  0  0  0  0  0  0  0  0  0  0  0
   48.5890   28.8680   47.1400 C   0  0  0  0  0  0  0  0  0  0  0  0
   47.8790   27.7170   47.4130 C   0  0  0  0  0  0  0  0  0  0  0  0
   46.8450   27.6610   47.6620 H   0  0  0  0  0  0  0  0  0  0  0  0
   48.8440   26.7200   47.2760 C   0  0  0  0  0  0  0  0  0  0  0  0
   48.6510   25.6550   47.4190 H   0  0  0  0  0  0  0  0  0  0  0  0
   50.0550   27.3020   46.9370 C   0  0  0  0  0  0  0  0  0  0  0  0
   51.0060   26.8180   46.7560 H   0  0  0  0  0  0  0  0  0  0  0  0
   49.8230   28.5980   46.8730 O   0  0  0  0  0  0  0  0  0  0  0  0
   46.7490   34.1460   42.9810 C   0  0  0  0  0  0  0  0  0  0  0  0
   45.5850   33.7270   42.3330 C   0  0  0  0  0  0  0  0  0  0  0  0
   44.8560   32.6930   42.9470 C   0  0  0  0  0  0  0  0  0  0  0  0
   45.3000   32.1560   44.1120 N   0  0  0  0  0  0  0  0  0  0  0  0
   46.4390   32.6070   44.6920 C   0  0  0  0  0  0  0  0  0  0  0  0
   47.1610   33.6010   44.1280 N   0  0  0  0  0  0  0  0  0  0  0  0
   43.9500   32.3460   42.4680 H   0  0  0  0  0  0  0  0  0  0  0  0
   45.1720   34.3640   41.0670 C   0  0  0  0  0  0  0  0  0  0  0  0
   44.8800   35.6900   41.2830 F   0  0  0  0  0  0  0  0  0  0  0  0
   46.2540   34.3180   40.1960 F   0  0  0  0  0  0  0  0  0  0  0  0
   44.1100   33.7820   40.4630 F   0  0  0  0  0  0  0  0  0  0  0  0
   47.4530   35.1490   42.3860 O   0  0  0  0  0  0  0  0  0  0  0  0
   48.7640   35.0610   41.8650 C   0  0  0  0  0  0  0  0  0  0  0  0
   49.6300   35.3610   42.9220 F   0  0  0  0  0  0  0  0  0  0  0  0
   48.9850   33.8220   41.3260 F   0  0  0  0  0  0  0  0  0  0  0  0
   48.9730   36.0750   40.9570 F   0  0  0  0  0  0  0  0  0  0  0  0
  1  2  1  0  0  0  0
  2  7  1  0  0  0  0
  3  2  2  0  0  0  0
  3  4  1  0  0  0  0
  4  5  2  0  0  0  0
  5  9  1  0  0  0  0
  6  5  1  0  0  0  0
  6 10  1  0  0  0  0
  7  6  2  0  0  0  0
  8  4  1  0  0  0  0
 11  7  1  0  0  0  0
 11 12  2  0  0  0  0
 12 13  1  0  0  0  0
 14 12  1  0  0  0  0
 14 15  1  0  0  0  0
 16 14  2  0  0  0  0
 17 16  1  0  0  0  0
 18 16  1  0  0  0  0
 18 11  1  0  0  0  0
 19 24  1  0  0  0  0
 20 21  1  0  0  0  0
 20 19  2  0  0  0  0
 21 22  2  0  0  0  0
 22 23  1  0  0  0  0
 23  3  1  0  0  0  0
 24 23  2  0  0  0  0
 25 21  1  0  0  0  0
 26 27  1  0  0  0  0
 26 20  1  0  0  0  0
 28 26  1  0  0  0  0
 29 26  1  0  0  0  0
 30 19  1  0  0  0  0
 31 30  1  0  0  0  0
 31 32  1  0  0  0  0
 33 31  1  0  0  0  0
 34 31  1  0  0  0  0
M  END
>  <minimizedAffinity>
-5.50199223

>  <minimizedRMSD>
0.221108213

$$$$
