
 OpenBabel03252508543D

 42 45  0  0  1  0  0  0  0  0999 V2000
   43.2860   34.4160   40.7090 C   0  0  0  0  0  0  0  0  0  0  0  0
   43.2460   35.5650   40.1870 O   0  0  0  0  0  0  0  0  0  0  0  0
   41.9190   34.0020   40.5010 N   0  0  0  0  0  0  0  0  0  0  0  0
   41.4850   33.9380   39.1230 C   0  0  0  0  0  0  0  0  0  0  0  0
   40.7030   35.2460   38.8930 C   0  0  0  0  0  0  0  0  0  0  0  0
   39.9600   35.5240   40.1900 C   0  0  0  0  0  0  0  0  0  0  0  0
   39.6050   34.2290   40.9270 C   0  0  0  0  0  0  0  0  0  0  0  0
   40.8900   33.6350   41.4750 C   0  0  1  0  0  0  0  0  0  0  0  0
   40.8100   33.0630   38.9800 H   0  0  0  0  0  0  0  0  0  0  0  0
   42.3110   33.9180   38.4070 H   0  0  0  0  0  0  0  0  0  0  0  0
   41.4330   36.0620   38.6940 H   0  0  0  0  0  0  0  0  0  0  0  0
   39.9650   35.1100   38.0830 H   0  0  0  0  0  0  0  0  0  0  0  0
   39.0760   36.1430   40.0300 H   0  0  0  0  0  0  0  0  0  0  0  0
   40.6270   36.1030   40.8870 H   0  0  0  0  0  0  0  0  0  0  0  0
   39.1630   33.5200   40.2320 H   0  0  0  0  0  0  0  0  0  0  0  0
   38.9480   34.5560   41.7590 H   0  0  0  0  0  0  0  0  0  0  0  0
   41.1350   34.2210   42.3910 H   0  0  0  0  0  0  0  0  0  0  0  0
   40.8280   32.1930   41.7020 C   0  0  0  0  0  0  0  0  0  0  0  0
   41.8550   31.3270   42.0410 C   0  0  0  0  0  0  0  0  0  0  0  0
   42.8870   31.5860   42.1960 H   0  0  0  0  0  0  0  0  0  0  0  0
   41.2550   30.0870   42.1320 C   0  0  0  0  0  0  0  0  0  0  0  0
   41.7280   29.1440   42.3780 H   0  0  0  0  0  0  0  0  0  0  0  0
   39.9000   30.2830   41.8410 C   0  0  0  0  0  0  0  0  0  0  0  0
   39.1500   29.4960   41.8280 H   0  0  0  0  0  0  0  0  0  0  0  0
   39.6660   31.5660   41.5840 O   0  0  0  0  0  0  0  0  0  0  0  0
   44.3520   33.7780   41.2970 O   0  0  0  0  0  0  0  0  0  0  0  0
   45.6810   34.1050   41.1330 C   0  0  0  0  0  0  0  0  0  0  0  0
   46.3340   34.7350   42.2040 C   0  0  0  0  0  0  0  0  0  0  0  0
   47.6920   35.0520   41.9980 C   0  0  0  0  0  0  0  0  0  0  0  0
   48.2750   34.7320   40.7980 N   0  0  0  0  0  0  0  0  0  0  0  0
   47.5990   34.1370   39.8300 C   0  0  0  0  0  0  0  0  0  0  0  0
   46.3000   33.8130   39.9760 N   0  0  0  0  0  0  0  0  0  0  0  0
   48.2250   35.5370   42.7980 H   0  0  0  0  0  0  0  0  0  0  0  0
   48.0430   33.8760   38.8730 H   0  0  0  0  0  0  0  0  0  0  0  0
   45.6200   35.0240   43.4240 C   0  0  0  0  0  0  0  0  0  0  0  0
   44.9880   36.2450   43.6450 C   0  0  0  0  0  0  0  0  0  0  0  0
   44.4420   36.0970   44.9040 C   0  0  0  0  0  0  0  0  0  0  0  0
   44.7240   34.8740   45.4040 N   0  0  0  0  0  0  0  0  0  0  0  0
   45.4370   34.2410   44.4920 N   0  0  0  0  0  0  0  0  0  0  0  0
   44.9260   37.1120   43.0060 H   0  0  0  0  0  0  0  0  0  0  0  0
   43.8530   36.8540   45.4480 H   0  0  0  0  0  0  0  0  0  0  0  0
   44.4710   34.4290   46.3200 H   0  0  0  0  0  0  0  0  0  0  0  0
  1 26  1  0  0  0  0
  2  1  2  0  0  0  0
  3  1  1  0  0  0  0
  3  8  1  0  0  0  0
  4  3  1  0  0  0  0
  5  4  1  0  0  0  0
  5  6  1  0  0  0  0
  6 14  1  0  0  0  0
  6  7  1  0  0  0  0
  7  8  1  0  0  0  0
  7 16  1  0  0  0  0
  8 18  1  0  0  0  0
  8 17  1  1  0  0  0
  9  4  1  0  0  0  0
 10  4  1  0  0  0  0
 11  5  1  0  0  0  0
 12  5  1  0  0  0  0
 13  6  1  0  0  0  0
 15  7  1  0  0  0  0
 18 19  2  0  0  0  0
 19 21  1  0  0  0  0
 19 20  1  0  0  0  0
 21 22  1  0  0  0  0
 23 21  2  0  0  0  0
 24 23  1  0  0  0  0
 25 18  1  0  0  0  0
 25 23  1  0  0  0  0
 27 26  1  0  0  0  0
 27 28  1  0  0  0  0
 28 35  1  0  0  0  0
 29 28  2  0  0  0  0
 29 33  1  0  0  0  0
 30 29  1  0  0  0  0
 31 32  1  0  0  0  0
 31 30  2  0  0  0  0
 32 27  2  0  0  0  0
 34 31  1  0  0  0  0
 35 36  1  0  0  0  0
 35 39  2  0  0  0  0
 36 37  2  0  0  0  0
 37 38  1  0  0  0  0
 37 41  1  0  0  0  0
 38 42  1  0  0  0  0
 39 38  1  0  0  0  0
 40 36  1  0  0  0  0
M  END
>  <minimizedAffinity>
-6.56506634

>  <minimizedRMSD>
0.502190351

$$$$
