
 OpenBabel03242522043D

 34 36  0  0  1  0  0  0  0  0999 V2000
   38.7760   30.3760   40.6250 N   0  0  0  0  0  0  0  0  0  0  0  0
   39.4680   30.0270   39.3940 C   0  0  0  0  0  0  0  0  0  0  0  0
   40.3180   31.1660   38.9020 C   0  0  0  0  0  0  0  0  0  0  0  0
   39.6340   32.4130   38.8120 N   0  0  0  0  0  0  0  0  0  0  0  0
   38.6820   32.6890   39.8230 C   0  0  2  0  0  0  0  0  0  0  0  0
   38.5610   31.7440   40.9590 C   0  0  0  0  0  0  0  0  0  0  0  0
   38.7410   29.7290   38.5930 H   0  0  0  0  0  0  0  0  0  0  0  0
   40.1360   29.1740   39.6160 H   0  0  0  0  0  0  0  0  0  0  0  0
   41.1650   31.2640   39.6210 H   0  0  0  0  0  0  0  0  0  0  0  0
   40.7330   30.8770   37.9250 H   0  0  0  0  0  0  0  0  0  0  0  0
   40.3450   33.1600   38.6930 H   0  0  0  0  0  0  0  0  0  0  0  0
   38.9120   33.7030   40.2340 H   0  0  0  0  0  0  0  0  0  0  0  0
   39.2330   32.0590   41.7940 H   0  0  0  0  0  0  0  0  0  0  0  0
   37.5240   31.8320   41.3780 H   0  0  0  0  0  0  0  0  0  0  0  0
   37.7970   28.3680   43.6370 C   0  0  0  0  0  0  0  0  0  0  0  0
   38.2750   29.4470   42.8910 C   0  0  0  0  0  0  0  0  0  0  0  0
   38.3110   29.3490   41.4990 C   0  0  0  0  0  0  0  0  0  0  0  0
   37.8680   28.1840   40.9790 N   0  0  0  0  0  0  0  0  0  0  0  0
   37.4080   27.1470   41.6970 C   0  0  0  0  0  0  0  0  0  0  0  0
   37.3750   27.2500   43.0520 N   0  0  0  0  0  0  0  0  0  0  0  0
   37.7740   28.4580   44.7240 H   0  0  0  0  0  0  0  0  0  0  0  0
   38.6250   30.3680   43.3270 H   0  0  0  0  0  0  0  0  0  0  0  0
   36.9770   25.9830   40.9310 C   0  0  0  0  0  0  0  0  0  0  0  0
   36.9740   24.7590   41.6020 C   0  0  0  0  0  0  0  0  0  0  0  0
   37.2290   24.4560   42.6090 H   0  0  0  0  0  0  0  0  0  0  0  0
   36.5330   23.7980   40.6850 C   0  0  0  0  0  0  0  0  0  0  0  0
   36.3780   22.7180   40.7810 H   0  0  0  0  0  0  0  0  0  0  0  0
   36.2960   24.5170   39.5090 C   0  0  0  0  0  0  0  0  0  0  0  0
   35.9430   24.1250   38.5670 H   0  0  0  0  0  0  0  0  0  0  0  0
   36.5640   25.7820   39.6840 O   0  0  0  0  0  0  0  0  0  0  0  0
   37.3060   32.7880   39.1650 C   0  0  0  0  0  0  0  0  0  0  0  0
   36.8640   34.1150   39.2240 F   0  0  0  0  0  0  0  0  0  0  0  0
   36.4490   32.0710   39.9860 F   0  0  0  0  0  0  0  0  0  0  0  0
   37.3050   32.3780   37.8720 F   0  0  0  0  0  0  0  0  0  0  0  0
  1  6  1  0  0  0  0
  1 17  1  0  0  0  0
  2  8  1  0  0  0  0
  2  1  1  0  0  0  0
  3  2  1  0  0  0  0
  3  9  1  0  0  0  0
  4  3  1  0  0  0  0
  4  5  1  0  0  0  0
  5 12  1  1  0  0  0
  5  6  1  0  0  0  0
  6 14  1  0  0  0  0
  6 13  1  0  0  0  0
  7  2  1  0  0  0  0
 10  3  1  0  0  0  0
 11  4  1  0  0  0  0
 15 21  1  0  0  0  0
 16 22  1  0  0  0  0
 16 15  2  0  0  0  0
 17 16  1  0  0  0  0
 18 17  2  0  0  0  0
 18 19  1  0  0  0  0
 19 20  2  0  0  0  0
 20 15  1  0  0  0  0
 23 24  2  0  0  0  0
 23 19  1  0  0  0  0
 24 25  1  0  0  0  0
 26 27  1  0  0  0  0
 26 24  1  0  0  0  0
 28 30  1  0  0  0  0
 28 26  2  0  0  0  0
 29 28  1  0  0  0  0
 30 23  1  0  0  0  0
 31 32  1  0  0  0  0
 31  5  1  0  0  0  0
 31 33  1  0  0  0  0
 34 31  1  0  0  0  0
M  END
>  <minimizedAffinity>
-5.49263

$$$$

 OpenBabel03242522043D

 34 36  0  0  1  0  0  0  0  0999 V2000
   38.1490   27.6910   41.9170 N   0  0  0  0  0  0  0  0  0  0  0  0
   38.3860   27.4820   43.3370 C   0  0  0  0  0  0  0  0  0  0  0  0
   39.4020   26.3970   43.5690 C   0  0  0  0  0  0  0  0  0  0  0  0
   39.1360   25.1830   42.8720 N   0  0  0  0  0  0  0  0  0  0  0  0
   38.5850   25.3050   41.5730 C   0  0  2  0  0  0  0  0  0  0  0  0
   38.4530   26.6580   40.9830 C   0  0  0  0  0  0  0  0  0  0  0  0
   37.4330   27.2220   43.8710 H   0  0  0  0  0  0  0  0  0  0  0  0
   38.7900   28.4230   43.7520 H   0  0  0  0  0  0  0  0  0  0  0  0
   40.3840   26.8050   43.2310 H   0  0  0  0  0  0  0  0  0  0  0  0
   39.4620   26.2210   44.6530 H   0  0  0  0  0  0  0  0  0  0  0  0
   39.9920   24.5980   42.9090 H   0  0  0  0  0  0  0  0  0  0  0  0
   39.2080   24.6820   40.8850 H   0  0  0  0  0  0  0  0  0  0  0  0
   39.3680   26.9120   40.3950 H   0  0  0  0  0  0  0  0  0  0  0  0
   37.6250   26.6310   40.2270 H   0  0  0  0  0  0  0  0  0  0  0  0
   35.8630   30.4220   40.7440 C   0  0  0  0  0  0  0  0  0  0  0  0
   36.2620   29.1620   41.1920 C   0  0  0  0  0  0  0  0  0  0  0  0
   37.6130   28.9300   41.4570 C   0  0  0  0  0  0  0  0  0  0  0  0
   38.4410   29.9770   41.2510 N   0  0  0  0  0  0  0  0  0  0  0  0
   38.0560   31.1890   40.8200 C   0  0  0  0  0  0  0  0  0  0  0  0
   36.7390   31.4070   40.5650 N   0  0  0  0  0  0  0  0  0  0  0  0
   34.8030   30.5890   40.5420 H   0  0  0  0  0  0  0  0  0  0  0  0
   35.5840   28.3400   41.3500 H   0  0  0  0  0  0  0  0  0  0  0  0
   39.1180   32.1770   40.6660 C   0  0  0  0  0  0  0  0  0  0  0  0
   38.7900   33.3440   39.9740 C   0  0  0  0  0  0  0  0  0  0  0  0
   37.8870   33.7060   39.5010 H   0  0  0  0  0  0  0  0  0  0  0  0
   39.9450   34.1350   39.9480 C   0  0  0  0  0  0  0  0  0  0  0  0
   40.1410   35.1220   39.5170 H   0  0  0  0  0  0  0  0  0  0  0  0
   40.9020   33.3810   40.6350 C   0  0  0  0  0  0  0  0  0  0  0  0
   41.9290   33.6550   40.8290 H   0  0  0  0  0  0  0  0  0  0  0  0
   40.3920   32.2500   41.0390 O   0  0  0  0  0  0  0  0  0  0  0  0
   37.1910   24.6770   41.5880 C   0  0  0  0  0  0  0  0  0  0  0  0
   37.3040   23.3050   41.3350 F   0  0  0  0  0  0  0  0  0  0  0  0
   36.5330   25.2070   40.4880 F   0  0  0  0  0  0  0  0  0  0  0  0
   36.5390   24.8580   42.7630 F   0  0  0  0  0  0  0  0  0  0  0  0
  1  2  1  0  0  0  0
  2  3  1  0  0  0  0
  2  8  1  0  0  0  0
  2  7  1  0  0  0  0
  3 10  1  0  0  0  0
  4 11  1  0  0  0  0
  4  3  1  0  0  0  0
  5 12  1  6  0  0  0
  5 31  1  0  0  0  0
  5  4  1  0  0  0  0
  6  5  1  0  0  0  0
  6  1  1  0  0  0  0
  9  3  1  0  0  0  0
 13  6  1  0  0  0  0
 14  6  1  0  0  0  0
 15 16  1  0  0  0  0
 16 22  1  0  0  0  0
 16 17  2  0  0  0  0
 17  1  1  0  0  0  0
 18 17  1  0  0  0  0
 19 18  2  0  0  0  0
 20 15  2  0  0  0  0
 20 19  1  0  0  0  0
 21 15  1  0  0  0  0
 23 19  1  0  0  0  0
 23 30  1  0  0  0  0
 24 23  2  0  0  0  0
 25 24  1  0  0  0  0
 26 24  1  0  0  0  0
 26 28  2  0  0  0  0
 27 26  1  0  0  0  0
 28 29  1  0  0  0  0
 28 30  1  0  0  0  0
 31 34  1  0  0  0  0
 32 31  1  0  0  0  0
 33 31  1  0  0  0  0
M  END
>  <minimizedAffinity>
-5.40644217

$$$$

 OpenBabel03242522043D

 34 36  0  0  1  0  0  0  0  0999 V2000
   38.8000   30.6830   39.2300 N   0  0  0  0  0  0  0  0  0  0  0  0
   37.7090   31.4470   38.6470 C   0  0  0  0  0  0  0  0  0  0  0  0
   37.9340   31.6910   37.1800 C   0  0  0  0  0  0  0  0  0  0  0  0
   39.2140   32.2320   36.8640 N   0  0  0  0  0  0  0  0  0  0  0  0
   40.3080   31.7640   37.6300 C   0  0  2  0  0  0  0  0  0  0  0  0
   40.0770   30.6650   38.5970 C   0  0  0  0  0  0  0  0  0  0  0  0
   37.5770   32.4290   39.1730 H   0  0  0  0  0  0  0  0  0  0  0  0
   36.7850   30.8490   38.7560 H   0  0  0  0  0  0  0  0  0  0  0  0
   37.8190   30.7040   36.6730 H   0  0  0  0  0  0  0  0  0  0  0  0
   37.1310   32.3530   36.8230 H   0  0  0  0  0  0  0  0  0  0  0  0
   39.3540   32.1450   35.8390 H   0  0  0  0  0  0  0  0  0  0  0  0
   41.1050   31.4410   36.9160 H   0  0  0  0  0  0  0  0  0  0  0  0
   40.2630   29.6770   38.1080 H   0  0  0  0  0  0  0  0  0  0  0  0
   40.8550   30.7360   39.4010 H   0  0  0  0  0  0  0  0  0  0  0  0
   38.5990   29.6270   42.8230 C   0  0  0  0  0  0  0  0  0  0  0  0
   38.8400   30.4460   41.7180 C   0  0  0  0  0  0  0  0  0  0  0  0
   38.5950   29.9500   40.4370 C   0  0  0  0  0  0  0  0  0  0  0  0
   38.1320   28.6840   40.3750 N   0  0  0  0  0  0  0  0  0  0  0  0
   37.8990   27.8970   41.4380 C   0  0  0  0  0  0  0  0  0  0  0  0
   38.1410   28.3860   42.6830 N   0  0  0  0  0  0  0  0  0  0  0  0
   38.7950   30.0280   43.8190 H   0  0  0  0  0  0  0  0  0  0  0  0
   39.2110   31.4550   41.7910 H   0  0  0  0  0  0  0  0  0  0  0  0
   37.3980   26.5590   41.1420 C   0  0  0  0  0  0  0  0  0  0  0  0
   37.3320   25.6650   42.2120 C   0  0  0  0  0  0  0  0  0  0  0  0
   37.5800   25.7360   43.2630 H   0  0  0  0  0  0  0  0  0  0  0  0
   36.8300   24.4620   41.7030 C   0  0  0  0  0  0  0  0  0  0  0  0
   36.6170   23.5020   42.1820 H   0  0  0  0  0  0  0  0  0  0  0  0
   36.6240   24.7160   40.3420 C   0  0  0  0  0  0  0  0  0  0  0  0
   36.2410   24.0280   39.6030 H   0  0  0  0  0  0  0  0  0  0  0  0
   36.9630   25.9420   40.0480 O   0  0  0  0  0  0  0  0  0  0  0  0
   40.8790   32.9460   38.4140 C   0  0  0  0  0  0  0  0  0  0  0  0
   41.5650   33.7910   37.5340 F   0  0  0  0  0  0  0  0  0  0  0  0
   41.8480   32.4070   39.2460 F   0  0  0  0  0  0  0  0  0  0  0  0
   39.9280   33.6620   39.0630 F   0  0  0  0  0  0  0  0  0  0  0  0
  1 17  1  0  0  0  0
  2  8  1  0  0  0  0
  2  7  1  0  0  0  0
  2  1  1  0  0  0  0
  3  2  1  0  0  0  0
  4  3  1  0  0  0  0
  4  5  1  0  0  0  0
  5 12  1  6  0  0  0
  5 31  1  0  0  0  0
  5  6  1  0  0  0  0
  6  1  1  0  0  0  0
  6 14  1  0  0  0  0
  9  3  1  0  0  0  0
 10  3  1  0  0  0  0
 11  4  1  0  0  0  0
 13  6  1  0  0  0  0
 15 21  1  0  0  0  0
 16 22  1  0  0  0  0
 16 15  2  0  0  0  0
 17 16  1  0  0  0  0
 18 17  2  0  0  0  0
 18 19  1  0  0  0  0
 19 20  2  0  0  0  0
 20 15  1  0  0  0  0
 23 19  1  0  0  0  0
 23 24  2  0  0  0  0
 24 25  1  0  0  0  0
 26 27  1  0  0  0  0
 26 24  1  0  0  0  0
 28 26  2  0  0  0  0
 29 28  1  0  0  0  0
 30 28  1  0  0  0  0
 30 23  1  0  0  0  0
 31 34  1  0  0  0  0
 31 33  1  0  0  0  0
 32 31  1  0  0  0  0
M  END
>  <minimizedAffinity>
-5.3464756

$$$$

 OpenBabel03242522043D

 34 36  0  0  1  0  0  0  0  0999 V2000
   37.9350   30.9210   40.7940 N   0  0  0  0  0  0  0  0  0  0  0  0
   39.0180   31.8700   41.0030 C   0  0  0  0  0  0  0  0  0  0  0  0
   38.6180   33.2570   40.5830 C   0  0  0  0  0  0  0  0  0  0  0  0
   38.0630   33.3380   39.2730 N   0  0  0  0  0  0  0  0  0  0  0  0
   37.2380   32.2620   38.8660 C   0  0  2  0  0  0  0  0  0  0  0  0
   36.9010   31.2130   39.8570 C   0  0  0  0  0  0  0  0  0  0  0  0
   39.9400   31.5600   40.4430 H   0  0  0  0  0  0  0  0  0  0  0  0
   39.2390   31.8910   42.0860 H   0  0  0  0  0  0  0  0  0  0  0  0
   37.8600   33.6070   41.3240 H   0  0  0  0  0  0  0  0  0  0  0  0
   39.5040   33.9030   40.6730 H   0  0  0  0  0  0  0  0  0  0  0  0
   37.6150   34.2700   39.1720 H   0  0  0  0  0  0  0  0  0  0  0  0
   36.2830   32.6980   38.4800 H   0  0  0  0  0  0  0  0  0  0  0  0
   35.9510   31.4720   40.3840 H   0  0  0  0  0  0  0  0  0  0  0  0
   36.6710   30.2670   39.3000 H   0  0  0  0  0  0  0  0  0  0  0  0
   38.2130   28.3030   43.4650 C   0  0  0  0  0  0  0  0  0  0  0  0
   38.2860   29.5600   42.8610 C   0  0  0  0  0  0  0  0  0  0  0  0
   37.9070   29.6960   41.5250 C   0  0  0  0  0  0  0  0  0  0  0  0
   37.4920   28.5660   40.9130 N   0  0  0  0  0  0  0  0  0  0  0  0
   37.4220   27.3580   41.4940 C   0  0  0  0  0  0  0  0  0  0  0  0
   37.7920   27.2330   42.7960 N   0  0  0  0  0  0  0  0  0  0  0  0
   38.5120   28.2120   44.5100 H   0  0  0  0  0  0  0  0  0  0  0  0
   38.6200   30.4490   43.3690 H   0  0  0  0  0  0  0  0  0  0  0  0
   36.9430   26.2710   40.6470 C   0  0  0  0  0  0  0  0  0  0  0  0
   36.9940   24.9860   41.1910 C   0  0  0  0  0  0  0  0  0  0  0  0
   37.3220   24.5880   42.1420 H   0  0  0  0  0  0  0  0  0  0  0  0
   36.4930   24.1160   40.2160 C   0  0  0  0  0  0  0  0  0  0  0  0
   36.3500   23.0300   40.2140 H   0  0  0  0  0  0  0  0  0  0  0  0
   36.1690   24.9450   39.1370 C   0  0  0  0  0  0  0  0  0  0  0  0
   35.7510   24.6450   38.1880 H   0  0  0  0  0  0  0  0  0  0  0  0
   36.4430   26.1900   39.4180 O   0  0  0  0  0  0  0  0  0  0  0  0
   37.9110   31.5700   37.6810 C   0  0  0  0  0  0  0  0  0  0  0  0
   37.4420   32.1390   36.4910 F   0  0  0  0  0  0  0  0  0  0  0  0
   37.4300   30.2690   37.6880 F   0  0  0  0  0  0  0  0  0  0  0  0
   39.2640   31.6600   37.7120 F   0  0  0  0  0  0  0  0  0  0  0  0
  1  2  1  0  0  0  0
  1 17  1  0  0  0  0
  2  8  1  0  0  0  0
  3 10  1  0  0  0  0
  3  2  1  0  0  0  0
  3  9  1  0  0  0  0
  4  3  1  0  0  0  0
  5 12  1  6  0  0  0
  5  4  1  0  0  0  0
  5  6  1  0  0  0  0
  6 13  1  0  0  0  0
  6  1  1  0  0  0  0
  7  2  1  0  0  0  0
 11  4  1  0  0  0  0
 14  6  1  0  0  0  0
 15 21  1  0  0  0  0
 16 22  1  0  0  0  0
 16 15  1  0  0  0  0
 17 16  2  0  0  0  0
 18 19  2  0  0  0  0
 18 17  1  0  0  0  0
 19 20  1  0  0  0  0
 20 15  2  0  0  0  0
 23 24  2  0  0  0  0
 23 19  1  0  0  0  0
 24 25  1  0  0  0  0
 26 24  1  0  0  0  0
 27 26  1  0  0  0  0
 28 30  1  0  0  0  0
 28 26  2  0  0  0  0
 29 28  1  0  0  0  0
 30 23  1  0  0  0  0
 31 33  1  0  0  0  0
 31 34  1  0  0  0  0
 31  5  1  0  0  0  0
 32 31  1  0  0  0  0
M  END
>  <minimizedAffinity>
-5.34543037

$$$$

 OpenBabel03242522043D

 34 36  0  0  1  0  0  0  0  0999 V2000
   37.8070   30.0430   40.0730 N   0  0  0  0  0  0  0  0  0  0  0  0
   36.6380   30.1120   39.2100 C   0  0  0  0  0  0  0  0  0  0  0  0
   36.9920   30.6460   37.8490 C   0  0  0  0  0  0  0  0  0  0  0  0
   37.7330   31.8630   37.8690 N   0  0  0  0  0  0  0  0  0  0  0  0
   38.6880   32.0070   38.9040 C   0  0  2  0  0  0  0  0  0  0  0  0
   38.9470   30.8530   39.7960 C   0  0  0  0  0  0  0  0  0  0  0  0
   35.8380   30.7540   39.6660 H   0  0  0  0  0  0  0  0  0  0  0  0
   36.2530   29.0840   39.0850 H   0  0  0  0  0  0  0  0  0  0  0  0
   37.6000   29.8560   37.3480 H   0  0  0  0  0  0  0  0  0  0  0  0
   36.0570   30.7660   37.2820 H   0  0  0  0  0  0  0  0  0  0  0  0
   38.1200   32.0180   36.9180 H   0  0  0  0  0  0  0  0  0  0  0  0
   39.6550   32.3060   38.4290 H   0  0  0  0  0  0  0  0  0  0  0  0
   39.7840   30.2340   39.3910 H   0  0  0  0  0  0  0  0  0  0  0  0
   39.3290   31.2450   40.7750 H   0  0  0  0  0  0  0  0  0  0  0  0
   37.7150   28.6140   43.5390 C   0  0  0  0  0  0  0  0  0  0  0  0
   37.6920   29.5750   42.5250 C   0  0  0  0  0  0  0  0  0  0  0  0
   37.8140   29.1650   41.1970 C   0  0  0  0  0  0  0  0  0  0  0  0
   37.9480   27.8360   41.0010 N   0  0  0  0  0  0  0  0  0  0  0  0
   37.9700   26.9130   41.9760 C   0  0  0  0  0  0  0  0  0  0  0  0
   37.8500   27.3190   43.2670 N   0  0  0  0  0  0  0  0  0  0  0  0
   37.6180   28.9490   44.5730 H   0  0  0  0  0  0  0  0  0  0  0  0
   37.5840   30.6310   42.7050 H   0  0  0  0  0  0  0  0  0  0  0  0
   38.1240   25.5300   41.5390 C   0  0  0  0  0  0  0  0  0  0  0  0
   36.9510   24.7830   41.4030 C   0  0  0  0  0  0  0  0  0  0  0  0
   35.9020   25.0020   41.5530 H   0  0  0  0  0  0  0  0  0  0  0  0
   37.3340   23.5040   40.9810 C   0  0  0  0  0  0  0  0  0  0  0  0
   36.7490   22.6080   40.7520 H   0  0  0  0  0  0  0  0  0  0  0  0
   38.7290   23.5680   40.8900 C   0  0  0  0  0  0  0  0  0  0  0  0
   39.3980   22.7740   40.5930 H   0  0  0  0  0  0  0  0  0  0  0  0
   39.1560   24.7560   41.2210 O   0  0  0  0  0  0  0  0  0  0  0  0
   38.2570   33.1780   39.7880 C   0  0  0  0  0  0  0  0  0  0  0  0
   37.0630   33.7130   39.2890 F   0  0  0  0  0  0  0  0  0  0  0  0
   39.2160   34.1610   39.5970 F   0  0  0  0  0  0  0  0  0  0  0  0
   38.0760   32.8260   41.0850 F   0  0  0  0  0  0  0  0  0  0  0  0
  1 17  1  0  0  0  0
  2  7  1  0  0  0  0
  2  1  1  0  0  0  0
  3  4  1  0  0  0  0
  3  2  1  0  0  0  0
  4  5  1  0  0  0  0
  5 12  1  6  0  0  0
  5 31  1  0  0  0  0
  5  6  1  0  0  0  0
  6  1  1  0  0  0  0
  6 14  1  0  0  0  0
  8  2  1  0  0  0  0
  9  3  1  0  0  0  0
 10  3  1  0  0  0  0
 11  4  1  0  0  0  0
 13  6  1  0  0  0  0
 15 21  1  0  0  0  0
 16 22  1  0  0  0  0
 16 15  2  0  0  0  0
 17 16  1  0  0  0  0
 18 17  2  0  0  0  0
 18 19  1  0  0  0  0
 19 20  2  0  0  0  0
 20 15  1  0  0  0  0
 23 19  1  0  0  0  0
 24 23  2  0  0  0  0
 24 25  1  0  0  0  0
 26 24  1  0  0  0  0
 27 26  1  0  0  0  0
 28 26  2  0  0  0  0
 28 30  1  0  0  0  0
 29 28  1  0  0  0  0
 30 23  1  0  0  0  0
 31 34  1  0  0  0  0
 32 31  1  0  0  0  0
 33 31  1  0  0  0  0
M  END
>  <minimizedAffinity>
-5.25571966

$$$$

 OpenBabel03242522043D

 34 36  0  0  1  0  0  0  0  0999 V2000
   38.8380   30.6200   39.4040 N   0  0  0  0  0  0  0  0  0  0  0  0
   40.0690   30.5950   38.6300 C   0  0  0  0  0  0  0  0  0  0  0  0
   40.1430   31.7590   37.6810 C   0  0  0  0  0  0  0  0  0  0  0  0
   38.9850   31.9300   36.8680 N   0  0  0  0  0  0  0  0  0  0  0  0
   37.7370   31.6520   37.4740 C   0  0  2  0  0  0  0  0  0  0  0  0
   37.7060   31.3410   38.9230 C   0  0  0  0  0  0  0  0  0  0  0  0
   40.1620   29.6360   38.0530 H   0  0  0  0  0  0  0  0  0  0  0  0
   40.9130   30.6770   39.3390 H   0  0  0  0  0  0  0  0  0  0  0  0
   40.2870   32.6710   38.3090 H   0  0  0  0  0  0  0  0  0  0  0  0
   41.0410   31.6290   37.0600 H   0  0  0  0  0  0  0  0  0  0  0  0
   39.0370   32.8710   36.4300 H   0  0  0  0  0  0  0  0  0  0  0  0
   37.0710   32.5300   37.2910 H   0  0  0  0  0  0  0  0  0  0  0  0
   37.5520   32.2770   39.5140 H   0  0  0  0  0  0  0  0  0  0  0  0
   36.7960   30.7190   39.1280 H   0  0  0  0  0  0  0  0  0  0  0  0
   38.8550   29.7170   43.0440 C   0  0  0  0  0  0  0  0  0  0  0  0
   38.9570   30.5090   41.8990 C   0  0  0  0  0  0  0  0  0  0  0  0
   38.7610   29.9240   40.6470 C   0  0  0  0  0  0  0  0  0  0  0  0
   38.4830   28.6020   40.6520 N   0  0  0  0  0  0  0  0  0  0  0  0
   38.3850   27.8420   41.7540 C   0  0  0  0  0  0  0  0  0  0  0  0
   38.5770   28.4190   42.9700 N   0  0  0  0  0  0  0  0  0  0  0  0
   39.0110   30.1880   44.0160 H   0  0  0  0  0  0  0  0  0  0  0  0
   39.1810   31.5630   41.9180 H   0  0  0  0  0  0  0  0  0  0  0  0
   38.0750   26.4340   41.5300 C   0  0  0  0  0  0  0  0  0  0  0  0
   37.0610   25.8840   42.3170 C   0  0  0  0  0  0  0  0  0  0  0  0
   36.4190   26.2780   43.0950 H   0  0  0  0  0  0  0  0  0  0  0  0
   36.9370   24.5430   41.9360 C   0  0  0  0  0  0  0  0  0  0  0  0
   36.2740   23.7460   42.2860 H   0  0  0  0  0  0  0  0  0  0  0  0
   37.8960   24.3730   40.9320 C   0  0  0  0  0  0  0  0  0  0  0  0
   38.1090   23.4680   40.3830 H   0  0  0  0  0  0  0  0  0  0  0  0
   38.5400   25.4890   40.7200 O   0  0  0  0  0  0  0  0  0  0  0  0
   37.1070   30.4670   36.7420 C   0  0  0  0  0  0  0  0  0  0  0  0
   38.0630   29.4530   36.6030 F   0  0  0  0  0  0  0  0  0  0  0  0
   36.8510   30.9180   35.4560 F   0  0  0  0  0  0  0  0  0  0  0  0
   36.0200   29.9650   37.3780 F   0  0  0  0  0  0  0  0  0  0  0  0
  1 17  1  0  0  0  0
  2  8  1  0  0  0  0
  2  1  1  0  0  0  0
  3  9  1  0  0  0  0
  3  2  1  0  0  0  0
  4  5  1  0  0  0  0
  4  3  1  0  0  0  0
  5 12  1  6  0  0  0
  5  6  1  0  0  0  0
  6 14  1  0  0  0  0
  6  1  1  0  0  0  0
  6 13  1  0  0  0  0
  7  2  1  0  0  0  0
 10  3  1  0  0  0  0
 11  4  1  0  0  0  0
 15 21  1  0  0  0  0
 16 22  1  0  0  0  0
 16 15  2  0  0  0  0
 17 18  2  0  0  0  0
 17 16  1  0  0  0  0
 18 19  1  0  0  0  0
 19 20  2  0  0  0  0
 20 15  1  0  0  0  0
 23 19  1  0  0  0  0
 23 24  2  0  0  0  0
 24 25  1  0  0  0  0
 26 27  1  0  0  0  0
 26 24  1  0  0  0  0
 28 26  2  0  0  0  0
 29 28  1  0  0  0  0
 30 28  1  0  0  0  0
 30 23  1  0  0  0  0
 31 34  1  0  0  0  0
 31  5  1  0  0  0  0
 32 31  1  0  0  0  0
 33 31  1  0  0  0  0
M  END
>  <minimizedAffinity>
-5.16223001

$$$$

 OpenBabel03242522043D

 34 36  0  0  1  0  0  0  0  0999 V2000
   36.1820   29.6650   37.2370 N   0  0  0  0  0  0  0  0  0  0  0  0
   34.7960   29.2350   37.1400 C   0  0  0  0  0  0  0  0  0  0  0  0
   34.6390   28.1100   36.1550 C   0  0  0  0  0  0  0  0  0  0  0  0
   35.2270   28.3570   34.8810 N   0  0  0  0  0  0  0  0  0  0  0  0
   36.4470   29.0750   34.8740 C   0  0  2  0  0  0  0  0  0  0  0  0
   37.0890   29.3950   36.1710 C   0  0  0  0  0  0  0  0  0  0  0  0
   34.1290   30.0880   36.8430 H   0  0  0  0  0  0  0  0  0  0  0  0
   34.4910   28.8640   38.1350 H   0  0  0  0  0  0  0  0  0  0  0  0
   35.1250   27.2160   36.6140 H   0  0  0  0  0  0  0  0  0  0  0  0
   33.5640   27.8990   36.0550 H   0  0  0  0  0  0  0  0  0  0  0  0
   35.2700   27.4560   34.3670 H   0  0  0  0  0  0  0  0  0  0  0  0
   37.1760   28.4930   34.2570 H   0  0  0  0  0  0  0  0  0  0  0  0
   37.8050   28.5850   36.4550 H   0  0  0  0  0  0  0  0  0  0  0  0
   37.7280   30.3050   36.0300 H   0  0  0  0  0  0  0  0  0  0  0  0
   37.4010   32.2760   39.6370 C   0  0  0  0  0  0  0  0  0  0  0  0
   36.9670   31.7140   38.4340 C   0  0  0  0  0  0  0  0  0  0  0  0
   36.6360   30.3590   38.3980 C   0  0  0  0  0  0  0  0  0  0  0  0
   36.7690   29.6880   39.5620 N   0  0  0  0  0  0  0  0  0  0  0  0
   37.1860   30.2300   40.7180 C   0  0  0  0  0  0  0  0  0  0  0  0
   37.5060   31.5500   40.7460 N   0  0  0  0  0  0  0  0  0  0  0  0
   37.6560   33.3370   39.6510 H   0  0  0  0  0  0  0  0  0  0  0  0
   36.8690   32.2680   37.5160 H   0  0  0  0  0  0  0  0  0  0  0  0
   37.2550   29.3220   41.8580 C   0  0  0  0  0  0  0  0  0  0  0  0
   36.4370   28.1910   41.8070 C   0  0  0  0  0  0  0  0  0  0  0  0
   35.7280   27.8110   41.0830 H   0  0  0  0  0  0  0  0  0  0  0  0
   36.6650   27.4750   42.9880 C   0  0  0  0  0  0  0  0  0  0  0  0
   36.2440   26.5370   43.3630 H   0  0  0  0  0  0  0  0  0  0  0  0
   37.6170   28.2320   43.6790 C   0  0  0  0  0  0  0  0  0  0  0  0
   38.0530   28.0080   44.6420 H   0  0  0  0  0  0  0  0  0  0  0  0
   37.9380   29.2980   42.9970 O   0  0  0  0  0  0  0  0  0  0  0  0
   36.2160   30.3970   34.1430 C   0  0  0  0  0  0  0  0  0  0  0  0
   36.8610   30.3540   32.9010 F   0  0  0  0  0  0  0  0  0  0  0  0
   36.8930   31.3550   34.8820 F   0  0  0  0  0  0  0  0  0  0  0  0
   34.9030   30.6750   33.9490 F   0  0  0  0  0  0  0  0  0  0  0  0
  1 17  1  0  0  0  0
  2  1  1  0  0  0  0
  2  8  1  0  0  0  0
  3  9  1  0  0  0  0
  3  2  1  0  0  0  0
  4  3  1  0  0  0  0
  5 12  1  6  0  0  0
  5  4  1  0  0  0  0
  5  6  1  0  0  0  0
  6 13  1  0  0  0  0
  6  1  1  0  0  0  0
  7  2  1  0  0  0  0
 10  3  1  0  0  0  0
 11  4  1  0  0  0  0
 14  6  1  0  0  0  0
 15 21  1  0  0  0  0
 15 20  1  0  0  0  0
 16 15  2  0  0  0  0
 17 16  1  0  0  0  0
 17 18  2  0  0  0  0
 18 19  1  0  0  0  0
 19 20  2  0  0  0  0
 19 23  1  0  0  0  0
 22 16  1  0  0  0  0
 23 30  1  0  0  0  0
 24 23  2  0  0  0  0
 24 26  1  0  0  0  0
 25 24  1  0  0  0  0
 26 27  1  0  0  0  0
 26 28  2  0  0  0  0
 28 29  1  0  0  0  0
 30 28  1  0  0  0  0
 31  5  1  0  0  0  0
 31 33  1  0  0  0  0
 32 31  1  0  0  0  0
 34 31  1  0  0  0  0
M  END
>  <minimizedAffinity>
-5.15082741

$$$$

 OpenBabel03242522043D

 34 36  0  0  1  0  0  0  0  0999 V2000
   37.9790   28.9700   41.0820 N   0  0  0  0  0  0  0  0  0  0  0  0
   37.3540   29.5190   42.2750 C   0  0  0  0  0  0  0  0  0  0  0  0
   38.0110   29.0010   43.5250 C   0  0  0  0  0  0  0  0  0  0  0  0
   38.1420   27.5820   43.5760 N   0  0  0  0  0  0  0  0  0  0  0  0
   38.4360   26.9280   42.3560 C   0  0  2  0  0  0  0  0  0  0  0  0
   38.7190   27.7540   41.1580 C   0  0  0  0  0  0  0  0  0  0  0  0
   36.2580   29.2800   42.3030 H   0  0  0  0  0  0  0  0  0  0  0  0
   37.4880   30.6160   42.2490 H   0  0  0  0  0  0  0  0  0  0  0  0
   39.0260   29.4630   43.5640 H   0  0  0  0  0  0  0  0  0  0  0  0
   37.4350   29.3720   44.3850 H   0  0  0  0  0  0  0  0  0  0  0  0
   38.7990   27.3490   44.3450 H   0  0  0  0  0  0  0  0  0  0  0  0
   39.3140   26.2600   42.5360 H   0  0  0  0  0  0  0  0  0  0  0  0
   39.8160   27.9520   41.0780 H   0  0  0  0  0  0  0  0  0  0  0  0
   38.4700   27.1480   40.2480 H   0  0  0  0  0  0  0  0  0  0  0  0
   36.7640   30.2290   37.7650 C   0  0  0  0  0  0  0  0  0  0  0  0
   36.7700   29.5100   38.9620 C   0  0  0  0  0  0  0  0  0  0  0  0
   37.8520   29.6470   39.8330 C   0  0  0  0  0  0  0  0  0  0  0  0
   38.8290   30.4880   39.4300 N   0  0  0  0  0  0  0  0  0  0  0  0
   38.8220   31.1790   38.2800 C   0  0  0  0  0  0  0  0  0  0  0  0
   37.7650   31.0410   37.4360 N   0  0  0  0  0  0  0  0  0  0  0  0
   35.9120   30.1130   37.0940 H   0  0  0  0  0  0  0  0  0  0  0  0
   35.9790   28.8440   39.2630 H   0  0  0  0  0  0  0  0  0  0  0  0
   39.9820   32.0330   38.0430 C   0  0  0  0  0  0  0  0  0  0  0  0
   40.2280   33.0290   38.9900 C   0  0  0  0  0  0  0  0  0  0  0  0
   39.7350   33.3320   39.9040 H   0  0  0  0  0  0  0  0  0  0  0  0
   41.3720   33.7150   38.5650 C   0  0  0  0  0  0  0  0  0  0  0  0
   41.9160   34.5600   38.9980 H   0  0  0  0  0  0  0  0  0  0  0  0
   41.7430   33.0770   37.3770 C   0  0  0  0  0  0  0  0  0  0  0  0
   42.5840   33.3180   36.7440 H   0  0  0  0  0  0  0  0  0  0  0  0
   40.9160   32.1050   37.1010 O   0  0  0  0  0  0  0  0  0  0  0  0
   37.2580   26.0160   42.0110 C   0  0  0  0  0  0  0  0  0  0  0  0
   36.7410   26.3870   40.7640 F   0  0  0  0  0  0  0  0  0  0  0  0
   36.2680   26.3220   42.9320 F   0  0  0  0  0  0  0  0  0  0  0  0
   37.5950   24.7030   41.9770 F   0  0  0  0  0  0  0  0  0  0  0  0
  1  6  1  0  0  0  0
  1  2  1  0  0  0  0
  2  7  1  0  0  0  0
  2  3  1  0  0  0  0
  3  9  1  0  0  0  0
  3  4  1  0  0  0  0
  3 10  1  0  0  0  0
  4 11  1  0  0  0  0
  5 12  1  1  0  0  0
  5  4  1  0  0  0  0
  6  5  1  0  0  0  0
  8  2  1  0  0  0  0
 13  6  1  0  0  0  0
 14  6  1  0  0  0  0
 15 16  1  0  0  0  0
 16 22  1  0  0  0  0
 16 17  2  0  0  0  0
 17  1  1  0  0  0  0
 18 17  1  0  0  0  0
 19 18  2  0  0  0  0
 20 15  2  0  0  0  0
 20 19  1  0  0  0  0
 21 15  1  0  0  0  0
 23 19  1  0  0  0  0
 23 24  2  0  0  0  0
 24 25  1  0  0  0  0
 26 24  1  0  0  0  0
 26 27  1  0  0  0  0
 28 26  2  0  0  0  0
 29 28  1  0  0  0  0
 30 28  1  0  0  0  0
 30 23  1  0  0  0  0
 31  5  1  0  0  0  0
 31 33  1  0  0  0  0
 32 31  1  0  0  0  0
 34 31  1  0  0  0  0
M  END
>  <minimizedAffinity>
-5.06484032

$$$$

 OpenBabel03242522043D

 34 36  0  0  1  0  0  0  0  0999 V2000
   39.1500   26.7860   41.9740 N   0  0  0  0  0  0  0  0  0  0  0  0
   39.2940   26.1860   43.2910 C   0  0  0  0  0  0  0  0  0  0  0  0
   39.7160   24.7460   43.1940 C   0  0  0  0  0  0  0  0  0  0  0  0
   38.9180   23.9570   42.3150 N   0  0  0  0  0  0  0  0  0  0  0  0
   38.4570   24.5910   41.1360 C   0  0  2  0  0  0  0  0  0  0  0  0
   38.9380   25.9590   40.8320 C   0  0  0  0  0  0  0  0  0  0  0  0
   38.3360   26.2560   43.8730 H   0  0  0  0  0  0  0  0  0  0  0  0
   40.0870   26.7390   43.8270 H   0  0  0  0  0  0  0  0  0  0  0  0
   40.7700   24.7480   42.8280 H   0  0  0  0  0  0  0  0  0  0  0  0
   39.7100   24.3250   44.2100 H   0  0  0  0  0  0  0  0  0  0  0  0
   39.4190   23.0650   42.1410 H   0  0  0  0  0  0  0  0  0  0  0  0
   38.7190   23.9290   40.2740 H   0  0  0  0  0  0  0  0  0  0  0  0
   39.8580   25.9120   40.2010 H   0  0  0  0  0  0  0  0  0  0  0  0
   38.1730   26.4640   40.1860 H   0  0  0  0  0  0  0  0  0  0  0  0
   39.7450   30.4490   42.5130 C   0  0  0  0  0  0  0  0  0  0  0  0
   39.7310   29.0790   42.7820 C   0  0  0  0  0  0  0  0  0  0  0  0
   39.2220   28.2030   41.8230 C   0  0  0  0  0  0  0  0  0  0  0  0
   38.7720   28.7730   40.6840 N   0  0  0  0  0  0  0  0  0  0  0  0
   38.7870   30.0900   40.4260 C   0  0  0  0  0  0  0  0  0  0  0  0
   39.2850   30.9380   41.3650 N   0  0  0  0  0  0  0  0  0  0  0  0
   40.1470   31.1230   43.2720 H   0  0  0  0  0  0  0  0  0  0  0  0
   40.0950   28.6450   43.6980 H   0  0  0  0  0  0  0  0  0  0  0  0
   38.2520   30.4910   39.1290 C   0  0  0  0  0  0  0  0  0  0  0  0
   37.2440   29.6870   38.5940 C   0  0  0  0  0  0  0  0  0  0  0  0
   36.7410   28.7900   38.9320 H   0  0  0  0  0  0  0  0  0  0  0  0
   36.8880   30.2520   37.3640 C   0  0  0  0  0  0  0  0  0  0  0  0
   36.1480   29.9550   36.6130 H   0  0  0  0  0  0  0  0  0  0  0  0
   37.7150   31.3730   37.2400 C   0  0  0  0  0  0  0  0  0  0  0  0
   37.7410   32.0760   36.4200 H   0  0  0  0  0  0  0  0  0  0  0  0
   38.4960   31.4840   38.2810 O   0  0  0  0  0  0  0  0  0  0  0  0
   36.9310   24.6480   41.1940 C   0  0  0  0  0  0  0  0  0  0  0  0
   36.5200   24.6070   42.5320 F   0  0  0  0  0  0  0  0  0  0  0  0
   36.4930   23.4580   40.6320 F   0  0  0  0  0  0  0  0  0  0  0  0
   36.4180   25.7580   40.6080 F   0  0  0  0  0  0  0  0  0  0  0  0
  1  2  1  0  0  0  0
  2  8  1  0  0  0  0
  2  7  1  0  0  0  0
  3  2  1  0  0  0  0
  3 10  1  0  0  0  0
  4  3  1  0  0  0  0
  5 12  1  6  0  0  0
  5 31  1  0  0  0  0
  5  4  1  0  0  0  0
  6  5  1  0  0  0  0
  6  1  1  0  0  0  0
  9  3  1  0  0  0  0
 11  4  1  0  0  0  0
 13  6  1  0  0  0  0
 14  6  1  0  0  0  0
 15 16  1  0  0  0  0
 15 21  1  0  0  0  0
 16 22  1  0  0  0  0
 17  1  1  0  0  0  0
 17 16  2  0  0  0  0
 18 17  1  0  0  0  0
 19 18  2  0  0  0  0
 19 20  1  0  0  0  0
 20 15  2  0  0  0  0
 23 19  1  0  0  0  0
 24 25  1  0  0  0  0
 24 23  2  0  0  0  0
 26 24  1  0  0  0  0
 27 26  1  0  0  0  0
 28 26  2  0  0  0  0
 28 30  1  0  0  0  0
 29 28  1  0  0  0  0
 30 23  1  0  0  0  0
 31 32  1  0  0  0  0
 33 31  1  0  0  0  0
 34 31  1  0  0  0  0
M  END
>  <minimizedAffinity>
-5.04641294

$$$$
