
 OpenBabel03252508553D

 42 45  0  0  1  0  0  0  0  0999 V2000
   36.1710   26.6440   38.8520 C   0  0  0  0  0  0  0  0  0  0  0  0
   36.1810   25.6940   38.0200 O   0  0  0  0  0  0  0  0  0  0  0  0
   37.1200   26.1390   39.8160 N   0  0  0  0  0  0  0  0  0  0  0  0
   38.4550   25.8950   39.3150 C   0  0  0  0  0  0  0  0  0  0  0  0
   38.5100   24.3750   39.0620 C   0  0  0  0  0  0  0  0  0  0  0  0
   37.7000   23.7340   40.1780 C   0  0  0  0  0  0  0  0  0  0  0  0
   37.7510   24.5670   41.4630 C   0  0  0  0  0  0  0  0  0  0  0  0
   36.9420   25.8310   41.2360 C   0  0  1  0  0  0  0  0  0  0  0  0
   39.2050   26.1770   40.0880 H   0  0  0  0  0  0  0  0  0  0  0  0
   38.6610   26.3940   38.3650 H   0  0  0  0  0  0  0  0  0  0  0  0
   38.0310   24.1640   38.0810 H   0  0  0  0  0  0  0  0  0  0  0  0
   39.5520   24.0160   39.1290 H   0  0  0  0  0  0  0  0  0  0  0  0
   38.0030   22.7030   40.3630 H   0  0  0  0  0  0  0  0  0  0  0  0
   36.6160   23.6960   39.8790 H   0  0  0  0  0  0  0  0  0  0  0  0
   38.7790   24.8460   41.6800 H   0  0  0  0  0  0  0  0  0  0  0  0
   37.2590   23.9280   42.2260 H   0  0  0  0  0  0  0  0  0  0  0  0
   35.8730   25.5340   41.3370 H   0  0  0  0  0  0  0  0  0  0  0  0
   37.3260   26.9450   42.0990 C   0  0  0  0  0  0  0  0  0  0  0  0
   36.7070   27.3950   43.2540 C   0  0  0  0  0  0  0  0  0  0  0  0
   35.8230   26.9830   43.7100 H   0  0  0  0  0  0  0  0  0  0  0  0
   37.4720   28.4660   43.6700 C   0  0  0  0  0  0  0  0  0  0  0  0
   37.3130   29.0890   44.5420 H   0  0  0  0  0  0  0  0  0  0  0  0
   38.5060   28.5960   42.7370 C   0  0  0  0  0  0  0  0  0  0  0  0
   39.2870   29.3510   42.7790 H   0  0  0  0  0  0  0  0  0  0  0  0
   38.3970   27.6640   41.7950 O   0  0  0  0  0  0  0  0  0  0  0  0
   35.4470   27.8110   38.8110 O   0  0  0  0  0  0  0  0  0  0  0  0
   35.8840   29.0500   39.2280 C   0  0  0  0  0  0  0  0  0  0  0  0
   36.5900   29.8370   38.3040 C   0  0  0  0  0  0  0  0  0  0  0  0
   37.0190   31.0970   38.7670 C   0  0  0  0  0  0  0  0  0  0  0  0
   36.7270   31.4660   40.0560 N   0  0  0  0  0  0  0  0  0  0  0  0
   36.0560   30.6730   40.8750 C   0  0  0  0  0  0  0  0  0  0  0  0
   35.6250   29.4600   40.4820 N   0  0  0  0  0  0  0  0  0  0  0  0
   37.5640   31.7290   38.0860 H   0  0  0  0  0  0  0  0  0  0  0  0
   35.8170   30.9470   41.8990 H   0  0  0  0  0  0  0  0  0  0  0  0
   36.8390   29.3470   36.9700 C   0  0  0  0  0  0  0  0  0  0  0  0
   35.9220   29.5090   35.9350 C   0  0  0  0  0  0  0  0  0  0  0  0
   36.5460   28.9080   34.8600 C   0  0  0  0  0  0  0  0  0  0  0  0
   37.7530   28.4200   35.2230 N   0  0  0  0  0  0  0  0  0  0  0  0
   37.9100   28.6970   36.5040 N   0  0  0  0  0  0  0  0  0  0  0  0
   34.9530   29.9830   35.9420 H   0  0  0  0  0  0  0  0  0  0  0  0
   36.1400   28.8240   33.8390 H   0  0  0  0  0  0  0  0  0  0  0  0
   38.4850   27.9110   34.6700 H   0  0  0  0  0  0  0  0  0  0  0  0
  1  3  1  0  0  0  0
  2  1  2  0  0  0  0
  3  8  1  0  0  0  0
  4  3  1  0  0  0  0
  4  9  1  0  0  0  0
  5 12  1  0  0  0  0
  5  4  1  0  0  0  0
  5  6  1  0  0  0  0
  6 13  1  0  0  0  0
  6  7  1  0  0  0  0
  7 15  1  0  0  0  0
  7 16  1  0  0  0  0
  8 17  1  1  0  0  0
  8  7  1  0  0  0  0
  8 18  1  0  0  0  0
 10  4  1  0  0  0  0
 11  5  1  0  0  0  0
 14  6  1  0  0  0  0
 18 19  2  0  0  0  0
 19 21  1  0  0  0  0
 19 20  1  0  0  0  0
 21 22  1  0  0  0  0
 23 24  1  0  0  0  0
 23 21  2  0  0  0  0
 25 18  1  0  0  0  0
 25 23  1  0  0  0  0
 26  1  1  0  0  0  0
 26 27  1  0  0  0  0
 27 32  1  0  0  0  0
 28 29  1  0  0  0  0
 28 27  2  0  0  0  0
 29 30  2  0  0  0  0
 30 31  1  0  0  0  0
 31 34  1  0  0  0  0
 32 31  2  0  0  0  0
 33 29  1  0  0  0  0
 35 28  1  0  0  0  0
 36 40  1  0  0  0  0
 36 35  1  0  0  0  0
 37 38  1  0  0  0  0
 37 36  2  0  0  0  0
 38 39  1  0  0  0  0
 39 35  2  0  0  0  0
 41 37  1  0  0  0  0
 42 38  1  0  0  0  0
M  END
>  <minimizedAffinity>
-5.86224365

$$$$

 OpenBabel03252508553D

 42 45  0  0  1  0  0  0  0  0999 V2000
   39.4690   28.9120   40.6280 C   0  0  0  0  0  0  0  0  0  0  0  0
   40.3430   28.5610   41.4690 O   0  0  0  0  0  0  0  0  0  0  0  0
   38.2880   28.3680   41.2560 N   0  0  0  0  0  0  0  0  0  0  0  0
   37.9850   28.8830   42.5740 C   0  0  0  0  0  0  0  0  0  0  0  0
   38.5100   27.8090   43.5480 C   0  0  0  0  0  0  0  0  0  0  0  0
   38.2380   26.4700   42.8820 C   0  0  0  0  0  0  0  0  0  0  0  0
   36.9990   26.5260   41.9830 C   0  0  0  0  0  0  0  0  0  0  0  0
   37.3410   27.3670   40.7660 C   0  0  1  0  0  0  0  0  0  0  0  0
   36.8830   28.9930   42.6900 H   0  0  0  0  0  0  0  0  0  0  0  0
   38.5010   29.8180   42.8060 H   0  0  0  0  0  0  0  0  0  0  0  0
   39.6060   27.9530   43.6720 H   0  0  0  0  0  0  0  0  0  0  0  0
   37.9510   27.8530   44.4990 H   0  0  0  0  0  0  0  0  0  0  0  0
   38.1630   25.6600   43.6090 H   0  0  0  0  0  0  0  0  0  0  0  0
   39.0980   26.2060   42.2050 H   0  0  0  0  0  0  0  0  0  0  0  0
   36.1800   27.0020   42.5160 H   0  0  0  0  0  0  0  0  0  0  0  0
   36.8260   25.4710   41.6850 H   0  0  0  0  0  0  0  0  0  0  0  0
   37.9370   26.7070   40.0940 H   0  0  0  0  0  0  0  0  0  0  0  0
   36.1800   27.9700   40.1170 C   0  0  0  0  0  0  0  0  0  0  0  0
   35.3020   28.9150   40.6220 C   0  0  0  0  0  0  0  0  0  0  0  0
   35.3370   29.3650   41.5990 H   0  0  0  0  0  0  0  0  0  0  0  0
   34.3960   29.1340   39.6040 C   0  0  0  0  0  0  0  0  0  0  0  0
   33.5480   29.8100   39.6110 H   0  0  0  0  0  0  0  0  0  0  0  0
   34.7850   28.3060   38.5460 C   0  0  0  0  0  0  0  0  0  0  0  0
   34.2740   28.2430   37.5890 H   0  0  0  0  0  0  0  0  0  0  0  0
   35.8680   27.6100   38.8790 O   0  0  0  0  0  0  0  0  0  0  0  0
   39.6380   29.6130   39.4580 O   0  0  0  0  0  0  0  0  0  0  0  0
   38.8730   29.4830   38.3180 C   0  0  0  0  0  0  0  0  0  0  0  0
   37.9540   30.5030   38.0310 C   0  0  0  0  0  0  0  0  0  0  0  0
   37.1910   30.3340   36.8570 C   0  0  0  0  0  0  0  0  0  0  0  0
   37.3920   29.2140   36.0910 N   0  0  0  0  0  0  0  0  0  0  0  0
   38.2770   28.2900   36.4210 C   0  0  0  0  0  0  0  0  0  0  0  0
   39.0300   28.4030   37.5320 N   0  0  0  0  0  0  0  0  0  0  0  0
   36.4750   31.0970   36.6050 H   0  0  0  0  0  0  0  0  0  0  0  0
   38.4490   27.3970   35.8280 H   0  0  0  0  0  0  0  0  0  0  0  0
   37.8280   31.6390   38.9110 C   0  0  0  0  0  0  0  0  0  0  0  0
   38.7660   32.6680   38.9370 C   0  0  0  0  0  0  0  0  0  0  0  0
   38.2700   33.5280   39.8950 C   0  0  0  0  0  0  0  0  0  0  0  0
   37.1150   33.0510   40.4090 N   0  0  0  0  0  0  0  0  0  0  0  0
   36.8650   31.9080   39.7990 N   0  0  0  0  0  0  0  0  0  0  0  0
   39.6710   32.7880   38.3600 H   0  0  0  0  0  0  0  0  0  0  0  0
   38.7310   34.4770   40.2150 H   0  0  0  0  0  0  0  0  0  0  0  0
   36.4750   33.4400   41.1450 H   0  0  0  0  0  0  0  0  0  0  0  0
  1  3  1  0  0  0  0
  1  2  2  0  0  0  0
  3  4  1  0  0  0  0
  4  9  1  0  0  0  0
  4 10  1  0  0  0  0
  4  5  1  0  0  0  0
  5 11  1  0  0  0  0
  5 12  1  0  0  0  0
  6  5  1  0  0  0  0
  6 13  1  0  0  0  0
  7 15  1  0  0  0  0
  7  6  1  0  0  0  0
  8 17  1  6  0  0  0
  8  3  1  0  0  0  0
  8  7  1  0  0  0  0
 14  6  1  0  0  0  0
 16  7  1  0  0  0  0
 18 19  2  0  0  0  0
 18  8  1  0  0  0  0
 19 20  1  0  0  0  0
 21 22  1  0  0  0  0
 21 19  1  0  0  0  0
 23 25  1  0  0  0  0
 23 21  2  0  0  0  0
 24 23  1  0  0  0  0
 25 18  1  0  0  0  0
 26  1  1  0  0  0  0
 27 26  1  0  0  0  0
 28 27  1  0  0  0  0
 28 35  1  0  0  0  0
 29 28  2  0  0  0  0
 30 31  2  0  0  0  0
 30 29  1  0  0  0  0
 31 32  1  0  0  0  0
 32 27  2  0  0  0  0
 33 29  1  0  0  0  0
 34 31  1  0  0  0  0
 35 36  1  0  0  0  0
 35 39  2  0  0  0  0
 36 37  2  0  0  0  0
 37 41  1  0  0  0  0
 37 38  1  0  0  0  0
 38 42  1  0  0  0  0
 39 38  1  0  0  0  0
 40 36  1  0  0  0  0
M  END
>  <minimizedAffinity>
-5.76832819

$$$$

 OpenBabel03252508553D

 42 45  0  0  1  0  0  0  0  0999 V2000
   37.8620   26.2510   38.8040 C   0  0  0  0  0  0  0  0  0  0  0  0
   37.8800   25.1410   38.2030 O   0  0  0  0  0  0  0  0  0  0  0  0
   37.9710   25.7950   40.1700 N   0  0  0  0  0  0  0  0  0  0  0  0
   39.1660   25.0450   40.4880 C   0  0  0  0  0  0  0  0  0  0  0  0
   38.7270   23.5680   40.4520 C   0  0  0  0  0  0  0  0  0  0  0  0
   37.3150   23.5360   41.0160 C   0  0  0  0  0  0  0  0  0  0  0  0
   37.0900   24.6510   42.0410 C   0  0  0  0  0  0  0  0  0  0  0  0
   37.0520   25.9730   41.2950 C   0  0  1  0  0  0  0  0  0  0  0  0
   39.5160   25.3110   41.5120 H   0  0  0  0  0  0  0  0  0  0  0  0
   39.9660   25.1680   39.7540 H   0  0  0  0  0  0  0  0  0  0  0  0
   38.7170   23.2300   39.3930 H   0  0  0  0  0  0  0  0  0  0  0  0
   39.3820   22.9610   41.1010 H   0  0  0  0  0  0  0  0  0  0  0  0
   37.0630   22.5600   41.4320 H   0  0  0  0  0  0  0  0  0  0  0  0
   36.5770   23.7250   40.1870 H   0  0  0  0  0  0  0  0  0  0  0  0
   37.9170   24.6740   42.7470 H   0  0  0  0  0  0  0  0  0  0  0  0
   36.0950   24.4280   42.4780 H   0  0  0  0  0  0  0  0  0  0  0  0
   36.0390   26.0380   40.8350 H   0  0  0  0  0  0  0  0  0  0  0  0
   37.3970   27.1290   42.1180 C   0  0  0  0  0  0  0  0  0  0  0  0
   36.8710   27.5050   43.3440 C   0  0  0  0  0  0  0  0  0  0  0  0
   36.1060   26.9900   43.8980 H   0  0  0  0  0  0  0  0  0  0  0  0
   37.5430   28.6640   43.6750 C   0  0  0  0  0  0  0  0  0  0  0  0
   37.4150   29.2670   44.5670 H   0  0  0  0  0  0  0  0  0  0  0  0
   38.4340   28.9160   42.6270 C   0  0  0  0  0  0  0  0  0  0  0  0
   39.1160   29.7620   42.5830 H   0  0  0  0  0  0  0  0  0  0  0  0
   38.3280   27.9730   41.6950 O   0  0  0  0  0  0  0  0  0  0  0  0
   37.7670   27.5130   38.2700 O   0  0  0  0  0  0  0  0  0  0  0  0
   36.9230   27.8980   37.2500 C   0  0  0  0  0  0  0  0  0  0  0  0
   35.9480   28.8660   37.5410 C   0  0  0  0  0  0  0  0  0  0  0  0
   35.1060   29.2330   36.4720 C   0  0  0  0  0  0  0  0  0  0  0  0
   35.2880   28.6400   35.2480 N   0  0  0  0  0  0  0  0  0  0  0  0
   36.2280   27.7340   35.0430 C   0  0  0  0  0  0  0  0  0  0  0  0
   37.0580   27.3470   36.0310 N   0  0  0  0  0  0  0  0  0  0  0  0
   34.3460   29.9730   36.6580 H   0  0  0  0  0  0  0  0  0  0  0  0
   36.3870   27.2530   34.0830 H   0  0  0  0  0  0  0  0  0  0  0  0
   35.8490   29.4230   38.8670 C   0  0  0  0  0  0  0  0  0  0  0  0
   36.5560   30.5600   39.2510 C   0  0  0  0  0  0  0  0  0  0  0  0
   36.1770   30.7420   40.5660 C   0  0  0  0  0  0  0  0  0  0  0  0
   35.3030   29.7830   40.9460 N   0  0  0  0  0  0  0  0  0  0  0  0
   35.1190   28.9970   39.9030 N   0  0  0  0  0  0  0  0  0  0  0  0
   37.2400   31.1690   38.6810 H   0  0  0  0  0  0  0  0  0  0  0  0
   36.5220   31.5480   41.2340 H   0  0  0  0  0  0  0  0  0  0  0  0
   34.8170   29.6180   41.8610 H   0  0  0  0  0  0  0  0  0  0  0  0
  1  3  1  0  0  0  0
  2  1  2  0  0  0  0
  3  4  1  0  0  0  0
  3  8  1  0  0  0  0
  4  9  1  0  0  0  0
  5  4  1  0  0  0  0
  5  6  1  0  0  0  0
  5 12  1  0  0  0  0
  6 13  1  0  0  0  0
  6  7  1  0  0  0  0
  7 16  1  0  0  0  0
  7 15  1  0  0  0  0
  8 17  1  6  0  0  0
  8  7  1  0  0  0  0
  8 18  1  0  0  0  0
 10  4  1  0  0  0  0
 11  5  1  0  0  0  0
 14  6  1  0  0  0  0
 18 19  2  0  0  0  0
 19 21  1  0  0  0  0
 19 20  1  0  0  0  0
 21 22  1  0  0  0  0
 23 21  2  0  0  0  0
 24 23  1  0  0  0  0
 25 18  1  0  0  0  0
 25 23  1  0  0  0  0
 26  1  1  0  0  0  0
 27 28  1  0  0  0  0
 27 26  1  0  0  0  0
 28 35  1  0  0  0  0
 29 33  1  0  0  0  0
 29 28  2  0  0  0  0
 30 29  1  0  0  0  0
 31 30  2  0  0  0  0
 31 32  1  0  0  0  0
 32 27  2  0  0  0  0
 34 31  1  0  0  0  0
 35 36  1  0  0  0  0
 35 39  2  0  0  0  0
 36 37  2  0  0  0  0
 37 38  1  0  0  0  0
 37 41  1  0  0  0  0
 38 42  1  0  0  0  0
 39 38  1  0  0  0  0
 40 36  1  0  0  0  0
M  END
>  <minimizedAffinity>
-5.73889685

$$$$

 OpenBabel03252508553D

 42 45  0  0  1  0  0  0  0  0999 V2000
   36.2810   29.5750   40.5960 C   0  0  0  0  0  0  0  0  0  0  0  0
   35.2820   28.8340   40.8150 O   0  0  0  0  0  0  0  0  0  0  0  0
   37.2530   28.9420   41.4560 N   0  0  0  0  0  0  0  0  0  0  0  0
   37.5490   27.5580   41.1560 C   0  0  0  0  0  0  0  0  0  0  0  0
   36.7170   26.7470   42.1690 C   0  0  0  0  0  0  0  0  0  0  0  0
   36.7390   27.5440   43.4640 C   0  0  0  0  0  0  0  0  0  0  0  0
   38.0320   28.3530   43.6080 C   0  0  0  0  0  0  0  0  0  0  0  0
   37.9920   29.4850   42.5960 C   0  0  1  0  0  0  0  0  0  0  0  0
   38.6340   27.3630   41.3150 H   0  0  0  0  0  0  0  0  0  0  0  0
   37.2370   27.2530   40.1550 H   0  0  0  0  0  0  0  0  0  0  0  0
   35.6740   26.6750   41.7890 H   0  0  0  0  0  0  0  0  0  0  0  0
   37.1880   25.7650   42.3480 H   0  0  0  0  0  0  0  0  0  0  0  0
   36.5700   26.9110   44.3360 H   0  0  0  0  0  0  0  0  0  0  0  0
   35.9030   28.2980   43.4540 H   0  0  0  0  0  0  0  0  0  0  0  0
   38.8880   27.7200   43.3880 H   0  0  0  0  0  0  0  0  0  0  0  0
   37.9910   28.7590   44.6400 H   0  0  0  0  0  0  0  0  0  0  0  0
   37.3230   30.2630   43.0320 H   0  0  0  0  0  0  0  0  0  0  0  0
   39.3090   29.9890   42.2170 C   0  0  0  0  0  0  0  0  0  0  0  0
   40.1650   29.5160   41.2350 C   0  0  0  0  0  0  0  0  0  0  0  0
   39.9900   28.6800   40.5810 H   0  0  0  0  0  0  0  0  0  0  0  0
   41.2650   30.3470   41.2960 C   0  0  0  0  0  0  0  0  0  0  0  0
   42.1590   30.3020   40.6840 H   0  0  0  0  0  0  0  0  0  0  0  0
   41.0030   31.2720   42.3130 C   0  0  0  0  0  0  0  0  0  0  0  0
   41.6780   32.0700   42.6120 H   0  0  0  0  0  0  0  0  0  0  0  0
   39.8130   31.0360   42.8560 O   0  0  0  0  0  0  0  0  0  0  0  0
   36.3730   30.6650   39.7640 O   0  0  0  0  0  0  0  0  0  0  0  0
   37.4400   31.5350   39.6850 C   0  0  0  0  0  0  0  0  0  0  0  0
   38.3570   31.3470   38.6390 C   0  0  0  0  0  0  0  0  0  0  0  0
   39.4320   32.2580   38.5910 C   0  0  0  0  0  0  0  0  0  0  0  0
   39.5120   33.2420   39.5430 N   0  0  0  0  0  0  0  0  0  0  0  0
   38.6100   33.3620   40.5030 C   0  0  0  0  0  0  0  0  0  0  0  0
   37.5650   32.5180   40.5930 N   0  0  0  0  0  0  0  0  0  0  0  0
   40.1570   32.1440   37.8030 H   0  0  0  0  0  0  0  0  0  0  0  0
   38.6570   34.1340   41.2650 H   0  0  0  0  0  0  0  0  0  0  0  0
   38.1720   30.2750   37.6920 C   0  0  0  0  0  0  0  0  0  0  0  0
   38.8820   29.0800   37.7740 C   0  0  0  0  0  0  0  0  0  0  0  0
   38.4090   28.3540   36.7000 C   0  0  0  0  0  0  0  0  0  0  0  0
   37.4790   29.0620   36.0210 N   0  0  0  0  0  0  0  0  0  0  0  0
   37.3510   30.2200   36.6380 N   0  0  0  0  0  0  0  0  0  0  0  0
   39.6280   28.7710   38.4900 H   0  0  0  0  0  0  0  0  0  0  0  0
   38.7250   27.3380   36.4140 H   0  0  0  0  0  0  0  0  0  0  0  0
   36.9180   28.8210   35.1670 H   0  0  0  0  0  0  0  0  0  0  0  0
  1  2  2  0  0  0  0
  1  3  1  0  0  0  0
  3  8  1  0  0  0  0
  4  9  1  0  0  0  0
  4  3  1  0  0  0  0
  4  5  1  0  0  0  0
  5 12  1  0  0  0  0
  5  6  1  0  0  0  0
  6  7  1  0  0  0  0
  6 13  1  0  0  0  0
  7 16  1  0  0  0  0
  8 17  1  1  0  0  0
  8  7  1  0  0  0  0
 10  4  1  0  0  0  0
 11  5  1  0  0  0  0
 14  6  1  0  0  0  0
 15  7  1  0  0  0  0
 18  8  1  0  0  0  0
 18 25  1  0  0  0  0
 19 21  1  0  0  0  0
 19 18  2  0  0  0  0
 20 19  1  0  0  0  0
 21 23  2  0  0  0  0
 22 21  1  0  0  0  0
 23 24  1  0  0  0  0
 23 25  1  0  0  0  0
 26  1  1  0  0  0  0
 27 26  1  0  0  0  0
 27 32  1  0  0  0  0
 28 27  2  0  0  0  0
 29 28  1  0  0  0  0
 29 30  2  0  0  0  0
 30 31  1  0  0  0  0
 31 32  2  0  0  0  0
 31 34  1  0  0  0  0
 33 29  1  0  0  0  0
 35 36  1  0  0  0  0
 35 28  1  0  0  0  0
 36 40  1  0  0  0  0
 37 36  2  0  0  0  0
 38 39  1  0  0  0  0
 38 37  1  0  0  0  0
 39 35  2  0  0  0  0
 41 37  1  0  0  0  0
 42 38  1  0  0  0  0
M  END
>  <minimizedAffinity>
-5.71669054

$$$$

 OpenBabel03252508553D

 42 45  0  0  1  0  0  0  0  0999 V2000
   39.8990   29.9080   39.5930 C   0  0  0  0  0  0  0  0  0  0  0  0
   40.0270   30.7190   38.6320 O   0  0  0  0  0  0  0  0  0  0  0  0
   38.4820   30.0370   39.8390 N   0  0  0  0  0  0  0  0  0  0  0  0
   37.6180   29.6830   38.7340 C   0  0  0  0  0  0  0  0  0  0  0  0
   37.2230   31.0280   38.0940 C   0  0  0  0  0  0  0  0  0  0  0  0
   37.0670   32.0110   39.2440 C   0  0  0  0  0  0  0  0  0  0  0  0
   36.6140   31.3100   40.5290 C   0  0  0  0  0  0  0  0  0  0  0  0
   37.7750   30.4770   41.0420 C   0  0  1  0  0  0  0  0  0  0  0  0
   36.7100   29.1650   39.1180 H   0  0  0  0  0  0  0  0  0  0  0  0
   38.1160   29.0870   37.9660 H   0  0  0  0  0  0  0  0  0  0  0  0
   38.0500   31.3570   37.4270 H   0  0  0  0  0  0  0  0  0  0  0  0
   36.2530   30.9320   37.5750 H   0  0  0  0  0  0  0  0  0  0  0  0
   36.4020   32.8360   38.9890 H   0  0  0  0  0  0  0  0  0  0  0  0
   38.0660   32.4720   39.4800 H   0  0  0  0  0  0  0  0  0  0  0  0
   35.7800   30.6480   40.3120 H   0  0  0  0  0  0  0  0  0  0  0  0
   36.3950   32.1390   41.2330 H   0  0  0  0  0  0  0  0  0  0  0  0
   38.4690   31.1910   41.5430 H   0  0  0  0  0  0  0  0  0  0  0  0
   37.3730   29.3580   41.8910 C   0  0  0  0  0  0  0  0  0  0  0  0
   36.5870   28.2640   41.5630 C   0  0  0  0  0  0  0  0  0  0  0  0
   36.1380   28.0620   40.6070 H   0  0  0  0  0  0  0  0  0  0  0  0
   36.5200   27.5190   42.7230 C   0  0  0  0  0  0  0  0  0  0  0  0
   35.9940   26.5830   42.8740 H   0  0  0  0  0  0  0  0  0  0  0  0
   37.2710   28.2110   43.6800 C   0  0  0  0  0  0  0  0  0  0  0  0
   37.4170   27.8840   44.7060 H   0  0  0  0  0  0  0  0  0  0  0  0
   37.7770   29.3210   43.1530 O   0  0  0  0  0  0  0  0  0  0  0  0
   40.8630   29.1400   40.1990 O   0  0  0  0  0  0  0  0  0  0  0  0
   40.6410   28.1520   41.1350 C   0  0  0  0  0  0  0  0  0  0  0  0
   41.0470   28.4020   42.4550 C   0  0  0  0  0  0  0  0  0  0  0  0
   40.8030   27.3690   43.3820 C   0  0  0  0  0  0  0  0  0  0  0  0
   40.1980   26.2160   42.9480 N   0  0  0  0  0  0  0  0  0  0  0  0
   39.8410   26.0470   41.6860 C   0  0  0  0  0  0  0  0  0  0  0  0
   40.0530   27.0030   40.7620 N   0  0  0  0  0  0  0  0  0  0  0  0
   41.1010   27.5250   44.4050 H   0  0  0  0  0  0  0  0  0  0  0  0
   39.3620   25.1420   41.3240 H   0  0  0  0  0  0  0  0  0  0  0  0
   41.6740   29.6550   42.7990 C   0  0  0  0  0  0  0  0  0  0  0  0
   43.0290   29.7490   43.1070 C   0  0  0  0  0  0  0  0  0  0  0  0
   43.2040   31.0930   43.3680 C   0  0  0  0  0  0  0  0  0  0  0  0
   42.0370   31.7600   43.2270 N   0  0  0  0  0  0  0  0  0  0  0  0
   41.1250   30.8710   42.8820 N   0  0  0  0  0  0  0  0  0  0  0  0
   43.7820   28.9770   43.1410 H   0  0  0  0  0  0  0  0  0  0  0  0
   44.1500   31.5810   43.6530 H   0  0  0  0  0  0  0  0  0  0  0  0
   41.8060   32.7770   43.3460 H   0  0  0  0  0  0  0  0  0  0  0  0
  1  3  1  0  0  0  0
  1 26  1  0  0  0  0
  2  1  2  0  0  0  0
  3  8  1  0  0  0  0
  4  9  1  0  0  0  0
  4  3  1  0  0  0  0
  5  4  1  0  0  0  0
  5  6  1  0  0  0  0
  6 14  1  0  0  0  0
  6  7  1  0  0  0  0
  7  8  1  0  0  0  0
  7 16  1  0  0  0  0
  8 17  1  1  0  0  0
  8 18  1  0  0  0  0
 10  4  1  0  0  0  0
 11  5  1  0  0  0  0
 12  5  1  0  0  0  0
 13  6  1  0  0  0  0
 15  7  1  0  0  0  0
 18 25  1  0  0  0  0
 19 18  2  0  0  0  0
 19 21  1  0  0  0  0
 20 19  1  0  0  0  0
 21 22  1  0  0  0  0
 21 23  2  0  0  0  0
 23 24  1  0  0  0  0
 25 23  1  0  0  0  0
 26 27  1  0  0  0  0
 27 28  1  0  0  0  0
 28 35  1  0  0  0  0
 28 29  2  0  0  0  0
 29 33  1  0  0  0  0
 30 29  1  0  0  0  0
 31 30  2  0  0  0  0
 32 27  2  0  0  0  0
 32 31  1  0  0  0  0
 34 31  1  0  0  0  0
 35 39  2  0  0  0  0
 35 36  1  0  0  0  0
 36 40  1  0  0  0  0
 36 37  2  0  0  0  0
 37 41  1  0  0  0  0
 38 42  1  0  0  0  0
 38 37  1  0  0  0  0
 39 38  1  0  0  0  0
M  END
>  <minimizedAffinity>
-5.60473347

$$$$

 OpenBabel03252508553D

 42 45  0  0  1  0  0  0  0  0999 V2000
   39.2190   29.3150   41.8580 C   0  0  0  0  0  0  0  0  0  0  0  0
   39.4330   28.7740   42.9790 O   0  0  0  0  0  0  0  0  0  0  0  0
   38.0260   28.6020   41.4640 N   0  0  0  0  0  0  0  0  0  0  0  0
   36.8870   28.7500   42.3440 C   0  0  0  0  0  0  0  0  0  0  0  0
   36.8840   27.4700   43.2040 C   0  0  0  0  0  0  0  0  0  0  0  0
   37.3310   26.3450   42.2840 C   0  0  0  0  0  0  0  0  0  0  0  0
   36.9260   26.6090   40.8300 C   0  0  0  0  0  0  0  0  0  0  0  0
   37.7850   27.7440   40.3030 C   0  0  1  0  0  0  0  0  0  0  0  0
   35.9510   28.8040   41.7430 H   0  0  0  0  0  0  0  0  0  0  0  0
   36.9690   29.6020   43.0230 H   0  0  0  0  0  0  0  0  0  0  0  0
   37.6210   27.5980   44.0270 H   0  0  0  0  0  0  0  0  0  0  0  0
   35.8620   27.2540   43.5590 H   0  0  0  0  0  0  0  0  0  0  0  0
   36.9720   25.3730   42.6240 H   0  0  0  0  0  0  0  0  0  0  0  0
   38.4540   26.2840   42.2850 H   0  0  0  0  0  0  0  0  0  0  0  0
   35.8830   26.9130   40.7890 H   0  0  0  0  0  0  0  0  0  0  0  0
   37.1690   25.6650   40.3000 H   0  0  0  0  0  0  0  0  0  0  0  0
   38.7760   27.2940   40.0630 H   0  0  0  0  0  0  0  0  0  0  0  0
   37.1870   28.4720   39.1880 C   0  0  0  0  0  0  0  0  0  0  0  0
   35.9110   29.0030   39.0880 C   0  0  0  0  0  0  0  0  0  0  0  0
   35.1390   28.9620   39.8360 H   0  0  0  0  0  0  0  0  0  0  0  0
   35.8660   29.5810   37.8350 C   0  0  0  0  0  0  0  0  0  0  0  0
   35.0320   30.1030   37.3800 H   0  0  0  0  0  0  0  0  0  0  0  0
   37.1210   29.3620   37.2560 C   0  0  0  0  0  0  0  0  0  0  0  0
   37.4110   29.6970   36.2630 H   0  0  0  0  0  0  0  0  0  0  0  0
   37.9040   28.6890   38.0940 O   0  0  0  0  0  0  0  0  0  0  0  0
   39.9410   30.2990   41.2290 O   0  0  0  0  0  0  0  0  0  0  0  0
   40.3930   30.2650   39.9260 C   0  0  0  0  0  0  0  0  0  0  0  0
   39.9190   31.2500   39.0470 C   0  0  0  0  0  0  0  0  0  0  0  0
   40.4050   31.1830   37.7250 C   0  0  0  0  0  0  0  0  0  0  0  0
   41.2870   30.1860   37.3920 N   0  0  0  0  0  0  0  0  0  0  0  0
   41.6930   29.2880   38.2730 C   0  0  0  0  0  0  0  0  0  0  0  0
   41.2590   29.3090   39.5480 N   0  0  0  0  0  0  0  0  0  0  0  0
   40.0620   31.9220   37.0210 H   0  0  0  0  0  0  0  0  0  0  0  0
   42.3900   28.4920   38.0280 H   0  0  0  0  0  0  0  0  0  0  0  0
   38.9910   32.2530   39.5080 C   0  0  0  0  0  0  0  0  0  0  0  0
   39.3930   33.5470   39.8320 C   0  0  0  0  0  0  0  0  0  0  0  0
   38.2170   34.1590   40.2160 C   0  0  0  0  0  0  0  0  0  0  0  0
   37.1810   33.2950   40.1300 N   0  0  0  0  0  0  0  0  0  0  0  0
   37.6710   32.1490   39.6990 N   0  0  0  0  0  0  0  0  0  0  0  0
   40.3760   33.9890   39.8000 H   0  0  0  0  0  0  0  0  0  0  0  0
   38.1100   35.2040   40.5500 H   0  0  0  0  0  0  0  0  0  0  0  0
   36.1600   33.4210   40.3400 H   0  0  0  0  0  0  0  0  0  0  0  0
  1  2  2  0  0  0  0
  3  1  1  0  0  0  0
  3  4  1  0  0  0  0
  4 10  1  0  0  0  0
  4  5  1  0  0  0  0
  5 12  1  0  0  0  0
  5 11  1  0  0  0  0
  6 14  1  0  0  0  0
  6 13  1  0  0  0  0
  6  5  1  0  0  0  0
  7  6  1  0  0  0  0
  8 17  1  6  0  0  0
  8  7  1  0  0  0  0
  8  3  1  0  0  0  0
  9  4  1  0  0  0  0
 15  7  1  0  0  0  0
 16  7  1  0  0  0  0
 18  8  1  0  0  0  0
 19 18  2  0  0  0  0
 19 20  1  0  0  0  0
 21 19  1  0  0  0  0
 22 21  1  0  0  0  0
 23 21  2  0  0  0  0
 23 25  1  0  0  0  0
 24 23  1  0  0  0  0
 25 18  1  0  0  0  0
 26  1  1  0  0  0  0
 27 26  1  0  0  0  0
 28 35  1  0  0  0  0
 28 27  2  0  0  0  0
 29 28  1  0  0  0  0
 30 29  2  0  0  0  0
 30 31  1  0  0  0  0
 31 32  2  0  0  0  0
 32 27  1  0  0  0  0
 33 29  1  0  0  0  0
 34 31  1  0  0  0  0
 35 39  2  0  0  0  0
 35 36  1  0  0  0  0
 36 37  2  0  0  0  0
 37 41  1  0  0  0  0
 38 37  1  0  0  0  0
 38 42  1  0  0  0  0
 39 38  1  0  0  0  0
 40 36  1  0  0  0  0
M  END
>  <minimizedAffinity>
-5.58212519

$$$$

 OpenBabel03252508553D

 42 45  0  0  1  0  0  0  0  0999 V2000
   37.6610   28.2940   39.9880 C   0  0  0  0  0  0  0  0  0  0  0  0
   36.5870   27.6310   39.9480 O   0  0  0  0  0  0  0  0  0  0  0  0
   38.0580   28.0410   41.3530 N   0  0  0  0  0  0  0  0  0  0  0  0
   38.2840   26.6530   41.6940 C   0  0  0  0  0  0  0  0  0  0  0  0
   36.9930   26.2060   42.4080 C   0  0  0  0  0  0  0  0  0  0  0  0
   36.5310   27.4010   43.2270 C   0  0  0  0  0  0  0  0  0  0  0  0
   37.7110   28.2660   43.6800 C   0  0  0  0  0  0  0  0  0  0  0  0
   38.2680   28.9760   42.4590 C   0  0  1  0  0  0  0  0  0  0  0  0
   39.1500   26.5730   42.3900 H   0  0  0  0  0  0  0  0  0  0  0  0
   38.4190   26.0070   40.8230 H   0  0  0  0  0  0  0  0  0  0  0  0
   36.2310   25.9610   41.6360 H   0  0  0  0  0  0  0  0  0  0  0  0
   37.2090   25.3680   43.0940 H   0  0  0  0  0  0  0  0  0  0  0  0
   35.9120   27.1010   44.0730 H   0  0  0  0  0  0  0  0  0  0  0  0
   35.8880   28.0670   42.5870 H   0  0  0  0  0  0  0  0  0  0  0  0
   38.4900   27.6350   44.1010 H   0  0  0  0  0  0  0  0  0  0  0  0
   37.2620   29.0010   44.3800 H   0  0  0  0  0  0  0  0  0  0  0  0
   37.5770   29.8260   42.2550 H   0  0  0  0  0  0  0  0  0  0  0  0
   39.6670   29.3760   42.5910 C   0  0  0  0  0  0  0  0  0  0  0  0
   40.8000   28.5800   42.5480 C   0  0  0  0  0  0  0  0  0  0  0  0
   40.8300   27.5140   42.4080 H   0  0  0  0  0  0  0  0  0  0  0  0
   41.8520   29.4550   42.7260 C   0  0  0  0  0  0  0  0  0  0  0  0
   42.9100   29.2170   42.7540 H   0  0  0  0  0  0  0  0  0  0  0  0
   41.2870   30.7280   42.8650 C   0  0  0  0  0  0  0  0  0  0  0  0
   41.8530   31.6430   43.0190 H   0  0  0  0  0  0  0  0  0  0  0  0
   39.9620   30.6540   42.7800 O   0  0  0  0  0  0  0  0  0  0  0  0
   38.2500   29.0320   38.9900 O   0  0  0  0  0  0  0  0  0  0  0  0
   39.5560   29.4740   38.9720 C   0  0  0  0  0  0  0  0  0  0  0  0
   39.7850   30.8400   39.1960 C   0  0  0  0  0  0  0  0  0  0  0  0
   41.1330   31.2510   39.1710 C   0  0  0  0  0  0  0  0  0  0  0  0
   42.1090   30.3160   38.9360 N   0  0  0  0  0  0  0  0  0  0  0  0
   41.8220   29.0420   38.7330 C   0  0  0  0  0  0  0  0  0  0  0  0
   40.5510   28.5980   38.7460 N   0  0  0  0  0  0  0  0  0  0  0  0
   41.3480   32.2930   39.3380 H   0  0  0  0  0  0  0  0  0  0  0  0
   42.5800   28.2870   38.5450 H   0  0  0  0  0  0  0  0  0  0  0  0
   38.6790   31.7350   39.4340 C   0  0  0  0  0  0  0  0  0  0  0  0
   37.9530   32.3120   38.3960 C   0  0  0  0  0  0  0  0  0  0  0  0
   37.0100   33.0770   39.0530 C   0  0  0  0  0  0  0  0  0  0  0  0
   37.1590   32.9670   40.3920 N   0  0  0  0  0  0  0  0  0  0  0  0
   38.1730   32.1490   40.6000 N   0  0  0  0  0  0  0  0  0  0  0  0
   38.0760   32.2060   37.3290 H   0  0  0  0  0  0  0  0  0  0  0  0
   36.2340   33.6990   38.5780 H   0  0  0  0  0  0  0  0  0  0  0  0
   36.6240   33.4030   41.1820 H   0  0  0  0  0  0  0  0  0  0  0  0
  1  3  1  0  0  0  0
  2  1  2  0  0  0  0
  3  4  1  0  0  0  0
  3  8  1  0  0  0  0
  4  9  1  0  0  0  0
  4  5  1  0  0  0  0
  5 12  1  0  0  0  0
  5  6  1  0  0  0  0
  6  7  1  0  0  0  0
  6 13  1  0  0  0  0
  7 15  1  0  0  0  0
  7 16  1  0  0  0  0
  8 17  1  6  0  0  0
  8 18  1  0  0  0  0
  8  7  1  0  0  0  0
 10  4  1  0  0  0  0
 11  5  1  0  0  0  0
 14  6  1  0  0  0  0
 18 25  1  0  0  0  0
 19 18  2  0  0  0  0
 19 21  1  0  0  0  0
 20 19  1  0  0  0  0
 21 22  1  0  0  0  0
 21 23  2  0  0  0  0
 23 24  1  0  0  0  0
 25 23  1  0  0  0  0
 26  1  1  0  0  0  0
 27 26  1  0  0  0  0
 27 28  1  0  0  0  0
 28 35  1  0  0  0  0
 29 28  2  0  0  0  0
 29 33  1  0  0  0  0
 30 29  1  0  0  0  0
 31 32  1  0  0  0  0
 31 30  2  0  0  0  0
 32 27  2  0  0  0  0
 34 31  1  0  0  0  0
 35 39  2  0  0  0  0
 36 37  2  0  0  0  0
 36 35  1  0  0  0  0
 37 38  1  0  0  0  0
 38 39  1  0  0  0  0
 38 42  1  0  0  0  0
 40 36  1  0  0  0  0
 41 37  1  0  0  0  0
M  END
>  <minimizedAffinity>
-5.51787996

$$$$

 OpenBabel03252508553D

 42 45  0  0  1  0  0  0  0  0999 V2000
   37.5960   27.1620   38.8410 C   0  0  0  0  0  0  0  0  0  0  0  0
   36.8340   27.0570   37.8400 O   0  0  0  0  0  0  0  0  0  0  0  0
   37.5310   25.8110   39.3450 N   0  0  0  0  0  0  0  0  0  0  0  0
   37.9930   24.7810   38.4400 C   0  0  0  0  0  0  0  0  0  0  0  0
   36.7080   24.1880   37.8280 C   0  0  0  0  0  0  0  0  0  0  0  0
   35.6750   24.1860   38.9430 C   0  0  0  0  0  0  0  0  0  0  0  0
   36.3270   24.0260   40.3190 C   0  0  0  0  0  0  0  0  0  0  0  0
   37.0660   25.3130   40.6400 C   0  0  1  0  0  0  0  0  0  0  0  0
   38.5380   23.9950   39.0110 H   0  0  0  0  0  0  0  0  0  0  0  0
   38.6020   25.1640   37.6180 H   0  0  0  0  0  0  0  0  0  0  0  0
   36.3720   24.8540   37.0030 H   0  0  0  0  0  0  0  0  0  0  0  0
   36.8860   23.1470   37.5070 H   0  0  0  0  0  0  0  0  0  0  0  0
   34.9020   23.4330   38.7820 H   0  0  0  0  0  0  0  0  0  0  0  0
   35.1470   25.1800   38.9660 H   0  0  0  0  0  0  0  0  0  0  0  0
   37.0450   23.2100   40.2930 H   0  0  0  0  0  0  0  0  0  0  0  0
   35.4750   23.8890   41.0160 H   0  0  0  0  0  0  0  0  0  0  0  0
   36.2890   26.0400   40.9690 H   0  0  0  0  0  0  0  0  0  0  0  0
   38.1570   25.1480   41.5970 C   0  0  0  0  0  0  0  0  0  0  0  0
   38.5600   23.9990   42.2580 C   0  0  0  0  0  0  0  0  0  0  0  0
   38.1220   23.0210   42.1680 H   0  0  0  0  0  0  0  0  0  0  0  0
   39.6280   24.3970   43.0380 C   0  0  0  0  0  0  0  0  0  0  0  0
   40.2200   23.7820   43.7060 H   0  0  0  0  0  0  0  0  0  0  0  0
   39.8020   25.7650   42.7990 C   0  0  0  0  0  0  0  0  0  0  0  0
   40.5660   26.3820   43.2630 H   0  0  0  0  0  0  0  0  0  0  0  0
   38.9000   26.1970   41.9230 O   0  0  0  0  0  0  0  0  0  0  0  0
   38.2750   28.2700   39.2880 O   0  0  0  0  0  0  0  0  0  0  0  0
   37.8490   29.5770   39.1850 C   0  0  0  0  0  0  0  0  0  0  0  0
   37.2990   30.1740   40.3300 C   0  0  0  0  0  0  0  0  0  0  0  0
   36.8760   31.5110   40.1850 C   0  0  0  0  0  0  0  0  0  0  0  0
   37.0250   32.1270   38.9690 N   0  0  0  0  0  0  0  0  0  0  0  0
   37.5530   31.5040   37.9290 C   0  0  0  0  0  0  0  0  0  0  0  0
   37.9720   30.2270   38.0150 N   0  0  0  0  0  0  0  0  0  0  0  0
   36.4480   32.0030   41.0430 H   0  0  0  0  0  0  0  0  0  0  0  0
   37.6780   31.9740   36.9590 H   0  0  0  0  0  0  0  0  0  0  0  0
   37.1920   29.4290   41.5600 C   0  0  0  0  0  0  0  0  0  0  0  0
   38.0860   29.5990   42.6140 C   0  0  0  0  0  0  0  0  0  0  0  0
   37.6270   28.7140   43.5680 C   0  0  0  0  0  0  0  0  0  0  0  0
   36.5330   28.0590   43.1210 N   0  0  0  0  0  0  0  0  0  0  0  0
   36.2860   28.5070   41.9050 N   0  0  0  0  0  0  0  0  0  0  0  0
   38.9400   30.2540   42.6920 H   0  0  0  0  0  0  0  0  0  0  0  0
   38.0700   28.5460   44.5630 H   0  0  0  0  0  0  0  0  0  0  0  0
   35.9340   27.3270   43.5760 H   0  0  0  0  0  0  0  0  0  0  0  0
  1 26  1  0  0  0  0
  1  3  1  0  0  0  0
  2  1  2  0  0  0  0
  3  8  1  0  0  0  0
  4  9  1  0  0  0  0
  4  3  1  0  0  0  0
  5  4  1  0  0  0  0
  5  6  1  0  0  0  0
  6 14  1  0  0  0  0
  6  7  1  0  0  0  0
  7  8  1  0  0  0  0
  7 16  1  0  0  0  0
  8 17  1  1  0  0  0
  8 18  1  0  0  0  0
 10  4  1  0  0  0  0
 11  5  1  0  0  0  0
 12  5  1  0  0  0  0
 13  6  1  0  0  0  0
 15  7  1  0  0  0  0
 18 25  1  0  0  0  0
 18 19  2  0  0  0  0
 19 21  1  0  0  0  0
 20 19  1  0  0  0  0
 21 22  1  0  0  0  0
 23 21  2  0  0  0  0
 23 24  1  0  0  0  0
 25 23  1  0  0  0  0
 27 26  1  0  0  0  0
 27 28  1  0  0  0  0
 28 35  1  0  0  0  0
 29 28  2  0  0  0  0
 29 33  1  0  0  0  0
 30 29  1  0  0  0  0
 31 32  1  0  0  0  0
 31 30  2  0  0  0  0
 32 27  2  0  0  0  0
 34 31  1  0  0  0  0
 35 39  2  0  0  0  0
 35 36  1  0  0  0  0
 36 40  1  0  0  0  0
 36 37  2  0  0  0  0
 37 41  1  0  0  0  0
 38 37  1  0  0  0  0
 38 42  1  0  0  0  0
 39 38  1  0  0  0  0
M  END
>  <minimizedAffinity>
-5.51675844

$$$$

 OpenBabel03252508553D

 42 45  0  0  1  0  0  0  0  0999 V2000
   38.0850   29.7010   38.5580 C   0  0  0  0  0  0  0  0  0  0  0  0
   37.5740   29.8830   37.4170 O   0  0  0  0  0  0  0  0  0  0  0  0
   37.0010   29.0020   39.2060 N   0  0  0  0  0  0  0  0  0  0  0  0
   36.6110   27.7480   38.6000 C   0  0  0  0  0  0  0  0  0  0  0  0
   35.3610   28.0850   37.7630 C   0  0  0  0  0  0  0  0  0  0  0  0
   34.5890   29.1220   38.5630 C   0  0  0  0  0  0  0  0  0  0  0  0
   34.8020   28.9480   40.0700 C   0  0  0  0  0  0  0  0  0  0  0  0
   36.2260   29.3660   40.3930 C   0  0  1  0  0  0  0  0  0  0  0  0
   36.3480   27.0120   39.3930 H   0  0  0  0  0  0  0  0  0  0  0  0
   37.3630   27.3410   37.9190 H   0  0  0  0  0  0  0  0  0  0  0  0
   35.6930   28.5250   36.7970 H   0  0  0  0  0  0  0  0  0  0  0  0
   34.7310   27.1870   37.6430 H   0  0  0  0  0  0  0  0  0  0  0  0
   33.5270   29.1240   38.3120 H   0  0  0  0  0  0  0  0  0  0  0  0
   34.9730   30.1500   38.3140 H   0  0  0  0  0  0  0  0  0  0  0  0
   34.6760   27.9030   40.3410 H   0  0  0  0  0  0  0  0  0  0  0  0
   34.0810   29.6520   40.5340 H   0  0  0  0  0  0  0  0  0  0  0  0
   36.2240   30.4800   40.4080 H   0  0  0  0  0  0  0  0  0  0  0  0
   36.7590   28.7640   41.6120 C   0  0  0  0  0  0  0  0  0  0  0  0
   36.8920   27.4210   41.9260 C   0  0  0  0  0  0  0  0  0  0  0  0
   36.6170   26.5870   41.3040 H   0  0  0  0  0  0  0  0  0  0  0  0
   37.4460   27.4080   43.1900 C   0  0  0  0  0  0  0  0  0  0  0  0
   37.7040   26.5400   43.7860 H   0  0  0  0  0  0  0  0  0  0  0  0
   37.6120   28.7460   43.5610 C   0  0  0  0  0  0  0  0  0  0  0  0
   38.0280   29.0790   44.5090 H   0  0  0  0  0  0  0  0  0  0  0  0
   37.1890   29.5500   42.5900 O   0  0  0  0  0  0  0  0  0  0  0  0
   39.3260   30.0780   39.0100 O   0  0  0  0  0  0  0  0  0  0  0  0
   39.9000   29.7050   40.2070 C   0  0  0  0  0  0  0  0  0  0  0  0
   40.0600   30.6950   41.1890 C   0  0  0  0  0  0  0  0  0  0  0  0
   40.6490   30.2750   42.3990 C   0  0  0  0  0  0  0  0  0  0  0  0
   41.0170   28.9600   42.5370 N   0  0  0  0  0  0  0  0  0  0  0  0
   40.8370   28.0780   41.5680 C   0  0  0  0  0  0  0  0  0  0  0  0
   40.2790   28.4290   40.3940 N   0  0  0  0  0  0  0  0  0  0  0  0
   40.7880   31.0070   43.1760 H   0  0  0  0  0  0  0  0  0  0  0  0
   41.1220   27.0340   41.6590 H   0  0  0  0  0  0  0  0  0  0  0  0
   39.6340   32.0500   40.9340 C   0  0  0  0  0  0  0  0  0  0  0  0
   40.5230   33.0490   40.5460 C   0  0  0  0  0  0  0  0  0  0  0  0
   39.7150   34.1600   40.4120 C   0  0  0  0  0  0  0  0  0  0  0  0
   38.4310   33.8510   40.6980 N   0  0  0  0  0  0  0  0  0  0  0  0
   38.4040   32.5690   41.0110 N   0  0  0  0  0  0  0  0  0  0  0  0
   41.5880   32.9960   40.3840 H   0  0  0  0  0  0  0  0  0  0  0  0
   40.0440   35.1680   40.1150 H   0  0  0  0  0  0  0  0  0  0  0  0
   37.5630   34.4410   40.6980 H   0  0  0  0  0  0  0  0  0  0  0  0
  1 26  1  0  0  0  0
  1  3  1  0  0  0  0
  2  1  2  0  0  0  0
  3  8  1  0  0  0  0
  4  3  1  0  0  0  0
  4  9  1  0  0  0  0
  5  6  1  0  0  0  0
  5  4  1  0  0  0  0
  6  7  1  0  0  0  0
  7 15  1  0  0  0  0
  7  8  1  0  0  0  0
  7 16  1  0  0  0  0
  8 17  1  1  0  0  0
  8 18  1  0  0  0  0
 10  4  1  0  0  0  0
 11  5  1  0  0  0  0
 12  5  1  0  0  0  0
 13  6  1  0  0  0  0
 14  6  1  0  0  0  0
 18 19  2  0  0  0  0
 18 25  1  0  0  0  0
 19 21  1  0  0  0  0
 20 19  1  0  0  0  0
 21 23  2  0  0  0  0
 21 22  1  0  0  0  0
 23 24  1  0  0  0  0
 25 23  1  0  0  0  0
 26 27  1  0  0  0  0
 27 32  2  0  0  0  0
 27 28  1  0  0  0  0
 28 29  2  0  0  0  0
 29 30  1  0  0  0  0
 29 33  1  0  0  0  0
 31 34  1  0  0  0  0
 31 30  2  0  0  0  0
 32 31  1  0  0  0  0
 35 39  2  0  0  0  0
 35 28  1  0  0  0  0
 36 35  1  0  0  0  0
 37 36  2  0  0  0  0
 37 38  1  0  0  0  0
 38 39  1  0  0  0  0
 40 36  1  0  0  0  0
 41 37  1  0  0  0  0
 42 38  1  0  0  0  0
M  END
>  <minimizedAffinity>
-5.4936223

$$$$
