
 OpenBabel03252504143D

 34 36  0  0  0  0  0  0  0  0999 V2000
   47.6150   30.0270   44.9250 F   0  0  0  0  0  0  0  0  0  0  0  0
   47.4990   30.7980   46.0540 C   0  0  0  0  0  0  0  0  0  0  0  0
   46.9330   32.0470   45.9680 C   0  0  0  0  0  0  0  0  0  0  0  0
   46.8550   32.7600   47.1640 C   0  0  0  0  0  0  0  0  0  0  0  0
   47.3170   32.2370   48.3490 C   0  0  0  0  0  0  0  0  0  0  0  0
   47.8740   30.9700   48.3560 C   0  0  0  0  0  0  0  0  0  0  0  0
   47.9820   30.2110   47.2060 C   0  0  0  0  0  0  0  0  0  0  0  0
   46.4140   33.7590   47.1490 H   0  0  0  0  0  0  0  0  0  0  0  0
   47.2550   32.7890   49.2700 H   0  0  0  0  0  0  0  0  0  0  0  0
   48.2450   30.5360   49.2760 H   0  0  0  0  0  0  0  0  0  0  0  0
   48.5680   28.8740   47.2040 C   0  0  0  0  0  0  0  0  0  0  0  0
   49.9090   28.6320   46.9900 C   0  0  0  0  0  0  0  0  0  0  0  0
   50.6590   29.3650   46.8030 H   0  0  0  0  0  0  0  0  0  0  0  0
   49.9890   27.2420   47.0790 C   0  0  0  0  0  0  0  0  0  0  0  0
   50.9130   26.6720   46.9610 H   0  0  0  0  0  0  0  0  0  0  0  0
   48.7280   26.7290   47.3370 C   0  0  0  0  0  0  0  0  0  0  0  0
   48.4370   25.6950   47.4650 H   0  0  0  0  0  0  0  0  0  0  0  0
   47.9240   27.7730   47.3990 O   0  0  0  0  0  0  0  0  0  0  0  0
   46.7580   34.1310   42.9940 C   0  0  0  0  0  0  0  0  0  0  0  0
   45.6060   33.6980   42.3340 C   0  0  0  0  0  0  0  0  0  0  0  0
   44.8810   32.6580   42.9440 C   0  0  0  0  0  0  0  0  0  0  0  0
   45.3170   32.1320   44.1170 N   0  0  0  0  0  0  0  0  0  0  0  0
   46.4450   32.5970   44.7080 C   0  0  0  0  0  0  0  0  0  0  0  0
   47.1630   33.5950   44.1470 N   0  0  0  0  0  0  0  0  0  0  0  0
   43.9840   32.3010   42.4560 H   0  0  0  0  0  0  0  0  0  0  0  0
   45.2010   34.3240   41.0610 C   0  0  0  0  0  0  0  0  0  0  0  0
   44.9270   35.6570   41.2610 F   0  0  0  0  0  0  0  0  0  0  0  0
   46.2820   34.2550   40.1900 F   0  0  0  0  0  0  0  0  0  0  0  0
   44.1320   33.7500   40.4640 F   0  0  0  0  0  0  0  0  0  0  0  0
   47.4590   35.1390   42.4020 O   0  0  0  0  0  0  0  0  0  0  0  0
   48.7740   35.0590   41.8870 C   0  0  0  0  0  0  0  0  0  0  0  0
   49.6330   35.3370   42.9550 F   0  0  0  0  0  0  0  0  0  0  0  0
   48.9960   33.8300   41.3260 F   0  0  0  0  0  0  0  0  0  0  0  0
   48.9900   36.0900   41.0000 F   0  0  0  0  0  0  0  0  0  0  0  0
  1  2  1  0  0  0  0
  2  7  1  0  0  0  0
  3  2  2  0  0  0  0
  3  4  1  0  0  0  0
  4  5  2  0  0  0  0
  5  6  1  0  0  0  0
  5  9  1  0  0  0  0
  6 10  1  0  0  0  0
  7  6  2  0  0  0  0
  8  4  1  0  0  0  0
 11  7  1  0  0  0  0
 11 18  1  0  0  0  0
 12 14  1  0  0  0  0
 12 11  2  0  0  0  0
 13 12  1  0  0  0  0
 14 16  2  0  0  0  0
 15 14  1  0  0  0  0
 16 18  1  0  0  0  0
 16 17  1  0  0  0  0
 19 24  1  0  0  0  0
 20 21  1  0  0  0  0
 20 19  2  0  0  0  0
 21 22  2  0  0  0  0
 22 23  1  0  0  0  0
 23  3  1  0  0  0  0
 24 23  2  0  0  0  0
 25 21  1  0  0  0  0
 26 27  1  0  0  0  0
 26 20  1  0  0  0  0
 28 26  1  0  0  0  0
 29 26  1  0  0  0  0
 30 19  1  0  0  0  0
 31 30  1  0  0  0  0
 31 32  1  0  0  0  0
 33 31  1  0  0  0  0
 34 31  1  0  0  0  0
M  END
>  <minimizedAffinity>
-5.52150106

>  <minimizedRMSD>
0.279377162

$$$$
