
 OpenBabel03242515273D

 30 32  0  0  0  0  0  0  0  0999 V2000
   37.5560   28.8420   42.9090 C   0  0  0  0  0  0  0  0  0  0  0  0
   38.7500   28.1090   42.8440 C   0  0  0  0  0  0  0  0  0  0  0  0
   39.7560   28.6080   42.0520 C   0  0  0  0  0  0  0  0  0  0  0  0
   39.5370   29.7620   41.3910 N   0  0  0  0  0  0  0  0  0  0  0  0
   38.3780   30.4470   41.4720 C   0  0  0  0  0  0  0  0  0  0  0  0
   37.3630   30.0040   42.2300 N   0  0  0  0  0  0  0  0  0  0  0  0
   36.7150   28.5010   43.5220 H   0  0  0  0  0  0  0  0  0  0  0  0
   40.6610   28.0400   42.0100 H   0  0  0  0  0  0  0  0  0  0  0  0
   38.1490   31.6960   40.7520 C   0  0  0  0  0  0  0  0  0  0  0  0
   37.1890   31.7040   39.7630 C   0  0  0  0  0  0  0  0  0  0  0  0
   36.5140   30.9320   39.3700 H   0  0  0  0  0  0  0  0  0  0  0  0
   37.1580   32.9940   39.2300 C   0  0  0  0  0  0  0  0  0  0  0  0
   36.5410   33.3950   38.4400 H   0  0  0  0  0  0  0  0  0  0  0  0
   38.1240   33.6950   39.9480 C   0  0  0  0  0  0  0  0  0  0  0  0
   38.3420   34.7390   39.7670 H   0  0  0  0  0  0  0  0  0  0  0  0
   38.6870   32.8870   40.8410 O   0  0  0  0  0  0  0  0  0  0  0  0
   38.7860   26.8780   43.6410 C   0  0  0  0  0  0  0  0  0  0  0  0
   39.7340   26.7480   44.1520 H   0  0  0  0  0  0  0  0  0  0  0  0
   38.0180   26.9930   44.4600 H   0  0  0  0  0  0  0  0  0  0  0  0
   38.4170   25.7570   42.7940 N   0  0  0  0  0  0  0  0  0  0  0  0
   37.2110   25.7230   42.2210 C   0  0  0  0  0  0  0  0  0  0  0  0
   36.9010   24.6310   41.4180 C   0  0  0  0  0  0  0  0  0  0  0  0
   37.8090   23.6210   41.2240 C   0  0  0  0  0  0  0  0  0  0  0  0
   37.4890   22.6500   40.4900 O   0  0  0  0  0  0  0  0  0  0  0  0
   39.0190   23.6920   41.8210 N   0  0  0  0  0  0  0  0  0  0  0  0
   39.3250   24.7580   42.6050 C   0  0  0  0  0  0  0  0  0  0  0  0
   40.4730   24.7640   43.1360 O   0  0  0  0  0  0  0  0  0  0  0  0
   36.4710   26.5130   42.3590 H   0  0  0  0  0  0  0  0  0  0  0  0
   35.9360   24.5570   40.9310 H   0  0  0  0  0  0  0  0  0  0  0  0
   39.6900   22.9000   41.6500 H   0  0  0  0  0  0  0  0  0  0  0  0
  1  7  1  0  0  0  0
  2  1  1  0  0  0  0
  2 17  1  0  0  0  0
  3  2  2  0  0  0  0
  4  5  2  0  0  0  0
  4  3  1  0  0  0  0
  5  6  1  0  0  0  0
  6  1  2  0  0  0  0
  8  3  1  0  0  0  0
  9 16  1  0  0  0  0
  9  5  1  0  0  0  0
 10  9  2  0  0  0  0
 11 10  1  0  0  0  0
 12 10  1  0  0  0  0
 12 14  2  0  0  0  0
 13 12  1  0  0  0  0
 14 16  1  0  0  0  0
 15 14  1  0  0  0  0
 17 18  1  0  0  0  0
 17 19  1  0  0  0  0
 20 17  1  0  0  0  0
 21 28  1  0  0  0  0
 21 20  1  0  0  0  0
 22 21  2  0  0  0  0
 23 22  1  0  0  0  0
 23 25  1  0  0  0  0
 24 23  2  0  0  0  0
 25 26  1  0  0  0  0
 26 20  1  0  0  0  0
 26 27  2  0  0  0  0
 29 22  1  0  0  0  0
 30 25  1  0  0  0  0
M  END
>  <minimizedAffinity>
-5.45945454

$$$$

 OpenBabel03242515273D

 30 32  0  0  0  0  0  0  0  0999 V2000
   37.6660   29.0930   39.4380 C   0  0  0  0  0  0  0  0  0  0  0  0
   37.6440   30.2240   40.2680 C   0  0  0  0  0  0  0  0  0  0  0  0
   37.8090   30.0220   41.6170 C   0  0  0  0  0  0  0  0  0  0  0  0
   37.9820   28.7610   42.0580 N   0  0  0  0  0  0  0  0  0  0  0  0
   38.0000   27.6900   41.2370 C   0  0  0  0  0  0  0  0  0  0  0  0
   37.8430   27.8310   39.9120 N   0  0  0  0  0  0  0  0  0  0  0  0
   37.5410   29.1830   38.3540 H   0  0  0  0  0  0  0  0  0  0  0  0
   37.7890   30.8910   42.2390 H   0  0  0  0  0  0  0  0  0  0  0  0
   38.1880   26.3270   41.7240 C   0  0  0  0  0  0  0  0  0  0  0  0
   37.1400   25.4420   41.5840 C   0  0  0  0  0  0  0  0  0  0  0  0
   36.1320   25.5380   41.1590 H   0  0  0  0  0  0  0  0  0  0  0  0
   37.5590   24.2220   42.1180 C   0  0  0  0  0  0  0  0  0  0  0  0
   37.0240   23.2870   42.1920 H   0  0  0  0  0  0  0  0  0  0  0  0
   38.8590   24.4560   42.5560 C   0  0  0  0  0  0  0  0  0  0  0  0
   39.4640   23.6910   43.0250 H   0  0  0  0  0  0  0  0  0  0  0  0
   39.1930   25.7190   42.3030 O   0  0  0  0  0  0  0  0  0  0  0  0
   37.4430   31.5080   39.5880 C   0  0  0  0  0  0  0  0  0  0  0  0
   36.5780   31.4940   38.9330 H   0  0  0  0  0  0  0  0  0  0  0  0
   37.2030   32.2700   40.3840 H   0  0  0  0  0  0  0  0  0  0  0  0
   38.6770   31.8870   38.9210 N   0  0  0  0  0  0  0  0  0  0  0  0
   39.7530   32.2090   39.6440 C   0  0  0  0  0  0  0  0  0  0  0  0
   40.9130   32.5650   38.9630 C   0  0  0  0  0  0  0  0  0  0  0  0
   40.9450   32.5830   37.5920 C   0  0  0  0  0  0  0  0  0  0  0  0
   42.0150   32.9120   37.0150 O   0  0  0  0  0  0  0  0  0  0  0  0
   39.8360   32.2520   36.8970 N   0  0  0  0  0  0  0  0  0  0  0  0
   38.7020   31.9030   37.5580 C   0  0  0  0  0  0  0  0  0  0  0  0
   37.6980   31.6030   36.8490 O   0  0  0  0  0  0  0  0  0  0  0  0
   39.7540   32.2010   40.7350 H   0  0  0  0  0  0  0  0  0  0  0  0
   41.8130   32.8340   39.5040 H   0  0  0  0  0  0  0  0  0  0  0  0
   39.8970   32.2770   35.8460 H   0  0  0  0  0  0  0  0  0  0  0  0
  1  6  2  0  0  0  0
  1  2  1  0  0  0  0
  2  3  2  0  0  0  0
  3  4  1  0  0  0  0
  3  8  1  0  0  0  0
  5  9  1  0  0  0  0
  5  4  2  0  0  0  0
  6  5  1  0  0  0  0
  7  1  1  0  0  0  0
  9 16  1  0  0  0  0
 10  9  2  0  0  0  0
 10 12  1  0  0  0  0
 11 10  1  0  0  0  0
 12 13  1  0  0  0  0
 12 14  2  0  0  0  0
 14 15  1  0  0  0  0
 16 14  1  0  0  0  0
 17  2  1  0  0  0  0
 17 19  1  0  0  0  0
 18 17  1  0  0  0  0
 20 17  1  0  0  0  0
 20 21  1  0  0  0  0
 21 28  1  0  0  0  0
 22 29  1  0  0  0  0
 22 21  2  0  0  0  0
 23 22  1  0  0  0  0
 24 23  2  0  0  0  0
 25 26  1  0  0  0  0
 25 23  1  0  0  0  0
 26 20  1  0  0  0  0
 27 26  2  0  0  0  0
 30 25  1  0  0  0  0
M  END
>  <minimizedAffinity>
-5.0885663

$$$$

 OpenBabel03242515273D

 30 32  0  0  0  0  0  0  0  0999 V2000
   38.7800   27.5270   41.3870 C   0  0  0  0  0  0  0  0  0  0  0  0
   38.6780   27.7710   42.7640 C   0  0  0  0  0  0  0  0  0  0  0  0
   38.2580   29.0190   43.1570 C   0  0  0  0  0  0  0  0  0  0  0  0
   37.9700   29.9260   42.2030 N   0  0  0  0  0  0  0  0  0  0  0  0
   38.0760   29.6650   40.8830 C   0  0  0  0  0  0  0  0  0  0  0  0
   38.4820   28.4630   40.4450 N   0  0  0  0  0  0  0  0  0  0  0  0
   39.1080   26.5540   41.0060 H   0  0  0  0  0  0  0  0  0  0  0  0
   38.1860   29.1930   44.2090 H   0  0  0  0  0  0  0  0  0  0  0  0
   37.7620   30.6530   39.8570 C   0  0  0  0  0  0  0  0  0  0  0  0
   37.5690   31.9590   40.2560 C   0  0  0  0  0  0  0  0  0  0  0  0
   37.6010   32.4540   41.2350 H   0  0  0  0  0  0  0  0  0  0  0  0
   37.2860   32.7020   39.1080 C   0  0  0  0  0  0  0  0  0  0  0  0
   37.0770   33.7560   39.0080 H   0  0  0  0  0  0  0  0  0  0  0  0
   37.3260   31.7760   38.0690 C   0  0  0  0  0  0  0  0  0  0  0  0
   37.1460   32.0470   37.0370 H   0  0  0  0  0  0  0  0  0  0  0  0
   37.6120   30.5720   38.5580 O   0  0  0  0  0  0  0  0  0  0  0  0
   39.0390   26.6480   43.6370 C   0  0  0  0  0  0  0  0  0  0  0  0
   38.7290   26.8120   44.6640 H   0  0  0  0  0  0  0  0  0  0  0  0
   38.4480   25.7540   43.2860 H   0  0  0  0  0  0  0  0  0  0  0  0
   40.4570   26.3720   43.4890 N   0  0  0  0  0  0  0  0  0  0  0  0
   41.3500   27.3470   43.6790 C   0  0  0  0  0  0  0  0  0  0  0  0
   42.6970   27.0370   43.5280 C   0  0  0  0  0  0  0  0  0  0  0  0
   43.0920   25.7670   43.1920 C   0  0  0  0  0  0  0  0  0  0  0  0
   44.3220   25.5280   43.0630 O   0  0  0  0  0  0  0  0  0  0  0  0
   42.1590   24.8080   43.0070 N   0  0  0  0  0  0  0  0  0  0  0  0
   40.8430   25.1070   43.1550 C   0  0  0  0  0  0  0  0  0  0  0  0
   40.0190   24.1650   42.9680 O   0  0  0  0  0  0  0  0  0  0  0  0
   41.0620   28.3650   43.9480 H   0  0  0  0  0  0  0  0  0  0  0  0
   43.4600   27.7930   43.6720 H   0  0  0  0  0  0  0  0  0  0  0  0
   42.4980   23.8450   42.7500 H   0  0  0  0  0  0  0  0  0  0  0  0
  1  2  1  0  0  0  0
  2  3  2  0  0  0  0
  2 17  1  0  0  0  0
  3  8  1  0  0  0  0
  4  3  1  0  0  0  0
  5  4  2  0  0  0  0
  6  5  1  0  0  0  0
  6  1  2  0  0  0  0
  7  1  1  0  0  0  0
  9 10  2  0  0  0  0
  9  5  1  0  0  0  0
 10 11  1  0  0  0  0
 12 10  1  0  0  0  0
 13 12  1  0  0  0  0
 14 16  1  0  0  0  0
 14 12  2  0  0  0  0
 15 14  1  0  0  0  0
 16  9  1  0  0  0  0
 17 18  1  0  0  0  0
 19 17  1  0  0  0  0
 20 17  1  0  0  0  0
 20 21  1  0  0  0  0
 21 28  1  0  0  0  0
 22 29  1  0  0  0  0
 22 21  2  0  0  0  0
 23 22  1  0  0  0  0
 24 23  2  0  0  0  0
 25 26  1  0  0  0  0
 25 23  1  0  0  0  0
 26 20  1  0  0  0  0
 27 26  2  0  0  0  0
 30 25  1  0  0  0  0
M  END
>  <minimizedAffinity>
-5.01889324

$$$$

 OpenBabel03242515273D

 30 32  0  0  0  0  0  0  0  0999 V2000
   39.2030   27.4760   41.5640 C   0  0  0  0  0  0  0  0  0  0  0  0
   38.2420   27.8620   42.5100 C   0  0  0  0  0  0  0  0  0  0  0  0
   37.2760   26.9420   42.8420 C   0  0  0  0  0  0  0  0  0  0  0  0
   37.3110   25.7350   42.2450 N   0  0  0  0  0  0  0  0  0  0  0  0
   38.2480   25.3890   41.3380 C   0  0  0  0  0  0  0  0  0  0  0  0
   39.2130   26.2500   40.9770 N   0  0  0  0  0  0  0  0  0  0  0  0
   40.0010   28.1600   41.2550 H   0  0  0  0  0  0  0  0  0  0  0  0
   36.5490   27.2470   43.5640 H   0  0  0  0  0  0  0  0  0  0  0  0
   38.2780   24.0800   40.6950 C   0  0  0  0  0  0  0  0  0  0  0  0
   39.0430   23.9360   39.5570 C   0  0  0  0  0  0  0  0  0  0  0  0
   39.6770   24.6300   38.9900 H   0  0  0  0  0  0  0  0  0  0  0  0
   38.9100   22.6120   39.1360 C   0  0  0  0  0  0  0  0  0  0  0  0
   39.3530   22.1140   38.2860 H   0  0  0  0  0  0  0  0  0  0  0  0
   38.0520   22.0300   40.0660 C   0  0  0  0  0  0  0  0  0  0  0  0
   37.7500   20.9930   40.0140 H   0  0  0  0  0  0  0  0  0  0  0  0
   37.7020   22.9370   40.9740 O   0  0  0  0  0  0  0  0  0  0  0  0
   38.3820   29.2210   43.0420 C   0  0  0  0  0  0  0  0  0  0  0  0
   37.8560   29.3500   43.9820 H   0  0  0  0  0  0  0  0  0  0  0  0
   39.4730   29.3700   43.2870 H   0  0  0  0  0  0  0  0  0  0  0  0
   37.9900   30.1720   42.0160 N   0  0  0  0  0  0  0  0  0  0  0  0
   36.7500   30.1430   41.5200 C   0  0  0  0  0  0  0  0  0  0  0  0
   36.4170   31.0730   40.5400 C   0  0  0  0  0  0  0  0  0  0  0  0
   37.3390   31.9880   40.0990 C   0  0  0  0  0  0  0  0  0  0  0  0
   36.9980   32.8110   39.2090 O   0  0  0  0  0  0  0  0  0  0  0  0
   38.5830   31.9840   40.6240 N   0  0  0  0  0  0  0  0  0  0  0  0
   38.9110   31.0790   41.5820 C   0  0  0  0  0  0  0  0  0  0  0  0
   40.0920   31.1280   42.0330 O   0  0  0  0  0  0  0  0  0  0  0  0
   35.9980   29.4260   41.8550 H   0  0  0  0  0  0  0  0  0  0  0  0
   35.4250   31.0900   40.1070 H   0  0  0  0  0  0  0  0  0  0  0  0
   39.2640   32.7000   40.2610 H   0  0  0  0  0  0  0  0  0  0  0  0
  1  2  1  0  0  0  0
  2  3  2  0  0  0  0
  2 17  1  0  0  0  0
  3  8  1  0  0  0  0
  4  3  1  0  0  0  0
  5  4  2  0  0  0  0
  6  5  1  0  0  0  0
  6  1  2  0  0  0  0
  7  1  1  0  0  0  0
  9 16  1  0  0  0  0
  9  5  1  0  0  0  0
 10  9  2  0  0  0  0
 11 10  1  0  0  0  0
 12 10  1  0  0  0  0
 12 14  2  0  0  0  0
 13 12  1  0  0  0  0
 14 16  1  0  0  0  0
 15 14  1  0  0  0  0
 17 19  1  0  0  0  0
 17 18  1  0  0  0  0
 20 17  1  0  0  0  0
 21 28  1  0  0  0  0
 21 20  1  0  0  0  0
 22 21  2  0  0  0  0
 23 22  1  0  0  0  0
 23 25  1  0  0  0  0
 24 23  2  0  0  0  0
 25 26  1  0  0  0  0
 26 20  1  0  0  0  0
 26 27  2  0  0  0  0
 29 22  1  0  0  0  0
 30 25  1  0  0  0  0
M  END
>  <minimizedAffinity>
-4.80099344

$$$$

 OpenBabel03242515273D

 30 32  0  0  0  0  0  0  0  0999 V2000
   37.1840   28.3760   41.4220 C   0  0  0  0  0  0  0  0  0  0  0  0
   38.0910   27.9900   42.4200 C   0  0  0  0  0  0  0  0  0  0  0  0
   38.9910   28.9340   42.8550 C   0  0  0  0  0  0  0  0  0  0  0  0
   38.9460   30.1620   42.3030 N   0  0  0  0  0  0  0  0  0  0  0  0
   38.0610   30.5060   41.3450 C   0  0  0  0  0  0  0  0  0  0  0  0
   37.1620   29.6240   40.8820 N   0  0  0  0  0  0  0  0  0  0  0  0
   36.4400   27.6730   41.0300 H   0  0  0  0  0  0  0  0  0  0  0  0
   39.6770   28.6280   43.6150 H   0  0  0  0  0  0  0  0  0  0  0  0
   38.0210   31.8400   40.7520 C   0  0  0  0  0  0  0  0  0  0  0  0
   37.0480   32.0980   39.8100 C   0  0  0  0  0  0  0  0  0  0  0  0
   36.2450   31.4860   39.3780 H   0  0  0  0  0  0  0  0  0  0  0  0
   37.2150   33.4210   39.3980 C   0  0  0  0  0  0  0  0  0  0  0  0
   36.6500   33.9910   38.6760 H   0  0  0  0  0  0  0  0  0  0  0  0
   38.3020   33.8850   40.1340 C   0  0  0  0  0  0  0  0  0  0  0  0
   38.6840   34.8930   40.0400 H   0  0  0  0  0  0  0  0  0  0  0  0
   38.7500   32.9140   40.9250 O   0  0  0  0  0  0  0  0  0  0  0  0
   37.9720   26.6050   42.8870 C   0  0  0  0  0  0  0  0  0  0  0  0
   38.4540   26.4550   43.8490 H   0  0  0  0  0  0  0  0  0  0  0  0
   36.8760   26.4100   43.0680 H   0  0  0  0  0  0  0  0  0  0  0  0
   38.4510   25.7130   41.8460 N   0  0  0  0  0  0  0  0  0  0  0  0
   39.6560   25.9090   41.3020 C   0  0  0  0  0  0  0  0  0  0  0  0
   40.0730   25.0290   40.3090 C   0  0  0  0  0  0  0  0  0  0  0  0
   39.2690   23.9950   39.9030 C   0  0  0  0  0  0  0  0  0  0  0  0
   39.6850   23.2220   39.0000 O   0  0  0  0  0  0  0  0  0  0  0  0
   38.0570   23.8300   40.4760 N   0  0  0  0  0  0  0  0  0  0  0  0
   37.6470   24.6870   41.4470 C   0  0  0  0  0  0  0  0  0  0  0  0
   36.5020   24.4790   41.9440 O   0  0  0  0  0  0  0  0  0  0  0  0
   40.3140   26.7230   41.6080 H   0  0  0  0  0  0  0  0  0  0  0  0
   41.0420   25.1450   39.8370 H   0  0  0  0  0  0  0  0  0  0  0  0
   37.4670   23.0270   40.1400 H   0  0  0  0  0  0  0  0  0  0  0  0
  1  2  1  0  0  0  0
  2  3  2  0  0  0  0
  2 17  1  0  0  0  0
  3  8  1  0  0  0  0
  4  3  1  0  0  0  0
  5  4  2  0  0  0  0
  6  5  1  0  0  0  0
  6  1  2  0  0  0  0
  7  1  1  0  0  0  0
  9 16  1  0  0  0  0
  9  5  1  0  0  0  0
 10  9  2  0  0  0  0
 11 10  1  0  0  0  0
 12 10  1  0  0  0  0
 12 14  2  0  0  0  0
 13 12  1  0  0  0  0
 14 16  1  0  0  0  0
 15 14  1  0  0  0  0
 17 19  1  0  0  0  0
 17 18  1  0  0  0  0
 20 17  1  0  0  0  0
 21 28  1  0  0  0  0
 21 20  1  0  0  0  0
 22 21  2  0  0  0  0
 23 22  1  0  0  0  0
 23 25  1  0  0  0  0
 24 23  2  0  0  0  0
 25 26  1  0  0  0  0
 26 20  1  0  0  0  0
 26 27  2  0  0  0  0
 29 22  1  0  0  0  0
 30 25  1  0  0  0  0
M  END
>  <minimizedAffinity>
-4.79102421

$$$$

 OpenBabel03242515273D

 30 32  0  0  0  0  0  0  0  0999 V2000
   37.5330   30.1210   40.7610 C   0  0  0  0  0  0  0  0  0  0  0  0
   36.8990   30.6060   39.6070 C   0  0  0  0  0  0  0  0  0  0  0  0
   36.2430   29.6940   38.8160 C   0  0  0  0  0  0  0  0  0  0  0  0
   36.2470   28.4000   39.1930 N   0  0  0  0  0  0  0  0  0  0  0  0
   36.8650   27.9610   40.3090 C   0  0  0  0  0  0  0  0  0  0  0  0
   37.5210   28.8090   41.1170 N   0  0  0  0  0  0  0  0  0  0  0  0
   38.0730   30.7940   41.4350 H   0  0  0  0  0  0  0  0  0  0  0  0
   35.7640   30.0750   37.9390 H   0  0  0  0  0  0  0  0  0  0  0  0
   36.8640   26.5580   40.7100 C   0  0  0  0  0  0  0  0  0  0  0  0
   37.1580   26.2620   42.0240 C   0  0  0  0  0  0  0  0  0  0  0  0
   37.4070   26.8850   42.8930 H   0  0  0  0  0  0  0  0  0  0  0  0
   37.0950   24.8740   42.1570 C   0  0  0  0  0  0  0  0  0  0  0  0
   37.2610   24.2600   43.0300 H   0  0  0  0  0  0  0  0  0  0  0  0
   36.7610   24.4120   40.8860 C   0  0  0  0  0  0  0  0  0  0  0  0
   36.6350   23.3620   40.6610 H   0  0  0  0  0  0  0  0  0  0  0  0
   36.6340   25.4460   40.0580 O   0  0  0  0  0  0  0  0  0  0  0  0
   37.0130   32.0500   39.3770 C   0  0  0  0  0  0  0  0  0  0  0  0
   36.2310   32.4240   38.7240 H   0  0  0  0  0  0  0  0  0  0  0  0
   36.8410   32.5570   40.3700 H   0  0  0  0  0  0  0  0  0  0  0  0
   38.3570   32.3490   38.9140 N   0  0  0  0  0  0  0  0  0  0  0  0
   38.8530   31.7110   37.8500 C   0  0  0  0  0  0  0  0  0  0  0  0
   40.1440   32.0300   37.4420 C   0  0  0  0  0  0  0  0  0  0  0  0
   40.8810   32.9710   38.1150 C   0  0  0  0  0  0  0  0  0  0  0  0
   42.0460   33.2290   37.7130 O   0  0  0  0  0  0  0  0  0  0  0  0
   40.3450   33.5940   39.1870 N   0  0  0  0  0  0  0  0  0  0  0  0
   39.0840   33.2860   39.5870 C   0  0  0  0  0  0  0  0  0  0  0  0
   38.6400   33.9040   40.5980 O   0  0  0  0  0  0  0  0  0  0  0  0
   38.2870   30.9600   37.2980 H   0  0  0  0  0  0  0  0  0  0  0  0
   40.5910   31.5410   36.5840 H   0  0  0  0  0  0  0  0  0  0  0  0
   40.9390   34.3100   39.6790 H   0  0  0  0  0  0  0  0  0  0  0  0
  1  6  1  0  0  0  0
  1  7  1  0  0  0  0
  2  1  2  0  0  0  0
  3  4  2  0  0  0  0
  3  2  1  0  0  0  0
  4  5  1  0  0  0  0
  5  9  1  0  0  0  0
  5  6  2  0  0  0  0
  8  3  1  0  0  0  0
  9 10  2  0  0  0  0
 10 12  1  0  0  0  0
 10 11  1  0  0  0  0
 12 13  1  0  0  0  0
 14 12  2  0  0  0  0
 15 14  1  0  0  0  0
 16  9  1  0  0  0  0
 16 14  1  0  0  0  0
 17  2  1  0  0  0  0
 17 19  1  0  0  0  0
 18 17  1  0  0  0  0
 20 17  1  0  0  0  0
 20 26  1  0  0  0  0
 21 20  1  0  0  0  0
 22 21  2  0  0  0  0
 22 23  1  0  0  0  0
 23 25  1  0  0  0  0
 24 23  2  0  0  0  0
 25 26  1  0  0  0  0
 25 30  1  0  0  0  0
 26 27  2  0  0  0  0
 28 21  1  0  0  0  0
 29 22  1  0  0  0  0
M  END
>  <minimizedAffinity>
-4.7891593

$$$$

 OpenBabel03242515273D

 30 32  0  0  0  0  0  0  0  0999 V2000
   37.2380   29.1630   39.7050 C   0  0  0  0  0  0  0  0  0  0  0  0
   37.0110   29.8050   40.9320 C   0  0  0  0  0  0  0  0  0  0  0  0
   37.0080   29.0240   42.0630 C   0  0  0  0  0  0  0  0  0  0  0  0
   37.2230   27.7000   41.9270 N   0  0  0  0  0  0  0  0  0  0  0  0
   37.4400   27.1090   40.7330 C   0  0  0  0  0  0  0  0  0  0  0  0
   37.4520   27.8250   39.5980 N   0  0  0  0  0  0  0  0  0  0  0  0
   37.2540   29.7270   38.7660 H   0  0  0  0  0  0  0  0  0  0  0  0
   36.8340   29.5230   42.9910 H   0  0  0  0  0  0  0  0  0  0  0  0
   37.6710   25.6750   40.5950 C   0  0  0  0  0  0  0  0  0  0  0  0
   37.2000   24.8460   41.5910 C   0  0  0  0  0  0  0  0  0  0  0  0
   36.6540   25.0350   42.5250 H   0  0  0  0  0  0  0  0  0  0  0  0
   37.5400   23.5400   41.2350 C   0  0  0  0  0  0  0  0  0  0  0  0
   37.3460   22.6140   41.7560 H   0  0  0  0  0  0  0  0  0  0  0  0
   38.2100   23.6690   40.0210 C   0  0  0  0  0  0  0  0  0  0  0  0
   38.6050   22.8200   39.4790 H   0  0  0  0  0  0  0  0  0  0  0  0
   38.2650   24.9530   39.6780 O   0  0  0  0  0  0  0  0  0  0  0  0
   36.8000   31.2540   40.8620 C   0  0  0  0  0  0  0  0  0  0  0  0
   35.9720   31.5170   40.2110 H   0  0  0  0  0  0  0  0  0  0  0  0
   36.4890   31.5930   41.8930 H   0  0  0  0  0  0  0  0  0  0  0  0
   38.0520   31.8980   40.5060 N   0  0  0  0  0  0  0  0  0  0  0  0
   39.1130   31.7830   41.3110 C   0  0  0  0  0  0  0  0  0  0  0  0
   40.2920   32.4150   40.9300 C   0  0  0  0  0  0  0  0  0  0  0  0
   40.3580   33.1330   39.7630 C   0  0  0  0  0  0  0  0  0  0  0  0
   41.4450   33.6910   39.4560 O   0  0  0  0  0  0  0  0  0  0  0  0
   39.2640   33.2270   38.9770 N   0  0  0  0  0  0  0  0  0  0  0  0
   38.1120   32.6100   39.3450 C   0  0  0  0  0  0  0  0  0  0  0  0
   37.1230   32.7360   38.5650 O   0  0  0  0  0  0  0  0  0  0  0  0
   39.0860   31.2170   42.2430 H   0  0  0  0  0  0  0  0  0  0  0  0
   41.1800   32.3510   41.5480 H   0  0  0  0  0  0  0  0  0  0  0  0
   39.3510   33.7860   38.0890 H   0  0  0  0  0  0  0  0  0  0  0  0
  1  2  1  0  0  0  0
  2  3  2  0  0  0  0
  3  8  1  0  0  0  0
  4  3  1  0  0  0  0
  5  4  2  0  0  0  0
  6  1  2  0  0  0  0
  6  5  1  0  0  0  0
  7  1  1  0  0  0  0
  9  5  1  0  0  0  0
  9 10  2  0  0  0  0
 10 11  1  0  0  0  0
 12 10  1  0  0  0  0
 12 13  1  0  0  0  0
 14 12  2  0  0  0  0
 15 14  1  0  0  0  0
 16 14  1  0  0  0  0
 16  9  1  0  0  0  0
 17  2  1  0  0  0  0
 17 19  1  0  0  0  0
 18 17  1  0  0  0  0
 20 17  1  0  0  0  0
 20 21  1  0  0  0  0
 21 28  1  0  0  0  0
 22 21  2  0  0  0  0
 22 29  1  0  0  0  0
 23 22  1  0  0  0  0
 24 23  2  0  0  0  0
 25 26  1  0  0  0  0
 25 23  1  0  0  0  0
 26 20  1  0  0  0  0
 27 26  2  0  0  0  0
 30 25  1  0  0  0  0
M  END
>  <minimizedAffinity>
-4.68918324

$$$$

 OpenBabel03242515273D

 30 32  0  0  0  0  0  0  0  0999 V2000
   37.7100   29.9850   38.8660 C   0  0  0  0  0  0  0  0  0  0  0  0
   36.8620   30.2630   39.9490 C   0  0  0  0  0  0  0  0  0  0  0  0
   37.1260   31.3920   40.6860 C   0  0  0  0  0  0  0  0  0  0  0  0
   38.1750   32.1590   40.3270 N   0  0  0  0  0  0  0  0  0  0  0  0
   38.9740   31.8680   39.2800 C   0  0  0  0  0  0  0  0  0  0  0  0
   38.7610   30.7780   38.5270 N   0  0  0  0  0  0  0  0  0  0  0  0
   37.5550   29.1020   38.2370 H   0  0  0  0  0  0  0  0  0  0  0  0
   36.4740   31.5930   41.5090 H   0  0  0  0  0  0  0  0  0  0  0  0
   40.1080   32.7050   38.8990 C   0  0  0  0  0  0  0  0  0  0  0  0
   40.7930   32.3770   37.7480 C   0  0  0  0  0  0  0  0  0  0  0  0
   40.6690   31.5770   37.0060 H   0  0  0  0  0  0  0  0  0  0  0  0
   41.8190   33.3120   37.6010 C   0  0  0  0  0  0  0  0  0  0  0  0
   42.5680   33.3920   36.8270 H   0  0  0  0  0  0  0  0  0  0  0  0
   41.6840   34.1610   38.6960 C   0  0  0  0  0  0  0  0  0  0  0  0
   42.3420   35.0020   38.8680 H   0  0  0  0  0  0  0  0  0  0  0  0
   40.6550   33.7640   39.4410 O   0  0  0  0  0  0  0  0  0  0  0  0
   35.7770   29.3010   40.1700 C   0  0  0  0  0  0  0  0  0  0  0  0
   34.9450   29.7390   40.7120 H   0  0  0  0  0  0  0  0  0  0  0  0
   35.3640   29.0290   39.1560 H   0  0  0  0  0  0  0  0  0  0  0  0
   36.3230   28.1100   40.7990 N   0  0  0  0  0  0  0  0  0  0  0  0
   36.6600   28.1330   42.0910 C   0  0  0  0  0  0  0  0  0  0  0  0
   37.1780   26.9700   42.6510 C   0  0  0  0  0  0  0  0  0  0  0  0
   37.3380   25.8370   41.8940 C   0  0  0  0  0  0  0  0  0  0  0  0
   37.8110   24.8060   42.4400 O   0  0  0  0  0  0  0  0  0  0  0  0
   36.9860   25.8540   40.5900 N   0  0  0  0  0  0  0  0  0  0  0  0
   36.4790   26.9870   40.0410 C   0  0  0  0  0  0  0  0  0  0  0  0
   36.1700   26.9380   38.8150 O   0  0  0  0  0  0  0  0  0  0  0  0
   36.5420   29.0210   42.7140 H   0  0  0  0  0  0  0  0  0  0  0  0
   37.4650   26.9380   43.6950 H   0  0  0  0  0  0  0  0  0  0  0  0
   37.1230   24.9670   40.0410 H   0  0  0  0  0  0  0  0  0  0  0  0
  1  2  1  0  0  0  0
  2 17  1  0  0  0  0
  2  3  2  0  0  0  0
  3  8  1  0  0  0  0
  4  3  1  0  0  0  0
  5  4  2  0  0  0  0
  6  1  2  0  0  0  0
  6  5  1  0  0  0  0
  7  1  1  0  0  0  0
  9  5  1  0  0  0  0
  9 16  1  0  0  0  0
 10  9  2  0  0  0  0
 11 10  1  0  0  0  0
 12 10  1  0  0  0  0
 12 14  2  0  0  0  0
 13 12  1  0  0  0  0
 14 15  1  0  0  0  0
 14 16  1  0  0  0  0
 17 18  1  0  0  0  0
 17 20  1  0  0  0  0
 19 17  1  0  0  0  0
 20 21  1  0  0  0  0
 21 22  2  0  0  0  0
 21 28  1  0  0  0  0
 22 29  1  0  0  0  0
 23 24  2  0  0  0  0
 23 22  1  0  0  0  0
 25 23  1  0  0  0  0
 26 25  1  0  0  0  0
 26 20  1  0  0  0  0
 27 26  2  0  0  0  0
 30 25  1  0  0  0  0
M  END
>  <minimizedAffinity>
-4.68302774

$$$$

 OpenBabel03242515273D

 30 32  0  0  0  0  0  0  0  0999 V2000
   36.5130   28.4610   41.2410 C   0  0  0  0  0  0  0  0  0  0  0  0
   37.0290   29.7650   41.2600 C   0  0  0  0  0  0  0  0  0  0  0  0
   38.2870   29.9390   41.7860 C   0  0  0  0  0  0  0  0  0  0  0  0
   38.9440   28.8560   42.2470 N   0  0  0  0  0  0  0  0  0  0  0  0
   38.4230   27.6120   42.2150 C   0  0  0  0  0  0  0  0  0  0  0  0
   37.1990   27.3850   41.7130 N   0  0  0  0  0  0  0  0  0  0  0  0
   35.5170   28.2510   40.8360 H   0  0  0  0  0  0  0  0  0  0  0  0
   38.6700   30.9370   41.7960 H   0  0  0  0  0  0  0  0  0  0  0  0
   39.1410   26.4440   42.7170 C   0  0  0  0  0  0  0  0  0  0  0  0
   38.7330   25.2010   42.2840 C   0  0  0  0  0  0  0  0  0  0  0  0
   37.9380   24.8700   41.6020 H   0  0  0  0  0  0  0  0  0  0  0  0
   39.5630   24.2600   42.8960 C   0  0  0  0  0  0  0  0  0  0  0  0
   39.5600   23.1830   42.8090 H   0  0  0  0  0  0  0  0  0  0  0  0
   40.4360   25.0130   43.6760 C   0  0  0  0  0  0  0  0  0  0  0  0
   41.2130   24.5660   44.2810 H   0  0  0  0  0  0  0  0  0  0  0  0
   40.1500   26.3060   43.5400 O   0  0  0  0  0  0  0  0  0  0  0  0
   36.1530   30.8040   40.7100 C   0  0  0  0  0  0  0  0  0  0  0  0
   35.1050   30.5250   40.7590 H   0  0  0  0  0  0  0  0  0  0  0  0
   36.2530   31.7080   41.3770 H   0  0  0  0  0  0  0  0  0  0  0  0
   36.6070   31.1450   39.3730 N   0  0  0  0  0  0  0  0  0  0  0  0
   36.4630   30.2670   38.3760 C   0  0  0  0  0  0  0  0  0  0  0  0
   36.9110   30.6360   37.1120 C   0  0  0  0  0  0  0  0  0  0  0  0
   37.4850   31.8650   36.9020 C   0  0  0  0  0  0  0  0  0  0  0  0
   37.8780   32.1590   35.7420 O   0  0  0  0  0  0  0  0  0  0  0  0
   37.6140   32.7240   37.9350 N   0  0  0  0  0  0  0  0  0  0  0  0
   37.1760   32.3680   39.1700 C   0  0  0  0  0  0  0  0  0  0  0  0
   37.3260   33.2170   40.0960 O   0  0  0  0  0  0  0  0  0  0  0  0
   36.0100   29.2850   38.5180 H   0  0  0  0  0  0  0  0  0  0  0  0
   36.8170   29.9600   36.2710 H   0  0  0  0  0  0  0  0  0  0  0  0
   38.0580   33.6570   37.7370 H   0  0  0  0  0  0  0  0  0  0  0  0
  1  2  2  0  0  0  0
  1  6  1  0  0  0  0
  2  3  1  0  0  0  0
  3  8  1  0  0  0  0
  3  4  2  0  0  0  0
  5  4  1  0  0  0  0
  5  9  1  0  0  0  0
  6  5  2  0  0  0  0
  7  1  1  0  0  0  0
  9 16  1  0  0  0  0
 10  9  2  0  0  0  0
 10 12  1  0  0  0  0
 11 10  1  0  0  0  0
 12 14  2  0  0  0  0
 13 12  1  0  0  0  0
 14 15  1  0  0  0  0
 16 14  1  0  0  0  0
 17 18  1  0  0  0  0
 17  2  1  0  0  0  0
 17 19  1  0  0  0  0
 20 17  1  0  0  0  0
 21 28  1  0  0  0  0
 21 20  1  0  0  0  0
 22 21  2  0  0  0  0
 23 22  1  0  0  0  0
 23 25  1  0  0  0  0
 24 23  2  0  0  0  0
 25 26  1  0  0  0  0
 26 20  1  0  0  0  0
 26 27  2  0  0  0  0
 29 22  1  0  0  0  0
 30 25  1  0  0  0  0
M  END
>  <minimizedAffinity>
-4.64873934

$$$$
