
 OpenBabel03242513083D

 40 44  0  0  0  0  0  0  0  0999 V2000
   45.9410   33.2050   41.6490 C   0  0  0  0  0  0  0  0  0  0  0  0
   47.1150   33.9010   41.3230 C   0  0  0  0  0  0  0  0  0  0  0  0
   48.0990   33.9670   42.2950 C   0  0  0  0  0  0  0  0  0  0  0  0
   47.8540   33.3520   43.4890 N   0  0  0  0  0  0  0  0  0  0  0  0
   46.7270   32.6920   43.7830 C   0  0  0  0  0  0  0  0  0  0  0  0
   45.7670   32.6180   42.8600 N   0  0  0  0  0  0  0  0  0  0  0  0
   45.1220   33.1050   40.9480 H   0  0  0  0  0  0  0  0  0  0  0  0
   46.8930   30.7710   45.2870 C   0  0  0  0  0  0  0  0  0  0  0  0
   46.5740   32.0770   45.0850 C   0  0  0  0  0  0  0  0  0  0  0  0
   46.0810   32.9070   46.1150 C   0  0  0  0  0  0  0  0  0  0  0  0
   45.9030   32.4010   47.3960 C   0  0  0  0  0  0  0  0  0  0  0  0
   45.4730   32.8610   48.5920 N   0  0  0  0  0  0  0  0  0  0  0  0
   45.5410   31.8240   49.4870 C   0  0  0  0  0  0  0  0  0  0  0  0
   46.0080   30.7540   48.8360 N   0  0  0  0  0  0  0  0  0  0  0  0
   46.2420   31.0640   47.5530 C   0  0  0  0  0  0  0  0  0  0  0  0
   46.7250   30.2360   46.5640 C   0  0  0  0  0  0  0  0  0  0  0  0
   47.2680   30.1500   44.4910 H   0  0  0  0  0  0  0  0  0  0  0  0
   45.8220   33.9560   45.9660 H   0  0  0  0  0  0  0  0  0  0  0  0
   45.1620   33.8620   48.7030 H   0  0  0  0  0  0  0  0  0  0  0  0
   45.2220   32.0560   50.4960 H   0  0  0  0  0  0  0  0  0  0  0  0
   46.9680   29.2050   46.7560 H   0  0  0  0  0  0  0  0  0  0  0  0
   49.3620   34.6900   42.0060 C   0  0  0  0  0  0  0  0  0  0  0  0
   49.1070   35.8240   41.2050 F   0  0  0  0  0  0  0  0  0  0  0  0
   49.9160   35.1690   43.1680 F   0  0  0  0  0  0  0  0  0  0  0  0
   50.2000   33.8440   41.3570 F   0  0  0  0  0  0  0  0  0  0  0  0
   47.2400   34.4670   40.1080 O   0  0  0  0  0  0  0  0  0  0  0  0
   47.3720   33.7400   38.9660 C   0  0  0  0  0  0  0  0  0  0  0  0
   48.3860   34.3830   38.2570 C   0  0  0  0  0  0  0  0  0  0  0  0
   48.5540   33.3990   36.7140 S   0  0  0  0  0  0  0  0  0  0  0  0
   47.1940   32.2400   37.2780 C   0  0  0  0  0  0  0  0  0  0  0  0
   46.9630   32.7220   38.2610 N   0  0  0  0  0  0  0  0  0  0  0  0
   49.2140   35.2510   38.1280 H   0  0  0  0  0  0  0  0  0  0  0  0
   46.6590   31.0520   36.5450 C   0  0  0  0  0  0  0  0  0  0  0  0
   45.5280   30.2990   36.7340 C   0  0  0  0  0  0  0  0  0  0  0  0
   44.9160   30.6050   37.5450 H   0  0  0  0  0  0  0  0  0  0  0  0
   45.5890   29.3450   35.7380 C   0  0  0  0  0  0  0  0  0  0  0  0
   44.7620   28.6170   35.7010 H   0  0  0  0  0  0  0  0  0  0  0  0
   46.7510   29.5630   34.9910 C   0  0  0  0  0  0  0  0  0  0  0  0
   46.9710   28.9090   34.1600 H   0  0  0  0  0  0  0  0  0  0  0  0
   47.3460   30.6010   35.5260 O   0  0  0  0  0  0  0  0  0  0  0  0
  1  6  1  0  0  0  0
  2  1  2  0  0  0  0
  2  3  1  0  0  0  0
  3  4  2  0  0  0  0
  4  5  1  0  0  0  0
  5  9  1  0  0  0  0
  6  5  2  0  0  0  0
  7  1  1  0  0  0  0
  8 16  1  0  0  0  0
  9  8  2  0  0  0  0
  9 10  1  0  0  0  0
 10 11  2  0  0  0  0
 11 15  1  0  0  0  0
 11 12  1  0  0  0  0
 12 19  1  0  0  0  0
 12 13  1  0  0  0  0
 13 20  1  0  0  0  0
 14 13  2  0  0  0  0
 15 14  1  0  0  0  0
 16 21  1  0  0  0  0
 16 15  2  0  0  0  0
 17  8  1  0  0  0  0
 18 10  1  0  0  0  0
 22  3  1  0  0  0  0
 22 24  1  0  0  0  0
 23 22  1  0  0  0  0
 25 22  1  0  0  0  0
 26  2  1  0  0  0  0
 27 26  1  0  0  0  0
 28 27  2  0  0  0  0
 29 30  1  0  0  0  0
 29 28  1  0  0  0  0
 30 31  2  0  0  0  0
 31 27  1  0  0  0  0
 32 28  1  0  0  0  0
 33 34  2  0  0  0  0
 33 30  1  0  0  0  0
 34 35  1  0  0  0  0
 36 34  1  0  0  0  0
 37 36  1  0  0  0  0
 38 40  1  0  0  0  0
 38 36  2  0  0  0  0
 39 38  1  0  0  0  0
 40 33  1  0  0  0  0
M  END
>  <minimizedAffinity>
-6.17178345

>  <minimizedRMSD>
0.0651560873

$$$$
