
 OpenBabel03252509113D

 30 33  0  0  0  0  0  0  0  0999 V2000
   46.1570   31.6170   44.3850 C   0  0  0  0  0  0  0  0  0  0  0  0
   46.4850   32.6260   43.4950 C   0  0  0  0  0  0  0  0  0  0  0  0
   47.6950   32.6600   42.8320 C   0  0  0  0  0  0  0  0  0  0  0  0
   48.6330   31.6550   43.0510 C   0  0  0  0  0  0  0  0  0  0  0  0
   49.8800   31.3680   42.5960 N   0  0  0  0  0  0  0  0  0  0  0  0
   50.3100   30.2250   43.1810 C   0  0  0  0  0  0  0  0  0  0  0  0
   49.3170   29.8160   43.9940 N   0  0  0  0  0  0  0  0  0  0  0  0
   48.2760   30.6690   43.9390 C   0  0  0  0  0  0  0  0  0  0  0  0
   47.0800   30.5990   44.6200 C   0  0  0  0  0  0  0  0  0  0  0  0
   45.1940   31.6230   44.8880 H   0  0  0  0  0  0  0  0  0  0  0  0
   50.3360   31.9960   41.9100 H   0  0  0  0  0  0  0  0  0  0  0  0
   51.2830   29.7930   42.9750 H   0  0  0  0  0  0  0  0  0  0  0  0
   46.8720   29.7890   45.3040 H   0  0  0  0  0  0  0  0  0  0  0  0
   44.5920   35.7560   43.8190 C   0  0  0  0  0  0  0  0  0  0  0  0
   43.7150   35.6980   42.7350 C   0  0  0  0  0  0  0  0  0  0  0  0
   43.7750   34.5770   41.8900 C   0  0  0  0  0  0  0  0  0  0  0  0
   44.7010   33.6200   42.2010 N   0  0  0  0  0  0  0  0  0  0  0  0
   45.5320   33.6940   43.2430 C   0  0  0  0  0  0  0  0  0  0  0  0
   45.4870   34.7650   44.0630 N   0  0  0  0  0  0  0  0  0  0  0  0
   44.5370   36.6290   44.4660 H   0  0  0  0  0  0  0  0  0  0  0  0
   43.0050   36.4840   42.5400 H   0  0  0  0  0  0  0  0  0  0  0  0
   43.1200   34.4780   41.0360 H   0  0  0  0  0  0  0  0  0  0  0  0
   48.0680   33.7100   41.8890 C   0  0  0  0  0  0  0  0  0  0  0  0
   48.7650   34.7730   42.4740 C   0  0  0  0  0  0  0  0  0  0  0  0
   49.1120   35.0360   43.4600 H   0  0  0  0  0  0  0  0  0  0  0  0
   49.0450   35.6820   41.4480 C   0  0  0  0  0  0  0  0  0  0  0  0
   49.5740   36.6460   41.4800 H   0  0  0  0  0  0  0  0  0  0  0  0
   48.4950   35.1040   40.3010 C   0  0  0  0  0  0  0  0  0  0  0  0
   48.4910   35.4850   39.2850 H   0  0  0  0  0  0  0  0  0  0  0  0
   47.9380   33.9550   40.6150 O   0  0  0  0  0  0  0  0  0  0  0  0
  1  9  1  0  0  0  0
  1 10  1  0  0  0  0
  2  1  2  0  0  0  0
  3  4  2  0  0  0  0
  3  2  1  0  0  0  0
  4  8  1  0  0  0  0
  5  4  1  0  0  0  0
  5  6  1  0  0  0  0
  6  7  2  0  0  0  0
  8  7  1  0  0  0  0
  8  9  2  0  0  0  0
  9 13  1  0  0  0  0
 11  5  1  0  0  0  0
 12  6  1  0  0  0  0
 14 19  1  0  0  0  0
 14 20  1  0  0  0  0
 15 14  2  0  0  0  0
 16 17  2  0  0  0  0
 16 15  1  0  0  0  0
 17 18  1  0  0  0  0
 18  2  1  0  0  0  0
 18 19  2  0  0  0  0
 21 15  1  0  0  0  0
 22 16  1  0  0  0  0
 23 24  2  0  0  0  0
 23  3  1  0  0  0  0
 24 25  1  0  0  0  0
 26 27  1  0  0  0  0
 26 24  1  0  0  0  0
 28 30  1  0  0  0  0
 28 26  2  0  0  0  0
 29 28  1  0  0  0  0
 30 23  1  0  0  0  0
M  END
>  <minimizedAffinity>
-4.46977234

>  <minimizedRMSD>
4.83831024

$$$$
