
 OpenBabel03242522193D

 43 46  0  0  0  0  0  0  0  0999 V2000
   37.1420   31.6750   40.4800 C   0  0  0  0  0  0  0  0  0  0  0  0
   36.0420   31.9030   40.5190 H   0  0  0  0  0  0  0  0  0  0  0  0
   37.5550   32.1630   41.4110 H   0  0  0  0  0  0  0  0  0  0  0  0
   37.3170   30.2440   40.6170 C   0  0  0  0  0  0  0  0  0  0  0  0
   37.5500   29.3020   39.6690 C   0  0  0  0  0  0  0  0  0  0  0  0
   37.7170   27.9500   39.8900 C   0  0  0  0  0  0  0  0  0  0  0  0
   37.6400   27.5290   41.2110 C   0  0  0  0  0  0  0  0  0  0  0  0
   37.4030   28.4970   42.1420 C   0  0  0  0  0  0  0  0  0  0  0  0
   37.2440   29.8000   41.8980 N   0  0  0  0  0  0  0  0  0  0  0  0
   37.5920   29.7540   38.6580 H   0  0  0  0  0  0  0  0  0  0  0  0
   37.8860   27.4080   38.9960 H   0  0  0  0  0  0  0  0  0  0  0  0
   37.8900   26.0950   41.3310 C   0  0  0  0  0  0  0  0  0  0  0  0
   36.9270   25.1010   41.1870 C   0  0  0  0  0  0  0  0  0  0  0  0
   35.8450   25.1730   40.9650 H   0  0  0  0  0  0  0  0  0  0  0  0
   37.4420   23.8590   41.3530 C   0  0  0  0  0  0  0  0  0  0  0  0
   36.9740   22.8920   41.3080 H   0  0  0  0  0  0  0  0  0  0  0  0
   38.7610   24.0910   41.6080 C   0  0  0  0  0  0  0  0  0  0  0  0
   39.5900   23.3940   41.8100 H   0  0  0  0  0  0  0  0  0  0  0  0
   38.9190   25.3500   41.5770 O   0  0  0  0  0  0  0  0  0  0  0  0
   37.3080   27.9560   43.5430 C   0  0  0  0  0  0  0  0  0  0  0  0
   38.4870   27.3160   43.9040 F   0  0  0  0  0  0  0  0  0  0  0  0
   36.2170   27.1350   43.7340 F   0  0  0  0  0  0  0  0  0  0  0  0
   37.1420   29.0130   44.4300 F   0  0  0  0  0  0  0  0  0  0  0  0
   37.6830   32.3060   39.2450 C   0  0  0  0  0  0  0  0  0  0  0  0
   37.8640   31.5340   38.4720 H   0  0  0  0  0  0  0  0  0  0  0  0
   36.9360   33.0630   38.9050 H   0  0  0  0  0  0  0  0  0  0  0  0
   41.0690   33.7220   39.6200 C   0  0  0  0  0  0  0  0  0  0  0  0
   40.7600   34.8580   40.2610 C   0  0  0  0  0  0  0  0  0  0  0  0
   38.9280   34.7320   40.3960 S   0  0  0  0  0  0  0  0  0  0  0  0
   38.9250   33.0960   39.5230 C   0  0  0  0  0  0  0  0  0  0  0  0
   40.0360   32.9990   39.3480 N   0  0  0  0  0  0  0  0  0  0  0  0
   41.4610   35.6180   40.5900 H   0  0  0  0  0  0  0  0  0  0  0  0
   44.2510   33.0850   37.7060 C   0  0  0  0  0  0  0  0  0  0  0  0
   42.9300   33.4810   37.9690 C   0  0  0  0  0  0  0  0  0  0  0  0
   42.4560   33.3330   39.2550 C   0  0  0  0  0  0  0  0  0  0  0  0
   43.3150   32.8040   40.1950 N   0  0  0  0  0  0  0  0  0  0  0  0
   44.5710   32.4430   39.8810 C   0  0  0  0  0  0  0  0  0  0  0  0
   45.0430   32.5800   38.6430 N   0  0  0  0  0  0  0  0  0  0  0  0
   44.6590   33.1850   36.7150 H   0  0  0  0  0  0  0  0  0  0  0  0
   45.0930   32.0470   40.7510 H   0  0  0  0  0  0  0  0  0  0  0  0
   42.1830   34.0040   36.8880 N   0  0  0  0  0  0  0  0  0  0  0  0
   42.3680   33.6400   35.9140 H   0  0  0  0  0  0  0  0  0  0  0  0
   41.4450   34.7340   36.9630 H   0  0  0  0  0  0  0  0  0  0  0  0
  1  2  1  0  0  0  0
  1  4  1  0  0  0  0
  1  3  1  0  0  0  0
  4  9  1  0  0  0  0
  5  6  1  0  0  0  0
  5  4  2  0  0  0  0
  6  7  2  0  0  0  0
  7 12  1  0  0  0  0
  7  8  1  0  0  0  0
  8 20  1  0  0  0  0
  9  8  2  0  0  0  0
 10  5  1  0  0  0  0
 11  6  1  0  0  0  0
 12 19  1  0  0  0  0
 13 12  2  0  0  0  0
 13 15  1  0  0  0  0
 14 13  1  0  0  0  0
 15 17  2  0  0  0  0
 16 15  1  0  0  0  0
 17 18  1  0  0  0  0
 19 17  1  0  0  0  0
 20 22  1  0  0  0  0
 20 21  1  0  0  0  0
 20 23  1  0  0  0  0
 24 30  1  0  0  0  0
 24  1  1  0  0  0  0
 25 24  1  0  0  0  0
 26 24  1  0  0  0  0
 27 28  2  0  0  0  0
 28 29  1  0  0  0  0
 28 32  1  0  0  0  0
 30 29  1  0  0  0  0
 31 30  2  0  0  0  0
 31 27  1  0  0  0  0
 33 34  2  0  0  0  0
 33 38  1  0  0  0  0
 34 35  1  0  0  0  0
 35 27  1  0  0  0  0
 35 36  2  0  0  0  0
 37 36  1  0  0  0  0
 37 40  1  0  0  0  0
 38 37  2  0  0  0  0
 39 33  1  0  0  0  0
 41 43  1  0  0  0  0
 41 34  1  0  0  0  0
 42 41  1  0  0  0  0
M  END
>  <minimizedAffinity>
-7.01371622

$$$$

 OpenBabel03242522193D

 43 46  0  0  0  0  0  0  0  0999 V2000
   35.0670   28.9440   38.9770 C   0  0  0  0  0  0  0  0  0  0  0  0
   34.1440   28.3670   38.6960 H   0  0  0  0  0  0  0  0  0  0  0  0
   34.6940   29.7160   39.7120 H   0  0  0  0  0  0  0  0  0  0  0  0
   35.9640   28.0560   39.6860 C   0  0  0  0  0  0  0  0  0  0  0  0
   36.4300   26.8300   39.3370 C   0  0  0  0  0  0  0  0  0  0  0  0
   37.2980   26.0510   40.0740 C   0  0  0  0  0  0  0  0  0  0  0  0
   37.7290   26.5840   41.2810 C   0  0  0  0  0  0  0  0  0  0  0  0
   37.2440   27.8170   41.6070 C   0  0  0  0  0  0  0  0  0  0  0  0
   36.4020   28.5480   40.8730 N   0  0  0  0  0  0  0  0  0  0  0  0
   36.0200   26.5100   38.3590 H   0  0  0  0  0  0  0  0  0  0  0  0
   37.5210   25.1290   39.6020 H   0  0  0  0  0  0  0  0  0  0  0  0
   38.6880   25.7030   41.9440 C   0  0  0  0  0  0  0  0  0  0  0  0
   40.0550   25.6730   41.6870 C   0  0  0  0  0  0  0  0  0  0  0  0
   40.6690   26.2650   40.9800 H   0  0  0  0  0  0  0  0  0  0  0  0
   40.7010   24.7560   42.4480 C   0  0  0  0  0  0  0  0  0  0  0  0
   41.7400   24.4870   42.4930 H   0  0  0  0  0  0  0  0  0  0  0  0
   39.7050   24.2030   43.1960 C   0  0  0  0  0  0  0  0  0  0  0  0
   39.7320   23.4120   43.9620 H   0  0  0  0  0  0  0  0  0  0  0  0
   38.6290   24.7840   42.8530 O   0  0  0  0  0  0  0  0  0  0  0  0
   37.7380   28.3120   42.9390 C   0  0  0  0  0  0  0  0  0  0  0  0
   37.4300   27.4050   43.9450 F   0  0  0  0  0  0  0  0  0  0  0  0
   37.2820   29.5750   43.2510 F   0  0  0  0  0  0  0  0  0  0  0  0
   39.1240   28.4120   42.9030 F   0  0  0  0  0  0  0  0  0  0  0  0
   35.5880   29.5780   37.7340 C   0  0  0  0  0  0  0  0  0  0  0  0
   35.5290   28.8650   36.8900 H   0  0  0  0  0  0  0  0  0  0  0  0
   34.9750   30.4920   37.5470 H   0  0  0  0  0  0  0  0  0  0  0  0
   38.7200   31.3790   38.4830 C   0  0  0  0  0  0  0  0  0  0  0  0
   39.5990   30.5130   37.9600 C   0  0  0  0  0  0  0  0  0  0  0  0
   38.4930   29.1830   37.3290 S   0  0  0  0  0  0  0  0  0  0  0  0
   36.9850   30.0880   37.9150 C   0  0  0  0  0  0  0  0  0  0  0  0
   37.4960   30.9910   38.3610 N   0  0  0  0  0  0  0  0  0  0  0  0
   40.6780   30.6270   37.9460 H   0  0  0  0  0  0  0  0  0  0  0  0
   38.6950   34.5200   40.5630 C   0  0  0  0  0  0  0  0  0  0  0  0
   38.2510   33.3190   39.9880 C   0  0  0  0  0  0  0  0  0  0  0  0
   39.1100   32.6540   39.1380 C   0  0  0  0  0  0  0  0  0  0  0  0
   40.3470   33.2190   38.9120 N   0  0  0  0  0  0  0  0  0  0  0  0
   40.7140   34.3740   39.4940 C   0  0  0  0  0  0  0  0  0  0  0  0
   39.8950   35.0270   40.3160 N   0  0  0  0  0  0  0  0  0  0  0  0
   38.0540   35.0680   41.2320 H   0  0  0  0  0  0  0  0  0  0  0  0
   41.7220   34.6600   39.1930 H   0  0  0  0  0  0  0  0  0  0  0  0
   36.9500   32.8800   40.3260 N   0  0  0  0  0  0  0  0  0  0  0  0
   36.2010   33.5990   40.5220 H   0  0  0  0  0  0  0  0  0  0  0  0
   36.6490   31.8860   40.4020 H   0  0  0  0  0  0  0  0  0  0  0  0
  1  4  1  0  0  0  0
  1  3  1  0  0  0  0
  2  1  1  0  0  0  0
  4  9  1  0  0  0  0
  5  4  2  0  0  0  0
  5  6  1  0  0  0  0
  6  7  2  0  0  0  0
  7  8  1  0  0  0  0
  7 12  1  0  0  0  0
  8 20  1  0  0  0  0
  9  8  2  0  0  0  0
 10  5  1  0  0  0  0
 11  6  1  0  0  0  0
 12 19  1  0  0  0  0
 13 12  2  0  0  0  0
 13 15  1  0  0  0  0
 14 13  1  0  0  0  0
 15 16  1  0  0  0  0
 15 17  2  0  0  0  0
 17 18  1  0  0  0  0
 19 17  1  0  0  0  0
 20 22  1  0  0  0  0
 20 21  1  0  0  0  0
 23 20  1  0  0  0  0
 24 30  1  0  0  0  0
 24  1  1  0  0  0  0
 25 24  1  0  0  0  0
 26 24  1  0  0  0  0
 27 35  1  0  0  0  0
 28 27  2  0  0  0  0
 29 30  1  0  0  0  0
 29 28  1  0  0  0  0
 30 31  2  0  0  0  0
 31 27  1  0  0  0  0
 32 28  1  0  0  0  0
 33 39  1  0  0  0  0
 34 41  1  0  0  0  0
 34 33  2  0  0  0  0
 35 34  1  0  0  0  0
 36 35  2  0  0  0  0
 36 37  1  0  0  0  0
 37 38  2  0  0  0  0
 38 33  1  0  0  0  0
 40 37  1  0  0  0  0
 41 43  1  0  0  0  0
 41 42  1  0  0  0  0
M  END
>  <minimizedAffinity>
-6.56343031

$$$$

 OpenBabel03242522193D

 43 46  0  0  0  0  0  0  0  0999 V2000
   37.2780   29.4890   42.2910 C   0  0  0  0  0  0  0  0  0  0  0  0
   36.8240   29.4780   43.3180 H   0  0  0  0  0  0  0  0  0  0  0  0
   38.3160   29.9030   42.4550 H   0  0  0  0  0  0  0  0  0  0  0  0
   37.4150   28.1210   41.8360 C   0  0  0  0  0  0  0  0  0  0  0  0
   36.7230   27.4480   40.8820 C   0  0  0  0  0  0  0  0  0  0  0  0
   36.9280   26.1380   40.5010 C   0  0  0  0  0  0  0  0  0  0  0  0
   37.9410   25.4570   41.1630 C   0  0  0  0  0  0  0  0  0  0  0  0
   38.6190   26.1570   42.1180 C   0  0  0  0  0  0  0  0  0  0  0  0
   38.3970   27.4270   42.4660 N   0  0  0  0  0  0  0  0  0  0  0  0
   35.9450   28.0910   40.4250 H   0  0  0  0  0  0  0  0  0  0  0  0
   36.2650   25.8260   39.7360 H   0  0  0  0  0  0  0  0  0  0  0  0
   38.1080   24.1040   40.6390 C   0  0  0  0  0  0  0  0  0  0  0  0
   38.8520   23.7700   39.5110 C   0  0  0  0  0  0  0  0  0  0  0  0
   39.4370   24.4060   38.8190 H   0  0  0  0  0  0  0  0  0  0  0  0
   38.8290   22.4390   39.2570 C   0  0  0  0  0  0  0  0  0  0  0  0
   39.2930   21.8650   38.4750 H   0  0  0  0  0  0  0  0  0  0  0  0
   38.0490   21.9350   40.2540 C   0  0  0  0  0  0  0  0  0  0  0  0
   37.7370   20.9030   40.4740 H   0  0  0  0  0  0  0  0  0  0  0  0
   37.6940   22.9230   40.9690 O   0  0  0  0  0  0  0  0  0  0  0  0
   39.6810   25.3420   42.8040 C   0  0  0  0  0  0  0  0  0  0  0  0
   40.7430   25.0950   41.9440 F   0  0  0  0  0  0  0  0  0  0  0  0
   39.1980   24.1700   43.3480 F   0  0  0  0  0  0  0  0  0  0  0  0
   40.1940   26.0680   43.8720 F   0  0  0  0  0  0  0  0  0  0  0  0
   36.4520   30.4000   41.4510 C   0  0  0  0  0  0  0  0  0  0  0  0
   35.5650   29.8610   41.0650 H   0  0  0  0  0  0  0  0  0  0  0  0
   36.1620   31.2680   42.0900 H   0  0  0  0  0  0  0  0  0  0  0  0
   38.7380   32.2280   39.2060 C   0  0  0  0  0  0  0  0  0  0  0  0
   38.3240   31.7410   38.0280 C   0  0  0  0  0  0  0  0  0  0  0  0
   36.9850   30.5870   38.5450 S   0  0  0  0  0  0  0  0  0  0  0  0
   37.2490   31.0000   40.3330 C   0  0  0  0  0  0  0  0  0  0  0  0
   38.0890   31.7440   40.2100 N   0  0  0  0  0  0  0  0  0  0  0  0
   38.7200   32.0020   37.0520 H   0  0  0  0  0  0  0  0  0  0  0  0
   40.8750   35.0990   40.3860 C   0  0  0  0  0  0  0  0  0  0  0  0
   39.8030   34.1940   40.3250 C   0  0  0  0  0  0  0  0  0  0  0  0
   39.8330   33.2230   39.3460 C   0  0  0  0  0  0  0  0  0  0  0  0
   40.9170   33.2110   38.4930 N   0  0  0  0  0  0  0  0  0  0  0  0
   41.9130   34.1070   38.6030 C   0  0  0  0  0  0  0  0  0  0  0  0
   41.8980   35.0490   39.5440 N   0  0  0  0  0  0  0  0  0  0  0  0
   40.8890   35.8700   41.1370 H   0  0  0  0  0  0  0  0  0  0  0  0
   42.6760   33.9380   37.8430 H   0  0  0  0  0  0  0  0  0  0  0  0
   38.7690   34.3480   41.2770 N   0  0  0  0  0  0  0  0  0  0  0  0
   38.5320   35.3170   41.6240 H   0  0  0  0  0  0  0  0  0  0  0  0
   38.2000   33.5750   41.6810 H   0  0  0  0  0  0  0  0  0  0  0  0
  1  3  1  0  0  0  0
  1  2  1  0  0  0  0
  4  1  1  0  0  0  0
  4  9  1  0  0  0  0
  5  4  2  0  0  0  0
  6  5  1  0  0  0  0
  6  7  2  0  0  0  0
  7  8  1  0  0  0  0
  8  9  2  0  0  0  0
  8 20  1  0  0  0  0
 10  5  1  0  0  0  0
 11  6  1  0  0  0  0
 12 19  1  0  0  0  0
 12  7  1  0  0  0  0
 13 12  2  0  0  0  0
 14 13  1  0  0  0  0
 15 13  1  0  0  0  0
 15 17  2  0  0  0  0
 16 15  1  0  0  0  0
 17 18  1  0  0  0  0
 17 19  1  0  0  0  0
 20 22  1  0  0  0  0
 20 23  1  0  0  0  0
 21 20  1  0  0  0  0
 24 26  1  0  0  0  0
 24  1  1  0  0  0  0
 25 24  1  0  0  0  0
 27 35  1  0  0  0  0
 27 31  1  0  0  0  0
 28 29  1  0  0  0  0
 28 27  2  0  0  0  0
 29 30  1  0  0  0  0
 30 24  1  0  0  0  0
 31 30  2  0  0  0  0
 32 28  1  0  0  0  0
 33 39  1  0  0  0  0
 34 33  1  0  0  0  0
 34 41  1  0  0  0  0
 35 34  2  0  0  0  0
 36 37  2  0  0  0  0
 36 35  1  0  0  0  0
 37 38  1  0  0  0  0
 38 33  2  0  0  0  0
 40 37  1  0  0  0  0
 41 42  1  0  0  0  0
 41 43  1  0  0  0  0
M  END
>  <minimizedAffinity>
-6.33631372

$$$$

 OpenBabel03242522193D

 43 46  0  0  0  0  0  0  0  0999 V2000
   37.2050   28.2390   42.9240 C   0  0  0  0  0  0  0  0  0  0  0  0
   36.2930   28.6690   42.4300 H   0  0  0  0  0  0  0  0  0  0  0  0
   36.8480   27.9520   43.9570 H   0  0  0  0  0  0  0  0  0  0  0  0
   37.5710   27.0210   42.2300 C   0  0  0  0  0  0  0  0  0  0  0  0
   38.4670   26.0610   42.5700 C   0  0  0  0  0  0  0  0  0  0  0  0
   38.7470   24.9190   41.8490 C   0  0  0  0  0  0  0  0  0  0  0  0
   38.0370   24.7470   40.6690 C   0  0  0  0  0  0  0  0  0  0  0  0
   37.1440   25.7280   40.3510 C   0  0  0  0  0  0  0  0  0  0  0  0
   36.8940   26.8250   41.0690 N   0  0  0  0  0  0  0  0  0  0  0  0
   38.9700   26.3060   43.5270 H   0  0  0  0  0  0  0  0  0  0  0  0
   39.4860   24.3160   42.3100 H   0  0  0  0  0  0  0  0  0  0  0  0
   38.3700   23.4800   40.0230 C   0  0  0  0  0  0  0  0  0  0  0  0
   37.8420   22.2410   40.3750 C   0  0  0  0  0  0  0  0  0  0  0  0
   37.1100   21.9650   41.1590 H   0  0  0  0  0  0  0  0  0  0  0  0
   38.3310   21.2370   39.6070 C   0  0  0  0  0  0  0  0  0  0  0  0
   38.1320   20.1810   39.6200 H   0  0  0  0  0  0  0  0  0  0  0  0
   39.1860   21.8730   38.7560 C   0  0  0  0  0  0  0  0  0  0  0  0
   39.8210   21.4810   37.9460 H   0  0  0  0  0  0  0  0  0  0  0  0
   39.1450   23.1060   39.0570 O   0  0  0  0  0  0  0  0  0  0  0  0
   36.4350   25.4790   39.0470 C   0  0  0  0  0  0  0  0  0  0  0  0
   35.5970   24.3760   39.1460 F   0  0  0  0  0  0  0  0  0  0  0  0
   37.2960   25.3560   37.9770 F   0  0  0  0  0  0  0  0  0  0  0  0
   35.6260   26.5700   38.7530 F   0  0  0  0  0  0  0  0  0  0  0  0
   38.2300   29.3180   42.9790 C   0  0  0  0  0  0  0  0  0  0  0  0
   38.2200   29.8010   43.9740 H   0  0  0  0  0  0  0  0  0  0  0  0
   39.2180   28.8480   42.7580 H   0  0  0  0  0  0  0  0  0  0  0  0
   38.4170   31.9570   40.4080 C   0  0  0  0  0  0  0  0  0  0  0  0
   37.1580   31.9060   39.9500 C   0  0  0  0  0  0  0  0  0  0  0  0
   36.4310   30.5710   40.9900 S   0  0  0  0  0  0  0  0  0  0  0  0
   38.0360   30.3240   41.8860 C   0  0  0  0  0  0  0  0  0  0  0  0
   38.6480   31.1070   41.3500 N   0  0  0  0  0  0  0  0  0  0  0  0
   36.7380   32.5230   39.1640 H   0  0  0  0  0  0  0  0  0  0  0  0
   40.6130   34.9710   39.8730 C   0  0  0  0  0  0  0  0  0  0  0  0
   39.6230   34.1470   40.4290 C   0  0  0  0  0  0  0  0  0  0  0  0
   39.4460   32.8920   39.8840 C   0  0  0  0  0  0  0  0  0  0  0  0
   40.2580   32.5360   38.8270 N   0  0  0  0  0  0  0  0  0  0  0  0
   41.1900   33.3720   38.3390 C   0  0  0  0  0  0  0  0  0  0  0  0
   41.3720   34.5860   38.8550 N   0  0  0  0  0  0  0  0  0  0  0  0
   40.7820   35.9580   40.2700 H   0  0  0  0  0  0  0  0  0  0  0  0
   41.7280   32.9160   37.5080 H   0  0  0  0  0  0  0  0  0  0  0  0
   38.8770   34.6690   41.5110 N   0  0  0  0  0  0  0  0  0  0  0  0
   38.6830   35.7070   41.5460 H   0  0  0  0  0  0  0  0  0  0  0  0
   38.4870   34.1120   42.2990 H   0  0  0  0  0  0  0  0  0  0  0  0
  1 24  1  0  0  0  0
  1  3  1  0  0  0  0
  2  1  1  0  0  0  0
  4  5  1  0  0  0  0
  4  1  1  0  0  0  0
  5 10  1  0  0  0  0
  6 11  1  0  0  0  0
  6  5  2  0  0  0  0
  7  6  1  0  0  0  0
  8  7  2  0  0  0  0
  8  9  1  0  0  0  0
  9  4  2  0  0  0  0
 12 13  2  0  0  0  0
 12  7  1  0  0  0  0
 13 14  1  0  0  0  0
 15 16  1  0  0  0  0
 15 13  1  0  0  0  0
 17 19  1  0  0  0  0
 17 15  2  0  0  0  0
 18 17  1  0  0  0  0
 19 12  1  0  0  0  0
 20 21  1  0  0  0  0
 20  8  1  0  0  0  0
 22 20  1  0  0  0  0
 23 20  1  0  0  0  0
 24 25  1  0  0  0  0
 26 24  1  0  0  0  0
 27 31  1  0  0  0  0
 28 27  2  0  0  0  0
 28 29  1  0  0  0  0
 29 30  1  0  0  0  0
 30 24  1  0  0  0  0
 31 30  2  0  0  0  0
 32 28  1  0  0  0  0
 33 39  1  0  0  0  0
 33 34  1  0  0  0  0
 34 41  1  0  0  0  0
 35 27  1  0  0  0  0
 35 34  2  0  0  0  0
 36 35  1  0  0  0  0
 37 36  2  0  0  0  0
 37 38  1  0  0  0  0
 38 33  2  0  0  0  0
 40 37  1  0  0  0  0
 41 42  1  0  0  0  0
 41 43  1  0  0  0  0
M  END
>  <minimizedAffinity>
-6.32940674

$$$$

 OpenBabel03242522193D

 43 46  0  0  0  0  0  0  0  0999 V2000
   36.5780   31.4830   40.3430 C   0  0  0  0  0  0  0  0  0  0  0  0
   35.4850   31.6880   40.1850 H   0  0  0  0  0  0  0  0  0  0  0  0
   36.7980   31.9360   41.3540 H   0  0  0  0  0  0  0  0  0  0  0  0
   36.7640   30.0510   40.4510 C   0  0  0  0  0  0  0  0  0  0  0  0
   36.8300   29.1070   39.4790 C   0  0  0  0  0  0  0  0  0  0  0  0
   37.0220   27.7540   39.6710 C   0  0  0  0  0  0  0  0  0  0  0  0
   37.1610   27.3340   40.9870 C   0  0  0  0  0  0  0  0  0  0  0  0
   37.0890   28.3040   41.9440 C   0  0  0  0  0  0  0  0  0  0  0  0
   36.9010   29.6080   41.7270 N   0  0  0  0  0  0  0  0  0  0  0  0
   36.7070   29.5580   38.4740 H   0  0  0  0  0  0  0  0  0  0  0  0
   37.0360   27.2100   38.7630 H   0  0  0  0  0  0  0  0  0  0  0  0
   37.4190   25.8980   41.0670 C   0  0  0  0  0  0  0  0  0  0  0  0
   38.6090   25.2790   40.6990 C   0  0  0  0  0  0  0  0  0  0  0  0
   39.5490   25.7040   40.2970 H   0  0  0  0  0  0  0  0  0  0  0  0
   38.5660   23.9360   40.8770 C   0  0  0  0  0  0  0  0  0  0  0  0
   39.3060   23.1780   40.6930 H   0  0  0  0  0  0  0  0  0  0  0  0
   37.3130   23.7180   41.3690 C   0  0  0  0  0  0  0  0  0  0  0  0
   36.8080   22.7870   41.6690 H   0  0  0  0  0  0  0  0  0  0  0  0
   36.7510   24.8550   41.4410 O   0  0  0  0  0  0  0  0  0  0  0  0
   37.2240   27.7640   43.3420 C   0  0  0  0  0  0  0  0  0  0  0  0
   37.2190   28.7980   44.2700 F   0  0  0  0  0  0  0  0  0  0  0  0
   38.3270   26.9540   43.5060 F   0  0  0  0  0  0  0  0  0  0  0  0
   36.1250   26.9640   43.6300 F   0  0  0  0  0  0  0  0  0  0  0  0
   37.3220   32.1800   39.2570 C   0  0  0  0  0  0  0  0  0  0  0  0
   37.0320   31.7670   38.2720 H   0  0  0  0  0  0  0  0  0  0  0  0
   37.0820   33.2670   39.3360 H   0  0  0  0  0  0  0  0  0  0  0  0
   40.9900   31.8240   39.0850 C   0  0  0  0  0  0  0  0  0  0  0  0
   41.2960   32.0900   40.3630 C   0  0  0  0  0  0  0  0  0  0  0  0
   39.6340   32.4040   41.0920 S   0  0  0  0  0  0  0  0  0  0  0  0
   38.8040   32.1020   39.4620 C   0  0  0  0  0  0  0  0  0  0  0  0
   39.7240   31.8800   38.8460 N   0  0  0  0  0  0  0  0  0  0  0  0
   42.2910   32.1010   40.7940 H   0  0  0  0  0  0  0  0  0  0  0  0
   42.7910   30.2660   36.1640 C   0  0  0  0  0  0  0  0  0  0  0  0
   41.7810   30.5140   37.1080 C   0  0  0  0  0  0  0  0  0  0  0  0
   42.0030   31.5000   38.0460 C   0  0  0  0  0  0  0  0  0  0  0  0
   43.2040   32.1750   37.9910 N   0  0  0  0  0  0  0  0  0  0  0  0
   44.1320   31.8900   37.0620 C   0  0  0  0  0  0  0  0  0  0  0  0
   43.9330   30.9410   36.1490 N   0  0  0  0  0  0  0  0  0  0  0  0
   42.6560   29.5050   35.4150 H   0  0  0  0  0  0  0  0  0  0  0  0
   45.0110   32.5250   37.1790 H   0  0  0  0  0  0  0  0  0  0  0  0
   40.6090   29.7280   37.0240 N   0  0  0  0  0  0  0  0  0  0  0  0
   40.6830   28.7320   36.6820 H   0  0  0  0  0  0  0  0  0  0  0  0
   39.6500   30.0470   37.2760 H   0  0  0  0  0  0  0  0  0  0  0  0
  1  4  1  0  0  0  0
  1  3  1  0  0  0  0
  2  1  1  0  0  0  0
  4  9  1  0  0  0  0
  5  6  1  0  0  0  0
  5  4  2  0  0  0  0
  6  7  2  0  0  0  0
  7 12  1  0  0  0  0
  7  8  1  0  0  0  0
  8 20  1  0  0  0  0
  9  8  2  0  0  0  0
 10  5  1  0  0  0  0
 11  6  1  0  0  0  0
 12 19  1  0  0  0  0
 13 15  1  0  0  0  0
 13 12  2  0  0  0  0
 14 13  1  0  0  0  0
 15 17  2  0  0  0  0
 16 15  1  0  0  0  0
 17 19  1  0  0  0  0
 17 18  1  0  0  0  0
 20 22  1  0  0  0  0
 20 23  1  0  0  0  0
 20 21  1  0  0  0  0
 24 26  1  0  0  0  0
 24 30  1  0  0  0  0
 24  1  1  0  0  0  0
 25 24  1  0  0  0  0
 27 28  2  0  0  0  0
 28 32  1  0  0  0  0
 28 29  1  0  0  0  0
 30 29  1  0  0  0  0
 31 27  1  0  0  0  0
 31 30  2  0  0  0  0
 33 34  1  0  0  0  0
 34 35  2  0  0  0  0
 35 27  1  0  0  0  0
 36 35  1  0  0  0  0
 37 40  1  0  0  0  0
 37 36  2  0  0  0  0
 38 33  2  0  0  0  0
 38 37  1  0  0  0  0
 39 33  1  0  0  0  0
 41 34  1  0  0  0  0
 41 43  1  0  0  0  0
 42 41  1  0  0  0  0
M  END
>  <minimizedAffinity>
-6.28000164

$$$$

 OpenBabel03242522193D

 43 46  0  0  0  0  0  0  0  0999 V2000
   36.6460   31.5330   40.5870 C   0  0  0  0  0  0  0  0  0  0  0  0
   35.5580   31.7710   40.7320 H   0  0  0  0  0  0  0  0  0  0  0  0
   37.1460   31.9770   41.4980 H   0  0  0  0  0  0  0  0  0  0  0  0
   36.8130   30.0960   40.6480 C   0  0  0  0  0  0  0  0  0  0  0  0
   36.8680   29.1830   39.6460 C   0  0  0  0  0  0  0  0  0  0  0  0
   37.0420   27.8230   39.7940 C   0  0  0  0  0  0  0  0  0  0  0  0
   37.1740   27.3580   41.0960 C   0  0  0  0  0  0  0  0  0  0  0  0
   37.1130   28.2970   42.0840 C   0  0  0  0  0  0  0  0  0  0  0  0
   36.9420   29.6100   41.9090 N   0  0  0  0  0  0  0  0  0  0  0  0
   36.7530   29.6690   38.6570 H   0  0  0  0  0  0  0  0  0  0  0  0
   37.0510   27.3080   38.8680 H   0  0  0  0  0  0  0  0  0  0  0  0
   37.4120   25.9170   41.1290 C   0  0  0  0  0  0  0  0  0  0  0  0
   38.6290   25.3020   40.8490 C   0  0  0  0  0  0  0  0  0  0  0  0
   39.6070   25.7350   40.5630 H   0  0  0  0  0  0  0  0  0  0  0  0
   38.5580   23.9530   40.9540 C   0  0  0  0  0  0  0  0  0  0  0  0
   39.3080   23.1960   40.8060 H   0  0  0  0  0  0  0  0  0  0  0  0
   37.2620   23.7260   41.3100 C   0  0  0  0  0  0  0  0  0  0  0  0
   36.7230   22.7880   41.5120 H   0  0  0  0  0  0  0  0  0  0  0  0
   36.7030   24.8640   41.3830 O   0  0  0  0  0  0  0  0  0  0  0  0
   37.2380   27.7100   43.4640 C   0  0  0  0  0  0  0  0  0  0  0  0
   37.1680   28.7060   44.4290 F   0  0  0  0  0  0  0  0  0  0  0  0
   38.3700   26.9400   43.6240 F   0  0  0  0  0  0  0  0  0  0  0  0
   36.1670   26.8550   43.6940 F   0  0  0  0  0  0  0  0  0  0  0  0
   37.0860   32.2110   39.3360 C   0  0  0  0  0  0  0  0  0  0  0  0
   36.4880   31.8490   38.4780 H   0  0  0  0  0  0  0  0  0  0  0  0
   36.9620   33.3080   39.4930 H   0  0  0  0  0  0  0  0  0  0  0  0
   40.7750   32.1580   39.2940 C   0  0  0  0  0  0  0  0  0  0  0  0
   40.9700   31.3960   38.2080 C   0  0  0  0  0  0  0  0  0  0  0  0
   39.2420   31.0350   37.6830 S   0  0  0  0  0  0  0  0  0  0  0  0
   38.5530   32.0250   39.0910 C   0  0  0  0  0  0  0  0  0  0  0  0
   39.5270   32.3500   39.5590 N   0  0  0  0  0  0  0  0  0  0  0  0
   41.9290   31.1030   37.7950 H   0  0  0  0  0  0  0  0  0  0  0  0
   43.0390   33.0570   42.1680 C   0  0  0  0  0  0  0  0  0  0  0  0
   41.9680   32.4820   41.4670 C   0  0  0  0  0  0  0  0  0  0  0  0
   41.8790   32.7230   40.1120 C   0  0  0  0  0  0  0  0  0  0  0  0
   42.8530   33.5150   39.5400 N   0  0  0  0  0  0  0  0  0  0  0  0
   43.8550   34.0380   40.2670 C   0  0  0  0  0  0  0  0  0  0  0  0
   43.9540   33.8130   41.5750 N   0  0  0  0  0  0  0  0  0  0  0  0
   43.1430   32.8920   43.2270 H   0  0  0  0  0  0  0  0  0  0  0  0
   44.5220   34.6330   39.6420 H   0  0  0  0  0  0  0  0  0  0  0  0
   41.0550   31.6960   42.2080 N   0  0  0  0  0  0  0  0  0  0  0  0
   40.8620   31.9480   43.2150 H   0  0  0  0  0  0  0  0  0  0  0  0
   40.5390   30.8680   41.8440 H   0  0  0  0  0  0  0  0  0  0  0  0
  1  4  1  0  0  0  0
  1  2  1  0  0  0  0
  1  3  1  0  0  0  0
  4  9  1  0  0  0  0
  5  6  1  0  0  0  0
  5  4  2  0  0  0  0
  6  7  2  0  0  0  0
  7 12  1  0  0  0  0
  7  8  1  0  0  0  0
  8 20  1  0  0  0  0
  9  8  2  0  0  0  0
 10  5  1  0  0  0  0
 11  6  1  0  0  0  0
 12 19  1  0  0  0  0
 13 15  1  0  0  0  0
 13 12  2  0  0  0  0
 14 13  1  0  0  0  0
 15 17  2  0  0  0  0
 16 15  1  0  0  0  0
 17 19  1  0  0  0  0
 17 18  1  0  0  0  0
 20 22  1  0  0  0  0
 20 23  1  0  0  0  0
 20 21  1  0  0  0  0
 24 26  1  0  0  0  0
 24  1  1  0  0  0  0
 25 24  1  0  0  0  0
 27 31  1  0  0  0  0
 27 35  1  0  0  0  0
 28 27  2  0  0  0  0
 29 28  1  0  0  0  0
 29 30  1  0  0  0  0
 30 24  1  0  0  0  0
 30 31  2  0  0  0  0
 32 28  1  0  0  0  0
 33 39  1  0  0  0  0
 34 33  2  0  0  0  0
 34 41  1  0  0  0  0
 35 34  1  0  0  0  0
 36 35  2  0  0  0  0
 36 37  1  0  0  0  0
 37 38  2  0  0  0  0
 38 33  1  0  0  0  0
 40 37  1  0  0  0  0
 41 42  1  0  0  0  0
 43 41  1  0  0  0  0
M  END
>  <minimizedAffinity>
-6.22065496

$$$$

 OpenBabel03242522193D

 43 46  0  0  0  0  0  0  0  0999 V2000
   37.0050   31.6940   39.3160 C   0  0  0  0  0  0  0  0  0  0  0  0
   37.7610   31.7740   38.4890 H   0  0  0  0  0  0  0  0  0  0  0  0
   36.0160   31.8750   38.8010 H   0  0  0  0  0  0  0  0  0  0  0  0
   37.0050   30.3320   39.8070 C   0  0  0  0  0  0  0  0  0  0  0  0
   36.0910   29.6820   40.5700 C   0  0  0  0  0  0  0  0  0  0  0  0
   36.1650   28.3690   40.9860 C   0  0  0  0  0  0  0  0  0  0  0  0
   37.2840   27.6570   40.5770 C   0  0  0  0  0  0  0  0  0  0  0  0
   38.1880   28.3350   39.8120 C   0  0  0  0  0  0  0  0  0  0  0  0
   38.0890   29.6090   39.4250 N   0  0  0  0  0  0  0  0  0  0  0  0
   35.2450   30.3480   40.8340 H   0  0  0  0  0  0  0  0  0  0  0  0
   35.3340   28.0790   41.5770 H   0  0  0  0  0  0  0  0  0  0  0  0
   37.2280   26.2670   41.0230 C   0  0  0  0  0  0  0  0  0  0  0  0
   36.6190   25.2280   40.3250 C   0  0  0  0  0  0  0  0  0  0  0  0
   36.0870   25.2260   39.3540 H   0  0  0  0  0  0  0  0  0  0  0  0
   36.7180   24.0440   40.9770 C   0  0  0  0  0  0  0  0  0  0  0  0
   36.3600   23.0650   40.7140 H   0  0  0  0  0  0  0  0  0  0  0  0
   37.4060   24.3590   42.1110 C   0  0  0  0  0  0  0  0  0  0  0  0
   37.7310   23.7320   42.9550 H   0  0  0  0  0  0  0  0  0  0  0  0
   37.6460   25.6050   42.0530 O   0  0  0  0  0  0  0  0  0  0  0  0
   39.3820   27.5020   39.4320 C   0  0  0  0  0  0  0  0  0  0  0  0
   39.9370   26.8990   40.5530 F   0  0  0  0  0  0  0  0  0  0  0  0
   40.3320   28.2080   38.7240 F   0  0  0  0  0  0  0  0  0  0  0  0
   38.9720   26.4760   38.5890 F   0  0  0  0  0  0  0  0  0  0  0  0
   37.3120   32.7670   40.3030 C   0  0  0  0  0  0  0  0  0  0  0  0
   36.5030   33.5220   40.3080 H   0  0  0  0  0  0  0  0  0  0  0  0
   37.4260   32.2770   41.3000 H   0  0  0  0  0  0  0  0  0  0  0  0
   40.7360   33.7310   39.3240 C   0  0  0  0  0  0  0  0  0  0  0  0
   40.7810   34.9560   39.8660 C   0  0  0  0  0  0  0  0  0  0  0  0
   39.1070   35.0980   40.6210 S   0  0  0  0  0  0  0  0  0  0  0  0
   38.6430   33.4010   40.0370 C   0  0  0  0  0  0  0  0  0  0  0  0
   39.6090   33.1340   39.5170 N   0  0  0  0  0  0  0  0  0  0  0  0
   41.6220   35.6400   39.8320 H   0  0  0  0  0  0  0  0  0  0  0  0
   42.7790   31.8860   36.7510 C   0  0  0  0  0  0  0  0  0  0  0  0
   41.6600   32.4380   37.3940 C   0  0  0  0  0  0  0  0  0  0  0  0
   41.8650   33.1190   38.5750 C   0  0  0  0  0  0  0  0  0  0  0  0
   43.1590   33.2100   39.0430 N   0  0  0  0  0  0  0  0  0  0  0  0
   44.1900   32.6590   38.3800 C   0  0  0  0  0  0  0  0  0  0  0  0
   44.0080   31.9990   37.2380 N   0  0  0  0  0  0  0  0  0  0  0  0
   42.6610   31.3470   35.8260 H   0  0  0  0  0  0  0  0  0  0  0  0
   45.1300   32.8350   38.9040 H   0  0  0  0  0  0  0  0  0  0  0  0
   40.4010   32.2510   36.7780 N   0  0  0  0  0  0  0  0  0  0  0  0
   40.2250   31.3650   36.2300 H   0  0  0  0  0  0  0  0  0  0  0  0
   39.6050   32.9220   36.8150 H   0  0  0  0  0  0  0  0  0  0  0  0
  1  4  1  0  0  0  0
  1 24  1  0  0  0  0
  2  1  1  0  0  0  0
  3  1  1  0  0  0  0
  4  5  1  0  0  0  0
  5 10  1  0  0  0  0
  5  6  2  0  0  0  0
  6 11  1  0  0  0  0
  7  6  1  0  0  0  0
  7 12  1  0  0  0  0
  8  7  2  0  0  0  0
  9  4  2  0  0  0  0
  9  8  1  0  0  0  0
 12 19  1  0  0  0  0
 13 15  1  0  0  0  0
 13 12  2  0  0  0  0
 14 13  1  0  0  0  0
 15 17  2  0  0  0  0
 16 15  1  0  0  0  0
 17 18  1  0  0  0  0
 19 17  1  0  0  0  0
 20  8  1  0  0  0  0
 20 21  1  0  0  0  0
 22 20  1  0  0  0  0
 23 20  1  0  0  0  0
 24 25  1  0  0  0  0
 24 26  1  0  0  0  0
 27 31  1  0  0  0  0
 27 28  2  0  0  0  0
 28 29  1  0  0  0  0
 30 24  1  0  0  0  0
 30 29  1  0  0  0  0
 31 30  2  0  0  0  0
 32 28  1  0  0  0  0
 33 38  2  0  0  0  0
 33 34  1  0  0  0  0
 34 35  2  0  0  0  0
 35 36  1  0  0  0  0
 35 27  1  0  0  0  0
 37 40  1  0  0  0  0
 37 36  2  0  0  0  0
 38 37  1  0  0  0  0
 39 33  1  0  0  0  0
 41 43  1  0  0  0  0
 41 34  1  0  0  0  0
 42 41  1  0  0  0  0
M  END
>  <minimizedAffinity>
-6.08287001

$$$$

 OpenBabel03242522193D

 43 46  0  0  0  0  0  0  0  0999 V2000
   37.0140   29.7200   38.3510 C   0  0  0  0  0  0  0  0  0  0  0  0
   36.6130   28.9660   37.6210 H   0  0  0  0  0  0  0  0  0  0  0  0
   36.0980   30.0800   38.9040 H   0  0  0  0  0  0  0  0  0  0  0  0
   37.8620   29.0310   39.3010 C   0  0  0  0  0  0  0  0  0  0  0  0
   39.1600   28.6520   39.1930 C   0  0  0  0  0  0  0  0  0  0  0  0
   39.9010   28.0030   40.1600 C   0  0  0  0  0  0  0  0  0  0  0  0
   39.2450   27.7210   41.3500 C   0  0  0  0  0  0  0  0  0  0  0  0
   37.9400   28.1110   41.4310 C   0  0  0  0  0  0  0  0  0  0  0  0
   37.2480   28.7370   40.4760 N   0  0  0  0  0  0  0  0  0  0  0  0
   39.5770   28.9290   38.2050 H   0  0  0  0  0  0  0  0  0  0  0  0
   40.8950   27.8060   39.8500 H   0  0  0  0  0  0  0  0  0  0  0  0
   40.1390   27.0900   42.3180 C   0  0  0  0  0  0  0  0  0  0  0  0
   40.8980   27.7710   43.2650 C   0  0  0  0  0  0  0  0  0  0  0  0
   40.9840   28.8540   43.4770 H   0  0  0  0  0  0  0  0  0  0  0  0
   41.6380   26.9320   44.0300 C   0  0  0  0  0  0  0  0  0  0  0  0
   42.3200   27.1330   44.8370 H   0  0  0  0  0  0  0  0  0  0  0  0
   41.3280   25.6970   43.5430 C   0  0  0  0  0  0  0  0  0  0  0  0
   41.6760   24.6960   43.8400 H   0  0  0  0  0  0  0  0  0  0  0  0
   40.4950   25.8790   42.6020 O   0  0  0  0  0  0  0  0  0  0  0  0
   37.2950   27.7460   42.7400 C   0  0  0  0  0  0  0  0  0  0  0  0
   35.9200   27.9330   42.6790 F   0  0  0  0  0  0  0  0  0  0  0  0
   37.8400   28.4120   43.8170 F   0  0  0  0  0  0  0  0  0  0  0  0
   37.5030   26.3950   42.9890 F   0  0  0  0  0  0  0  0  0  0  0  0
   37.6400   30.8150   37.5580 C   0  0  0  0  0  0  0  0  0  0  0  0
   38.3950   30.3970   36.8650 H   0  0  0  0  0  0  0  0  0  0  0  0
   36.8200   31.3370   37.0100 H   0  0  0  0  0  0  0  0  0  0  0  0
   39.7190   33.1860   39.4710 C   0  0  0  0  0  0  0  0  0  0  0  0
   38.7550   33.8170   40.1580 C   0  0  0  0  0  0  0  0  0  0  0  0
   37.2390   32.9630   39.5550 S   0  0  0  0  0  0  0  0  0  0  0  0
   38.2380   31.8670   38.4410 C   0  0  0  0  0  0  0  0  0  0  0  0
   39.2640   32.2690   38.6880 N   0  0  0  0  0  0  0  0  0  0  0  0
   38.9000   34.6190   40.8730 H   0  0  0  0  0  0  0  0  0  0  0  0
   43.3270   33.9380   38.6880 C   0  0  0  0  0  0  0  0  0  0  0  0
   41.9720   33.6350   38.4840 C   0  0  0  0  0  0  0  0  0  0  0  0
   41.1640   33.5100   39.5950 C   0  0  0  0  0  0  0  0  0  0  0  0
   41.7480   33.6910   40.8320 N   0  0  0  0  0  0  0  0  0  0  0  0
   43.0540   33.9790   40.9610 C   0  0  0  0  0  0  0  0  0  0  0  0
   43.8460   34.1040   39.8970 N   0  0  0  0  0  0  0  0  0  0  0  0
   43.9900   34.0450   37.8460 H   0  0  0  0  0  0  0  0  0  0  0  0
   43.3290   34.0840   42.0100 H   0  0  0  0  0  0  0  0  0  0  0  0
   41.5350   33.4810   37.1480 N   0  0  0  0  0  0  0  0  0  0  0  0
   42.2050   33.0880   36.4320 H   0  0  0  0  0  0  0  0  0  0  0  0
   40.5870   33.7230   36.7910 H   0  0  0  0  0  0  0  0  0  0  0  0
  1  3  1  0  0  0  0
  1  4  1  0  0  0  0
  2  1  1  0  0  0  0
  4  9  1  0  0  0  0
  5  4  2  0  0  0  0
  5  6  1  0  0  0  0
  6  7  2  0  0  0  0
  7  8  1  0  0  0  0
  7 12  1  0  0  0  0
  8 20  1  0  0  0  0
  9  8  2  0  0  0  0
 10  5  1  0  0  0  0
 11  6  1  0  0  0  0
 12 19  1  0  0  0  0
 12 13  2  0  0  0  0
 13 14  1  0  0  0  0
 13 15  1  0  0  0  0
 15 16  1  0  0  0  0
 17 18  1  0  0  0  0
 17 15  2  0  0  0  0
 19 17  1  0  0  0  0
 20 23  1  0  0  0  0
 20 22  1  0  0  0  0
 21 20  1  0  0  0  0
 24  1  1  0  0  0  0
 24 30  1  0  0  0  0
 25 24  1  0  0  0  0
 26 24  1  0  0  0  0
 27 35  1  0  0  0  0
 27 28  2  0  0  0  0
 28 32  1  0  0  0  0
 29 28  1  0  0  0  0
 30 31  2  0  0  0  0
 30 29  1  0  0  0  0
 31 27  1  0  0  0  0
 33 38  1  0  0  0  0
 34 33  2  0  0  0  0
 34 35  1  0  0  0  0
 35 36  2  0  0  0  0
 36 37  1  0  0  0  0
 37 40  1  0  0  0  0
 38 37  2  0  0  0  0
 39 33  1  0  0  0  0
 41 34  1  0  0  0  0
 42 41  1  0  0  0  0
 43 41  1  0  0  0  0
M  END
>  <minimizedAffinity>
-6.02904224

$$$$

 OpenBabel03242522193D

 43 46  0  0  0  0  0  0  0  0999 V2000
   35.3730   29.0120   38.7690 C   0  0  0  0  0  0  0  0  0  0  0  0
   34.3440   28.9940   38.3210 H   0  0  0  0  0  0  0  0  0  0  0  0
   35.2110   29.4150   39.8120 H   0  0  0  0  0  0  0  0  0  0  0  0
   35.8430   27.6480   38.8910 C   0  0  0  0  0  0  0  0  0  0  0  0
   35.9150   26.6660   37.9570 C   0  0  0  0  0  0  0  0  0  0  0  0
   36.3900   25.3860   38.1580 C   0  0  0  0  0  0  0  0  0  0  0  0
   36.8360   25.0900   39.4400 C   0  0  0  0  0  0  0  0  0  0  0  0
   36.7510   26.0960   40.3580 C   0  0  0  0  0  0  0  0  0  0  0  0
   36.2840   27.3260   40.1340 N   0  0  0  0  0  0  0  0  0  0  0  0
   35.5340   27.0170   36.9780 H   0  0  0  0  0  0  0  0  0  0  0  0
   36.3480   24.7920   37.2820 H   0  0  0  0  0  0  0  0  0  0  0  0
   37.3710   23.7330   39.5210 C   0  0  0  0  0  0  0  0  0  0  0  0
   38.6120   23.3330   39.0340 C   0  0  0  0  0  0  0  0  0  0  0  0
   39.4040   23.9100   38.5200 H   0  0  0  0  0  0  0  0  0  0  0  0
   38.8450   22.0150   39.2440 C   0  0  0  0  0  0  0  0  0  0  0  0
   39.6930   21.4030   38.9940 H   0  0  0  0  0  0  0  0  0  0  0  0
   37.7170   21.5870   39.8790 C   0  0  0  0  0  0  0  0  0  0  0  0
   37.4350   20.5920   40.2550 H   0  0  0  0  0  0  0  0  0  0  0  0
   36.9590   22.6000   39.9900 O   0  0  0  0  0  0  0  0  0  0  0  0
   37.2290   25.6870   41.7250 C   0  0  0  0  0  0  0  0  0  0  0  0
   38.5940   25.4310   41.7120 F   0  0  0  0  0  0  0  0  0  0  0  0
   36.5280   24.6210   42.2480 F   0  0  0  0  0  0  0  0  0  0  0  0
   37.0290   26.7390   42.6110 F   0  0  0  0  0  0  0  0  0  0  0  0
   36.1990   29.9390   37.9460 C   0  0  0  0  0  0  0  0  0  0  0  0
   36.7280   29.3750   37.1530 H   0  0  0  0  0  0  0  0  0  0  0  0
   35.5100   30.7060   37.5180 H   0  0  0  0  0  0  0  0  0  0  0  0
   38.9910   31.8100   39.4680 C   0  0  0  0  0  0  0  0  0  0  0  0
   38.4510   32.0720   40.6660 C   0  0  0  0  0  0  0  0  0  0  0  0
   36.7940   31.2820   40.5160 S   0  0  0  0  0  0  0  0  0  0  0  0
   37.1620   30.7200   38.7880 C   0  0  0  0  0  0  0  0  0  0  0  0
   38.2050   31.1400   38.6950 N   0  0  0  0  0  0  0  0  0  0  0  0
   38.9230   32.6180   41.4760 H   0  0  0  0  0  0  0  0  0  0  0  0
   41.9810   32.9060   37.4530 C   0  0  0  0  0  0  0  0  0  0  0  0
   40.6690   32.5040   37.7490 C   0  0  0  0  0  0  0  0  0  0  0  0
   40.3550   32.2450   39.0670 C   0  0  0  0  0  0  0  0  0  0  0  0
   41.3550   32.3980   40.0030 N   0  0  0  0  0  0  0  0  0  0  0  0
   42.5940   32.7870   39.6560 C   0  0  0  0  0  0  0  0  0  0  0  0
   42.9120   33.0410   38.3880 N   0  0  0  0  0  0  0  0  0  0  0  0
   42.2650   33.1180   36.4370 H   0  0  0  0  0  0  0  0  0  0  0  0
   43.2430   32.8500   40.5300 H   0  0  0  0  0  0  0  0  0  0  0  0
   39.7640   32.3940   36.6670 N   0  0  0  0  0  0  0  0  0  0  0  0
   40.1310   32.1030   35.7200 H   0  0  0  0  0  0  0  0  0  0  0  0
   38.7400   32.5780   36.7160 H   0  0  0  0  0  0  0  0  0  0  0  0
  1  4  1  0  0  0  0
  1  3  1  0  0  0  0
  2  1  1  0  0  0  0
  4  9  1  0  0  0  0
  5  6  1  0  0  0  0
  5  4  2  0  0  0  0
  6  7  2  0  0  0  0
  7 12  1  0  0  0  0
  7  8  1  0  0  0  0
  8 20  1  0  0  0  0
  9  8  2  0  0  0  0
 10  5  1  0  0  0  0
 11  6  1  0  0  0  0
 12 19  1  0  0  0  0
 13 15  1  0  0  0  0
 13 12  2  0  0  0  0
 14 13  1  0  0  0  0
 15 17  2  0  0  0  0
 16 15  1  0  0  0  0
 17 19  1  0  0  0  0
 17 18  1  0  0  0  0
 20 22  1  0  0  0  0
 20 23  1  0  0  0  0
 21 20  1  0  0  0  0
 24  1  1  0  0  0  0
 24 30  1  0  0  0  0
 25 24  1  0  0  0  0
 26 24  1  0  0  0  0
 27 28  2  0  0  0  0
 28 32  1  0  0  0  0
 29 28  1  0  0  0  0
 30 29  1  0  0  0  0
 31 30  2  0  0  0  0
 31 27  1  0  0  0  0
 33 34  2  0  0  0  0
 33 38  1  0  0  0  0
 34 35  1  0  0  0  0
 35 27  1  0  0  0  0
 35 36  2  0  0  0  0
 37 36  1  0  0  0  0
 37 40  1  0  0  0  0
 38 37  2  0  0  0  0
 39 33  1  0  0  0  0
 41 43  1  0  0  0  0
 41 34  1  0  0  0  0
 42 41  1  0  0  0  0
M  END
>  <minimizedAffinity>
-5.96941757

$$$$
