
 OpenBabel03242510353D

 20 21  0  0  0  0  0  0  0  0999 V2000
   44.5280   36.0640   44.3190 C   0  0  0  0  0  0  0  0  0  0  0  0
   45.3130   35.8860   43.1580 C   0  0  0  0  0  0  0  0  0  0  0  0
   46.2360   34.8370   43.1440 C   0  0  0  0  0  0  0  0  0  0  0  0
   46.3260   34.0460   44.2520 N   0  0  0  0  0  0  0  0  0  0  0  0
   45.5460   34.2590   45.3470 C   0  0  0  0  0  0  0  0  0  0  0  0
   44.6560   35.2590   45.3820 N   0  0  0  0  0  0  0  0  0  0  0  0
   43.8110   36.8770   44.3370 H   0  0  0  0  0  0  0  0  0  0  0  0
   45.1790   36.5700   42.3040 H   0  0  0  0  0  0  0  0  0  0  0  0
   45.7190   33.3570   46.4810 C   0  0  0  0  0  0  0  0  0  0  0  0
   46.8600   32.5550   46.4980 C   0  0  0  0  0  0  0  0  0  0  0  0
   47.7030   32.4390   45.8200 H   0  0  0  0  0  0  0  0  0  0  0  0
   46.8020   31.7910   47.6640 C   0  0  0  0  0  0  0  0  0  0  0  0
   47.5070   31.0390   48.0450 H   0  0  0  0  0  0  0  0  0  0  0  0
   45.6120   32.1850   48.2860 C   0  0  0  0  0  0  0  0  0  0  0  0
   45.2620   31.7780   49.2280 H   0  0  0  0  0  0  0  0  0  0  0  0
   45.0150   33.1040   47.5550 O   0  0  0  0  0  0  0  0  0  0  0  0
   47.0190   34.6990   41.9210 C   0  0  0  0  0  0  0  0  0  0  0  0
   47.8200   33.5590   42.0400 F   0  0  0  0  0  0  0  0  0  0  0  0
   47.9150   35.7660   41.9030 F   0  0  0  0  0  0  0  0  0  0  0  0
   46.2770   34.5900   40.7940 F   0  0  0  0  0  0  0  0  0  0  0  0
  1  7  1  0  0  0  0
  1  6  1  0  0  0  0
  2  1  2  0  0  0  0
  3  2  1  0  0  0  0
  3  4  2  0  0  0  0
  4  5  1  0  0  0  0
  5  6  2  0  0  0  0
  5  9  1  0  0  0  0
  8  2  1  0  0  0  0
  9 10  2  0  0  0  0
  9 16  1  0  0  0  0
 10 12  1  0  0  0  0
 11 10  1  0  0  0  0
 12 13  1  0  0  0  0
 12 14  2  0  0  0  0
 14 15  1  0  0  0  0
 16 14  1  0  0  0  0
 17 18  1  0  0  0  0
 17  3  1  0  0  0  0
 19 17  1  0  0  0  0
 20 17  1  0  0  0  0
M  END
>  <minimizedAffinity>
-5.20271492

>  <minimizedRMSD>
0.47293362

$$$$
