
 OpenBabel03252506563D

 37 41  0  0  0  0  0  0  0  0999 V2000
   47.1430   31.2890   45.1280 C   0  0  0  0  0  0  0  0  0  0  0  0
   46.8700   32.6500   45.1280 C   0  0  0  0  0  0  0  0  0  0  0  0
   46.3250   33.3040   46.2090 C   0  0  0  0  0  0  0  0  0  0  0  0
   46.0210   32.5990   47.3720 C   0  0  0  0  0  0  0  0  0  0  0  0
   45.4930   32.8920   48.5970 N   0  0  0  0  0  0  0  0  0  0  0  0
   45.4420   31.7510   49.3290 C   0  0  0  0  0  0  0  0  0  0  0  0
   45.9400   30.7620   48.5490 N   0  0  0  0  0  0  0  0  0  0  0  0
   46.3010   31.2560   47.3430 C   0  0  0  0  0  0  0  0  0  0  0  0
   46.8410   30.5740   46.2930 C   0  0  0  0  0  0  0  0  0  0  0  0
   47.5710   30.8000   44.2670 H   0  0  0  0  0  0  0  0  0  0  0  0
   46.1070   34.3700   46.2150 H   0  0  0  0  0  0  0  0  0  0  0  0
   45.1990   33.8620   48.8530 H   0  0  0  0  0  0  0  0  0  0  0  0
   45.0610   31.7310   50.3360 H   0  0  0  0  0  0  0  0  0  0  0  0
   46.5950   35.1310   42.4160 C   0  0  0  0  0  0  0  0  0  0  0  0
   47.7550   34.8830   41.6750 C   0  0  0  0  0  0  0  0  0  0  0  0
   48.6190   33.8760   42.1020 C   0  0  0  0  0  0  0  0  0  0  0  0
   48.2930   33.1710   43.2360 N   0  0  0  0  0  0  0  0  0  0  0  0
   47.1720   33.4300   43.9280 C   0  0  0  0  0  0  0  0  0  0  0  0
   46.3190   34.4030   43.5310 N   0  0  0  0  0  0  0  0  0  0  0  0
   45.9420   35.9190   42.0610 H   0  0  0  0  0  0  0  0  0  0  0  0
   48.0360   35.4200   40.7850 H   0  0  0  0  0  0  0  0  0  0  0  0
   49.5360   33.6050   41.6060 H   0  0  0  0  0  0  0  0  0  0  0  0
   47.1020   29.1340   46.3710 C   0  0  0  0  0  0  0  0  0  0  0  0
   48.3380   28.5560   46.2110 C   0  0  0  0  0  0  0  0  0  0  0  0
   48.1140   27.1850   46.3640 C   0  0  0  0  0  0  0  0  0  0  0  0
   46.7700   27.0140   46.6050 C   0  0  0  0  0  0  0  0  0  0  0  0
   46.2050   28.2240   46.5980 O   0  0  0  0  0  0  0  0  0  0  0  0
   49.3090   28.9930   46.0100 H   0  0  0  0  0  0  0  0  0  0  0  0
   48.8070   26.3590   46.3160 H   0  0  0  0  0  0  0  0  0  0  0  0
   45.9790   25.8080   46.8390 C   0  0  0  0  0  0  0  0  0  0  0  0
   46.3690   24.8820   47.8110 C   0  0  0  0  0  0  0  0  0  0  0  0
   47.2430   24.9230   48.4760 H   0  0  0  0  0  0  0  0  0  0  0  0
   45.4670   23.8370   47.8400 C   0  0  0  0  0  0  0  0  0  0  0  0
   45.3980   22.9400   48.4270 H   0  0  0  0  0  0  0  0  0  0  0  0
   44.5570   24.1880   46.8660 C   0  0  0  0  0  0  0  0  0  0  0  0
   43.6660   23.7170   46.4940 H   0  0  0  0  0  0  0  0  0  0  0  0
   44.8790   25.3410   46.2980 O   0  0  0  0  0  0  0  0  0  0  0  0
  1  9  1  0  0  0  0
  2  1  2  0  0  0  0
  2  3  1  0  0  0  0
  3 11  1  0  0  0  0
  3  4  2  0  0  0  0
  4  5  1  0  0  0  0
  5 12  1  0  0  0  0
  5  6  1  0  0  0  0
  6 13  1  0  0  0  0
  7  6  2  0  0  0  0
  8  4  1  0  0  0  0
  8  7  1  0  0  0  0
  9 23  1  0  0  0  0
  9  8  2  0  0  0  0
 10  1  1  0  0  0  0
 14 19  1  0  0  0  0
 15 16  1  0  0  0  0
 15 14  2  0  0  0  0
 16 17  2  0  0  0  0
 17 18  1  0  0  0  0
 18  2  1  0  0  0  0
 19 18  2  0  0  0  0
 20 14  1  0  0  0  0
 21 15  1  0  0  0  0
 22 16  1  0  0  0  0
 23 27  1  0  0  0  0
 24 25  1  0  0  0  0
 24 23  2  0  0  0  0
 25 26  2  0  0  0  0
 26 30  1  0  0  0  0
 27 26  1  0  0  0  0
 28 24  1  0  0  0  0
 29 25  1  0  0  0  0
 30 31  2  0  0  0  0
 31 33  1  0  0  0  0
 31 32  1  0  0  0  0
 33 34  1  0  0  0  0
 35 33  2  0  0  0  0
 36 35  1  0  0  0  0
 37 30  1  0  0  0  0
 37 35  1  0  0  0  0
M  END
>  <minimizedAffinity>
-5.48480892

>  <minimizedRMSD>
0.550084174

$$$$
