
 OpenBabel03252504143D

 34 36  0  0  0  0  0  0  0  0999 V2000
   47.6220   30.0380   44.8790 F   0  0  0  0  0  0  0  0  0  0  0  0
   47.5080   30.7970   46.0170 C   0  0  0  0  0  0  0  0  0  0  0  0
   46.9380   32.0450   45.9460 C   0  0  0  0  0  0  0  0  0  0  0  0
   46.8630   32.7450   47.1510 C   0  0  0  0  0  0  0  0  0  0  0  0
   47.3320   32.2110   48.3280 C   0  0  0  0  0  0  0  0  0  0  0  0
   47.8930   30.9450   48.3180 C   0  0  0  0  0  0  0  0  0  0  0  0
   47.9990   30.1990   47.1600 C   0  0  0  0  0  0  0  0  0  0  0  0
   46.4180   33.7420   47.1470 H   0  0  0  0  0  0  0  0  0  0  0  0
   47.2720   32.7530   49.2550 H   0  0  0  0  0  0  0  0  0  0  0  0
   48.2700   30.5040   49.2320 H   0  0  0  0  0  0  0  0  0  0  0  0
   48.5890   28.8650   47.1410 C   0  0  0  0  0  0  0  0  0  0  0  0
   47.8790   27.7140   47.4160 C   0  0  0  0  0  0  0  0  0  0  0  0
   46.8440   27.6590   47.6670 H   0  0  0  0  0  0  0  0  0  0  0  0
   48.8430   26.7160   47.2770 C   0  0  0  0  0  0  0  0  0  0  0  0
   48.6500   25.6510   47.4200 H   0  0  0  0  0  0  0  0  0  0  0  0
   50.0540   27.2970   46.9350 C   0  0  0  0  0  0  0  0  0  0  0  0
   51.0030   26.8120   46.7530 H   0  0  0  0  0  0  0  0  0  0  0  0
   49.8220   28.5940   46.8720 O   0  0  0  0  0  0  0  0  0  0  0  0
   46.7520   34.1470   42.9850 C   0  0  0  0  0  0  0  0  0  0  0  0
   45.5890   33.7280   42.3350 C   0  0  0  0  0  0  0  0  0  0  0  0
   44.8610   32.6920   42.9470 C   0  0  0  0  0  0  0  0  0  0  0  0
   45.3030   32.1550   44.1130 N   0  0  0  0  0  0  0  0  0  0  0  0
   46.4410   32.6060   44.6940 C   0  0  0  0  0  0  0  0  0  0  0  0
   47.1630   33.6010   44.1320 N   0  0  0  0  0  0  0  0  0  0  0  0
   43.9550   32.3450   42.4670 H   0  0  0  0  0  0  0  0  0  0  0  0
   45.1760   34.3650   41.0700 C   0  0  0  0  0  0  0  0  0  0  0  0
   44.8870   35.6920   41.2870 F   0  0  0  0  0  0  0  0  0  0  0  0
   46.2580   34.3190   40.1990 F   0  0  0  0  0  0  0  0  0  0  0  0
   44.1140   33.7860   40.4660 F   0  0  0  0  0  0  0  0  0  0  0  0
   47.4560   35.1510   42.3920 O   0  0  0  0  0  0  0  0  0  0  0  0
   48.7690   35.0660   41.8750 C   0  0  0  0  0  0  0  0  0  0  0  0
   49.6310   35.3460   42.9410 F   0  0  0  0  0  0  0  0  0  0  0  0
   48.9870   33.8340   41.3190 F   0  0  0  0  0  0  0  0  0  0  0  0
   48.9860   36.0920   40.9840 F   0  0  0  0  0  0  0  0  0  0  0  0
  1  2  1  0  0  0  0
  2  7  1  0  0  0  0
  3  2  2  0  0  0  0
  3  4  1  0  0  0  0
  4  5  2  0  0  0  0
  5  9  1  0  0  0  0
  6  5  1  0  0  0  0
  6 10  1  0  0  0  0
  7  6  2  0  0  0  0
  8  4  1  0  0  0  0
 11  7  1  0  0  0  0
 11 12  2  0  0  0  0
 12 13  1  0  0  0  0
 14 12  1  0  0  0  0
 14 15  1  0  0  0  0
 16 14  2  0  0  0  0
 17 16  1  0  0  0  0
 18 16  1  0  0  0  0
 18 11  1  0  0  0  0
 19 24  1  0  0  0  0
 20 21  1  0  0  0  0
 20 19  2  0  0  0  0
 21 22  2  0  0  0  0
 22 23  1  0  0  0  0
 23  3  1  0  0  0  0
 24 23  2  0  0  0  0
 25 21  1  0  0  0  0
 26 27  1  0  0  0  0
 26 20  1  0  0  0  0
 28 26  1  0  0  0  0
 29 26  1  0  0  0  0
 30 19  1  0  0  0  0
 31 30  1  0  0  0  0
 31 32  1  0  0  0  0
 33 31  1  0  0  0  0
 34 31  1  0  0  0  0
M  END
>  <minimizedAffinity>
-5.50883627

>  <minimizedRMSD>
0.416530013

$$$$
