
 OpenBabel03252506573D

 37 41  0  0  0  0  0  0  0  0999 V2000
   47.2590   31.2890   45.1980 C   0  0  0  0  0  0  0  0  0  0  0  0
   46.9060   32.6300   45.1280 C   0  0  0  0  0  0  0  0  0  0  0  0
   46.3020   33.3000   46.1660 C   0  0  0  0  0  0  0  0  0  0  0  0
   46.0170   32.6350   47.3560 C   0  0  0  0  0  0  0  0  0  0  0  0
   45.4480   32.9530   48.5570 N   0  0  0  0  0  0  0  0  0  0  0  0
   45.4500   31.8470   49.3420 C   0  0  0  0  0  0  0  0  0  0  0  0
   46.0200   30.8540   48.6190 N   0  0  0  0  0  0  0  0  0  0  0  0
   46.3760   31.3100   47.3970 C   0  0  0  0  0  0  0  0  0  0  0  0
   46.9760   30.6130   46.3910 C   0  0  0  0  0  0  0  0  0  0  0  0
   47.7320   30.7860   44.3690 H   0  0  0  0  0  0  0  0  0  0  0  0
   46.0220   34.3510   46.1170 H   0  0  0  0  0  0  0  0  0  0  0  0
   45.0930   33.9150   48.7600 H   0  0  0  0  0  0  0  0  0  0  0  0
   45.0510   31.8520   50.3420 H   0  0  0  0  0  0  0  0  0  0  0  0
   46.6370   35.0850   42.3920 C   0  0  0  0  0  0  0  0  0  0  0  0
   47.7270   34.7440   41.5840 C   0  0  0  0  0  0  0  0  0  0  0  0
   48.5430   33.6830   41.9760 C   0  0  0  0  0  0  0  0  0  0  0  0
   48.2400   33.0190   43.1400 N   0  0  0  0  0  0  0  0  0  0  0  0
   47.1860   33.3690   43.8970 C   0  0  0  0  0  0  0  0  0  0  0  0
   46.3820   34.3950   43.5350 N   0  0  0  0  0  0  0  0  0  0  0  0
   46.0200   35.9140   42.0640 H   0  0  0  0  0  0  0  0  0  0  0  0
   47.9880   35.2460   40.6680 H   0  0  0  0  0  0  0  0  0  0  0  0
   49.4040   33.3400   41.4290 H   0  0  0  0  0  0  0  0  0  0  0  0
   47.3190   29.1970   46.5430 C   0  0  0  0  0  0  0  0  0  0  0  0
   48.5270   28.6450   46.1900 C   0  0  0  0  0  0  0  0  0  0  0  0
   48.4070   27.2890   46.5060 C   0  0  0  0  0  0  0  0  0  0  0  0
   47.1470   27.1000   47.0260 C   0  0  0  0  0  0  0  0  0  0  0  0
   46.5320   28.2850   47.0260 O   0  0  0  0  0  0  0  0  0  0  0  0
   49.4160   29.0910   45.7600 H   0  0  0  0  0  0  0  0  0  0  0  0
   49.1170   26.4840   46.3940 H   0  0  0  0  0  0  0  0  0  0  0  0
   46.4800   25.8980   47.5220 C   0  0  0  0  0  0  0  0  0  0  0  0
   45.4390   25.3130   46.7950 C   0  0  0  0  0  0  0  0  0  0  0  0
   45.0120   25.6400   45.8370 H   0  0  0  0  0  0  0  0  0  0  0  0
   44.9800   24.1980   47.4670 C   0  0  0  0  0  0  0  0  0  0  0  0
   44.2090   23.4790   47.2600 H   0  0  0  0  0  0  0  0  0  0  0  0
   45.7800   24.1610   48.5890 C   0  0  0  0  0  0  0  0  0  0  0  0
   45.8290   23.4940   49.4300 H   0  0  0  0  0  0  0  0  0  0  0  0
   46.6460   25.1630   48.5960 O   0  0  0  0  0  0  0  0  0  0  0  0
  1  9  1  0  0  0  0
  2  1  2  0  0  0  0
  2  3  1  0  0  0  0
  3  4  2  0  0  0  0
  4  8  1  0  0  0  0
  4  5  1  0  0  0  0
  5 12  1  0  0  0  0
  5  6  1  0  0  0  0
  6 13  1  0  0  0  0
  7  6  2  0  0  0  0
  8  7  1  0  0  0  0
  9 23  1  0  0  0  0
  9  8  2  0  0  0  0
 10  1  1  0  0  0  0
 11  3  1  0  0  0  0
 14 19  1  0  0  0  0
 15 16  1  0  0  0  0
 15 14  2  0  0  0  0
 16 17  2  0  0  0  0
 17 18  1  0  0  0  0
 18  2  1  0  0  0  0
 19 18  2  0  0  0  0
 20 14  1  0  0  0  0
 21 15  1  0  0  0  0
 22 16  1  0  0  0  0
 23 27  1  0  0  0  0
 24 25  1  0  0  0  0
 24 23  2  0  0  0  0
 25 26  2  0  0  0  0
 26 27  1  0  0  0  0
 26 30  1  0  0  0  0
 28 24  1  0  0  0  0
 29 25  1  0  0  0  0
 30 37  1  0  0  0  0
 31 33  1  0  0  0  0
 31 30  2  0  0  0  0
 32 31  1  0  0  0  0
 33 35  2  0  0  0  0
 34 33  1  0  0  0  0
 35 37  1  0  0  0  0
 35 36  1  0  0  0  0
M  END
>  <minimizedAffinity>
-5.60914898

>  <minimizedRMSD>
0.834420145

$$$$
