
 OpenBabel03252506563D

 37 41  0  0  0  0  0  0  0  0999 V2000
   47.2170   31.3630   45.1450 C   0  0  0  0  0  0  0  0  0  0  0  0
   46.8650   32.7060   45.1380 C   0  0  0  0  0  0  0  0  0  0  0  0
   46.2640   33.3280   46.2070 C   0  0  0  0  0  0  0  0  0  0  0  0
   45.9800   32.6080   47.3660 C   0  0  0  0  0  0  0  0  0  0  0  0
   45.4130   32.8700   48.5810 N   0  0  0  0  0  0  0  0  0  0  0  0
   45.4140   31.7290   49.3130 C   0  0  0  0  0  0  0  0  0  0  0  0
   45.9830   30.7700   48.5450 N   0  0  0  0  0  0  0  0  0  0  0  0
   46.3380   31.2830   47.3450 C   0  0  0  0  0  0  0  0  0  0  0  0
   46.9350   30.6330   46.3060 C   0  0  0  0  0  0  0  0  0  0  0  0
   47.6880   30.8990   44.2930 H   0  0  0  0  0  0  0  0  0  0  0  0
   45.9850   34.3800   46.2080 H   0  0  0  0  0  0  0  0  0  0  0  0
   45.0590   33.8220   48.8300 H   0  0  0  0  0  0  0  0  0  0  0  0
   45.0170   31.6880   50.3130 H   0  0  0  0  0  0  0  0  0  0  0  0
   46.5090   35.1800   42.4290 C   0  0  0  0  0  0  0  0  0  0  0  0
   47.6850   34.9840   41.6970 C   0  0  0  0  0  0  0  0  0  0  0  0
   48.5870   34.0130   42.1300 C   0  0  0  0  0  0  0  0  0  0  0  0
   48.2810   33.2920   43.2590 N   0  0  0  0  0  0  0  0  0  0  0  0
   47.1440   33.5010   43.9430 C   0  0  0  0  0  0  0  0  0  0  0  0
   46.2550   34.4380   43.5400 N   0  0  0  0  0  0  0  0  0  0  0  0
   45.8250   35.9410   42.0710 H   0  0  0  0  0  0  0  0  0  0  0  0
   47.9500   35.5340   40.8110 H   0  0  0  0  0  0  0  0  0  0  0  0
   49.5180   33.7830   41.6420 H   0  0  0  0  0  0  0  0  0  0  0  0
   47.2770   29.2100   46.3910 C   0  0  0  0  0  0  0  0  0  0  0  0
   48.5570   28.7130   46.3550 C   0  0  0  0  0  0  0  0  0  0  0  0
   48.4060   27.3270   46.4640 C   0  0  0  0  0  0  0  0  0  0  0  0
   47.0570   27.0700   46.5590 C   0  0  0  0  0  0  0  0  0  0  0  0
   46.4210   28.2420   46.5090 O   0  0  0  0  0  0  0  0  0  0  0  0
   49.5140   29.2120   46.2640 H   0  0  0  0  0  0  0  0  0  0  0  0
   49.1500   26.5460   46.4790 H   0  0  0  0  0  0  0  0  0  0  0  0
   46.3240   25.8130   46.6920 C   0  0  0  0  0  0  0  0  0  0  0  0
   46.3960   24.8390   45.6910 C   0  0  0  0  0  0  0  0  0  0  0  0
   46.9600   24.8760   44.7480 H   0  0  0  0  0  0  0  0  0  0  0  0
   45.6230   23.7520   46.0490 C   0  0  0  0  0  0  0  0  0  0  0  0
   45.4090   22.8140   45.5750 H   0  0  0  0  0  0  0  0  0  0  0  0
   45.1110   24.1280   47.2730 C   0  0  0  0  0  0  0  0  0  0  0  0
   44.4540   23.6410   47.9700 H   0  0  0  0  0  0  0  0  0  0  0  0
   45.5350   25.3330   47.6240 O   0  0  0  0  0  0  0  0  0  0  0  0
  1  9  1  0  0  0  0
  2  1  2  0  0  0  0
  2  3  1  0  0  0  0
  3 11  1  0  0  0  0
  3  4  2  0  0  0  0
  4  5  1  0  0  0  0
  5 12  1  0  0  0  0
  5  6  1  0  0  0  0
  6 13  1  0  0  0  0
  7  6  2  0  0  0  0
  8  4  1  0  0  0  0
  8  7  1  0  0  0  0
  9 23  1  0  0  0  0
  9  8  2  0  0  0  0
 10  1  1  0  0  0  0
 14 19  1  0  0  0  0
 15 16  1  0  0  0  0
 15 14  2  0  0  0  0
 16 17  2  0  0  0  0
 17 18  1  0  0  0  0
 18  2  1  0  0  0  0
 19 18  2  0  0  0  0
 20 14  1  0  0  0  0
 21 15  1  0  0  0  0
 22 16  1  0  0  0  0
 23 27  1  0  0  0  0
 24 23  2  0  0  0  0
 24 25  1  0  0  0  0
 25 29  1  0  0  0  0
 25 26  2  0  0  0  0
 26 30  1  0  0  0  0
 27 26  1  0  0  0  0
 28 24  1  0  0  0  0
 30 37  1  0  0  0  0
 31 33  1  0  0  0  0
 31 30  2  0  0  0  0
 32 31  1  0  0  0  0
 33 35  2  0  0  0  0
 34 33  1  0  0  0  0
 35 37  1  0  0  0  0
 35 36  1  0  0  0  0
M  END
>  <minimizedAffinity>
-5.36473227

>  <minimizedRMSD>
0.298828214

$$$$
