
 OpenBabel03252509113D

 30 33  0  0  0  0  0  0  0  0999 V2000
   40.5500   31.3900   41.5720 C   0  0  0  0  0  0  0  0  0  0  0  0
   41.5010   32.3910   41.4610 C   0  0  0  0  0  0  0  0  0  0  0  0
   42.7750   32.2570   41.9780 C   0  0  0  0  0  0  0  0  0  0  0  0
   43.1360   31.0860   42.6370 C   0  0  0  0  0  0  0  0  0  0  0  0
   44.2530   30.6160   43.2510 N   0  0  0  0  0  0  0  0  0  0  0  0
   44.0050   29.3720   43.7240 C   0  0  0  0  0  0  0  0  0  0  0  0
   42.7310   29.0860   43.3940 N   0  0  0  0  0  0  0  0  0  0  0  0
   42.1690   30.1140   42.7290 C   0  0  0  0  0  0  0  0  0  0  0  0
   40.8890   30.2060   42.2270 C   0  0  0  0  0  0  0  0  0  0  0  0
   39.5580   31.5300   41.1520 H   0  0  0  0  0  0  0  0  0  0  0  0
   45.1040   31.2040   43.2910 H   0  0  0  0  0  0  0  0  0  0  0  0
   44.7490   28.7890   44.2550 H   0  0  0  0  0  0  0  0  0  0  0  0
   40.1840   29.3970   42.3390 H   0  0  0  0  0  0  0  0  0  0  0  0
   40.4570   35.8580   40.8540 C   0  0  0  0  0  0  0  0  0  0  0  0
   40.5210   35.9590   39.4630 C   0  0  0  0  0  0  0  0  0  0  0  0
   40.9250   34.8280   38.7330 C   0  0  0  0  0  0  0  0  0  0  0  0
   41.2280   33.7060   39.4510 N   0  0  0  0  0  0  0  0  0  0  0  0
   41.1600   33.6290   40.7830 C   0  0  0  0  0  0  0  0  0  0  0  0
   40.7740   34.7070   41.4980 N   0  0  0  0  0  0  0  0  0  0  0  0
   40.1430   36.7400   41.4090 H   0  0  0  0  0  0  0  0  0  0  0  0
   40.2700   36.8710   38.9510 H   0  0  0  0  0  0  0  0  0  0  0  0
   40.9930   34.8480   37.6530 H   0  0  0  0  0  0  0  0  0  0  0  0
   43.7980   33.2950   41.8770 C   0  0  0  0  0  0  0  0  0  0  0  0
   44.6540   33.1390   40.7830 C   0  0  0  0  0  0  0  0  0  0  0  0
   44.7690   32.4410   39.9690 H   0  0  0  0  0  0  0  0  0  0  0  0
   45.5650   34.2010   40.8320 C   0  0  0  0  0  0  0  0  0  0  0  0
   46.3990   34.4490   40.1610 H   0  0  0  0  0  0  0  0  0  0  0  0
   45.1940   34.9340   41.9620 C   0  0  0  0  0  0  0  0  0  0  0  0
   45.6440   35.8380   42.3610 H   0  0  0  0  0  0  0  0  0  0  0  0
   44.1590   34.3620   42.5340 O   0  0  0  0  0  0  0  0  0  0  0  0
  1  9  1  0  0  0  0
  2  1  2  0  0  0  0
  2  3  1  0  0  0  0
  3  4  2  0  0  0  0
  4  8  1  0  0  0  0
  4  5  1  0  0  0  0
  5 11  1  0  0  0  0
  5  6  1  0  0  0  0
  6 12  1  0  0  0  0
  7  6  2  0  0  0  0
  8  7  1  0  0  0  0
  9 13  1  0  0  0  0
  9  8  2  0  0  0  0
 10  1  1  0  0  0  0
 14 20  1  0  0  0  0
 14 19  1  0  0  0  0
 15 14  2  0  0  0  0
 16 17  2  0  0  0  0
 16 15  1  0  0  0  0
 17 18  1  0  0  0  0
 18  2  1  0  0  0  0
 18 19  2  0  0  0  0
 21 15  1  0  0  0  0
 22 16  1  0  0  0  0
 23  3  1  0  0  0  0
 23 30  1  0  0  0  0
 24 26  1  0  0  0  0
 24 23  2  0  0  0  0
 25 24  1  0  0  0  0
 26 28  2  0  0  0  0
 27 26  1  0  0  0  0
 28 29  1  0  0  0  0
 28 30  1  0  0  0  0
M  END
>  <minimizedAffinity>
-4.26679945

>  <minimizedRMSD>
6.36949396

$$$$
