
 OpenBabel03242520103D

 28 30  0  0  0  0  0  0  0  0999 V2000
   46.1380   32.6680   47.0870 C   0  0  0  0  0  0  0  0  0  0  0  0
   45.0580   32.2690   47.8050 C   0  0  0  0  0  0  0  0  0  0  0  0
   45.2510   31.5460   48.9630 C   0  0  0  0  0  0  0  0  0  0  0  0
   46.5340   31.2320   49.3840 C   0  0  0  0  0  0  0  0  0  0  0  0
   47.6110   31.6520   48.6330 C   0  0  0  0  0  0  0  0  0  0  0  0
   47.3650   32.3390   47.5380 N   0  0  0  0  0  0  0  0  0  0  0  0
   44.0540   32.5100   47.4820 H   0  0  0  0  0  0  0  0  0  0  0  0
   44.4360   31.1930   49.5870 H   0  0  0  0  0  0  0  0  0  0  0  0
   46.7620   30.6630   50.2900 H   0  0  0  0  0  0  0  0  0  0  0  0
   44.9270   35.0180   44.5400 C   0  0  0  0  0  0  0  0  0  0  0  0
   45.8910   34.8450   43.5190 C   0  0  0  0  0  0  0  0  0  0  0  0
   46.9350   33.9350   43.7120 C   0  0  0  0  0  0  0  0  0  0  0  0
   46.9380   33.2770   44.8890 N   0  0  0  0  0  0  0  0  0  0  0  0
   46.0330   33.4380   45.8500 C   0  0  0  0  0  0  0  0  0  0  0  0
   45.0450   34.3060   45.6560 N   0  0  0  0  0  0  0  0  0  0  0  0
   43.8690   35.9430   44.3410 N   0  0  0  0  0  0  0  0  0  0  0  0
   45.7830   35.4270   42.6230 H   0  0  0  0  0  0  0  0  0  0  0  0
   47.6640   33.8040   42.9400 H   0  0  0  0  0  0  0  0  0  0  0  0
   43.9160   36.9180   43.9590 H   0  0  0  0  0  0  0  0  0  0  0  0
   42.9630   35.5440   44.6290 H   0  0  0  0  0  0  0  0  0  0  0  0
   49.0040   31.3840   48.9740 C   0  0  0  0  0  0  0  0  0  0  0  0
   49.6130   30.1710   48.6290 C   0  0  0  0  0  0  0  0  0  0  0  0
   49.2810   29.2790   48.1170 H   0  0  0  0  0  0  0  0  0  0  0  0
   50.9000   30.2370   49.0860 C   0  0  0  0  0  0  0  0  0  0  0  0
   51.7840   29.6170   49.1000 H   0  0  0  0  0  0  0  0  0  0  0  0
   51.0430   31.4660   49.6880 C   0  0  0  0  0  0  0  0  0  0  0  0
   51.7730   32.0890   50.2110 H   0  0  0  0  0  0  0  0  0  0  0  0
   49.8890   32.0960   49.5890 O   0  0  0  0  0  0  0  0  0  0  0  0
  1  6  2  0  0  0  0
  1  2  1  0  0  0  0
  2  3  2  0  0  0  0
  3  4  1  0  0  0  0
  3  8  1  0  0  0  0
  4  9  1  0  0  0  0
  5 21  1  0  0  0  0
  5  4  2  0  0  0  0
  6  5  1  0  0  0  0
  7  2  1  0  0  0  0
 10 15  1  0  0  0  0
 11 12  1  0  0  0  0
 11 10  2  0  0  0  0
 12 13  2  0  0  0  0
 13 14  1  0  0  0  0
 14  1  1  0  0  0  0
 15 14  2  0  0  0  0
 16 10  1  0  0  0  0
 16 20  1  0  0  0  0
 17 11  1  0  0  0  0
 18 12  1  0  0  0  0
 19 16  1  0  0  0  0
 21 28  1  0  0  0  0
 22 21  2  0  0  0  0
 22 24  1  0  0  0  0
 23 22  1  0  0  0  0
 24 25  1  0  0  0  0
 24 26  2  0  0  0  0
 26 27  1  0  0  0  0
 28 26  1  0  0  0  0
M  END
>  <minimizedAffinity>
-6.03664446

>  <minimizedRMSD>
0.974162519

$$$$
