
 OpenBabel03242523593D

 20 21  0  0  0  0  0  0  0  0999 V2000
   44.4740   36.0480   44.6790 C   0  0  0  0  0  0  0  0  0  0  0  0
   45.1560   35.9860   43.4540 C   0  0  0  0  0  0  0  0  0  0  0  0
   46.0440   34.9200   43.2660 C   0  0  0  0  0  0  0  0  0  0  0  0
   46.2020   34.0110   44.2620 N   0  0  0  0  0  0  0  0  0  0  0  0
   45.5220   34.1120   45.4310 C   0  0  0  0  0  0  0  0  0  0  0  0
   44.6570   35.1360   45.6320 N   0  0  0  0  0  0  0  0  0  0  0  0
   43.7870   36.8490   44.8580 H   0  0  0  0  0  0  0  0  0  0  0  0
   45.0190   36.7160   42.6720 H   0  0  0  0  0  0  0  0  0  0  0  0
   46.8060   34.7570   42.0300 C   0  0  0  0  0  0  0  0  0  0  0  0
   48.0620   35.3140   41.8370 C   0  0  0  0  0  0  0  0  0  0  0  0
   48.6660   35.9190   42.4960 H   0  0  0  0  0  0  0  0  0  0  0  0
   48.4910   34.9600   40.5520 C   0  0  0  0  0  0  0  0  0  0  0  0
   49.4340   35.2430   40.1030 H   0  0  0  0  0  0  0  0  0  0  0  0
   47.4680   34.2070   40.0430 C   0  0  0  0  0  0  0  0  0  0  0  0
   47.4440   33.7530   39.0530 H   0  0  0  0  0  0  0  0  0  0  0  0
   46.5060   34.1110   40.9290 O   0  0  0  0  0  0  0  0  0  0  0  0
   45.8340   33.0170   46.3960 C   0  0  0  0  0  0  0  0  0  0  0  0
   45.0110   33.0480   47.4830 F   0  0  0  0  0  0  0  0  0  0  0  0
   47.1610   33.1260   46.8120 F   0  0  0  0  0  0  0  0  0  0  0  0
   45.7590   31.8000   45.7350 F   0  0  0  0  0  0  0  0  0  0  0  0
  1  7  1  0  0  0  0
  1  6  1  0  0  0  0
  2  1  2  0  0  0  0
  3  2  1  0  0  0  0
  3  4  2  0  0  0  0
  4  5  1  0  0  0  0
  5  6  2  0  0  0  0
  5 17  1  0  0  0  0
  8  2  1  0  0  0  0
  9  3  1  0  0  0  0
 10  9  2  0  0  0  0
 10 11  1  0  0  0  0
 12 10  1  0  0  0  0
 13 12  1  0  0  0  0
 14 12  2  0  0  0  0
 14 16  1  0  0  0  0
 15 14  1  0  0  0  0
 16  9  1  0  0  0  0
 17 19  1  0  0  0  0
 17 18  1  0  0  0  0
 20 17  1  0  0  0  0
M  END
>  <minimizedAffinity>
-5.41188669

>  <minimizedRMSD>
0.804456294

$$$$
