
 OpenBabel03252508543D

 42 45  0  0  1  0  0  0  0  0999 V2000
   43.3580   34.5000   40.7680 C   0  0  0  0  0  0  0  0  0  0  0  0
   43.3060   35.7170   40.4360 O   0  0  0  0  0  0  0  0  0  0  0  0
   42.0010   34.1050   40.4710 N   0  0  0  0  0  0  0  0  0  0  0  0
   41.5910   34.2560   39.0920 C   0  0  0  0  0  0  0  0  0  0  0  0
   40.7900   35.5730   39.0600 C   0  0  0  0  0  0  0  0  0  0  0  0
   40.0210   35.6280   40.3700 C   0  0  0  0  0  0  0  0  0  0  0  0
   39.6780   34.2270   40.8850 C   0  0  0  0  0  0  0  0  0  0  0  0
   40.9640   33.5720   41.3550 C   0  0  1  0  0  0  0  0  0  0  0  0
   40.9340   33.4060   38.8000 H   0  0  0  0  0  0  0  0  0  0  0  0
   42.4280   34.3630   38.3980 H   0  0  0  0  0  0  0  0  0  0  0  0
   41.5080   36.4200   39.0080 H   0  0  0  0  0  0  0  0  0  0  0  0
   40.0680   35.5570   38.2250 H   0  0  0  0  0  0  0  0  0  0  0  0
   39.1300   36.2520   40.2950 H   0  0  0  0  0  0  0  0  0  0  0  0
   40.6670   36.0980   41.1640 H   0  0  0  0  0  0  0  0  0  0  0  0
   39.2590   33.6320   40.0770 H   0  0  0  0  0  0  0  0  0  0  0  0
   39.0010   34.4070   41.7460 H   0  0  0  0  0  0  0  0  0  0  0  0
   41.1830   34.0080   42.3570 H   0  0  0  0  0  0  0  0  0  0  0  0
   40.9230   32.1120   41.3470 C   0  0  0  0  0  0  0  0  0  0  0  0
   41.7550   31.2210   42.0060 C   0  0  0  0  0  0  0  0  0  0  0  0
   42.5850   31.4700   42.6430 H   0  0  0  0  0  0  0  0  0  0  0  0
   41.2800   29.9720   41.6590 C   0  0  0  0  0  0  0  0  0  0  0  0
   41.6670   29.0100   41.9730 H   0  0  0  0  0  0  0  0  0  0  0  0
   40.1880   30.1880   40.8110 C   0  0  0  0  0  0  0  0  0  0  0  0
   39.5900   29.4000   40.3590 H   0  0  0  0  0  0  0  0  0  0  0  0
   39.9910   31.4920   40.6360 O   0  0  0  0  0  0  0  0  0  0  0  0
   44.4240   33.7930   41.2660 O   0  0  0  0  0  0  0  0  0  0  0  0
   45.7550   34.1240   41.1200 C   0  0  0  0  0  0  0  0  0  0  0  0
   46.3940   34.7490   42.2030 C   0  0  0  0  0  0  0  0  0  0  0  0
   47.7530   35.0700   42.0140 C   0  0  0  0  0  0  0  0  0  0  0  0
   48.3500   34.7600   40.8190 N   0  0  0  0  0  0  0  0  0  0  0  0
   47.6870   34.1690   39.8390 C   0  0  0  0  0  0  0  0  0  0  0  0
   46.3880   33.8420   39.9680 N   0  0  0  0  0  0  0  0  0  0  0  0
   48.2760   35.5510   42.8240 H   0  0  0  0  0  0  0  0  0  0  0  0
   48.1430   33.9160   38.8860 H   0  0  0  0  0  0  0  0  0  0  0  0
   45.6650   35.0270   43.4160 C   0  0  0  0  0  0  0  0  0  0  0  0
   45.0240   36.2430   43.6360 C   0  0  0  0  0  0  0  0  0  0  0  0
   44.4650   36.0870   44.8890 C   0  0  0  0  0  0  0  0  0  0  0  0
   44.7490   34.8620   45.3860 N   0  0  0  0  0  0  0  0  0  0  0  0
   45.4760   34.2380   44.4790 N   0  0  0  0  0  0  0  0  0  0  0  0
   44.9630   37.1130   43.0010 H   0  0  0  0  0  0  0  0  0  0  0  0
   43.8660   36.8370   45.4300 H   0  0  0  0  0  0  0  0  0  0  0  0
   44.4890   34.4110   46.2970 H   0  0  0  0  0  0  0  0  0  0  0  0
  1 26  1  0  0  0  0
  2  1  2  0  0  0  0
  3  1  1  0  0  0  0
  3  8  1  0  0  0  0
  4  3  1  0  0  0  0
  5  4  1  0  0  0  0
  5  6  1  0  0  0  0
  6  7  1  0  0  0  0
  6 14  1  0  0  0  0
  7  8  1  0  0  0  0
  7 16  1  0  0  0  0
  8 17  1  1  0  0  0
  9  4  1  0  0  0  0
 10  4  1  0  0  0  0
 11  5  1  0  0  0  0
 12  5  1  0  0  0  0
 13  6  1  0  0  0  0
 15  7  1  0  0  0  0
 18  8  1  0  0  0  0
 18 19  2  0  0  0  0
 19 20  1  0  0  0  0
 21 22  1  0  0  0  0
 21 19  1  0  0  0  0
 23 21  2  0  0  0  0
 24 23  1  0  0  0  0
 25 23  1  0  0  0  0
 25 18  1  0  0  0  0
 27 26  1  0  0  0  0
 27 28  1  0  0  0  0
 28 35  1  0  0  0  0
 29 28  2  0  0  0  0
 29 33  1  0  0  0  0
 30 29  1  0  0  0  0
 31 32  1  0  0  0  0
 31 30  2  0  0  0  0
 32 27  2  0  0  0  0
 34 31  1  0  0  0  0
 35 36  1  0  0  0  0
 35 39  2  0  0  0  0
 36 37  2  0  0  0  0
 37 38  1  0  0  0  0
 37 41  1  0  0  0  0
 38 42  1  0  0  0  0
 39 38  1  0  0  0  0
 40 36  1  0  0  0  0
M  END
>  <minimizedAffinity>
-6.54283619

>  <minimizedRMSD>
0.226074934

$$$$
