
 OpenBabel03252507273D

 26 28  0  0  0  0  0  0  0  0999 V2000
   37.3000   30.5230   40.8490 C   0  0  0  0  0  0  0  0  0  0  0  0
   35.9690   30.2860   40.4650 C   0  0  0  0  0  0  0  0  0  0  0  0
   35.4480   29.0100   40.6800 C   0  0  0  0  0  0  0  0  0  0  0  0
   36.2510   28.0520   41.2510 N   0  0  0  0  0  0  0  0  0  0  0  0
   37.5280   28.3340   41.6020 C   0  0  0  0  0  0  0  0  0  0  0  0
   38.0560   29.5530   41.4080 N   0  0  0  0  0  0  0  0  0  0  0  0
   35.3970   31.0970   40.0180 H   0  0  0  0  0  0  0  0  0  0  0  0
   34.4260   28.8010   40.3930 H   0  0  0  0  0  0  0  0  0  0  0  0
   38.3340   27.2870   42.2030 C   0  0  0  0  0  0  0  0  0  0  0  0
   39.3820   27.6150   43.0540 C   0  0  0  0  0  0  0  0  0  0  0  0
   40.2130   26.7080   43.6800 C   0  0  0  0  0  0  0  0  0  0  0  0
   39.9210   25.3800   43.3900 C   0  0  0  0  0  0  0  0  0  0  0  0
   38.8790   25.0340   42.5430 C   0  0  0  0  0  0  0  0  0  0  0  0
   38.1010   25.9910   41.9620 N   0  0  0  0  0  0  0  0  0  0  0  0
   39.5430   28.6710   43.2270 H   0  0  0  0  0  0  0  0  0  0  0  0
   41.0100   27.0380   44.3310 H   0  0  0  0  0  0  0  0  0  0  0  0
   40.5330   24.6150   43.8480 H   0  0  0  0  0  0  0  0  0  0  0  0
   38.7210   23.9750   42.3740 H   0  0  0  0  0  0  0  0  0  0  0  0
   37.8870   31.8430   40.6440 C   0  0  0  0  0  0  0  0  0  0  0  0
   37.3250   32.8620   39.8880 C   0  0  0  0  0  0  0  0  0  0  0  0
   36.3890   32.8610   39.3370 H   0  0  0  0  0  0  0  0  0  0  0  0
   38.1690   33.9550   39.9300 C   0  0  0  0  0  0  0  0  0  0  0  0
   38.1020   34.9320   39.4830 H   0  0  0  0  0  0  0  0  0  0  0  0
   39.2160   33.5610   40.7110 C   0  0  0  0  0  0  0  0  0  0  0  0
   40.1150   34.0350   41.0430 H   0  0  0  0  0  0  0  0  0  0  0  0
   39.0260   32.3390   41.1080 O   0  0  0  0  0  0  0  0  0  0  0  0
  1  6  1  0  0  0  0
  2  3  1  0  0  0  0
  2  1  2  0  0  0  0
  3  4  2  0  0  0  0
  4  5  1  0  0  0  0
  5  9  1  0  0  0  0
  6  5  2  0  0  0  0
  7  2  1  0  0  0  0
  8  3  1  0  0  0  0
  9 10  1  0  0  0  0
 10 15  1  0  0  0  0
 10 11  2  0  0  0  0
 11 16  1  0  0  0  0
 12 11  1  0  0  0  0
 12 17  1  0  0  0  0
 13 12  2  0  0  0  0
 14  9  2  0  0  0  0
 14 13  1  0  0  0  0
 18 13  1  0  0  0  0
 19  1  1  0  0  0  0
 19 26  1  0  0  0  0
 20 22  1  0  0  0  0
 20 19  2  0  0  0  0
 21 20  1  0  0  0  0
 22 24  2  0  0  0  0
 23 22  1  0  0  0  0
 24 25  1  0  0  0  0
 24 26  1  0  0  0  0
M  END
>  <minimizedAffinity>
-5.14863539

$$$$

 OpenBabel03252507273D

 26 28  0  0  0  0  0  0  0  0999 V2000
   37.9080   28.1210   41.8780 C   0  0  0  0  0  0  0  0  0  0  0  0
   36.5710   27.7800   41.6140 C   0  0  0  0  0  0  0  0  0  0  0  0
   35.7510   28.7560   41.0460 C   0  0  0  0  0  0  0  0  0  0  0  0
   36.2820   29.9930   40.7720 N   0  0  0  0  0  0  0  0  0  0  0  0
   37.5790   30.2690   41.0460 C   0  0  0  0  0  0  0  0  0  0  0  0
   38.3920   29.3500   41.5930 N   0  0  0  0  0  0  0  0  0  0  0  0
   36.2240   26.7780   41.8590 H   0  0  0  0  0  0  0  0  0  0  0  0
   34.7160   28.5180   40.8330 H   0  0  0  0  0  0  0  0  0  0  0  0
   38.0920   31.5910   40.7370 C   0  0  0  0  0  0  0  0  0  0  0  0
   37.2790   32.5250   40.1060 C   0  0  0  0  0  0  0  0  0  0  0  0
   37.6570   33.8070   39.7640 C   0  0  0  0  0  0  0  0  0  0  0  0
   38.9670   34.1220   40.1090 C   0  0  0  0  0  0  0  0  0  0  0  0
   39.7920   33.2030   40.7400 C   0  0  0  0  0  0  0  0  0  0  0  0
   39.3440   31.9520   41.0440 N   0  0  0  0  0  0  0  0  0  0  0  0
   36.2730   32.2010   39.8720 H   0  0  0  0  0  0  0  0  0  0  0  0
   36.9680   34.4800   39.2730 H   0  0  0  0  0  0  0  0  0  0  0  0
   39.3290   35.1120   39.8710 H   0  0  0  0  0  0  0  0  0  0  0  0
   40.7980   33.5330   40.9720 H   0  0  0  0  0  0  0  0  0  0  0  0
   38.8030   27.1330   42.4710 C   0  0  0  0  0  0  0  0  0  0  0  0
   39.8560   27.4190   43.3280 C   0  0  0  0  0  0  0  0  0  0  0  0
   40.1900   28.3840   43.6950 H   0  0  0  0  0  0  0  0  0  0  0  0
   40.4690   26.2310   43.6800 C   0  0  0  0  0  0  0  0  0  0  0  0
   41.3100   26.0170   44.3160 H   0  0  0  0  0  0  0  0  0  0  0  0
   39.7650   25.2650   43.0230 C   0  0  0  0  0  0  0  0  0  0  0  0
   39.8400   24.1990   42.9650 H   0  0  0  0  0  0  0  0  0  0  0  0
   38.8100   25.8140   42.3340 O   0  0  0  0  0  0  0  0  0  0  0  0
  1 19  1  0  0  0  0
  2  7  1  0  0  0  0
  2  1  1  0  0  0  0
  3  2  2  0  0  0  0
  4  3  1  0  0  0  0
  4  5  2  0  0  0  0
  5  6  1  0  0  0  0
  6  1  2  0  0  0  0
  8  3  1  0  0  0  0
  9 14  1  0  0  0  0
  9  5  1  0  0  0  0
 10  9  2  0  0  0  0
 11 10  1  0  0  0  0
 11 12  2  0  0  0  0
 12 13  1  0  0  0  0
 13 18  1  0  0  0  0
 13 14  2  0  0  0  0
 15 10  1  0  0  0  0
 16 11  1  0  0  0  0
 17 12  1  0  0  0  0
 19 20  2  0  0  0  0
 20 22  1  0  0  0  0
 20 21  1  0  0  0  0
 22 23  1  0  0  0  0
 24 22  2  0  0  0  0
 25 24  1  0  0  0  0
 26 19  1  0  0  0  0
 26 24  1  0  0  0  0
M  END
>  <minimizedAffinity>
-4.96522951

$$$$

 OpenBabel03252507273D

 26 28  0  0  0  0  0  0  0  0999 V2000
   37.1940   27.1420   41.5390 C   0  0  0  0  0  0  0  0  0  0  0  0
   37.3410   26.9840   42.9270 C   0  0  0  0  0  0  0  0  0  0  0  0
   37.6700   28.1120   43.6780 C   0  0  0  0  0  0  0  0  0  0  0  0
   37.8330   29.3150   43.0340 N   0  0  0  0  0  0  0  0  0  0  0  0
   37.6790   29.4120   41.6930 C   0  0  0  0  0  0  0  0  0  0  0  0
   37.3620   28.3430   40.9430 N   0  0  0  0  0  0  0  0  0  0  0  0
   37.1960   25.9970   43.3640 H   0  0  0  0  0  0  0  0  0  0  0  0
   37.7900   28.0170   44.7500 H   0  0  0  0  0  0  0  0  0  0  0  0
   37.8610   30.7050   41.0610 C   0  0  0  0  0  0  0  0  0  0  0  0
   36.9610   31.1440   40.0970 C   0  0  0  0  0  0  0  0  0  0  0  0
   37.0330   32.3510   39.4310 C   0  0  0  0  0  0  0  0  0  0  0  0
   38.1170   33.1390   39.8030 C   0  0  0  0  0  0  0  0  0  0  0  0
   39.0250   32.7170   40.7630 C   0  0  0  0  0  0  0  0  0  0  0  0
   38.8840   31.5080   41.3770 N   0  0  0  0  0  0  0  0  0  0  0  0
   36.1450   30.4720   39.8640 H   0  0  0  0  0  0  0  0  0  0  0  0
   36.2940   32.6250   38.6920 H   0  0  0  0  0  0  0  0  0  0  0  0
   38.2350   34.0990   39.3210 H   0  0  0  0  0  0  0  0  0  0  0  0
   39.8390   33.3950   40.9920 H   0  0  0  0  0  0  0  0  0  0  0  0
   36.8500   25.9890   40.7120 C   0  0  0  0  0  0  0  0  0  0  0  0
   36.8310   24.6710   41.1440 C   0  0  0  0  0  0  0  0  0  0  0  0
   37.0580   24.2760   42.1300 H   0  0  0  0  0  0  0  0  0  0  0  0
   36.4590   23.8680   40.0830 C   0  0  0  0  0  0  0  0  0  0  0  0
   36.3260   22.8030   40.0000 H   0  0  0  0  0  0  0  0  0  0  0  0
   36.2650   24.7280   39.0430 C   0  0  0  0  0  0  0  0  0  0  0  0
   35.9740   24.6060   38.0200 H   0  0  0  0  0  0  0  0  0  0  0  0
   36.4980   25.9440   39.4340 O   0  0  0  0  0  0  0  0  0  0  0  0
  1  2  1  0  0  0  0
  2  7  1  0  0  0  0
  2  3  2  0  0  0  0
  3  8  1  0  0  0  0
  4  3  1  0  0  0  0
  5  4  2  0  0  0  0
  6  1  2  0  0  0  0
  6  5  1  0  0  0  0
  9 14  1  0  0  0  0
  9  5  1  0  0  0  0
 10  9  2  0  0  0  0
 11 12  2  0  0  0  0
 11 10  1  0  0  0  0
 12 13  1  0  0  0  0
 13 18  1  0  0  0  0
 13 14  2  0  0  0  0
 15 10  1  0  0  0  0
 16 11  1  0  0  0  0
 17 12  1  0  0  0  0
 19 20  2  0  0  0  0
 19  1  1  0  0  0  0
 20 21  1  0  0  0  0
 22 20  1  0  0  0  0
 23 22  1  0  0  0  0
 24 26  1  0  0  0  0
 24 22  2  0  0  0  0
 25 24  1  0  0  0  0
 26 19  1  0  0  0  0
M  END
>  <minimizedAffinity>
-4.85149574

$$$$

 OpenBabel03252507273D

 26 28  0  0  0  0  0  0  0  0999 V2000
   37.7270   26.9090   41.7780 C   0  0  0  0  0  0  0  0  0  0  0  0
   37.6380   27.1710   43.1560 C   0  0  0  0  0  0  0  0  0  0  0  0
   37.4760   28.4980   43.5560 C   0  0  0  0  0  0  0  0  0  0  0  0
   37.4100   29.4780   42.5950 N   0  0  0  0  0  0  0  0  0  0  0  0
   37.5020   29.1700   41.2800 C   0  0  0  0  0  0  0  0  0  0  0  0
   37.6580   27.9030   40.8650 N   0  0  0  0  0  0  0  0  0  0  0  0
   37.6980   26.3400   43.8560 H   0  0  0  0  0  0  0  0  0  0  0  0
   37.4040   28.7270   44.6110 H   0  0  0  0  0  0  0  0  0  0  0  0
   37.4270   30.2430   40.3060 C   0  0  0  0  0  0  0  0  0  0  0  0
   37.4540   31.5680   40.7220 C   0  0  0  0  0  0  0  0  0  0  0  0
   37.3880   32.6660   39.8890 C   0  0  0  0  0  0  0  0  0  0  0  0
   37.2900   32.3470   38.5390 C   0  0  0  0  0  0  0  0  0  0  0  0
   37.2620   31.0300   38.1050 C   0  0  0  0  0  0  0  0  0  0  0  0
   37.3310   29.9980   38.9930 N   0  0  0  0  0  0  0  0  0  0  0  0
   37.5310   31.7310   41.7900 H   0  0  0  0  0  0  0  0  0  0  0  0
   37.4150   33.6710   40.2870 H   0  0  0  0  0  0  0  0  0  0  0  0
   37.2360   33.1610   37.8290 H   0  0  0  0  0  0  0  0  0  0  0  0
   37.1850   30.8730   37.0350 H   0  0  0  0  0  0  0  0  0  0  0  0
   37.8970   25.5360   41.3130 C   0  0  0  0  0  0  0  0  0  0  0  0
   37.0850   24.4660   41.6610 C   0  0  0  0  0  0  0  0  0  0  0  0
   36.2180   24.4560   42.3130 H   0  0  0  0  0  0  0  0  0  0  0  0
   37.5580   23.3330   41.0260 C   0  0  0  0  0  0  0  0  0  0  0  0
   37.2180   22.3120   41.0310 H   0  0  0  0  0  0  0  0  0  0  0  0
   38.6410   23.7570   40.3130 C   0  0  0  0  0  0  0  0  0  0  0  0
   39.3410   23.2720   39.6660 H   0  0  0  0  0  0  0  0  0  0  0  0
   38.8130   25.0310   40.4980 O   0  0  0  0  0  0  0  0  0  0  0  0
  1  2  1  0  0  0  0
  2  3  2  0  0  0  0
  2  7  1  0  0  0  0
  3  8  1  0  0  0  0
  4  3  1  0  0  0  0
  5  4  2  0  0  0  0
  6  5  1  0  0  0  0
  6  1  2  0  0  0  0
  9 10  1  0  0  0  0
  9  5  1  0  0  0  0
 10 15  1  0  0  0  0
 11 16  1  0  0  0  0
 11 10  2  0  0  0  0
 12 11  1  0  0  0  0
 13 12  2  0  0  0  0
 13 14  1  0  0  0  0
 14  9  2  0  0  0  0
 17 12  1  0  0  0  0
 18 13  1  0  0  0  0
 19 20  2  0  0  0  0
 19  1  1  0  0  0  0
 20 21  1  0  0  0  0
 22 23  1  0  0  0  0
 22 20  1  0  0  0  0
 24 26  1  0  0  0  0
 24 22  2  0  0  0  0
 25 24  1  0  0  0  0
 26 19  1  0  0  0  0
M  END
>  <minimizedAffinity>
-4.81250954

$$$$

 OpenBabel03252507273D

 26 28  0  0  0  0  0  0  0  0999 V2000
   37.8030   29.4920   41.7480 C   0  0  0  0  0  0  0  0  0  0  0  0
   38.1470   29.2930   43.0960 C   0  0  0  0  0  0  0  0  0  0  0  0
   38.0510   27.9970   43.6060 C   0  0  0  0  0  0  0  0  0  0  0  0
   37.6300   26.9860   42.7770 N   0  0  0  0  0  0  0  0  0  0  0  0
   37.3110   27.2340   41.4850 C   0  0  0  0  0  0  0  0  0  0  0  0
   37.3930   28.4700   40.9660 N   0  0  0  0  0  0  0  0  0  0  0  0
   38.4720   30.1450   43.6890 H   0  0  0  0  0  0  0  0  0  0  0  0
   38.3100   27.8170   44.6410 H   0  0  0  0  0  0  0  0  0  0  0  0
   36.8720   26.1310   40.6500 C   0  0  0  0  0  0  0  0  0  0  0  0
   36.8700   24.8350   41.1510 C   0  0  0  0  0  0  0  0  0  0  0  0
   36.4750   23.7110   40.4520 C   0  0  0  0  0  0  0  0  0  0  0  0
   36.0590   23.9720   39.1510 C   0  0  0  0  0  0  0  0  0  0  0  0
   36.0550   25.2590   38.6350 C   0  0  0  0  0  0  0  0  0  0  0  0
   36.4600   26.3190   39.3900 N   0  0  0  0  0  0  0  0  0  0  0  0
   37.2080   24.7170   42.1730 H   0  0  0  0  0  0  0  0  0  0  0  0
   36.5000   22.7320   40.9090 H   0  0  0  0  0  0  0  0  0  0  0  0
   35.7360   23.1370   38.5460 H   0  0  0  0  0  0  0  0  0  0  0  0
   35.7140   25.3710   37.6120 H   0  0  0  0  0  0  0  0  0  0  0  0
   37.8880   30.8300   41.1710 C   0  0  0  0  0  0  0  0  0  0  0  0
   36.9290   31.4110   40.3530 C   0  0  0  0  0  0  0  0  0  0  0  0
   35.9870   30.9960   40.0100 H   0  0  0  0  0  0  0  0  0  0  0  0
   37.3600   32.6780   40.0070 C   0  0  0  0  0  0  0  0  0  0  0  0
   36.9160   33.4450   39.3960 H   0  0  0  0  0  0  0  0  0  0  0  0
   38.5660   32.8210   40.6280 C   0  0  0  0  0  0  0  0  0  0  0  0
   39.2900   33.6070   40.6730 H   0  0  0  0  0  0  0  0  0  0  0  0
   38.8440   31.7400   41.2920 O   0  0  0  0  0  0  0  0  0  0  0  0
  1  2  1  0  0  0  0
  2  3  2  0  0  0  0
  2  7  1  0  0  0  0
  3  8  1  0  0  0  0
  4  3  1  0  0  0  0
  5  4  2  0  0  0  0
  6  5  1  0  0  0  0
  6  1  2  0  0  0  0
  9 10  1  0  0  0  0
  9  5  1  0  0  0  0
 10 15  1  0  0  0  0
 11 16  1  0  0  0  0
 11 10  2  0  0  0  0
 12 11  1  0  0  0  0
 13 12  2  0  0  0  0
 13 14  1  0  0  0  0
 14  9  2  0  0  0  0
 17 12  1  0  0  0  0
 18 13  1  0  0  0  0
 19 26  1  0  0  0  0
 19  1  1  0  0  0  0
 20 19  2  0  0  0  0
 21 20  1  0  0  0  0
 22 20  1  0  0  0  0
 22 24  2  0  0  0  0
 23 22  1  0  0  0  0
 24 25  1  0  0  0  0
 24 26  1  0  0  0  0
M  END
>  <minimizedAffinity>
-4.81101084

$$$$

 OpenBabel03252507273D

 26 28  0  0  0  0  0  0  0  0999 V2000
   38.7350   31.3230   38.6340 C   0  0  0  0  0  0  0  0  0  0  0  0
   37.7800   31.1740   37.6130 C   0  0  0  0  0  0  0  0  0  0  0  0
   36.7230   30.2910   37.8370 C   0  0  0  0  0  0  0  0  0  0  0  0
   36.6620   29.6150   39.0310 N   0  0  0  0  0  0  0  0  0  0  0  0
   37.6090   29.7970   39.9810 C   0  0  0  0  0  0  0  0  0  0  0  0
   38.6390   30.6390   39.7950 N   0  0  0  0  0  0  0  0  0  0  0  0
   37.8970   31.7450   36.6940 H   0  0  0  0  0  0  0  0  0  0  0  0
   35.9740   30.1580   37.0660 H   0  0  0  0  0  0  0  0  0  0  0  0
   37.5000   29.0590   41.2260 C   0  0  0  0  0  0  0  0  0  0  0  0
   37.0150   27.7570   41.2250 C   0  0  0  0  0  0  0  0  0  0  0  0
   36.8660   26.9620   42.3440 C   0  0  0  0  0  0  0  0  0  0  0  0
   37.2520   27.5760   43.5300 C   0  0  0  0  0  0  0  0  0  0  0  0
   37.7390   28.8750   43.5500 C   0  0  0  0  0  0  0  0  0  0  0  0
   37.8550   29.5970   42.4000 N   0  0  0  0  0  0  0  0  0  0  0  0
   36.7360   27.3520   40.2610 H   0  0  0  0  0  0  0  0  0  0  0  0
   36.4810   25.9550   42.2660 H   0  0  0  0  0  0  0  0  0  0  0  0
   37.1630   27.0090   44.4460 H   0  0  0  0  0  0  0  0  0  0  0  0
   38.0170   29.2740   44.5180 H   0  0  0  0  0  0  0  0  0  0  0  0
   39.8580   32.2350   38.4450 C   0  0  0  0  0  0  0  0  0  0  0  0
   40.7690   32.1790   37.3990 C   0  0  0  0  0  0  0  0  0  0  0  0
   40.8090   31.4790   36.5710 H   0  0  0  0  0  0  0  0  0  0  0  0
   41.6830   33.2030   37.5600 C   0  0  0  0  0  0  0  0  0  0  0  0
   42.5360   33.5020   36.9760 H   0  0  0  0  0  0  0  0  0  0  0  0
   41.2950   33.8450   38.6990 C   0  0  0  0  0  0  0  0  0  0  0  0
   41.6690   34.6870   39.2420 H   0  0  0  0  0  0  0  0  0  0  0  0
   40.2410   33.2650   39.1880 O   0  0  0  0  0  0  0  0  0  0  0  0
  1  6  1  0  0  0  0
  2  3  1  0  0  0  0
  2  1  2  0  0  0  0
  3  4  2  0  0  0  0
  4  5  1  0  0  0  0
  5  9  1  0  0  0  0
  6  5  2  0  0  0  0
  7  2  1  0  0  0  0
  8  3  1  0  0  0  0
  9 14  1  0  0  0  0
 10  9  2  0  0  0  0
 10 11  1  0  0  0  0
 11 12  2  0  0  0  0
 12 13  1  0  0  0  0
 12 17  1  0  0  0  0
 13 18  1  0  0  0  0
 14 13  2  0  0  0  0
 15 10  1  0  0  0  0
 16 11  1  0  0  0  0
 19  1  1  0  0  0  0
 19 26  1  0  0  0  0
 20 22  1  0  0  0  0
 20 19  2  0  0  0  0
 21 20  1  0  0  0  0
 22 24  2  0  0  0  0
 23 22  1  0  0  0  0
 24 26  1  0  0  0  0
 24 25  1  0  0  0  0
M  END
>  <minimizedAffinity>
-4.64159918

$$$$

 OpenBabel03252507273D

 26 28  0  0  0  0  0  0  0  0999 V2000
   37.8020   30.4700   41.2820 C   0  0  0  0  0  0  0  0  0  0  0  0
   36.7210   31.0130   40.5690 C   0  0  0  0  0  0  0  0  0  0  0  0
   36.9630   32.1340   39.7740 C   0  0  0  0  0  0  0  0  0  0  0  0
   38.2360   32.6510   39.7250 N   0  0  0  0  0  0  0  0  0  0  0  0
   39.2430   32.0880   40.4320 C   0  0  0  0  0  0  0  0  0  0  0  0
   39.0390   31.0090   41.2060 N   0  0  0  0  0  0  0  0  0  0  0  0
   35.7410   30.5470   40.6600 H   0  0  0  0  0  0  0  0  0  0  0  0
   36.1470   32.5720   39.2150 H   0  0  0  0  0  0  0  0  0  0  0  0
   40.5680   32.6720   40.3450 C   0  0  0  0  0  0  0  0  0  0  0  0
   40.9010   33.4920   39.2740 C   0  0  0  0  0  0  0  0  0  0  0  0
   42.1260   34.1000   39.0870 C   0  0  0  0  0  0  0  0  0  0  0  0
   43.0520   33.8260   40.0870 C   0  0  0  0  0  0  0  0  0  0  0  0
   42.7380   33.0090   41.1640 C   0  0  0  0  0  0  0  0  0  0  0  0
   41.5020   32.4450   41.2770 N   0  0  0  0  0  0  0  0  0  0  0  0
   40.1230   33.6550   38.5390 H   0  0  0  0  0  0  0  0  0  0  0  0
   42.3120   34.7270   38.2270 H   0  0  0  0  0  0  0  0  0  0  0  0
   44.0340   34.2710   40.0040 H   0  0  0  0  0  0  0  0  0  0  0  0
   43.5200   32.8510   41.8970 H   0  0  0  0  0  0  0  0  0  0  0  0
   37.5960   29.2980   42.1270 C   0  0  0  0  0  0  0  0  0  0  0  0
   36.5890   28.3590   41.9600 C   0  0  0  0  0  0  0  0  0  0  0  0
   35.8070   28.3270   41.2080 H   0  0  0  0  0  0  0  0  0  0  0  0
   36.7170   27.4000   42.9470 C   0  0  0  0  0  0  0  0  0  0  0  0
   36.1460   26.5150   43.1680 H   0  0  0  0  0  0  0  0  0  0  0  0
   37.8000   27.7910   43.6780 C   0  0  0  0  0  0  0  0  0  0  0  0
   38.3020   27.3940   44.5350 H   0  0  0  0  0  0  0  0  0  0  0  0
   38.2870   28.8890   43.1820 O   0  0  0  0  0  0  0  0  0  0  0  0
  1 19  1  0  0  0  0
  2  7  1  0  0  0  0
  2  1  2  0  0  0  0
  3  2  1  0  0  0  0
  4  3  2  0  0  0  0
  4  5  1  0  0  0  0
  5  6  2  0  0  0  0
  6  1  1  0  0  0  0
  8  3  1  0  0  0  0
  9  5  1  0  0  0  0
  9 14  1  0  0  0  0
 10  9  2  0  0  0  0
 11 10  1  0  0  0  0
 11 12  2  0  0  0  0
 12 13  1  0  0  0  0
 13 14  2  0  0  0  0
 13 18  1  0  0  0  0
 15 10  1  0  0  0  0
 16 11  1  0  0  0  0
 17 12  1  0  0  0  0
 19 26  1  0  0  0  0
 20 19  2  0  0  0  0
 20 22  1  0  0  0  0
 21 20  1  0  0  0  0
 22 23  1  0  0  0  0
 22 24  2  0  0  0  0
 24 25  1  0  0  0  0
 26 24  1  0  0  0  0
M  END
>  <minimizedAffinity>
-4.63145542

$$$$

 OpenBabel03252507273D

 26 28  0  0  0  0  0  0  0  0999 V2000
   39.2630   27.6020   42.1850 C   0  0  0  0  0  0  0  0  0  0  0  0
   40.5140   27.6830   42.8200 C   0  0  0  0  0  0  0  0  0  0  0  0
   41.1580   28.9200   42.8320 C   0  0  0  0  0  0  0  0  0  0  0  0
   40.5470   29.9940   42.2300 N   0  0  0  0  0  0  0  0  0  0  0  0
   39.3400   29.8600   41.6320 C   0  0  0  0  0  0  0  0  0  0  0  0
   38.6960   28.6820   41.6040 N   0  0  0  0  0  0  0  0  0  0  0  0
   40.9330   26.7870   43.2750 H   0  0  0  0  0  0  0  0  0  0  0  0
   42.1230   29.0090   43.3150 H   0  0  0  0  0  0  0  0  0  0  0  0
   38.7370   31.0250   41.0100 C   0  0  0  0  0  0  0  0  0  0  0  0
   37.6330   30.8790   40.1790 C   0  0  0  0  0  0  0  0  0  0  0  0
   36.9790   31.9100   39.5350 C   0  0  0  0  0  0  0  0  0  0  0  0
   37.5210   33.1670   39.7840 C   0  0  0  0  0  0  0  0  0  0  0  0
   38.6220   33.3310   40.6110 C   0  0  0  0  0  0  0  0  0  0  0  0
   39.2130   32.2600   41.2120 N   0  0  0  0  0  0  0  0  0  0  0  0
   37.2730   29.8680   40.0360 H   0  0  0  0  0  0  0  0  0  0  0  0
   36.1240   31.7200   38.9010 H   0  0  0  0  0  0  0  0  0  0  0  0
   37.0570   34.0210   39.3120 H   0  0  0  0  0  0  0  0  0  0  0  0
   38.9780   34.3450   40.7500 H   0  0  0  0  0  0  0  0  0  0  0  0
   38.5520   26.3280   42.1470 C   0  0  0  0  0  0  0  0  0  0  0  0
   37.1750   26.1770   42.2250 C   0  0  0  0  0  0  0  0  0  0  0  0
   36.4120   26.9430   42.3240 H   0  0  0  0  0  0  0  0  0  0  0  0
   36.8780   24.8290   42.1550 C   0  0  0  0  0  0  0  0  0  0  0  0
   35.9420   24.2980   42.1800 H   0  0  0  0  0  0  0  0  0  0  0  0
   38.0870   24.2090   42.0370 C   0  0  0  0  0  0  0  0  0  0  0  0
   38.3930   23.1880   41.9510 H   0  0  0  0  0  0  0  0  0  0  0  0
   39.0340   25.0980   42.0350 O   0  0  0  0  0  0  0  0  0  0  0  0
  1  2  1  0  0  0  0
  2  3  2  0  0  0  0
  2  7  1  0  0  0  0
  3  8  1  0  0  0  0
  4  3  1  0  0  0  0
  5  4  2  0  0  0  0
  6  5  1  0  0  0  0
  6  1  2  0  0  0  0
  9 14  1  0  0  0  0
  9  5  1  0  0  0  0
 10  9  2  0  0  0  0
 11 12  2  0  0  0  0
 11 10  1  0  0  0  0
 12 13  1  0  0  0  0
 13 18  1  0  0  0  0
 13 14  2  0  0  0  0
 15 10  1  0  0  0  0
 16 11  1  0  0  0  0
 17 12  1  0  0  0  0
 19  1  1  0  0  0  0
 19 20  2  0  0  0  0
 20 21  1  0  0  0  0
 22 23  1  0  0  0  0
 22 20  1  0  0  0  0
 24 22  2  0  0  0  0
 25 24  1  0  0  0  0
 26 24  1  0  0  0  0
 26 19  1  0  0  0  0
M  END
>  <minimizedAffinity>
-4.6057806

$$$$

 OpenBabel03252507273D

 26 28  0  0  0  0  0  0  0  0999 V2000
   38.9990   31.9840   39.6090 C   0  0  0  0  0  0  0  0  0  0  0  0
   37.7310   32.5850   39.5270 C   0  0  0  0  0  0  0  0  0  0  0  0
   36.7060   32.0500   40.3080 C   0  0  0  0  0  0  0  0  0  0  0  0
   36.9790   30.9710   41.1140 N   0  0  0  0  0  0  0  0  0  0  0  0
   38.2190   30.4300   41.1550 C   0  0  0  0  0  0  0  0  0  0  0  0
   39.2250   30.9230   40.4150 N   0  0  0  0  0  0  0  0  0  0  0  0
   37.5940   33.4370   38.8640 H   0  0  0  0  0  0  0  0  0  0  0  0
   35.7200   32.4950   40.2620 H   0  0  0  0  0  0  0  0  0  0  0  0
   38.4550   29.2920   42.0230 C   0  0  0  0  0  0  0  0  0  0  0  0
   37.3830   28.5950   42.5670 C   0  0  0  0  0  0  0  0  0  0  0  0
   37.4860   27.5010   43.4030 C   0  0  0  0  0  0  0  0  0  0  0  0
   38.7950   27.1220   43.6800 C   0  0  0  0  0  0  0  0  0  0  0  0
   39.8770   27.8050   43.1450 C   0  0  0  0  0  0  0  0  0  0  0  0
   39.6920   28.8790   42.3260 N   0  0  0  0  0  0  0  0  0  0  0  0
   36.3970   28.9540   42.3030 H   0  0  0  0  0  0  0  0  0  0  0  0
   36.6050   27.0090   43.7890 H   0  0  0  0  0  0  0  0  0  0  0  0
   38.9500   26.2710   44.3280 H   0  0  0  0  0  0  0  0  0  0  0  0
   40.8620   27.4400   43.4120 H   0  0  0  0  0  0  0  0  0  0  0  0
   40.1020   32.5090   38.8110 C   0  0  0  0  0  0  0  0  0  0  0  0
   40.8460   33.6400   39.1180 C   0  0  0  0  0  0  0  0  0  0  0  0
   40.7460   34.3070   39.9690 H   0  0  0  0  0  0  0  0  0  0  0  0
   41.7970   33.8190   38.1320 C   0  0  0  0  0  0  0  0  0  0  0  0
   42.5600   34.5660   37.9980 H   0  0  0  0  0  0  0  0  0  0  0  0
   41.5970   32.7900   37.2600 C   0  0  0  0  0  0  0  0  0  0  0  0
   42.0650   32.4870   36.3470 H   0  0  0  0  0  0  0  0  0  0  0  0
   40.6130   32.0510   37.6760 O   0  0  0  0  0  0  0  0  0  0  0  0
  1  6  1  0  0  0  0
  2  1  2  0  0  0  0
  2  3  1  0  0  0  0
  3  4  2  0  0  0  0
  4  5  1  0  0  0  0
  5  9  1  0  0  0  0
  6  5  2  0  0  0  0
  7  2  1  0  0  0  0
  8  3  1  0  0  0  0
  9 14  2  0  0  0  0
  9 10  1  0  0  0  0
 10 11  2  0  0  0  0
 11 12  1  0  0  0  0
 11 16  1  0  0  0  0
 12 17  1  0  0  0  0
 13 18  1  0  0  0  0
 13 12  2  0  0  0  0
 14 13  1  0  0  0  0
 15 10  1  0  0  0  0
 19 20  2  0  0  0  0
 19  1  1  0  0  0  0
 20 21  1  0  0  0  0
 22 20  1  0  0  0  0
 23 22  1  0  0  0  0
 24 26  1  0  0  0  0
 24 22  2  0  0  0  0
 25 24  1  0  0  0  0
 26 19  1  0  0  0  0
M  END
>  <minimizedAffinity>
-4.59379911

$$$$
