
 OpenBabel03242513143D

 29 31  0  0  0  0  0  0  0  0999 V2000
   44.8340   30.5900   47.9960 Cl  0  0  0  0  0  0  0  0  0  0  0  0
   46.0840   29.9450   46.9410 C   0  0  0  0  0  0  0  0  0  0  0  0
   47.0510   30.7820   46.4500 C   0  0  0  0  0  0  0  0  0  0  0  0
   48.0320   30.2360   45.6630 C   0  0  0  0  0  0  0  0  0  0  0  0
   48.0360   28.8880   45.3790 C   0  0  0  0  0  0  0  0  0  0  0  0
   47.0550   28.0430   45.8740 C   0  0  0  0  0  0  0  0  0  0  0  0
   46.0670   28.6080   46.6720 C   0  0  0  0  0  0  0  0  0  0  0  0
   48.8650   30.7360   45.2170 H   0  0  0  0  0  0  0  0  0  0  0  0
   48.8040   28.4100   44.7520 H   0  0  0  0  0  0  0  0  0  0  0  0
   47.1080   26.9800   45.6160 H   0  0  0  0  0  0  0  0  0  0  0  0
   45.0740   27.6370   47.1380 C   0  0  0  0  0  0  0  0  0  0  0  0
   43.9840   27.0900   46.5030 C   0  0  0  0  0  0  0  0  0  0  0  0
   43.6090   27.2420   45.5280 H   0  0  0  0  0  0  0  0  0  0  0  0
   43.2980   26.2030   47.3000 C   0  0  0  0  0  0  0  0  0  0  0  0
   42.4180   25.6020   47.1400 H   0  0  0  0  0  0  0  0  0  0  0  0
   44.0390   26.2460   48.4580 C   0  0  0  0  0  0  0  0  0  0  0  0
   43.9030   25.7100   49.4130 H   0  0  0  0  0  0  0  0  0  0  0  0
   45.0310   27.0690   48.3190 O   0  0  0  0  0  0  0  0  0  0  0  0
   46.9830   32.2000   46.7540 C   0  0  0  0  0  0  0  0  0  0  0  0
   47.4240   32.5660   47.8780 O   0  0  0  0  0  0  0  0  0  0  0  0
   44.8670   34.7900   45.3570 C   0  0  0  0  0  0  0  0  0  0  0  0
   45.3210   34.9860   44.0470 C   0  0  0  0  0  0  0  0  0  0  0  0
   46.3880   34.1850   43.6680 C   0  0  0  0  0  0  0  0  0  0  0  0
   46.9090   33.2880   44.5700 N   0  0  0  0  0  0  0  0  0  0  0  0
   46.4320   33.1480   45.8070 C   0  0  0  0  0  0  0  0  0  0  0  0
   45.4020   33.9130   46.1870 N   0  0  0  0  0  0  0  0  0  0  0  0
   44.0310   35.3810   45.7330 H   0  0  0  0  0  0  0  0  0  0  0  0
   44.8710   35.7050   43.3880 H   0  0  0  0  0  0  0  0  0  0  0  0
   46.8070   34.2640   42.6760 H   0  0  0  0  0  0  0  0  0  0  0  0
  2  1  1  0  0  0  0
  3 19  1  0  0  0  0
  3  2  2  0  0  0  0
  4  3  1  0  0  0  0
  5  4  2  0  0  0  0
  5  6  1  0  0  0  0
  6  7  2  0  0  0  0
  7  2  1  0  0  0  0
  7 11  1  0  0  0  0
  8  4  1  0  0  0  0
  9  5  1  0  0  0  0
 10  6  1  0  0  0  0
 11 18  1  0  0  0  0
 12 11  2  0  0  0  0
 12 14  1  0  0  0  0
 13 12  1  0  0  0  0
 14 16  2  0  0  0  0
 15 14  1  0  0  0  0
 16 17  1  0  0  0  0
 18 16  1  0  0  0  0
 19 20  2  0  0  0  0
 21 27  1  0  0  0  0
 21 26  1  0  0  0  0
 22 21  2  0  0  0  0
 23 22  1  0  0  0  0
 23 24  2  0  0  0  0
 24 25  1  0  0  0  0
 25 26  2  0  0  0  0
 25 19  1  0  0  0  0
 28 22  1  0  0  0  0
 29 23  1  0  0  0  0
M  END
>  <minimizedAffinity>
-4.6779089

>  <minimizedRMSD>
1.79006958

$$$$
