
 OpenBabel03252508393D

 40 43  0  0  0  0  0  0  0  0999 V2000
   45.1600   33.9570   40.6990 C   0  0  0  0  0  0  0  0  0  0  0  0
   44.1080   33.6340   39.8860 C   0  0  0  0  0  0  0  0  0  0  0  0
   44.4110   33.1360   38.6540 C   0  0  0  0  0  0  0  0  0  0  0  0
   45.6890   32.9430   38.1890 C   0  0  0  0  0  0  0  0  0  0  0  0
   46.7250   33.2760   39.0300 C   0  0  0  0  0  0  0  0  0  0  0  0
   46.4740   33.7820   40.2830 C   0  0  0  0  0  0  0  0  0  0  0  0
   43.5760   32.8760   37.9970 H   0  0  0  0  0  0  0  0  0  0  0  0
   45.8610   32.5420   37.1930 H   0  0  0  0  0  0  0  0  0  0  0  0
   47.7200   33.1120   38.6340 H   0  0  0  0  0  0  0  0  0  0  0  0
   40.8250   35.2630   40.7910 C   0  0  0  0  0  0  0  0  0  0  0  0
   42.1230   35.0850   40.2740 C   0  0  0  0  0  0  0  0  0  0  0  0
   42.7790   33.8490   40.4040 C   0  0  0  0  0  0  0  0  0  0  0  0
   42.0690   32.8960   41.0430 N   0  0  0  0  0  0  0  0  0  0  0  0
   40.8380   33.0780   41.5280 C   0  0  0  0  0  0  0  0  0  0  0  0
   40.2180   34.2480   41.4060 N   0  0  0  0  0  0  0  0  0  0  0  0
   40.2220   36.5230   40.6300 N   0  0  0  0  0  0  0  0  0  0  0  0
   42.6520   35.8900   39.7650 H   0  0  0  0  0  0  0  0  0  0  0  0
   40.3770   32.2310   42.0210 H   0  0  0  0  0  0  0  0  0  0  0  0
   40.7610   37.3430   41.0290 H   0  0  0  0  0  0  0  0  0  0  0  0
   39.2970   36.5350   40.1310 H   0  0  0  0  0  0  0  0  0  0  0  0
   47.6290   34.1070   41.1030 C   0  0  0  0  0  0  0  0  0  0  0  0
   48.1470   35.3730   40.9380 C   0  0  0  0  0  0  0  0  0  0  0  0
   49.2490   35.8530   41.6410 C   0  0  0  0  0  0  0  0  0  0  0  0
   49.8490   35.0000   42.5530 C   0  0  0  0  0  0  0  0  0  0  0  0
   49.3540   33.7340   42.7370 C   0  0  0  0  0  0  0  0  0  0  0  0
   48.2540   33.2870   42.0210 C   0  0  0  0  0  0  0  0  0  0  0  0
   47.7280   36.0880   40.2450 H   0  0  0  0  0  0  0  0  0  0  0  0
   49.6440   36.8520   41.5000 H   0  0  0  0  0  0  0  0  0  0  0  0
   50.7060   35.2990   43.1350 H   0  0  0  0  0  0  0  0  0  0  0  0
   49.7450   32.9880   43.4230 H   0  0  0  0  0  0  0  0  0  0  0  0
   47.6780   31.9520   42.1690 C   0  0  0  0  0  0  0  0  0  0  0  0
   46.9540   31.7370   43.3440 C   0  0  0  0  0  0  0  0  0  0  0  0
   46.7140   32.3620   44.2050 H   0  0  0  0  0  0  0  0  0  0  0  0
   46.4860   30.4250   43.3130 C   0  0  0  0  0  0  0  0  0  0  0  0
   45.8860   29.8360   44.0070 H   0  0  0  0  0  0  0  0  0  0  0  0
   46.9650   29.9280   42.1030 C   0  0  0  0  0  0  0  0  0  0  0  0
   46.8580   28.9520   41.6360 H   0  0  0  0  0  0  0  0  0  0  0  0
   47.6540   30.8480   41.4680 O   0  0  0  0  0  0  0  0  0  0  0  0
   44.7570   34.9150   43.1010 N   0  0  0  0  0  0  0  0  0  0  0  0
   44.9360   34.4880   42.0180 C   0  0  0  0  0  0  0  0  0  0  0  0
  1 40  1  0  0  0  0
  2 12  1  0  0  0  0
  2  1  2  0  0  0  0
  3  2  1  0  0  0  0
  4  3  2  0  0  0  0
  4  5  1  0  0  0  0
  5  6  2  0  0  0  0
  6  1  1  0  0  0  0
  6 21  1  0  0  0  0
  7  3  1  0  0  0  0
  8  4  1  0  0  0  0
  9  5  1  0  0  0  0
 10 15  1  0  0  0  0
 11 12  1  0  0  0  0
 11 10  2  0  0  0  0
 12 13  2  0  0  0  0
 13 14  1  0  0  0  0
 14 18  1  0  0  0  0
 15 14  2  0  0  0  0
 16 10  1  0  0  0  0
 16 19  1  0  0  0  0
 17 11  1  0  0  0  0
 20 16  1  0  0  0  0
 21 26  1  0  0  0  0
 22 21  2  0  0  0  0
 22 23  1  0  0  0  0
 23 24  2  0  0  0  0
 24 25  1  0  0  0  0
 24 29  1  0  0  0  0
 25 30  1  0  0  0  0
 26 31  1  0  0  0  0
 26 25  2  0  0  0  0
 27 22  1  0  0  0  0
 28 23  1  0  0  0  0
 31 32  2  0  0  0  0
 32 33  1  0  0  0  0
 34 32  1  0  0  0  0
 34 35  1  0  0  0  0
 36 34  2  0  0  0  0
 37 36  1  0  0  0  0
 38 36  1  0  0  0  0
 38 31  1  0  0  0  0
 40 39  3  0  0  0  0
M  END
>  <minimizedAffinity>
-5.9530983

>  <minimizedRMSD>
0.0680751503

$$$$
