
 OpenBabel03242512373D

 33 36  0  0  0  0  0  0  0  0999 V2000
   47.6080   35.0760   42.0380 C   0  0  0  0  0  0  0  0  0  0  0  0
   48.7310   35.6510   42.1020 O   0  0  0  0  0  0  0  0  0  0  0  0
   46.2080   33.6990   40.4430 C   0  0  0  0  0  0  0  0  0  0  0  0
   47.3580   34.4470   40.7270 C   0  0  0  0  0  0  0  0  0  0  0  0
   48.2970   34.6070   39.7320 C   0  0  0  0  0  0  0  0  0  0  0  0
   48.1840   34.0730   38.4540 C   0  0  0  0  0  0  0  0  0  0  0  0
   48.9500   34.1000   37.3610 N   0  0  0  0  0  0  0  0  0  0  0  0
   48.3610   33.4120   36.3840 C   0  0  0  0  0  0  0  0  0  0  0  0
   47.1650   32.9230   36.8760 C   0  0  0  0  0  0  0  0  0  0  0  0
   47.0330   33.3350   38.1980 C   0  0  0  0  0  0  0  0  0  0  0  0
   46.0800   33.1590   39.1710 C   0  0  0  0  0  0  0  0  0  0  0  0
   45.4840   33.5780   41.2170 H   0  0  0  0  0  0  0  0  0  0  0  0
   49.2330   35.1770   39.8620 H   0  0  0  0  0  0  0  0  0  0  0  0
   49.8780   34.5800   37.2510 H   0  0  0  0  0  0  0  0  0  0  0  0
   48.7040   33.2290   35.3640 H   0  0  0  0  0  0  0  0  0  0  0  0
   46.4140   32.3190   36.3730 H   0  0  0  0  0  0  0  0  0  0  0  0
   45.2130   32.5820   38.9230 H   0  0  0  0  0  0  0  0  0  0  0  0
   46.6320   34.9990   43.0770 C   0  0  0  0  0  0  0  0  0  0  0  0
   45.5500   35.8800   42.9480 C   0  0  0  0  0  0  0  0  0  0  0  0
   44.5820   35.8110   43.9690 C   0  0  0  0  0  0  0  0  0  0  0  0
   44.7530   34.9180   44.9870 N   0  0  0  0  0  0  0  0  0  0  0  0
   45.8220   34.0950   45.0510 C   0  0  0  0  0  0  0  0  0  0  0  0
   46.7630   34.1470   44.0780 N   0  0  0  0  0  0  0  0  0  0  0  0
   45.4170   36.5860   42.1410 H   0  0  0  0  0  0  0  0  0  0  0  0
   43.7140   36.4280   43.9830 H   0  0  0  0  0  0  0  0  0  0  0  0
   45.9220   33.1720   46.1780 C   0  0  0  0  0  0  0  0  0  0  0  0
   46.8710   32.1560   46.2890 C   0  0  0  0  0  0  0  0  0  0  0  0
   47.6670   31.8720   45.6080 H   0  0  0  0  0  0  0  0  0  0  0  0
   46.6460   31.5030   47.4850 C   0  0  0  0  0  0  0  0  0  0  0  0
   47.1340   30.6660   47.9720 H   0  0  0  0  0  0  0  0  0  0  0  0
   45.5670   32.1460   48.0570 C   0  0  0  0  0  0  0  0  0  0  0  0
   45.0120   32.0180   48.9750 H   0  0  0  0  0  0  0  0  0  0  0  0
   45.1760   33.1140   47.2590 O   0  0  0  0  0  0  0  0  0  0  0  0
  1  2  2  0  0  0  0
  1 18  1  0  0  0  0
  3  4  1  0  0  0  0
  3 12  1  0  0  0  0
  4  1  1  0  0  0  0
  5 13  1  0  0  0  0
  5  4  2  0  0  0  0
  6  5  1  0  0  0  0
  7  6  1  0  0  0  0
  8  9  2  0  0  0  0
  8  7  1  0  0  0  0
  9 10  1  0  0  0  0
 10  6  2  0  0  0  0
 10 11  1  0  0  0  0
 11  3  2  0  0  0  0
 14  7  1  0  0  0  0
 15  8  1  0  0  0  0
 16  9  1  0  0  0  0
 17 11  1  0  0  0  0
 18 23  1  0  0  0  0
 19 18  2  0  0  0  0
 19 20  1  0  0  0  0
 20 25  1  0  0  0  0
 20 21  2  0  0  0  0
 21 22  1  0  0  0  0
 22 26  1  0  0  0  0
 23 22  2  0  0  0  0
 24 19  1  0  0  0  0
 26 27  2  0  0  0  0
 26 33  1  0  0  0  0
 27 29  1  0  0  0  0
 28 27  1  0  0  0  0
 29 30  1  0  0  0  0
 29 31  2  0  0  0  0
 31 32  1  0  0  0  0
 33 31  1  0  0  0  0
M  END
>  <minimizedAffinity>
-6.38144684

>  <minimizedRMSD>
0.660917819

$$$$
