
 OpenBabel03242515063D

 38 40  0  0  0  0  0  0  0  0999 V2000
   37.9540   31.3100   38.8620 C   0  0  0  0  0  0  0  0  0  0  0  0
   38.9890   30.7480   38.1160 C   0  0  0  0  0  0  0  0  0  0  0  0
   40.2330   31.4000   38.0820 C   0  0  0  0  0  0  0  0  0  0  0  0
   40.3440   32.5440   38.7840 N   0  0  0  0  0  0  0  0  0  0  0  0
   39.3340   33.0730   39.5010 C   0  0  0  0  0  0  0  0  0  0  0  0
   38.1630   32.4470   39.5250 N   0  0  0  0  0  0  0  0  0  0  0  0
   38.9140   29.8430   37.5550 H   0  0  0  0  0  0  0  0  0  0  0  0
   41.3540   30.8600   37.3190 C   0  0  0  0  0  0  0  0  0  0  0  0
   42.4440   31.6080   36.9240 C   0  0  0  0  0  0  0  0  0  0  0  0
   42.6480   32.6540   37.0990 H   0  0  0  0  0  0  0  0  0  0  0  0
   43.2220   30.6660   36.2390 C   0  0  0  0  0  0  0  0  0  0  0  0
   44.1760   30.8570   35.7680 H   0  0  0  0  0  0  0  0  0  0  0  0
   42.5710   29.4320   36.2590 C   0  0  0  0  0  0  0  0  0  0  0  0
   42.8710   28.4830   35.8330 H   0  0  0  0  0  0  0  0  0  0  0  0
   41.4510   29.6230   36.9270 O   0  0  0  0  0  0  0  0  0  0  0  0
   39.5860   34.3110   40.2140 C   0  0  0  0  0  0  0  0  0  0  0  0
   40.4360   35.0980   39.7440 O   0  0  0  0  0  0  0  0  0  0  0  0
   38.8310   34.5410   41.4170 N   0  0  0  0  0  0  0  0  0  0  0  0
   38.0460   35.2060   41.6020 H   0  0  0  0  0  0  0  0  0  0  0  0
   39.1100   33.9520   42.2290 H   0  0  0  0  0  0  0  0  0  0  0  0
   36.4060   30.4200   38.8490 S   0  0  0  0  0  0  0  0  0  0  0  0
   35.8570   29.9570   40.4970 C   0  0  0  0  0  0  0  0  0  0  0  0
   34.8530   30.4130   40.6550 H   0  0  0  0  0  0  0  0  0  0  0  0
   36.6010   30.3900   41.2230 H   0  0  0  0  0  0  0  0  0  0  0  0
   35.7560   28.4870   40.7170 C   0  0  0  0  0  0  0  0  0  0  0  0
   35.7130   27.9080   39.7700 H   0  0  0  0  0  0  0  0  0  0  0  0
   34.7870   28.2820   41.2440 H   0  0  0  0  0  0  0  0  0  0  0  0
   38.0820   27.2210   39.2330 Cl  0  0  0  0  0  0  0  0  0  0  0  0
   38.0010   27.3910   40.9560 C   0  0  0  0  0  0  0  0  0  0  0  0
   36.8790   27.9910   41.5360 C   0  0  0  0  0  0  0  0  0  0  0  0
   36.8890   28.0910   42.9120 C   0  0  0  0  0  0  0  0  0  0  0  0
   37.8930   27.6580   43.7710 C   0  0  0  0  0  0  0  0  0  0  0  0
   38.9840   27.0710   43.1570 C   0  0  0  0  0  0  0  0  0  0  0  0
   40.3120   26.4880   44.1610 Cl  0  0  0  0  0  0  0  0  0  0  0  0
   39.0300   26.9440   41.7880 C   0  0  0  0  0  0  0  0  0  0  0  0
   36.0180   28.5560   43.3590 H   0  0  0  0  0  0  0  0  0  0  0  0
   37.7960   27.7870   44.8310 H   0  0  0  0  0  0  0  0  0  0  0  0
   39.8970   26.4800   41.3330 H   0  0  0  0  0  0  0  0  0  0  0  0
  1  6  1  0  0  0  0
  2  1  2  0  0  0  0
  3  2  1  0  0  0  0
  3  4  2  0  0  0  0
  4  5  1  0  0  0  0
  5  6  2  0  0  0  0
  5 16  1  0  0  0  0
  7  2  1  0  0  0  0
  8  3  1  0  0  0  0
  9 10  1  0  0  0  0
  9  8  2  0  0  0  0
 11 13  2  0  0  0  0
 11  9  1  0  0  0  0
 12 11  1  0  0  0  0
 13 15  1  0  0  0  0
 14 13  1  0  0  0  0
 15  8  1  0  0  0  0
 16 18  1  0  0  0  0
 17 16  2  0  0  0  0
 18 19  1  0  0  0  0
 18 20  1  0  0  0  0
 21  1  1  0  0  0  0
 21 22  1  0  0  0  0
 22 23  1  0  0  0  0
 22 25  1  0  0  0  0
 22 24  1  0  0  0  0
 25 27  1  0  0  0  0
 25 30  1  0  0  0  0
 26 25  1  0  0  0  0
 28 29  1  0  0  0  0
 29 30  2  0  0  0  0
 29 35  1  0  0  0  0
 30 31  1  0  0  0  0
 31 36  1  0  0  0  0
 31 32  2  0  0  0  0
 32 37  1  0  0  0  0
 33 32  1  0  0  0  0
 33 34  1  0  0  0  0
 35 33  2  0  0  0  0
 38 35  1  0  0  0  0
M  END
>  <minimizedAffinity>
-5.87954569

$$$$

 OpenBabel03242515063D

 38 40  0  0  0  0  0  0  0  0999 V2000
   38.6400   30.2570   40.9010 C   0  0  0  0  0  0  0  0  0  0  0  0
   37.4830   29.7350   40.3230 C   0  0  0  0  0  0  0  0  0  0  0  0
   37.1740   30.0750   38.9950 C   0  0  0  0  0  0  0  0  0  0  0  0
   38.0310   30.8990   38.3600 N   0  0  0  0  0  0  0  0  0  0  0  0
   39.1440   31.3930   38.9330 C   0  0  0  0  0  0  0  0  0  0  0  0
   39.4250   31.0630   40.1880 N   0  0  0  0  0  0  0  0  0  0  0  0
   36.7970   29.0830   40.8160 H   0  0  0  0  0  0  0  0  0  0  0  0
   35.9780   29.5610   38.3370 C   0  0  0  0  0  0  0  0  0  0  0  0
   34.8890   29.0520   39.0140 C   0  0  0  0  0  0  0  0  0  0  0  0
   34.7380   28.9520   40.0790 H   0  0  0  0  0  0  0  0  0  0  0  0
   34.0250   28.6980   37.9710 C   0  0  0  0  0  0  0  0  0  0  0  0
   33.0440   28.2560   38.0840 H   0  0  0  0  0  0  0  0  0  0  0  0
   34.6280   29.0060   36.7510 C   0  0  0  0  0  0  0  0  0  0  0  0
   34.2610   28.8720   35.7410 H   0  0  0  0  0  0  0  0  0  0  0  0
   35.8040   29.5230   37.0480 O   0  0  0  0  0  0  0  0  0  0  0  0
   39.9830   32.2690   38.1360 C   0  0  0  0  0  0  0  0  0  0  0  0
   40.8310   32.9720   38.7280 O   0  0  0  0  0  0  0  0  0  0  0  0
   39.7730   32.2610   36.7120 N   0  0  0  0  0  0  0  0  0  0  0  0
   40.3650   31.8640   35.9480 H   0  0  0  0  0  0  0  0  0  0  0  0
   38.8960   32.7220   36.3960 H   0  0  0  0  0  0  0  0  0  0  0  0
   38.9570   29.7770   42.5910 S   0  0  0  0  0  0  0  0  0  0  0  0
   37.5600   28.9360   43.3480 C   0  0  0  0  0  0  0  0  0  0  0  0
   36.8050   28.7550   42.5490 H   0  0  0  0  0  0  0  0  0  0  0  0
   37.1430   29.6310   44.1290 H   0  0  0  0  0  0  0  0  0  0  0  0
   37.9030   27.6330   43.9850 C   0  0  0  0  0  0  0  0  0  0  0  0
   37.1480   27.3010   44.7290 H   0  0  0  0  0  0  0  0  0  0  0  0
   38.8570   27.7700   44.5600 H   0  0  0  0  0  0  0  0  0  0  0  0
   40.5650   26.1740   43.9880 Cl  0  0  0  0  0  0  0  0  0  0  0  0
   39.2710   25.8390   42.8860 C   0  0  0  0  0  0  0  0  0  0  0  0
   38.0850   26.5750   42.9730 C   0  0  0  0  0  0  0  0  0  0  0  0
   37.1020   26.2490   42.0620 C   0  0  0  0  0  0  0  0  0  0  0  0
   37.1720   25.2730   41.0730 C   0  0  0  0  0  0  0  0  0  0  0  0
   38.3620   24.5690   41.0210 C   0  0  0  0  0  0  0  0  0  0  0  0
   38.5510   23.3090   39.8020 Cl  0  0  0  0  0  0  0  0  0  0  0  0
   39.3780   24.8500   41.9060 C   0  0  0  0  0  0  0  0  0  0  0  0
   36.1830   26.8200   42.1310 H   0  0  0  0  0  0  0  0  0  0  0  0
   36.3440   25.1030   40.4150 H   0  0  0  0  0  0  0  0  0  0  0  0
   40.3000   24.2830   41.8420 H   0  0  0  0  0  0  0  0  0  0  0  0
  1 21  1  0  0  0  0
  2  7  1  0  0  0  0
  2  1  1  0  0  0  0
  3  2  2  0  0  0  0
  4  5  2  0  0  0  0
  4  3  1  0  0  0  0
  5  6  1  0  0  0  0
  6  1  2  0  0  0  0
  8  3  1  0  0  0  0
  8  9  2  0  0  0  0
  9 10  1  0  0  0  0
 11 12  1  0  0  0  0
 11  9  1  0  0  0  0
 13 15  1  0  0  0  0
 13 11  2  0  0  0  0
 14 13  1  0  0  0  0
 15  8  1  0  0  0  0
 16 17  2  0  0  0  0
 16  5  1  0  0  0  0
 18 16  1  0  0  0  0
 19 18  1  0  0  0  0
 20 18  1  0  0  0  0
 21 22  1  0  0  0  0
 22 25  1  0  0  0  0
 22 24  1  0  0  0  0
 23 22  1  0  0  0  0
 25 27  1  0  0  0  0
 25 26  1  0  0  0  0
 29 30  1  0  0  0  0
 29 28  1  0  0  0  0
 30 25  1  0  0  0  0
 31 36  1  0  0  0  0
 31 30  2  0  0  0  0
 32 31  1  0  0  0  0
 33 32  2  0  0  0  0
 33 35  1  0  0  0  0
 34 33  1  0  0  0  0
 35 29  2  0  0  0  0
 37 32  1  0  0  0  0
 38 35  1  0  0  0  0
M  END
>  <minimizedAffinity>
-5.86010742

$$$$

 OpenBabel03242515063D

 38 40  0  0  0  0  0  0  0  0999 V2000
   37.4370   30.4840   40.9490 C   0  0  0  0  0  0  0  0  0  0  0  0
   38.6300   30.1360   41.5820 C   0  0  0  0  0  0  0  0  0  0  0  0
   39.6370   31.1070   41.7120 C   0  0  0  0  0  0  0  0  0  0  0  0
   39.3770   32.3290   41.2080 N   0  0  0  0  0  0  0  0  0  0  0  0
   38.2190   32.6480   40.6010 C   0  0  0  0  0  0  0  0  0  0  0  0
   37.2740   31.7210   40.4840 N   0  0  0  0  0  0  0  0  0  0  0  0
   38.8470   29.1720   41.9850 H   0  0  0  0  0  0  0  0  0  0  0  0
   40.9060   30.8030   42.3640 C   0  0  0  0  0  0  0  0  0  0  0  0
   41.4430   29.5350   42.4430 C   0  0  0  0  0  0  0  0  0  0  0  0
   41.0460   28.6050   42.0630 H   0  0  0  0  0  0  0  0  0  0  0  0
   42.6360   29.7560   43.1420 C   0  0  0  0  0  0  0  0  0  0  0  0
   43.3600   29.0000   43.4140 H   0  0  0  0  0  0  0  0  0  0  0  0
   42.7480   31.1150   43.4390 C   0  0  0  0  0  0  0  0  0  0  0  0
   43.5300   31.6480   43.9650 H   0  0  0  0  0  0  0  0  0  0  0  0
   41.6700   31.6850   42.9390 O   0  0  0  0  0  0  0  0  0  0  0  0
   38.0660   34.0020   40.1030 C   0  0  0  0  0  0  0  0  0  0  0  0
   38.8670   34.8720   40.5070 O   0  0  0  0  0  0  0  0  0  0  0  0
   36.9950   34.2430   39.1710 N   0  0  0  0  0  0  0  0  0  0  0  0
   37.0270   34.4280   38.1430 H   0  0  0  0  0  0  0  0  0  0  0  0
   36.0420   34.2290   39.5880 H   0  0  0  0  0  0  0  0  0  0  0  0
   36.2120   29.1910   40.8230 S   0  0  0  0  0  0  0  0  0  0  0  0
   36.9230   27.6000   40.3830 C   0  0  0  0  0  0  0  0  0  0  0  0
   37.9900   27.7740   40.1130 H   0  0  0  0  0  0  0  0  0  0  0  0
   36.3510   27.2220   39.4890 H   0  0  0  0  0  0  0  0  0  0  0  0
   36.8630   26.5820   41.4690 C   0  0  0  0  0  0  0  0  0  0  0  0
   36.5240   25.5860   41.1130 H   0  0  0  0  0  0  0  0  0  0  0  0
   36.0950   26.9170   42.2150 H   0  0  0  0  0  0  0  0  0  0  0  0
   37.1520   27.8610   44.2060 Cl  0  0  0  0  0  0  0  0  0  0  0  0
   38.4130   26.9860   43.4010 C   0  0  0  0  0  0  0  0  0  0  0  0
   38.1710   26.4370   42.1380 C   0  0  0  0  0  0  0  0  0  0  0  0
   39.2230   25.7550   41.5630 C   0  0  0  0  0  0  0  0  0  0  0  0
   40.4880   25.5620   42.1070 C   0  0  0  0  0  0  0  0  0  0  0  0
   40.6850   26.1220   43.3560 C   0  0  0  0  0  0  0  0  0  0  0  0
   42.2580   25.9320   44.1330 Cl  0  0  0  0  0  0  0  0  0  0  0  0
   39.6720   26.8130   43.9800 C   0  0  0  0  0  0  0  0  0  0  0  0
   39.0330   25.3300   40.5840 H   0  0  0  0  0  0  0  0  0  0  0  0
   41.2350   25.0130   41.5690 H   0  0  0  0  0  0  0  0  0  0  0  0
   39.8540   27.2410   44.9590 H   0  0  0  0  0  0  0  0  0  0  0  0
  1  2  1  0  0  0  0
  2  3  2  0  0  0  0
  2  7  1  0  0  0  0
  3  8  1  0  0  0  0
  4  3  1  0  0  0  0
  5  4  2  0  0  0  0
  6  5  1  0  0  0  0
  6  1  2  0  0  0  0
  8  9  2  0  0  0  0
  8 15  1  0  0  0  0
  9 11  1  0  0  0  0
 10  9  1  0  0  0  0
 11 12  1  0  0  0  0
 11 13  2  0  0  0  0
 13 14  1  0  0  0  0
 15 13  1  0  0  0  0
 16 17  2  0  0  0  0
 16  5  1  0  0  0  0
 18 20  1  0  0  0  0
 18 16  1  0  0  0  0
 19 18  1  0  0  0  0
 21  1  1  0  0  0  0
 22 21  1  0  0  0  0
 22 25  1  0  0  0  0
 23 22  1  0  0  0  0
 24 22  1  0  0  0  0
 25 30  1  0  0  0  0
 25 27  1  0  0  0  0
 26 25  1  0  0  0  0
 29 35  1  0  0  0  0
 29 28  1  0  0  0  0
 30 29  2  0  0  0  0
 31 32  2  0  0  0  0
 31 30  1  0  0  0  0
 32 33  1  0  0  0  0
 33 35  2  0  0  0  0
 33 34  1  0  0  0  0
 35 38  1  0  0  0  0
 36 31  1  0  0  0  0
 37 32  1  0  0  0  0
M  END
>  <minimizedAffinity>
-5.8212533

$$$$

 OpenBabel03242515063D

 38 40  0  0  0  0  0  0  0  0999 V2000
   39.9830   30.9720   41.6570 C   0  0  0  0  0  0  0  0  0  0  0  0
   38.9050   30.2210   41.1890 C   0  0  0  0  0  0  0  0  0  0  0  0
   37.8640   30.8780   40.5100 C   0  0  0  0  0  0  0  0  0  0  0  0
   37.9800   32.2110   40.3550 N   0  0  0  0  0  0  0  0  0  0  0  0
   39.0290   32.9200   40.8130 C   0  0  0  0  0  0  0  0  0  0  0  0
   40.0060   32.2890   41.4530 N   0  0  0  0  0  0  0  0  0  0  0  0
   38.8020   29.1660   41.3050 H   0  0  0  0  0  0  0  0  0  0  0  0
   36.7110   30.1460   39.9980 C   0  0  0  0  0  0  0  0  0  0  0  0
   35.7630   29.5490   40.8020 C   0  0  0  0  0  0  0  0  0  0  0  0
   35.7090   29.5190   41.8810 H   0  0  0  0  0  0  0  0  0  0  0  0
   34.8840   28.9900   39.8660 C   0  0  0  0  0  0  0  0  0  0  0  0
   33.9900   28.4250   40.0960 H   0  0  0  0  0  0  0  0  0  0  0  0
   35.3420   29.2750   38.5800 C   0  0  0  0  0  0  0  0  0  0  0  0
   34.9230   29.0050   37.6180 H   0  0  0  0  0  0  0  0  0  0  0  0
   36.4480   29.9750   38.7350 O   0  0  0  0  0  0  0  0  0  0  0  0
   39.0310   34.3520   40.5780 C   0  0  0  0  0  0  0  0  0  0  0  0
   38.0630   34.8500   39.9630 O   0  0  0  0  0  0  0  0  0  0  0  0
   40.1580   35.0970   41.0750 N   0  0  0  0  0  0  0  0  0  0  0  0
   40.2230   35.7590   41.8820 H   0  0  0  0  0  0  0  0  0  0  0  0
   41.0450   34.9540   40.5500 H   0  0  0  0  0  0  0  0  0  0  0  0
   41.2600   30.0620   42.5110 S   0  0  0  0  0  0  0  0  0  0  0  0
   41.1060   28.2840   42.2970 C   0  0  0  0  0  0  0  0  0  0  0  0
   42.1350   27.8570   42.2970 H   0  0  0  0  0  0  0  0  0  0  0  0
   40.6140   28.1160   41.2980 H   0  0  0  0  0  0  0  0  0  0  0  0
   40.3060   27.6070   43.3570 C   0  0  0  0  0  0  0  0  0  0  0  0
   39.8150   28.3200   44.0520 H   0  0  0  0  0  0  0  0  0  0  0  0
   41.0100   27.0020   43.9880 H   0  0  0  0  0  0  0  0  0  0  0  0
   37.4050   28.3390   43.8640 Cl  0  0  0  0  0  0  0  0  0  0  0  0
   37.9170   26.9650   42.9400 C   0  0  0  0  0  0  0  0  0  0  0  0
   39.2830   26.7210   42.7700 C   0  0  0  0  0  0  0  0  0  0  0  0
   39.6110   25.6090   42.0220 C   0  0  0  0  0  0  0  0  0  0  0  0
   38.7270   24.7150   41.4270 C   0  0  0  0  0  0  0  0  0  0  0  0
   37.3860   24.9920   41.6200 C   0  0  0  0  0  0  0  0  0  0  0  0
   36.1850   23.9170   40.9060 Cl  0  0  0  0  0  0  0  0  0  0  0  0
   36.9990   26.0880   42.3570 C   0  0  0  0  0  0  0  0  0  0  0  0
   40.6700   25.4220   41.8910 H   0  0  0  0  0  0  0  0  0  0  0  0
   39.0930   23.8790   40.8650 H   0  0  0  0  0  0  0  0  0  0  0  0
   35.9410   26.2820   42.4930 H   0  0  0  0  0  0  0  0  0  0  0  0
  1 21  1  0  0  0  0
  2  7  1  0  0  0  0
  2  1  2  0  0  0  0
  3  2  1  0  0  0  0
  4  3  2  0  0  0  0
  4  5  1  0  0  0  0
  5  6  2  0  0  0  0
  6  1  1  0  0  0  0
  8  3  1  0  0  0  0
  8  9  2  0  0  0  0
  9 10  1  0  0  0  0
 11 12  1  0  0  0  0
 11  9  1  0  0  0  0
 13 15  1  0  0  0  0
 13 11  2  0  0  0  0
 14 13  1  0  0  0  0
 15  8  1  0  0  0  0
 16  5  1  0  0  0  0
 16 18  1  0  0  0  0
 17 16  2  0  0  0  0
 18 19  1  0  0  0  0
 20 18  1  0  0  0  0
 22 23  1  0  0  0  0
 22 21  1  0  0  0  0
 22 25  1  0  0  0  0
 24 22  1  0  0  0  0
 25 27  1  0  0  0  0
 25 26  1  0  0  0  0
 29 28  1  0  0  0  0
 30 29  1  0  0  0  0
 30 25  1  0  0  0  0
 31 30  2  0  0  0  0
 32 33  2  0  0  0  0
 32 31  1  0  0  0  0
 33 35  1  0  0  0  0
 34 33  1  0  0  0  0
 35 38  1  0  0  0  0
 35 29  2  0  0  0  0
 36 31  1  0  0  0  0
 37 32  1  0  0  0  0
M  END
>  <minimizedAffinity>
-5.76482487

$$$$

 OpenBabel03242515063D

 38 40  0  0  0  0  0  0  0  0999 V2000
   41.1370   30.8830   39.8730 C   0  0  0  0  0  0  0  0  0  0  0  0
   40.0530   30.2340   39.2820 C   0  0  0  0  0  0  0  0  0  0  0  0
   38.8740   30.9620   39.0470 C   0  0  0  0  0  0  0  0  0  0  0  0
   38.8700   32.2580   39.4150 N   0  0  0  0  0  0  0  0  0  0  0  0
   39.9270   32.8680   39.9840 C   0  0  0  0  0  0  0  0  0  0  0  0
   41.0360   32.1700   40.2000 N   0  0  0  0  0  0  0  0  0  0  0  0
   40.0430   29.2100   38.9870 H   0  0  0  0  0  0  0  0  0  0  0  0
   37.7060   30.3380   38.4330 C   0  0  0  0  0  0  0  0  0  0  0  0
   36.5000   30.1640   39.0800 C   0  0  0  0  0  0  0  0  0  0  0  0
   36.2240   30.4410   40.0870 H   0  0  0  0  0  0  0  0  0  0  0  0
   35.7210   29.5390   38.0990 C   0  0  0  0  0  0  0  0  0  0  0  0
   34.6900   29.2300   38.2120 H   0  0  0  0  0  0  0  0  0  0  0  0
   36.4840   29.3740   36.9430 C   0  0  0  0  0  0  0  0  0  0  0  0
   36.2160   28.9320   35.9910 H   0  0  0  0  0  0  0  0  0  0  0  0
   37.6700   29.8790   37.2160 O   0  0  0  0  0  0  0  0  0  0  0  0
   39.7920   34.2700   40.3310 C   0  0  0  0  0  0  0  0  0  0  0  0
   40.5100   35.0980   39.7290 O   0  0  0  0  0  0  0  0  0  0  0  0
   38.8320   34.6040   41.3510 N   0  0  0  0  0  0  0  0  0  0  0  0
   37.9030   35.0750   41.2710 H   0  0  0  0  0  0  0  0  0  0  0  0
   39.1080   34.3340   42.3170 H   0  0  0  0  0  0  0  0  0  0  0  0
   42.5950   29.8870   40.1390 S   0  0  0  0  0  0  0  0  0  0  0  0
   42.2970   28.5010   41.2450 C   0  0  0  0  0  0  0  0  0  0  0  0
   43.2300   27.8940   41.2790 H   0  0  0  0  0  0  0  0  0  0  0  0
   41.4570   27.9000   40.7960 H   0  0  0  0  0  0  0  0  0  0  0  0
   41.9300   28.8960   42.6340 C   0  0  0  0  0  0  0  0  0  0  0  0
   42.0620   29.9810   42.8260 H   0  0  0  0  0  0  0  0  0  0  0  0
   42.6310   28.3740   43.3380 H   0  0  0  0  0  0  0  0  0  0  0  0
   41.5030   26.1480   43.8500 Cl  0  0  0  0  0  0  0  0  0  0  0  0
   40.2290   27.2720   43.5110 C   0  0  0  0  0  0  0  0  0  0  0  0
   40.5400   28.5140   42.9480 C   0  0  0  0  0  0  0  0  0  0  0  0
   39.4710   29.3540   42.7080 C   0  0  0  0  0  0  0  0  0  0  0  0
   38.1310   29.0910   42.9660 C   0  0  0  0  0  0  0  0  0  0  0  0
   37.8680   27.8520   43.5230 C   0  0  0  0  0  0  0  0  0  0  0  0
   36.1970   27.4230   43.8880 Cl  0  0  0  0  0  0  0  0  0  0  0  0
   38.8930   26.9730   43.7850 C   0  0  0  0  0  0  0  0  0  0  0  0
   39.7140   30.3160   42.2720 H   0  0  0  0  0  0  0  0  0  0  0  0
   37.3780   29.8200   42.7390 H   0  0  0  0  0  0  0  0  0  0  0  0
   38.6580   26.0090   44.2210 H   0  0  0  0  0  0  0  0  0  0  0  0
  1 21  1  0  0  0  0
  1  6  1  0  0  0  0
  2  1  2  0  0  0  0
  3  2  1  0  0  0  0
  3  4  2  0  0  0  0
  4  5  1  0  0  0  0
  5  6  2  0  0  0  0
  5 16  1  0  0  0  0
  7  2  1  0  0  0  0
  8  3  1  0  0  0  0
  8  9  2  0  0  0  0
  9 10  1  0  0  0  0
 11 12  1  0  0  0  0
 11  9  1  0  0  0  0
 13 15  1  0  0  0  0
 13 11  2  0  0  0  0
 14 13  1  0  0  0  0
 15  8  1  0  0  0  0
 16 18  1  0  0  0  0
 17 16  2  0  0  0  0
 18 20  1  0  0  0  0
 19 18  1  0  0  0  0
 21 22  1  0  0  0  0
 22 23  1  0  0  0  0
 22 25  1  0  0  0  0
 24 22  1  0  0  0  0
 25 26  1  0  0  0  0
 25 30  1  0  0  0  0
 25 27  1  0  0  0  0
 29 35  1  0  0  0  0
 29 28  1  0  0  0  0
 30 29  2  0  0  0  0
 31 30  1  0  0  0  0
 31 32  2  0  0  0  0
 32 33  1  0  0  0  0
 33 35  2  0  0  0  0
 33 34  1  0  0  0  0
 35 38  1  0  0  0  0
 36 31  1  0  0  0  0
 37 32  1  0  0  0  0
M  END
>  <minimizedAffinity>
-5.75824738

$$$$

 OpenBabel03242515063D

 38 40  0  0  0  0  0  0  0  0999 V2000
   39.9560   31.3860   40.7730 C   0  0  0  0  0  0  0  0  0  0  0  0
   40.9090   32.0360   41.5570 C   0  0  0  0  0  0  0  0  0  0  0  0
   41.8960   32.8100   40.9240 C   0  0  0  0  0  0  0  0  0  0  0  0
   41.8550   32.8720   39.5780 N   0  0  0  0  0  0  0  0  0  0  0  0
   40.9270   32.2380   38.8370 C   0  0  0  0  0  0  0  0  0  0  0  0
   39.9990   31.5100   39.4470 N   0  0  0  0  0  0  0  0  0  0  0  0
   40.9520   31.9940   42.6220 H   0  0  0  0  0  0  0  0  0  0  0  0
   42.9190   33.5130   41.6910 C   0  0  0  0  0  0  0  0  0  0  0  0
   43.0790   34.8830   41.6800 C   0  0  0  0  0  0  0  0  0  0  0  0
   42.5130   35.6280   41.1400 H   0  0  0  0  0  0  0  0  0  0  0  0
   44.1610   35.0650   42.5500 C   0  0  0  0  0  0  0  0  0  0  0  0
   44.6050   36.0150   42.8170 H   0  0  0  0  0  0  0  0  0  0  0  0
   44.5830   33.8230   43.0240 C   0  0  0  0  0  0  0  0  0  0  0  0
   45.3860   33.5770   43.7080 H   0  0  0  0  0  0  0  0  0  0  0  0
   43.7890   32.9320   42.4640 O   0  0  0  0  0  0  0  0  0  0  0  0
   40.9950   32.3890   37.3950 C   0  0  0  0  0  0  0  0  0  0  0  0
   42.1170   32.5650   36.8730 O   0  0  0  0  0  0  0  0  0  0  0  0
   39.7540   32.3240   36.6690 N   0  0  0  0  0  0  0  0  0  0  0  0
   39.3780   31.5730   36.0470 H   0  0  0  0  0  0  0  0  0  0  0  0
   39.1360   33.1530   36.7830 H   0  0  0  0  0  0  0  0  0  0  0  0
   38.7410   30.4220   41.6560 S   0  0  0  0  0  0  0  0  0  0  0  0
   39.4780   29.1260   42.6600 C   0  0  0  0  0  0  0  0  0  0  0  0
   40.1570   29.6170   43.3930 H   0  0  0  0  0  0  0  0  0  0  0  0
   40.0660   28.4670   41.9620 H   0  0  0  0  0  0  0  0  0  0  0  0
   38.4910   28.2930   43.4050 C   0  0  0  0  0  0  0  0  0  0  0  0
   37.5020   28.7860   43.5140 H   0  0  0  0  0  0  0  0  0  0  0  0
   38.8770   28.1500   44.4490 H   0  0  0  0  0  0  0  0  0  0  0  0
   36.0950   27.9870   41.5660 Cl  0  0  0  0  0  0  0  0  0  0  0  0
   37.2390   26.7280   41.8950 C   0  0  0  0  0  0  0  0  0  0  0  0
   38.3080   26.9780   42.7610 C   0  0  0  0  0  0  0  0  0  0  0  0
   39.1760   25.9260   42.9710 C   0  0  0  0  0  0  0  0  0  0  0  0
   39.0940   24.6540   42.4150 C   0  0  0  0  0  0  0  0  0  0  0  0
   38.0220   24.4490   41.5650 C   0  0  0  0  0  0  0  0  0  0  0  0
   37.8300   22.8680   40.8090 Cl  0  0  0  0  0  0  0  0  0  0  0  0
   37.1240   25.4610   41.3160 C   0  0  0  0  0  0  0  0  0  0  0  0
   40.0040   26.1230   43.6430 H   0  0  0  0  0  0  0  0  0  0  0  0
   39.8280   23.9080   42.6490 H   0  0  0  0  0  0  0  0  0  0  0  0
   36.2930   25.2730   40.6470 H   0  0  0  0  0  0  0  0  0  0  0  0
  1  2  1  0  0  0  0
  1 21  1  0  0  0  0
  2  7  1  0  0  0  0
  3  2  2  0  0  0  0
  3  8  1  0  0  0  0
  4  3  1  0  0  0  0
  5  6  1  0  0  0  0
  5  4  2  0  0  0  0
  6  1  2  0  0  0  0
  8 15  1  0  0  0  0
  9  8  2  0  0  0  0
  9 11  1  0  0  0  0
 10  9  1  0  0  0  0
 11 12  1  0  0  0  0
 11 13  2  0  0  0  0
 13 14  1  0  0  0  0
 15 13  1  0  0  0  0
 16  5  1  0  0  0  0
 17 16  2  0  0  0  0
 18 20  1  0  0  0  0
 18 16  1  0  0  0  0
 19 18  1  0  0  0  0
 21 22  1  0  0  0  0
 22 23  1  0  0  0  0
 22 25  1  0  0  0  0
 24 22  1  0  0  0  0
 25 26  1  0  0  0  0
 25 27  1  0  0  0  0
 28 29  1  0  0  0  0
 29 30  1  0  0  0  0
 30 31  2  0  0  0  0
 30 25  1  0  0  0  0
 31 36  1  0  0  0  0
 32 37  1  0  0  0  0
 32 31  1  0  0  0  0
 33 32  2  0  0  0  0
 34 33  1  0  0  0  0
 35 33  1  0  0  0  0
 35 29  2  0  0  0  0
 38 35  1  0  0  0  0
M  END
>  <minimizedAffinity>
-5.74945545

$$$$

 OpenBabel03242515063D

 38 40  0  0  0  0  0  0  0  0999 V2000
   36.5430   28.6720   39.9430 C   0  0  0  0  0  0  0  0  0  0  0  0
   36.9110   29.9920   39.6850 C   0  0  0  0  0  0  0  0  0  0  0  0
   37.5220   30.7390   40.7070 C   0  0  0  0  0  0  0  0  0  0  0  0
   37.7120   30.1180   41.8880 N   0  0  0  0  0  0  0  0  0  0  0  0
   37.3510   28.8420   42.1190 C   0  0  0  0  0  0  0  0  0  0  0  0
   36.7750   28.1470   41.1450 N   0  0  0  0  0  0  0  0  0  0  0  0
   36.7650   30.4940   38.7550 H   0  0  0  0  0  0  0  0  0  0  0  0
   37.9290   32.1240   40.4960 C   0  0  0  0  0  0  0  0  0  0  0  0
   37.2190   33.0240   39.7290 C   0  0  0  0  0  0  0  0  0  0  0  0
   36.2980   32.8730   39.1840 H   0  0  0  0  0  0  0  0  0  0  0  0
   37.9940   34.1850   39.8330 C   0  0  0  0  0  0  0  0  0  0  0  0
   37.7750   35.1360   39.3670 H   0  0  0  0  0  0  0  0  0  0  0  0
   39.1030   33.9260   40.6400 C   0  0  0  0  0  0  0  0  0  0  0  0
   39.9120   34.5800   40.9390 H   0  0  0  0  0  0  0  0  0  0  0  0
   38.9980   32.6630   41.0040 O   0  0  0  0  0  0  0  0  0  0  0  0
   37.6140   28.2940   43.4360 C   0  0  0  0  0  0  0  0  0  0  0  0
   38.7120   27.7270   43.6300 O   0  0  0  0  0  0  0  0  0  0  0  0
   36.5830   28.4450   44.4290 N   0  0  0  0  0  0  0  0  0  0  0  0
   36.5450   29.0650   45.2700 H   0  0  0  0  0  0  0  0  0  0  0  0
   35.7450   27.8450   44.2860 H   0  0  0  0  0  0  0  0  0  0  0  0
   35.7700   27.7960   38.5920 S   0  0  0  0  0  0  0  0  0  0  0  0
   36.9230   26.7490   37.6940 C   0  0  0  0  0  0  0  0  0  0  0  0
   37.9490   27.1340   37.8930 H   0  0  0  0  0  0  0  0  0  0  0  0
   36.6730   26.8500   36.6010 H   0  0  0  0  0  0  0  0  0  0  0  0
   36.8680   25.3100   38.0780 C   0  0  0  0  0  0  0  0  0  0  0  0
   37.3110   24.6390   37.3120 H   0  0  0  0  0  0  0  0  0  0  0  0
   35.7880   25.0140   38.1550 H   0  0  0  0  0  0  0  0  0  0  0  0
   35.4150   23.5490   40.0780 Cl  0  0  0  0  0  0  0  0  0  0  0  0
   36.9590   24.2810   40.3650 C   0  0  0  0  0  0  0  0  0  0  0  0
   37.5390   25.0770   39.3710 C   0  0  0  0  0  0  0  0  0  0  0  0
   38.7690   25.6230   39.6750 C   0  0  0  0  0  0  0  0  0  0  0  0
   39.4820   25.4650   40.8580 C   0  0  0  0  0  0  0  0  0  0  0  0
   38.8730   24.6720   41.8130 C   0  0  0  0  0  0  0  0  0  0  0  0
   39.6980   24.4090   43.3500 Cl  0  0  0  0  0  0  0  0  0  0  0  0
   37.6470   24.0990   41.5670 C   0  0  0  0  0  0  0  0  0  0  0  0
   39.2160   26.2400   38.9030 H   0  0  0  0  0  0  0  0  0  0  0  0
   40.4350   25.9390   40.9880 H   0  0  0  0  0  0  0  0  0  0  0  0
   37.1920   23.4820   42.3330 H   0  0  0  0  0  0  0  0  0  0  0  0
  1  6  1  0  0  0  0
  2  1  2  0  0  0  0
  2  3  1  0  0  0  0
  3  4  2  0  0  0  0
  4  5  1  0  0  0  0
  5 16  1  0  0  0  0
  6  5  2  0  0  0  0
  7  2  1  0  0  0  0
  8  3  1  0  0  0  0
  8 15  1  0  0  0  0
  9 11  1  0  0  0  0
  9  8  2  0  0  0  0
 10  9  1  0  0  0  0
 11 13  2  0  0  0  0
 12 11  1  0  0  0  0
 13 14  1  0  0  0  0
 13 15  1  0  0  0  0
 16 17  2  0  0  0  0
 16 18  1  0  0  0  0
 18 19  1  0  0  0  0
 20 18  1  0  0  0  0
 21  1  1  0  0  0  0
 22 23  1  0  0  0  0
 22 25  1  0  0  0  0
 22 21  1  0  0  0  0
 24 22  1  0  0  0  0
 25 27  1  0  0  0  0
 25 30  1  0  0  0  0
 26 25  1  0  0  0  0
 28 29  1  0  0  0  0
 29 35  1  0  0  0  0
 30 31  1  0  0  0  0
 30 29  2  0  0  0  0
 31 32  2  0  0  0  0
 32 37  1  0  0  0  0
 32 33  1  0  0  0  0
 33 34  1  0  0  0  0
 35 33  2  0  0  0  0
 35 38  1  0  0  0  0
 36 31  1  0  0  0  0
M  END
>  <minimizedAffinity>
-5.6744566

$$$$

 OpenBabel03242515063D

 38 40  0  0  0  0  0  0  0  0999 V2000
   35.9090   28.9720   39.9360 C   0  0  0  0  0  0  0  0  0  0  0  0
   36.4020   30.2590   39.7180 C   0  0  0  0  0  0  0  0  0  0  0  0
   37.2160   30.8490   40.7000 C   0  0  0  0  0  0  0  0  0  0  0  0
   37.4690   30.1190   41.8040 N   0  0  0  0  0  0  0  0  0  0  0  0
   36.9860   28.8770   41.9970 C   0  0  0  0  0  0  0  0  0  0  0  0
   36.2180   28.3310   41.0620 N   0  0  0  0  0  0  0  0  0  0  0  0
   36.2080   30.8470   38.8500 H   0  0  0  0  0  0  0  0  0  0  0  0
   37.7600   32.1920   40.5300 C   0  0  0  0  0  0  0  0  0  0  0  0
   37.2600   33.1140   39.6350 C   0  0  0  0  0  0  0  0  0  0  0  0
   36.4310   33.0130   38.9490 H   0  0  0  0  0  0  0  0  0  0  0  0
   38.0960   34.2180   39.8420 C   0  0  0  0  0  0  0  0  0  0  0  0
   38.0330   35.1660   39.3240 H   0  0  0  0  0  0  0  0  0  0  0  0
   39.0330   33.9050   40.8270 C   0  0  0  0  0  0  0  0  0  0  0  0
   39.8310   34.5080   41.2420 H   0  0  0  0  0  0  0  0  0  0  0  0
   38.7710   32.6680   41.1970 O   0  0  0  0  0  0  0  0  0  0  0  0
   37.3370   28.1990   43.2310 C   0  0  0  0  0  0  0  0  0  0  0  0
   38.5490   28.0290   43.4860 O   0  0  0  0  0  0  0  0  0  0  0  0
   36.2520   27.7710   44.0750 N   0  0  0  0  0  0  0  0  0  0  0  0
   35.9240   28.1510   44.9920 H   0  0  0  0  0  0  0  0  0  0  0  0
   35.7120   26.9570   43.7160 H   0  0  0  0  0  0  0  0  0  0  0  0
   34.8810   28.2990   38.6410 S   0  0  0  0  0  0  0  0  0  0  0  0
   33.4180   29.2940   38.3270 C   0  0  0  0  0  0  0  0  0  0  0  0
   33.7600   30.2670   37.9050 H   0  0  0  0  0  0  0  0  0  0  0  0
   32.9120   29.4550   39.3200 H   0  0  0  0  0  0  0  0  0  0  0  0
   32.4490   28.6750   37.3780 C   0  0  0  0  0  0  0  0  0  0  0  0
   31.5790   28.2100   37.8880 H   0  0  0  0  0  0  0  0  0  0  0  0
   32.9740   27.8380   36.8460 H   0  0  0  0  0  0  0  0  0  0  0  0
   33.8240   28.7000   34.6730 Cl  0  0  0  0  0  0  0  0  0  0  0  0
   32.5250   29.7570   35.1160 C   0  0  0  0  0  0  0  0  0  0  0  0
   31.9630   29.6600   36.3930 C   0  0  0  0  0  0  0  0  0  0  0  0
   30.9330   30.5350   36.6690 C   0  0  0  0  0  0  0  0  0  0  0  0
   30.4030   31.4950   35.8140 C   0  0  0  0  0  0  0  0  0  0  0  0
   30.9870   31.5580   34.5620 C   0  0  0  0  0  0  0  0  0  0  0  0
   30.3860   32.7440   33.4040 Cl  0  0  0  0  0  0  0  0  0  0  0  0
   32.0180   30.7100   34.2290 C   0  0  0  0  0  0  0  0  0  0  0  0
   30.4990   30.4580   37.6600 H   0  0  0  0  0  0  0  0  0  0  0  0
   29.5980   32.1260   36.1350 H   0  0  0  0  0  0  0  0  0  0  0  0
   32.4570   30.7810   33.2410 H   0  0  0  0  0  0  0  0  0  0  0  0
  1  6  1  0  0  0  0
  2  1  2  0  0  0  0
  2  3  1  0  0  0  0
  3  4  2  0  0  0  0
  4  5  1  0  0  0  0
  5 16  1  0  0  0  0
  6  5  2  0  0  0  0
  7  2  1  0  0  0  0
  8  3  1  0  0  0  0
  8 15  1  0  0  0  0
  9 11  1  0  0  0  0
  9  8  2  0  0  0  0
 10  9  1  0  0  0  0
 11 13  2  0  0  0  0
 12 11  1  0  0  0  0
 13 15  1  0  0  0  0
 13 14  1  0  0  0  0
 16 17  2  0  0  0  0
 16 18  1  0  0  0  0
 18 19  1  0  0  0  0
 20 18  1  0  0  0  0
 21  1  1  0  0  0  0
 22 21  1  0  0  0  0
 22 24  1  0  0  0  0
 23 22  1  0  0  0  0
 25 26  1  0  0  0  0
 25 22  1  0  0  0  0
 27 25  1  0  0  0  0
 28 29  1  0  0  0  0
 29 30  1  0  0  0  0
 30 31  2  0  0  0  0
 30 25  1  0  0  0  0
 31 36  1  0  0  0  0
 32 37  1  0  0  0  0
 32 31  1  0  0  0  0
 33 32  2  0  0  0  0
 34 33  1  0  0  0  0
 35 33  1  0  0  0  0
 35 29  2  0  0  0  0
 38 35  1  0  0  0  0
M  END
>  <minimizedAffinity>
-5.64306068

$$$$

 OpenBabel03242515063D

 38 40  0  0  0  0  0  0  0  0999 V2000
   39.3950   30.0110   41.3540 C   0  0  0  0  0  0  0  0  0  0  0  0
   40.2030   29.6710   40.2690 C   0  0  0  0  0  0  0  0  0  0  0  0
   40.3510   30.5920   39.2190 C   0  0  0  0  0  0  0  0  0  0  0  0
   39.6920   31.7620   39.3330 N   0  0  0  0  0  0  0  0  0  0  0  0
   38.9170   32.0740   40.3880 C   0  0  0  0  0  0  0  0  0  0  0  0
   38.7850   31.1950   41.3750 N   0  0  0  0  0  0  0  0  0  0  0  0
   40.7300   28.7490   40.1680 H   0  0  0  0  0  0  0  0  0  0  0  0
   41.1820   30.2930   38.0570 C   0  0  0  0  0  0  0  0  0  0  0  0
   41.2650   29.0460   37.4750 C   0  0  0  0  0  0  0  0  0  0  0  0
   40.7630   28.1310   37.7550 H   0  0  0  0  0  0  0  0  0  0  0  0
   42.1650   29.2640   36.4240 C   0  0  0  0  0  0  0  0  0  0  0  0
   42.5020   28.5200   35.7150 H   0  0  0  0  0  0  0  0  0  0  0  0
   42.5650   30.6000   36.4330 C   0  0  0  0  0  0  0  0  0  0  0  0
   43.2480   31.1250   35.7760 H   0  0  0  0  0  0  0  0  0  0  0  0
   41.9330   31.1610   37.4450 O   0  0  0  0  0  0  0  0  0  0  0  0
   38.2620   33.3690   40.3870 C   0  0  0  0  0  0  0  0  0  0  0  0
   37.3190   33.5520   39.5870 O   0  0  0  0  0  0  0  0  0  0  0  0
   38.7530   34.3530   41.3160 N   0  0  0  0  0  0  0  0  0  0  0  0
   38.3230   34.7220   42.1940 H   0  0  0  0  0  0  0  0  0  0  0  0
   39.6800   34.7590   41.0750 H   0  0  0  0  0  0  0  0  0  0  0  0
   39.2580   28.7840   42.6440 S   0  0  0  0  0  0  0  0  0  0  0  0
   37.6150   28.7190   43.3690 C   0  0  0  0  0  0  0  0  0  0  0  0
   37.1430   29.7170   43.2180 H   0  0  0  0  0  0  0  0  0  0  0  0
   37.7510   28.5130   44.4680 H   0  0  0  0  0  0  0  0  0  0  0  0
   36.7280   27.6750   42.7810 C   0  0  0  0  0  0  0  0  0  0  0  0
   35.7920   27.5250   43.3600 H   0  0  0  0  0  0  0  0  0  0  0  0
   37.2730   26.6950   42.8220 H   0  0  0  0  0  0  0  0  0  0  0  0
   37.4490   25.5980   40.6890 Cl  0  0  0  0  0  0  0  0  0  0  0  0
   36.6720   27.1070   40.3380 C   0  0  0  0  0  0  0  0  0  0  0  0
   36.3860   27.9930   41.3810 C   0  0  0  0  0  0  0  0  0  0  0  0
   35.7660   29.1720   41.0220 C   0  0  0  0  0  0  0  0  0  0  0  0
   35.4030   29.5640   39.7380 C   0  0  0  0  0  0  0  0  0  0  0  0
   35.7040   28.6600   38.7360 C   0  0  0  0  0  0  0  0  0  0  0  0
   35.2830   29.0650   37.0720 Cl  0  0  0  0  0  0  0  0  0  0  0  0
   36.3210   27.4670   39.0340 C   0  0  0  0  0  0  0  0  0  0  0  0
   35.5450   29.8570   41.8320 H   0  0  0  0  0  0  0  0  0  0  0  0
   34.9230   30.5090   39.5720 H   0  0  0  0  0  0  0  0  0  0  0  0
   36.5460   26.7770   38.2300 H   0  0  0  0  0  0  0  0  0  0  0  0
  1  6  1  0  0  0  0
  1 21  1  0  0  0  0
  2  1  2  0  0  0  0
  3  4  2  0  0  0  0
  3  2  1  0  0  0  0
  4  5  1  0  0  0  0
  5  6  2  0  0  0  0
  7  2  1  0  0  0  0
  8  3  1  0  0  0  0
  9 10  1  0  0  0  0
  9  8  2  0  0  0  0
 11 13  2  0  0  0  0
 11  9  1  0  0  0  0
 12 11  1  0  0  0  0
 13 15  1  0  0  0  0
 14 13  1  0  0  0  0
 15  8  1  0  0  0  0
 16  5  1  0  0  0  0
 16 18  1  0  0  0  0
 17 16  2  0  0  0  0
 18 19  1  0  0  0  0
 20 18  1  0  0  0  0
 21 22  1  0  0  0  0
 22 24  1  0  0  0  0
 23 22  1  0  0  0  0
 25 27  1  0  0  0  0
 25 26  1  0  0  0  0
 25 22  1  0  0  0  0
 29 28  1  0  0  0  0
 29 30  1  0  0  0  0
 30 25  1  0  0  0  0
 31 30  2  0  0  0  0
 31 36  1  0  0  0  0
 32 31  1  0  0  0  0
 33 35  1  0  0  0  0
 33 32  2  0  0  0  0
 34 33  1  0  0  0  0
 35 29  2  0  0  0  0
 37 32  1  0  0  0  0
 38 35  1  0  0  0  0
M  END
>  <minimizedAffinity>
-5.59173918

$$$$
