
 OpenBabel03242514073D

 42 45  0  0  1  0  0  0  0  0999 V2000
   38.0450   29.3830   41.4650 C   0  0  1  0  0  0  0  0  0  0  0  0
   38.7490   29.5300   42.8280 C   0  0  0  0  0  0  0  0  0  0  0  0
   38.9560   28.0750   43.2800 C   0  0  0  0  0  0  0  0  0  0  0  0
   37.5630   27.5970   43.6790 C   0  0  0  0  0  0  0  0  0  0  0  0
   36.5730   27.7030   42.5900 C   0  0  0  0  0  0  0  0  0  0  0  0
   36.7310   28.7650   41.5690 C   0  0  2  0  0  0  0  0  0  0  0  0
   38.7580   28.6930   40.9050 H   0  0  0  0  0  0  0  0  0  0  0  0
   38.0010   29.9730   43.5010 H   0  0  0  0  0  0  0  0  0  0  0  0
   39.6920   30.0630   42.7550 H   0  0  0  0  0  0  0  0  0  0  0  0
   39.6110   28.0340   44.1550 H   0  0  0  0  0  0  0  0  0  0  0  0
   39.3140   27.5360   42.3950 H   0  0  0  0  0  0  0  0  0  0  0  0
   37.6660   26.5610   44.0340 H   0  0  0  0  0  0  0  0  0  0  0  0
   37.2280   28.2830   44.5060 H   0  0  0  0  0  0  0  0  0  0  0  0
   36.5580   26.6970   42.0760 H   0  0  0  0  0  0  0  0  0  0  0  0
   35.5490   27.7580   43.0620 H   0  0  0  0  0  0  0  0  0  0  0  0
   35.9500   29.5450   41.7840 H   0  0  0  0  0  0  0  0  0  0  0  0
   39.2120   32.1190   39.2910 C   0  0  0  0  0  0  0  0  0  0  0  0
   38.1010   32.9240   39.2620 C   0  0  0  0  0  0  0  0  0  0  0  0
   36.9260   32.6600   39.9290 C   0  0  0  0  0  0  0  0  0  0  0  0
   36.9500   31.4690   40.6620 C   0  0  0  0  0  0  0  0  0  0  0  0
   38.0700   30.6370   40.6990 C   0  0  0  0  0  0  0  0  0  0  0  0
   39.1890   30.9710   40.0150 N   0  0  0  0  0  0  0  0  0  0  0  0
   38.1750   33.8260   38.6670 H   0  0  0  0  0  0  0  0  0  0  0  0
   36.0780   33.2960   39.8930 H   0  0  0  0  0  0  0  0  0  0  0  0
   36.0290   31.2740   41.1920 H   0  0  0  0  0  0  0  0  0  0  0  0
   42.1310   32.0710   37.0840 C   0  0  0  0  0  0  0  0  0  0  0  0
   42.7230   33.3090   37.2720 C   0  0  0  0  0  0  0  0  0  0  0  0
   42.0960   34.1610   38.1760 C   0  0  0  0  0  0  0  0  0  0  0  0
   40.9600   33.7310   38.8050 N   0  0  0  0  0  0  0  0  0  0  0  0
   40.4250   32.5020   38.5770 C   0  0  0  0  0  0  0  0  0  0  0  0
   40.9980   31.6830   37.7310 N   0  0  0  0  0  0  0  0  0  0  0  0
   42.5460   31.3280   36.3930 H   0  0  0  0  0  0  0  0  0  0  0  0
   43.6220   33.5480   36.7230 H   0  0  0  0  0  0  0  0  0  0  0  0
   42.5190   35.1240   38.3520 H   0  0  0  0  0  0  0  0  0  0  0  0
   36.3560   28.1030   40.2620 C   0  0  0  0  0  0  0  0  0  0  0  0
   36.9520   26.8600   40.1580 C   0  0  0  0  0  0  0  0  0  0  0  0
   37.6190   26.2090   40.7440 H   0  0  0  0  0  0  0  0  0  0  0  0
   36.5930   26.2640   38.9440 C   0  0  0  0  0  0  0  0  0  0  0  0
   36.8030   25.3370   38.4450 H   0  0  0  0  0  0  0  0  0  0  0  0
   35.7700   27.2240   38.3700 C   0  0  0  0  0  0  0  0  0  0  0  0
   35.2190   27.2960   37.4440 H   0  0  0  0  0  0  0  0  0  0  0  0
   35.6690   28.2450   39.1550 O   0  0  0  0  0  0  0  0  0  0  0  0
  1  7  1  6  0  0  0
  1  6  1  0  0  0  0
  1  2  1  0  0  0  0
  2  3  1  0  0  0  0
  2  8  1  0  0  0  0
  3  4  1  0  0  0  0
  3 10  1  0  0  0  0
  4 12  1  0  0  0  0
  4 13  1  0  0  0  0
  5 15  1  0  0  0  0
  5  4  1  0  0  0  0
  6 16  1  1  0  0  0
  6  5  1  0  0  0  0
  9  2  1  0  0  0  0
 11  3  1  0  0  0  0
 14  5  1  0  0  0  0
 17 22  1  0  0  0  0
 18 17  2  0  0  0  0
 18 19  1  0  0  0  0
 19 20  2  0  0  0  0
 20 21  1  0  0  0  0
 20 25  1  0  0  0  0
 21  1  1  0  0  0  0
 22 21  2  0  0  0  0
 23 18  1  0  0  0  0
 24 19  1  0  0  0  0
 26 27  2  0  0  0  0
 26 31  1  0  0  0  0
 27 28  1  0  0  0  0
 28 34  1  0  0  0  0
 28 29  2  0  0  0  0
 30 29  1  0  0  0  0
 30 17  1  0  0  0  0
 31 30  2  0  0  0  0
 32 26  1  0  0  0  0
 33 27  1  0  0  0  0
 35  6  1  0  0  0  0
 36 35  2  0  0  0  0
 36 37  1  0  0  0  0
 38 36  1  0  0  0  0
 39 38  1  0  0  0  0
 40 38  2  0  0  0  0
 40 42  1  0  0  0  0
 41 40  1  0  0  0  0
 42 35  1  0  0  0  0
M  END
>  <minimizedAffinity>
-5.94491959

$$$$

 OpenBabel03242514073D

 42 45  0  0  1  0  0  0  0  0999 V2000
   36.6740   27.9280   39.9220 C   0  0  1  0  0  0  0  0  0  0  0  0
   36.2040   26.6050   39.2890 C   0  0  0  0  0  0  0  0  0  0  0  0
   35.9770   26.9770   37.8140 C   0  0  0  0  0  0  0  0  0  0  0  0
   34.6990   27.8100   37.8220 C   0  0  0  0  0  0  0  0  0  0  0  0
   34.7820   29.0020   38.6890 C   0  0  0  0  0  0  0  0  0  0  0  0
   35.6560   28.9680   39.8840 C   0  0  2  0  0  0  0  0  0  0  0  0
   37.5490   28.2140   39.2500 H   0  0  0  0  0  0  0  0  0  0  0  0
   35.2160   26.4020   39.7250 H   0  0  0  0  0  0  0  0  0  0  0  0
   36.9370   25.8100   39.3910 H   0  0  0  0  0  0  0  0  0  0  0  0
   35.8140   26.0780   37.2120 H   0  0  0  0  0  0  0  0  0  0  0  0
   36.8400   27.5890   37.5250 H   0  0  0  0  0  0  0  0  0  0  0  0
   34.4820   28.0810   36.7790 H   0  0  0  0  0  0  0  0  0  0  0  0
   33.9000   27.1400   38.2470 H   0  0  0  0  0  0  0  0  0  0  0  0
   35.1020   29.8560   38.0220 H   0  0  0  0  0  0  0  0  0  0  0  0
   33.7290   29.2900   38.9770 H   0  0  0  0  0  0  0  0  0  0  0  0
   34.9820   28.8860   40.7800 H   0  0  0  0  0  0  0  0  0  0  0  0
   39.1760   27.2860   42.5490 C   0  0  0  0  0  0  0  0  0  0  0  0
   38.3990   27.3640   43.6780 C   0  0  0  0  0  0  0  0  0  0  0  0
   37.0450   27.6150   43.6790 C   0  0  0  0  0  0  0  0  0  0  0  0
   36.5030   27.7890   42.4010 C   0  0  0  0  0  0  0  0  0  0  0  0
   37.2800   27.7170   41.2440 C   0  0  0  0  0  0  0  0  0  0  0  0
   38.6070   27.4650   41.3300 N   0  0  0  0  0  0  0  0  0  0  0  0
   38.9060   27.2150   44.6230 H   0  0  0  0  0  0  0  0  0  0  0  0
   36.4620   27.6710   44.5640 H   0  0  0  0  0  0  0  0  0  0  0  0
   35.4390   27.9730   42.4090 H   0  0  0  0  0  0  0  0  0  0  0  0
   42.8220   27.5120   42.3230 C   0  0  0  0  0  0  0  0  0  0  0  0
   43.2730   26.3210   42.8700 C   0  0  0  0  0  0  0  0  0  0  0  0
   42.2950   25.4390   43.3190 C   0  0  0  0  0  0  0  0  0  0  0  0
   40.9800   25.7970   43.1940 N   0  0  0  0  0  0  0  0  0  0  0  0
   40.6000   26.9820   42.6480 C   0  0  0  0  0  0  0  0  0  0  0  0
   41.5020   27.8280   42.2180 N   0  0  0  0  0  0  0  0  0  0  0  0
   43.5110   28.2740   41.9420 H   0  0  0  0  0  0  0  0  0  0  0  0
   44.3370   26.1380   42.9210 H   0  0  0  0  0  0  0  0  0  0  0  0
   42.5980   24.5110   43.7460 H   0  0  0  0  0  0  0  0  0  0  0  0
   36.2990   30.3370   39.9310 C   0  0  0  0  0  0  0  0  0  0  0  0
   36.7800   30.6900   38.6850 C   0  0  0  0  0  0  0  0  0  0  0  0
   36.8350   30.2710   37.6670 H   0  0  0  0  0  0  0  0  0  0  0  0
   37.3700   31.9570   38.7480 C   0  0  0  0  0  0  0  0  0  0  0  0
   37.8590   32.6190   38.0580 H   0  0  0  0  0  0  0  0  0  0  0  0
   37.2000   32.3010   40.0820 C   0  0  0  0  0  0  0  0  0  0  0  0
   37.4600   33.1590   40.6840 H   0  0  0  0  0  0  0  0  0  0  0  0
   36.5900   31.3500   40.7080 O   0  0  0  0  0  0  0  0  0  0  0  0
  1  7  1  6  0  0  0
  1 21  1  0  0  0  0
  2  9  1  0  0  0  0
  2  8  1  0  0  0  0
  2  1  1  0  0  0  0
  3  4  1  0  0  0  0
  3  2  1  0  0  0  0
  4 13  1  0  0  0  0
  4  5  1  0  0  0  0
  5 15  1  0  0  0  0
  5  6  1  0  0  0  0
  6  1  1  0  0  0  0
  6 35  1  0  0  0  0
  6 16  1  1  0  0  0
 10  3  1  0  0  0  0
 11  3  1  0  0  0  0
 12  4  1  0  0  0  0
 14  5  1  0  0  0  0
 17 30  1  0  0  0  0
 17 18  1  0  0  0  0
 18 19  2  0  0  0  0
 18 23  1  0  0  0  0
 19 24  1  0  0  0  0
 20 25  1  0  0  0  0
 20 19  1  0  0  0  0
 21 22  1  0  0  0  0
 21 20  2  0  0  0  0
 22 17  2  0  0  0  0
 26 27  1  0  0  0  0
 27 33  1  0  0  0  0
 27 28  2  0  0  0  0
 28 34  1  0  0  0  0
 29 28  1  0  0  0  0
 30 29  2  0  0  0  0
 31 26  2  0  0  0  0
 31 30  1  0  0  0  0
 32 26  1  0  0  0  0
 35 42  1  0  0  0  0
 36 38  1  0  0  0  0
 36 35  2  0  0  0  0
 37 36  1  0  0  0  0
 38 40  2  0  0  0  0
 39 38  1  0  0  0  0
 40 41  1  0  0  0  0
 40 42  1  0  0  0  0
M  END
>  <minimizedAffinity>
-5.89279604

$$$$

 OpenBabel03242514073D

 42 45  0  0  1  0  0  0  0  0999 V2000
   36.5510   29.8010   39.3970 C   0  0  1  0  0  0  0  0  0  0  0  0
   35.8500   29.6410   38.0340 C   0  0  0  0  0  0  0  0  0  0  0  0
   34.7200   28.6410   38.3300 C   0  0  0  0  0  0  0  0  0  0  0  0
   35.4300   27.3000   38.4940 C   0  0  0  0  0  0  0  0  0  0  0  0
   36.4570   27.3060   39.5540 C   0  0  0  0  0  0  0  0  0  0  0  0
   37.1680   28.5680   39.8640 C   0  0  2  0  0  0  0  0  0  0  0  0
   35.6810   30.0850   40.0770 H   0  0  0  0  0  0  0  0  0  0  0  0
   36.5740   29.1270   37.3870 H   0  0  0  0  0  0  0  0  0  0  0  0
   35.4610   30.5800   37.6530 H   0  0  0  0  0  0  0  0  0  0  0  0
   34.0300   28.5780   37.4830 H   0  0  0  0  0  0  0  0  0  0  0  0
   34.2760   28.9650   39.2790 H   0  0  0  0  0  0  0  0  0  0  0  0
   34.6540   26.5440   38.6850 H   0  0  0  0  0  0  0  0  0  0  0  0
   35.9560   27.1110   37.5170 H   0  0  0  0  0  0  0  0  0  0  0  0
   35.9480   26.9300   40.4890 H   0  0  0  0  0  0  0  0  0  0  0  0
   37.1940   26.4840   39.3210 H   0  0  0  0  0  0  0  0  0  0  0  0
   38.2070   28.4690   39.4460 H   0  0  0  0  0  0  0  0  0  0  0  0
   39.4350   32.0060   38.7740 C   0  0  0  0  0  0  0  0  0  0  0  0
   39.0470   33.1420   39.4380 C   0  0  0  0  0  0  0  0  0  0  0  0
   37.8620   33.2790   40.1270 C   0  0  0  0  0  0  0  0  0  0  0  0
   37.0580   32.1350   40.0970 C   0  0  0  0  0  0  0  0  0  0  0  0
   37.4360   30.9730   39.4220 C   0  0  0  0  0  0  0  0  0  0  0  0
   38.6200   30.9200   38.7690 N   0  0  0  0  0  0  0  0  0  0  0  0
   39.7350   33.9780   39.4070 H   0  0  0  0  0  0  0  0  0  0  0  0
   37.5810   34.1660   40.6350 H   0  0  0  0  0  0  0  0  0  0  0  0
   36.1360   32.2450   40.6480 H   0  0  0  0  0  0  0  0  0  0  0  0
   42.6960   32.9110   37.3810 C   0  0  0  0  0  0  0  0  0  0  0  0
   43.1570   31.7410   36.7990 C   0  0  0  0  0  0  0  0  0  0  0  0
   42.3210   30.6340   36.8970 C   0  0  0  0  0  0  0  0  0  0  0  0
   41.1240   30.7690   37.5470 N   0  0  0  0  0  0  0  0  0  0  0  0
   40.7280   31.9460   38.0990 C   0  0  0  0  0  0  0  0  0  0  0  0
   41.4970   33.0020   38.0200 N   0  0  0  0  0  0  0  0  0  0  0  0
   43.2800   33.8390   37.3600 H   0  0  0  0  0  0  0  0  0  0  0  0
   44.1190   31.7440   36.3090 H   0  0  0  0  0  0  0  0  0  0  0  0
   42.6360   29.7130   36.4620 H   0  0  0  0  0  0  0  0  0  0  0  0
   37.2920   28.5800   41.3720 C   0  0  0  0  0  0  0  0  0  0  0  0
   36.6570   27.4820   41.9210 C   0  0  0  0  0  0  0  0  0  0  0  0
   36.0880   26.6000   41.5860 H   0  0  0  0  0  0  0  0  0  0  0  0
   36.7830   27.5100   43.3130 C   0  0  0  0  0  0  0  0  0  0  0  0
   36.4660   26.8920   44.1320 H   0  0  0  0  0  0  0  0  0  0  0  0
   37.5140   28.6710   43.5250 C   0  0  0  0  0  0  0  0  0  0  0  0
   37.8950   29.1800   44.3980 H   0  0  0  0  0  0  0  0  0  0  0  0
   37.7760   29.2390   42.3950 O   0  0  0  0  0  0  0  0  0  0  0  0
  1 21  1  0  0  0  0
  1  6  1  0  0  0  0
  1  7  1  1  0  0  0
  2  3  1  0  0  0  0
  2  1  1  0  0  0  0
  3  4  1  0  0  0  0
  3 11  1  0  0  0  0
  4 12  1  0  0  0  0
  4  5  1  0  0  0  0
  5  6  1  0  0  0  0
  5 14  1  0  0  0  0
  6 16  1  6  0  0  0
  6 35  1  0  0  0  0
  8  2  1  0  0  0  0
  9  2  1  0  0  0  0
 10  3  1  0  0  0  0
 13  4  1  0  0  0  0
 15  5  1  0  0  0  0
 17 18  1  0  0  0  0
 18 19  2  0  0  0  0
 19 24  1  0  0  0  0
 20 19  1  0  0  0  0
 20 25  1  0  0  0  0
 21 20  2  0  0  0  0
 22 17  2  0  0  0  0
 22 21  1  0  0  0  0
 23 18  1  0  0  0  0
 26 31  1  0  0  0  0
 27 28  1  0  0  0  0
 27 26  2  0  0  0  0
 28 29  2  0  0  0  0
 29 30  1  0  0  0  0
 30 17  1  0  0  0  0
 31 30  2  0  0  0  0
 32 26  1  0  0  0  0
 33 27  1  0  0  0  0
 34 28  1  0  0  0  0
 35 36  2  0  0  0  0
 35 42  1  0  0  0  0
 36 38  1  0  0  0  0
 37 36  1  0  0  0  0
 38 40  2  0  0  0  0
 38 39  1  0  0  0  0
 40 41  1  0  0  0  0
 42 40  1  0  0  0  0
M  END
>  <minimizedAffinity>
-5.83689833

$$$$

 OpenBabel03242514073D

 42 45  0  0  1  0  0  0  0  0999 V2000
   38.6300   26.9510   41.8930 C   0  0  1  0  0  0  0  0  0  0  0  0
   38.9050   26.9760   43.4080 C   0  0  0  0  0  0  0  0  0  0  0  0
   40.1090   26.0330   43.5680 C   0  0  0  0  0  0  0  0  0  0  0  0
   39.5310   24.6360   43.3610 C   0  0  0  0  0  0  0  0  0  0  0  0
   38.8630   24.4660   42.0560 C   0  0  0  0  0  0  0  0  0  0  0  0
   38.2260   25.6380   41.4110 C   0  0  2  0  0  0  0  0  0  0  0  0
   39.6500   27.2270   41.4640 H   0  0  0  0  0  0  0  0  0  0  0  0
   38.0420   26.4780   43.8740 H   0  0  0  0  0  0  0  0  0  0  0  0
   39.1270   27.9730   43.7750 H   0  0  0  0  0  0  0  0  0  0  0  0
   40.5200   26.1030   44.5790 H   0  0  0  0  0  0  0  0  0  0  0  0
   40.8000   26.2930   42.7570 H   0  0  0  0  0  0  0  0  0  0  0  0
   40.3570   23.9220   43.4910 H   0  0  0  0  0  0  0  0  0  0  0  0
   38.7480   24.5080   44.1600 H   0  0  0  0  0  0  0  0  0  0  0  0
   39.6380   24.0360   41.3570 H   0  0  0  0  0  0  0  0  0  0  0  0
   38.1220   23.6210   42.1590 H   0  0  0  0  0  0  0  0  0  0  0  0
   37.1150   25.5080   41.5200 H   0  0  0  0  0  0  0  0  0  0  0  0
   37.4720   30.2870   40.8420 C   0  0  0  0  0  0  0  0  0  0  0  0
   36.1290   30.0610   40.6820 C   0  0  0  0  0  0  0  0  0  0  0  0
   35.5070   28.8520   40.9020 C   0  0  0  0  0  0  0  0  0  0  0  0
   36.3780   27.8380   41.3150 C   0  0  0  0  0  0  0  0  0  0  0  0
   37.7470   28.0500   41.4790 C   0  0  0  0  0  0  0  0  0  0  0  0
   38.2800   29.2720   41.2410 N   0  0  0  0  0  0  0  0  0  0  0  0
   35.5330   30.9060   40.3590 H   0  0  0  0  0  0  0  0  0  0  0  0
   34.4650   28.6980   40.7730 H   0  0  0  0  0  0  0  0  0  0  0  0
   35.8820   26.8960   41.4970 H   0  0  0  0  0  0  0  0  0  0  0  0
   39.7640   33.1380   40.7180 C   0  0  0  0  0  0  0  0  0  0  0  0
   39.0130   34.1570   40.1560 C   0  0  0  0  0  0  0  0  0  0  0  0
   37.6990   33.8420   39.8200 C   0  0  0  0  0  0  0  0  0  0  0  0
   37.2460   32.5730   40.0610 N   0  0  0  0  0  0  0  0  0  0  0  0
   38.0340   31.6140   40.6160 C   0  0  0  0  0  0  0  0  0  0  0  0
   39.2720   31.8880   40.9400 N   0  0  0  0  0  0  0  0  0  0  0  0
   40.8080   33.2830   41.0160 H   0  0  0  0  0  0  0  0  0  0  0  0
   39.4690   35.1250   40.0090 H   0  0  0  0  0  0  0  0  0  0  0  0
   37.0850   34.5960   39.3850 H   0  0  0  0  0  0  0  0  0  0  0  0
   38.5520   25.4930   39.9410 C   0  0  0  0  0  0  0  0  0  0  0  0
   37.5620   24.7800   39.2920 C   0  0  0  0  0  0  0  0  0  0  0  0
   36.6060   24.2850   39.5270 H   0  0  0  0  0  0  0  0  0  0  0  0
   37.8800   24.6570   37.9350 C   0  0  0  0  0  0  0  0  0  0  0  0
   37.4290   24.2050   37.0720 H   0  0  0  0  0  0  0  0  0  0  0  0
   39.0910   25.3310   37.8490 C   0  0  0  0  0  0  0  0  0  0  0  0
   39.7840   25.5480   37.0500 H   0  0  0  0  0  0  0  0  0  0  0  0
   39.4270   25.7840   39.0110 O   0  0  0  0  0  0  0  0  0  0  0  0
  1  7  1  6  0  0  0
  1  2  1  0  0  0  0
  2  3  1  0  0  0  0
  2  9  1  0  0  0  0
  2  8  1  0  0  0  0
  3 10  1  0  0  0  0
  4 12  1  0  0  0  0
  4  3  1  0  0  0  0
  4 13  1  0  0  0  0
  5 15  1  0  0  0  0
  5  4  1  0  0  0  0
  6 16  1  1  0  0  0
  6  1  1  0  0  0  0
  6  5  1  0  0  0  0
 11  3  1  0  0  0  0
 14  5  1  0  0  0  0
 17 22  1  0  0  0  0
 18 17  2  0  0  0  0
 18 19  1  0  0  0  0
 19 20  2  0  0  0  0
 20 21  1  0  0  0  0
 20 25  1  0  0  0  0
 21  1  1  0  0  0  0
 22 21  2  0  0  0  0
 23 18  1  0  0  0  0
 24 19  1  0  0  0  0
 26 31  1  0  0  0  0
 26 32  1  0  0  0  0
 27 26  2  0  0  0  0
 28 29  2  0  0  0  0
 28 27  1  0  0  0  0
 29 30  1  0  0  0  0
 30 17  1  0  0  0  0
 30 31  2  0  0  0  0
 33 27  1  0  0  0  0
 34 28  1  0  0  0  0
 35  6  1  0  0  0  0
 36 37  1  0  0  0  0
 36 35  2  0  0  0  0
 38 36  1  0  0  0  0
 39 38  1  0  0  0  0
 40 38  2  0  0  0  0
 40 42  1  0  0  0  0
 41 40  1  0  0  0  0
 42 35  1  0  0  0  0
M  END
>  <minimizedAffinity>
-5.62091589

$$$$

 OpenBabel03242514073D

 42 45  0  0  1  0  0  0  0  0999 V2000
   36.9630   30.0330   40.2420 C   0  0  1  0  0  0  0  0  0  0  0  0
   37.6970   31.3170   40.6730 C   0  0  0  0  0  0  0  0  0  0  0  0
   37.0410   32.4080   39.8110 C   0  0  0  0  0  0  0  0  0  0  0  0
   37.5910   32.1690   38.4070 C   0  0  0  0  0  0  0  0  0  0  0  0
   37.3150   30.8140   37.8920 C   0  0  0  0  0  0  0  0  0  0  0  0
   37.1950   29.6880   38.8470 C   0  0  2  0  0  0  0  0  0  0  0  0
   35.8710   30.3220   40.3960 H   0  0  0  0  0  0  0  0  0  0  0  0
   38.7300   31.2020   40.3160 H   0  0  0  0  0  0  0  0  0  0  0  0
   37.5850   31.5250   41.7320 H   0  0  0  0  0  0  0  0  0  0  0  0
   37.3470   33.4020   40.1500 H   0  0  0  0  0  0  0  0  0  0  0  0
   35.9630   32.2080   39.8450 H   0  0  0  0  0  0  0  0  0  0  0  0
   37.1650   32.9460   37.7560 H   0  0  0  0  0  0  0  0  0  0  0  0
   38.7090   32.2740   38.4950 H   0  0  0  0  0  0  0  0  0  0  0  0
   36.3610   30.8920   37.2930 H   0  0  0  0  0  0  0  0  0  0  0  0
   38.0880   30.5840   37.1030 H   0  0  0  0  0  0  0  0  0  0  0  0
   38.1330   29.0740   38.7480 H   0  0  0  0  0  0  0  0  0  0  0  0
   37.4640   26.6400   41.5870 C   0  0  0  0  0  0  0  0  0  0  0  0
   37.6390   26.9080   42.9210 C   0  0  0  0  0  0  0  0  0  0  0  0
   37.6020   28.1680   43.4770 C   0  0  0  0  0  0  0  0  0  0  0  0
   37.3650   29.1870   42.5480 C   0  0  0  0  0  0  0  0  0  0  0  0
   37.1880   28.9310   41.1870 C   0  0  0  0  0  0  0  0  0  0  0  0
   37.2390   27.6610   40.7210 N   0  0  0  0  0  0  0  0  0  0  0  0
   37.8180   26.0560   43.5650 H   0  0  0  0  0  0  0  0  0  0  0  0
   37.7400   28.3550   44.5120 H   0  0  0  0  0  0  0  0  0  0  0  0
   37.3250   30.1710   42.9920 H   0  0  0  0  0  0  0  0  0  0  0  0
   38.4140   23.1550   40.9990 C   0  0  0  0  0  0  0  0  0  0  0  0
   37.4560   22.6830   40.1160 C   0  0  0  0  0  0  0  0  0  0  0  0
   36.4760   23.5910   39.7260 C   0  0  0  0  0  0  0  0  0  0  0  0
   36.5200   24.8620   40.2310 N   0  0  0  0  0  0  0  0  0  0  0  0
   37.4870   25.2650   41.0980 C   0  0  0  0  0  0  0  0  0  0  0  0
   38.4200   24.4290   41.4780 N   0  0  0  0  0  0  0  0  0  0  0  0
   39.2270   22.5190   41.3670 H   0  0  0  0  0  0  0  0  0  0  0  0
   37.5140   21.6590   39.7780 H   0  0  0  0  0  0  0  0  0  0  0  0
   35.7200   23.2710   39.0470 H   0  0  0  0  0  0  0  0  0  0  0  0
   36.0530   28.8500   38.3140 C   0  0  0  0  0  0  0  0  0  0  0  0
   34.8450   29.4880   38.5210 C   0  0  0  0  0  0  0  0  0  0  0  0
   34.4660   30.4260   38.9590 H   0  0  0  0  0  0  0  0  0  0  0  0
   33.8030   28.7000   38.0220 C   0  0  0  0  0  0  0  0  0  0  0  0
   32.7340   28.7790   37.9590 H   0  0  0  0  0  0  0  0  0  0  0  0
   34.4760   27.5920   37.5260 C   0  0  0  0  0  0  0  0  0  0  0  0
   34.1760   26.6780   37.0350 H   0  0  0  0  0  0  0  0  0  0  0  0
   35.7470   27.7260   37.7170 O   0  0  0  0  0  0  0  0  0  0  0  0
  1  7  1  1  0  0  0
  1  2  1  0  0  0  0
  1 21  1  0  0  0  0
  2  9  1  0  0  0  0
  3 11  1  0  0  0  0
  3 10  1  0  0  0  0
  3  2  1  0  0  0  0
  4 13  1  0  0  0  0
  4  3  1  0  0  0  0
  5  4  1  0  0  0  0
  5  6  1  0  0  0  0
  6 16  1  6  0  0  0
  6  1  1  0  0  0  0
  8  2  1  0  0  0  0
 12  4  1  0  0  0  0
 14  5  1  0  0  0  0
 15  5  1  0  0  0  0
 17 18  1  0  0  0  0
 18 19  2  0  0  0  0
 18 23  1  0  0  0  0
 19 24  1  0  0  0  0
 20 25  1  0  0  0  0
 20 19  1  0  0  0  0
 21 20  2  0  0  0  0
 22 21  1  0  0  0  0
 22 17  2  0  0  0  0
 26 32  1  0  0  0  0
 26 31  1  0  0  0  0
 27 26  2  0  0  0  0
 28 27  1  0  0  0  0
 28 29  2  0  0  0  0
 29 30  1  0  0  0  0
 30 31  2  0  0  0  0
 30 17  1  0  0  0  0
 33 27  1  0  0  0  0
 34 28  1  0  0  0  0
 35 36  2  0  0  0  0
 35  6  1  0  0  0  0
 36 37  1  0  0  0  0
 38 36  1  0  0  0  0
 39 38  1  0  0  0  0
 40 42  1  0  0  0  0
 40 38  2  0  0  0  0
 41 40  1  0  0  0  0
 42 35  1  0  0  0  0
M  END
>  <minimizedAffinity>
-5.5568018

$$$$

 OpenBabel03242514073D

 42 45  0  0  1  0  0  0  0  0999 V2000
   36.7750   30.0080   39.5640 C   0  0  1  0  0  0  0  0  0  0  0  0
   36.1320   29.8890   38.1690 C   0  0  0  0  0  0  0  0  0  0  0  0
   35.0210   28.8470   38.3770 C   0  0  0  0  0  0  0  0  0  0  0  0
   35.7620   27.5190   38.5120 C   0  0  0  0  0  0  0  0  0  0  0  0
   36.7470   27.5070   39.6110 C   0  0  0  0  0  0  0  0  0  0  0  0
   37.4100   28.7730   40.0030 C   0  0  2  0  0  0  0  0  0  0  0  0
   35.8730   30.2390   40.2210 H   0  0  0  0  0  0  0  0  0  0  0  0
   36.8950   29.4240   37.5290 H   0  0  0  0  0  0  0  0  0  0  0  0
   35.7310   30.8330   37.8130 H   0  0  0  0  0  0  0  0  0  0  0  0
   34.3660   28.8020   37.5010 H   0  0  0  0  0  0  0  0  0  0  0  0
   34.5320   29.1170   39.3200 H   0  0  0  0  0  0  0  0  0  0  0  0
   35.0010   26.7350   38.6390 H   0  0  0  0  0  0  0  0  0  0  0  0
   36.3310   27.3870   37.5490 H   0  0  0  0  0  0  0  0  0  0  0  0
   36.2140   27.0770   40.5090 H   0  0  0  0  0  0  0  0  0  0  0  0
   37.5160   26.7160   39.3730 H   0  0  0  0  0  0  0  0  0  0  0  0
   38.4660   28.7210   39.6220 H   0  0  0  0  0  0  0  0  0  0  0  0
   39.7610   32.1600   39.7290 C   0  0  0  0  0  0  0  0  0  0  0  0
   39.1860   33.4000   39.8400 C   0  0  0  0  0  0  0  0  0  0  0  0
   37.8290   33.6330   39.8770 C   0  0  0  0  0  0  0  0  0  0  0  0
   37.0560   32.4710   39.7900 C   0  0  0  0  0  0  0  0  0  0  0  0
   37.6250   31.2020   39.6740 C   0  0  0  0  0  0  0  0  0  0  0  0
   38.9710   31.0590   39.6450 N   0  0  0  0  0  0  0  0  0  0  0  0
   39.8650   34.2420   39.9010 H   0  0  0  0  0  0  0  0  0  0  0  0
   37.4040   34.6020   39.9630 H   0  0  0  0  0  0  0  0  0  0  0  0
   35.9930   32.6590   39.8320 H   0  0  0  0  0  0  0  0  0  0  0  0
   43.2460   31.8610   38.6520 C   0  0  0  0  0  0  0  0  0  0  0  0
   43.9580   31.7210   39.8320 C   0  0  0  0  0  0  0  0  0  0  0  0
   43.2130   31.7310   41.0070 C   0  0  0  0  0  0  0  0  0  0  0  0
   41.8550   31.8770   40.9220 N   0  0  0  0  0  0  0  0  0  0  0  0
   41.2130   32.0110   39.7320 C   0  0  0  0  0  0  0  0  0  0  0  0
   41.8930   32.0040   38.6130 N   0  0  0  0  0  0  0  0  0  0  0  0
   43.7390   31.8660   37.6730 H   0  0  0  0  0  0  0  0  0  0  0  0
   45.0320   31.6110   39.7860 H   0  0  0  0  0  0  0  0  0  0  0  0
   43.7210   31.6250   41.9380 H   0  0  0  0  0  0  0  0  0  0  0  0
   37.4750   28.7230   41.5130 C   0  0  0  0  0  0  0  0  0  0  0  0
   36.6710   27.7100   42.0010 C   0  0  0  0  0  0  0  0  0  0  0  0
   35.9970   26.9280   41.6170 H   0  0  0  0  0  0  0  0  0  0  0  0
   36.7450   27.6790   43.3970 C   0  0  0  0  0  0  0  0  0  0  0  0
   36.3130   27.0880   44.1830 H   0  0  0  0  0  0  0  0  0  0  0  0
   37.6230   28.7180   43.6740 C   0  0  0  0  0  0  0  0  0  0  0  0
   38.0380   29.1410   44.5770 H   0  0  0  0  0  0  0  0  0  0  0  0
   38.0070   29.2760   42.5750 O   0  0  0  0  0  0  0  0  0  0  0  0
  1 21  1  0  0  0  0
  1  6  1  0  0  0  0
  1  7  1  1  0  0  0
  2  3  1  0  0  0  0
  2  1  1  0  0  0  0
  3  4  1  0  0  0  0
  3 11  1  0  0  0  0
  4 12  1  0  0  0  0
  4  5  1  0  0  0  0
  5  6  1  0  0  0  0
  5 14  1  0  0  0  0
  6 16  1  6  0  0  0
  6 35  1  0  0  0  0
  8  2  1  0  0  0  0
  9  2  1  0  0  0  0
 10  3  1  0  0  0  0
 13  4  1  0  0  0  0
 15  5  1  0  0  0  0
 17 30  1  0  0  0  0
 17 18  1  0  0  0  0
 18 19  2  0  0  0  0
 18 23  1  0  0  0  0
 19 24  1  0  0  0  0
 20 25  1  0  0  0  0
 20 19  1  0  0  0  0
 21 20  2  0  0  0  0
 22 21  1  0  0  0  0
 22 17  2  0  0  0  0
 26 27  1  0  0  0  0
 27 28  2  0  0  0  0
 28 34  1  0  0  0  0
 29 28  1  0  0  0  0
 30 29  2  0  0  0  0
 31 26  2  0  0  0  0
 31 30  1  0  0  0  0
 32 26  1  0  0  0  0
 33 27  1  0  0  0  0
 35 36  2  0  0  0  0
 35 42  1  0  0  0  0
 36 38  1  0  0  0  0
 37 36  1  0  0  0  0
 38 40  2  0  0  0  0
 38 39  1  0  0  0  0
 40 41  1  0  0  0  0
 42 40  1  0  0  0  0
M  END
>  <minimizedAffinity>
-5.53530073

$$$$

 OpenBabel03242514073D

 42 45  0  0  1  0  0  0  0  0999 V2000
   36.7600   29.2520   39.1820 C   0  0  1  0  0  0  0  0  0  0  0  0
   36.8950   30.3030   38.0640 C   0  0  0  0  0  0  0  0  0  0  0  0
   37.8400   31.3530   38.6740 C   0  0  0  0  0  0  0  0  0  0  0  0
   36.9850   32.0800   39.7080 C   0  0  0  0  0  0  0  0  0  0  0  0
   36.4160   31.1840   40.7330 C   0  0  0  0  0  0  0  0  0  0  0  0
   36.1180   29.7770   40.3790 C   0  0  2  0  0  0  0  0  0  0  0  0
   37.8500   29.0000   39.4020 H   0  0  0  0  0  0  0  0  0  0  0  0
   35.9050   30.7730   37.9770 H   0  0  0  0  0  0  0  0  0  0  0  0
   37.3010   29.8870   37.1470 H   0  0  0  0  0  0  0  0  0  0  0  0
   38.1640   32.0680   37.9120 H   0  0  0  0  0  0  0  0  0  0  0  0
   38.6410   30.7850   39.1610 H   0  0  0  0  0  0  0  0  0  0  0  0
   37.6160   32.8620   40.1570 H   0  0  0  0  0  0  0  0  0  0  0  0
   36.1250   32.5260   39.1350 H   0  0  0  0  0  0  0  0  0  0  0  0
   37.1360   31.2010   41.6030 H   0  0  0  0  0  0  0  0  0  0  0  0
   35.4990   31.6880   41.1570 H   0  0  0  0  0  0  0  0  0  0  0  0
   35.0000   29.6920   40.2900 H   0  0  0  0  0  0  0  0  0  0  0  0
   36.1660   25.6530   38.6640 C   0  0  0  0  0  0  0  0  0  0  0  0
   35.1050   25.6830   37.7960 C   0  0  0  0  0  0  0  0  0  0  0  0
   34.5190   26.8340   37.3160 C   0  0  0  0  0  0  0  0  0  0  0  0
   35.1080   28.0080   37.7970 C   0  0  0  0  0  0  0  0  0  0  0  0
   36.1850   27.9950   38.6840 C   0  0  0  0  0  0  0  0  0  0  0  0
   36.7040   26.8190   39.1080 N   0  0  0  0  0  0  0  0  0  0  0  0
   34.7150   24.7250   37.4780 H   0  0  0  0  0  0  0  0  0  0  0  0
   33.6980   26.8360   36.6440 H   0  0  0  0  0  0  0  0  0  0  0  0
   34.6510   28.9070   37.4080 H   0  0  0  0  0  0  0  0  0  0  0  0
   37.2470   22.1580   38.7430 C   0  0  0  0  0  0  0  0  0  0  0  0
   37.8480   22.0130   39.9830 C   0  0  0  0  0  0  0  0  0  0  0  0
   37.8740   23.1450   40.7920 C   0  0  0  0  0  0  0  0  0  0  0  0
   37.3160   24.3020   40.3200 N   0  0  0  0  0  0  0  0  0  0  0  0
   36.7400   24.3810   39.0910 C   0  0  0  0  0  0  0  0  0  0  0  0
   36.7040   23.3300   38.3130 N   0  0  0  0  0  0  0  0  0  0  0  0
   37.1770   21.3270   38.0320 H   0  0  0  0  0  0  0  0  0  0  0  0
   38.2580   21.0520   40.2570 H   0  0  0  0  0  0  0  0  0  0  0  0
   38.3260   23.0780   41.7540 H   0  0  0  0  0  0  0  0  0  0  0  0
   36.5340   28.9770   41.5930 C   0  0  0  0  0  0  0  0  0  0  0  0
   37.6020   29.5800   42.2300 C   0  0  0  0  0  0  0  0  0  0  0  0
   38.2410   30.4700   42.1150 H   0  0  0  0  0  0  0  0  0  0  0  0
   37.9710   28.8270   43.3490 C   0  0  0  0  0  0  0  0  0  0  0  0
   38.7160   28.8990   44.1190 H   0  0  0  0  0  0  0  0  0  0  0  0
   37.0660   27.7750   43.3150 C   0  0  0  0  0  0  0  0  0  0  0  0
   36.8890   26.9050   43.9300 H   0  0  0  0  0  0  0  0  0  0  0  0
   36.2750   27.9060   42.3020 O   0  0  0  0  0  0  0  0  0  0  0  0
  1  7  1  1  0  0  0
  1  6  1  0  0  0  0
  2  3  1  0  0  0  0
  2  1  1  0  0  0  0
  3 11  1  0  0  0  0
  3  4  1  0  0  0  0
  4 12  1  0  0  0  0
  4  5  1  0  0  0  0
  5 15  1  0  0  0  0
  5 14  1  0  0  0  0
  6 16  1  6  0  0  0
  6  5  1  0  0  0  0
  6 35  1  0  0  0  0
  8  2  1  0  0  0  0
  9  2  1  0  0  0  0
 10  3  1  0  0  0  0
 13  4  1  0  0  0  0
 17 30  1  0  0  0  0
 17 22  1  0  0  0  0
 18 17  2  0  0  0  0
 19 18  1  0  0  0  0
 19 20  2  0  0  0  0
 20 21  1  0  0  0  0
 21 22  2  0  0  0  0
 21  1  1  0  0  0  0
 23 18  1  0  0  0  0
 24 19  1  0  0  0  0
 25 20  1  0  0  0  0
 26 27  1  0  0  0  0
 27 33  1  0  0  0  0
 27 28  2  0  0  0  0
 28 34  1  0  0  0  0
 29 28  1  0  0  0  0
 30 29  2  0  0  0  0
 31 26  2  0  0  0  0
 31 30  1  0  0  0  0
 32 26  1  0  0  0  0
 35 36  2  0  0  0  0
 35 42  1  0  0  0  0
 36 38  1  0  0  0  0
 37 36  1  0  0  0  0
 38 39  1  0  0  0  0
 40 38  2  0  0  0  0
 40 41  1  0  0  0  0
 42 40  1  0  0  0  0
M  END
>  <minimizedAffinity>
-5.52039623

$$$$

 OpenBabel03242514073D

 42 45  0  0  1  0  0  0  0  0999 V2000
   37.9150   30.4600   40.6930 C   0  0  1  0  0  0  0  0  0  0  0  0
   36.5900   31.1600   40.3370 C   0  0  0  0  0  0  0  0  0  0  0  0
   36.9910   32.1360   39.2190 C   0  0  0  0  0  0  0  0  0  0  0  0
   37.7640   33.2400   39.9350 C   0  0  0  0  0  0  0  0  0  0  0  0
   38.9340   32.7440   40.6860 C   0  0  0  0  0  0  0  0  0  0  0  0
   38.9070   31.3720   41.2440 C   0  0  2  0  0  0  0  0  0  0  0  0
   38.2590   30.0750   39.6770 H   0  0  0  0  0  0  0  0  0  0  0  0
   36.3290   31.7660   41.2160 H   0  0  0  0  0  0  0  0  0  0  0  0
   35.8270   30.4630   40.0020 H   0  0  0  0  0  0  0  0  0  0  0  0
   36.1040   32.5700   38.7490 H   0  0  0  0  0  0  0  0  0  0  0  0
   37.6510   31.5690   38.5510 H   0  0  0  0  0  0  0  0  0  0  0  0
   38.0540   33.9790   39.1740 H   0  0  0  0  0  0  0  0  0  0  0  0
   37.0470   33.6800   40.6830 H   0  0  0  0  0  0  0  0  0  0  0  0
   39.8200   32.8430   39.9920 H   0  0  0  0  0  0  0  0  0  0  0  0
   39.1650   33.4950   41.4960 H   0  0  0  0  0  0  0  0  0  0  0  0
   38.7700   31.4730   42.3550 H   0  0  0  0  0  0  0  0  0  0  0  0
   37.3450   26.9320   41.5880 C   0  0  0  0  0  0  0  0  0  0  0  0
   37.3270   27.0070   42.9580 C   0  0  0  0  0  0  0  0  0  0  0  0
   37.4840   28.1700   43.6800 C   0  0  0  0  0  0  0  0  0  0  0  0
   37.6700   29.3060   42.8840 C   0  0  0  0  0  0  0  0  0  0  0  0
   37.6950   29.2460   41.4900 C   0  0  0  0  0  0  0  0  0  0  0  0
   37.5310   28.0600   40.8560 N   0  0  0  0  0  0  0  0  0  0  0  0
   37.1770   26.0760   43.4900 H   0  0  0  0  0  0  0  0  0  0  0  0
   37.4660   28.2070   44.7400 H   0  0  0  0  0  0  0  0  0  0  0  0
   37.7800   30.2150   43.4560 H   0  0  0  0  0  0  0  0  0  0  0  0
   36.2710   24.3790   39.1960 C   0  0  0  0  0  0  0  0  0  0  0  0
   36.7860   23.1970   39.7030 C   0  0  0  0  0  0  0  0  0  0  0  0
   37.5110   23.2970   40.8860 C   0  0  0  0  0  0  0  0  0  0  0  0
   37.6660   24.5300   41.4590 N   0  0  0  0  0  0  0  0  0  0  0  0
   37.1360   25.6560   40.9120 C   0  0  0  0  0  0  0  0  0  0  0  0
   36.4490   25.5860   39.7990 N   0  0  0  0  0  0  0  0  0  0  0  0
   35.6870   24.4070   38.2700 H   0  0  0  0  0  0  0  0  0  0  0  0
   36.6040   22.2750   39.1700 H   0  0  0  0  0  0  0  0  0  0  0  0
   37.9250   22.4120   41.3120 H   0  0  0  0  0  0  0  0  0  0  0  0
   40.3020   30.8340   41.0120 C   0  0  0  0  0  0  0  0  0  0  0  0
   40.6650   30.9780   39.6860 C   0  0  0  0  0  0  0  0  0  0  0  0
   40.2400   31.3670   38.7470 H   0  0  0  0  0  0  0  0  0  0  0  0
   41.9560   30.4760   39.4920 C   0  0  0  0  0  0  0  0  0  0  0  0
   42.6320   30.3760   38.6640 H   0  0  0  0  0  0  0  0  0  0  0  0
   42.3040   30.0440   40.7650 C   0  0  0  0  0  0  0  0  0  0  0  0
   43.1780   29.5780   41.1960 H   0  0  0  0  0  0  0  0  0  0  0  0
   41.3340   30.2680   41.5880 O   0  0  0  0  0  0  0  0  0  0  0  0
  1  7  1  6  0  0  0
  1  6  1  0  0  0  0
  1 21  1  0  0  0  0
  2  1  1  0  0  0  0
  2  8  1  0  0  0  0
  3  4  1  0  0  0  0
  3  2  1  0  0  0  0
  4 13  1  0  0  0  0
  4  5  1  0  0  0  0
  5  6  1  0  0  0  0
  5 15  1  0  0  0  0
  6 16  1  1  0  0  0
  9  2  1  0  0  0  0
 10  3  1  0  0  0  0
 11  3  1  0  0  0  0
 12  4  1  0  0  0  0
 14  5  1  0  0  0  0
 17 18  1  0  0  0  0
 18 23  1  0  0  0  0
 18 19  2  0  0  0  0
 19 24  1  0  0  0  0
 20 25  1  0  0  0  0
 20 19  1  0  0  0  0
 21 20  2  0  0  0  0
 22 21  1  0  0  0  0
 22 17  2  0  0  0  0
 26 27  2  0  0  0  0
 26 31  1  0  0  0  0
 27 28  1  0  0  0  0
 28 34  1  0  0  0  0
 28 29  2  0  0  0  0
 30 29  1  0  0  0  0
 30 17  1  0  0  0  0
 31 30  2  0  0  0  0
 32 26  1  0  0  0  0
 33 27  1  0  0  0  0
 35  6  1  0  0  0  0
 35 42  1  0  0  0  0
 36 35  2  0  0  0  0
 37 36  1  0  0  0  0
 38 36  1  0  0  0  0
 38 40  2  0  0  0  0
 39 38  1  0  0  0  0
 40 41  1  0  0  0  0
 40 42  1  0  0  0  0
M  END
>  <minimizedAffinity>
-5.50280905

$$$$

 OpenBabel03242514073D

 42 45  0  0  1  0  0  0  0  0999 V2000
   37.2450   29.9950   40.3680 C   0  0  1  0  0  0  0  0  0  0  0  0
   37.8770   31.3470   40.7510 C   0  0  0  0  0  0  0  0  0  0  0  0
   37.2150   32.3380   39.7800 C   0  0  0  0  0  0  0  0  0  0  0  0
   37.8620   32.0420   38.4300 C   0  0  0  0  0  0  0  0  0  0  0  0
   37.6940   30.6420   37.9940 C   0  0  0  0  0  0  0  0  0  0  0  0
   37.5810   29.5750   39.0160 C   0  0  2  0  0  0  0  0  0  0  0  0
   36.1310   30.2280   40.4400 H   0  0  0  0  0  0  0  0  0  0  0  0
   38.9350   31.2710   40.4620 H   0  0  0  0  0  0  0  0  0  0  0  0
   37.6900   31.6170   41.7860 H   0  0  0  0  0  0  0  0  0  0  0  0
   37.4430   33.3690   40.0670 H   0  0  0  0  0  0  0  0  0  0  0  0
   36.1500   32.0760   39.7670 H   0  0  0  0  0  0  0  0  0  0  0  0
   37.4330   32.7480   37.7040 H   0  0  0  0  0  0  0  0  0  0  0  0
   38.9650   32.2190   38.5740 H   0  0  0  0  0  0  0  0  0  0  0  0
   36.7750   30.6230   37.3380 H   0  0  0  0  0  0  0  0  0  0  0  0
   38.5260   30.4080   37.2680 H   0  0  0  0  0  0  0  0  0  0  0  0
   38.5550   29.0140   39.0120 H   0  0  0  0  0  0  0  0  0  0  0  0
   38.9630   27.7010   42.6830 C   0  0  0  0  0  0  0  0  0  0  0  0
   37.8950   27.1190   43.3180 C   0  0  0  0  0  0  0  0  0  0  0  0
   36.5750   27.4070   43.0520 C   0  0  0  0  0  0  0  0  0  0  0  0
   36.3990   28.3690   42.0520 C   0  0  0  0  0  0  0  0  0  0  0  0
   37.4740   28.9730   41.3980 C   0  0  0  0  0  0  0  0  0  0  0  0
   38.7440   28.6330   41.7200 N   0  0  0  0  0  0  0  0  0  0  0  0
   38.1290   26.3850   44.0790 H   0  0  0  0  0  0  0  0  0  0  0  0
   35.7630   26.9450   43.5550 H   0  0  0  0  0  0  0  0  0  0  0  0
   35.3610   28.5810   41.8390 H   0  0  0  0  0  0  0  0  0  0  0  0
   42.5030   27.7970   43.6050 C   0  0  0  0  0  0  0  0  0  0  0  0
   42.8900   26.4670   43.6190 C   0  0  0  0  0  0  0  0  0  0  0  0
   41.9050   25.5350   43.3050 C   0  0  0  0  0  0  0  0  0  0  0  0
   40.6460   25.9840   43.0090 N   0  0  0  0  0  0  0  0  0  0  0  0
   40.3280   27.3060   43.0120 C   0  0  0  0  0  0  0  0  0  0  0  0
   41.2380   28.2010   43.3050 N   0  0  0  0  0  0  0  0  0  0  0  0
   43.2030   28.6070   43.8390 H   0  0  0  0  0  0  0  0  0  0  0  0
   43.9120   26.2200   43.8670 H   0  0  0  0  0  0  0  0  0  0  0  0
   42.1580   24.5000   43.3030 H   0  0  0  0  0  0  0  0  0  0  0  0
   36.5220   28.6370   38.4770 C   0  0  0  0  0  0  0  0  0  0  0  0
   35.3040   29.2830   38.3810 C   0  0  0  0  0  0  0  0  0  0  0  0
   34.8750   30.2780   38.5800 H   0  0  0  0  0  0  0  0  0  0  0  0
   34.3400   28.4010   37.8820 C   0  0  0  0  0  0  0  0  0  0  0  0
   33.2940   28.4510   37.6450 H   0  0  0  0  0  0  0  0  0  0  0  0
   35.0670   27.2320   37.7020 C   0  0  0  0  0  0  0  0  0  0  0  0
   34.8340   26.2400   37.3450 H   0  0  0  0  0  0  0  0  0  0  0  0
   36.2960   27.4180   38.0540 O   0  0  0  0  0  0  0  0  0  0  0  0
  1  7  1  6  0  0  0
  1  2  1  0  0  0  0
  1 21  1  0  0  0  0
  2  9  1  0  0  0  0
  3 10  1  0  0  0  0
  3  2  1  0  0  0  0
  4 13  1  0  0  0  0
  4  3  1  0  0  0  0
  5  4  1  0  0  0  0
  5  6  1  0  0  0  0
  6 16  1  1  0  0  0
  6  1  1  0  0  0  0
  8  2  1  0  0  0  0
 11  3  1  0  0  0  0
 12  4  1  0  0  0  0
 14  5  1  0  0  0  0
 15  5  1  0  0  0  0
 17 30  1  0  0  0  0
 17 18  1  0  0  0  0
 18 23  1  0  0  0  0
 19 18  2  0  0  0  0
 19 24  1  0  0  0  0
 20 19  1  0  0  0  0
 21 22  1  0  0  0  0
 21 20  2  0  0  0  0
 22 17  2  0  0  0  0
 25 20  1  0  0  0  0
 26 27  1  0  0  0  0
 26 32  1  0  0  0  0
 27 33  1  0  0  0  0
 28 27  2  0  0  0  0
 29 30  2  0  0  0  0
 29 28  1  0  0  0  0
 30 31  1  0  0  0  0
 31 26  2  0  0  0  0
 34 28  1  0  0  0  0
 35  6  1  0  0  0  0
 36 35  2  0  0  0  0
 36 37  1  0  0  0  0
 38 36  1  0  0  0  0
 39 38  1  0  0  0  0
 40 38  2  0  0  0  0
 40 42  1  0  0  0  0
 41 40  1  0  0  0  0
 42 35  1  0  0  0  0
M  END
>  <minimizedAffinity>
-5.4629817

$$$$
