
 OpenBabel03252509113D

 30 33  0  0  0  0  0  0  0  0999 V2000
   43.5430   29.7080   39.8210 C   0  0  0  0  0  0  0  0  0  0  0  0
   43.7040   31.0650   40.0450 C   0  0  0  0  0  0  0  0  0  0  0  0
   43.0110   31.7370   41.0320 C   0  0  0  0  0  0  0  0  0  0  0  0
   42.1130   31.0460   41.8400 C   0  0  0  0  0  0  0  0  0  0  0  0
   41.2860   31.3610   42.8700 N   0  0  0  0  0  0  0  0  0  0  0  0
   40.6350   30.2430   43.2700 C   0  0  0  0  0  0  0  0  0  0  0  0
   41.0710   29.2450   42.4790 N   0  0  0  0  0  0  0  0  0  0  0  0
   41.9760   29.7020   41.5910 C   0  0  0  0  0  0  0  0  0  0  0  0
   42.6480   28.9940   40.6190 C   0  0  0  0  0  0  0  0  0  0  0  0
   44.1050   29.2120   39.0360 H   0  0  0  0  0  0  0  0  0  0  0  0
   41.2400   32.3370   43.2150 H   0  0  0  0  0  0  0  0  0  0  0  0
   39.9160   30.2440   44.0820 H   0  0  0  0  0  0  0  0  0  0  0  0
   42.4870   27.9350   40.4840 H   0  0  0  0  0  0  0  0  0  0  0  0
   46.7520   32.7390   38.8660 C   0  0  0  0  0  0  0  0  0  0  0  0
   46.3600   33.2560   37.6310 C   0  0  0  0  0  0  0  0  0  0  0  0
   45.0410   33.0280   37.2030 C   0  0  0  0  0  0  0  0  0  0  0  0
   44.2370   32.3080   38.0410 N   0  0  0  0  0  0  0  0  0  0  0  0
   44.6320   31.8200   39.2190 C   0  0  0  0  0  0  0  0  0  0  0  0
   45.8950   32.0300   39.6440 N   0  0  0  0  0  0  0  0  0  0  0  0
   47.7760   32.9210   39.1870 H   0  0  0  0  0  0  0  0  0  0  0  0
   47.0390   33.8180   37.0120 H   0  0  0  0  0  0  0  0  0  0  0  0
   44.6820   33.4060   36.2550 H   0  0  0  0  0  0  0  0  0  0  0  0
   43.1610   33.1660   41.2910 C   0  0  0  0  0  0  0  0  0  0  0  0
   42.2100   33.9600   40.6450 C   0  0  0  0  0  0  0  0  0  0  0  0
   41.3690   33.8010   39.9870 H   0  0  0  0  0  0  0  0  0  0  0  0
   42.4890   35.2870   40.9930 C   0  0  0  0  0  0  0  0  0  0  0  0
   41.9840   36.2180   40.7000 H   0  0  0  0  0  0  0  0  0  0  0  0
   43.6020   35.2040   41.8330 C   0  0  0  0  0  0  0  0  0  0  0  0
   44.1400   36.0090   42.3260 H   0  0  0  0  0  0  0  0  0  0  0  0
   43.9520   33.9450   41.9730 O   0  0  0  0  0  0  0  0  0  0  0  0
  1  2  2  0  0  0  0
  1  9  1  0  0  0  0
  2  3  1  0  0  0  0
  3 23  1  0  0  0  0
  3  4  2  0  0  0  0
  4  5  1  0  0  0  0
  5 11  1  0  0  0  0
  5  6  1  0  0  0  0
  6 12  1  0  0  0  0
  7  6  2  0  0  0  0
  8  4  1  0  0  0  0
  8  7  1  0  0  0  0
  9  8  2  0  0  0  0
 10  1  1  0  0  0  0
 13  9  1  0  0  0  0
 14 20  1  0  0  0  0
 14 19  1  0  0  0  0
 15 14  2  0  0  0  0
 16 15  1  0  0  0  0
 16 17  2  0  0  0  0
 17 18  1  0  0  0  0
 18 19  2  0  0  0  0
 18  2  1  0  0  0  0
 21 15  1  0  0  0  0
 22 16  1  0  0  0  0
 23 30  1  0  0  0  0
 24 26  1  0  0  0  0
 24 23  2  0  0  0  0
 25 24  1  0  0  0  0
 26 28  2  0  0  0  0
 27 26  1  0  0  0  0
 28 30  1  0  0  0  0
 28 29  1  0  0  0  0
M  END
>  <minimizedAffinity>
-3.38703561

>  <minimizedRMSD>
6.29751778

$$$$
