
 OpenBabel03252500153D

 37 40  0  0  0  0  0  0  0  0999 V2000
   45.5480   32.3770   40.4780 Cl  0  0  0  0  0  0  0  0  0  0  0  0
   46.8300   33.4890   40.1410 C   0  0  0  0  0  0  0  0  0  0  0  0
   47.3920   34.2240   41.1380 C   0  0  0  0  0  0  0  0  0  0  0  0
   48.4290   35.1320   40.9090 C   0  0  0  0  0  0  0  0  0  0  0  0
   48.8480   35.2380   39.6040 C   0  0  0  0  0  0  0  0  0  0  0  0
   48.2790   34.4920   38.5860 C   0  0  0  0  0  0  0  0  0  0  0  0
   47.2880   33.6340   38.8450 C   0  0  0  0  0  0  0  0  0  0  0  0
   48.8840   35.7220   41.6960 H   0  0  0  0  0  0  0  0  0  0  0  0
   49.6580   35.9320   39.3510 H   0  0  0  0  0  0  0  0  0  0  0  0
   48.6360   34.6020   37.5610 H   0  0  0  0  0  0  0  0  0  0  0  0
   46.8860   32.8980   44.5410 C   0  0  0  0  0  0  0  0  0  0  0  0
   45.9430   33.8140   45.0930 C   0  0  0  0  0  0  0  0  0  0  0  0
   45.5090   34.8530   44.2890 C   0  0  0  0  0  0  0  0  0  0  0  0
   45.9980   34.9580   43.0120 N   0  0  0  0  0  0  0  0  0  0  0  0
   46.8970   34.0650   42.5230 C   0  0  0  0  0  0  0  0  0  0  0  0
   47.3240   33.0520   43.2960 N   0  0  0  0  0  0  0  0  0  0  0  0
   47.1880   32.1140   45.2060 H   0  0  0  0  0  0  0  0  0  0  0  0
   45.5300   33.7780   46.0830 H   0  0  0  0  0  0  0  0  0  0  0  0
   44.5210   35.8760   44.7550 C   0  0  0  0  0  0  0  0  0  0  0  0
   44.9850   37.1450   44.5270 F   0  0  0  0  0  0  0  0  0  0  0  0
   43.3320   35.6920   44.0510 F   0  0  0  0  0  0  0  0  0  0  0  0
   44.3060   35.6470   46.0840 F   0  0  0  0  0  0  0  0  0  0  0  0
   46.6650   32.8300   37.7920 C   0  0  0  0  0  0  0  0  0  0  0  0
   45.6230   33.2760   36.9710 C   0  0  0  0  0  0  0  0  0  0  0  0
   45.2790   32.2690   36.0940 C   0  0  0  0  0  0  0  0  0  0  0  0
   46.1510   31.2400   36.4350 C   0  0  0  0  0  0  0  0  0  0  0  0
   46.9440   31.6000   37.4270 O   0  0  0  0  0  0  0  0  0  0  0  0
   45.1550   34.2480   37.0080 H   0  0  0  0  0  0  0  0  0  0  0  0
   44.5250   32.2440   35.3170 H   0  0  0  0  0  0  0  0  0  0  0  0
   46.1910   29.9330   35.7880 C   0  0  0  0  0  0  0  0  0  0  0  0
   45.6580   28.7570   36.2720 C   0  0  0  0  0  0  0  0  0  0  0  0
   45.1390   28.7140   37.2240 H   0  0  0  0  0  0  0  0  0  0  0  0
   45.8830   27.7150   35.3950 C   0  0  0  0  0  0  0  0  0  0  0  0
   45.5840   26.6810   35.5020 H   0  0  0  0  0  0  0  0  0  0  0  0
   46.5750   28.3340   34.3700 C   0  0  0  0  0  0  0  0  0  0  0  0
   46.9410   27.8360   33.4680 H   0  0  0  0  0  0  0  0  0  0  0  0
   46.7410   29.6200   34.6220 O   0  0  0  0  0  0  0  0  0  0  0  0
  2  1  1  0  0  0  0
  2  3  1  0  0  0  0
  3 15  1  0  0  0  0
  4  3  2  0  0  0  0
  4  8  1  0  0  0  0
  5  4  1  0  0  0  0
  6  7  1  0  0  0  0
  6  5  2  0  0  0  0
  7  2  2  0  0  0  0
  9  5  1  0  0  0  0
 10  6  1  0  0  0  0
 11 12  1  0  0  0  0
 11 17  1  0  0  0  0
 12 18  1  0  0  0  0
 13 19  1  0  0  0  0
 13 12  2  0  0  0  0
 14 13  1  0  0  0  0
 15 14  2  0  0  0  0
 15 16  1  0  0  0  0
 16 11  2  0  0  0  0
 19 22  1  0  0  0  0
 20 19  1  0  0  0  0
 21 19  1  0  0  0  0
 23  7  1  0  0  0  0
 24 28  1  0  0  0  0
 24 23  2  0  0  0  0
 25 26  2  0  0  0  0
 25 24  1  0  0  0  0
 26 27  1  0  0  0  0
 27 23  1  0  0  0  0
 29 25  1  0  0  0  0
 30 31  2  0  0  0  0
 30 26  1  0  0  0  0
 31 32  1  0  0  0  0
 33 34  1  0  0  0  0
 33 31  1  0  0  0  0
 35 37  1  0  0  0  0
 35 33  2  0  0  0  0
 36 35  1  0  0  0  0
 37 30  1  0  0  0  0
M  END
>  <minimizedAffinity>
-5.63619566

>  <minimizedRMSD>
0.217027754

$$$$
