
 OpenBabel03252504423D

 44 47  0  0  0  0  0  0  0  0999 V2000
   46.3490   32.2030   47.8190 C   0  0  0  0  0  0  0  0  0  0  0  0
   45.8960   31.7930   49.0330 C   0  0  0  0  0  0  0  0  0  0  0  0
   46.8900   31.1140   49.6110 N   0  0  0  0  0  0  0  0  0  0  0  0
   47.9640   31.0750   48.8110 C   0  0  0  0  0  0  0  0  0  0  0  0
   47.6070   31.7600   47.6970 N   0  0  0  0  0  0  0  0  0  0  0  0
   49.2400   30.4820   48.9790 N   0  0  0  0  0  0  0  0  0  0  0  0
   50.2950   31.2670   49.6110 C   0  0  0  0  0  0  0  0  0  0  0  0
   50.4070   30.6980   51.0250 C   0  0  0  0  0  0  0  0  0  0  0  0
   50.4890   29.1910   50.9750 C   0  0  0  0  0  0  0  0  0  0  0  0
   50.8370   28.7490   49.5750 C   0  0  0  0  0  0  0  0  0  0  0  0
   49.7310   29.1670   48.6240 C   0  0  0  0  0  0  0  0  0  0  0  0
   44.9060   32.0020   49.4170 H   0  0  0  0  0  0  0  0  0  0  0  0
   46.8560   30.6690   50.5540 H   0  0  0  0  0  0  0  0  0  0  0  0
   49.9730   32.3350   49.7280 H   0  0  0  0  0  0  0  0  0  0  0  0
   51.2490   31.2150   49.0760 H   0  0  0  0  0  0  0  0  0  0  0  0
   49.4360   30.9980   51.5140 H   0  0  0  0  0  0  0  0  0  0  0  0
   51.2120   31.1510   51.6120 H   0  0  0  0  0  0  0  0  0  0  0  0
   49.5320   28.7190   51.2860 H   0  0  0  0  0  0  0  0  0  0  0  0
   51.3110   28.8800   51.6640 H   0  0  0  0  0  0  0  0  0  0  0  0
   50.9600   27.6550   49.5280 H   0  0  0  0  0  0  0  0  0  0  0  0
   51.7960   29.2580   49.3000 H   0  0  0  0  0  0  0  0  0  0  0  0
   50.1680   29.2840   47.5930 H   0  0  0  0  0  0  0  0  0  0  0  0
   48.9080   28.4370   48.6340 H   0  0  0  0  0  0  0  0  0  0  0  0
   45.6040   32.9980   46.8010 C   0  0  0  0  0  0  0  0  0  0  0  0
   45.3180   33.9950   47.2130 H   0  0  0  0  0  0  0  0  0  0  0  0
   44.6770   32.4560   46.5050 H   0  0  0  0  0  0  0  0  0  0  0  0
   46.0190   33.9340   44.5600 C   0  0  0  0  0  0  0  0  0  0  0  0
   46.4110   33.1880   45.5810 C   0  0  0  0  0  0  0  0  0  0  0  0
   46.9180   34.0380   43.4090 C   0  0  0  0  0  0  0  0  0  0  0  0
   46.7490   35.0630   42.4380 C   0  0  0  0  0  0  0  0  0  0  0  0
   47.6480   35.0850   41.3820 C   0  0  0  0  0  0  0  0  0  0  0  0
   48.6260   34.1560   41.3150 N   0  0  0  0  0  0  0  0  0  0  0  0
   48.7610   33.1920   42.2550 C   0  0  0  0  0  0  0  0  0  0  0  0
   47.9290   33.1370   43.2750 N   0  0  0  0  0  0  0  0  0  0  0  0
   45.9500   35.7670   42.5560 H   0  0  0  0  0  0  0  0  0  0  0  0
   47.5420   35.8480   40.6350 H   0  0  0  0  0  0  0  0  0  0  0  0
   49.8640   32.2600   42.0490 C   0  0  0  0  0  0  0  0  0  0  0  0
   49.8640   31.0480   42.7430 C   0  0  0  0  0  0  0  0  0  0  0  0
   49.1320   30.6580   43.4590 H   0  0  0  0  0  0  0  0  0  0  0  0
   51.0090   30.3630   42.3670 C   0  0  0  0  0  0  0  0  0  0  0  0
   51.2950   29.4020   42.7270 H   0  0  0  0  0  0  0  0  0  0  0  0
   51.6420   31.2080   41.4580 C   0  0  0  0  0  0  0  0  0  0  0  0
   52.5750   30.9250   40.9930 H   0  0  0  0  0  0  0  0  0  0  0  0
   50.9310   32.3210   41.2970 O   0  0  0  0  0  0  0  0  0  0  0  0
  1  2  2  0  0  0  0
  2 12  1  0  0  0  0
  2  3  1  0  0  0  0
  3 13  1  0  0  0  0
  4  6  1  0  0  0  0
  4  3  1  0  0  0  0
  5  1  1  0  0  0  0
  5  4  2  0  0  0  0
  6  7  1  0  0  0  0
  7 14  1  0  0  0  0
  7  8  1  0  0  0  0
  8 16  1  0  0  0  0
  8 17  1  0  0  0  0
  9  8  1  0  0  0  0
  9 18  1  0  0  0  0
  9 19  1  0  0  0  0
 10  9  1  0  0  0  0
 11 23  1  0  0  0  0
 11  6  1  0  0  0  0
 11 10  1  0  0  0  0
 15  7  1  0  0  0  0
 20 10  1  0  0  0  0
 21 10  1  0  0  0  0
 22 11  1  0  0  0  0
 24 25  1  0  0  0  0
 24  1  1  0  0  0  0
 26 24  1  0  0  0  0
 27 28  2  0  0  0  0
 28 24  1  0  0  0  0
 29 27  1  0  0  0  0
 30 35  1  0  0  0  0
 30 29  2  0  0  0  0
 31 30  1  0  0  0  0
 32 31  2  0  0  0  0
 32 33  1  0  0  0  0
 33 34  2  0  0  0  0
 34 29  1  0  0  0  0
 36 31  1  0  0  0  0
 37 33  1  0  0  0  0
 37 38  2  0  0  0  0
 38 39  1  0  0  0  0
 40 41  1  0  0  0  0
 40 38  1  0  0  0  0
 42 40  2  0  0  0  0
 43 42  1  0  0  0  0
 44 42  1  0  0  0  0
 44 37  1  0  0  0  0
M  END
>  <minimizedAffinity>
-5.92868996

>  <minimizedRMSD>
0.434025437

$$$$
