
 OpenBabel03252507263D

 26 28  0  0  0  0  0  0  0  0999 V2000
   45.5950   34.0750   45.5090 C   0  0  0  0  0  0  0  0  0  0  0  0
   44.6590   35.1030   45.7090 C   0  0  0  0  0  0  0  0  0  0  0  0
   44.4370   35.9930   44.6570 C   0  0  0  0  0  0  0  0  0  0  0  0
   45.1360   35.8260   43.4860 N   0  0  0  0  0  0  0  0  0  0  0  0
   46.0270   34.8170   43.3470 C   0  0  0  0  0  0  0  0  0  0  0  0
   46.2620   33.9450   44.3410 N   0  0  0  0  0  0  0  0  0  0  0  0
   44.1450   35.1700   46.6650 H   0  0  0  0  0  0  0  0  0  0  0  0
   43.7200   36.7940   44.7850 H   0  0  0  0  0  0  0  0  0  0  0  0
   46.7390   34.6830   42.0890 C   0  0  0  0  0  0  0  0  0  0  0  0
   47.9520   35.3350   41.9020 C   0  0  0  0  0  0  0  0  0  0  0  0
   48.7150   35.2820   40.7530 C   0  0  0  0  0  0  0  0  0  0  0  0
   48.1670   34.4960   39.7450 C   0  0  0  0  0  0  0  0  0  0  0  0
   46.9580   33.8370   39.9150 C   0  0  0  0  0  0  0  0  0  0  0  0
   46.2630   33.9400   41.0830 N   0  0  0  0  0  0  0  0  0  0  0  0
   48.3090   35.9280   42.7340 H   0  0  0  0  0  0  0  0  0  0  0  0
   49.6510   35.8180   40.6790 H   0  0  0  0  0  0  0  0  0  0  0  0
   48.7140   34.4090   38.8170 H   0  0  0  0  0  0  0  0  0  0  0  0
   46.6060   33.2450   39.0780 H   0  0  0  0  0  0  0  0  0  0  0  0
   45.8600   33.1200   46.5800 C   0  0  0  0  0  0  0  0  0  0  0  0
   46.9550   32.2690   46.6430 C   0  0  0  0  0  0  0  0  0  0  0  0
   47.7730   32.1630   45.9380 H   0  0  0  0  0  0  0  0  0  0  0  0
   46.8600   31.5190   47.8000 C   0  0  0  0  0  0  0  0  0  0  0  0
   47.4970   30.7560   48.2140 H   0  0  0  0  0  0  0  0  0  0  0  0
   45.7120   31.9420   48.4000 C   0  0  0  0  0  0  0  0  0  0  0  0
   45.2040   31.6780   49.3040 H   0  0  0  0  0  0  0  0  0  0  0  0
   45.1560   32.8650   47.6750 O   0  0  0  0  0  0  0  0  0  0  0  0
  1  2  1  0  0  0  0
  1 19  1  0  0  0  0
  2  7  1  0  0  0  0
  3  8  1  0  0  0  0
  3  2  2  0  0  0  0
  4  3  1  0  0  0  0
  5  4  2  0  0  0  0
  5  6  1  0  0  0  0
  6  1  2  0  0  0  0
  9  5  1  0  0  0  0
 10  9  1  0  0  0  0
 10 15  1  0  0  0  0
 11 10  2  0  0  0  0
 12 13  2  0  0  0  0
 12 11  1  0  0  0  0
 13 14  1  0  0  0  0
 14  9  2  0  0  0  0
 16 11  1  0  0  0  0
 17 12  1  0  0  0  0
 18 13  1  0  0  0  0
 19 20  2  0  0  0  0
 19 26  1  0  0  0  0
 20 22  1  0  0  0  0
 21 20  1  0  0  0  0
 22 23  1  0  0  0  0
 22 24  2  0  0  0  0
 24 25  1  0  0  0  0
 26 24  1  0  0  0  0
M  END
>  <minimizedAffinity>
-5.92082453

>  <minimizedRMSD>
0.186055273

$$$$
