
 OpenBabel03242510363D

 20 21  0  0  0  0  0  0  0  0999 V2000
   39.9440   29.3260   42.7100 C   0  0  0  0  0  0  0  0  0  0  0  0
   38.8620   28.4230   42.8150 C   0  0  0  0  0  0  0  0  0  0  0  0
   37.6360   28.8020   42.2630 C   0  0  0  0  0  0  0  0  0  0  0  0
   37.5530   30.0210   41.6560 N   0  0  0  0  0  0  0  0  0  0  0  0
   38.6260   30.8560   41.5820 C   0  0  0  0  0  0  0  0  0  0  0  0
   39.8110   30.5140   42.1050 N   0  0  0  0  0  0  0  0  0  0  0  0
   40.8980   29.0390   43.1370 H   0  0  0  0  0  0  0  0  0  0  0  0
   39.0130   27.4560   43.3210 H   0  0  0  0  0  0  0  0  0  0  0  0
   38.4340   32.1390   40.9120 C   0  0  0  0  0  0  0  0  0  0  0  0
   37.2990   32.2850   40.1150 C   0  0  0  0  0  0  0  0  0  0  0  0
   36.4730   31.6250   39.8610 H   0  0  0  0  0  0  0  0  0  0  0  0
   37.3360   33.5770   39.5900 C   0  0  0  0  0  0  0  0  0  0  0  0
   36.6280   34.0810   38.9170 H   0  0  0  0  0  0  0  0  0  0  0  0
   38.5090   34.1370   40.1110 C   0  0  0  0  0  0  0  0  0  0  0  0
   38.8400   35.1460   39.8960 H   0  0  0  0  0  0  0  0  0  0  0  0
   39.1150   33.2560   40.8790 O   0  0  0  0  0  0  0  0  0  0  0  0
   36.5550   27.8320   42.3980 C   0  0  0  0  0  0  0  0  0  0  0  0
   36.9560   26.6390   41.7880 F   0  0  0  0  0  0  0  0  0  0  0  0
   35.5040   28.3000   41.6120 F   0  0  0  0  0  0  0  0  0  0  0  0
   36.2020   27.5660   43.6770 F   0  0  0  0  0  0  0  0  0  0  0  0
  1  2  1  0  0  0  0
  1  7  1  0  0  0  0
  2  8  1  0  0  0  0
  3 17  1  0  0  0  0
  3  2  2  0  0  0  0
  4  3  1  0  0  0  0
  5  4  2  0  0  0  0
  5  6  1  0  0  0  0
  6  1  2  0  0  0  0
  9  5  1  0  0  0  0
 10  9  2  0  0  0  0
 11 10  1  0  0  0  0
 12 14  2  0  0  0  0
 12 10  1  0  0  0  0
 13 12  1  0  0  0  0
 14 16  1  0  0  0  0
 15 14  1  0  0  0  0
 16  9  1  0  0  0  0
 17 20  1  0  0  0  0
 18 17  1  0  0  0  0
 19 17  1  0  0  0  0
M  END
>  <minimizedAffinity>
-4.79207706

$$$$

 OpenBabel03242510363D

 20 21  0  0  0  0  0  0  0  0999 V2000
   36.5610   27.9360   39.3760 C   0  0  0  0  0  0  0  0  0  0  0  0
   36.5870   27.1990   40.5810 C   0  0  0  0  0  0  0  0  0  0  0  0
   37.0080   27.8520   41.7410 C   0  0  0  0  0  0  0  0  0  0  0  0
   37.3730   29.1640   41.6440 N   0  0  0  0  0  0  0  0  0  0  0  0
   37.3310   29.8300   40.4580 C   0  0  0  0  0  0  0  0  0  0  0  0
   36.9300   29.2240   39.3330 N   0  0  0  0  0  0  0  0  0  0  0  0
   36.2360   27.4350   38.4720 H   0  0  0  0  0  0  0  0  0  0  0  0
   36.2760   26.1420   40.5740 H   0  0  0  0  0  0  0  0  0  0  0  0
   37.7400   31.2320   40.4600 C   0  0  0  0  0  0  0  0  0  0  0  0
   37.0500   32.1050   39.6190 C   0  0  0  0  0  0  0  0  0  0  0  0
   36.2280   31.9760   38.9190 H   0  0  0  0  0  0  0  0  0  0  0  0
   37.6160   33.3680   39.7950 C   0  0  0  0  0  0  0  0  0  0  0  0
   37.3580   34.3240   39.3170 H   0  0  0  0  0  0  0  0  0  0  0  0
   38.6250   33.1750   40.7440 C   0  0  0  0  0  0  0  0  0  0  0  0
   39.2670   33.9680   41.1110 H   0  0  0  0  0  0  0  0  0  0  0  0
   38.6580   31.9080   41.1030 O   0  0  0  0  0  0  0  0  0  0  0  0
   37.0140   27.0450   42.9560 C   0  0  0  0  0  0  0  0  0  0  0  0
   36.8180   25.7070   42.5950 F   0  0  0  0  0  0  0  0  0  0  0  0
   35.8680   27.3940   43.6680 F   0  0  0  0  0  0  0  0  0  0  0  0
   38.1550   27.1340   43.6790 F   0  0  0  0  0  0  0  0  0  0  0  0
  1  2  1  0  0  0  0
  2  3  2  0  0  0  0
  3 17  1  0  0  0  0
  4  3  1  0  0  0  0
  5  9  1  0  0  0  0
  5  4  2  0  0  0  0
  6  1  2  0  0  0  0
  6  5  1  0  0  0  0
  7  1  1  0  0  0  0
  8  2  1  0  0  0  0
  9 16  1  0  0  0  0
 10 12  1  0  0  0  0
 10  9  2  0  0  0  0
 11 10  1  0  0  0  0
 12 14  2  0  0  0  0
 13 12  1  0  0  0  0
 14 16  1  0  0  0  0
 14 15  1  0  0  0  0
 17 19  1  0  0  0  0
 17 20  1  0  0  0  0
 18 17  1  0  0  0  0
M  END
>  <minimizedAffinity>
-4.69783163

$$$$

 OpenBabel03242510363D

 20 21  0  0  0  0  0  0  0  0999 V2000
   36.1200   30.2090   41.0230 C   0  0  0  0  0  0  0  0  0  0  0  0
   36.6040   31.4580   40.5730 C   0  0  0  0  0  0  0  0  0  0  0  0
   37.9520   31.7540   40.7850 C   0  0  0  0  0  0  0  0  0  0  0  0
   38.7240   30.8220   41.4160 N   0  0  0  0  0  0  0  0  0  0  0  0
   38.2100   29.6320   41.8310 C   0  0  0  0  0  0  0  0  0  0  0  0
   36.9200   29.3270   41.6390 N   0  0  0  0  0  0  0  0  0  0  0  0
   35.0750   29.9730   40.8630 H   0  0  0  0  0  0  0  0  0  0  0  0
   35.9140   32.1560   40.0730 H   0  0  0  0  0  0  0  0  0  0  0  0
   39.1180   28.7020   42.4950 C   0  0  0  0  0  0  0  0  0  0  0  0
   38.5550   27.5910   43.1230 C   0  0  0  0  0  0  0  0  0  0  0  0
   37.5350   27.2350   43.2410 H   0  0  0  0  0  0  0  0  0  0  0  0
   39.6090   26.8630   43.6780 C   0  0  0  0  0  0  0  0  0  0  0  0
   39.5860   25.9260   44.2530 H   0  0  0  0  0  0  0  0  0  0  0  0
   40.7560   27.5910   43.3440 C   0  0  0  0  0  0  0  0  0  0  0  0
   41.7600   27.2940   43.6270 H   0  0  0  0  0  0  0  0  0  0  0  0
   40.4170   28.6580   42.6520 O   0  0  0  0  0  0  0  0  0  0  0  0
   38.3980   33.0550   40.3000 C   0  0  0  0  0  0  0  0  0  0  0  0
   38.8260   33.8090   41.3980 F   0  0  0  0  0  0  0  0  0  0  0  0
   37.2610   33.7150   39.8350 F   0  0  0  0  0  0  0  0  0  0  0  0
   39.4040   32.9980   39.3960 F   0  0  0  0  0  0  0  0  0  0  0  0
  1  6  1  0  0  0  0
  2  3  1  0  0  0  0
  2  1  2  0  0  0  0
  3  4  2  0  0  0  0
  4  5  1  0  0  0  0
  5  9  1  0  0  0  0
  6  5  2  0  0  0  0
  7  1  1  0  0  0  0
  8  2  1  0  0  0  0
  9 16  1  0  0  0  0
  9 10  2  0  0  0  0
 10 11  1  0  0  0  0
 10 12  1  0  0  0  0
 12 13  1  0  0  0  0
 14 15  1  0  0  0  0
 14 12  2  0  0  0  0
 16 14  1  0  0  0  0
 17  3  1  0  0  0  0
 17 18  1  0  0  0  0
 19 17  1  0  0  0  0
 20 17  1  0  0  0  0
M  END
>  <minimizedAffinity>
-4.47616053

$$$$

 OpenBabel03242510363D

 20 21  0  0  0  0  0  0  0  0999 V2000
   37.4120   27.0220   39.1640 C   0  0  0  0  0  0  0  0  0  0  0  0
   37.2500   26.4550   40.4480 C   0  0  0  0  0  0  0  0  0  0  0  0
   37.1170   27.3220   41.5360 C   0  0  0  0  0  0  0  0  0  0  0  0
   37.1520   28.6650   41.2960 N   0  0  0  0  0  0  0  0  0  0  0  0
   37.3100   29.1610   40.0380 C   0  0  0  0  0  0  0  0  0  0  0  0
   37.4400   28.3490   38.9810 N   0  0  0  0  0  0  0  0  0  0  0  0
   37.5170   26.3550   38.3160 H   0  0  0  0  0  0  0  0  0  0  0  0
   37.2330   25.3590   40.5570 H   0  0  0  0  0  0  0  0  0  0  0  0
   37.3340   30.6130   39.8870 C   0  0  0  0  0  0  0  0  0  0  0  0
   37.1870   31.1270   38.5980 C   0  0  0  0  0  0  0  0  0  0  0  0
   37.0520   30.6700   37.6210 H   0  0  0  0  0  0  0  0  0  0  0  0
   37.2420   32.5180   38.7090 C   0  0  0  0  0  0  0  0  0  0  0  0
   37.1670   33.2860   37.9270 H   0  0  0  0  0  0  0  0  0  0  0  0
   37.4210   32.7570   40.0760 C   0  0  0  0  0  0  0  0  0  0  0  0
   37.5040   33.7480   40.5080 H   0  0  0  0  0  0  0  0  0  0  0  0
   37.4680   31.6100   40.7230 O   0  0  0  0  0  0  0  0  0  0  0  0
   36.9520   26.6840   42.8370 C   0  0  0  0  0  0  0  0  0  0  0  0
   38.2100   26.5860   43.4400 F   0  0  0  0  0  0  0  0  0  0  0  0
   36.5720   25.3670   42.5870 F   0  0  0  0  0  0  0  0  0  0  0  0
   36.1200   27.3410   43.6780 F   0  0  0  0  0  0  0  0  0  0  0  0
  1  2  1  0  0  0  0
  2  8  1  0  0  0  0
  2  3  2  0  0  0  0
  3 17  1  0  0  0  0
  4  3  1  0  0  0  0
  5  4  2  0  0  0  0
  6  1  2  0  0  0  0
  6  5  1  0  0  0  0
  7  1  1  0  0  0  0
  9  5  1  0  0  0  0
  9 16  1  0  0  0  0
 10 12  1  0  0  0  0
 10  9  2  0  0  0  0
 11 10  1  0  0  0  0
 12 14  2  0  0  0  0
 13 12  1  0  0  0  0
 14 15  1  0  0  0  0
 14 16  1  0  0  0  0
 17 18  1  0  0  0  0
 17 20  1  0  0  0  0
 19 17  1  0  0  0  0
M  END
>  <minimizedAffinity>
-4.37674093

$$$$

 OpenBabel03242510363D

 20 21  0  0  0  0  0  0  0  0999 V2000
   37.3390   32.3930   40.0010 C   0  0  0  0  0  0  0  0  0  0  0  0
   37.2610   31.9360   38.6660 C   0  0  0  0  0  0  0  0  0  0  0  0
   37.2010   30.5580   38.4470 C   0  0  0  0  0  0  0  0  0  0  0  0
   37.2230   29.7320   39.5330 N   0  0  0  0  0  0  0  0  0  0  0  0
   37.2990   30.2230   40.8010 C   0  0  0  0  0  0  0  0  0  0  0  0
   37.3580   31.5400   41.0350 N   0  0  0  0  0  0  0  0  0  0  0  0
   37.3860   33.4610   40.1780 H   0  0  0  0  0  0  0  0  0  0  0  0
   37.2480   32.6700   37.8440 H   0  0  0  0  0  0  0  0  0  0  0  0
   37.3160   29.2570   41.8950 C   0  0  0  0  0  0  0  0  0  0  0  0
   36.4260   28.1860   41.8220 C   0  0  0  0  0  0  0  0  0  0  0  0
   35.6760   27.8850   41.0940 H   0  0  0  0  0  0  0  0  0  0  0  0
   36.6280   27.4120   42.9650 C   0  0  0  0  0  0  0  0  0  0  0  0
   36.1270   26.4860   43.2820 H   0  0  0  0  0  0  0  0  0  0  0  0
   37.6420   28.0740   43.6660 C   0  0  0  0  0  0  0  0  0  0  0  0
   38.0420   27.7310   44.6130 H   0  0  0  0  0  0  0  0  0  0  0  0
   38.0110   29.1480   42.9990 O   0  0  0  0  0  0  0  0  0  0  0  0
   37.1210   30.1420   37.0510 C   0  0  0  0  0  0  0  0  0  0  0  0
   37.2590   31.2780   36.2460 F   0  0  0  0  0  0  0  0  0  0  0  0
   35.8120   29.7120   36.8420 F   0  0  0  0  0  0  0  0  0  0  0  0
   38.0580   29.2370   36.6850 F   0  0  0  0  0  0  0  0  0  0  0  0
  1  7  1  0  0  0  0
  1  6  1  0  0  0  0
  2  1  2  0  0  0  0
  3  2  1  0  0  0  0
  3  4  2  0  0  0  0
  4  5  1  0  0  0  0
  5  6  2  0  0  0  0
  5  9  1  0  0  0  0
  8  2  1  0  0  0  0
  9 16  1  0  0  0  0
 10  9  2  0  0  0  0
 10 12  1  0  0  0  0
 11 10  1  0  0  0  0
 12 13  1  0  0  0  0
 12 14  2  0  0  0  0
 14 15  1  0  0  0  0
 16 14  1  0  0  0  0
 17  3  1  0  0  0  0
 18 17  1  0  0  0  0
 19 17  1  0  0  0  0
 20 17  1  0  0  0  0
M  END
>  <minimizedAffinity>
-4.37317896

$$$$

 OpenBabel03242510363D

 20 21  0  0  0  0  0  0  0  0999 V2000
   37.7090   28.5020   43.5960 C   0  0  0  0  0  0  0  0  0  0  0  0
   37.5830   27.1540   43.1930 C   0  0  0  0  0  0  0  0  0  0  0  0
   37.3290   26.8940   41.8450 C   0  0  0  0  0  0  0  0  0  0  0  0
   37.2170   27.9560   40.9950 N   0  0  0  0  0  0  0  0  0  0  0  0
   37.3470   29.2380   41.4340 C   0  0  0  0  0  0  0  0  0  0  0  0
   37.5900   29.5110   42.7220 N   0  0  0  0  0  0  0  0  0  0  0  0
   37.9050   28.7110   44.6420 H   0  0  0  0  0  0  0  0  0  0  0  0
   37.6870   26.3540   43.9430 H   0  0  0  0  0  0  0  0  0  0  0  0
   37.2110   30.3040   40.4450 C   0  0  0  0  0  0  0  0  0  0  0  0
   37.1180   29.9300   39.1050 C   0  0  0  0  0  0  0  0  0  0  0  0
   37.1250   28.9700   38.5930 H   0  0  0  0  0  0  0  0  0  0  0  0
   36.9960   31.1060   38.3640 C   0  0  0  0  0  0  0  0  0  0  0  0
   36.8990   31.2430   37.2770 H   0  0  0  0  0  0  0  0  0  0  0  0
   37.0240   32.1300   39.3180 C   0  0  0  0  0  0  0  0  0  0  0  0
   36.9490   33.1830   39.0720 H   0  0  0  0  0  0  0  0  0  0  0  0
   37.1500   31.6090   40.5210 O   0  0  0  0  0  0  0  0  0  0  0  0
   37.2090   25.4860   41.4830 C   0  0  0  0  0  0  0  0  0  0  0  0
   36.4040   25.3930   40.3430 F   0  0  0  0  0  0  0  0  0  0  0  0
   36.4660   24.8800   42.4950 F   0  0  0  0  0  0  0  0  0  0  0  0
   38.3890   24.8730   41.2300 F   0  0  0  0  0  0  0  0  0  0  0  0
  1  7  1  0  0  0  0
  2  1  1  0  0  0  0
  2  8  1  0  0  0  0
  3  2  2  0  0  0  0
  4  5  2  0  0  0  0
  4  3  1  0  0  0  0
  5  6  1  0  0  0  0
  6  1  2  0  0  0  0
  9 16  1  0  0  0  0
  9  5  1  0  0  0  0
 10  9  2  0  0  0  0
 11 10  1  0  0  0  0
 12 10  1  0  0  0  0
 12 14  2  0  0  0  0
 13 12  1  0  0  0  0
 14 16  1  0  0  0  0
 15 14  1  0  0  0  0
 17  3  1  0  0  0  0
 17 19  1  0  0  0  0
 18 17  1  0  0  0  0
 20 17  1  0  0  0  0
M  END
>  <minimizedAffinity>
-4.34929943

$$$$

 OpenBabel03242510363D

 20 21  0  0  0  0  0  0  0  0999 V2000
   35.9070   28.7970   39.9750 C   0  0  0  0  0  0  0  0  0  0  0  0
   36.5680   27.8740   40.8160 C   0  0  0  0  0  0  0  0  0  0  0  0
   37.6590   28.3290   41.5590 C   0  0  0  0  0  0  0  0  0  0  0  0
   38.0260   29.6380   41.4290 N   0  0  0  0  0  0  0  0  0  0  0  0
   37.3550   30.4870   40.6040 C   0  0  0  0  0  0  0  0  0  0  0  0
   36.3060   30.0730   39.8820 N   0  0  0  0  0  0  0  0  0  0  0  0
   35.0590   28.4510   39.3950 H   0  0  0  0  0  0  0  0  0  0  0  0
   36.2090   26.8340   40.8640 H   0  0  0  0  0  0  0  0  0  0  0  0
   37.8250   31.8680   40.5350 C   0  0  0  0  0  0  0  0  0  0  0  0
   37.1890   32.7200   39.6330 C   0  0  0  0  0  0  0  0  0  0  0  0
   36.3740   32.5860   38.9250 H   0  0  0  0  0  0  0  0  0  0  0  0
   37.8050   33.9670   39.7490 C   0  0  0  0  0  0  0  0  0  0  0  0
   37.5980   34.9030   39.2130 H   0  0  0  0  0  0  0  0  0  0  0  0
   38.7890   33.7850   40.7280 C   0  0  0  0  0  0  0  0  0  0  0  0
   39.4570   34.5700   41.0620 H   0  0  0  0  0  0  0  0  0  0  0  0
   38.7600   32.5400   41.1570 O   0  0  0  0  0  0  0  0  0  0  0  0
   38.3040   27.3360   42.4110 C   0  0  0  0  0  0  0  0  0  0  0  0
   37.7170   27.3990   43.6800 F   0  0  0  0  0  0  0  0  0  0  0  0
   39.6150   27.7690   42.6020 F   0  0  0  0  0  0  0  0  0  0  0  0
   38.2100   26.0650   41.9550 F   0  0  0  0  0  0  0  0  0  0  0  0
  1  2  1  0  0  0  0
  2  8  1  0  0  0  0
  2  3  2  0  0  0  0
  3 17  1  0  0  0  0
  4  3  1  0  0  0  0
  5  4  2  0  0  0  0
  6  1  2  0  0  0  0
  6  5  1  0  0  0  0
  7  1  1  0  0  0  0
  9  5  1  0  0  0  0
  9 16  1  0  0  0  0
 10 12  1  0  0  0  0
 10  9  2  0  0  0  0
 11 10  1  0  0  0  0
 12 14  2  0  0  0  0
 13 12  1  0  0  0  0
 14 15  1  0  0  0  0
 14 16  1  0  0  0  0
 17 19  1  0  0  0  0
 17 18  1  0  0  0  0
 20 17  1  0  0  0  0
M  END
>  <minimizedAffinity>
-4.13925934

$$$$

 OpenBabel03242510363D

 20 21  0  0  0  0  0  0  0  0999 V2000
   35.5790   28.8310   38.6240 C   0  0  0  0  0  0  0  0  0  0  0  0
   36.1060   30.0200   38.0700 C   0  0  0  0  0  0  0  0  0  0  0  0
   37.1420   30.6590   38.7550 C   0  0  0  0  0  0  0  0  0  0  0  0
   37.5850   30.0990   39.9180 N   0  0  0  0  0  0  0  0  0  0  0  0
   37.0430   28.9520   40.4100 C   0  0  0  0  0  0  0  0  0  0  0  0
   36.0480   28.3230   39.7710 N   0  0  0  0  0  0  0  0  0  0  0  0
   34.7730   28.3310   38.0980 H   0  0  0  0  0  0  0  0  0  0  0  0
   35.6910   30.4060   37.1250 H   0  0  0  0  0  0  0  0  0  0  0  0
   37.5870   28.4340   41.6620 C   0  0  0  0  0  0  0  0  0  0  0  0
   36.6870   27.8900   42.5780 C   0  0  0  0  0  0  0  0  0  0  0  0
   35.6080   27.7540   42.5770 H   0  0  0  0  0  0  0  0  0  0  0  0
   37.4350   27.4690   43.6790 C   0  0  0  0  0  0  0  0  0  0  0  0
   37.1010   26.9900   44.6100 H   0  0  0  0  0  0  0  0  0  0  0  0
   38.7570   27.7900   43.3520 C   0  0  0  0  0  0  0  0  0  0  0  0
   39.6020   27.5930   44.0020 H   0  0  0  0  0  0  0  0  0  0  0  0
   38.7940   28.3530   42.1620 O   0  0  0  0  0  0  0  0  0  0  0  0
   37.6490   31.8800   38.1390 C   0  0  0  0  0  0  0  0  0  0  0  0
   38.9550   32.0910   38.5940 F   0  0  0  0  0  0  0  0  0  0  0  0
   36.9090   32.9310   38.6780 F   0  0  0  0  0  0  0  0  0  0  0  0
   37.6610   31.8580   36.7860 F   0  0  0  0  0  0  0  0  0  0  0  0
  1  6  1  0  0  0  0
  2  1  2  0  0  0  0
  2  3  1  0  0  0  0
  3  4  2  0  0  0  0
  4  5  1  0  0  0  0
  5  9  1  0  0  0  0
  6  5  2  0  0  0  0
  7  1  1  0  0  0  0
  8  2  1  0  0  0  0
  9 16  1  0  0  0  0
  9 10  2  0  0  0  0
 10 12  1  0  0  0  0
 11 10  1  0  0  0  0
 12 13  1  0  0  0  0
 14 12  2  0  0  0  0
 14 15  1  0  0  0  0
 16 14  1  0  0  0  0
 17 18  1  0  0  0  0
 17 19  1  0  0  0  0
 17  3  1  0  0  0  0
 20 17  1  0  0  0  0
M  END
>  <minimizedAffinity>
-4.0812788

$$$$

 OpenBabel03242510363D

 20 21  0  0  0  0  0  0  0  0999 V2000
   36.7420   27.6680   42.6370 C   0  0  0  0  0  0  0  0  0  0  0  0
   37.1000   26.3030   42.5640 C   0  0  0  0  0  0  0  0  0  0  0  0
   38.4590   25.9830   42.5340 C   0  0  0  0  0  0  0  0  0  0  0  0
   39.3620   27.0050   42.5750 N   0  0  0  0  0  0  0  0  0  0  0  0
   38.9650   28.3050   42.6450 C   0  0  0  0  0  0  0  0  0  0  0  0
   37.6680   28.6360   42.6740 N   0  0  0  0  0  0  0  0  0  0  0  0
   35.6890   27.9240   42.6600 H   0  0  0  0  0  0  0  0  0  0  0  0
   36.3080   25.5370   42.5350 H   0  0  0  0  0  0  0  0  0  0  0  0
   40.0090   29.3250   42.6840 C   0  0  0  0  0  0  0  0  0  0  0  0
   41.3330   28.8890   42.7460 C   0  0  0  0  0  0  0  0  0  0  0  0
   41.7960   27.9060   42.7740 H   0  0  0  0  0  0  0  0  0  0  0  0
   42.1350   30.0310   42.7740 C   0  0  0  0  0  0  0  0  0  0  0  0
   43.2290   30.1170   42.8230 H   0  0  0  0  0  0  0  0  0  0  0  0
   41.2310   31.0990   42.7270 C   0  0  0  0  0  0  0  0  0  0  0  0
   41.5300   32.1410   42.7330 H   0  0  0  0  0  0  0  0  0  0  0  0
   40.0000   30.6340   42.6750 O   0  0  0  0  0  0  0  0  0  0  0  0
   38.7720   24.5600   42.4600 C   0  0  0  0  0  0  0  0  0  0  0  0
   39.4930   24.3300   41.2840 F   0  0  0  0  0  0  0  0  0  0  0  0
   37.5610   23.8980   42.2720 F   0  0  0  0  0  0  0  0  0  0  0  0
   39.4930   24.0930   43.5060 F   0  0  0  0  0  0  0  0  0  0  0  0
  1  7  1  0  0  0  0
  1  6  1  0  0  0  0
  2  1  2  0  0  0  0
  3  2  1  0  0  0  0
  3  4  2  0  0  0  0
  4  5  1  0  0  0  0
  5  6  2  0  0  0  0
  5  9  1  0  0  0  0
  8  2  1  0  0  0  0
  9 10  2  0  0  0  0
 10 11  1  0  0  0  0
 10 12  1  0  0  0  0
 12 13  1  0  0  0  0
 14 15  1  0  0  0  0
 14 12  2  0  0  0  0
 16  9  1  0  0  0  0
 16 14  1  0  0  0  0
 17  3  1  0  0  0  0
 17 20  1  0  0  0  0
 18 17  1  0  0  0  0
 19 17  1  0  0  0  0
M  END
>  <minimizedAffinity>
-4.05947828

$$$$
