
 OpenBabel03252506563D

 37 41  0  0  0  0  0  0  0  0999 V2000
   47.2580   31.2730   45.2010 C   0  0  0  0  0  0  0  0  0  0  0  0
   46.9130   32.6160   45.1340 C   0  0  0  0  0  0  0  0  0  0  0  0
   46.3150   33.2880   46.1740 C   0  0  0  0  0  0  0  0  0  0  0  0
   46.0270   32.6220   47.3640 C   0  0  0  0  0  0  0  0  0  0  0  0
   45.4620   32.9420   48.5660 N   0  0  0  0  0  0  0  0  0  0  0  0
   45.4580   31.8340   49.3480 C   0  0  0  0  0  0  0  0  0  0  0  0
   46.0210   30.8390   48.6230 N   0  0  0  0  0  0  0  0  0  0  0  0
   46.3780   31.2960   47.4020 C   0  0  0  0  0  0  0  0  0  0  0  0
   46.9720   30.5970   46.3930 C   0  0  0  0  0  0  0  0  0  0  0  0
   47.7270   30.7690   44.3710 H   0  0  0  0  0  0  0  0  0  0  0  0
   46.0410   34.3400   46.1280 H   0  0  0  0  0  0  0  0  0  0  0  0
   45.1130   33.9050   48.7710 H   0  0  0  0  0  0  0  0  0  0  0  0
   45.0600   31.8400   50.3490 H   0  0  0  0  0  0  0  0  0  0  0  0
   46.6520   35.0750   42.4000 C   0  0  0  0  0  0  0  0  0  0  0  0
   47.7410   34.7310   41.5930 C   0  0  0  0  0  0  0  0  0  0  0  0
   48.5540   33.6680   41.9840 C   0  0  0  0  0  0  0  0  0  0  0  0
   48.2480   33.0040   43.1480 N   0  0  0  0  0  0  0  0  0  0  0  0
   47.1960   33.3560   43.9040 C   0  0  0  0  0  0  0  0  0  0  0  0
   46.3940   34.3850   43.5430 N   0  0  0  0  0  0  0  0  0  0  0  0
   46.0370   35.9050   42.0730 H   0  0  0  0  0  0  0  0  0  0  0  0
   48.0040   35.2340   40.6780 H   0  0  0  0  0  0  0  0  0  0  0  0
   49.4150   33.3230   41.4370 H   0  0  0  0  0  0  0  0  0  0  0  0
   47.3070   29.1780   46.5420 C   0  0  0  0  0  0  0  0  0  0  0  0
   48.5590   28.6470   46.3420 C   0  0  0  0  0  0  0  0  0  0  0  0
   48.4110   27.2800   46.5910 C   0  0  0  0  0  0  0  0  0  0  0  0
   47.0930   27.0640   46.9230 C   0  0  0  0  0  0  0  0  0  0  0  0
   46.4710   28.2450   46.8780 O   0  0  0  0  0  0  0  0  0  0  0  0
   49.4940   29.1140   46.0570 H   0  0  0  0  0  0  0  0  0  0  0  0
   49.1390   26.4840   46.5520 H   0  0  0  0  0  0  0  0  0  0  0  0
   46.3770   25.8410   47.2780 C   0  0  0  0  0  0  0  0  0  0  0  0
   46.5190   25.2770   48.5480 C   0  0  0  0  0  0  0  0  0  0  0  0
   47.1320   25.6380   49.3870 H   0  0  0  0  0  0  0  0  0  0  0  0
   45.7480   24.1350   48.6350 C   0  0  0  0  0  0  0  0  0  0  0  0
   45.5760   23.4210   49.4180 H   0  0  0  0  0  0  0  0  0  0  0  0
   45.1640   24.0620   47.3890 C   0  0  0  0  0  0  0  0  0  0  0  0
   44.4800   23.3640   46.9410 H   0  0  0  0  0  0  0  0  0  0  0  0
   45.5480   25.0670   46.6160 O   0  0  0  0  0  0  0  0  0  0  0  0
  1  9  1  0  0  0  0
  2  1  2  0  0  0  0
  2  3  1  0  0  0  0
  3  4  2  0  0  0  0
  4  8  1  0  0  0  0
  4  5  1  0  0  0  0
  5 12  1  0  0  0  0
  5  6  1  0  0  0  0
  6 13  1  0  0  0  0
  7  6  2  0  0  0  0
  8  7  1  0  0  0  0
  9 23  1  0  0  0  0
  9  8  2  0  0  0  0
 10  1  1  0  0  0  0
 11  3  1  0  0  0  0
 14 19  1  0  0  0  0
 15 16  1  0  0  0  0
 15 14  2  0  0  0  0
 16 17  2  0  0  0  0
 17 18  1  0  0  0  0
 18  2  1  0  0  0  0
 19 18  2  0  0  0  0
 20 14  1  0  0  0  0
 21 15  1  0  0  0  0
 22 16  1  0  0  0  0
 23 27  1  0  0  0  0
 24 23  2  0  0  0  0
 24 25  1  0  0  0  0
 25 26  2  0  0  0  0
 26 30  1  0  0  0  0
 27 26  1  0  0  0  0
 28 24  1  0  0  0  0
 29 25  1  0  0  0  0
 30 31  2  0  0  0  0
 31 33  1  0  0  0  0
 31 32  1  0  0  0  0
 33 34  1  0  0  0  0
 35 33  2  0  0  0  0
 36 35  1  0  0  0  0
 37 30  1  0  0  0  0
 37 35  1  0  0  0  0
M  END
>  <minimizedAffinity>
-5.58030796

>  <minimizedRMSD>
0.737492979

$$$$
