
 OpenBabel03252508543D

 42 45  0  0  1  0  0  0  0  0999 V2000
   43.2740   34.4030   40.7120 C   0  0  0  0  0  0  0  0  0  0  0  0
   43.2310   35.5500   40.1860 O   0  0  0  0  0  0  0  0  0  0  0  0
   41.9080   33.9840   40.5040 N   0  0  0  0  0  0  0  0  0  0  0  0
   41.4760   33.9140   39.1250 C   0  0  0  0  0  0  0  0  0  0  0  0
   40.6900   35.2190   38.8900 C   0  0  0  0  0  0  0  0  0  0  0  0
   39.9450   35.4990   40.1860 C   0  0  0  0  0  0  0  0  0  0  0  0
   39.5940   34.2050   40.9270 C   0  0  0  0  0  0  0  0  0  0  0  0
   40.8800   33.6170   41.4780 C   0  0  1  0  0  0  0  0  0  0  0  0
   40.8040   33.0370   38.9850 H   0  0  0  0  0  0  0  0  0  0  0  0
   42.3030   33.8950   38.4100 H   0  0  0  0  0  0  0  0  0  0  0  0
   41.4170   36.0360   38.6900 H   0  0  0  0  0  0  0  0  0  0  0  0
   39.9530   35.0780   38.0800 H   0  0  0  0  0  0  0  0  0  0  0  0
   39.0590   36.1140   40.0230 H   0  0  0  0  0  0  0  0  0  0  0  0
   40.6100   36.0820   40.8820 H   0  0  0  0  0  0  0  0  0  0  0  0
   39.1540   33.4920   40.2340 H   0  0  0  0  0  0  0  0  0  0  0  0
   38.9340   34.5320   41.7570 H   0  0  0  0  0  0  0  0  0  0  0  0
   41.1210   34.2070   42.3920 H   0  0  0  0  0  0  0  0  0  0  0  0
   40.8220   32.1760   41.7100 C   0  0  0  0  0  0  0  0  0  0  0  0
   41.8520   31.3130   42.0490 C   0  0  0  0  0  0  0  0  0  0  0  0
   42.8840   31.5760   42.2000 H   0  0  0  0  0  0  0  0  0  0  0  0
   41.2560   30.0720   42.1450 C   0  0  0  0  0  0  0  0  0  0  0  0
   41.7320   29.1310   42.3930 H   0  0  0  0  0  0  0  0  0  0  0  0
   39.9010   30.2630   41.8560 C   0  0  0  0  0  0  0  0  0  0  0  0
   39.1530   29.4740   41.8470 H   0  0  0  0  0  0  0  0  0  0  0  0
   39.6620   31.5450   41.5960 O   0  0  0  0  0  0  0  0  0  0  0  0
   44.3410   33.7710   41.3030 O   0  0  0  0  0  0  0  0  0  0  0  0
   45.6700   34.0980   41.1350 C   0  0  0  0  0  0  0  0  0  0  0  0
   46.3250   34.7310   42.2030 C   0  0  0  0  0  0  0  0  0  0  0  0
   47.6830   35.0480   41.9920 C   0  0  0  0  0  0  0  0  0  0  0  0
   48.2620   34.7250   40.7920 N   0  0  0  0  0  0  0  0  0  0  0  0
   47.5840   34.1270   39.8260 C   0  0  0  0  0  0  0  0  0  0  0  0
   46.2860   33.8030   39.9770 N   0  0  0  0  0  0  0  0  0  0  0  0
   48.2180   35.5350   42.7900 H   0  0  0  0  0  0  0  0  0  0  0  0
   48.0250   33.8640   38.8700 H   0  0  0  0  0  0  0  0  0  0  0  0
   45.6140   35.0220   43.4230 C   0  0  0  0  0  0  0  0  0  0  0  0
   44.9860   36.2450   43.6450 C   0  0  0  0  0  0  0  0  0  0  0  0
   44.4420   36.1000   44.9050 C   0  0  0  0  0  0  0  0  0  0  0  0
   44.7220   34.8760   45.4060 N   0  0  0  0  0  0  0  0  0  0  0  0
   45.4320   34.2410   44.4930 N   0  0  0  0  0  0  0  0  0  0  0  0
   44.9250   37.1120   43.0060 H   0  0  0  0  0  0  0  0  0  0  0  0
   43.8560   36.8580   45.4490 H   0  0  0  0  0  0  0  0  0  0  0  0
   44.4690   34.4330   46.3220 H   0  0  0  0  0  0  0  0  0  0  0  0
  1 26  1  0  0  0  0
  2  1  2  0  0  0  0
  3  1  1  0  0  0  0
  3  8  1  0  0  0  0
  4  3  1  0  0  0  0
  5  4  1  0  0  0  0
  5  6  1  0  0  0  0
  6 14  1  0  0  0  0
  6  7  1  0  0  0  0
  7  8  1  0  0  0  0
  7 16  1  0  0  0  0
  8 18  1  0  0  0  0
  8 17  1  1  0  0  0
  9  4  1  0  0  0  0
 10  4  1  0  0  0  0
 11  5  1  0  0  0  0
 12  5  1  0  0  0  0
 13  6  1  0  0  0  0
 15  7  1  0  0  0  0
 18 19  2  0  0  0  0
 19 21  1  0  0  0  0
 19 20  1  0  0  0  0
 21 22  1  0  0  0  0
 23 21  2  0  0  0  0
 24 23  1  0  0  0  0
 25 18  1  0  0  0  0
 25 23  1  0  0  0  0
 27 26  1  0  0  0  0
 27 28  1  0  0  0  0
 28 35  1  0  0  0  0
 29 28  2  0  0  0  0
 29 33  1  0  0  0  0
 30 29  1  0  0  0  0
 31 32  1  0  0  0  0
 31 30  2  0  0  0  0
 32 27  2  0  0  0  0
 34 31  1  0  0  0  0
 35 36  1  0  0  0  0
 35 39  2  0  0  0  0
 36 37  2  0  0  0  0
 37 38  1  0  0  0  0
 37 41  1  0  0  0  0
 38 42  1  0  0  0  0
 39 38  1  0  0  0  0
 40 36  1  0  0  0  0
M  END
>  <minimizedAffinity>
-6.5650959

>  <minimizedRMSD>
0.543265343

$$$$
