
 OpenBabel03242510463D

 20 21  0  0  0  0  0  0  0  0999 V2000
   47.4110   34.8270   41.9730 C   0  0  0  0  0  0  0  0  0  0  0  0
   47.5880   34.2660   43.2630 C   0  0  0  0  0  0  0  0  0  0  0  0
   46.4190   33.8750   43.9570 C   0  0  0  0  0  0  0  0  0  0  0  0
   45.2180   34.0570   43.3590 N   0  0  0  0  0  0  0  0  0  0  0  0
   45.0910   34.5940   42.1320 C   0  0  0  0  0  0  0  0  0  0  0  0
   46.1840   34.9790   41.4390 N   0  0  0  0  0  0  0  0  0  0  0  0
   48.5430   34.1260   43.7270 H   0  0  0  0  0  0  0  0  0  0  0  0
   46.4930   33.4390   44.9470 H   0  0  0  0  0  0  0  0  0  0  0  0
   43.8070   34.8000   41.4670 C   0  0  0  0  0  0  0  0  0  0  0  0
   43.4370   34.4980   40.1630 C   0  0  0  0  0  0  0  0  0  0  0  0
   44.1480   34.0440   39.4850 H   0  0  0  0  0  0  0  0  0  0  0  0
   42.1040   34.9130   40.0940 C   0  0  0  0  0  0  0  0  0  0  0  0
   41.5640   34.7850   39.1570 H   0  0  0  0  0  0  0  0  0  0  0  0
   41.7500   35.4330   41.3410 C   0  0  0  0  0  0  0  0  0  0  0  0
   40.7360   35.7940   41.4240 H   0  0  0  0  0  0  0  0  0  0  0  0
   42.8020   35.3480   42.1400 O   0  0  0  0  0  0  0  0  0  0  0  0
   48.6660   35.2320   41.2600 C   0  0  0  0  0  0  0  0  0  0  0  0
   48.4770   35.2840   39.8980 F   0  0  0  0  0  0  0  0  0  0  0  0
   49.0510   36.4700   41.7750 F   0  0  0  0  0  0  0  0  0  0  0  0
   49.6930   34.3470   41.5880 F   0  0  0  0  0  0  0  0  0  0  0  0
  1  2  1  0  0  0  0
  2  7  1  0  0  0  0
  2  3  2  0  0  0  0
  3  8  1  0  0  0  0
  4  3  1  0  0  0  0
  5  4  2  0  0  0  0
  6  1  2  0  0  0  0
  6  5  1  0  0  0  0
  9  5  1  0  0  0  0
  9 16  1  0  0  0  0
 10  9  2  0  0  0  0
 11 10  1  0  0  0  0
 12 10  1  0  0  0  0
 12 14  2  0  0  0  0
 13 12  1  0  0  0  0
 14 15  1  0  0  0  0
 14 16  1  0  0  0  0
 17 20  1  0  0  0  0
 17 19  1  0  0  0  0
 17  1  1  0  0  0  0
 18 17  1  0  0  0  0
M  END
>  <minimizedAffinity>
-4.83197546

>  <minimizedRMSD>
1.66139817

$$$$
