
 OpenBabel03242512523D

 43 47  0  0  1  0  0  0  0  0999 V2000
   47.1760   34.3380   42.6180 N   0  0  0  0  0  0  0  0  0  0  0  0
   48.5440   33.8090   42.5510 C   0  0  0  0  0  0  0  0  0  0  0  0
   49.1120   34.8500   41.6080 C   0  0  0  0  0  0  0  0  0  0  0  0
   48.1070   34.7860   40.4870 C   0  0  0  0  0  0  0  0  0  0  0  0
   46.7860   34.6740   41.2230 C   0  0  1  0  0  0  0  0  0  0  0  0
   48.5120   32.8360   42.0470 H   0  0  0  0  0  0  0  0  0  0  0  0
   49.0140   33.8250   43.5360 H   0  0  0  0  0  0  0  0  0  0  0  0
   48.9710   35.8340   42.1290 H   0  0  0  0  0  0  0  0  0  0  0  0
   50.1430   34.6710   41.3010 H   0  0  0  0  0  0  0  0  0  0  0  0
   48.1880   35.7110   39.9060 H   0  0  0  0  0  0  0  0  0  0  0  0
   48.3350   33.8670   39.8990 H   0  0  0  0  0  0  0  0  0  0  0  0
   46.3860   35.6430   41.3230 H   0  0  0  0  0  0  0  0  0  0  0  0
   45.9700   33.5610   40.7780 C   0  0  0  0  0  0  0  0  0  0  0  0
   46.4990   32.3260   40.5950 N   0  0  0  0  0  0  0  0  0  0  0  0
   45.8080   31.2460   40.1780 C   0  0  0  0  0  0  0  0  0  0  0  0
   44.4990   31.3890   39.9210 N   0  0  0  0  0  0  0  0  0  0  0  0
   43.9230   32.5810   40.0840 C   0  0  0  0  0  0  0  0  0  0  0  0
   42.5710   32.6650   39.8060 C   0  0  0  0  0  0  0  0  0  0  0  0
   41.9800   33.9120   39.9800 C   0  0  0  0  0  0  0  0  0  0  0  0
   42.6400   35.0610   40.4050 C   0  0  0  0  0  0  0  0  0  0  0  0
   43.9860   34.8770   40.6560 C   0  0  0  0  0  0  0  0  0  0  0  0
   44.6310   33.7000   40.5130 C   0  0  0  0  0  0  0  0  0  0  0  0
   46.3120   30.2980   40.0590 H   0  0  0  0  0  0  0  0  0  0  0  0
   41.9810   31.8230   39.4710 H   0  0  0  0  0  0  0  0  0  0  0  0
   40.9110   33.9520   39.7550 H   0  0  0  0  0  0  0  0  0  0  0  0
   42.1090   35.9760   40.5110 H   0  0  0  0  0  0  0  0  0  0  0  0
   44.4680   35.7890   40.9610 H   0  0  0  0  0  0  0  0  0  0  0  0
   44.5250   35.6160   44.8820 C   0  0  0  0  0  0  0  0  0  0  0  0
   45.3250   35.5040   43.7600 C   0  0  0  0  0  0  0  0  0  0  0  0
   46.3150   34.5340   43.7080 C   0  0  0  0  0  0  0  0  0  0  0  0
   46.4600   33.7160   44.7840 N   0  0  0  0  0  0  0  0  0  0  0  0
   45.6770   33.8220   45.8930 C   0  0  0  0  0  0  0  0  0  0  0  0
   44.7100   34.7770   45.9300 N   0  0  0  0  0  0  0  0  0  0  0  0
   43.7500   36.3700   44.9290 H   0  0  0  0  0  0  0  0  0  0  0  0
   45.1610   36.1900   42.9780 H   0  0  0  0  0  0  0  0  0  0  0  0
   45.9310   32.8840   46.9850 C   0  0  0  0  0  0  0  0  0  0  0  0
   47.0530   32.1490   47.3080 C   0  0  0  0  0  0  0  0  0  0  0  0
   47.9800   32.1890   46.7150 H   0  0  0  0  0  0  0  0  0  0  0  0
   46.6960   31.4380   48.4570 C   0  0  0  0  0  0  0  0  0  0  0  0
   47.4270   30.7790   48.9050 H   0  0  0  0  0  0  0  0  0  0  0  0
   45.3770   31.7890   48.7590 C   0  0  0  0  0  0  0  0  0  0  0  0
   44.9900   31.2980   49.6340 H   0  0  0  0  0  0  0  0  0  0  0  0
   44.9750   32.6450   47.8600 O   0  0  0  0  0  0  0  0  0  0  0  0
  1 30  1  0  0  0  0
  2  1  1  0  0  0  0
  2  7  1  0  0  0  0
  3  8  1  0  0  0  0
  3  2  1  0  0  0  0
  4  5  1  0  0  0  0
  4  3  1  0  0  0  0
  5 12  1  6  0  0  0
  5  1  1  0  0  0  0
  6  2  1  0  0  0  0
  9  3  1  0  0  0  0
 10  4  1  0  0  0  0
 11  4  1  0  0  0  0
 13  5  1  0  0  0  0
 14 13  1  0  0  0  0
 15 14  2  0  0  0  0
 16 17  2  0  0  0  0
 16 15  1  0  0  0  0
 17 22  1  0  0  0  0
 18 19  2  0  0  0  0
 18 17  1  0  0  0  0
 19 20  1  0  0  0  0
 20 26  1  0  0  0  0
 20 21  2  0  0  0  0
 21 27  1  0  0  0  0
 22 21  1  0  0  0  0
 22 13  2  0  0  0  0
 23 15  1  0  0  0  0
 24 18  1  0  0  0  0
 25 19  1  0  0  0  0
 28 34  1  0  0  0  0
 28 33  1  0  0  0  0
 29 28  2  0  0  0  0
 30 29  1  0  0  0  0
 30 31  2  0  0  0  0
 31 32  1  0  0  0  0
 32 33  2  0  0  0  0
 32 36  1  0  0  0  0
 35 29  1  0  0  0  0
 36 37  2  0  0  0  0
 36 43  1  0  0  0  0
 37 39  1  0  0  0  0
 38 37  1  0  0  0  0
 39 41  2  0  0  0  0
 39 40  1  0  0  0  0
 41 42  1  0  0  0  0
 43 41  1  0  0  0  0
M  END
>  <minimizedAffinity>
-6.75709105

>  <minimizedRMSD>
0.223859772

$$$$
