
 OpenBabel03252504143D

 34 36  0  0  0  0  0  0  0  0999 V2000
   47.7210   30.0580   44.9180 F   0  0  0  0  0  0  0  0  0  0  0  0
   47.5550   30.8230   46.0450 C   0  0  0  0  0  0  0  0  0  0  0  0
   46.9470   32.0510   45.9490 C   0  0  0  0  0  0  0  0  0  0  0  0
   46.8200   32.7590   47.1440 C   0  0  0  0  0  0  0  0  0  0  0  0
   47.2780   32.2520   48.3370 C   0  0  0  0  0  0  0  0  0  0  0  0
   47.8810   31.0060   48.3540 C   0  0  0  0  0  0  0  0  0  0  0  0
   48.0380   30.2530   47.2060 C   0  0  0  0  0  0  0  0  0  0  0  0
   46.3430   33.7410   47.1200 H   0  0  0  0  0  0  0  0  0  0  0  0
   47.1790   32.8010   49.2570 H   0  0  0  0  0  0  0  0  0  0  0  0
   48.2500   30.5850   49.2810 H   0  0  0  0  0  0  0  0  0  0  0  0
   48.6720   28.9380   47.2150 C   0  0  0  0  0  0  0  0  0  0  0  0
   50.0180   28.7400   46.9890 C   0  0  0  0  0  0  0  0  0  0  0  0
   50.7400   29.4980   46.7880 H   0  0  0  0  0  0  0  0  0  0  0  0
   50.1490   27.3560   47.0960 C   0  0  0  0  0  0  0  0  0  0  0  0
   51.0900   26.8170   46.9770 H   0  0  0  0  0  0  0  0  0  0  0  0
   48.9100   26.8020   47.3730 C   0  0  0  0  0  0  0  0  0  0  0  0
   48.6560   25.7600   47.5180 H   0  0  0  0  0  0  0  0  0  0  0  0
   48.0690   27.8160   47.4300 O   0  0  0  0  0  0  0  0  0  0  0  0
   46.7680   34.1120   42.9590 C   0  0  0  0  0  0  0  0  0  0  0  0
   45.6300   33.6550   42.2900 C   0  0  0  0  0  0  0  0  0  0  0  0
   44.9170   32.6070   42.9000 C   0  0  0  0  0  0  0  0  0  0  0  0
   45.3490   32.0960   44.0810 N   0  0  0  0  0  0  0  0  0  0  0  0
   46.4620   32.5840   44.6800 C   0  0  0  0  0  0  0  0  0  0  0  0
   47.1690   33.5910   44.1200 N   0  0  0  0  0  0  0  0  0  0  0  0
   44.0310   32.2310   42.4050 H   0  0  0  0  0  0  0  0  0  0  0  0
   45.2280   34.2660   41.0090 C   0  0  0  0  0  0  0  0  0  0  0  0
   44.9140   35.5910   41.2000 F   0  0  0  0  0  0  0  0  0  0  0  0
   46.3240   34.2240   40.1550 F   0  0  0  0  0  0  0  0  0  0  0  0
   44.1850   33.6600   40.3970 F   0  0  0  0  0  0  0  0  0  0  0  0
   47.4580   35.1280   42.3680 O   0  0  0  0  0  0  0  0  0  0  0  0
   48.7730   35.0620   41.8530 C   0  0  0  0  0  0  0  0  0  0  0  0
   49.6270   35.3990   42.9080 F   0  0  0  0  0  0  0  0  0  0  0  0
   49.0250   33.8200   41.3340 F   0  0  0  0  0  0  0  0  0  0  0  0
   48.9620   36.0670   40.9300 F   0  0  0  0  0  0  0  0  0  0  0  0
  1  2  1  0  0  0  0
  2  7  1  0  0  0  0
  3  2  2  0  0  0  0
  3  4  1  0  0  0  0
  4  5  2  0  0  0  0
  5  6  1  0  0  0  0
  5  9  1  0  0  0  0
  6 10  1  0  0  0  0
  7 11  1  0  0  0  0
  7  6  2  0  0  0  0
  8  4  1  0  0  0  0
 11 18  1  0  0  0  0
 12 14  1  0  0  0  0
 12 11  2  0  0  0  0
 13 12  1  0  0  0  0
 14 16  2  0  0  0  0
 15 14  1  0  0  0  0
 16 18  1  0  0  0  0
 16 17  1  0  0  0  0
 19 24  1  0  0  0  0
 20 21  1  0  0  0  0
 20 19  2  0  0  0  0
 21 22  2  0  0  0  0
 22 23  1  0  0  0  0
 23  3  1  0  0  0  0
 24 23  2  0  0  0  0
 25 21  1  0  0  0  0
 26 27  1  0  0  0  0
 26 20  1  0  0  0  0
 28 26  1  0  0  0  0
 29 26  1  0  0  0  0
 30 19  1  0  0  0  0
 31 30  1  0  0  0  0
 31 32  1  0  0  0  0
 33 31  1  0  0  0  0
 34 31  1  0  0  0  0
M  END
>  <minimizedAffinity>
-5.51349401

>  <minimizedRMSD>
0.559308171

$$$$
