
 OpenBabel03242515003D

 36 38  0  0  0  0  0  0  0  0999 V2000
   43.7380   34.8780   40.7730 S   0  0  0  0  0  0  0  0  0  0  0  0
   45.0350   34.5940   41.9800 C   0  0  0  0  0  0  0  0  0  0  0  0
   46.3550   34.6230   41.5000 C   0  0  0  0  0  0  0  0  0  0  0  0
   47.3990   34.4050   42.4060 C   0  0  0  0  0  0  0  0  0  0  0  0
   47.0700   34.1770   43.7110 N   0  0  0  0  0  0  0  0  0  0  0  0
   45.8010   34.1530   44.1550 C   0  0  0  0  0  0  0  0  0  0  0  0
   44.8230   34.3610   43.2770 N   0  0  0  0  0  0  0  0  0  0  0  0
   46.5430   34.8080   40.4550 H   0  0  0  0  0  0  0  0  0  0  0  0
   48.4040   34.4230   42.0620 H   0  0  0  0  0  0  0  0  0  0  0  0
   45.5760   33.9020   45.5620 C   0  0  0  0  0  0  0  0  0  0  0  0
   44.7620   34.6670   46.1530 O   0  0  0  0  0  0  0  0  0  0  0  0
   46.2300   32.8310   46.3060 C   0  0  0  0  0  0  0  0  0  0  0  0
   46.0670   31.4960   45.9960 C   0  0  0  0  0  0  0  0  0  0  0  0
   45.4640   31.0360   45.1970 H   0  0  0  0  0  0  0  0  0  0  0  0
   46.8440   30.8320   46.9260 C   0  0  0  0  0  0  0  0  0  0  0  0
   46.9230   29.7440   46.9430 H   0  0  0  0  0  0  0  0  0  0  0  0
   47.4400   31.7900   47.7560 C   0  0  0  0  0  0  0  0  0  0  0  0
   48.0890   31.4420   48.5470 H   0  0  0  0  0  0  0  0  0  0  0  0
   47.0270   32.9540   47.3240 O   0  0  0  0  0  0  0  0  0  0  0  0
   42.1120   34.9520   41.5180 C   0  0  0  0  0  0  0  0  0  0  0  0
   42.2370   35.2290   42.5810 H   0  0  0  0  0  0  0  0  0  0  0  0
   41.6570   33.9400   41.4370 H   0  0  0  0  0  0  0  0  0  0  0  0
   41.1950   35.9100   40.8330 C   0  0  0  0  0  0  0  0  0  0  0  0
   41.6880   36.7770   40.3660 H   0  0  0  0  0  0  0  0  0  0  0  0
   40.4980   36.3310   41.5930 H   0  0  0  0  0  0  0  0  0  0  0  0
   41.9820   36.1600   37.9070 Cl  0  0  0  0  0  0  0  0  0  0  0  0
   40.6120   35.2640   38.4640 C   0  0  0  0  0  0  0  0  0  0  0  0
   40.3360   35.2120   39.8420 C   0  0  0  0  0  0  0  0  0  0  0  0
   39.2300   34.4810   40.2140 C   0  0  0  0  0  0  0  0  0  0  0  0
   38.3630   33.7900   39.3690 C   0  0  0  0  0  0  0  0  0  0  0  0
   38.6630   33.8620   38.0230 C   0  0  0  0  0  0  0  0  0  0  0  0
   37.6230   33.0210   36.8710 Cl  0  0  0  0  0  0  0  0  0  0  0  0
   39.7540   34.5780   37.5940 C   0  0  0  0  0  0  0  0  0  0  0  0
   39.0400   34.4570   41.2830 H   0  0  0  0  0  0  0  0  0  0  0  0
   37.5270   33.2500   39.7750 H   0  0  0  0  0  0  0  0  0  0  0  0
   39.9480   34.6030   36.5220 H   0  0  0  0  0  0  0  0  0  0  0  0
  1 20  1  0  0  0  0
  1  2  1  0  0  0  0
  2  7  1  0  0  0  0
  3  2  2  0  0  0  0
  3  4  1  0  0  0  0
  4  5  2  0  0  0  0
  5  6  1  0  0  0  0
  6 10  1  0  0  0  0
  7  6  2  0  0  0  0
  8  3  1  0  0  0  0
  9  4  1  0  0  0  0
 10 11  2  0  0  0  0
 10 12  1  0  0  0  0
 12 19  1  0  0  0  0
 13 12  2  0  0  0  0
 13 15  1  0  0  0  0
 14 13  1  0  0  0  0
 15 16  1  0  0  0  0
 15 17  2  0  0  0  0
 17 18  1  0  0  0  0
 19 17  1  0  0  0  0
 20 21  1  0  0  0  0
 22 20  1  0  0  0  0
 23 20  1  0  0  0  0
 23 25  1  0  0  0  0
 24 23  1  0  0  0  0
 26 27  1  0  0  0  0
 27 28  1  0  0  0  0
 28 29  2  0  0  0  0
 28 23  1  0  0  0  0
 29 34  1  0  0  0  0
 30 35  1  0  0  0  0
 30 29  1  0  0  0  0
 31 30  2  0  0  0  0
 32 31  1  0  0  0  0
 33 31  1  0  0  0  0
 33 27  2  0  0  0  0
 36 33  1  0  0  0  0
M  END
>  <minimizedAffinity>
-6.55313063

>  <minimizedRMSD>
0.367035031

$$$$
