
 OpenBabel03242515003D

 36 38  0  0  0  0  0  0  0  0999 V2000
   43.4970   34.9800   40.7540 S   0  0  0  0  0  0  0  0  0  0  0  0
   44.7690   34.6890   41.9860 C   0  0  0  0  0  0  0  0  0  0  0  0
   46.0800   34.5330   41.5080 C   0  0  0  0  0  0  0  0  0  0  0  0
   47.1050   34.3030   42.4330 C   0  0  0  0  0  0  0  0  0  0  0  0
   46.7660   34.2450   43.7540 N   0  0  0  0  0  0  0  0  0  0  0  0
   45.5050   34.3970   44.1960 C   0  0  0  0  0  0  0  0  0  0  0  0
   44.5460   34.6140   43.3000 N   0  0  0  0  0  0  0  0  0  0  0  0
   46.2770   34.5900   40.4500 H   0  0  0  0  0  0  0  0  0  0  0  0
   48.1030   34.1820   42.0910 H   0  0  0  0  0  0  0  0  0  0  0  0
   45.2680   34.3160   45.6220 C   0  0  0  0  0  0  0  0  0  0  0  0
   44.5010   35.1880   46.1210 O   0  0  0  0  0  0  0  0  0  0  0  0
   45.8590   33.2970   46.4820 C   0  0  0  0  0  0  0  0  0  0  0  0
   45.2370   32.8260   47.6210 C   0  0  0  0  0  0  0  0  0  0  0  0
   44.2630   33.1100   48.0500 H   0  0  0  0  0  0  0  0  0  0  0  0
   46.1190   31.8910   48.1290 C   0  0  0  0  0  0  0  0  0  0  0  0
   45.9080   31.3330   49.0420 H   0  0  0  0  0  0  0  0  0  0  0  0
   47.2310   31.8370   47.2790 C   0  0  0  0  0  0  0  0  0  0  0  0
   48.0280   31.1510   47.5300 H   0  0  0  0  0  0  0  0  0  0  0  0
   47.0030   32.7010   46.3240 O   0  0  0  0  0  0  0  0  0  0  0  0
   41.8630   35.1110   41.4730 C   0  0  0  0  0  0  0  0  0  0  0  0
   41.9760   35.4670   42.5140 H   0  0  0  0  0  0  0  0  0  0  0  0
   41.4080   34.0950   41.4640 H   0  0  0  0  0  0  0  0  0  0  0  0
   40.9540   36.0130   40.7070 C   0  0  0  0  0  0  0  0  0  0  0  0
   41.4460   36.8750   40.2280 H   0  0  0  0  0  0  0  0  0  0  0  0
   40.2100   36.4440   41.4160 H   0  0  0  0  0  0  0  0  0  0  0  0
   41.7970   36.2700   37.7970 Cl  0  0  0  0  0  0  0  0  0  0  0  0
   40.4700   35.3010   38.3350 C   0  0  0  0  0  0  0  0  0  0  0  0
   40.1630   35.2520   39.7060 C   0  0  0  0  0  0  0  0  0  0  0  0
   39.0930   34.4610   40.0630 C   0  0  0  0  0  0  0  0  0  0  0  0
   38.2900   33.7080   39.2090 C   0  0  0  0  0  0  0  0  0  0  0  0
   38.6180   33.7800   37.8690 C   0  0  0  0  0  0  0  0  0  0  0  0
   37.6580   32.8620   36.7060 Cl  0  0  0  0  0  0  0  0  0  0  0  0
   39.6750   34.5530   37.4560 C   0  0  0  0  0  0  0  0  0  0  0  0
   38.8790   34.4410   41.1280 H   0  0  0  0  0  0  0  0  0  0  0  0
   37.4780   33.1250   39.6030 H   0  0  0  0  0  0  0  0  0  0  0  0
   39.8940   34.5760   36.3880 H   0  0  0  0  0  0  0  0  0  0  0  0
  1 20  1  0  0  0  0
  1  2  1  0  0  0  0
  2  7  1  0  0  0  0
  3  2  2  0  0  0  0
  3  4  1  0  0  0  0
  4  5  2  0  0  0  0
  5  6  1  0  0  0  0
  6 10  1  0  0  0  0
  7  6  2  0  0  0  0
  8  3  1  0  0  0  0
  9  4  1  0  0  0  0
 10 11  2  0  0  0  0
 10 12  1  0  0  0  0
 12 13  2  0  0  0  0
 13 14  1  0  0  0  0
 13 15  1  0  0  0  0
 15 16  1  0  0  0  0
 17 18  1  0  0  0  0
 17 15  2  0  0  0  0
 19 12  1  0  0  0  0
 19 17  1  0  0  0  0
 20 21  1  0  0  0  0
 22 20  1  0  0  0  0
 23 25  1  0  0  0  0
 23 20  1  0  0  0  0
 24 23  1  0  0  0  0
 26 27  1  0  0  0  0
 27 28  1  0  0  0  0
 28 29  2  0  0  0  0
 28 23  1  0  0  0  0
 29 34  1  0  0  0  0
 30 35  1  0  0  0  0
 30 29  1  0  0  0  0
 31 30  2  0  0  0  0
 32 31  1  0  0  0  0
 33 31  1  0  0  0  0
 33 27  2  0  0  0  0
 36 33  1  0  0  0  0
M  END
>  <minimizedAffinity>
-6.79098797

>  <minimizedRMSD>
0.227717355

$$$$
