
 OpenBabel03242515003D

 36 38  0  0  0  0  0  0  0  0999 V2000
   43.5070   35.0060   40.7570 S   0  0  0  0  0  0  0  0  0  0  0  0
   44.7750   34.7010   41.9900 C   0  0  0  0  0  0  0  0  0  0  0  0
   46.0850   34.5330   41.5130 C   0  0  0  0  0  0  0  0  0  0  0  0
   47.1070   34.2920   42.4390 C   0  0  0  0  0  0  0  0  0  0  0  0
   46.7660   34.2350   43.7590 N   0  0  0  0  0  0  0  0  0  0  0  0
   45.5060   34.3980   44.2000 C   0  0  0  0  0  0  0  0  0  0  0  0
   44.5500   34.6250   43.3040 N   0  0  0  0  0  0  0  0  0  0  0  0
   46.2840   34.5910   40.4550 H   0  0  0  0  0  0  0  0  0  0  0  0
   48.1040   34.1630   42.0970 H   0  0  0  0  0  0  0  0  0  0  0  0
   45.2670   34.3150   45.6250 C   0  0  0  0  0  0  0  0  0  0  0  0
   44.4990   35.1860   46.1240 O   0  0  0  0  0  0  0  0  0  0  0  0
   45.8580   33.2970   46.4860 C   0  0  0  0  0  0  0  0  0  0  0  0
   45.2350   32.8250   47.6230 C   0  0  0  0  0  0  0  0  0  0  0  0
   44.2600   33.1070   48.0510 H   0  0  0  0  0  0  0  0  0  0  0  0
   46.1180   31.8900   48.1330 C   0  0  0  0  0  0  0  0  0  0  0  0
   45.9050   31.3320   49.0460 H   0  0  0  0  0  0  0  0  0  0  0  0
   47.2310   31.8390   47.2850 C   0  0  0  0  0  0  0  0  0  0  0  0
   48.0280   31.1530   47.5370 H   0  0  0  0  0  0  0  0  0  0  0  0
   47.0030   32.7020   46.3300 O   0  0  0  0  0  0  0  0  0  0  0  0
   41.8680   35.1070   41.4700 C   0  0  0  0  0  0  0  0  0  0  0  0
   41.9720   35.4500   42.5160 H   0  0  0  0  0  0  0  0  0  0  0  0
   41.4260   34.0860   41.4450 H   0  0  0  0  0  0  0  0  0  0  0  0
   40.9510   36.0080   40.7120 C   0  0  0  0  0  0  0  0  0  0  0  0
   41.4370   36.8750   40.2360 H   0  0  0  0  0  0  0  0  0  0  0  0
   40.2080   36.4310   41.4250 H   0  0  0  0  0  0  0  0  0  0  0  0
   41.7940   36.2700   37.8020 Cl  0  0  0  0  0  0  0  0  0  0  0  0
   40.4680   35.2990   38.3380 C   0  0  0  0  0  0  0  0  0  0  0  0
   40.1610   35.2470   39.7100 C   0  0  0  0  0  0  0  0  0  0  0  0
   39.0920   34.4550   40.0650 C   0  0  0  0  0  0  0  0  0  0  0  0
   38.2890   33.7030   39.2100 C   0  0  0  0  0  0  0  0  0  0  0  0
   38.6180   33.7770   37.8700 C   0  0  0  0  0  0  0  0  0  0  0  0
   37.6590   32.8600   36.7060 Cl  0  0  0  0  0  0  0  0  0  0  0  0
   39.6740   34.5520   37.4580 C   0  0  0  0  0  0  0  0  0  0  0  0
   38.8780   34.4330   41.1300 H   0  0  0  0  0  0  0  0  0  0  0  0
   37.4780   33.1180   39.6030 H   0  0  0  0  0  0  0  0  0  0  0  0
   39.8930   34.5760   36.3900 H   0  0  0  0  0  0  0  0  0  0  0  0
  1 20  1  0  0  0  0
  1  2  1  0  0  0  0
  2  7  1  0  0  0  0
  3  2  2  0  0  0  0
  3  4  1  0  0  0  0
  4  5  2  0  0  0  0
  5  6  1  0  0  0  0
  6 10  1  0  0  0  0
  7  6  2  0  0  0  0
  8  3  1  0  0  0  0
  9  4  1  0  0  0  0
 10 11  2  0  0  0  0
 10 12  1  0  0  0  0
 12 13  2  0  0  0  0
 13 14  1  0  0  0  0
 13 15  1  0  0  0  0
 15 16  1  0  0  0  0
 17 18  1  0  0  0  0
 17 15  2  0  0  0  0
 19 12  1  0  0  0  0
 19 17  1  0  0  0  0
 20 21  1  0  0  0  0
 22 20  1  0  0  0  0
 23 25  1  0  0  0  0
 23 20  1  0  0  0  0
 24 23  1  0  0  0  0
 26 27  1  0  0  0  0
 27 28  1  0  0  0  0
 28 29  2  0  0  0  0
 28 23  1  0  0  0  0
 29 34  1  0  0  0  0
 30 35  1  0  0  0  0
 30 29  1  0  0  0  0
 31 30  2  0  0  0  0
 32 31  1  0  0  0  0
 33 31  1  0  0  0  0
 33 27  2  0  0  0  0
 36 33  1  0  0  0  0
M  END
>  <minimizedAffinity>
-6.79136276

>  <minimizedRMSD>
0.32595855

$$$$
