
 OpenBabel03242515003D

 36 38  0  0  0  0  0  0  0  0999 V2000
   43.4540   34.9450   40.7320 S   0  0  0  0  0  0  0  0  0  0  0  0
   44.7210   34.6920   41.9780 C   0  0  0  0  0  0  0  0  0  0  0  0
   46.0380   34.5480   41.5130 C   0  0  0  0  0  0  0  0  0  0  0  0
   47.0580   34.3480   42.4500 C   0  0  0  0  0  0  0  0  0  0  0  0
   46.7100   34.3050   43.7690 N   0  0  0  0  0  0  0  0  0  0  0  0
   45.4430   34.4460   44.1980 C   0  0  0  0  0  0  0  0  0  0  0  0
   44.4880   34.6340   43.2920 N   0  0  0  0  0  0  0  0  0  0  0  0
   46.2420   34.5920   40.4550 H   0  0  0  0  0  0  0  0  0  0  0  0
   48.0610   34.2370   42.1170 H   0  0  0  0  0  0  0  0  0  0  0  0
   45.1960   34.3830   45.6230 C   0  0  0  0  0  0  0  0  0  0  0  0
   44.5020   35.3140   46.1210 O   0  0  0  0  0  0  0  0  0  0  0  0
   45.6980   33.3180   46.4840 C   0  0  0  0  0  0  0  0  0  0  0  0
   46.8310   32.5890   46.1880 C   0  0  0  0  0  0  0  0  0  0  0  0
   47.5050   32.6710   45.3200 H   0  0  0  0  0  0  0  0  0  0  0  0
   46.9500   31.7010   47.2410 C   0  0  0  0  0  0  0  0  0  0  0  0
   47.7650   30.9760   47.2970 H   0  0  0  0  0  0  0  0  0  0  0  0
   45.8890   31.9320   48.1240 C   0  0  0  0  0  0  0  0  0  0  0  0
   45.8280   31.3190   49.0130 H   0  0  0  0  0  0  0  0  0  0  0  0
   45.1880   32.9070   47.6060 O   0  0  0  0  0  0  0  0  0  0  0  0
   41.8170   35.0990   41.4390 C   0  0  0  0  0  0  0  0  0  0  0  0
   41.9270   35.4650   42.4760 H   0  0  0  0  0  0  0  0  0  0  0  0
   41.3520   34.0880   41.4370 H   0  0  0  0  0  0  0  0  0  0  0  0
   40.9220   36.0030   40.6580 C   0  0  0  0  0  0  0  0  0  0  0  0
   41.4250   36.8570   40.1760 H   0  0  0  0  0  0  0  0  0  0  0  0
   40.1770   36.4460   41.3570 H   0  0  0  0  0  0  0  0  0  0  0  0
   41.7710   36.2540   37.7490 Cl  0  0  0  0  0  0  0  0  0  0  0  0
   40.4420   35.2870   38.2860 C   0  0  0  0  0  0  0  0  0  0  0  0
   40.1330   35.2400   39.6570 C   0  0  0  0  0  0  0  0  0  0  0  0
   39.0620   34.4500   40.0140 C   0  0  0  0  0  0  0  0  0  0  0  0
   38.2600   33.6960   39.1590 C   0  0  0  0  0  0  0  0  0  0  0  0
   38.5910   33.7650   37.8200 C   0  0  0  0  0  0  0  0  0  0  0  0
   37.6330   32.8460   36.6560 Cl  0  0  0  0  0  0  0  0  0  0  0  0
   39.6490   34.5380   37.4070 C   0  0  0  0  0  0  0  0  0  0  0  0
   38.8460   34.4320   41.0780 H   0  0  0  0  0  0  0  0  0  0  0  0
   37.4470   33.1140   39.5530 H   0  0  0  0  0  0  0  0  0  0  0  0
   39.8700   34.5580   36.3390 H   0  0  0  0  0  0  0  0  0  0  0  0
  1 20  1  0  0  0  0
  1  2  1  0  0  0  0
  2  7  1  0  0  0  0
  3  2  2  0  0  0  0
  3  4  1  0  0  0  0
  4  5  2  0  0  0  0
  5  6  1  0  0  0  0
  6 10  1  0  0  0  0
  7  6  2  0  0  0  0
  8  3  1  0  0  0  0
  9  4  1  0  0  0  0
 10 11  2  0  0  0  0
 10 12  1  0  0  0  0
 12 19  1  0  0  0  0
 13 12  2  0  0  0  0
 13 15  1  0  0  0  0
 14 13  1  0  0  0  0
 15 16  1  0  0  0  0
 15 17  2  0  0  0  0
 17 18  1  0  0  0  0
 19 17  1  0  0  0  0
 20 21  1  0  0  0  0
 22 20  1  0  0  0  0
 23 25  1  0  0  0  0
 23 20  1  0  0  0  0
 24 23  1  0  0  0  0
 26 27  1  0  0  0  0
 27 28  1  0  0  0  0
 28 29  2  0  0  0  0
 28 23  1  0  0  0  0
 29 34  1  0  0  0  0
 30 35  1  0  0  0  0
 30 29  1  0  0  0  0
 31 30  2  0  0  0  0
 32 31  1  0  0  0  0
 33 31  1  0  0  0  0
 33 27  2  0  0  0  0
 36 33  1  0  0  0  0
M  END
>  <minimizedAffinity>
-6.73364401

>  <minimizedRMSD>
0.348725051

$$$$
