
 OpenBabel03242515003D

 36 38  0  0  0  0  0  0  0  0999 V2000
   43.4980   34.9700   40.7520 S   0  0  0  0  0  0  0  0  0  0  0  0
   44.7710   34.6840   41.9850 C   0  0  0  0  0  0  0  0  0  0  0  0
   46.0830   34.5310   41.5080 C   0  0  0  0  0  0  0  0  0  0  0  0
   47.1070   34.3050   42.4340 C   0  0  0  0  0  0  0  0  0  0  0  0
   46.7680   34.2470   43.7550 N   0  0  0  0  0  0  0  0  0  0  0  0
   45.5060   34.3960   44.1960 C   0  0  0  0  0  0  0  0  0  0  0  0
   44.5470   34.6090   43.2990 N   0  0  0  0  0  0  0  0  0  0  0  0
   46.2790   34.5880   40.4500 H   0  0  0  0  0  0  0  0  0  0  0  0
   48.1060   34.1870   42.0920 H   0  0  0  0  0  0  0  0  0  0  0  0
   45.2690   34.3150   45.6210 C   0  0  0  0  0  0  0  0  0  0  0  0
   44.5030   35.1880   46.1200 O   0  0  0  0  0  0  0  0  0  0  0  0
   45.8600   33.2960   46.4820 C   0  0  0  0  0  0  0  0  0  0  0  0
   45.2380   32.8250   47.6200 C   0  0  0  0  0  0  0  0  0  0  0  0
   44.2630   33.1100   48.0490 H   0  0  0  0  0  0  0  0  0  0  0  0
   46.1190   31.8910   48.1290 C   0  0  0  0  0  0  0  0  0  0  0  0
   45.9070   31.3330   49.0430 H   0  0  0  0  0  0  0  0  0  0  0  0
   47.2310   31.8370   47.2800 C   0  0  0  0  0  0  0  0  0  0  0  0
   48.0280   31.1500   47.5320 H   0  0  0  0  0  0  0  0  0  0  0  0
   47.0040   32.7000   46.3260 O   0  0  0  0  0  0  0  0  0  0  0  0
   41.8650   35.1040   41.4710 C   0  0  0  0  0  0  0  0  0  0  0  0
   41.9780   35.4590   42.5120 H   0  0  0  0  0  0  0  0  0  0  0  0
   41.4070   34.0890   41.4610 H   0  0  0  0  0  0  0  0  0  0  0  0
   40.9570   36.0080   40.7060 C   0  0  0  0  0  0  0  0  0  0  0  0
   41.4510   36.8690   40.2280 H   0  0  0  0  0  0  0  0  0  0  0  0
   40.2150   36.4410   41.4150 H   0  0  0  0  0  0  0  0  0  0  0  0
   41.7990   36.2670   37.7960 Cl  0  0  0  0  0  0  0  0  0  0  0  0
   40.4700   35.2990   38.3330 C   0  0  0  0  0  0  0  0  0  0  0  0
   40.1650   35.2490   39.7050 C   0  0  0  0  0  0  0  0  0  0  0  0
   39.0940   34.4600   40.0620 C   0  0  0  0  0  0  0  0  0  0  0  0
   38.2880   33.7090   39.2070 C   0  0  0  0  0  0  0  0  0  0  0  0
   38.6160   33.7820   37.8670 C   0  0  0  0  0  0  0  0  0  0  0  0
   37.6540   32.8670   36.7040 Cl  0  0  0  0  0  0  0  0  0  0  0  0
   39.6740   34.5540   37.4540 C   0  0  0  0  0  0  0  0  0  0  0  0
   38.8800   34.4390   41.1270 H   0  0  0  0  0  0  0  0  0  0  0  0
   37.4760   33.1270   39.6010 H   0  0  0  0  0  0  0  0  0  0  0  0
   39.8920   34.5770   36.3860 H   0  0  0  0  0  0  0  0  0  0  0  0
  1 20  1  0  0  0  0
  1  2  1  0  0  0  0
  2  7  1  0  0  0  0
  3  2  2  0  0  0  0
  3  4  1  0  0  0  0
  4  5  2  0  0  0  0
  5  6  1  0  0  0  0
  6 10  1  0  0  0  0
  7  6  2  0  0  0  0
  8  3  1  0  0  0  0
  9  4  1  0  0  0  0
 10 11  2  0  0  0  0
 10 12  1  0  0  0  0
 12 13  2  0  0  0  0
 13 14  1  0  0  0  0
 13 15  1  0  0  0  0
 15 16  1  0  0  0  0
 17 18  1  0  0  0  0
 17 15  2  0  0  0  0
 19 12  1  0  0  0  0
 19 17  1  0  0  0  0
 20 21  1  0  0  0  0
 22 20  1  0  0  0  0
 23 25  1  0  0  0  0
 23 20  1  0  0  0  0
 24 23  1  0  0  0  0
 26 27  1  0  0  0  0
 27 28  1  0  0  0  0
 28 29  2  0  0  0  0
 28 23  1  0  0  0  0
 29 34  1  0  0  0  0
 30 35  1  0  0  0  0
 30 29  1  0  0  0  0
 31 30  2  0  0  0  0
 32 31  1  0  0  0  0
 33 31  1  0  0  0  0
 33 27  2  0  0  0  0
 36 33  1  0  0  0  0
M  END
>  <minimizedAffinity>
-6.79043722

>  <minimizedRMSD>
0.24517858

$$$$
