
 OpenBabel03242515003D

 36 38  0  0  0  0  0  0  0  0999 V2000
   43.8450   34.7560   40.7820 S   0  0  0  0  0  0  0  0  0  0  0  0
   45.1200   34.4720   42.0130 C   0  0  0  0  0  0  0  0  0  0  0  0
   46.4490   34.5340   41.5640 C   0  0  0  0  0  0  0  0  0  0  0  0
   47.4770   34.3180   42.4890 C   0  0  0  0  0  0  0  0  0  0  0  0
   47.1230   34.0580   43.7820 N   0  0  0  0  0  0  0  0  0  0  0  0
   45.8450   34.0030   44.1960 C   0  0  0  0  0  0  0  0  0  0  0  0
   44.8840   34.2100   43.3010 N   0  0  0  0  0  0  0  0  0  0  0  0
   46.6570   34.7430   40.5270 H   0  0  0  0  0  0  0  0  0  0  0  0
   48.4890   34.3610   42.1690 H   0  0  0  0  0  0  0  0  0  0  0  0
   45.5930   33.7200   45.5930 C   0  0  0  0  0  0  0  0  0  0  0  0
   44.8690   34.5450   46.2190 O   0  0  0  0  0  0  0  0  0  0  0  0
   46.1240   32.5530   46.2900 C   0  0  0  0  0  0  0  0  0  0  0  0
   47.0270   32.6490   47.3290 C   0  0  0  0  0  0  0  0  0  0  0  0
   47.4730   33.5490   47.7820 H   0  0  0  0  0  0  0  0  0  0  0  0
   47.2650   31.3380   47.6960 C   0  0  0  0  0  0  0  0  0  0  0  0
   47.9490   31.0790   48.5060 H   0  0  0  0  0  0  0  0  0  0  0  0
   46.4990   30.5100   46.8670 C   0  0  0  0  0  0  0  0  0  0  0  0
   46.5660   29.4410   47.0180 H   0  0  0  0  0  0  0  0  0  0  0  0
   45.8480   31.3050   46.0570 O   0  0  0  0  0  0  0  0  0  0  0  0
   42.2100   34.8650   41.5020 C   0  0  0  0  0  0  0  0  0  0  0  0
   42.3240   35.1170   42.5720 H   0  0  0  0  0  0  0  0  0  0  0  0
   41.7260   33.8680   41.3940 H   0  0  0  0  0  0  0  0  0  0  0  0
   41.3330   35.8610   40.8190 C   0  0  0  0  0  0  0  0  0  0  0  0
   41.8640   36.6980   40.3380 H   0  0  0  0  0  0  0  0  0  0  0  0
   40.6690   36.3240   41.5850 H   0  0  0  0  0  0  0  0  0  0  0  0
   42.0620   36.0930   37.8770 Cl  0  0  0  0  0  0  0  0  0  0  0  0
   40.6730   35.2460   38.4630 C   0  0  0  0  0  0  0  0  0  0  0  0
   40.4270   35.1990   39.8460 C   0  0  0  0  0  0  0  0  0  0  0  0
   39.3030   34.5080   40.2420 C   0  0  0  0  0  0  0  0  0  0  0  0
   38.3920   33.8530   39.4160 C   0  0  0  0  0  0  0  0  0  0  0  0
   38.6630   33.9190   38.0630 C   0  0  0  0  0  0  0  0  0  0  0  0
   37.5660   33.1210   36.9340 Cl  0  0  0  0  0  0  0  0  0  0  0  0
   39.7700   34.5960   37.6110 C   0  0  0  0  0  0  0  0  0  0  0  0
   39.1370   34.4870   41.3150 H   0  0  0  0  0  0  0  0  0  0  0  0
   37.5460   33.3430   39.8400 H   0  0  0  0  0  0  0  0  0  0  0  0
   39.9400   34.6180   36.5350 H   0  0  0  0  0  0  0  0  0  0  0  0
  1 20  1  0  0  0  0
  1  2  1  0  0  0  0
  2  7  1  0  0  0  0
  3  2  2  0  0  0  0
  3  4  1  0  0  0  0
  4  5  2  0  0  0  0
  5  6  1  0  0  0  0
  6 10  1  0  0  0  0
  7  6  2  0  0  0  0
  8  3  1  0  0  0  0
  9  4  1  0  0  0  0
 10 11  2  0  0  0  0
 10 12  1  0  0  0  0
 12 13  2  0  0  0  0
 13 15  1  0  0  0  0
 13 14  1  0  0  0  0
 15 16  1  0  0  0  0
 17 18  1  0  0  0  0
 17 15  2  0  0  0  0
 19 12  1  0  0  0  0
 19 17  1  0  0  0  0
 20 21  1  0  0  0  0
 22 20  1  0  0  0  0
 23 20  1  0  0  0  0
 23 25  1  0  0  0  0
 24 23  1  0  0  0  0
 26 27  1  0  0  0  0
 27 28  1  0  0  0  0
 28 29  2  0  0  0  0
 28 23  1  0  0  0  0
 29 34  1  0  0  0  0
 30 35  1  0  0  0  0
 30 29  1  0  0  0  0
 31 30  2  0  0  0  0
 32 31  1  0  0  0  0
 33 31  1  0  0  0  0
 33 27  2  0  0  0  0
 36 33  1  0  0  0  0
M  END
>  <minimizedAffinity>
-6.48672247

>  <minimizedRMSD>
0.568343043

$$$$
