
 OpenBabel03242515023D

 36 38  0  0  0  0  0  0  0  0999 V2000
   42.3130   31.0610   40.9190 S   0  0  0  0  0  0  0  0  0  0  0  0
   41.1860   32.4100   40.5570 C   0  0  0  0  0  0  0  0  0  0  0  0
   41.7230   33.7060   40.6090 C   0  0  0  0  0  0  0  0  0  0  0  0
   40.8800   34.7900   40.3340 C   0  0  0  0  0  0  0  0  0  0  0  0
   39.5770   34.5190   40.0300 N   0  0  0  0  0  0  0  0  0  0  0  0
   39.0780   33.2710   39.9850 C   0  0  0  0  0  0  0  0  0  0  0  0
   39.8950   32.2560   40.2500 N   0  0  0  0  0  0  0  0  0  0  0  0
   42.7630   33.8480   40.8560 H   0  0  0  0  0  0  0  0  0  0  0  0
   41.2690   35.7780   40.3680 H   0  0  0  0  0  0  0  0  0  0  0  0
   37.6790   33.1090   39.6510 C   0  0  0  0  0  0  0  0  0  0  0  0
   37.0250   34.1650   39.4160 O   0  0  0  0  0  0  0  0  0  0  0  0
   37.0110   31.8150   39.5750 C   0  0  0  0  0  0  0  0  0  0  0  0
   36.4100   31.2170   40.6640 C   0  0  0  0  0  0  0  0  0  0  0  0
   36.3330   31.5790   41.7010 H   0  0  0  0  0  0  0  0  0  0  0  0
   35.9080   30.0290   40.1670 C   0  0  0  0  0  0  0  0  0  0  0  0
   35.3680   29.3220   40.7980 H   0  0  0  0  0  0  0  0  0  0  0  0
   36.2250   29.9610   38.8060 C   0  0  0  0  0  0  0  0  0  0  0  0
   35.9040   29.0870   38.2550 H   0  0  0  0  0  0  0  0  0  0  0  0
   36.8800   31.0570   38.5270 O   0  0  0  0  0  0  0  0  0  0  0  0
   42.0810   30.3970   42.5650 C   0  0  0  0  0  0  0  0  0  0  0  0
   41.1900   30.8810   43.0060 H   0  0  0  0  0  0  0  0  0  0  0  0
   42.9870   30.6480   43.1610 H   0  0  0  0  0  0  0  0  0  0  0  0
   41.9330   28.9120   42.5840 C   0  0  0  0  0  0  0  0  0  0  0  0
   42.6530   28.3790   43.2260 H   0  0  0  0  0  0  0  0  0  0  0  0
   42.1070   28.5300   41.5520 H   0  0  0  0  0  0  0  0  0  0  0  0
   41.5460   26.1500   43.7940 Cl  0  0  0  0  0  0  0  0  0  0  0  0
   40.2560   27.2620   43.4970 C   0  0  0  0  0  0  0  0  0  0  0  0
   40.5440   28.5170   42.9320 C   0  0  0  0  0  0  0  0  0  0  0  0
   39.4690   29.3520   42.7220 C   0  0  0  0  0  0  0  0  0  0  0  0
   38.1320   29.0810   43.0120 C   0  0  0  0  0  0  0  0  0  0  0  0
   37.8850   27.8400   43.5650 C   0  0  0  0  0  0  0  0  0  0  0  0
   36.2230   27.4020   43.9670 Cl  0  0  0  0  0  0  0  0  0  0  0  0
   38.9190   26.9660   43.7960 C   0  0  0  0  0  0  0  0  0  0  0  0
   39.7200   30.3140   42.2850 H   0  0  0  0  0  0  0  0  0  0  0  0
   37.3740   29.8140   42.8040 H   0  0  0  0  0  0  0  0  0  0  0  0
   38.6710   26.0000   44.2350 H   0  0  0  0  0  0  0  0  0  0  0  0
  1 20  1  0  0  0  0
  2  3  1  0  0  0  0
  2  1  1  0  0  0  0
  3  8  1  0  0  0  0
  4  9  1  0  0  0  0
  4  3  2  0  0  0  0
  5  4  1  0  0  0  0
  6  5  2  0  0  0  0
  6  7  1  0  0  0  0
  7  2  2  0  0  0  0
 10  6  1  0  0  0  0
 11 10  2  0  0  0  0
 12 10  1  0  0  0  0
 12 13  2  0  0  0  0
 13 14  1  0  0  0  0
 15 13  1  0  0  0  0
 15 16  1  0  0  0  0
 17 15  2  0  0  0  0
 18 17  1  0  0  0  0
 19 17  1  0  0  0  0
 19 12  1  0  0  0  0
 20 23  1  0  0  0  0
 20 21  1  0  0  0  0
 20 22  1  0  0  0  0
 23 28  1  0  0  0  0
 23 24  1  0  0  0  0
 25 23  1  0  0  0  0
 27 26  1  0  0  0  0
 27 33  1  0  0  0  0
 28 27  2  0  0  0  0
 29 28  1  0  0  0  0
 29 30  2  0  0  0  0
 30 31  1  0  0  0  0
 31 33  2  0  0  0  0
 31 32  1  0  0  0  0
 33 36  1  0  0  0  0
 34 29  1  0  0  0  0
 35 30  1  0  0  0  0
M  END
>  <minimizedAffinity>
-5.75545883

$$$$

 OpenBabel03242515023D

 36 38  0  0  0  0  0  0  0  0999 V2000
   38.1810   30.9030   40.0660 S   0  0  0  0  0  0  0  0  0  0  0  0
   38.9230   32.5350   40.1520 C   0  0  0  0  0  0  0  0  0  0  0  0
   38.0440   33.6280   40.0850 C   0  0  0  0  0  0  0  0  0  0  0  0
   38.5790   34.9190   40.1470 C   0  0  0  0  0  0  0  0  0  0  0  0
   39.9330   35.0400   40.2710 N   0  0  0  0  0  0  0  0  0  0  0  0
   40.7620   33.9830   40.3340 C   0  0  0  0  0  0  0  0  0  0  0  0
   40.2330   32.7640   40.2720 N   0  0  0  0  0  0  0  0  0  0  0  0
   36.9840   33.4590   39.9860 H   0  0  0  0  0  0  0  0  0  0  0  0
   37.9300   35.7590   40.0980 H   0  0  0  0  0  0  0  0  0  0  0  0
   42.1810   34.2360   40.4660 C   0  0  0  0  0  0  0  0  0  0  0  0
   42.5430   34.9430   41.4490 O   0  0  0  0  0  0  0  0  0  0  0  0
   43.1830   33.7240   39.5380 C   0  0  0  0  0  0  0  0  0  0  0  0
   43.8700   32.5460   39.7540 C   0  0  0  0  0  0  0  0  0  0  0  0
   43.7930   31.8400   40.5950 H   0  0  0  0  0  0  0  0  0  0  0  0
   44.7040   32.4330   38.6570 C   0  0  0  0  0  0  0  0  0  0  0  0
   45.3860   31.5900   38.5350 H   0  0  0  0  0  0  0  0  0  0  0  0
   44.4860   33.5410   37.8310 C   0  0  0  0  0  0  0  0  0  0  0  0
   45.0620   33.6130   36.9180 H   0  0  0  0  0  0  0  0  0  0  0  0
   43.5680   34.2620   38.4200 O   0  0  0  0  0  0  0  0  0  0  0  0
   36.7080   30.7660   41.0740 C   0  0  0  0  0  0  0  0  0  0  0  0
   36.2040   31.7500   41.0770 H   0  0  0  0  0  0  0  0  0  0  0  0
   37.0280   30.4970   42.1050 H   0  0  0  0  0  0  0  0  0  0  0  0
   35.7720   29.7010   40.6060 C   0  0  0  0  0  0  0  0  0  0  0  0
   35.5290   29.7320   39.5320 H   0  0  0  0  0  0  0  0  0  0  0  0
   34.8030   29.8290   41.1390 H   0  0  0  0  0  0  0  0  0  0  0  0
   36.0830   27.6700   38.3650 Cl  0  0  0  0  0  0  0  0  0  0  0  0
   36.4450   27.3400   40.0230 C   0  0  0  0  0  0  0  0  0  0  0  0
   36.2660   28.3520   40.9830 C   0  0  0  0  0  0  0  0  0  0  0  0
   36.5730   28.0190   42.2830 C   0  0  0  0  0  0  0  0  0  0  0  0
   37.0420   26.7900   42.7420 C   0  0  0  0  0  0  0  0  0  0  0  0
   37.2060   25.8190   41.7740 C   0  0  0  0  0  0  0  0  0  0  0  0
   37.7950   24.2260   42.2550 Cl  0  0  0  0  0  0  0  0  0  0  0  0
   36.9150   26.0940   40.4600 C   0  0  0  0  0  0  0  0  0  0  0  0
   36.4260   28.8190   43.0040 H   0  0  0  0  0  0  0  0  0  0  0  0
   37.2490   26.6450   43.7870 H   0  0  0  0  0  0  0  0  0  0  0  0
   37.0620   25.2940   39.7340 H   0  0  0  0  0  0  0  0  0  0  0  0
  1  2  1  0  0  0  0
  1 20  1  0  0  0  0
  2  7  1  0  0  0  0
  3  4  1  0  0  0  0
  3  2  2  0  0  0  0
  4  5  2  0  0  0  0
  5  6  1  0  0  0  0
  6 10  1  0  0  0  0
  7  6  2  0  0  0  0
  8  3  1  0  0  0  0
  9  4  1  0  0  0  0
 10 11  2  0  0  0  0
 12 13  2  0  0  0  0
 12 10  1  0  0  0  0
 13 14  1  0  0  0  0
 15 13  1  0  0  0  0
 16 15  1  0  0  0  0
 17 19  1  0  0  0  0
 17 15  2  0  0  0  0
 18 17  1  0  0  0  0
 19 12  1  0  0  0  0
 20 21  1  0  0  0  0
 20 22  1  0  0  0  0
 23 28  1  0  0  0  0
 23 20  1  0  0  0  0
 23 25  1  0  0  0  0
 24 23  1  0  0  0  0
 26 27  1  0  0  0  0
 27 33  2  0  0  0  0
 27 28  1  0  0  0  0
 28 29  2  0  0  0  0
 29 30  1  0  0  0  0
 29 34  1  0  0  0  0
 30 35  1  0  0  0  0
 31 32  1  0  0  0  0
 31 30  2  0  0  0  0
 33 31  1  0  0  0  0
 36 33  1  0  0  0  0
M  END
>  <minimizedAffinity>
-5.6012702

$$$$

 OpenBabel03242515023D

 36 38  0  0  0  0  0  0  0  0999 V2000
   37.1920   32.0450   40.2470 S   0  0  0  0  0  0  0  0  0  0  0  0
   38.6220   33.0740   39.9070 C   0  0  0  0  0  0  0  0  0  0  0  0
   38.6060   34.3690   40.4500 C   0  0  0  0  0  0  0  0  0  0  0  0
   39.7010   35.2070   40.2090 C   0  0  0  0  0  0  0  0  0  0  0  0
   40.7260   34.7130   39.4550 N   0  0  0  0  0  0  0  0  0  0  0  0
   40.7260   33.4690   38.9420 C   0  0  0  0  0  0  0  0  0  0  0  0
   39.6760   32.6890   39.1820 N   0  0  0  0  0  0  0  0  0  0  0  0
   37.7630   34.6950   41.0360 H   0  0  0  0  0  0  0  0  0  0  0  0
   39.7070   36.1900   40.6120 H   0  0  0  0  0  0  0  0  0  0  0  0
   41.8700   33.0560   38.1580 C   0  0  0  0  0  0  0  0  0  0  0  0
   41.6290   32.4560   37.0720 O   0  0  0  0  0  0  0  0  0  0  0  0
   43.2530   33.2980   38.5570 C   0  0  0  0  0  0  0  0  0  0  0  0
   43.8970   32.5450   39.5170 C   0  0  0  0  0  0  0  0  0  0  0  0
   43.5170   31.6950   40.1060 H   0  0  0  0  0  0  0  0  0  0  0  0
   45.1630   33.0950   39.5890 C   0  0  0  0  0  0  0  0  0  0  0  0
   45.9230   32.7090   40.2700 H   0  0  0  0  0  0  0  0  0  0  0  0
   45.2280   34.1510   38.6730 C   0  0  0  0  0  0  0  0  0  0  0  0
   46.1580   34.6990   38.5980 H   0  0  0  0  0  0  0  0  0  0  0  0
   44.0560   34.2110   38.0980 O   0  0  0  0  0  0  0  0  0  0  0  0
   37.6440   30.4190   40.8430 C   0  0  0  0  0  0  0  0  0  0  0  0
   38.4830   30.5370   41.5540 H   0  0  0  0  0  0  0  0  0  0  0  0
   37.9690   29.8160   39.9660 H   0  0  0  0  0  0  0  0  0  0  0  0
   36.5110   29.6920   41.4880 C   0  0  0  0  0  0  0  0  0  0  0  0
   35.5110   29.9500   41.1020 H   0  0  0  0  0  0  0  0  0  0  0  0
   36.4960   29.9570   42.5690 H   0  0  0  0  0  0  0  0  0  0  0  0
   37.1560   28.2950   44.1100 Cl  0  0  0  0  0  0  0  0  0  0  0  0
   37.0210   27.4800   42.5910 C   0  0  0  0  0  0  0  0  0  0  0  0
   36.7180   28.2220   41.4350 C   0  0  0  0  0  0  0  0  0  0  0  0
   36.6260   27.5090   40.2600 C   0  0  0  0  0  0  0  0  0  0  0  0
   36.8000   26.1350   40.1020 C   0  0  0  0  0  0  0  0  0  0  0  0
   37.0970   25.4380   41.2560 C   0  0  0  0  0  0  0  0  0  0  0  0
   37.3370   23.6920   41.1590 Cl  0  0  0  0  0  0  0  0  0  0  0  0
   37.2020   26.0980   42.4570 C   0  0  0  0  0  0  0  0  0  0  0  0
   36.3910   28.1060   39.3840 H   0  0  0  0  0  0  0  0  0  0  0  0
   36.7040   25.6860   39.1310 H   0  0  0  0  0  0  0  0  0  0  0  0
   37.4370   25.5020   43.3380 H   0  0  0  0  0  0  0  0  0  0  0  0
  1 20  1  0  0  0  0
  2  1  1  0  0  0  0
  2  3  1  0  0  0  0
  3  8  1  0  0  0  0
  4  3  2  0  0  0  0
  4  9  1  0  0  0  0
  5  4  1  0  0  0  0
  6  7  1  0  0  0  0
  6  5  2  0  0  0  0
  7  2  2  0  0  0  0
 10 12  1  0  0  0  0
 10  6  1  0  0  0  0
 11 10  2  0  0  0  0
 12 13  2  0  0  0  0
 13 15  1  0  0  0  0
 13 14  1  0  0  0  0
 15 16  1  0  0  0  0
 17 15  2  0  0  0  0
 18 17  1  0  0  0  0
 19 12  1  0  0  0  0
 19 17  1  0  0  0  0
 20 23  1  0  0  0  0
 20 21  1  0  0  0  0
 22 20  1  0  0  0  0
 23 25  1  0  0  0  0
 24 23  1  0  0  0  0
 27 26  1  0  0  0  0
 28 23  1  0  0  0  0
 28 27  2  0  0  0  0
 29 28  1  0  0  0  0
 30 29  2  0  0  0  0
 30 31  1  0  0  0  0
 31 33  2  0  0  0  0
 32 31  1  0  0  0  0
 33 27  1  0  0  0  0
 33 36  1  0  0  0  0
 34 29  1  0  0  0  0
 35 30  1  0  0  0  0
M  END
>  <minimizedAffinity>
-5.58126402

$$$$

 OpenBabel03242515023D

 36 38  0  0  0  0  0  0  0  0999 V2000
   37.9410   30.6390   39.0770 S   0  0  0  0  0  0  0  0  0  0  0  0
   38.5430   32.2940   39.4220 C   0  0  0  0  0  0  0  0  0  0  0  0
   37.5720   33.2690   39.6980 C   0  0  0  0  0  0  0  0  0  0  0  0
   37.9970   34.5750   39.9720 C   0  0  0  0  0  0  0  0  0  0  0  0
   39.3390   34.8230   39.9540 N   0  0  0  0  0  0  0  0  0  0  0  0
   40.2570   33.8760   39.6880 C   0  0  0  0  0  0  0  0  0  0  0  0
   39.8320   32.6430   39.4300 N   0  0  0  0  0  0  0  0  0  0  0  0
   36.5280   33.0040   39.6940 H   0  0  0  0  0  0  0  0  0  0  0  0
   37.2760   35.3270   40.1830 H   0  0  0  0  0  0  0  0  0  0  0  0
   41.6520   34.2590   39.6990 C   0  0  0  0  0  0  0  0  0  0  0  0
   42.1160   34.7490   38.6300 O   0  0  0  0  0  0  0  0  0  0  0  0
   42.5230   34.1090   40.8600 C   0  0  0  0  0  0  0  0  0  0  0  0
   42.8110   32.8840   41.4260 C   0  0  0  0  0  0  0  0  0  0  0  0
   42.4650   31.8810   41.1290 H   0  0  0  0  0  0  0  0  0  0  0  0
   43.6530   33.1850   42.4810 C   0  0  0  0  0  0  0  0  0  0  0  0
   44.0600   32.4120   43.1330 H   0  0  0  0  0  0  0  0  0  0  0  0
   43.8360   34.5720   42.5050 C   0  0  0  0  0  0  0  0  0  0  0  0
   44.4730   34.9850   43.2760 H   0  0  0  0  0  0  0  0  0  0  0  0
   43.1340   35.0520   41.5130 O   0  0  0  0  0  0  0  0  0  0  0  0
   36.5250   30.2020   40.0820 C   0  0  0  0  0  0  0  0  0  0  0  0
   36.2510   29.1560   39.8480 H   0  0  0  0  0  0  0  0  0  0  0  0
   35.6920   30.8860   39.8070 H   0  0  0  0  0  0  0  0  0  0  0  0
   36.7700   30.3640   41.5450 C   0  0  0  0  0  0  0  0  0  0  0  0
   35.8690   30.5490   42.1520 H   0  0  0  0  0  0  0  0  0  0  0  0
   37.4230   31.2530   41.6940 H   0  0  0  0  0  0  0  0  0  0  0  0
   39.5800   30.9200   42.5660 Cl  0  0  0  0  0  0  0  0  0  0  0  0
   38.8360   29.3590   42.5890 C   0  0  0  0  0  0  0  0  0  0  0  0
   37.5300   29.2100   42.0910 C   0  0  0  0  0  0  0  0  0  0  0  0
   37.0000   27.9390   42.1400 C   0  0  0  0  0  0  0  0  0  0  0  0
   37.6240   26.7930   42.6310 C   0  0  0  0  0  0  0  0  0  0  0  0
   38.9060   26.9750   43.1120 C   0  0  0  0  0  0  0  0  0  0  0  0
   39.7810   25.5830   43.7550 Cl  0  0  0  0  0  0  0  0  0  0  0  0
   39.4850   28.2210   43.0880 C   0  0  0  0  0  0  0  0  0  0  0  0
   35.9900   27.8530   41.7500 H   0  0  0  0  0  0  0  0  0  0  0  0
   37.1100   25.8500   42.6190 H   0  0  0  0  0  0  0  0  0  0  0  0
   40.4980   28.3120   43.4790 H   0  0  0  0  0  0  0  0  0  0  0  0
  1  2  1  0  0  0  0
  1 20  1  0  0  0  0
  2  7  2  0  0  0  0
  2  3  1  0  0  0  0
  3  4  2  0  0  0  0
  4  9  1  0  0  0  0
  5  4  1  0  0  0  0
  6 10  1  0  0  0  0
  6  5  2  0  0  0  0
  7  6  1  0  0  0  0
  8  3  1  0  0  0  0
 10 12  1  0  0  0  0
 11 10  2  0  0  0  0
 12 13  2  0  0  0  0
 12 19  1  0  0  0  0
 13 15  1  0  0  0  0
 14 13  1  0  0  0  0
 15 17  2  0  0  0  0
 15 16  1  0  0  0  0
 17 18  1  0  0  0  0
 19 17  1  0  0  0  0
 20 23  1  0  0  0  0
 21 20  1  0  0  0  0
 22 20  1  0  0  0  0
 23 25  1  0  0  0  0
 23 28  1  0  0  0  0
 23 24  1  0  0  0  0
 26 27  1  0  0  0  0
 27 33  1  0  0  0  0
 28 29  1  0  0  0  0
 28 27  2  0  0  0  0
 29 30  2  0  0  0  0
 30 31  1  0  0  0  0
 31 32  1  0  0  0  0
 33 31  2  0  0  0  0
 33 36  1  0  0  0  0
 34 29  1  0  0  0  0
 35 30  1  0  0  0  0
M  END
>  <minimizedAffinity>
-5.56432056

$$$$

 OpenBabel03242515023D

 36 38  0  0  0  0  0  0  0  0999 V2000
   35.8460   29.8260   40.8620 S   0  0  0  0  0  0  0  0  0  0  0  0
   36.9640   30.8470   39.8990 C   0  0  0  0  0  0  0  0  0  0  0  0
   37.1350   30.4910   38.5510 C   0  0  0  0  0  0  0  0  0  0  0  0
   37.9980   31.2590   37.7620 C   0  0  0  0  0  0  0  0  0  0  0  0
   38.6270   32.3160   38.3540 N   0  0  0  0  0  0  0  0  0  0  0  0
   38.4530   32.6450   39.6470 C   0  0  0  0  0  0  0  0  0  0  0  0
   37.6280   31.9010   40.3790 N   0  0  0  0  0  0  0  0  0  0  0  0
   36.6060   29.6420   38.1490 H   0  0  0  0  0  0  0  0  0  0  0  0
   38.1400   31.0050   36.7410 H   0  0  0  0  0  0  0  0  0  0  0  0
   39.1740   33.7880   40.1620 C   0  0  0  0  0  0  0  0  0  0  0  0
   38.5070   34.8460   40.3460 O   0  0  0  0  0  0  0  0  0  0  0  0
   40.6000   33.7720   40.4710 C   0  0  0  0  0  0  0  0  0  0  0  0
   41.2640   32.6340   40.8810 C   0  0  0  0  0  0  0  0  0  0  0  0
   40.8710   31.6170   41.0370 H   0  0  0  0  0  0  0  0  0  0  0  0
   42.5700   33.0490   41.0640 C   0  0  0  0  0  0  0  0  0  0  0  0
   43.3530   32.3640   41.3920 H   0  0  0  0  0  0  0  0  0  0  0  0
   42.6380   34.4120   40.7570 C   0  0  0  0  0  0  0  0  0  0  0  0
   43.5970   34.9040   40.8470 H   0  0  0  0  0  0  0  0  0  0  0  0
   41.4290   34.7710   40.4130 O   0  0  0  0  0  0  0  0  0  0  0  0
   36.4380   28.1470   41.0470 C   0  0  0  0  0  0  0  0  0  0  0  0
   37.4050   28.0660   40.5180 H   0  0  0  0  0  0  0  0  0  0  0  0
   35.6880   27.4710   40.5780 H   0  0  0  0  0  0  0  0  0  0  0  0
   36.5850   27.7290   42.4730 C   0  0  0  0  0  0  0  0  0  0  0  0
   35.8040   27.0460   42.8410 H   0  0  0  0  0  0  0  0  0  0  0  0
   36.5180   28.6390   43.1120 H   0  0  0  0  0  0  0  0  0  0  0  0
   36.8970   24.7270   42.1070 Cl  0  0  0  0  0  0  0  0  0  0  0  0
   38.1830   25.7790   42.5850 C   0  0  0  0  0  0  0  0  0  0  0  0
   37.9310   27.1560   42.7260 C   0  0  0  0  0  0  0  0  0  0  0  0
   39.0010   27.9340   43.1100 C   0  0  0  0  0  0  0  0  0  0  0  0
   40.2990   27.5000   43.3710 C   0  0  0  0  0  0  0  0  0  0  0  0
   40.5110   26.1430   43.2240 C   0  0  0  0  0  0  0  0  0  0  0  0
   42.1230   25.4930   43.5320 Cl  0  0  0  0  0  0  0  0  0  0  0  0
   39.4800   25.3180   42.8430 C   0  0  0  0  0  0  0  0  0  0  0  0
   38.7790   28.9930   43.2100 H   0  0  0  0  0  0  0  0  0  0  0  0
   41.0570   28.2020   43.6650 H   0  0  0  0  0  0  0  0  0  0  0  0
   39.7000   24.2550   42.7400 H   0  0  0  0  0  0  0  0  0  0  0  0
  1 20  1  0  0  0  0
  2  7  1  0  0  0  0
  2  1  1  0  0  0  0
  3  2  2  0  0  0  0
  4  5  2  0  0  0  0
  4  3  1  0  0  0  0
  5  6  1  0  0  0  0
  6 10  1  0  0  0  0
  6  7  2  0  0  0  0
  8  3  1  0  0  0  0
  9  4  1  0  0  0  0
 10 11  2  0  0  0  0
 10 12  1  0  0  0  0
 12 13  2  0  0  0  0
 13 14  1  0  0  0  0
 13 15  1  0  0  0  0
 15 16  1  0  0  0  0
 17 18  1  0  0  0  0
 17 15  2  0  0  0  0
 19 12  1  0  0  0  0
 19 17  1  0  0  0  0
 20 23  1  0  0  0  0
 21 20  1  0  0  0  0
 22 20  1  0  0  0  0
 23 28  1  0  0  0  0
 23 24  1  0  0  0  0
 23 25  1  0  0  0  0
 26 27  1  0  0  0  0
 27 28  2  0  0  0  0
 27 33  1  0  0  0  0
 28 29  1  0  0  0  0
 29 34  1  0  0  0  0
 29 30  2  0  0  0  0
 30 35  1  0  0  0  0
 31 30  1  0  0  0  0
 31 32  1  0  0  0  0
 33 31  2  0  0  0  0
 36 33  1  0  0  0  0
M  END
>  <minimizedAffinity>
-5.53359604

$$$$

 OpenBabel03242515023D

 36 38  0  0  0  0  0  0  0  0999 V2000
   36.6580   25.9610   37.7160 S   0  0  0  0  0  0  0  0  0  0  0  0
   36.7930   25.6300   39.4750 C   0  0  0  0  0  0  0  0  0  0  0  0
   36.7280   24.2830   39.8670 C   0  0  0  0  0  0  0  0  0  0  0  0
   36.8280   23.9790   41.2290 C   0  0  0  0  0  0  0  0  0  0  0  0
   36.9850   25.0170   42.1020 N   0  0  0  0  0  0  0  0  0  0  0  0
   37.0470   26.3020   41.7100 C   0  0  0  0  0  0  0  0  0  0  0  0
   36.9490   26.5700   40.4110 N   0  0  0  0  0  0  0  0  0  0  0  0
   36.6010   23.5130   39.1230 H   0  0  0  0  0  0  0  0  0  0  0  0
   36.7800   22.9660   41.5440 H   0  0  0  0  0  0  0  0  0  0  0  0
   37.2160   27.3160   42.7290 C   0  0  0  0  0  0  0  0  0  0  0  0
   36.3990   27.2950   43.6930 O   0  0  0  0  0  0  0  0  0  0  0  0
   38.2610   28.3340   42.6900 C   0  0  0  0  0  0  0  0  0  0  0  0
   39.6060   28.0240   42.6710 C   0  0  0  0  0  0  0  0  0  0  0  0
   40.0930   27.0370   42.6800 H   0  0  0  0  0  0  0  0  0  0  0  0
   40.2380   29.2530   42.6360 C   0  0  0  0  0  0  0  0  0  0  0  0
   41.3250   29.3430   42.6140 H   0  0  0  0  0  0  0  0  0  0  0  0
   39.2520   30.2470   42.6360 C   0  0  0  0  0  0  0  0  0  0  0  0
   39.5740   31.2790   42.6110 H   0  0  0  0  0  0  0  0  0  0  0  0
   38.1030   29.6230   42.6690 O   0  0  0  0  0  0  0  0  0  0  0  0
   36.9900   27.6730   37.3130 C   0  0  0  0  0  0  0  0  0  0  0  0
   37.2030   27.7320   36.2300 H   0  0  0  0  0  0  0  0  0  0  0  0
   37.8830   27.9900   37.8960 H   0  0  0  0  0  0  0  0  0  0  0  0
   35.8710   28.5900   37.6770 C   0  0  0  0  0  0  0  0  0  0  0  0
   35.1000   28.1500   38.3300 H   0  0  0  0  0  0  0  0  0  0  0  0
   35.3430   28.8860   36.7420 H   0  0  0  0  0  0  0  0  0  0  0  0
   35.0570   29.2070   40.5410 Cl  0  0  0  0  0  0  0  0  0  0  0  0
   36.0680   30.2320   39.5830 C   0  0  0  0  0  0  0  0  0  0  0  0
   36.3840   29.8530   38.2670 C   0  0  0  0  0  0  0  0  0  0  0  0
   37.1930   30.7170   37.5620 C   0  0  0  0  0  0  0  0  0  0  0  0
   37.7280   31.9200   38.0190 C   0  0  0  0  0  0  0  0  0  0  0  0
   37.3960   32.2620   39.3150 C   0  0  0  0  0  0  0  0  0  0  0  0
   38.0240   33.7700   39.9860 Cl  0  0  0  0  0  0  0  0  0  0  0  0
   36.5920   31.4390   40.0650 C   0  0  0  0  0  0  0  0  0  0  0  0
   37.4230   30.4000   36.5490 H   0  0  0  0  0  0  0  0  0  0  0  0
   38.3500   32.5150   37.3760 H   0  0  0  0  0  0  0  0  0  0  0  0
   36.3610   31.7530   41.0830 H   0  0  0  0  0  0  0  0  0  0  0  0
  1  2  1  0  0  0  0
  2  3  2  0  0  0  0
  2  7  1  0  0  0  0
  3  4  1  0  0  0  0
  4  9  1  0  0  0  0
  4  5  2  0  0  0  0
  6  5  1  0  0  0  0
  6 10  1  0  0  0  0
  7  6  2  0  0  0  0
  8  3  1  0  0  0  0
 10 11  2  0  0  0  0
 12 10  1  0  0  0  0
 13 14  1  0  0  0  0
 13 12  2  0  0  0  0
 15 13  1  0  0  0  0
 16 15  1  0  0  0  0
 17 15  2  0  0  0  0
 17 19  1  0  0  0  0
 18 17  1  0  0  0  0
 19 12  1  0  0  0  0
 20 23  1  0  0  0  0
 20  1  1  0  0  0  0
 20 22  1  0  0  0  0
 21 20  1  0  0  0  0
 23 28  1  0  0  0  0
 23 24  1  0  0  0  0
 25 23  1  0  0  0  0
 27 33  1  0  0  0  0
 27 26  1  0  0  0  0
 28 27  2  0  0  0  0
 29 30  2  0  0  0  0
 29 28  1  0  0  0  0
 30 31  1  0  0  0  0
 31 32  1  0  0  0  0
 31 33  2  0  0  0  0
 33 36  1  0  0  0  0
 34 29  1  0  0  0  0
 35 30  1  0  0  0  0
M  END
>  <minimizedAffinity>
-5.49149942

$$$$

 OpenBabel03242515023D

 36 38  0  0  0  0  0  0  0  0999 V2000
   36.2990   26.2540   36.9370 S   0  0  0  0  0  0  0  0  0  0  0  0
   36.2810   25.3450   38.4850 C   0  0  0  0  0  0  0  0  0  0  0  0
   35.4830   24.1910   38.5240 C   0  0  0  0  0  0  0  0  0  0  0  0
   35.4380   23.4510   39.7110 C   0  0  0  0  0  0  0  0  0  0  0  0
   36.1780   23.9000   40.7670 N   0  0  0  0  0  0  0  0  0  0  0  0
   36.9380   25.0080   40.7130 C   0  0  0  0  0  0  0  0  0  0  0  0
   36.9660   25.6970   39.5760 N   0  0  0  0  0  0  0  0  0  0  0  0
   34.9230   23.8940   37.6520 H   0  0  0  0  0  0  0  0  0  0  0  0
   34.8400   22.5740   39.7600 H   0  0  0  0  0  0  0  0  0  0  0  0
   37.6790   25.3840   41.8980 C   0  0  0  0  0  0  0  0  0  0  0  0
   38.2660   24.4540   42.5200 O   0  0  0  0  0  0  0  0  0  0  0  0
   37.7750   26.7550   42.3900 C   0  0  0  0  0  0  0  0  0  0  0  0
   36.9140   27.2720   43.3360 C   0  0  0  0  0  0  0  0  0  0  0  0
   36.0690   26.7860   43.8480 H   0  0  0  0  0  0  0  0  0  0  0  0
   37.3460   28.5730   43.5150 C   0  0  0  0  0  0  0  0  0  0  0  0
   36.8570   29.2530   44.2130 H   0  0  0  0  0  0  0  0  0  0  0  0
   38.4440   28.7830   42.6730 C   0  0  0  0  0  0  0  0  0  0  0  0
   38.9110   29.7590   42.6860 H   0  0  0  0  0  0  0  0  0  0  0  0
   38.6390   27.6580   42.0370 O   0  0  0  0  0  0  0  0  0  0  0  0
   36.8550   27.9430   37.1400 C   0  0  0  0  0  0  0  0  0  0  0  0
   37.2230   28.3010   36.1610 H   0  0  0  0  0  0  0  0  0  0  0  0
   37.6840   27.9390   37.8820 H   0  0  0  0  0  0  0  0  0  0  0  0
   35.7930   28.8520   37.6630 C   0  0  0  0  0  0  0  0  0  0  0  0
   35.0170   28.3620   38.2730 H   0  0  0  0  0  0  0  0  0  0  0  0
   35.2570   29.3000   36.7950 H   0  0  0  0  0  0  0  0  0  0  0  0
   35.1760   29.0360   40.6340 Cl  0  0  0  0  0  0  0  0  0  0  0  0
   36.1620   30.1720   39.7820 C   0  0  0  0  0  0  0  0  0  0  0  0
   36.3850   29.9950   38.4050 C   0  0  0  0  0  0  0  0  0  0  0  0
   37.1790   30.9370   37.7900 C   0  0  0  0  0  0  0  0  0  0  0  0
   37.7810   32.0420   38.3910 C   0  0  0  0  0  0  0  0  0  0  0  0
   37.5410   32.1850   39.7440 C   0  0  0  0  0  0  0  0  0  0  0  0
   38.2600   33.5540   40.5960 Cl  0  0  0  0  0  0  0  0  0  0  0  0
   36.7560   31.2750   40.4090 C   0  0  0  0  0  0  0  0  0  0  0  0
   37.3350   30.7760   36.7280 H   0  0  0  0  0  0  0  0  0  0  0  0
   38.3840   32.7130   37.8080 H   0  0  0  0  0  0  0  0  0  0  0  0
   36.5980   31.4330   41.4750 H   0  0  0  0  0  0  0  0  0  0  0  0
  1 20  1  0  0  0  0
  1  2  1  0  0  0  0
  2  3  2  0  0  0  0
  2  7  1  0  0  0  0
  3  4  1  0  0  0  0
  4  9  1  0  0  0  0
  4  5  2  0  0  0  0
  6  5  1  0  0  0  0
  6 10  1  0  0  0  0
  7  6  2  0  0  0  0
  8  3  1  0  0  0  0
 10 12  1  0  0  0  0
 10 11  2  0  0  0  0
 12 13  2  0  0  0  0
 13 15  1  0  0  0  0
 13 14  1  0  0  0  0
 15 16  1  0  0  0  0
 17 18  1  0  0  0  0
 17 15  2  0  0  0  0
 19 12  1  0  0  0  0
 19 17  1  0  0  0  0
 20 23  1  0  0  0  0
 20 22  1  0  0  0  0
 21 20  1  0  0  0  0
 23 24  1  0  0  0  0
 23 28  1  0  0  0  0
 25 23  1  0  0  0  0
 27 33  1  0  0  0  0
 27 26  1  0  0  0  0
 28 27  2  0  0  0  0
 29 30  2  0  0  0  0
 29 28  1  0  0  0  0
 30 31  1  0  0  0  0
 31 33  2  0  0  0  0
 31 32  1  0  0  0  0
 33 36  1  0  0  0  0
 34 29  1  0  0  0  0
 35 30  1  0  0  0  0
M  END
>  <minimizedAffinity>
-5.41040802

$$$$

 OpenBabel03242515023D

 36 38  0  0  0  0  0  0  0  0999 V2000
   36.7080   31.0390   39.2770 S   0  0  0  0  0  0  0  0  0  0  0  0
   37.9890   32.2040   39.7460 C   0  0  0  0  0  0  0  0  0  0  0  0
   37.6080   33.5530   39.8360 C   0  0  0  0  0  0  0  0  0  0  0  0
   38.5750   34.4970   40.1980 C   0  0  0  0  0  0  0  0  0  0  0  0
   39.8400   34.0480   40.4450 N   0  0  0  0  0  0  0  0  0  0  0  0
   40.1890   32.7520   40.3550 C   0  0  0  0  0  0  0  0  0  0  0  0
   39.2550   31.8710   40.0090 N   0  0  0  0  0  0  0  0  0  0  0  0
   36.5900   33.8380   39.6260 H   0  0  0  0  0  0  0  0  0  0  0  0
   38.3050   35.5220   40.2710 H   0  0  0  0  0  0  0  0  0  0  0  0
   41.5630   32.3960   40.6420 C   0  0  0  0  0  0  0  0  0  0  0  0
   42.4400   32.8210   39.8370 O   0  0  0  0  0  0  0  0  0  0  0  0
   41.9660   31.5900   41.7890 C   0  0  0  0  0  0  0  0  0  0  0  0
   41.6620   30.2490   41.9060 C   0  0  0  0  0  0  0  0  0  0  0  0
   41.1050   29.5990   41.2130 H   0  0  0  0  0  0  0  0  0  0  0  0
   42.2180   29.8780   43.1150 C   0  0  0  0  0  0  0  0  0  0  0  0
   42.1460   28.8580   43.4960 H   0  0  0  0  0  0  0  0  0  0  0  0
   42.8330   31.0050   43.6730 C   0  0  0  0  0  0  0  0  0  0  0  0
   43.3230   30.8910   44.6310 H   0  0  0  0  0  0  0  0  0  0  0  0
   42.6410   31.9830   42.8270 O   0  0  0  0  0  0  0  0  0  0  0  0
   35.8060   30.4060   40.6880 C   0  0  0  0  0  0  0  0  0  0  0  0
   34.7870   30.8330   40.6600 H   0  0  0  0  0  0  0  0  0  0  0  0
   36.3370   30.7420   41.6060 H   0  0  0  0  0  0  0  0  0  0  0  0
   35.7480   28.9150   40.7270 C   0  0  0  0  0  0  0  0  0  0  0  0
   35.7020   28.4230   39.7430 H   0  0  0  0  0  0  0  0  0  0  0  0
   34.8150   28.6160   41.2580 H   0  0  0  0  0  0  0  0  0  0  0  0
   36.6190   26.0720   40.0910 Cl  0  0  0  0  0  0  0  0  0  0  0  0
   37.3460   27.0520   41.3160 C   0  0  0  0  0  0  0  0  0  0  0  0
   36.8660   28.3570   41.5300 C   0  0  0  0  0  0  0  0  0  0  0  0
   37.4910   29.0800   42.5220 C   0  0  0  0  0  0  0  0  0  0  0  0
   38.5450   28.6540   43.3280 C   0  0  0  0  0  0  0  0  0  0  0  0
   38.9900   27.3680   43.0920 C   0  0  0  0  0  0  0  0  0  0  0  0
   40.3220   26.7350   44.0630 Cl  0  0  0  0  0  0  0  0  0  0  0  0
   38.4040   26.6010   42.1150 C   0  0  0  0  0  0  0  0  0  0  0  0
   37.1010   30.0840   42.6650 H   0  0  0  0  0  0  0  0  0  0  0  0
   38.9550   29.3100   44.0740 H   0  0  0  0  0  0  0  0  0  0  0  0
   38.7930   25.5930   41.9670 H   0  0  0  0  0  0  0  0  0  0  0  0
  1  2  1  0  0  0  0
  1 20  1  0  0  0  0
  2  3  2  0  0  0  0
  2  7  1  0  0  0  0
  3  4  1  0  0  0  0
  4  9  1  0  0  0  0
  4  5  2  0  0  0  0
  6  5  1  0  0  0  0
  6 10  1  0  0  0  0
  7  6  2  0  0  0  0
  8  3  1  0  0  0  0
 10 12  1  0  0  0  0
 11 10  2  0  0  0  0
 12 13  2  0  0  0  0
 12 19  1  0  0  0  0
 13 15  1  0  0  0  0
 14 13  1  0  0  0  0
 15 16  1  0  0  0  0
 15 17  2  0  0  0  0
 17 18  1  0  0  0  0
 19 17  1  0  0  0  0
 20 23  1  0  0  0  0
 20 22  1  0  0  0  0
 21 20  1  0  0  0  0
 23 25  1  0  0  0  0
 23 28  1  0  0  0  0
 24 23  1  0  0  0  0
 26 27  1  0  0  0  0
 27 28  2  0  0  0  0
 27 33  1  0  0  0  0
 28 29  1  0  0  0  0
 29 34  1  0  0  0  0
 29 30  2  0  0  0  0
 30 35  1  0  0  0  0
 31 30  1  0  0  0  0
 31 32  1  0  0  0  0
 33 31  2  0  0  0  0
 36 33  1  0  0  0  0
M  END
>  <minimizedAffinity>
-5.34017992

$$$$

 OpenBabel03242515023D

 36 38  0  0  0  0  0  0  0  0999 V2000
   40.8790   31.6910   41.2010 S   0  0  0  0  0  0  0  0  0  0  0  0
   39.4110   32.0640   40.2380 C   0  0  0  0  0  0  0  0  0  0  0  0
   38.7710   33.2820   40.5180 C   0  0  0  0  0  0  0  0  0  0  0  0
   37.6220   33.6140   39.7920 C   0  0  0  0  0  0  0  0  0  0  0  0
   37.1890   32.7280   38.8480 N   0  0  0  0  0  0  0  0  0  0  0  0
   37.8140   31.5650   38.5910 C   0  0  0  0  0  0  0  0  0  0  0  0
   38.9040   31.2680   39.2930 N   0  0  0  0  0  0  0  0  0  0  0  0
   39.1670   33.9350   41.2790 H   0  0  0  0  0  0  0  0  0  0  0  0
   37.1240   34.5310   39.9900 H   0  0  0  0  0  0  0  0  0  0  0  0
   37.2610   30.7070   37.5660 C   0  0  0  0  0  0  0  0  0  0  0  0
   37.3100   31.1360   36.3780 O   0  0  0  0  0  0  0  0  0  0  0  0
   36.6670   29.4020   37.8380 C   0  0  0  0  0  0  0  0  0  0  0  0
   35.3740   29.2490   38.2940 C   0  0  0  0  0  0  0  0  0  0  0  0
   34.6190   30.0190   38.5180 H   0  0  0  0  0  0  0  0  0  0  0  0
   35.2160   27.8810   38.4180 C   0  0  0  0  0  0  0  0  0  0  0  0
   34.2820   27.4370   38.7650 H   0  0  0  0  0  0  0  0  0  0  0  0
   36.4140   27.2710   38.0320 C   0  0  0  0  0  0  0  0  0  0  0  0
   36.4670   26.1910   38.0680 H   0  0  0  0  0  0  0  0  0  0  0  0
   37.2280   28.2380   37.7000 O   0  0  0  0  0  0  0  0  0  0  0  0
   40.5980   30.4000   42.4080 C   0  0  0  0  0  0  0  0  0  0  0  0
   41.3100   30.5500   43.2400 H   0  0  0  0  0  0  0  0  0  0  0  0
   40.7920   29.4230   41.9100 H   0  0  0  0  0  0  0  0  0  0  0  0
   39.1950   30.3680   42.9190 C   0  0  0  0  0  0  0  0  0  0  0  0
   38.5320   31.1470   42.5100 H   0  0  0  0  0  0  0  0  0  0  0  0
   39.2200   30.5380   44.0190 H   0  0  0  0  0  0  0  0  0  0  0  0
   36.4790   30.2600   41.5560 Cl  0  0  0  0  0  0  0  0  0  0  0  0
   37.3350   28.8640   42.1120 C   0  0  0  0  0  0  0  0  0  0  0  0
   38.5880   29.0250   42.7310 C   0  0  0  0  0  0  0  0  0  0  0  0
   39.2130   27.8720   43.1500 C   0  0  0  0  0  0  0  0  0  0  0  0
   38.7340   26.5690   43.0230 C   0  0  0  0  0  0  0  0  0  0  0  0
   37.5010   26.4480   42.4110 C   0  0  0  0  0  0  0  0  0  0  0  0
   36.8080   24.8370   42.2030 Cl  0  0  0  0  0  0  0  0  0  0  0  0
   36.8320   27.5640   41.9730 C   0  0  0  0  0  0  0  0  0  0  0  0
   40.1780   28.0240   43.6240 H   0  0  0  0  0  0  0  0  0  0  0  0
   39.3120   25.7410   43.3890 H   0  0  0  0  0  0  0  0  0  0  0  0
   35.8630   27.4150   41.4970 H   0  0  0  0  0  0  0  0  0  0  0  0
  1 20  1  0  0  0  0
  2  3  1  0  0  0  0
  2  1  1  0  0  0  0
  3  8  1  0  0  0  0
  4  9  1  0  0  0  0
  4  3  2  0  0  0  0
  5  4  1  0  0  0  0
  6  5  2  0  0  0  0
  6  7  1  0  0  0  0
  7  2  2  0  0  0  0
 10 12  1  0  0  0  0
 10  6  1  0  0  0  0
 11 10  2  0  0  0  0
 12 13  2  0  0  0  0
 13 15  1  0  0  0  0
 13 14  1  0  0  0  0
 15 16  1  0  0  0  0
 17 18  1  0  0  0  0
 17 15  2  0  0  0  0
 19 12  1  0  0  0  0
 19 17  1  0  0  0  0
 20 23  1  0  0  0  0
 20 21  1  0  0  0  0
 22 20  1  0  0  0  0
 23 25  1  0  0  0  0
 24 23  1  0  0  0  0
 26 27  1  0  0  0  0
 27 28  1  0  0  0  0
 28 23  1  0  0  0  0
 28 29  2  0  0  0  0
 29 34  1  0  0  0  0
 30 29  1  0  0  0  0
 30 35  1  0  0  0  0
 31 30  2  0  0  0  0
 32 31  1  0  0  0  0
 33 27  2  0  0  0  0
 33 31  1  0  0  0  0
 36 33  1  0  0  0  0
M  END
>  <minimizedAffinity>
-5.33142805

$$$$
