
 OpenBabel03252507153D

 28 30  0  0  0  0  0  0  0  0999 V2000
   45.2000   36.1820   43.4600 C   0  0  0  0  0  0  0  0  0  0  0  0
   45.8200   34.9740   43.1080 C   0  0  0  0  0  0  0  0  0  0  0  0
   45.8060   33.9530   44.0400 C   0  0  0  0  0  0  0  0  0  0  0  0
   45.2110   34.1400   45.2360 N   0  0  0  0  0  0  0  0  0  0  0  0
   44.6140   35.3290   45.5550 C   0  0  0  0  0  0  0  0  0  0  0  0
   44.6230   36.3110   44.6680 N   0  0  0  0  0  0  0  0  0  0  0  0
   45.1900   37.0060   42.7560 H   0  0  0  0  0  0  0  0  0  0  0  0
   44.1620   35.3820   46.5420 H   0  0  0  0  0  0  0  0  0  0  0  0
   46.4500   32.6770   43.6940 C   0  0  0  0  0  0  0  0  0  0  0  0
   45.6740   31.5960   43.3360 C   0  0  0  0  0  0  0  0  0  0  0  0
   46.3140   30.4170   43.0180 C   0  0  0  0  0  0  0  0  0  0  0  0
   47.7100   30.2720   43.0450 C   0  0  0  0  0  0  0  0  0  0  0  0
   48.4210   31.4010   43.4150 C   0  0  0  0  0  0  0  0  0  0  0  0
   47.7820   32.5470   43.7230 N   0  0  0  0  0  0  0  0  0  0  0  0
   44.6170   31.7040   43.3150 H   0  0  0  0  0  0  0  0  0  0  0  0
   45.7050   29.5660   42.7360 H   0  0  0  0  0  0  0  0  0  0  0  0
   48.2090   29.3500   42.7970 H   0  0  0  0  0  0  0  0  0  0  0  0
   49.5060   31.3660   43.4590 H   0  0  0  0  0  0  0  0  0  0  0  0
   46.4370   34.8140   41.8360 C   0  0  0  0  0  0  0  0  0  0  0  0
   47.5930   35.2780   41.6760 O   0  0  0  0  0  0  0  0  0  0  0  0
   45.8140   34.1450   40.6980 C   0  0  0  0  0  0  0  0  0  0  0  0
   46.5560   33.4600   39.7440 C   0  0  0  0  0  0  0  0  0  0  0  0
   47.6180   33.3010   39.6610 H   0  0  0  0  0  0  0  0  0  0  0  0
   45.6830   32.9320   38.7880 C   0  0  0  0  0  0  0  0  0  0  0  0
   45.8390   32.3410   37.8940 H   0  0  0  0  0  0  0  0  0  0  0  0
   44.4260   33.3450   39.2400 C   0  0  0  0  0  0  0  0  0  0  0  0
   43.4270   33.1690   38.8120 H   0  0  0  0  0  0  0  0  0  0  0  0
   44.5660   34.0380   40.3410 O   0  0  0  0  0  0  0  0  0  0  0  0
  1  6  1  0  0  0  0
  2  1  2  0  0  0  0
  2  3  1  0  0  0  0
  3  4  2  0  0  0  0
  4  5  1  0  0  0  0
  5  8  1  0  0  0  0
  6  5  2  0  0  0  0
  7  1  1  0  0  0  0
  9 14  1  0  0  0  0
  9  3  1  0  0  0  0
 10  9  2  0  0  0  0
 11 12  2  0  0  0  0
 11 10  1  0  0  0  0
 12 13  1  0  0  0  0
 13 18  1  0  0  0  0
 13 14  2  0  0  0  0
 15 10  1  0  0  0  0
 16 11  1  0  0  0  0
 17 12  1  0  0  0  0
 19  2  1  0  0  0  0
 20 19  2  0  0  0  0
 21 19  1  0  0  0  0
 22 21  2  0  0  0  0
 23 22  1  0  0  0  0
 24 26  2  0  0  0  0
 24 22  1  0  0  0  0
 25 24  1  0  0  0  0
 26 28  1  0  0  0  0
 27 26  1  0  0  0  0
 28 21  1  0  0  0  0
M  END
>  <minimizedAffinity>
-4.29771042

>  <minimizedRMSD>
0.226993084

$$$$
