
 OpenBabel03252507153D

 28 30  0  0  0  0  0  0  0  0999 V2000
   45.1380   36.1410   43.4510 C   0  0  0  0  0  0  0  0  0  0  0  0
   45.7600   34.9350   43.0920 C   0  0  0  0  0  0  0  0  0  0  0  0
   45.7980   33.9300   44.0400 C   0  0  0  0  0  0  0  0  0  0  0  0
   45.2510   34.1280   45.2570 N   0  0  0  0  0  0  0  0  0  0  0  0
   44.6510   35.3160   45.5820 C   0  0  0  0  0  0  0  0  0  0  0  0
   44.6100   36.2820   44.6800 N   0  0  0  0  0  0  0  0  0  0  0  0
   45.0870   36.9530   42.7350 H   0  0  0  0  0  0  0  0  0  0  0  0
   44.2400   35.3790   46.5860 H   0  0  0  0  0  0  0  0  0  0  0  0
   46.4440   32.6570   43.6880 C   0  0  0  0  0  0  0  0  0  0  0  0
   45.6700   31.5760   43.3250 C   0  0  0  0  0  0  0  0  0  0  0  0
   46.3120   30.4000   43.0020 C   0  0  0  0  0  0  0  0  0  0  0  0
   47.7070   30.2580   43.0270 C   0  0  0  0  0  0  0  0  0  0  0  0
   48.4170   31.3860   43.4010 C   0  0  0  0  0  0  0  0  0  0  0  0
   47.7760   32.5290   43.7150 N   0  0  0  0  0  0  0  0  0  0  0  0
   44.6120   31.6820   43.3050 H   0  0  0  0  0  0  0  0  0  0  0  0
   45.7040   29.5490   42.7160 H   0  0  0  0  0  0  0  0  0  0  0  0
   48.2080   29.3370   42.7740 H   0  0  0  0  0  0  0  0  0  0  0  0
   49.5020   31.3530   43.4450 H   0  0  0  0  0  0  0  0  0  0  0  0
   46.3250   34.7630   41.7990 C   0  0  0  0  0  0  0  0  0  0  0  0
   47.4930   35.1780   41.6030 O   0  0  0  0  0  0  0  0  0  0  0  0
   45.6340   34.1330   40.6760 C   0  0  0  0  0  0  0  0  0  0  0  0
   46.3060   33.3840   39.7190 C   0  0  0  0  0  0  0  0  0  0  0  0
   47.3510   33.1420   39.6230 H   0  0  0  0  0  0  0  0  0  0  0  0
   45.3810   32.9170   38.7810 C   0  0  0  0  0  0  0  0  0  0  0  0
   45.4770   32.3090   37.8910 H   0  0  0  0  0  0  0  0  0  0  0  0
   44.1660   33.4330   39.2460 C   0  0  0  0  0  0  0  0  0  0  0  0
   43.1510   33.3310   38.8350 H   0  0  0  0  0  0  0  0  0  0  0  0
   44.3760   34.1230   40.3380 O   0  0  0  0  0  0  0  0  0  0  0  0
  1  6  1  0  0  0  0
  2  1  2  0  0  0  0
  2  3  1  0  0  0  0
  3  4  2  0  0  0  0
  4  5  1  0  0  0  0
  5  8  1  0  0  0  0
  6  5  2  0  0  0  0
  7  1  1  0  0  0  0
  9 14  1  0  0  0  0
  9  3  1  0  0  0  0
 10  9  2  0  0  0  0
 11 12  2  0  0  0  0
 11 10  1  0  0  0  0
 12 13  1  0  0  0  0
 13 18  1  0  0  0  0
 13 14  2  0  0  0  0
 15 10  1  0  0  0  0
 16 11  1  0  0  0  0
 17 12  1  0  0  0  0
 19  2  1  0  0  0  0
 20 19  2  0  0  0  0
 21 19  1  0  0  0  0
 22 21  2  0  0  0  0
 23 22  1  0  0  0  0
 24 26  2  0  0  0  0
 24 22  1  0  0  0  0
 25 24  1  0  0  0  0
 26 28  1  0  0  0  0
 27 26  1  0  0  0  0
 28 21  1  0  0  0  0
M  END
>  <minimizedAffinity>
-4.28794575

>  <minimizedRMSD>
0.56639123

$$$$
