
 OpenBabel03242516173D

 42 45  0  0  1  0  0  0  0  0999 V2000
   37.7960   27.6110   42.6580 C   0  0  0  0  0  0  0  0  0  0  0  0
   36.6550   27.2520   43.6160 C   0  0  0  0  0  0  0  0  0  0  0  0
   37.3660   28.5240   43.6800 C   0  0  0  0  0  0  0  0  0  0  0  0
   35.6150   27.2650   43.2580 H   0  0  0  0  0  0  0  0  0  0  0  0
   36.8520   26.3800   44.2720 H   0  0  0  0  0  0  0  0  0  0  0  0
   36.8250   29.4340   43.3430 H   0  0  0  0  0  0  0  0  0  0  0  0
   37.7230   28.6480   44.7220 H   0  0  0  0  0  0  0  0  0  0  0  0
   37.3240   27.8010   41.2620 C   0  0  0  0  0  0  0  0  0  0  0  0
   38.3970   28.1330   40.2460 C   0  0  0  0  0  0  0  0  0  0  0  0
   37.6960   28.1550   38.8930 C   0  0  0  0  0  0  0  0  0  0  0  0
   36.9710   29.3610   38.8480 O   0  0  0  0  0  0  0  0  0  0  0  0
   35.8810   29.0930   39.7150 C   0  0  0  0  0  0  0  0  0  0  0  0
   36.3760   29.0120   41.1490 C   0  0  0  0  0  0  0  0  0  0  0  0
   36.7590   26.9210   40.9140 H   0  0  0  0  0  0  0  0  0  0  0  0
   38.8710   29.0980   40.4370 H   0  0  0  0  0  0  0  0  0  0  0  0
   39.1140   27.2850   40.1770 H   0  0  0  0  0  0  0  0  0  0  0  0
   38.4480   28.0830   38.0920 H   0  0  0  0  0  0  0  0  0  0  0  0
   36.9830   27.3320   38.7870 H   0  0  0  0  0  0  0  0  0  0  0  0
   35.2290   29.9890   39.6380 H   0  0  0  0  0  0  0  0  0  0  0  0
   35.3390   28.1960   39.4040 H   0  0  0  0  0  0  0  0  0  0  0  0
   35.4970   28.7770   41.7570 H   0  0  0  0  0  0  0  0  0  0  0  0
   36.8820   29.9480   41.3900 H   0  0  0  0  0  0  0  0  0  0  0  0
   40.1960   27.4230   43.4060 C   0  0  0  0  0  0  0  0  0  0  0  0
   39.0590   26.8260   42.8400 C   0  0  0  0  0  0  0  0  0  0  0  0
   39.1550   25.4950   42.4450 C   0  0  0  0  0  0  0  0  0  0  0  0
   40.3370   24.8340   42.6230 N   0  0  0  0  0  0  0  0  0  0  0  0
   41.3850   25.4580   43.1660 C   0  0  0  0  0  0  0  0  0  0  0  0
   41.3310   26.7170   43.5520 N   0  0  0  0  0  0  0  0  0  0  0  0
   42.6350   24.8000   43.3660 N   0  0  0  0  0  0  0  0  0  0  0  0
   40.1190   28.4520   43.7100 H   0  0  0  0  0  0  0  0  0  0  0  0
   43.0620   24.9540   42.4180 H   0  0  0  0  0  0  0  0  0  0  0  0
   42.8410   24.3640   44.2800 H   0  0  0  0  0  0  0  0  0  0  0  0
   38.0810   24.7840   41.8120 C   0  0  2  0  0  3  0  0  0  0  0  0
   37.1820   24.0500   42.3950 O   0  0  0  0  0  1  0  0  0  0  0  0
   37.5040   24.5100   40.4980 C   0  0  0  0  0  0  0  0  0  0  0  0
   36.2460   24.1160   40.1420 C   0  0  0  0  0  0  0  0  0  0  0  0
   35.3860   23.9300   40.7970 H   0  0  0  0  0  0  0  0  0  0  0  0
   36.1970   23.9780   38.7460 C   0  0  0  0  0  0  0  0  0  0  0  0
   35.3010   23.6760   38.2400 H   0  0  0  0  0  0  0  0  0  0  0  0
   37.4570   24.3020   38.3210 C   0  0  0  0  0  0  0  0  0  0  0  0
   37.7610   24.2970   37.2840 H   0  0  0  0  0  0  0  0  0  0  0  0
   38.1190   24.5860   39.3710 O   0  0  0  0  0  0  0  0  0  0  0  0
  1 24  1  0  0  0  0
  1  2  1  0  0  0  0
  1  3  1  0  0  0  0
  2  3  1  0  0  0  0
  2  5  1  0  0  0  0
  3  7  1  0  0  0  0
  4  2  1  0  0  0  0
  6  3  1  0  0  0  0
  8  1  1  0  0  0  0
  9 15  1  0  0  0  0
  9  8  1  0  0  0  0
 10  9  1  0  0  0  0
 11 10  1  0  0  0  0
 11 12  1  0  0  0  0
 12 13  1  0  0  0  0
 13  8  1  0  0  0  0
 13 22  1  0  0  0  0
 13 21  1  0  0  0  0
 14  8  1  0  0  0  0
 16  9  1  0  0  0  0
 17 10  1  0  0  0  0
 18 10  1  0  0  0  0
 19 12  1  0  0  0  0
 20 12  1  0  0  0  0
 23 28  1  0  0  0  0
 23 30  1  0  0  0  0
 24 23  2  0  0  0  0
 25 26  2  0  0  0  0
 25 24  1  0  0  0  0
 26 27  1  0  0  0  0
 27 29  1  0  0  0  0
 27 28  2  0  0  0  0
 29 32  1  0  0  0  0
 31 29  1  0  0  0  0
 33 34  1  6  0  0  0
 33 25  1  0  0  0  0
 35 33  1  0  0  0  0
 36 35  2  0  0  0  0
 36 37  1  0  0  0  0
 38 36  1  0  0  0  0
 39 38  1  0  0  0  0
 40 38  2  0  0  0  0
 40 42  1  0  0  0  0
 41 40  1  0  0  0  0
 42 35  1  0  0  0  0
M  END
>  <minimizedAffinity>
-5.57683611

$$$$

 OpenBabel03242516173D

 42 45  0  0  1  0  0  0  0  0999 V2000
   38.0770   30.0610   38.5440 C   0  0  0  0  0  0  0  0  0  0  0  0
   39.0270   28.9390   38.9740 C   0  0  0  0  0  0  0  0  0  0  0  0
   39.1220   29.5970   37.6760 C   0  0  0  0  0  0  0  0  0  0  0  0
   39.8190   29.1440   39.7090 H   0  0  0  0  0  0  0  0  0  0  0  0
   38.5420   27.9590   39.1560 H   0  0  0  0  0  0  0  0  0  0  0  0
   39.9770   30.2860   37.5080 H   0  0  0  0  0  0  0  0  0  0  0  0
   39.1080   28.8020   36.9040 H   0  0  0  0  0  0  0  0  0  0  0  0
   38.2780   31.3060   39.3300 C   0  0  0  0  0  0  0  0  0  0  0  0
   37.4790   32.5080   38.8720 C   0  0  0  0  0  0  0  0  0  0  0  0
   37.7560   33.6050   39.8930 C   0  0  0  0  0  0  0  0  0  0  0  0
   39.0500   34.0830   39.6110 O   0  0  0  0  0  0  0  0  0  0  0  0
   39.8740   33.0380   40.1040 C   0  0  0  0  0  0  0  0  0  0  0  0
   39.7310   31.8130   39.2170 C   0  0  0  0  0  0  0  0  0  0  0  0
   38.0840   31.1320   40.4010 H   0  0  0  0  0  0  0  0  0  0  0  0
   37.7640   32.8460   37.8730 H   0  0  0  0  0  0  0  0  0  0  0  0
   36.3930   32.2910   38.9810 H   0  0  0  0  0  0  0  0  0  0  0  0
   36.9870   34.3880   39.8040 H   0  0  0  0  0  0  0  0  0  0  0  0
   37.7570   33.2220   40.9170 H   0  0  0  0  0  0  0  0  0  0  0  0
   40.9110   33.4150   39.9860 H   0  0  0  0  0  0  0  0  0  0  0  0
   39.6590   32.8270   41.1550 H   0  0  0  0  0  0  0  0  0  0  0  0
   40.3650   31.0420   39.6660 H   0  0  0  0  0  0  0  0  0  0  0  0
   39.9830   32.0990   38.1950 H   0  0  0  0  0  0  0  0  0  0  0  0
   36.1820   29.4720   36.9890 C   0  0  0  0  0  0  0  0  0  0  0  0
   36.6590   29.6440   38.2970 C   0  0  0  0  0  0  0  0  0  0  0  0
   35.7690   29.4280   39.3450 C   0  0  0  0  0  0  0  0  0  0  0  0
   34.4850   29.0620   39.0590 N   0  0  0  0  0  0  0  0  0  0  0  0
   34.0900   28.9160   37.7920 C   0  0  0  0  0  0  0  0  0  0  0  0
   34.9040   29.1120   36.7750 N   0  0  0  0  0  0  0  0  0  0  0  0
   32.7560   28.5370   37.4560 N   0  0  0  0  0  0  0  0  0  0  0  0
   36.8720   29.6400   36.1810 H   0  0  0  0  0  0  0  0  0  0  0  0
   32.3020   29.4850   37.4660 H   0  0  0  0  0  0  0  0  0  0  0  0
   32.5360   27.5400   37.2920 H   0  0  0  0  0  0  0  0  0  0  0  0
   36.1190   29.6150   40.7240 C   0  0  2  0  0  3  0  0  0  0  0  0
   35.9360   30.6870   41.4360 O   0  0  0  0  0  1  0  0  0  0  0  0
   36.7340   28.9250   41.8550 C   0  0  0  0  0  0  0  0  0  0  0  0
   37.8470   29.2290   42.5860 C   0  0  0  0  0  0  0  0  0  0  0  0
   38.5190   30.0890   42.4690 H   0  0  0  0  0  0  0  0  0  0  0  0
   38.0240   28.2400   43.5660 C   0  0  0  0  0  0  0  0  0  0  0  0
   38.8400   28.2740   44.2610 H   0  0  0  0  0  0  0  0  0  0  0  0
   36.9870   27.3700   43.3720 C   0  0  0  0  0  0  0  0  0  0  0  0
   36.8260   26.4820   43.9680 H   0  0  0  0  0  0  0  0  0  0  0  0
   36.3170   27.8340   42.3930 O   0  0  0  0  0  0  0  0  0  0  0  0
  1  2  1  0  0  0  0
  1  8  1  0  0  0  0
  2  5  1  0  0  0  0
  2  4  1  0  0  0  0
  3  1  1  0  0  0  0
  3  2  1  0  0  0  0
  6  3  1  0  0  0  0
  7  3  1  0  0  0  0
  8 14  1  0  0  0  0
  9 16  1  0  0  0  0
  9  8  1  0  0  0  0
  9 10  1  0  0  0  0
 10 18  1  0  0  0  0
 11 10  1  0  0  0  0
 11 12  1  0  0  0  0
 12 20  1  0  0  0  0
 13  8  1  0  0  0  0
 13 21  1  0  0  0  0
 13 12  1  0  0  0  0
 15  9  1  0  0  0  0
 17 10  1  0  0  0  0
 19 12  1  0  0  0  0
 22 13  1  0  0  0  0
 23 24  1  0  0  0  0
 24  1  1  0  0  0  0
 24 25  2  0  0  0  0
 25 33  1  0  0  0  0
 26 25  1  0  0  0  0
 27 26  2  0  0  0  0
 28 23  2  0  0  0  0
 28 27  1  0  0  0  0
 29 31  1  0  0  0  0
 29 27  1  0  0  0  0
 30 23  1  0  0  0  0
 32 29  1  0  0  0  0
 33 34  1  6  0  0  0
 33 35  1  0  0  0  0
 35 42  1  0  0  0  0
 35 36  2  0  0  0  0
 36 38  1  0  0  0  0
 37 36  1  0  0  0  0
 38 39  1  0  0  0  0
 40 38  2  0  0  0  0
 40 41  1  0  0  0  0
 42 40  1  0  0  0  0
M  END
>  <minimizedAffinity>
-5.44976616

$$$$

 OpenBabel03242516173D

 42 45  0  0  1  0  0  0  0  0999 V2000
   37.2270   28.7130   37.8660 C   0  0  0  0  0  0  0  0  0  0  0  0
   38.5320   28.2960   37.1810 C   0  0  0  0  0  0  0  0  0  0  0  0
   38.1230   27.7750   38.4800 C   0  0  0  0  0  0  0  0  0  0  0  0
   38.5040   27.6080   36.3230 H   0  0  0  0  0  0  0  0  0  0  0  0
   39.2620   29.1160   37.0250 H   0  0  0  0  0  0  0  0  0  0  0  0
   37.7860   26.7180   38.5290 H   0  0  0  0  0  0  0  0  0  0  0  0
   38.9650   27.9470   39.1810 H   0  0  0  0  0  0  0  0  0  0  0  0
   36.0250   28.2140   37.1480 C   0  0  0  0  0  0  0  0  0  0  0  0
   34.8410   29.1570   37.1160 C   0  0  0  0  0  0  0  0  0  0  0  0
   33.7970   28.4830   36.2320 C   0  0  0  0  0  0  0  0  0  0  0  0
   33.2350   27.4520   37.0080 O   0  0  0  0  0  0  0  0  0  0  0  0
   34.2640   26.4750   37.0070 C   0  0  0  0  0  0  0  0  0  0  0  0
   35.4370   26.9670   37.8390 C   0  0  0  0  0  0  0  0  0  0  0  0
   36.2770   27.9180   36.1170 H   0  0  0  0  0  0  0  0  0  0  0  0
   34.4250   29.3430   38.1090 H   0  0  0  0  0  0  0  0  0  0  0  0
   35.1200   30.0810   36.5650 H   0  0  0  0  0  0  0  0  0  0  0  0
   33.0520   29.2290   35.9160 H   0  0  0  0  0  0  0  0  0  0  0  0
   34.2440   28.0280   35.3440 H   0  0  0  0  0  0  0  0  0  0  0  0
   33.8260   25.6010   37.5330 H   0  0  0  0  0  0  0  0  0  0  0  0
   34.5520   26.2050   35.9880 H   0  0  0  0  0  0  0  0  0  0  0  0
   36.1990   26.1860   37.7730 H   0  0  0  0  0  0  0  0  0  0  0  0
   35.0730   27.1920   38.8430 H   0  0  0  0  0  0  0  0  0  0  0  0
   37.6180   31.1820   37.5320 C   0  0  0  0  0  0  0  0  0  0  0  0
   37.1790   30.1300   38.3510 C   0  0  0  0  0  0  0  0  0  0  0  0
   36.7170   30.4500   39.6250 C   0  0  0  0  0  0  0  0  0  0  0  0
   36.7090   31.7580   40.0170 N   0  0  0  0  0  0  0  0  0  0  0  0
   37.1420   32.7150   39.1920 C   0  0  0  0  0  0  0  0  0  0  0  0
   37.5860   32.4490   37.9800 N   0  0  0  0  0  0  0  0  0  0  0  0
   37.1490   34.0910   39.5690 N   0  0  0  0  0  0  0  0  0  0  0  0
   37.9750   30.9320   36.5480 H   0  0  0  0  0  0  0  0  0  0  0  0
   38.0770   34.1270   40.0620 H   0  0  0  0  0  0  0  0  0  0  0  0
   36.3490   34.6930   39.3150 H   0  0  0  0  0  0  0  0  0  0  0  0
   36.2860   29.4650   40.5740 C   0  0  2  0  0  3  0  0  0  0  0  0
   35.1010   28.9380   40.6660 O   0  0  0  0  0  1  0  0  0  0  0  0
   36.7630   28.6780   41.7080 C   0  0  0  0  0  0  0  0  0  0  0  0
   36.7760   27.3280   41.9140 C   0  0  0  0  0  0  0  0  0  0  0  0
   36.4240   26.5380   41.2390 H   0  0  0  0  0  0  0  0  0  0  0  0
   37.3340   27.0720   43.1770 C   0  0  0  0  0  0  0  0  0  0  0  0
   37.4460   26.0740   43.5520 H   0  0  0  0  0  0  0  0  0  0  0  0
   37.6360   28.3080   43.6790 C   0  0  0  0  0  0  0  0  0  0  0  0
   38.0860   28.4690   44.6490 H   0  0  0  0  0  0  0  0  0  0  0  0
   37.2810   29.1460   42.7880 O   0  0  0  0  0  0  0  0  0  0  0  0
  1 24  1  0  0  0  0
  1  3  1  0  0  0  0
  2  1  1  0  0  0  0
  2  3  1  0  0  0  0
  3  6  1  0  0  0  0
  3  7  1  0  0  0  0
  4  2  1  0  0  0  0
  5  2  1  0  0  0  0
  8 13  1  0  0  0  0
  8  1  1  0  0  0  0
  9  8  1  0  0  0  0
  9 15  1  0  0  0  0
 10 11  1  0  0  0  0
 10  9  1  0  0  0  0
 12 11  1  0  0  0  0
 12 19  1  0  0  0  0
 12 13  1  0  0  0  0
 13 22  1  0  0  0  0
 14  8  1  0  0  0  0
 16  9  1  0  0  0  0
 17 10  1  0  0  0  0
 18 10  1  0  0  0  0
 20 12  1  0  0  0  0
 21 13  1  0  0  0  0
 23 28  2  0  0  0  0
 23 24  1  0  0  0  0
 24 25  2  0  0  0  0
 25 26  1  0  0  0  0
 25 33  1  0  0  0  0
 27 29  1  0  0  0  0
 27 26  2  0  0  0  0
 28 27  1  0  0  0  0
 29 31  1  0  0  0  0
 30 23  1  0  0  0  0
 32 29  1  0  0  0  0
 33 34  1  1  0  0  0
 33 35  1  0  0  0  0
 35 36  2  0  0  0  0
 35 42  1  0  0  0  0
 36 38  1  0  0  0  0
 37 36  1  0  0  0  0
 38 39  1  0  0  0  0
 38 40  2  0  0  0  0
 40 41  1  0  0  0  0
 42 40  1  0  0  0  0
M  END
>  <minimizedAffinity>
-5.41598892

$$$$

 OpenBabel03242516173D

 42 45  0  0  1  0  0  0  0  0999 V2000
   37.8880   27.8120   42.5790 C   0  0  0  0  0  0  0  0  0  0  0  0
   36.7570   27.3590   43.5060 C   0  0  0  0  0  0  0  0  0  0  0  0
   37.4500   28.6320   43.6730 C   0  0  0  0  0  0  0  0  0  0  0  0
   35.7150   27.3870   43.1540 H   0  0  0  0  0  0  0  0  0  0  0  0
   36.9680   26.4390   44.0870 H   0  0  0  0  0  0  0  0  0  0  0  0
   36.8950   29.5590   43.4150 H   0  0  0  0  0  0  0  0  0  0  0  0
   37.8080   28.6740   44.7210 H   0  0  0  0  0  0  0  0  0  0  0  0
   37.4090   28.1110   41.2040 C   0  0  0  0  0  0  0  0  0  0  0  0
   36.3670   29.2030   41.0950 C   0  0  0  0  0  0  0  0  0  0  0  0
   36.1330   29.4070   39.6020 C   0  0  0  0  0  0  0  0  0  0  0  0
   35.3520   28.3160   39.1770 O   0  0  0  0  0  0  0  0  0  0  0  0
   36.2930   27.2550   39.1630 C   0  0  0  0  0  0  0  0  0  0  0  0
   36.6830   26.8980   40.5870 C   0  0  0  0  0  0  0  0  0  0  0  0
   38.2530   28.3500   40.5360 H   0  0  0  0  0  0  0  0  0  0  0  0
   35.4290   28.9400   41.5870 H   0  0  0  0  0  0  0  0  0  0  0  0
   36.8040   30.1650   41.4430 H   0  0  0  0  0  0  0  0  0  0  0  0
   35.6330   30.3740   39.4400 H   0  0  0  0  0  0  0  0  0  0  0  0
   37.0680   29.3900   39.0340 H   0  0  0  0  0  0  0  0  0  0  0  0
   35.7390   26.3890   38.7420 H   0  0  0  0  0  0  0  0  0  0  0  0
   37.1560   27.4990   38.5370 H   0  0  0  0  0  0  0  0  0  0  0  0
   37.4260   26.0990   40.5040 H   0  0  0  0  0  0  0  0  0  0  0  0
   35.7750   26.6450   41.1370 H   0  0  0  0  0  0  0  0  0  0  0  0
   39.1390   25.6550   42.9520 C   0  0  0  0  0  0  0  0  0  0  0  0
   39.1640   27.0340   42.6920 C   0  0  0  0  0  0  0  0  0  0  0  0
   40.4070   27.6460   42.5580 C   0  0  0  0  0  0  0  0  0  0  0  0
   41.5360   26.8880   42.6840 N   0  0  0  0  0  0  0  0  0  0  0  0
   41.4470   25.5800   42.9350 C   0  0  0  0  0  0  0  0  0  0  0  0
   40.2880   24.9660   43.0670 N   0  0  0  0  0  0  0  0  0  0  0  0
   42.6050   24.7580   43.0740 N   0  0  0  0  0  0  0  0  0  0  0  0
   38.1770   25.1850   43.0550 H   0  0  0  0  0  0  0  0  0  0  0  0
   42.8050   24.9170   44.0940 H   0  0  0  0  0  0  0  0  0  0  0  0
   42.9640   24.2410   42.2540 H   0  0  0  0  0  0  0  0  0  0  0  0
   40.5680   29.0550   42.3380 C   0  0  2  0  0  3  0  0  0  0  0  0
   41.3520   29.8610   42.9900 O   0  0  0  0  0  1  0  0  0  0  0  0
   40.0840   30.1480   41.4980 C   0  0  0  0  0  0  0  0  0  0  0  0
   39.5760   31.3700   41.8330 C   0  0  0  0  0  0  0  0  0  0  0  0
   39.4350   31.7920   42.8360 H   0  0  0  0  0  0  0  0  0  0  0  0
   39.2440   32.0560   40.6540 C   0  0  0  0  0  0  0  0  0  0  0  0
   38.8260   33.0430   40.6750 H   0  0  0  0  0  0  0  0  0  0  0  0
   39.5750   31.1930   39.6460 C   0  0  0  0  0  0  0  0  0  0  0  0
   39.4440   31.4160   38.5960 H   0  0  0  0  0  0  0  0  0  0  0  0
   40.0380   30.1510   40.2130 O   0  0  0  0  0  0  0  0  0  0  0  0
  1 24  1  0  0  0  0
  1  2  1  0  0  0  0
  1  3  1  0  0  0  0
  2  3  1  0  0  0  0
  2  5  1  0  0  0  0
  3  7  1  0  0  0  0
  4  2  1  0  0  0  0
  6  3  1  0  0  0  0
  8  1  1  0  0  0  0
  9  8  1  0  0  0  0
  9 16  1  0  0  0  0
  9 15  1  0  0  0  0
 10  9  1  0  0  0  0
 11 10  1  0  0  0  0
 12 11  1  0  0  0  0
 12 13  1  0  0  0  0
 13 22  1  0  0  0  0
 13  8  1  0  0  0  0
 14  8  1  0  0  0  0
 17 10  1  0  0  0  0
 18 10  1  0  0  0  0
 19 12  1  0  0  0  0
 20 12  1  0  0  0  0
 21 13  1  0  0  0  0
 23 30  1  0  0  0  0
 23 28  1  0  0  0  0
 24 23  2  0  0  0  0
 25 26  2  0  0  0  0
 25 24  1  0  0  0  0
 26 27  1  0  0  0  0
 27 28  2  0  0  0  0
 27 29  1  0  0  0  0
 29 31  1  0  0  0  0
 32 29  1  0  0  0  0
 33 25  1  0  0  0  0
 33 34  1  1  0  0  0
 35 36  2  0  0  0  0
 35 33  1  0  0  0  0
 36 37  1  0  0  0  0
 38 39  1  0  0  0  0
 38 36  1  0  0  0  0
 40 42  1  0  0  0  0
 40 38  2  0  0  0  0
 41 40  1  0  0  0  0
 42 35  1  0  0  0  0
M  END
>  <minimizedAffinity>
-5.38477468

$$$$

 OpenBabel03242516173D

 42 45  0  0  1  0  0  0  0  0999 V2000
   35.9040   28.9740   39.6150 C   0  0  0  0  0  0  0  0  0  0  0  0
   34.3910   29.1160   39.8060 C   0  0  0  0  0  0  0  0  0  0  0  0
   34.9850   28.6170   38.5710 C   0  0  0  0  0  0  0  0  0  0  0  0
   33.8490   28.3980   40.4390 H   0  0  0  0  0  0  0  0  0  0  0  0
   34.0350   30.1540   39.9660 H   0  0  0  0  0  0  0  0  0  0  0  0
   34.8760   27.5340   38.3480 H   0  0  0  0  0  0  0  0  0  0  0  0
   34.5760   29.2270   37.7410 H   0  0  0  0  0  0  0  0  0  0  0  0
   36.4860   27.9090   40.4730 C   0  0  0  0  0  0  0  0  0  0  0  0
   36.4640   28.1800   41.9620 C   0  0  0  0  0  0  0  0  0  0  0  0
   36.9910   26.9110   42.6230 C   0  0  0  0  0  0  0  0  0  0  0  0
   38.3840   26.9160   42.4220 O   0  0  0  0  0  0  0  0  0  0  0  0
   38.4930   26.5730   41.0490 C   0  0  0  0  0  0  0  0  0  0  0  0
   37.9920   27.7230   40.1930 C   0  0  0  0  0  0  0  0  0  0  0  0
   36.0040   26.9370   40.2760 H   0  0  0  0  0  0  0  0  0  0  0  0
   37.0840   29.0330   42.2430 H   0  0  0  0  0  0  0  0  0  0  0  0
   35.4090   28.2580   42.3060 H   0  0  0  0  0  0  0  0  0  0  0  0
   36.7170   26.9170   43.6900 H   0  0  0  0  0  0  0  0  0  0  0  0
   36.5880   26.0080   42.1570 H   0  0  0  0  0  0  0  0  0  0  0  0
   39.5840   26.4730   40.8680 H   0  0  0  0  0  0  0  0  0  0  0  0
   37.9810   25.6310   40.8350 H   0  0  0  0  0  0  0  0  0  0  0  0
   38.0770   27.3850   39.1560 H   0  0  0  0  0  0  0  0  0  0  0  0
   38.5660   28.6160   40.4490 H   0  0  0  0  0  0  0  0  0  0  0  0
   36.6350   31.1800   40.5920 C   0  0  0  0  0  0  0  0  0  0  0  0
   36.6660   30.2610   39.5320 C   0  0  0  0  0  0  0  0  0  0  0  0
   37.4130   30.5960   38.4060 C   0  0  0  0  0  0  0  0  0  0  0  0
   38.0760   31.7900   38.3820 N   0  0  0  0  0  0  0  0  0  0  0  0
   38.0060   32.6230   39.4220 C   0  0  0  0  0  0  0  0  0  0  0  0
   37.3100   32.3400   40.5050 N   0  0  0  0  0  0  0  0  0  0  0  0
   38.6840   33.8790   39.4310 N   0  0  0  0  0  0  0  0  0  0  0  0
   36.0570   30.9190   41.4620 H   0  0  0  0  0  0  0  0  0  0  0  0
   37.9630   34.4650   38.9410 H   0  0  0  0  0  0  0  0  0  0  0  0
   39.6220   33.9480   39.8610 H   0  0  0  0  0  0  0  0  0  0  0  0
   37.4870   29.7660   37.2380 C   0  0  2  0  0  3  0  0  0  0  0  0
   38.2790   28.7530   37.0510 O   0  0  0  0  0  1  0  0  0  0  0  0
   36.9010   29.5990   35.9100 C   0  0  0  0  0  0  0  0  0  0  0  0
   36.5940   28.4690   35.2080 C   0  0  0  0  0  0  0  0  0  0  0  0
   36.7230   27.4240   35.5180 H   0  0  0  0  0  0  0  0  0  0  0  0
   36.0570   28.8450   33.9660 C   0  0  0  0  0  0  0  0  0  0  0  0
   35.7410   28.1160   33.2460 H   0  0  0  0  0  0  0  0  0  0  0  0
   36.0680   30.2120   33.9830 C   0  0  0  0  0  0  0  0  0  0  0  0
   35.7160   30.8270   33.1660 H   0  0  0  0  0  0  0  0  0  0  0  0
   36.5580   30.5460   35.1110 O   0  0  0  0  0  0  0  0  0  0  0  0
  1  2  1  0  0  0  0
  1  8  1  0  0  0  0
  2  5  1  0  0  0  0
  2  4  1  0  0  0  0
  3  1  1  0  0  0  0
  3  2  1  0  0  0  0
  6  3  1  0  0  0  0
  7  3  1  0  0  0  0
  8  9  1  0  0  0  0
  9 15  1  0  0  0  0
  9 16  1  0  0  0  0
  9 10  1  0  0  0  0
 10 17  1  0  0  0  0
 11 10  1  0  0  0  0
 12 11  1  0  0  0  0
 13 22  1  0  0  0  0
 13  8  1  0  0  0  0
 13 12  1  0  0  0  0
 14  8  1  0  0  0  0
 18 10  1  0  0  0  0
 19 12  1  0  0  0  0
 20 12  1  0  0  0  0
 21 13  1  0  0  0  0
 23 30  1  0  0  0  0
 24  1  1  0  0  0  0
 24 23  2  0  0  0  0
 25 24  1  0  0  0  0
 26 25  2  0  0  0  0
 26 27  1  0  0  0  0
 27 29  1  0  0  0  0
 27 28  2  0  0  0  0
 28 23  1  0  0  0  0
 29 32  1  0  0  0  0
 31 29  1  0  0  0  0
 33 34  1  6  0  0  0
 33 25  1  0  0  0  0
 35 33  1  0  0  0  0
 36 37  1  0  0  0  0
 36 35  2  0  0  0  0
 38 40  2  0  0  0  0
 38 36  1  0  0  0  0
 39 38  1  0  0  0  0
 40 42  1  0  0  0  0
 41 40  1  0  0  0  0
 42 35  1  0  0  0  0
M  END
>  <minimizedAffinity>
-5.34769201

$$$$

 OpenBabel03242516173D

 42 45  0  0  1  0  0  0  0  0999 V2000
   38.1500   27.9610   42.2350 C   0  0  0  0  0  0  0  0  0  0  0  0
   38.1230   27.4100   43.6640 C   0  0  0  0  0  0  0  0  0  0  0  0
   36.9500   27.9930   43.0230 C   0  0  0  0  0  0  0  0  0  0  0  0
   38.1260   26.3230   43.8320 H   0  0  0  0  0  0  0  0  0  0  0  0
   38.7830   27.9370   44.3810 H   0  0  0  0  0  0  0  0  0  0  0  0
   36.1330   27.3050   42.7190 H   0  0  0  0  0  0  0  0  0  0  0  0
   36.5630   28.7790   43.7010 H   0  0  0  0  0  0  0  0  0  0  0  0
   38.3290   26.8920   41.2190 C   0  0  0  0  0  0  0  0  0  0  0  0
   38.9240   27.3340   39.8980 C   0  0  0  0  0  0  0  0  0  0  0  0
   39.1220   26.0600   39.0840 C   0  0  0  0  0  0  0  0  0  0  0  0
   37.8440   25.6830   38.6320 O   0  0  0  0  0  0  0  0  0  0  0  0
   37.2460   25.1640   39.8100 C   0  0  0  0  0  0  0  0  0  0  0  0
   36.9740   26.2940   40.7870 C   0  0  0  0  0  0  0  0  0  0  0  0
   38.9290   26.0600   41.6230 H   0  0  0  0  0  0  0  0  0  0  0  0
   38.2760   28.0270   39.3570 H   0  0  0  0  0  0  0  0  0  0  0  0
   39.9530   27.7200   40.0690 H   0  0  0  0  0  0  0  0  0  0  0  0
   39.8210   26.2620   38.2570 H   0  0  0  0  0  0  0  0  0  0  0  0
   39.5170   25.2420   39.6930 H   0  0  0  0  0  0  0  0  0  0  0  0
   36.2640   24.7670   39.4780 H   0  0  0  0  0  0  0  0  0  0  0  0
   37.8560   24.3670   40.2440 H   0  0  0  0  0  0  0  0  0  0  0  0
   36.5440   25.8250   41.6770 H   0  0  0  0  0  0  0  0  0  0  0  0
   36.3440   27.0330   40.2890 H   0  0  0  0  0  0  0  0  0  0  0  0
   40.2670   29.2990   42.5250 C   0  0  0  0  0  0  0  0  0  0  0  0
   38.9520   29.2120   42.0430 C   0  0  0  0  0  0  0  0  0  0  0  0
   38.4220   30.3270   41.3990 C   0  0  0  0  0  0  0  0  0  0  0  0
   39.1960   31.4440   41.2650 N   0  0  0  0  0  0  0  0  0  0  0  0
   40.4410   31.4670   41.7470 C   0  0  0  0  0  0  0  0  0  0  0  0
   40.9760   30.4300   42.3610 N   0  0  0  0  0  0  0  0  0  0  0  0
   41.2770   32.6170   41.6260 N   0  0  0  0  0  0  0  0  0  0  0  0
   40.6740   28.4360   43.0220 H   0  0  0  0  0  0  0  0  0  0  0  0
   40.9610   33.1470   42.4770 H   0  0  0  0  0  0  0  0  0  0  0  0
   41.9350   32.6870   40.8330 H   0  0  0  0  0  0  0  0  0  0  0  0
   37.0770   30.3820   40.9040 C   0  0  2  0  0  3  0  0  0  0  0  0
   36.1010   31.1000   41.3760 O   0  0  0  0  0  1  0  0  0  0  0  0
   36.2100   29.8190   39.8710 C   0  0  0  0  0  0  0  0  0  0  0  0
   34.9860   29.2220   39.9650 C   0  0  0  0  0  0  0  0  0  0  0  0
   34.3840   29.0490   40.8660 H   0  0  0  0  0  0  0  0  0  0  0  0
   34.5740   28.8410   38.6770 C   0  0  0  0  0  0  0  0  0  0  0  0
   33.6350   28.3520   38.5080 H   0  0  0  0  0  0  0  0  0  0  0  0
   35.5940   29.2350   37.8560 C   0  0  0  0  0  0  0  0  0  0  0  0
   35.5950   29.0880   36.7850 H   0  0  0  0  0  0  0  0  0  0  0  0
   36.4670   29.7730   38.6120 O   0  0  0  0  0  0  0  0  0  0  0  0
  1  3  1  0  0  0  0
  1  2  1  0  0  0  0
  2  4  1  0  0  0  0
  2  5  1  0  0  0  0
  3  2  1  0  0  0  0
  3  7  1  0  0  0  0
  6  3  1  0  0  0  0
  8 14  1  0  0  0  0
  8  1  1  0  0  0  0
  9 16  1  0  0  0  0
  9  8  1  0  0  0  0
 10 18  1  0  0  0  0
 10  9  1  0  0  0  0
 11 10  1  0  0  0  0
 11 12  1  0  0  0  0
 12 20  1  0  0  0  0
 12 13  1  0  0  0  0
 13  8  1  0  0  0  0
 13 21  1  0  0  0  0
 15  9  1  0  0  0  0
 17 10  1  0  0  0  0
 19 12  1  0  0  0  0
 22 13  1  0  0  0  0
 23 30  1  0  0  0  0
 24  1  1  0  0  0  0
 24 23  2  0  0  0  0
 25 24  1  0  0  0  0
 26 25  2  0  0  0  0
 26 27  1  0  0  0  0
 27 28  2  0  0  0  0
 28 23  1  0  0  0  0
 29 27  1  0  0  0  0
 29 31  1  0  0  0  0
 32 29  1  0  0  0  0
 33 34  1  1  0  0  0
 33 25  1  0  0  0  0
 35 36  2  0  0  0  0
 35 33  1  0  0  0  0
 36 37  1  0  0  0  0
 38 36  1  0  0  0  0
 39 38  1  0  0  0  0
 40 42  1  0  0  0  0
 40 38  2  0  0  0  0
 41 40  1  0  0  0  0
 42 35  1  0  0  0  0
M  END
>  <minimizedAffinity>
-5.21808195

$$$$

 OpenBabel03242516173D

 42 45  0  0  1  0  0  0  0  0999 V2000
   37.3790   27.7570   42.2640 C   0  0  0  0  0  0  0  0  0  0  0  0
   37.9550   27.6540   43.6800 C   0  0  0  0  0  0  0  0  0  0  0  0
   36.5500   27.4030   43.3820 C   0  0  0  0  0  0  0  0  0  0  0  0
   38.5810   26.7930   43.9550 H   0  0  0  0  0  0  0  0  0  0  0  0
   38.3580   28.6020   44.0910 H   0  0  0  0  0  0  0  0  0  0  0  0
   36.1920   26.3520   43.4280 H   0  0  0  0  0  0  0  0  0  0  0  0
   35.9510   28.0460   44.0580 H   0  0  0  0  0  0  0  0  0  0  0  0
   37.8890   26.6900   41.3660 C   0  0  0  0  0  0  0  0  0  0  0  0
   37.7620   26.9640   39.8820 C   0  0  0  0  0  0  0  0  0  0  0  0
   38.4570   25.8000   39.1830 C   0  0  0  0  0  0  0  0  0  0  0  0
   37.5780   24.7060   39.2790 O   0  0  0  0  0  0  0  0  0  0  0  0
   37.7130   24.3260   40.6400 C   0  0  0  0  0  0  0  0  0  0  0  0
   37.0850   25.3840   41.5310 C   0  0  0  0  0  0  0  0  0  0  0  0
   38.9390   26.4470   41.5990 H   0  0  0  0  0  0  0  0  0  0  0  0
   36.7230   27.0290   39.5540 H   0  0  0  0  0  0  0  0  0  0  0  0
   38.3740   27.8540   39.6180 H   0  0  0  0  0  0  0  0  0  0  0  0
   38.6740   26.0790   38.1400 H   0  0  0  0  0  0  0  0  0  0  0  0
   39.3920   25.5230   39.6790 H   0  0  0  0  0  0  0  0  0  0  0  0
   37.1030   23.4030   40.7380 H   0  0  0  0  0  0  0  0  0  0  0  0
   38.7570   24.1250   40.8930 H   0  0  0  0  0  0  0  0  0  0  0  0
   37.2470   25.0460   42.5580 H   0  0  0  0  0  0  0  0  0  0  0  0
   36.0420   25.5080   41.2320 H   0  0  0  0  0  0  0  0  0  0  0  0
   36.0870   29.6990   41.3080 C   0  0  0  0  0  0  0  0  0  0  0  0
   37.3150   29.1420   41.6940 C   0  0  0  0  0  0  0  0  0  0  0  0
   38.4610   29.9110   41.5160 C   0  0  0  0  0  0  0  0  0  0  0  0
   38.3430   31.1610   40.9790 N   0  0  0  0  0  0  0  0  0  0  0  0
   37.1450   31.6360   40.6290 C   0  0  0  0  0  0  0  0  0  0  0  0
   36.0390   30.9370   40.7840 N   0  0  0  0  0  0  0  0  0  0  0  0
   36.9840   32.9360   40.0650 N   0  0  0  0  0  0  0  0  0  0  0  0
   35.2020   29.1020   41.4460 H   0  0  0  0  0  0  0  0  0  0  0  0
   37.1650   32.7070   39.0550 H   0  0  0  0  0  0  0  0  0  0  0  0
   36.7540   33.7340   40.6800 H   0  0  0  0  0  0  0  0  0  0  0  0
   39.7800   29.4390   41.8270 C   0  0  2  0  0  3  0  0  0  0  0  0
   40.5640   29.8790   42.7660 O   0  0  0  0  0  1  0  0  0  0  0  0
   40.7800   28.4640   41.3990 C   0  0  0  0  0  0  0  0  0  0  0  0
   41.4820   27.5360   42.1140 C   0  0  0  0  0  0  0  0  0  0  0  0
   41.4250   27.3260   43.1900 H   0  0  0  0  0  0  0  0  0  0  0  0
   42.3330   26.8440   41.2370 C   0  0  0  0  0  0  0  0  0  0  0  0
   42.9830   26.0640   41.5810 H   0  0  0  0  0  0  0  0  0  0  0  0
   42.0960   27.4030   40.0120 C   0  0  0  0  0  0  0  0  0  0  0  0
   42.5950   27.0950   39.1040 H   0  0  0  0  0  0  0  0  0  0  0  0
   41.2120   28.3010   40.1990 O   0  0  0  0  0  0  0  0  0  0  0  0
  1  3  1  0  0  0  0
  1  2  1  0  0  0  0
  2  4  1  0  0  0  0
  2  5  1  0  0  0  0
  3  6  1  0  0  0  0
  3  2  1  0  0  0  0
  3  7  1  0  0  0  0
  8 13  1  0  0  0  0
  8 14  1  0  0  0  0
  8  1  1  0  0  0  0
  9  8  1  0  0  0  0
 10 11  1  0  0  0  0
 10 18  1  0  0  0  0
 10  9  1  0  0  0  0
 11 12  1  0  0  0  0
 12 19  1  0  0  0  0
 12 20  1  0  0  0  0
 12 13  1  0  0  0  0
 13 21  1  0  0  0  0
 15  9  1  0  0  0  0
 16  9  1  0  0  0  0
 17 10  1  0  0  0  0
 22 13  1  0  0  0  0
 23 30  1  0  0  0  0
 23 24  1  0  0  0  0
 24  1  1  0  0  0  0
 25 24  2  0  0  0  0
 25 33  1  0  0  0  0
 26 25  1  0  0  0  0
 27 28  1  0  0  0  0
 27 26  2  0  0  0  0
 28 23  2  0  0  0  0
 29 27  1  0  0  0  0
 29 32  1  0  0  0  0
 31 29  1  0  0  0  0
 33 34  1  6  0  0  0
 35 33  1  0  0  0  0
 35 36  2  0  0  0  0
 36 37  1  0  0  0  0
 38 39  1  0  0  0  0
 38 36  1  0  0  0  0
 40 42  1  0  0  0  0
 40 38  2  0  0  0  0
 41 40  1  0  0  0  0
 42 35  1  0  0  0  0
M  END
>  <minimizedAffinity>
-5.20810318

$$$$

 OpenBabel03242516173D

 42 45  0  0  1  0  0  0  0  0999 V2000
   36.3010   29.0320   39.9590 C   0  0  0  0  0  0  0  0  0  0  0  0
   34.8010   29.2530   39.7420 C   0  0  0  0  0  0  0  0  0  0  0  0
   35.4840   28.0320   39.3320 C   0  0  0  0  0  0  0  0  0  0  0  0
   34.1090   29.1900   40.5950 H   0  0  0  0  0  0  0  0  0  0  0  0
   34.5450   30.0950   39.0680 H   0  0  0  0  0  0  0  0  0  0  0  0
   35.2850   27.1090   39.9170 H   0  0  0  0  0  0  0  0  0  0  0  0
   35.2500   27.8700   38.2610 H   0  0  0  0  0  0  0  0  0  0  0  0
   36.6520   28.8950   41.3960 C   0  0  0  0  0  0  0  0  0  0  0  0
   38.0280   29.3910   41.7860 C   0  0  0  0  0  0  0  0  0  0  0  0
   38.1020   29.2610   43.3040 C   0  0  0  0  0  0  0  0  0  0  0  0
   38.2810   27.8900   43.5700 O   0  0  0  0  0  0  0  0  0  0  0  0
   36.9890   27.3600   43.3140 C   0  0  0  0  0  0  0  0  0  0  0  0
   36.7010   27.4130   41.8230 C   0  0  0  0  0  0  0  0  0  0  0  0
   35.8980   29.3850   42.0340 H   0  0  0  0  0  0  0  0  0  0  0  0
   38.8300   28.8130   41.3220 H   0  0  0  0  0  0  0  0  0  0  0  0
   38.0930   30.4850   41.5960 H   0  0  0  0  0  0  0  0  0  0  0  0
   38.9330   29.8770   43.6820 H   0  0  0  0  0  0  0  0  0  0  0  0
   37.1740   29.5780   43.7880 H   0  0  0  0  0  0  0  0  0  0  0  0
   37.0590   26.2900   43.6020 H   0  0  0  0  0  0  0  0  0  0  0  0
   36.2270   27.8700   43.9100 H   0  0  0  0  0  0  0  0  0  0  0  0
   35.6880   27.0200   41.6990 H   0  0  0  0  0  0  0  0  0  0  0  0
   37.4890   26.8660   41.3030 H   0  0  0  0  0  0  0  0  0  0  0  0
   36.9930   31.2730   39.0330 C   0  0  0  0  0  0  0  0  0  0  0  0
   37.2050   29.8890   39.1250 C   0  0  0  0  0  0  0  0  0  0  0  0
   38.2680   29.3470   38.4080 C   0  0  0  0  0  0  0  0  0  0  0  0
   39.0500   30.1750   37.6550 N   0  0  0  0  0  0  0  0  0  0  0  0
   38.7960   31.4850   37.6060 C   0  0  0  0  0  0  0  0  0  0  0  0
   37.7990   32.0330   38.2710 N   0  0  0  0  0  0  0  0  0  0  0  0
   39.5910   32.3790   36.8290 N   0  0  0  0  0  0  0  0  0  0  0  0
   36.1700   31.6890   39.5880 H   0  0  0  0  0  0  0  0  0  0  0  0
   39.1080   32.2730   35.9010 H   0  0  0  0  0  0  0  0  0  0  0  0
   40.3750   32.8840   37.2750 H   0  0  0  0  0  0  0  0  0  0  0  0
   38.5620   27.9430   38.3820 C   0  0  2  0  0  3  0  0  0  0  0  0
   38.4450   27.1410   37.3650 O   0  0  0  0  0  1  0  0  0  0  0  0
   39.0260   26.8510   39.2340 C   0  0  0  0  0  0  0  0  0  0  0  0
   38.6700   25.5330   39.2670 C   0  0  0  0  0  0  0  0  0  0  0  0
   37.9440   25.0130   38.6300 H   0  0  0  0  0  0  0  0  0  0  0  0
   39.4020   24.8960   40.2820 C   0  0  0  0  0  0  0  0  0  0  0  0
   39.2850   23.8510   40.4900 H   0  0  0  0  0  0  0  0  0  0  0  0
   40.1790   25.8840   40.8220 C   0  0  0  0  0  0  0  0  0  0  0  0
   40.8710   25.7270   41.6370 H   0  0  0  0  0  0  0  0  0  0  0  0
   39.9010   26.9440   40.1720 O   0  0  0  0  0  0  0  0  0  0  0  0
  1  8  1  0  0  0  0
  2  1  1  0  0  0  0
  2  4  1  0  0  0  0
  3  2  1  0  0  0  0
  3  6  1  0  0  0  0
  3  1  1  0  0  0  0
  5  2  1  0  0  0  0
  7  3  1  0  0  0  0
  8  9  1  0  0  0  0
  8 13  1  0  0  0  0
  8 14  1  0  0  0  0
  9 10  1  0  0  0  0
 10 11  1  0  0  0  0
 10 17  1  0  0  0  0
 10 18  1  0  0  0  0
 12 11  1  0  0  0  0
 12 19  1  0  0  0  0
 12 20  1  0  0  0  0
 13 12  1  0  0  0  0
 15  9  1  0  0  0  0
 16  9  1  0  0  0  0
 21 13  1  0  0  0  0
 22 13  1  0  0  0  0
 23 24  1  0  0  0  0
 23 30  1  0  0  0  0
 24  1  1  0  0  0  0
 25 24  2  0  0  0  0
 26 25  1  0  0  0  0
 27 26  2  0  0  0  0
 27 28  1  0  0  0  0
 28 23  2  0  0  0  0
 29 32  1  0  0  0  0
 29 27  1  0  0  0  0
 31 29  1  0  0  0  0
 33 34  1  1  0  0  0
 33 25  1  0  0  0  0
 33 35  1  0  0  0  0
 35 36  2  0  0  0  0
 35 42  1  0  0  0  0
 36 38  1  0  0  0  0
 37 36  1  0  0  0  0
 38 39  1  0  0  0  0
 38 40  2  0  0  0  0
 40 41  1  0  0  0  0
 42 40  1  0  0  0  0
M  END
>  <minimizedAffinity>
-5.18772745

$$$$

 OpenBabel03242516173D

 42 45  0  0  1  0  0  0  0  0999 V2000
   36.3350   28.9640   40.1470 C   0  0  0  0  0  0  0  0  0  0  0  0
   35.7730   30.2810   40.6880 C   0  0  0  0  0  0  0  0  0  0  0  0
   34.9800   29.0600   40.6120 C   0  0  0  0  0  0  0  0  0  0  0  0
   36.0710   30.6360   41.6860 H   0  0  0  0  0  0  0  0  0  0  0  0
   35.7340   31.1110   39.9530 H   0  0  0  0  0  0  0  0  0  0  0  0
   34.7390   28.5410   41.5650 H   0  0  0  0  0  0  0  0  0  0  0  0
   34.0520   29.3050   40.0590 H   0  0  0  0  0  0  0  0  0  0  0  0
   37.3740   28.3830   41.0360 C   0  0  0  0  0  0  0  0  0  0  0  0
   38.1530   27.2180   40.4630 C   0  0  0  0  0  0  0  0  0  0  0  0
   39.2250   26.8860   41.4960 C   0  0  0  0  0  0  0  0  0  0  0  0
   38.5640   26.2130   42.5410 O   0  0  0  0  0  0  0  0  0  0  0  0
   37.8740   27.2680   43.1930 C   0  0  0  0  0  0  0  0  0  0  0  0
   36.7480   27.7690   42.3060 C   0  0  0  0  0  0  0  0  0  0  0  0
   38.0820   29.1580   41.3740 H   0  0  0  0  0  0  0  0  0  0  0  0
   37.5270   26.3430   40.2800 H   0  0  0  0  0  0  0  0  0  0  0  0
   38.7220   27.5600   39.5700 H   0  0  0  0  0  0  0  0  0  0  0  0
   40.0070   26.2710   41.0240 H   0  0  0  0  0  0  0  0  0  0  0  0
   39.6840   27.7860   41.9150 H   0  0  0  0  0  0  0  0  0  0  0  0
   37.4110   26.7950   44.0850 H   0  0  0  0  0  0  0  0  0  0  0  0
   38.5620   28.0640   43.4940 H   0  0  0  0  0  0  0  0  0  0  0  0
   36.2800   28.5930   42.8520 H   0  0  0  0  0  0  0  0  0  0  0  0
   36.0970   26.9260   42.0700 H   0  0  0  0  0  0  0  0  0  0  0  0
   35.8860   28.1100   37.8180 C   0  0  0  0  0  0  0  0  0  0  0  0
   36.6210   28.9420   38.6760 C   0  0  0  0  0  0  0  0  0  0  0  0
   37.6250   29.7260   38.1160 C   0  0  0  0  0  0  0  0  0  0  0  0
   37.8500   29.6540   36.7710 N   0  0  0  0  0  0  0  0  0  0  0  0
   37.1170   28.8410   36.0060 C   0  0  0  0  0  0  0  0  0  0  0  0
   36.1580   28.0850   36.5010 N   0  0  0  0  0  0  0  0  0  0  0  0
   37.3240   28.7400   34.5980 N   0  0  0  0  0  0  0  0  0  0  0  0
   35.1100   27.5050   38.2530 H   0  0  0  0  0  0  0  0  0  0  0  0
   38.0910   28.0200   34.5900 H   0  0  0  0  0  0  0  0  0  0  0  0
   36.7550   29.3160   33.9560 H   0  0  0  0  0  0  0  0  0  0  0  0
   38.4780   30.5810   38.8910 C   0  0  2  0  0  3  0  0  0  0  0  0
   39.6760   30.3090   39.3160 O   0  0  0  0  0  1  0  0  0  0  0  0
   38.5160   31.9000   39.5180 C   0  0  0  0  0  0  0  0  0  0  0  0
   39.3160   32.3920   40.5090 C   0  0  0  0  0  0  0  0  0  0  0  0
   40.1240   31.8780   41.0440 H   0  0  0  0  0  0  0  0  0  0  0  0
   38.9470   33.7230   40.7630 C   0  0  0  0  0  0  0  0  0  0  0  0
   39.4440   34.3130   41.5080 H   0  0  0  0  0  0  0  0  0  0  0  0
   37.9210   33.9710   39.8940 C   0  0  0  0  0  0  0  0  0  0  0  0
   37.4020   34.9170   39.8300 H   0  0  0  0  0  0  0  0  0  0  0  0
   37.7490   32.8930   39.2370 O   0  0  0  0  0  0  0  0  0  0  0  0
  1  3  1  0  0  0  0
  1  2  1  0  0  0  0
  1  8  1  0  0  0  0
  2  4  1  0  0  0  0
  3  2  1  0  0  0  0
  3  6  1  0  0  0  0
  5  2  1  0  0  0  0
  7  3  1  0  0  0  0
  8 14  1  0  0  0  0
  8 13  1  0  0  0  0
  9  8  1  0  0  0  0
  9 10  1  0  0  0  0
 10 18  1  0  0  0  0
 10 11  1  0  0  0  0
 11 12  1  0  0  0  0
 12 20  1  0  0  0  0
 12 19  1  0  0  0  0
 13 21  1  0  0  0  0
 13 12  1  0  0  0  0
 15  9  1  0  0  0  0
 16  9  1  0  0  0  0
 17 10  1  0  0  0  0
 22 13  1  0  0  0  0
 23 30  1  0  0  0  0
 23 24  1  0  0  0  0
 24  1  1  0  0  0  0
 25 24  2  0  0  0  0
 25 33  1  0  0  0  0
 26 25  1  0  0  0  0
 27 28  1  0  0  0  0
 27 26  2  0  0  0  0
 28 23  2  0  0  0  0
 29 27  1  0  0  0  0
 31 29  1  0  0  0  0
 32 29  1  0  0  0  0
 33 34  1  1  0  0  0
 33 35  1  0  0  0  0
 35 36  2  0  0  0  0
 36 38  1  0  0  0  0
 36 37  1  0  0  0  0
 38 39  1  0  0  0  0
 40 38  2  0  0  0  0
 41 40  1  0  0  0  0
 42 35  1  0  0  0  0
 42 40  1  0  0  0  0
M  END
>  <minimizedAffinity>
-5.18039513

$$$$
