
 OpenBabel03242523343D

 42 45  0  0  0  0  0  0  0  0999 V2000
   44.9450   34.6300   45.6150 C   0  0  0  0  0  0  0  0  0  0  0  0
   45.7260   34.4790   44.4480 C   0  0  0  0  0  0  0  0  0  0  0  0
   46.7270   33.5030   44.4230 C   0  0  0  0  0  0  0  0  0  0  0  0
   46.9230   32.7230   45.5290 N   0  0  0  0  0  0  0  0  0  0  0  0
   46.1460   32.9060   46.6270 C   0  0  0  0  0  0  0  0  0  0  0  0
   45.1710   33.8490   46.6650 N   0  0  0  0  0  0  0  0  0  0  0  0
   44.1480   35.3450   45.7520 H   0  0  0  0  0  0  0  0  0  0  0  0
   45.3980   35.1940   43.7180 H   0  0  0  0  0  0  0  0  0  0  0  0
   47.2210   32.4850   42.2470 C   0  0  0  0  0  0  0  0  0  0  0  0
   47.4760   33.4480   43.1860 C   0  0  0  0  0  0  0  0  0  0  0  0
   48.4630   34.3170   42.8590 C   0  0  0  0  0  0  0  0  0  0  0  0
   48.7560   35.1210   43.5160 H   0  0  0  0  0  0  0  0  0  0  0  0
   49.1950   34.3020   41.6970 C   0  0  0  0  0  0  0  0  0  0  0  0
   49.9720   35.0150   41.4790 H   0  0  0  0  0  0  0  0  0  0  0  0
   48.9260   33.3150   40.7420 C   0  0  0  0  0  3  0  0  0  0  0  0
   47.9290   32.4180   41.0480 C   0  0  0  0  0  3  0  0  0  0  0  0
   45.0300   31.1190   42.1660 N   0  0  0  0  0  0  0  0  0  0  0  0
   46.2870   31.4010   42.3490 C   0  0  0  0  0  0  0  0  0  0  0  0
   46.7060   30.0980   42.7250 N   0  0  0  0  0  0  0  0  0  0  0  0
   44.3360   31.8410   41.8670 H   0  0  0  0  0  0  0  0  0  0  0  0
   46.9280   29.1230   43.0220 H   0  0  0  0  0  0  0  0  0  0  0  0
   47.6930   29.7040   42.6980 H   0  0  0  0  0  0  0  0  0  0  0  0
   46.4190   32.0020   47.7670 C   0  0  0  0  0  0  0  0  0  0  0  0
   45.5020   31.4550   48.0940 H   0  0  0  0  0  0  0  0  0  0  0  0
   46.6900   32.6450   48.6220 H   0  0  0  0  0  0  0  0  0  0  0  0
   47.7240   30.8640   47.2780 S   0  0  0  0  0  0  0  0  0  0  0  0
   48.8600   30.5960   48.6230 C   0  0  0  0  0  0  0  0  0  0  0  0
   49.3010   31.6990   49.3090 C   0  0  0  0  0  0  0  0  0  0  0  0
   50.1630   31.5060   50.3640 C   0  0  0  0  0  0  0  0  0  0  0  0
   50.5950   30.2390   50.7490 C   0  0  0  0  0  0  0  0  0  0  0  0
   51.4390   30.0950   51.7890 N   0  0  0  0  0  0  0  0  0  0  0  0
   51.8600   28.8640   52.1660 C   0  0  0  0  0  0  0  0  0  0  0  0
   51.4220   27.7710   51.4800 C   0  0  0  0  0  0  0  0  0  0  0  0
   50.5530   27.9180   50.4100 C   0  0  0  0  0  0  0  0  0  0  0  0
   50.1090   29.1840   50.0120 C   0  0  0  0  0  0  0  0  0  0  0  0
   49.2410   29.3170   48.9430 C   0  0  0  0  0  0  0  0  0  0  0  0
   49.0780   32.7360   49.1520 H   0  0  0  0  0  0  0  0  0  0  0  0
   50.5700   32.3300   50.9720 H   0  0  0  0  0  0  0  0  0  0  0  0
   52.5440   28.7170   53.0030 H   0  0  0  0  0  0  0  0  0  0  0  0
   51.6870   26.7450   51.6850 H   0  0  0  0  0  0  0  0  0  0  0  0
   50.1780   27.0840   49.8360 H   0  0  0  0  0  0  0  0  0  0  0  0
   48.8810   28.4640   48.3870 H   0  0  0  0  0  0  0  0  0  0  0  0
  1  7  1  0  0  0  0
  1  6  1  0  0  0  0
  2  1  2  0  0  0  0
  3  2  1  0  0  0  0
  3  4  2  0  0  0  0
  4  5  1  0  0  0  0
  5  6  2  0  0  0  0
  5 23  1  0  0  0  0
  8  2  1  0  0  0  0
  9 18  1  0  0  0  0
  9 10  1  0  0  0  0
 10  3  1  0  0  0  0
 11 10  2  0  0  0  0
 11 12  1  0  0  0  0
 13 11  1  0  0  0  0
 14 13  1  0  0  0  0
 15 16  1  0  0  0  0
 15 13  2  0  0  0  0
 16  9  2  0  0  0  0
 17 18  2  0  0  0  0
 18 19  1  0  0  0  0
 19 21  1  0  0  0  0
 20 17  1  0  0  0  0
 22 19  1  0  0  0  0
 23 24  1  0  0  0  0
 23 25  1  0  0  0  0
 26 23  1  0  0  0  0
 26 27  1  0  0  0  0
 27 36  2  0  0  0  0
 27 28  1  0  0  0  0
 28 29  2  0  0  0  0
 29 30  1  0  0  0  0
 29 38  1  0  0  0  0
 30 31  1  0  0  0  0
 31 32  2  0  0  0  0
 32 39  1  0  0  0  0
 33 40  1  0  0  0  0
 33 32  1  0  0  0  0
 34 33  2  0  0  0  0
 35 34  1  0  0  0  0
 35 30  2  0  0  0  0
 36 35  1  0  0  0  0
 37 28  1  0  0  0  0
 41 34  1  0  0  0  0
 42 36  1  0  0  0  0
M  END
>  <minimizedAffinity>
-5.37074947

>  <minimizedRMSD>
1.92538667

$$$$
