
 OpenBabel03252509263D

 35 37  0  0  1  0  0  0  0  0999 V2000
   47.0830   35.1960   41.7820 C   0  0  1  0  0  0  0  0  0  0  0  0
   48.5830   35.5900   41.8870 C   0  0  0  0  0  0  0  0  0  0  0  0
   47.9970   34.3870   41.0890 C   0  0  2  0  0  0  0  0  0  0  0  0
   46.4590   35.9730   41.2970 H   0  0  0  0  0  0  0  0  0  0  0  0
   48.8570   36.4710   41.2860 H   0  0  0  0  0  0  0  0  0  0  0  0
   49.1330   35.3360   42.7980 H   0  0  0  0  0  0  0  0  0  0  0  0
   48.3110   33.3850   41.5080 H   0  0  0  0  0  0  0  0  0  0  0  0
   44.9890   34.8400   44.8720 C   0  0  0  0  0  0  0  0  0  0  0  0
   45.4490   35.3790   43.6210 C   0  0  0  0  0  0  0  0  0  0  0  0
   46.5530   34.7640   43.1290 C   0  0  0  0  0  0  0  0  0  0  0  0
   47.1790   33.7130   43.7740 N   0  0  0  0  0  0  0  0  0  0  0  0
   46.7070   33.2450   44.9450 C   0  0  0  0  0  0  0  0  0  0  0  0
   45.6050   33.8110   45.4960 N   0  0  0  0  0  0  0  0  0  0  0  0
   44.1090   35.3060   45.2940 H   0  0  0  0  0  0  0  0  0  0  0  0
   47.2830   32.4300   45.3380 H   0  0  0  0  0  0  0  0  0  0  0  0
   44.8280   36.4660   42.9870 N   0  0  0  0  0  0  0  0  0  0  0  0
   44.1850   35.8500   42.4570 H   0  0  0  0  0  0  0  0  0  0  0  0
   45.4320   37.1910   43.4740 H   0  0  0  0  0  0  0  0  0  0  0  0
   48.0680   34.4100   39.5790 C   0  0  0  0  0  0  0  0  0  0  0  0
   49.1460   34.5300   39.3360 H   0  0  0  0  0  0  0  0  0  0  0  0
   47.5010   35.3170   39.2550 H   0  0  0  0  0  0  0  0  0  0  0  0
   48.2730   32.2490   38.4080 C   0  0  0  0  0  0  0  0  0  0  0  0
   47.4670   33.2390   38.9320 C   0  0  0  0  0  0  0  0  0  0  0  0
   46.0950   33.1310   38.8470 C   0  0  0  0  0  0  0  0  0  0  0  0
   45.4990   33.9480   39.2810 H   0  0  0  0  0  0  0  0  0  0  0  0
   45.5370   32.0300   38.2410 C   0  0  0  0  0  0  0  0  0  0  0  0
   44.4450   32.0260   38.2190 H   0  0  0  0  0  0  0  0  0  0  0  0
   46.3160   31.0240   37.7100 C   0  0  0  0  0  3  0  0  0  0  0  0
   47.6630   31.1670   37.8100 C   0  0  0  0  0  3  0  0  0  0  0  0
   50.5900   31.8840   39.3060 N   0  0  0  0  0  0  0  0  0  0  0  0
   49.7210   32.2470   38.4310 C   0  0  0  0  0  0  0  0  0  0  0  0
   50.4600   32.7230   37.3070 N   0  0  0  0  0  0  0  0  0  0  0  0
   51.6110   31.9620   39.1340 H   0  0  0  0  0  0  0  0  0  0  0  0
   50.7810   33.7200   37.4090 H   0  0  0  0  0  0  0  0  0  0  0  0
   50.6400   32.1060   36.4840 H   0  0  0  0  0  0  0  0  0  0  0  0
  1  4  1  6  0  0  0
  1  2  1  0  0  0  0
  1 10  1  0  0  0  0
  2  6  1  0  0  0  0
  3  7  1  1  0  0  0
  3  1  1  0  0  0  0
  3  2  1  0  0  0  0
  5  2  1  0  0  0  0
  8 14  1  0  0  0  0
  8 13  1  0  0  0  0
  9  8  2  0  0  0  0
 10  9  1  0  0  0  0
 10 11  2  0  0  0  0
 11 12  1  0  0  0  0
 12 15  1  0  0  0  0
 12 13  2  0  0  0  0
 16 18  1  0  0  0  0
 16  9  1  0  0  0  0
 17 16  1  0  0  0  0
 19  3  1  0  0  0  0
 20 19  1  0  0  0  0
 21 19  1  0  0  0  0
 22 31  1  0  0  0  0
 22 23  1  0  0  0  0
 23 19  1  0  0  0  0
 24 23  2  0  0  0  0
 24 25  1  0  0  0  0
 26 24  1  0  0  0  0
 27 26  1  0  0  0  0
 28 29  1  0  0  0  0
 28 26  2  0  0  0  0
 29 22  2  0  0  0  0
 31 30  2  0  0  0  0
 32 34  1  0  0  0  0
 32 31  1  0  0  0  0
 33 30  1  0  0  0  0
 35 32  1  0  0  0  0
M  END
>  <minimizedAffinity>
-5.36032581

>  <minimizedRMSD>
2.03715849

$$$$
