
 OpenBabel03252500403D

 26 27  0  0  0  0  0  0  0  0999 V2000
   37.1850   31.7420   38.9810 C   0  0  0  0  0  0  0  0  0  0  0  0
   36.5510   30.6340   39.5080 C   0  0  0  0  0  0  0  0  0  0  0  0
   36.3140   29.5280   38.7170 C   0  0  0  0  0  0  0  0  0  0  0  0
   35.8130   28.6810   39.1710 H   0  0  0  0  0  0  0  0  0  0  0  0
   36.7130   29.5210   37.3800 C   0  0  0  0  0  0  0  0  0  0  0  0
   36.5040   28.6420   36.8210 H   0  0  0  0  0  0  0  0  0  0  0  0
   37.3520   30.6580   36.8800 C   0  0  0  0  0  3  0  0  0  0  0  0
   37.5990   31.7800   37.6580 C   0  0  0  0  0  3  0  0  0  0  0  0
   37.0120   34.1470   39.5350 N   0  0  0  0  0  0  0  0  0  0  0  0
   37.4860   32.9750   39.7370 C   0  0  0  0  0  0  0  0  0  0  0  0
   38.3580   33.1520   40.8470 N   0  0  0  0  0  0  0  0  0  0  0  0
   36.3210   34.3080   38.7500 H   0  0  0  0  0  0  0  0  0  0  0  0
   39.3740   33.2870   41.0390 H   0  0  0  0  0  0  0  0  0  0  0  0
   38.0420   33.1770   41.8430 H   0  0  0  0  0  0  0  0  0  0  0  0
   36.1440   30.6840   40.9320 C   0  0  0  0  0  0  0  0  0  0  0  0
   35.0960   30.3250   41.0280 H   0  0  0  0  0  0  0  0  0  0  0  0
   36.1570   31.7020   41.3380 H   0  0  0  0  0  0  0  0  0  0  0  0
   37.0760   29.7980   41.7120 C   0  0  0  0  0  0  0  0  0  0  0  0
   36.5850   28.5510   42.0920 C   0  0  0  0  0  0  0  0  0  0  0  0
   37.4220   27.6950   42.8220 C   0  0  0  0  0  0  0  0  0  0  0  0
   38.6770   28.1540   43.1100 N   0  0  0  0  0  0  0  0  0  0  0  0
   39.1140   29.3760   42.7200 C   0  0  0  0  0  0  0  0  0  0  0  0
   38.3130   30.2080   42.0160 N   0  0  0  0  0  0  0  0  0  0  0  0
   35.5750   28.2700   41.8200 H   0  0  0  0  0  0  0  0  0  0  0  0
   37.0760   26.7280   43.1310 H   0  0  0  0  0  0  0  0  0  0  0  0
   40.1220   29.6740   42.9850 H   0  0  0  0  0  0  0  0  0  0  0  0
  1  2  1  0  0  0  0
  1 10  1  0  0  0  0
  2 15  1  0  0  0  0
  3  4  1  0  0  0  0
  3  2  2  0  0  0  0
  5  3  1  0  0  0  0
  6  5  1  0  0  0  0
  7  5  2  0  0  0  0
  7  8  1  0  0  0  0
  8  1  2  0  0  0  0
  9 10  2  0  0  0  0
 10 11  1  0  0  0  0
 11 13  1  0  0  0  0
 11 14  1  0  0  0  0
 12  9  1  0  0  0  0
 15 16  1  0  0  0  0
 15 17  1  0  0  0  0
 15 18  1  0  0  0  0
 18 23  2  0  0  0  0
 18 19  1  0  0  0  0
 19 20  2  0  0  0  0
 20 21  1  0  0  0  0
 20 25  1  0  0  0  0
 22 26  1  0  0  0  0
 22 21  2  0  0  0  0
 23 22  1  0  0  0  0
 24 19  1  0  0  0  0
M  END
>  <minimizedAffinity>
-5.30689287

$$$$

 OpenBabel03252500403D

 26 27  0  0  0  0  0  0  0  0999 V2000
   37.3090   30.4870   39.2440 C   0  0  0  0  0  0  0  0  0  0  0  0
   38.4960   29.8040   39.4190 C   0  0  0  0  0  0  0  0  0  0  0  0
   39.0040   29.0230   38.4010 C   0  0  0  0  0  0  0  0  0  0  0  0
   39.9380   28.5050   38.5810 H   0  0  0  0  0  0  0  0  0  0  0  0
   38.3210   28.9170   37.1880 C   0  0  0  0  0  0  0  0  0  0  0  0
   38.7610   28.3020   36.4420 H   0  0  0  0  0  0  0  0  0  0  0  0
   37.1240   29.6220   37.0460 C   0  0  0  0  0  3  0  0  0  0  0  0
   36.5970   30.4130   38.0570 C   0  0  0  0  0  3  0  0  0  0  0  0
   36.8540   32.6060   40.4400 N   0  0  0  0  0  0  0  0  0  0  0  0
   36.6790   31.3490   40.2660 C   0  0  0  0  0  0  0  0  0  0  0  0
   35.7480   30.9960   41.2820 N   0  0  0  0  0  0  0  0  0  0  0  0
   37.5140   33.1380   39.8080 H   0  0  0  0  0  0  0  0  0  0  0  0
   35.7410   30.5770   42.2370 H   0  0  0  0  0  0  0  0  0  0  0  0
   34.7140   31.1330   41.2030 H   0  0  0  0  0  0  0  0  0  0  0  0
   39.1880   29.9450   40.7220 C   0  0  0  0  0  0  0  0  0  0  0  0
   39.0690   30.9870   41.0910 H   0  0  0  0  0  0  0  0  0  0  0  0
   40.2680   29.7680   40.6480 H   0  0  0  0  0  0  0  0  0  0  0  0
   38.5640   28.9720   41.6850 C   0  0  0  0  0  0  0  0  0  0  0  0
   38.5570   27.6310   41.3070 C   0  0  0  0  0  0  0  0  0  0  0  0
   37.9850   26.6930   42.1760 C   0  0  0  0  0  0  0  0  0  0  0  0
   37.4670   27.1700   43.3490 N   0  0  0  0  0  0  0  0  0  0  0  0
   37.4940   28.4850   43.6760 C   0  0  0  0  0  0  0  0  0  0  0  0
   38.0440   29.3960   42.8420 N   0  0  0  0  0  0  0  0  0  0  0  0
   38.9910   27.3430   40.3570 H   0  0  0  0  0  0  0  0  0  0  0  0
   37.9630   25.6520   41.9180 H   0  0  0  0  0  0  0  0  0  0  0  0
   37.0640   28.7910   44.6230 H   0  0  0  0  0  0  0  0  0  0  0  0
  1  2  1  0  0  0  0
  1 10  1  0  0  0  0
  2 15  1  0  0  0  0
  3  4  1  0  0  0  0
  3  2  2  0  0  0  0
  5  3  1  0  0  0  0
  6  5  1  0  0  0  0
  7  5  2  0  0  0  0
  7  8  1  0  0  0  0
  8  1  2  0  0  0  0
 10  9  2  0  0  0  0
 10 11  1  0  0  0  0
 11 13  1  0  0  0  0
 12  9  1  0  0  0  0
 14 11  1  0  0  0  0
 15 16  1  0  0  0  0
 15 18  1  0  0  0  0
 17 15  1  0  0  0  0
 18 23  1  0  0  0  0
 19 18  2  0  0  0  0
 19 20  1  0  0  0  0
 20 21  2  0  0  0  0
 21 22  1  0  0  0  0
 22 26  1  0  0  0  0
 23 22  2  0  0  0  0
 24 19  1  0  0  0  0
 25 20  1  0  0  0  0
M  END
>  <minimizedAffinity>
-4.97857952

$$$$

 OpenBabel03252500403D

 26 27  0  0  0  0  0  0  0  0999 V2000
   36.7760   28.6000   40.6820 C   0  0  0  0  0  0  0  0  0  0  0  0
   37.0630   27.5880   41.5760 C   0  0  0  0  0  0  0  0  0  0  0  0
   36.9950   26.2690   41.1770 C   0  0  0  0  0  0  0  0  0  0  0  0
   37.2270   25.5060   41.9110 H   0  0  0  0  0  0  0  0  0  0  0  0
   36.6360   25.9490   39.8660 C   0  0  0  0  0  0  0  0  0  0  0  0
   36.6010   24.9160   39.6170 H   0  0  0  0  0  0  0  0  0  0  0  0
   36.3540   26.9970   38.9880 C   0  0  0  0  0  3  0  0  0  0  0  0
   36.4160   28.3300   39.3710 C   0  0  0  0  0  3  0  0  0  0  0  0
   37.8390   30.8140   40.9850 N   0  0  0  0  0  0  0  0  0  0  0  0
   36.8180   30.0420   41.0050 C   0  0  0  0  0  0  0  0  0  0  0  0
   35.7570   30.8980   41.4090 N   0  0  0  0  0  0  0  0  0  0  0  0
   38.7860   30.4290   40.7130 H   0  0  0  0  0  0  0  0  0  0  0  0
   35.2300   31.1490   42.2740 H   0  0  0  0  0  0  0  0  0  0  0  0
   35.2400   31.5360   40.7630 H   0  0  0  0  0  0  0  0  0  0  0  0
   37.4380   27.9730   42.9570 C   0  0  0  0  0  0  0  0  0  0  0  0
   36.9470   27.2820   43.6780 H   0  0  0  0  0  0  0  0  0  0  0  0
   37.1000   28.9820   43.2200 H   0  0  0  0  0  0  0  0  0  0  0  0
   38.9350   27.8760   43.0740 C   0  0  0  0  0  0  0  0  0  0  0  0
   39.4520   26.6680   43.5340 C   0  0  0  0  0  0  0  0  0  0  0  0
   40.8420   26.5370   43.6580 C   0  0  0  0  0  0  0  0  0  0  0  0
   41.5990   27.6230   43.3140 N   0  0  0  0  0  0  0  0  0  0  0  0
   41.0530   28.7810   42.8710 C   0  0  0  0  0  0  0  0  0  0  0  0
   39.7130   28.9150   42.7490 N   0  0  0  0  0  0  0  0  0  0  0  0
   38.7760   25.8590   43.7840 H   0  0  0  0  0  0  0  0  0  0  0  0
   41.2750   25.6200   44.0090 H   0  0  0  0  0  0  0  0  0  0  0  0
   41.7150   29.6010   42.6160 H   0  0  0  0  0  0  0  0  0  0  0  0
  1 10  1  0  0  0  0
  1  2  1  0  0  0  0
  2 15  1  0  0  0  0
  3  2  2  0  0  0  0
  3  4  1  0  0  0  0
  5  3  1  0  0  0  0
  6  5  1  0  0  0  0
  7  8  1  0  0  0  0
  7  5  2  0  0  0  0
  8  1  2  0  0  0  0
  9 10  2  0  0  0  0
 10 11  1  0  0  0  0
 11 13  1  0  0  0  0
 12  9  1  0  0  0  0
 14 11  1  0  0  0  0
 15 18  1  0  0  0  0
 15 17  1  0  0  0  0
 15 16  1  0  0  0  0
 18 19  1  0  0  0  0
 19 20  2  0  0  0  0
 19 24  1  0  0  0  0
 20 25  1  0  0  0  0
 21 20  1  0  0  0  0
 22 21  2  0  0  0  0
 23 22  1  0  0  0  0
 23 18  2  0  0  0  0
 26 22  1  0  0  0  0
M  END
>  <minimizedAffinity>
-4.7391367

$$$$

 OpenBabel03252500403D

 26 27  0  0  0  0  0  0  0  0999 V2000
   37.0070   30.8080   39.4790 C   0  0  0  0  0  0  0  0  0  0  0  0
   37.5250   31.9920   38.9910 C   0  0  0  0  0  0  0  0  0  0  0  0
   37.7650   32.1420   37.6410 C   0  0  0  0  0  0  0  0  0  0  0  0
   38.1710   33.0870   37.3020 H   0  0  0  0  0  0  0  0  0  0  0  0
   37.4860   31.0970   36.7580 C   0  0  0  0  0  0  0  0  0  0  0  0
   37.6900   31.2710   35.7290 H   0  0  0  0  0  0  0  0  0  0  0  0
   36.9620   29.9140   37.2850 C   0  0  0  0  0  3  0  0  0  0  0  0
   36.7140   29.7450   38.6400 C   0  0  0  0  0  3  0  0  0  0  0  0
   35.6260   30.7900   41.5320 N   0  0  0  0  0  0  0  0  0  0  0  0
   36.7140   30.5440   40.9030 C   0  0  0  0  0  0  0  0  0  0  0  0
   37.5530   29.9670   41.8960 N   0  0  0  0  0  0  0  0  0  0  0  0
   34.8120   31.2330   41.0220 H   0  0  0  0  0  0  0  0  0  0  0  0
   38.3220   30.2480   42.5410 H   0  0  0  0  0  0  0  0  0  0  0  0
   37.5130   28.9630   42.1850 H   0  0  0  0  0  0  0  0  0  0  0  0
   37.8060   33.0740   39.9640 C   0  0  0  0  0  0  0  0  0  0  0  0
   37.2350   32.8860   40.9000 H   0  0  0  0  0  0  0  0  0  0  0  0
   37.4860   34.0590   39.6040 H   0  0  0  0  0  0  0  0  0  0  0  0
   39.2840   33.0740   40.2430 C   0  0  0  0  0  0  0  0  0  0  0  0
   40.0240   34.1240   39.7040 C   0  0  0  0  0  0  0  0  0  0  0  0
   41.4060   34.1610   39.9410 C   0  0  0  0  0  0  0  0  0  0  0  0
   41.9320   33.1480   40.6930 N   0  0  0  0  0  0  0  0  0  0  0  0
   41.1740   32.1440   41.1970 C   0  0  0  0  0  0  0  0  0  0  0  0
   39.8410   32.1020   40.9740 N   0  0  0  0  0  0  0  0  0  0  0  0
   39.5230   34.8850   39.1190 H   0  0  0  0  0  0  0  0  0  0  0  0
   42.0070   34.9550   39.5420 H   0  0  0  0  0  0  0  0  0  0  0  0
   41.6600   31.3740   41.7860 H   0  0  0  0  0  0  0  0  0  0  0  0
  1 10  1  0  0  0  0
  2  1  1  0  0  0  0
  2 15  1  0  0  0  0
  3  2  2  0  0  0  0
  4  3  1  0  0  0  0
  5  7  2  0  0  0  0
  5  3  1  0  0  0  0
  6  5  1  0  0  0  0
  7  8  1  0  0  0  0
  8  1  2  0  0  0  0
 10  9  2  0  0  0  0
 10 11  1  0  0  0  0
 11 14  1  0  0  0  0
 11 13  1  0  0  0  0
 12  9  1  0  0  0  0
 15 18  1  0  0  0  0
 15 16  1  0  0  0  0
 17 15  1  0  0  0  0
 18 23  1  0  0  0  0
 19 20  1  0  0  0  0
 19 18  2  0  0  0  0
 20 21  2  0  0  0  0
 21 22  1  0  0  0  0
 22 26  1  0  0  0  0
 23 22  2  0  0  0  0
 24 19  1  0  0  0  0
 25 20  1  0  0  0  0
M  END
>  <minimizedAffinity>
-4.69460583

$$$$

 OpenBabel03252500403D

 26 27  0  0  0  0  0  0  0  0999 V2000
   36.9300   29.1890   39.6800 C   0  0  0  0  0  0  0  0  0  0  0  0
   37.6240   29.8020   38.6560 C   0  0  0  0  0  0  0  0  0  0  0  0
   38.7140   29.1790   38.0850 C   0  0  0  0  0  0  0  0  0  0  0  0
   39.2300   29.6960   37.2840 H   0  0  0  0  0  0  0  0  0  0  0  0
   39.1230   27.9240   38.5370 C   0  0  0  0  0  0  0  0  0  0  0  0
   39.9690   27.4930   38.0590 H   0  0  0  0  0  0  0  0  0  0  0  0
   38.3980   27.3310   39.5740 C   0  0  0  0  0  3  0  0  0  0  0  0
   37.2990   27.9420   40.1620 C   0  0  0  0  0  3  0  0  0  0  0  0
   34.5240   29.4410   40.2000 N   0  0  0  0  0  0  0  0  0  0  0  0
   35.7520   29.7670   40.3600 C   0  0  0  0  0  0  0  0  0  0  0  0
   35.7010   30.8030   41.3330 N   0  0  0  0  0  0  0  0  0  0  0  0
   34.2660   28.6770   39.5160 H   0  0  0  0  0  0  0  0  0  0  0  0
   35.7140   31.8450   41.3790 H   0  0  0  0  0  0  0  0  0  0  0  0
   35.6300   30.6370   42.3630 H   0  0  0  0  0  0  0  0  0  0  0  0
   37.1560   31.1340   38.2070 C   0  0  0  0  0  0  0  0  0  0  0  0
   36.1080   31.2900   38.5470 H   0  0  0  0  0  0  0  0  0  0  0  0
   37.1400   31.2300   37.1150 H   0  0  0  0  0  0  0  0  0  0  0  0
   38.0630   32.1720   38.8090 C   0  0  0  0  0  0  0  0  0  0  0  0
   37.4570   33.1730   39.5660 C   0  0  0  0  0  0  0  0  0  0  0  0
   38.2670   34.1600   40.1440 C   0  0  0  0  0  0  0  0  0  0  0  0
   39.6130   34.0660   39.9190 N   0  0  0  0  0  0  0  0  0  0  0  0
   40.1600   33.0750   39.1740 C   0  0  0  0  0  0  0  0  0  0  0  0
   39.3850   32.1190   38.6130 N   0  0  0  0  0  0  0  0  0  0  0  0
   36.3810   33.1680   39.6910 H   0  0  0  0  0  0  0  0  0  0  0  0
   37.8340   34.9450   40.7330 H   0  0  0  0  0  0  0  0  0  0  0  0
   41.2360   33.0640   39.0380 H   0  0  0  0  0  0  0  0  0  0  0  0
  1  8  1  0  0  0  0
  1 10  1  0  0  0  0
  2  1  2  0  0  0  0
  3  5  2  0  0  0  0
  3  2  1  0  0  0  0
  4  3  1  0  0  0  0
  5  7  1  0  0  0  0
  6  5  1  0  0  0  0
  7  8  2  0  0  0  0
  9 10  2  0  0  0  0
 10 11  1  0  0  0  0
 11 13  1  0  0  0  0
 11 14  1  0  0  0  0
 12  9  1  0  0  0  0
 15 16  1  0  0  0  0
 15  2  1  0  0  0  0
 15 18  1  0  0  0  0
 17 15  1  0  0  0  0
 18 19  1  0  0  0  0
 19 24  1  0  0  0  0
 19 20  2  0  0  0  0
 20 25  1  0  0  0  0
 21 20  1  0  0  0  0
 22 21  2  0  0  0  0
 23 18  2  0  0  0  0
 23 22  1  0  0  0  0
 26 22  1  0  0  0  0
M  END
>  <minimizedAffinity>
-4.67840385

$$$$

 OpenBabel03252500403D

 26 27  0  0  0  0  0  0  0  0999 V2000
   37.8860   30.0490   40.7790 C   0  0  0  0  0  0  0  0  0  0  0  0
   38.9030   29.6540   41.6250 C   0  0  0  0  0  0  0  0  0  0  0  0
   40.2200   29.7660   41.2290 C   0  0  0  0  0  0  0  0  0  0  0  0
   40.9860   29.4450   41.9240 H   0  0  0  0  0  0  0  0  0  0  0  0
   40.5330   30.2800   39.9690 C   0  0  0  0  0  0  0  0  0  0  0  0
   41.5640   30.3430   39.7190 H   0  0  0  0  0  0  0  0  0  0  0  0
   39.4790   30.6700   39.1390 C   0  0  0  0  0  3  0  0  0  0  0  0
   38.1490   30.5650   39.5200 C   0  0  0  0  0  3  0  0  0  0  0  0
   35.6540   30.9430   41.3640 N   0  0  0  0  0  0  0  0  0  0  0  0
   36.4460   29.9710   41.1040 C   0  0  0  0  0  0  0  0  0  0  0  0
   35.6140   28.8230   41.2060 N   0  0  0  0  0  0  0  0  0  0  0  0
   36.0190   31.9360   41.3580 H   0  0  0  0  0  0  0  0  0  0  0  0
   35.3800   28.0750   41.8950 H   0  0  0  0  0  0  0  0  0  0  0  0
   34.9810   28.4870   40.4440 H   0  0  0  0  0  0  0  0  0  0  0  0
   38.5260   29.1140   42.9530 C   0  0  0  0  0  0  0  0  0  0  0  0
   37.4590   29.3540   43.1580 H   0  0  0  0  0  0  0  0  0  0  0  0
   39.1020   29.5640   43.7710 H   0  0  0  0  0  0  0  0  0  0  0  0
   38.7330   27.6250   42.9240 C   0  0  0  0  0  0  0  0  0  0  0  0
   39.7910   27.1240   43.6800 C   0  0  0  0  0  0  0  0  0  0  0  0
   40.0190   25.7410   43.6790 C   0  0  0  0  0  0  0  0  0  0  0  0
   39.1730   24.9740   42.9260 N   0  0  0  0  0  0  0  0  0  0  0  0
   38.1560   25.5050   42.2050 C   0  0  0  0  0  0  0  0  0  0  0  0
   37.9300   26.8380   42.2000 N   0  0  0  0  0  0  0  0  0  0  0  0
   40.4110   27.8070   44.2470 H   0  0  0  0  0  0  0  0  0  0  0  0
   40.8240   25.3210   44.2500 H   0  0  0  0  0  0  0  0  0  0  0  0
   37.5250   24.8350   41.6300 H   0  0  0  0  0  0  0  0  0  0  0  0
  1 10  1  0  0  0  0
  1  2  1  0  0  0  0
  2 15  1  0  0  0  0
  3  2  2  0  0  0  0
  3  4  1  0  0  0  0
  5  3  1  0  0  0  0
  6  5  1  0  0  0  0
  7  8  1  0  0  0  0
  7  5  2  0  0  0  0
  8  1  2  0  0  0  0
 10 11  1  0  0  0  0
 10  9  2  0  0  0  0
 11 13  1  0  0  0  0
 12  9  1  0  0  0  0
 14 11  1  0  0  0  0
 15 16  1  0  0  0  0
 15 17  1  0  0  0  0
 18 15  1  0  0  0  0
 18 19  1  0  0  0  0
 19 24  1  0  0  0  0
 20 19  2  0  0  0  0
 20 25  1  0  0  0  0
 21 20  1  0  0  0  0
 22 21  2  0  0  0  0
 23 22  1  0  0  0  0
 23 18  2  0  0  0  0
 26 22  1  0  0  0  0
M  END
>  <minimizedAffinity>
-4.64127827

$$$$

 OpenBabel03252500403D

 26 27  0  0  0  0  0  0  0  0999 V2000
   37.3630   31.1460   37.7290 C   0  0  0  0  0  0  0  0  0  0  0  0
   36.6960   29.9820   37.4040 C   0  0  0  0  0  0  0  0  0  0  0  0
   35.9310   29.3310   38.3500 C   0  0  0  0  0  0  0  0  0  0  0  0
   35.4250   28.4210   38.0520 H   0  0  0  0  0  0  0  0  0  0  0  0
   35.8260   29.8460   39.6440 C   0  0  0  0  0  0  0  0  0  0  0  0
   35.2230   29.3020   40.3290 H   0  0  0  0  0  0  0  0  0  0  0  0
   36.5130   31.0260   39.9390 C   0  0  0  0  0  3  0  0  0  0  0  0
   37.2870   31.6950   39.0000 C   0  0  0  0  0  3  0  0  0  0  0  0
   37.8300   32.5410   35.7400 N   0  0  0  0  0  0  0  0  0  0  0  0
   38.2060   31.9190   36.7940 C   0  0  0  0  0  0  0  0  0  0  0  0
   39.6080   32.1530   36.8400 N   0  0  0  0  0  0  0  0  0  0  0  0
   36.8100   32.5330   35.4590 H   0  0  0  0  0  0  0  0  0  0  0  0
   40.4980   31.6730   36.5830 H   0  0  0  0  0  0  0  0  0  0  0  0
   40.0460   33.0240   37.2180 H   0  0  0  0  0  0  0  0  0  0  0  0
   36.8350   29.4710   36.0200 C   0  0  0  0  0  0  0  0  0  0  0  0
   37.4320   30.1930   35.4190 H   0  0  0  0  0  0  0  0  0  0  0  0
   35.8710   29.3710   35.5080 H   0  0  0  0  0  0  0  0  0  0  0  0
   37.5330   28.1400   36.0850 C   0  0  0  0  0  0  0  0  0  0  0  0
   38.8560   28.1460   36.5190 C   0  0  0  0  0  0  0  0  0  0  0  0
   39.5430   26.9260   36.5930 C   0  0  0  0  0  0  0  0  0  0  0  0
   38.8520   25.8040   36.2280 N   0  0  0  0  0  0  0  0  0  0  0  0
   37.5640   25.8450   35.8100 C   0  0  0  0  0  0  0  0  0  0  0  0
   36.8950   27.0180   35.7350 N   0  0  0  0  0  0  0  0  0  0  0  0
   39.3250   29.0850   36.7890 H   0  0  0  0  0  0  0  0  0  0  0  0
   40.5630   26.8930   36.9240 H   0  0  0  0  0  0  0  0  0  0  0  0
   37.0790   24.9140   35.5350 H   0  0  0  0  0  0  0  0  0  0  0  0
  1  8  1  0  0  0  0
  2  1  2  0  0  0  0
  2  3  1  0  0  0  0
  3  5  2  0  0  0  0
  4  3  1  0  0  0  0
  5  7  1  0  0  0  0
  5  6  1  0  0  0  0
  8  7  2  0  0  0  0
  9 10  2  0  0  0  0
 10 11  1  0  0  0  0
 10  1  1  0  0  0  0
 11 14  1  0  0  0  0
 12  9  1  0  0  0  0
 13 11  1  0  0  0  0
 15 18  1  0  0  0  0
 15  2  1  0  0  0  0
 16 15  1  0  0  0  0
 17 15  1  0  0  0  0
 18 19  1  0  0  0  0
 19 20  2  0  0  0  0
 19 24  1  0  0  0  0
 20 25  1  0  0  0  0
 21 20  1  0  0  0  0
 22 21  2  0  0  0  0
 23 22  1  0  0  0  0
 23 18  2  0  0  0  0
 26 22  1  0  0  0  0
M  END
>  <minimizedAffinity>
-4.62359047

$$$$

 OpenBabel03252500403D

 26 27  0  0  0  0  0  0  0  0999 V2000
   37.7460   31.5160   38.1780 C   0  0  0  0  0  0  0  0  0  0  0  0
   37.4130   30.1930   38.3920 C   0  0  0  0  0  0  0  0  0  0  0  0
   36.7730   29.8170   39.5550 C   0  0  0  0  0  0  0  0  0  0  0  0
   36.5310   28.7690   39.6820 H   0  0  0  0  0  0  0  0  0  0  0  0
   36.4570   30.7720   40.5240 C   0  0  0  0  0  0  0  0  0  0  0  0
   35.9630   30.4230   41.3980 H   0  0  0  0  0  0  0  0  0  0  0  0
   36.8070   32.1010   40.2740 C   0  0  0  0  0  3  0  0  0  0  0  0
   37.4510   32.4990   39.1110 C   0  0  0  0  0  3  0  0  0  0  0  0
   39.6880   32.2150   36.8120 N   0  0  0  0  0  0  0  0  0  0  0  0
   38.4310   32.0250   36.9720 C   0  0  0  0  0  0  0  0  0  0  0  0
   37.8710   32.4180   35.7250 N   0  0  0  0  0  0  0  0  0  0  0  0
   40.3570   32.0000   37.6020 H   0  0  0  0  0  0  0  0  0  0  0  0
   37.4030   33.2450   35.2940 H   0  0  0  0  0  0  0  0  0  0  0  0
   37.8390   31.8060   34.8770 H   0  0  0  0  0  0  0  0  0  0  0  0
   37.7680   29.2140   37.3380 C   0  0  0  0  0  0  0  0  0  0  0  0
   38.0330   28.2430   37.8120 H   0  0  0  0  0  0  0  0  0  0  0  0
   38.6450   29.5200   36.7560 H   0  0  0  0  0  0  0  0  0  0  0  0
   36.5740   29.0490   36.4380 C   0  0  0  0  0  0  0  0  0  0  0  0
   36.8330   28.8300   35.0870 C   0  0  0  0  0  0  0  0  0  0  0  0
   35.7470   28.6720   34.2130 C   0  0  0  0  0  0  0  0  0  0  0  0
   34.4960   28.7450   34.7610 N   0  0  0  0  0  0  0  0  0  0  0  0
   34.2910   28.9610   36.0830 C   0  0  0  0  0  0  0  0  0  0  0  0
   35.3320   29.1150   36.9320 N   0  0  0  0  0  0  0  0  0  0  0  0
   37.8580   28.7870   34.7400 H   0  0  0  0  0  0  0  0  0  0  0  0
   35.9100   28.5010   33.1670 H   0  0  0  0  0  0  0  0  0  0  0  0
   33.2700   29.0080   36.4470 H   0  0  0  0  0  0  0  0  0  0  0  0
  1  2  2  0  0  0  0
  1  8  1  0  0  0  0
  2  3  1  0  0  0  0
  3  4  1  0  0  0  0
  3  5  2  0  0  0  0
  5  6  1  0  0  0  0
  7  5  1  0  0  0  0
  8  7  2  0  0  0  0
  9 10  2  0  0  0  0
  9 12  1  0  0  0  0
 10  1  1  0  0  0  0
 11 10  1  0  0  0  0
 13 11  1  0  0  0  0
 14 11  1  0  0  0  0
 15 16  1  0  0  0  0
 15  2  1  0  0  0  0
 17 15  1  0  0  0  0
 18 23  1  0  0  0  0
 18 15  1  0  0  0  0
 19 18  2  0  0  0  0
 20 21  2  0  0  0  0
 20 19  1  0  0  0  0
 21 22  1  0  0  0  0
 22 26  1  0  0  0  0
 22 23  2  0  0  0  0
 24 19  1  0  0  0  0
 25 20  1  0  0  0  0
M  END
>  <minimizedAffinity>
-4.59714508

$$$$

 OpenBabel03252500403D

 26 27  0  0  0  0  0  0  0  0999 V2000
   36.6410   28.1760   41.1820 C   0  0  0  0  0  0  0  0  0  0  0  0
   36.2970   29.2960   40.4530 C   0  0  0  0  0  0  0  0  0  0  0  0
   36.0430   29.1950   39.1010 C   0  0  0  0  0  0  0  0  0  0  0  0
   35.7760   30.0990   38.5680 H   0  0  0  0  0  0  0  0  0  0  0  0
   36.1330   27.9580   38.4600 C   0  0  0  0  0  0  0  0  0  0  0  0
   35.9260   27.9410   37.4180 H   0  0  0  0  0  0  0  0  0  0  0  0
   36.4830   26.8450   39.2280 C   0  0  0  0  0  3  0  0  0  0  0  0
   36.7420   26.9270   40.5890 C   0  0  0  0  0  3  0  0  0  0  0  0
   36.1890   27.7290   43.5740 N   0  0  0  0  0  0  0  0  0  0  0  0
   36.9330   28.1740   42.6310 C   0  0  0  0  0  0  0  0  0  0  0  0
   38.0850   28.6560   43.3120 N   0  0  0  0  0  0  0  0  0  0  0  0
   35.2470   27.3050   43.3460 H   0  0  0  0  0  0  0  0  0  0  0  0
   38.4760   29.5570   43.6610 H   0  0  0  0  0  0  0  0  0  0  0  0
   38.8760   28.0500   43.6270 H   0  0  0  0  0  0  0  0  0  0  0  0
   36.2130   30.5890   41.1740 C   0  0  0  0  0  0  0  0  0  0  0  0
   36.1670   30.3980   42.2690 H   0  0  0  0  0  0  0  0  0  0  0  0
   35.3080   31.1540   40.9230 H   0  0  0  0  0  0  0  0  0  0  0  0
   37.4400   31.3900   40.8320 C   0  0  0  0  0  0  0  0  0  0  0  0
   37.2530   32.5150   40.0330 C   0  0  0  0  0  0  0  0  0  0  0  0
   38.3710   33.2890   39.6920 C   0  0  0  0  0  0  0  0  0  0  0  0
   39.5810   32.8750   40.1760 N   0  0  0  0  0  0  0  0  0  0  0  0
   39.7170   31.7720   40.9510 C   0  0  0  0  0  0  0  0  0  0  0  0
   38.6440   31.0200   41.2840 N   0  0  0  0  0  0  0  0  0  0  0  0
   36.2550   32.7680   39.6940 H   0  0  0  0  0  0  0  0  0  0  0  0
   38.2630   34.1620   39.0780 H   0  0  0  0  0  0  0  0  0  0  0  0
   40.7090   31.5040   41.2990 H   0  0  0  0  0  0  0  0  0  0  0  0
  1 10  1  0  0  0  0
  2 15  1  0  0  0  0
  2  1  2  0  0  0  0
  3  2  1  0  0  0  0
  4  3  1  0  0  0  0
  5  3  2  0  0  0  0
  5  7  1  0  0  0  0
  6  5  1  0  0  0  0
  7  8  2  0  0  0  0
  8  1  1  0  0  0  0
 10 11  1  0  0  0  0
 10  9  2  0  0  0  0
 11 14  1  0  0  0  0
 11 13  1  0  0  0  0
 12  9  1  0  0  0  0
 15 16  1  0  0  0  0
 17 15  1  0  0  0  0
 18 15  1  0  0  0  0
 18 23  1  0  0  0  0
 19 18  2  0  0  0  0
 20 19  1  0  0  0  0
 20 21  2  0  0  0  0
 21 22  1  0  0  0  0
 22 23  2  0  0  0  0
 22 26  1  0  0  0  0
 24 19  1  0  0  0  0
 25 20  1  0  0  0  0
M  END
>  <minimizedAffinity>
-4.56603909

$$$$
