
 OpenBabel03242523353D

 42 45  0  0  0  0  0  0  0  0999 V2000
   38.4650   34.2110   40.2120 C   0  0  0  0  0  0  0  0  0  0  0  0
   37.5260   33.1980   39.9150 C   0  0  0  0  0  0  0  0  0  0  0  0
   37.9550   31.8690   39.8680 C   0  0  0  0  0  0  0  0  0  0  0  0
   39.2710   31.5850   40.1090 N   0  0  0  0  0  0  0  0  0  0  0  0
   40.1350   32.5930   40.3900 C   0  0  0  0  0  0  0  0  0  0  0  0
   39.7320   33.8890   40.4400 N   0  0  0  0  0  0  0  0  0  0  0  0
   38.2530   35.2680   40.2760 H   0  0  0  0  0  0  0  0  0  0  0  0
   36.5660   33.6510   39.7620 H   0  0  0  0  0  0  0  0  0  0  0  0
   36.7170   30.5070   38.2470 C   0  0  0  0  0  0  0  0  0  0  0  0
   36.9160   30.9170   39.5380 C   0  0  0  0  0  0  0  0  0  0  0  0
   36.0760   30.3680   40.4480 C   0  0  0  0  0  0  0  0  0  0  0  0
   36.1340   30.6110   41.4980 H   0  0  0  0  0  0  0  0  0  0  0  0
   35.0790   29.4610   40.1790 C   0  0  0  0  0  0  0  0  0  0  0  0
   34.4340   29.0480   40.9360 H   0  0  0  0  0  0  0  0  0  0  0  0
   34.8860   29.0440   38.8570 C   0  0  0  0  0  3  0  0  0  0  0  0
   35.7240   29.5870   37.9110 C   0  0  0  0  0  3  0  0  0  0  0  0
   38.1710   31.9310   36.6550 N   0  0  0  0  0  0  0  0  0  0  0  0
   37.4050   30.9660   37.0760 C   0  0  0  0  0  0  0  0  0  0  0  0
   37.3950   30.2130   35.8730 N   0  0  0  0  0  0  0  0  0  0  0  0
   38.4390   32.7340   37.2680 H   0  0  0  0  0  0  0  0  0  0  0  0
   37.4120   29.7360   34.9450 H   0  0  0  0  0  0  0  0  0  0  0  0
   37.1620   29.1830   35.7580 H   0  0  0  0  0  0  0  0  0  0  0  0
   41.5340   32.1880   40.6560 C   0  0  0  0  0  0  0  0  0  0  0  0
   42.2290   33.0610   40.6540 H   0  0  0  0  0  0  0  0  0  0  0  0
   41.8510   31.5670   39.7990 H   0  0  0  0  0  0  0  0  0  0  0  0
   41.5740   31.3180   42.2310 S   0  0  0  0  0  0  0  0  0  0  0  0
   40.5510   29.8630   42.1710 C   0  0  0  0  0  0  0  0  0  0  0  0
   41.0180   28.7890   41.4570 C   0  0  0  0  0  0  0  0  0  0  0  0
   40.2470   27.6490   41.4180 C   0  0  0  0  0  0  0  0  0  0  0  0
   39.0220   27.5580   42.0750 C   0  0  0  0  0  0  0  0  0  0  0  0
   38.3000   26.4230   42.0110 N   0  0  0  0  0  0  0  0  0  0  0  0
   37.1080   26.3310   42.6490 C   0  0  0  0  0  0  0  0  0  0  0  0
   36.6460   27.4010   43.3550 C   0  0  0  0  0  0  0  0  0  0  0  0
   37.3890   28.5700   43.4210 C   0  0  0  0  0  0  0  0  0  0  0  0
   38.6220   28.6770   42.7680 C   0  0  0  0  0  0  0  0  0  0  0  0
   39.3540   29.8470   42.8430 C   0  0  0  0  0  0  0  0  0  0  0  0
   41.9250   28.6840   40.8950 H   0  0  0  0  0  0  0  0  0  0  0  0
   40.5390   26.7380   40.8710 H   0  0  0  0  0  0  0  0  0  0  0  0
   36.5010   25.4250   42.6150 H   0  0  0  0  0  0  0  0  0  0  0  0
   35.7160   27.4480   43.9010 H   0  0  0  0  0  0  0  0  0  0  0  0
   37.0660   29.4430   43.9670 H   0  0  0  0  0  0  0  0  0  0  0  0
   39.0070   30.7070   43.3980 H   0  0  0  0  0  0  0  0  0  0  0  0
  1  7  1  0  0  0  0
  1  6  1  0  0  0  0
  2  1  2  0  0  0  0
  3  2  1  0  0  0  0
  3  4  2  0  0  0  0
  4  5  1  0  0  0  0
  5  6  2  0  0  0  0
  5 23  1  0  0  0  0
  8  2  1  0  0  0  0
  9 10  1  0  0  0  0
 10  3  1  0  0  0  0
 10 11  2  0  0  0  0
 11 12  1  0  0  0  0
 13 11  1  0  0  0  0
 13 14  1  0  0  0  0
 15 13  2  0  0  0  0
 16  9  2  0  0  0  0
 16 15  1  0  0  0  0
 17 18  2  0  0  0  0
 17 20  1  0  0  0  0
 18  9  1  0  0  0  0
 19 18  1  0  0  0  0
 21 19  1  0  0  0  0
 22 19  1  0  0  0  0
 23 26  1  0  0  0  0
 24 23  1  0  0  0  0
 25 23  1  0  0  0  0
 27 26  1  0  0  0  0
 27 36  1  0  0  0  0
 28 27  2  0  0  0  0
 29 28  1  0  0  0  0
 29 30  2  0  0  0  0
 30 35  1  0  0  0  0
 31 30  1  0  0  0  0
 31 32  2  0  0  0  0
 32 33  1  0  0  0  0
 33 34  2  0  0  0  0
 33 40  1  0  0  0  0
 34 41  1  0  0  0  0
 35 36  2  0  0  0  0
 35 34  1  0  0  0  0
 36 42  1  0  0  0  0
 37 28  1  0  0  0  0
 38 29  1  0  0  0  0
 39 32  1  0  0  0  0
M  END
>  <minimizedAffinity>
-7.1188693

$$$$

 OpenBabel03242523353D

 42 45  0  0  0  0  0  0  0  0999 V2000
   38.2130   34.7150   40.0650 C   0  0  0  0  0  0  0  0  0  0  0  0
   39.6190   34.6420   40.1710 C   0  0  0  0  0  0  0  0  0  0  0  0
   40.2450   33.3970   40.0530 C   0  0  0  0  0  0  0  0  0  0  0  0
   39.4780   32.2850   39.8390 N   0  0  0  0  0  0  0  0  0  0  0  0
   38.1290   32.4060   39.7440 C   0  0  0  0  0  0  0  0  0  0  0  0
   37.5090   33.6090   39.8550 N   0  0  0  0  0  0  0  0  0  0  0  0
   37.6210   35.6150   40.1380 H   0  0  0  0  0  0  0  0  0  0  0  0
   40.0050   35.6280   40.3390 H   0  0  0  0  0  0  0  0  0  0  0  0
   42.5000   33.5400   39.1020 C   0  0  0  0  0  0  0  0  0  0  0  0
   41.6840   33.4360   40.1970 C   0  0  0  0  0  0  0  0  0  0  0  0
   42.3290   33.3750   41.3860 C   0  0  0  0  0  0  0  0  0  0  0  0
   41.7950   33.2920   42.3210 H   0  0  0  0  0  0  0  0  0  0  0  0
   43.6910   33.4110   41.5660 C   0  0  0  0  0  0  0  0  0  0  0  0
   44.1610   33.3600   42.5350 H   0  0  0  0  0  0  0  0  0  0  0  0
   44.5170   33.5210   40.4420 C   0  0  0  0  0  3  0  0  0  0  0  0
   43.8890   33.5830   39.2200 C   0  0  0  0  0  3  0  0  0  0  0  0
   41.2500   33.0210   36.9010 N   0  0  0  0  0  0  0  0  0  0  0  0
   42.1050   33.5570   37.7240 C   0  0  0  0  0  0  0  0  0  0  0  0
   42.7210   34.4310   36.7910 N   0  0  0  0  0  0  0  0  0  0  0  0
   40.5700   32.2870   37.2070 H   0  0  0  0  0  0  0  0  0  0  0  0
   43.1420   35.0200   36.0390 H   0  0  0  0  0  0  0  0  0  0  0  0
   43.2840   35.3070   37.0020 H   0  0  0  0  0  0  0  0  0  0  0  0
   37.3860   31.1510   39.4920 C   0  0  0  0  0  0  0  0  0  0  0  0
   38.0390   30.3600   39.0530 H   0  0  0  0  0  0  0  0  0  0  0  0
   36.6420   31.3770   38.7080 H   0  0  0  0  0  0  0  0  0  0  0  0
   36.6550   30.6130   41.0460 S   0  0  0  0  0  0  0  0  0  0  0  0
   37.2560   28.9990   41.4970 C   0  0  0  0  0  0  0  0  0  0  0  0
   36.6530   27.9140   40.9140 C   0  0  0  0  0  0  0  0  0  0  0  0
   37.1220   26.6590   41.2370 C   0  0  0  0  0  0  0  0  0  0  0  0
   38.1750   26.4660   42.1270 C   0  0  0  0  0  0  0  0  0  0  0  0
   38.6020   25.2220   42.4150 N   0  0  0  0  0  0  0  0  0  0  0  0
   39.6270   25.0310   43.2800 C   0  0  0  0  0  0  0  0  0  0  0  0
   40.2210   26.1110   43.8580 C   0  0  0  0  0  0  0  0  0  0  0  0
   39.7820   27.3930   43.5630 C   0  0  0  0  0  0  0  0  0  0  0  0
   38.7260   27.6040   42.6700 C   0  0  0  0  0  0  0  0  0  0  0  0
   38.2990   28.8870   42.3820 C   0  0  0  0  0  0  0  0  0  0  0  0
   35.8390   27.8750   40.2180 H   0  0  0  0  0  0  0  0  0  0  0  0
   36.7010   25.7300   40.8210 H   0  0  0  0  0  0  0  0  0  0  0  0
   39.9930   24.0340   43.5320 H   0  0  0  0  0  0  0  0  0  0  0  0
   41.0420   26.0860   44.5600 H   0  0  0  0  0  0  0  0  0  0  0  0
   40.2200   28.2800   43.9940 H   0  0  0  0  0  0  0  0  0  0  0  0
   38.7560   29.7580   42.8280 H   0  0  0  0  0  0  0  0  0  0  0  0
  1  7  1  0  0  0  0
  1  2  1  0  0  0  0
  2  8  1  0  0  0  0
  3  2  2  0  0  0  0
  3 10  1  0  0  0  0
  4  3  1  0  0  0  0
  5  4  2  0  0  0  0
  5  6  1  0  0  0  0
  6  1  2  0  0  0  0
  9 16  2  0  0  0  0
  9 10  1  0  0  0  0
 10 11  2  0  0  0  0
 11 13  1  0  0  0  0
 11 12  1  0  0  0  0
 13 14  1  0  0  0  0
 15 13  2  0  0  0  0
 16 15  1  0  0  0  0
 17 20  1  0  0  0  0
 17 18  2  0  0  0  0
 18  9  1  0  0  0  0
 19 22  1  0  0  0  0
 19 18  1  0  0  0  0
 21 19  1  0  0  0  0
 23  5  1  0  0  0  0
 23 26  1  0  0  0  0
 24 23  1  0  0  0  0
 25 23  1  0  0  0  0
 26 27  1  0  0  0  0
 27 36  1  0  0  0  0
 28 29  1  0  0  0  0
 28 27  2  0  0  0  0
 29 30  2  0  0  0  0
 30 31  1  0  0  0  0
 30 35  1  0  0  0  0
 31 32  2  0  0  0  0
 32 39  1  0  0  0  0
 32 33  1  0  0  0  0
 33 40  1  0  0  0  0
 34 33  2  0  0  0  0
 34 41  1  0  0  0  0
 35 34  1  0  0  0  0
 36 35  2  0  0  0  0
 36 42  1  0  0  0  0
 37 28  1  0  0  0  0
 38 29  1  0  0  0  0
M  END
>  <minimizedAffinity>
-7.11729813

$$$$

 OpenBabel03242523353D

 42 45  0  0  0  0  0  0  0  0999 V2000
   38.2380   33.9710   39.9570 C   0  0  0  0  0  0  0  0  0  0  0  0
   37.5050   33.0280   39.2030 C   0  0  0  0  0  0  0  0  0  0  0  0
   37.9170   31.6920   39.2000 C   0  0  0  0  0  0  0  0  0  0  0  0
   39.0190   31.3350   39.9270 N   0  0  0  0  0  0  0  0  0  0  0  0
   39.6910   32.2780   40.6360 C   0  0  0  0  0  0  0  0  0  0  0  0
   39.3010   33.5780   40.6480 N   0  0  0  0  0  0  0  0  0  0  0  0
   38.0170   35.0240   40.0360 H   0  0  0  0  0  0  0  0  0  0  0  0
   36.6900   33.5310   38.7180 H   0  0  0  0  0  0  0  0  0  0  0  0
   36.0440   30.1350   38.9140 C   0  0  0  0  0  0  0  0  0  0  0  0
   37.1050   30.8180   38.3820 C   0  0  0  0  0  0  0  0  0  0  0  0
   37.3170   30.6060   37.0610 C   0  0  0  0  0  0  0  0  0  0  0  0
   38.1220   31.0880   36.5270 H   0  0  0  0  0  0  0  0  0  0  0  0
   36.5700   29.7870   36.2480 C   0  0  0  0  0  0  0  0  0  0  0  0
   36.7750   29.6490   35.1990 H   0  0  0  0  0  0  0  0  0  0  0  0
   35.4860   29.0960   36.8000 C   0  0  0  0  0  3  0  0  0  0  0  0
   35.2480   29.2920   38.1400 C   0  0  0  0  0  3  0  0  0  0  0  0
   35.6890   30.8130   41.3820 N   0  0  0  0  0  0  0  0  0  0  0  0
   35.6270   30.1140   40.2860 C   0  0  0  0  0  0  0  0  0  0  0  0
   34.8210   29.0620   40.7940 N   0  0  0  0  0  0  0  0  0  0  0  0
   36.2180   31.7130   41.4380 H   0  0  0  0  0  0  0  0  0  0  0  0
   34.2550   28.3140   41.2510 H   0  0  0  0  0  0  0  0  0  0  0  0
   34.2280   28.3770   40.2390 H   0  0  0  0  0  0  0  0  0  0  0  0
   40.8590   31.7930   41.4070 C   0  0  0  0  0  0  0  0  0  0  0  0
   41.5900   32.6110   41.6140 H   0  0  0  0  0  0  0  0  0  0  0  0
   41.3970   31.0850   40.7530 H   0  0  0  0  0  0  0  0  0  0  0  0
   40.2540   31.0510   42.9310 S   0  0  0  0  0  0  0  0  0  0  0  0
   39.9660   29.3080   42.7080 C   0  0  0  0  0  0  0  0  0  0  0  0
   41.0620   28.4840   42.6740 C   0  0  0  0  0  0  0  0  0  0  0  0
   40.8530   27.1320   42.5230 C   0  0  0  0  0  0  0  0  0  0  0  0
   39.5780   26.5850   42.4060 C   0  0  0  0  0  0  0  0  0  0  0  0
   39.4190   25.2560   42.2610 N   0  0  0  0  0  0  0  0  0  0  0  0
   38.1800   24.7210   42.1470 C   0  0  0  0  0  0  0  0  0  0  0  0
   37.0940   25.5430   42.1800 C   0  0  0  0  0  0  0  0  0  0  0  0
   37.2560   26.9120   42.3290 C   0  0  0  0  0  0  0  0  0  0  0  0
   38.5310   27.4760   42.4490 C   0  0  0  0  0  0  0  0  0  0  0  0
   38.6790   28.8430   42.6000 C   0  0  0  0  0  0  0  0  0  0  0  0
   42.1030   28.7280   42.7450 H   0  0  0  0  0  0  0  0  0  0  0  0
   41.6700   26.3940   42.4830 H   0  0  0  0  0  0  0  0  0  0  0  0
   38.0200   23.6480   42.0280 H   0  0  0  0  0  0  0  0  0  0  0  0
   36.0610   25.2360   42.0990 H   0  0  0  0  0  0  0  0  0  0  0  0
   36.4280   27.6040   42.3610 H   0  0  0  0  0  0  0  0  0  0  0  0
   37.8320   29.5130   42.6290 H   0  0  0  0  0  0  0  0  0  0  0  0
  1  7  1  0  0  0  0
  1  6  1  0  0  0  0
  2  1  2  0  0  0  0
  3  2  1  0  0  0  0
  3  4  2  0  0  0  0
  4  5  1  0  0  0  0
  5  6  2  0  0  0  0
  5 23  1  0  0  0  0
  8  2  1  0  0  0  0
  9 18  1  0  0  0  0
 10  9  1  0  0  0  0
 10  3  1  0  0  0  0
 11 10  2  0  0  0  0
 12 11  1  0  0  0  0
 13 15  2  0  0  0  0
 13 11  1  0  0  0  0
 14 13  1  0  0  0  0
 15 16  1  0  0  0  0
 16  9  2  0  0  0  0
 17 20  1  0  0  0  0
 18 19  1  0  0  0  0
 18 17  2  0  0  0  0
 19 21  1  0  0  0  0
 22 19  1  0  0  0  0
 23 24  1  0  0  0  0
 23 26  1  0  0  0  0
 25 23  1  0  0  0  0
 27 26  1  0  0  0  0
 28 27  1  0  0  0  0
 28 37  1  0  0  0  0
 29 28  2  0  0  0  0
 30 35  1  0  0  0  0
 30 29  1  0  0  0  0
 31 30  2  0  0  0  0
 32 33  2  0  0  0  0
 32 31  1  0  0  0  0
 33 34  1  0  0  0  0
 34 41  1  0  0  0  0
 34 35  2  0  0  0  0
 35 36  1  0  0  0  0
 36 42  1  0  0  0  0
 36 27  2  0  0  0  0
 38 29  1  0  0  0  0
 39 32  1  0  0  0  0
 40 33  1  0  0  0  0
M  END
>  <minimizedAffinity>
-6.90426493

$$$$

 OpenBabel03242523353D

 42 45  0  0  0  0  0  0  0  0999 V2000
   39.2850   28.9740   37.7120 C   0  0  0  0  0  0  0  0  0  0  0  0
   40.0650   30.1500   37.7600 C   0  0  0  0  0  0  0  0  0  0  0  0
   39.5320   31.2950   38.3620 C   0  0  0  0  0  0  0  0  0  0  0  0
   38.2700   31.2440   38.8850 N   0  0  0  0  0  0  0  0  0  0  0  0
   37.5590   30.0900   38.8150 C   0  0  0  0  0  0  0  0  0  0  0  0
   38.0650   28.9720   38.2340 N   0  0  0  0  0  0  0  0  0  0  0  0
   39.5870   28.0350   37.2760 H   0  0  0  0  0  0  0  0  0  0  0  0
   41.0110   29.9580   37.2900 H   0  0  0  0  0  0  0  0  0  0  0  0
   40.2410   33.4790   39.2220 C   0  0  0  0  0  0  0  0  0  0  0  0
   40.4100   32.4450   38.3400 C   0  0  0  0  0  0  0  0  0  0  0  0
   41.4410   32.5940   37.4740 C   0  0  0  0  0  0  0  0  0  0  0  0
   41.6760   31.8470   36.7310 H   0  0  0  0  0  0  0  0  0  0  0  0
   42.2980   33.6670   37.4210 C   0  0  0  0  0  0  0  0  0  0  0  0
   43.1070   33.7440   36.7130 H   0  0  0  0  0  0  0  0  0  0  0  0
   42.1200   34.7180   38.3280 C   0  0  0  0  0  3  0  0  0  0  0  0
   41.0800   34.5940   39.2180 C   0  0  0  0  0  3  0  0  0  0  0  0
   38.9230   33.3470   41.4400 N   0  0  0  0  0  0  0  0  0  0  0  0
   39.2020   33.6250   40.1990 C   0  0  0  0  0  0  0  0  0  0  0  0
   38.0040   34.3260   39.9030 N   0  0  0  0  0  0  0  0  0  0  0  0
   39.5800   32.8110   42.0510 H   0  0  0  0  0  0  0  0  0  0  0  0
   37.0860   34.7990   39.7550 H   0  0  0  0  0  0  0  0  0  0  0  0
   37.8410   35.0200   39.1150 H   0  0  0  0  0  0  0  0  0  0  0  0
   36.2110   30.1250   39.4260 C   0  0  0  0  0  0  0  0  0  0  0  0
   35.6720   29.1550   39.3050 H   0  0  0  0  0  0  0  0  0  0  0  0
   35.6200   30.8550   38.8450 H   0  0  0  0  0  0  0  0  0  0  0  0
   36.3950   30.5640   41.1610 S   0  0  0  0  0  0  0  0  0  0  0  0
   37.4100   29.3700   42.0060 C   0  0  0  0  0  0  0  0  0  0  0  0
   36.7870   28.2640   42.5260 C   0  0  0  0  0  0  0  0  0  0  0  0
   37.5620   27.3210   43.1640 C   0  0  0  0  0  0  0  0  0  0  0  0
   38.9410   27.4590   43.2950 C   0  0  0  0  0  0  0  0  0  0  0  0
   39.6620   26.5120   43.9260 N   0  0  0  0  0  0  0  0  0  0  0  0
   41.0040   26.6430   44.0540 C   0  0  0  0  0  0  0  0  0  0  0  0
   41.6190   27.7440   43.5390 C   0  0  0  0  0  0  0  0  0  0  0  0
   40.8780   28.7190   42.8890 C   0  0  0  0  0  0  0  0  0  0  0  0
   39.4910   28.5950   42.7480 C   0  0  0  0  0  0  0  0  0  0  0  0
   38.7640   29.5740   42.0960 C   0  0  0  0  0  0  0  0  0  0  0  0
   35.7480   27.9980   42.5210 H   0  0  0  0  0  0  0  0  0  0  0  0
   37.1510   26.4030   43.6130 H   0  0  0  0  0  0  0  0  0  0  0  0
   41.6130   25.8930   44.5620 H   0  0  0  0  0  0  0  0  0  0  0  0
   42.6760   27.9590   43.5790 H   0  0  0  0  0  0  0  0  0  0  0  0
   41.3180   29.6080   42.4630 H   0  0  0  0  0  0  0  0  0  0  0  0
   39.2310   30.4540   41.6790 H   0  0  0  0  0  0  0  0  0  0  0  0
  1  2  2  0  0  0  0
  1  6  1  0  0  0  0
  2  3  1  0  0  0  0
  3  4  2  0  0  0  0
  5  4  1  0  0  0  0
  5 23  1  0  0  0  0
  6  5  2  0  0  0  0
  7  1  1  0  0  0  0
  8  2  1  0  0  0  0
  9 18  1  0  0  0  0
 10  3  1  0  0  0  0
 10  9  2  0  0  0  0
 11 10  1  0  0  0  0
 12 11  1  0  0  0  0
 13 11  2  0  0  0  0
 13 15  1  0  0  0  0
 14 13  1  0  0  0  0
 15 16  2  0  0  0  0
 16  9  1  0  0  0  0
 17 20  1  0  0  0  0
 18 17  2  0  0  0  0
 19 18  1  0  0  0  0
 21 19  1  0  0  0  0
 22 19  1  0  0  0  0
 23 26  1  0  0  0  0
 24 23  1  0  0  0  0
 25 23  1  0  0  0  0
 26 27  1  0  0  0  0
 27 36  2  0  0  0  0
 27 28  1  0  0  0  0
 28 29  2  0  0  0  0
 29 30  1  0  0  0  0
 29 38  1  0  0  0  0
 30 31  1  0  0  0  0
 31 32  2  0  0  0  0
 32 39  1  0  0  0  0
 33 40  1  0  0  0  0
 33 32  1  0  0  0  0
 34 33  2  0  0  0  0
 35 34  1  0  0  0  0
 35 30  2  0  0  0  0
 36 35  1  0  0  0  0
 37 28  1  0  0  0  0
 41 34  1  0  0  0  0
 42 36  1  0  0  0  0
M  END
>  <minimizedAffinity>
-6.71908379

$$$$

 OpenBabel03242523353D

 42 45  0  0  0  0  0  0  0  0999 V2000
   32.5190   26.7900   36.1230 C   0  0  0  0  0  0  0  0  0  0  0  0
   31.7710   27.9770   35.9570 C   0  0  0  0  0  0  0  0  0  0  0  0
   32.2560   29.1680   36.5060 C   0  0  0  0  0  0  0  0  0  0  0  0
   33.4400   29.1510   37.1900 N   0  0  0  0  0  0  0  0  0  0  0  0
   34.1230   27.9860   37.3230 C   0  0  0  0  0  0  0  0  0  0  0  0
   33.6640   26.8230   36.7940 N   0  0  0  0  0  0  0  0  0  0  0  0
   32.2480   25.8160   35.7470 H   0  0  0  0  0  0  0  0  0  0  0  0
   30.8850   27.7510   35.3950 H   0  0  0  0  0  0  0  0  0  0  0  0
   30.4400   30.6620   37.2030 C   0  0  0  0  0  0  0  0  0  0  0  0
   31.4020   30.3160   36.2910 C   0  0  0  0  0  0  0  0  0  0  0  0
   31.4760   31.1220   35.2060 C   0  0  0  0  0  0  0  0  0  0  0  0
   32.1940   30.9530   34.4170 H   0  0  0  0  0  0  0  0  0  0  0  0
   30.6880   32.2220   34.9640 C   0  0  0  0  0  0  0  0  0  0  0  0
   30.7830   32.8370   34.0850 H   0  0  0  0  0  0  0  0  0  0  0  0
   29.7100   32.5690   35.9030 C   0  0  0  0  0  3  0  0  0  0  0  0
   29.6110   31.7670   37.0150 C   0  0  0  0  0  3  0  0  0  0  0  0
   29.1250   29.2690   38.9370 N   0  0  0  0  0  0  0  0  0  0  0  0
   30.0910   29.9600   38.4030 C   0  0  0  0  0  0  0  0  0  0  0  0
   31.0100   29.8320   39.4770 N   0  0  0  0  0  0  0  0  0  0  0  0
   28.2160   29.1130   38.4440 H   0  0  0  0  0  0  0  0  0  0  0  0
   31.6150   29.7200   40.3200 H   0  0  0  0  0  0  0  0  0  0  0  0
   32.0650   29.9580   39.4420 H   0  0  0  0  0  0  0  0  0  0  0  0
   35.4030   28.0700   38.0610 C   0  0  0  0  0  0  0  0  0  0  0  0
   36.1790   28.6330   37.4890 H   0  0  0  0  0  0  0  0  0  0  0  0
   35.7930   27.0390   38.1360 H   0  0  0  0  0  0  0  0  0  0  0  0
   35.0790   28.8350   39.6570 S   0  0  0  0  0  0  0  0  0  0  0  0
   36.3380   28.3900   40.8350 C   0  0  0  0  0  0  0  0  0  0  0  0
   36.7710   29.3650   41.6970 C   0  0  0  0  0  0  0  0  0  0  0  0
   37.7300   29.0290   42.6270 C   0  0  0  0  0  0  0  0  0  0  0  0
   38.2640   27.7460   42.7140 C   0  0  0  0  0  0  0  0  0  0  0  0
   39.2000   27.4610   43.6400 N   0  0  0  0  0  0  0  0  0  0  0  0
   39.7210   26.2140   43.7270 C   0  0  0  0  0  0  0  0  0  0  0  0
   39.2890   25.2490   42.8670 C   0  0  0  0  0  0  0  0  0  0  0  0
   38.3260   25.5410   41.9140 C   0  0  0  0  0  0  0  0  0  0  0  0
   37.7780   26.8250   41.8150 C   0  0  0  0  0  0  0  0  0  0  0  0
   36.8170   27.1040   40.8610 C   0  0  0  0  0  0  0  0  0  0  0  0
   36.4770   30.3930   41.7710 H   0  0  0  0  0  0  0  0  0  0  0  0
   38.1400   29.7430   43.3590 H   0  0  0  0  0  0  0  0  0  0  0  0
   40.4810   25.9540   44.4660 H   0  0  0  0  0  0  0  0  0  0  0  0
   39.6290   24.2240   42.8390 H   0  0  0  0  0  0  0  0  0  0  0  0
   37.9510   24.8130   41.2110 H   0  0  0  0  0  0  0  0  0  0  0  0
   36.4600   26.3550   40.1700 H   0  0  0  0  0  0  0  0  0  0  0  0
  1  6  1  0  0  0  0
  2  1  2  0  0  0  0
  2  3  1  0  0  0  0
  3  4  2  0  0  0  0
  4  5  1  0  0  0  0
  5 23  1  0  0  0  0
  6  5  2  0  0  0  0
  7  1  1  0  0  0  0
  8  2  1  0  0  0  0
  9 18  1  0  0  0  0
 10  3  1  0  0  0  0
 10  9  2  0  0  0  0
 11 10  1  0  0  0  0
 12 11  1  0  0  0  0
 13 11  2  0  0  0  0
 13 15  1  0  0  0  0
 14 13  1  0  0  0  0
 15 16  2  0  0  0  0
 16  9  1  0  0  0  0
 18 17  2  0  0  0  0
 18 19  1  0  0  0  0
 19 21  1  0  0  0  0
 20 17  1  0  0  0  0
 22 19  1  0  0  0  0
 23 25  1  0  0  0  0
 23 26  1  0  0  0  0
 24 23  1  0  0  0  0
 26 27  1  0  0  0  0
 27 36  2  0  0  0  0
 27 28  1  0  0  0  0
 28 37  1  0  0  0  0
 28 29  2  0  0  0  0
 29 30  1  0  0  0  0
 29 38  1  0  0  0  0
 30 31  1  0  0  0  0
 31 32  2  0  0  0  0
 32 39  1  0  0  0  0
 33 32  1  0  0  0  0
 34 33  2  0  0  0  0
 35 34  1  0  0  0  0
 35 30  2  0  0  0  0
 36 35  1  0  0  0  0
 40 33  1  0  0  0  0
 41 34  1  0  0  0  0
 42 36  1  0  0  0  0
M  END
>  <minimizedAffinity>
-6.71281862

$$$$

 OpenBabel03242523353D

 42 45  0  0  0  0  0  0  0  0999 V2000
   36.2310   26.2090   39.0000 C   0  0  0  0  0  0  0  0  0  0  0  0
   37.1340   25.9920   40.0640 C   0  0  0  0  0  0  0  0  0  0  0  0
   37.7930   27.0870   40.6290 C   0  0  0  0  0  0  0  0  0  0  0  0
   37.5460   28.3390   40.1370 N   0  0  0  0  0  0  0  0  0  0  0  0
   36.6680   28.4980   39.1130 C   0  0  0  0  0  0  0  0  0  0  0  0
   36.0210   27.4430   38.5550 N   0  0  0  0  0  0  0  0  0  0  0  0
   35.6660   25.4470   38.4860 H   0  0  0  0  0  0  0  0  0  0  0  0
   37.1700   24.9410   40.2780 H   0  0  0  0  0  0  0  0  0  0  0  0
   38.4260   27.0720   42.9980 C   0  0  0  0  0  0  0  0  0  0  0  0
   38.7070   26.7480   41.6980 C   0  0  0  0  0  0  0  0  0  0  0  0
   39.8820   26.1000   41.5120 C   0  0  0  0  0  0  0  0  0  0  0  0
   40.2150   25.7910   40.5320 H   0  0  0  0  0  0  0  0  0  0  0  0
   40.7770   25.7570   42.4970 C   0  0  0  0  0  0  0  0  0  0  0  0
   41.7020   25.2400   42.3030 H   0  0  0  0  0  0  0  0  0  0  0  0
   40.4800   26.0900   43.8230 C   0  0  0  0  0  3  0  0  0  0  0  0
   39.2930   26.7500   44.0420 C   0  0  0  0  0  3  0  0  0  0  0  0
   36.1320   27.6460   44.0390 N   0  0  0  0  0  0  0  0  0  0  0  0
   37.2970   27.8110   43.4830 C   0  0  0  0  0  0  0  0  0  0  0  0
   37.2850   29.2310   43.4720 N   0  0  0  0  0  0  0  0  0  0  0  0
   35.7400   26.6970   44.2360 H   0  0  0  0  0  0  0  0  0  0  0  0
   37.1860   30.2690   43.4710 H   0  0  0  0  0  0  0  0  0  0  0  0
   38.1210   29.8820   43.3960 H   0  0  0  0  0  0  0  0  0  0  0  0
   36.4500   29.8900   38.6610 C   0  0  0  0  0  0  0  0  0  0  0  0
   35.4240   30.0390   38.2470 H   0  0  0  0  0  0  0  0  0  0  0  0
   37.1310   30.0550   37.8070 H   0  0  0  0  0  0  0  0  0  0  0  0
   36.7620   30.9860   40.0540 S   0  0  0  0  0  0  0  0  0  0  0  0
   38.1630   32.0350   39.7260 C   0  0  0  0  0  0  0  0  0  0  0  0
   38.3500   33.1160   40.5500 C   0  0  0  0  0  0  0  0  0  0  0  0
   39.4410   33.9260   40.3210 C   0  0  0  0  0  0  0  0  0  0  0  0
   40.3450   33.6800   39.2910 C   0  0  0  0  0  0  0  0  0  0  0  0
   41.3990   34.4970   39.1030 N   0  0  0  0  0  0  0  0  0  0  0  0
   42.2810   34.2600   38.1020 C   0  0  0  0  0  0  0  0  0  0  0  0
   42.0890   33.1870   37.2850 C   0  0  0  0  0  0  0  0  0  0  0  0
   41.0040   32.3450   37.4770 C   0  0  0  0  0  0  0  0  0  0  0  0
   40.0880   32.5780   38.5090 C   0  0  0  0  0  0  0  0  0  0  0  0
   39.0110   31.7300   38.6910 C   0  0  0  0  0  0  0  0  0  0  0  0
   37.7610   33.4550   41.3790 H   0  0  0  0  0  0  0  0  0  0  0  0
   39.6730   34.8150   40.9280 H   0  0  0  0  0  0  0  0  0  0  0  0
   43.1430   34.9050   37.9250 H   0  0  0  0  0  0  0  0  0  0  0  0
   42.7200   32.8980   36.4570 H   0  0  0  0  0  0  0  0  0  0  0  0
   40.8100   31.4830   36.8580 H   0  0  0  0  0  0  0  0  0  0  0  0
   38.8400   30.8730   38.0560 H   0  0  0  0  0  0  0  0  0  0  0  0
  1  2  1  0  0  0  0
  2  8  1  0  0  0  0
  2  3  2  0  0  0  0
  3 10  1  0  0  0  0
  4  3  1  0  0  0  0
  5  4  2  0  0  0  0
  6  1  2  0  0  0  0
  6  5  1  0  0  0  0
  7  1  1  0  0  0  0
  9 18  1  0  0  0  0
  9 16  1  0  0  0  0
 10  9  2  0  0  0  0
 11 10  1  0  0  0  0
 11 13  2  0  0  0  0
 12 11  1  0  0  0  0
 13 15  1  0  0  0  0
 14 13  1  0  0  0  0
 15 16  2  0  0  0  0
 17 20  1  0  0  0  0
 18 17  2  0  0  0  0
 19 18  1  0  0  0  0
 21 19  1  0  0  0  0
 22 19  1  0  0  0  0
 23  5  1  0  0  0  0
 23 26  1  0  0  0  0
 24 23  1  0  0  0  0
 25 23  1  0  0  0  0
 27 26  1  0  0  0  0
 27 28  1  0  0  0  0
 28 37  1  0  0  0  0
 29 28  2  0  0  0  0
 29 38  1  0  0  0  0
 30 29  1  0  0  0  0
 31 30  1  0  0  0  0
 32 31  2  0  0  0  0
 33 34  2  0  0  0  0
 33 32  1  0  0  0  0
 34 35  1  0  0  0  0
 35 36  1  0  0  0  0
 35 30  2  0  0  0  0
 36 27  2  0  0  0  0
 39 32  1  0  0  0  0
 40 33  1  0  0  0  0
 41 34  1  0  0  0  0
 42 36  1  0  0  0  0
M  END
>  <minimizedAffinity>
-6.63647985

$$$$

 OpenBabel03242523353D

 42 45  0  0  0  0  0  0  0  0999 V2000
   32.6160   26.8400   36.0890 C   0  0  0  0  0  0  0  0  0  0  0  0
   31.8490   28.0130   35.9130 C   0  0  0  0  0  0  0  0  0  0  0  0
   32.2410   29.1840   36.5690 C   0  0  0  0  0  0  0  0  0  0  0  0
   33.3550   29.1610   37.3630 N   0  0  0  0  0  0  0  0  0  0  0  0
   34.0590   28.0090   37.5000 C   0  0  0  0  0  0  0  0  0  0  0  0
   33.6900   26.8650   36.8690 N   0  0  0  0  0  0  0  0  0  0  0  0
   32.4140   25.8810   35.6380 H   0  0  0  0  0  0  0  0  0  0  0  0
   31.0290   27.7950   35.2570 H   0  0  0  0  0  0  0  0  0  0  0  0
   30.3800   30.6450   37.2150 C   0  0  0  0  0  0  0  0  0  0  0  0
   31.3750   30.3190   36.3320 C   0  0  0  0  0  0  0  0  0  0  0  0
   31.4700   31.1320   35.2530 C   0  0  0  0  0  0  0  0  0  0  0  0
   32.2150   30.9790   34.4870 H   0  0  0  0  0  0  0  0  0  0  0  0
   30.6710   32.2190   34.9920 C   0  0  0  0  0  0  0  0  0  0  0  0
   30.7840   32.8400   34.1180 H   0  0  0  0  0  0  0  0  0  0  0  0
   29.6590   32.5460   35.9020 C   0  0  0  0  0  3  0  0  0  0  0  0
   29.5390   31.7370   37.0070 C   0  0  0  0  0  3  0  0  0  0  0  0
   29.0460   29.2020   38.8920 N   0  0  0  0  0  0  0  0  0  0  0  0
   30.0050   29.9310   38.4010 C   0  0  0  0  0  0  0  0  0  0  0  0
   30.8790   29.8450   39.5170 N   0  0  0  0  0  0  0  0  0  0  0  0
   28.1680   29.0060   38.3590 H   0  0  0  0  0  0  0  0  0  0  0  0
   31.4480   29.7600   40.3870 H   0  0  0  0  0  0  0  0  0  0  0  0
   31.9280   30.0150   39.5300 H   0  0  0  0  0  0  0  0  0  0  0  0
   35.2590   28.0870   38.3630 C   0  0  0  0  0  0  0  0  0  0  0  0
   35.4190   27.1450   38.9410 H   0  0  0  0  0  0  0  0  0  0  0  0
   35.0510   28.8590   39.1250 H   0  0  0  0  0  0  0  0  0  0  0  0
   36.6750   28.4660   37.3190 S   0  0  0  0  0  0  0  0  0  0  0  0
   37.6200   29.8090   38.0070 C   0  0  0  0  0  0  0  0  0  0  0  0
   38.9850   29.6750   38.0310 C   0  0  0  0  0  0  0  0  0  0  0  0
   39.7310   30.7150   38.5410 C   0  0  0  0  0  0  0  0  0  0  0  0
   39.1450   31.8810   39.0260 C   0  0  0  0  0  0  0  0  0  0  0  0
   39.9120   32.8740   39.5160 N   0  0  0  0  0  0  0  0  0  0  0  0
   39.3450   34.0100   39.9880 C   0  0  0  0  0  0  0  0  0  0  0  0
   37.9890   34.1370   39.9650 C   0  0  0  0  0  0  0  0  0  0  0  0
   37.1980   33.1160   39.4610 C   0  0  0  0  0  0  0  0  0  0  0  0
   37.7710   31.9390   38.9680 C   0  0  0  0  0  0  0  0  0  0  0  0
   36.9720   30.9280   38.4670 C   0  0  0  0  0  0  0  0  0  0  0  0
   39.5980   28.8580   37.7060 H   0  0  0  0  0  0  0  0  0  0  0  0
   40.8300   30.6980   38.6020 H   0  0  0  0  0  0  0  0  0  0  0  0
   39.9410   34.8300   40.3910 H   0  0  0  0  0  0  0  0  0  0  0  0
   37.4250   34.9910   40.3110 H   0  0  0  0  0  0  0  0  0  0  0  0
   36.1210   33.1700   39.4200 H   0  0  0  0  0  0  0  0  0  0  0  0
   35.8950   31.0080   38.4370 H   0  0  0  0  0  0  0  0  0  0  0  0
  1  6  1  0  0  0  0
  2  1  2  0  0  0  0
  2  3  1  0  0  0  0
  3  4  2  0  0  0  0
  4  5  1  0  0  0  0
  5 23  1  0  0  0  0
  6  5  2  0  0  0  0
  7  1  1  0  0  0  0
  8  2  1  0  0  0  0
  9 18  1  0  0  0  0
 10  3  1  0  0  0  0
 10  9  2  0  0  0  0
 11 10  1  0  0  0  0
 12 11  1  0  0  0  0
 13 11  2  0  0  0  0
 13 15  1  0  0  0  0
 14 13  1  0  0  0  0
 15 16  2  0  0  0  0
 16  9  1  0  0  0  0
 18 17  2  0  0  0  0
 18 19  1  0  0  0  0
 19 22  1  0  0  0  0
 19 21  1  0  0  0  0
 20 17  1  0  0  0  0
 23 24  1  0  0  0  0
 23 25  1  0  0  0  0
 26 27  1  0  0  0  0
 26 23  1  0  0  0  0
 27 28  2  0  0  0  0
 27 36  1  0  0  0  0
 28 29  1  0  0  0  0
 29 38  1  0  0  0  0
 29 30  2  0  0  0  0
 30 31  1  0  0  0  0
 31 32  2  0  0  0  0
 32 39  1  0  0  0  0
 33 32  1  0  0  0  0
 33 40  1  0  0  0  0
 34 33  2  0  0  0  0
 35 30  1  0  0  0  0
 35 34  1  0  0  0  0
 36 35  2  0  0  0  0
 37 28  1  0  0  0  0
 41 34  1  0  0  0  0
 42 36  1  0  0  0  0
M  END
>  <minimizedAffinity>
-6.55894518

$$$$

 OpenBabel03242523353D

 42 45  0  0  0  0  0  0  0  0999 V2000
   40.0360   29.0570   38.6360 C   0  0  0  0  0  0  0  0  0  0  0  0
   40.9410   30.0430   39.0860 C   0  0  0  0  0  0  0  0  0  0  0  0
   40.4400   31.2100   39.6700 C   0  0  0  0  0  0  0  0  0  0  0  0
   39.0860   31.3660   39.7880 N   0  0  0  0  0  0  0  0  0  0  0  0
   38.2560   30.3900   39.3400 C   0  0  0  0  0  0  0  0  0  0  0  0
   38.7300   29.2510   38.7720 N   0  0  0  0  0  0  0  0  0  0  0  0
   40.3030   28.1200   38.1720 H   0  0  0  0  0  0  0  0  0  0  0  0
   41.9420   29.7090   38.8900 H   0  0  0  0  0  0  0  0  0  0  0  0
   41.9470   33.0860   39.2000 C   0  0  0  0  0  0  0  0  0  0  0  0
   41.4540   32.1580   40.0780 C   0  0  0  0  0  0  0  0  0  0  0  0
   41.9860   32.2080   41.3220 C   0  0  0  0  0  0  0  0  0  0  0  0
   41.6780   31.5290   42.1030 H   0  0  0  0  0  0  0  0  0  0  0  0
   42.9480   33.0920   41.7510 C   0  0  0  0  0  0  0  0  0  0  0  0
   43.3420   33.0960   42.7540 H   0  0  0  0  0  0  0  0  0  0  0  0
   43.4440   34.0390   40.8480 C   0  0  0  0  0  3  0  0  0  0  0  0
   42.9220   34.0100   39.5770 C   0  0  0  0  0  3  0  0  0  0  0  0
   40.7590   32.8290   36.9210 N   0  0  0  0  0  0  0  0  0  0  0  0
   41.6220   33.2250   37.8110 C   0  0  0  0  0  0  0  0  0  0  0  0
   42.3650   34.0870   36.9620 N   0  0  0  0  0  0  0  0  0  0  0  0
   39.9960   32.1510   37.1490 H   0  0  0  0  0  0  0  0  0  0  0  0
   42.8770   34.6740   36.2690 H   0  0  0  0  0  0  0  0  0  0  0  0
   43.0010   34.8870   37.2530 H   0  0  0  0  0  0  0  0  0  0  0  0
   36.8080   30.6390   39.5290 C   0  0  0  0  0  0  0  0  0  0  0  0
   36.1860   30.0250   38.8340 H   0  0  0  0  0  0  0  0  0  0  0  0
   36.6260   31.6860   39.2290 H   0  0  0  0  0  0  0  0  0  0  0  0
   36.4020   30.3000   41.2490 S   0  0  0  0  0  0  0  0  0  0  0  0
   37.3530   28.9230   41.8590 C   0  0  0  0  0  0  0  0  0  0  0  0
   38.4260   29.2040   42.6650 C   0  0  0  0  0  0  0  0  0  0  0  0
   39.1590   28.1480   43.1610 C   0  0  0  0  0  0  0  0  0  0  0  0
   38.8440   26.8240   42.8700 C   0  0  0  0  0  0  0  0  0  0  0  0
   39.5870   25.8210   43.3770 N   0  0  0  0  0  0  0  0  0  0  0  0
   39.2830   24.5310   43.0960 C   0  0  0  0  0  0  0  0  0  0  0  0
   38.2180   24.2580   42.2930 C   0  0  0  0  0  0  0  0  0  0  0  0
   37.4520   25.2880   41.7700 C   0  0  0  0  0  0  0  0  0  0  0  0
   37.7540   26.6250   42.0540 C   0  0  0  0  0  0  0  0  0  0  0  0
   36.9820   27.6440   41.5280 C   0  0  0  0  0  0  0  0  0  0  0  0
   38.8110   30.1510   42.9880 H   0  0  0  0  0  0  0  0  0  0  0  0
   40.0370   28.2750   43.8150 H   0  0  0  0  0  0  0  0  0  0  0  0
   39.8680   23.6990   43.4920 H   0  0  0  0  0  0  0  0  0  0  0  0
   37.8790   23.2750   41.9990 H   0  0  0  0  0  0  0  0  0  0  0  0
   36.5990   25.1230   41.1300 H   0  0  0  0  0  0  0  0  0  0  0  0
   36.1320   27.4500   40.8900 H   0  0  0  0  0  0  0  0  0  0  0  0
  1  6  2  0  0  0  0
  1  2  1  0  0  0  0
  2  3  2  0  0  0  0
  3  4  1  0  0  0  0
  3 10  1  0  0  0  0
  5 23  1  0  0  0  0
  5  4  2  0  0  0  0
  6  5  1  0  0  0  0
  7  1  1  0  0  0  0
  8  2  1  0  0  0  0
  9 16  2  0  0  0  0
  9 10  1  0  0  0  0
 10 11  2  0  0  0  0
 11 13  1  0  0  0  0
 11 12  1  0  0  0  0
 13 14  1  0  0  0  0
 15 13  2  0  0  0  0
 16 15  1  0  0  0  0
 17 20  1  0  0  0  0
 17 18  2  0  0  0  0
 18  9  1  0  0  0  0
 19 22  1  0  0  0  0
 19 18  1  0  0  0  0
 21 19  1  0  0  0  0
 23 26  1  0  0  0  0
 24 23  1  0  0  0  0
 25 23  1  0  0  0  0
 26 27  1  0  0  0  0
 27 28  1  0  0  0  0
 28 37  1  0  0  0  0
 28 29  2  0  0  0  0
 29 38  1  0  0  0  0
 30 29  1  0  0  0  0
 30 31  1  0  0  0  0
 32 31  2  0  0  0  0
 32 39  1  0  0  0  0
 33 32  1  0  0  0  0
 34 35  1  0  0  0  0
 34 33  2  0  0  0  0
 35 30  2  0  0  0  0
 36 27  2  0  0  0  0
 36 35  1  0  0  0  0
 40 33  1  0  0  0  0
 41 34  1  0  0  0  0
 42 36  1  0  0  0  0
M  END
>  <minimizedAffinity>
-6.53261614

$$$$

 OpenBabel03242523353D

 42 45  0  0  0  0  0  0  0  0999 V2000
   38.4510   34.6260   40.3720 C   0  0  0  0  0  0  0  0  0  0  0  0
   39.8150   34.6350   40.0040 C   0  0  0  0  0  0  0  0  0  0  0  0
   40.3960   33.4580   39.5240 C   0  0  0  0  0  0  0  0  0  0  0  0
   39.6290   32.3300   39.4240 N   0  0  0  0  0  0  0  0  0  0  0  0
   38.3230   32.3710   39.7890 C   0  0  0  0  0  0  0  0  0  0  0  0
   37.7450   33.5070   40.2560 N   0  0  0  0  0  0  0  0  0  0  0  0
   37.8950   35.4680   40.7540 H   0  0  0  0  0  0  0  0  0  0  0  0
   40.2110   35.6190   40.1690 H   0  0  0  0  0  0  0  0  0  0  0  0
   42.7690   33.2980   40.1220 C   0  0  0  0  0  0  0  0  0  0  0  0
   41.8000   33.5760   39.1950 C   0  0  0  0  0  0  0  0  0  0  0  0
   42.2640   33.9590   37.9810 C   0  0  0  0  0  0  0  0  0  0  0  0
   41.5980   34.2050   37.1670 H   0  0  0  0  0  0  0  0  0  0  0  0
   43.5860   34.0820   37.6260 C   0  0  0  0  0  0  0  0  0  0  0  0
   43.9100   34.3900   36.6460 H   0  0  0  0  0  0  0  0  0  0  0  0
   44.5690   33.7930   38.5790 C   0  0  0  0  0  3  0  0  0  0  0  0
   44.1270   33.4020   39.8210 C   0  0  0  0  0  3  0  0  0  0  0  0
   42.0880   31.9900   42.2430 N   0  0  0  0  0  0  0  0  0  0  0  0
   42.5760   32.9370   41.4960 C   0  0  0  0  0  0  0  0  0  0  0  0
   43.0590   33.7580   42.5480 N   0  0  0  0  0  0  0  0  0  0  0  0
   41.6180   31.1490   41.8370 H   0  0  0  0  0  0  0  0  0  0  0  0
   43.3560   34.3190   43.3760 H   0  0  0  0  0  0  0  0  0  0  0  0
   43.8040   34.5130   42.4870 H   0  0  0  0  0  0  0  0  0  0  0  0
   37.5680   31.1080   39.6270 C   0  0  0  0  0  0  0  0  0  0  0  0
   38.2170   30.2790   39.2540 H   0  0  0  0  0  0  0  0  0  0  0  0
   36.8320   31.2800   38.8220 H   0  0  0  0  0  0  0  0  0  0  0  0
   36.8210   30.6950   41.2110 S   0  0  0  0  0  0  0  0  0  0  0  0
   37.7740   29.4460   42.0480 C   0  0  0  0  0  0  0  0  0  0  0  0
   37.0910   28.3870   42.5920 C   0  0  0  0  0  0  0  0  0  0  0  0
   37.8170   27.4030   43.2250 C   0  0  0  0  0  0  0  0  0  0  0  0
   39.2050   27.4520   43.3270 C   0  0  0  0  0  0  0  0  0  0  0  0
   39.8750   26.4670   43.9540 N   0  0  0  0  0  0  0  0  0  0  0  0
   41.2250   26.5120   44.0550 C   0  0  0  0  0  0  0  0  0  0  0  0
   41.8990   27.5660   43.5160 C   0  0  0  0  0  0  0  0  0  0  0  0
   41.2100   28.5810   42.8700 C   0  0  0  0  0  0  0  0  0  0  0  0
   39.8160   28.5450   42.7570 C   0  0  0  0  0  0  0  0  0  0  0  0
   39.1400   29.5630   42.1100 C   0  0  0  0  0  0  0  0  0  0  0  0
   36.0380   28.1900   42.6100 H   0  0  0  0  0  0  0  0  0  0  0  0
   37.3570   26.5170   43.6910 H   0  0  0  0  0  0  0  0  0  0  0  0
   41.7950   25.7280   44.5580 H   0  0  0  0  0  0  0  0  0  0  0  0
   42.9690   27.7120   43.5330 H   0  0  0  0  0  0  0  0  0  0  0  0
   41.6980   29.4360   42.4270 H   0  0  0  0  0  0  0  0  0  0  0  0
   39.6540   30.4070   41.6740 H   0  0  0  0  0  0  0  0  0  0  0  0
  1  7  1  0  0  0  0
  2  8  1  0  0  0  0
  2  1  2  0  0  0  0
  3  2  1  0  0  0  0
  4  3  2  0  0  0  0
  4  5  1  0  0  0  0
  5  6  2  0  0  0  0
  6  1  1  0  0  0  0
  9 18  1  0  0  0  0
 10  3  1  0  0  0  0
 10  9  2  0  0  0  0
 11 10  1  0  0  0  0
 12 11  1  0  0  0  0
 13 11  2  0  0  0  0
 13 15  1  0  0  0  0
 14 13  1  0  0  0  0
 15 16  2  0  0  0  0
 16  9  1  0  0  0  0
 18 17  2  0  0  0  0
 18 19  1  0  0  0  0
 19 21  1  0  0  0  0
 20 17  1  0  0  0  0
 22 19  1  0  0  0  0
 23  5  1  0  0  0  0
 23 26  1  0  0  0  0
 24 23  1  0  0  0  0
 25 23  1  0  0  0  0
 26 27  1  0  0  0  0
 27 36  2  0  0  0  0
 27 28  1  0  0  0  0
 28 37  1  0  0  0  0
 28 29  2  0  0  0  0
 29 30  1  0  0  0  0
 29 38  1  0  0  0  0
 30 31  1  0  0  0  0
 31 32  2  0  0  0  0
 32 39  1  0  0  0  0
 33 40  1  0  0  0  0
 33 32  1  0  0  0  0
 34 33  2  0  0  0  0
 35 34  1  0  0  0  0
 35 30  2  0  0  0  0
 36 35  1  0  0  0  0
 41 34  1  0  0  0  0
 42 36  1  0  0  0  0
M  END
>  <minimizedAffinity>
-6.47916412

$$$$
