
 OpenBabel03252508033D

 47 50  0  0  1  0  0  0  0  0999 V2000
   42.2150   33.3030   41.0960 C   0  0  0  0  0  0  0  0  0  0  0  0
   42.8860   34.4610   41.3640 C   0  0  0  0  0  0  0  0  0  0  0  0
   42.1440   35.6570   41.3810 C   0  0  0  0  0  0  0  0  0  0  0  0
   40.7920   35.7180   41.1440 C   0  0  0  0  0  0  0  0  0  0  0  0
   40.1290   34.5510   40.8770 C   0  0  0  0  0  0  0  0  0  0  0  0
   40.8390   33.3880   40.8580 C   0  0  0  0  0  0  0  0  0  0  0  0
   42.5900   36.6290   41.5750 H   0  0  0  0  0  0  0  0  0  0  0  0
   40.2380   36.6250   41.1580 H   0  0  0  0  0  0  0  0  0  0  0  0
   39.0740   34.5050   40.6810 H   0  0  0  0  0  0  0  0  0  0  0  0
   40.2990   32.4530   40.6410 H   0  0  0  0  0  0  0  0  0  0  0  0
   42.9560   31.7900   41.1420 S   0  0  0  0  0  0  0  0  0  0  0  0
   41.9600   30.9630   40.2680 O   0  0  0  0  0  0  0  0  0  0  0  0
   42.9490   31.1810   42.4910 O   0  0  0  0  0  0  0  0  0  0  0  0
   44.2930   31.7160   38.8920 C   0  0  0  0  0  0  0  0  0  0  0  0
   44.1940   31.1520   40.1950 C   0  0  0  0  0  0  0  0  0  0  0  0
   45.2160   30.2180   40.4330 C   0  0  0  0  0  0  0  0  0  0  0  0
   45.1170   29.8390   41.4690 H   0  0  0  0  0  0  0  0  0  0  0  0
   46.2540   29.7790   39.6400 C   0  0  0  0  0  0  0  0  0  0  0  0
   46.9090   29.0460   40.0620 H   0  0  0  0  0  0  0  0  0  0  0  0
   46.2060   30.4110   38.4380 C   0  0  0  0  0  3  0  0  0  0  0  0
   45.3030   31.3330   38.0360 C   0  0  0  0  0  3  0  0  0  0  0  0
   43.7720   33.9160   37.9800 N   0  0  0  0  0  0  0  0  0  0  0  0
   43.4190   32.6900   38.1960 C   0  0  0  0  0  0  0  0  0  0  0  0
   42.1310   32.4870   37.6380 N   0  0  0  0  0  0  0  0  0  0  0  0
   43.0700   34.4860   37.4600 H   0  0  0  0  0  0  0  0  0  0  0  0
   41.8820   32.7230   36.6520 H   0  0  0  0  0  0  0  0  0  0  0  0
   41.1300   32.2250   37.5390 H   0  0  0  0  0  0  0  0  0  0  0  0
   44.3120   34.5080   41.6260 C   0  0  0  0  0  0  0  0  0  0  0  0
   45.2070   34.5180   40.7230 O   0  0  0  0  0  0  0  0  0  0  0  0
   44.6300   34.5430   43.0280 C   0  0  0  0  0  0  0  0  0  0  0  0
   44.3150   35.7690   43.7090 C   0  0  0  0  0  0  0  0  0  0  0  0
   44.6040   35.8230   45.0630 C   0  0  0  0  0  0  0  0  0  0  0  0
   45.1610   34.7300   45.6530 N   0  0  0  0  0  0  0  0  0  0  0  0
   45.4430   33.5830   44.9550 C   0  0  0  0  0  0  0  0  0  0  0  0
   45.1750   33.5300   43.6970 N   0  0  0  0  0  0  0  0  0  0  0  0
   43.8860   36.6560   43.3270 H   0  0  0  0  0  0  0  0  0  0  0  0
   44.4180   36.6810   45.6900 H   0  0  0  0  0  0  0  0  0  0  0  0
   46.0400   32.4450   45.6840 C   0  0  1  0  0  0  0  0  0  0  0  0
   46.9830   32.7160   46.8310 C   0  0  0  0  0  0  0  0  0  0  0  0
   45.5580   32.2850   47.0820 C   0  0  1  0  0  0  0  0  0  0  0  0
   46.2890   31.5500   45.1170 H   0  0  0  0  0  0  0  0  0  0  0  0
   47.8030   31.9890   47.0400 H   0  0  0  0  0  0  0  0  0  0  0  0
   47.2890   33.7650   47.0540 H   0  0  0  0  0  0  0  0  0  0  0  0
   45.3670   31.2480   47.4160 H   0  0  0  0  0  0  0  0  0  0  0  0
   44.7540   33.3150   47.6990 N   0  0  0  0  0  0  0  0  0  0  0  0
   43.8770   33.5210   47.2140 H   0  0  0  0  0  0  0  0  0  0  0  0
   45.2770   34.1340   48.0430 H   0  0  0  0  0  0  0  0  0  0  0  0
  1 11  1  0  0  0  0
  1  2  1  0  0  0  0
  2  3  2  0  0  0  0
  2 28  1  0  0  0  0
  3  7  1  0  0  0  0
  4  8  1  0  0  0  0
  4  3  1  0  0  0  0
  5  4  2  0  0  0  0
  6  5  1  0  0  0  0
  6  1  2  0  0  0  0
  9  5  1  0  0  0  0
 10  6  1  0  0  0  0
 11 13  2  0  0  0  0
 12 11  2  0  0  0  0
 14 15  1  0  0  0  0
 15 16  2  0  0  0  0
 15 11  1  0  0  0  0
 16 17  1  0  0  0  0
 18 19  1  0  0  0  0
 18 16  1  0  0  0  0
 20 18  2  0  0  0  0
 21 20  1  0  0  0  0
 21 14  2  0  0  0  0
 22 23  2  0  0  0  0
 23 14  1  0  0  0  0
 24 23  1  0  0  0  0
 25 22  1  0  0  0  0
 26 24  1  0  0  0  0
 27 24  1  0  0  0  0
 28 30  1  0  0  0  0
 29 28  2  0  0  0  0
 30 35  2  0  0  0  0
 30 31  1  0  0  0  0
 31 32  2  0  0  0  0
 32 33  1  0  0  0  0
 32 37  1  0  0  0  0
 34 33  2  0  0  0  0
 34 38  1  0  0  0  0
 35 34  1  0  0  0  0
 36 31  1  0  0  0  0
 38 41  1  6  0  0  0
 38 39  1  0  0  0  0
 38 40  1  0  0  0  0
 39 42  1  0  0  0  0
 39 43  1  0  0  0  0
 39 40  1  0  0  0  0
 40 44  1  1  0  0  0
 40 45  1  0  0  0  0
 45 47  1  0  0  0  0
 46 45  1  0  0  0  0
M  END
>  <minimizedAffinity>
-6.32608461

>  <minimizedRMSD>
1.29962802

$$$$
