
 OpenBabel03242516223D

 34 36  0  0  0  0  0  0  0  0999 V2000
   45.9920   32.7420   46.9020 C   0  0  0  0  0  0  0  0  0  0  0  0
   47.0980   31.9240   46.9060 C   0  0  0  0  0  0  0  0  0  0  0  0
   47.3350   31.0450   47.9400 C   0  0  0  0  0  0  0  0  0  0  0  0
   46.4640   30.9570   49.0150 C   0  0  0  0  0  0  0  0  0  0  0  0
   45.3560   31.7670   49.0250 C   0  0  0  0  0  0  0  0  0  0  0  0
   45.1370   32.6400   47.9780 C   0  0  0  0  0  0  0  0  0  0  0  0
   47.7770   31.9980   46.0590 H   0  0  0  0  0  0  0  0  0  0  0  0
   46.6450   30.2650   49.8360 H   0  0  0  0  0  0  0  0  0  0  0  0
   44.6380   31.7390   49.8450 H   0  0  0  0  0  0  0  0  0  0  0  0
   44.2640   33.2850   47.9760 H   0  0  0  0  0  0  0  0  0  0  0  0
   44.5670   35.5310   45.0110 C   0  0  0  0  0  0  0  0  0  0  0  0
   45.2210   35.4660   43.7760 C   0  0  0  0  0  0  0  0  0  0  0  0
   46.1690   34.4440   43.5910 C   0  0  0  0  0  0  0  0  0  0  0  0
   46.4160   33.5620   44.6080 N   0  0  0  0  0  0  0  0  0  0  0  0
   45.7440   33.6740   45.7980 C   0  0  0  0  0  0  0  0  0  0  0  0
   44.8230   34.6530   46.0020 N   0  0  0  0  0  0  0  0  0  0  0  0
   43.8460   36.3340   45.1040 H   0  0  0  0  0  0  0  0  0  0  0  0
   45.0180   36.1720   42.9700 H   0  0  0  0  0  0  0  0  0  0  0  0
   46.6970   34.3610   42.6490 H   0  0  0  0  0  0  0  0  0  0  0  0
   48.7960   30.0110   47.8750 S   0  0  0  0  0  0  0  0  0  0  0  0
   50.2150   28.9070   49.8270 C   0  0  0  0  0  0  0  0  0  0  0  0
   49.7260   30.1070   49.3880 C   0  0  0  0  0  0  0  0  0  0  0  0
   49.9950   31.2200   50.1360 C   0  0  0  0  0  0  0  0  0  0  0  0
   49.5760   32.1520   49.7310 H   0  0  0  0  0  0  0  0  0  0  0  0
   50.7320   31.1600   51.2960 C   0  0  0  0  0  0  0  0  0  0  0  0
   50.9110   32.0870   51.8460 H   0  0  0  0  0  0  0  0  0  0  0  0
   51.2300   29.9530   51.7480 C   0  0  0  0  0  3  0  0  0  0  0  0
   50.9620   28.8160   50.9940 C   0  0  0  0  0  3  0  0  0  0  0  0
   49.0470   26.7700   49.1330 N   0  0  0  0  0  0  0  0  0  0  0  0
   50.0170   27.6220   49.1440 C   0  0  0  0  0  0  0  0  0  0  0  0
   51.1350   27.2700   48.3380 N   0  0  0  0  0  0  0  0  0  0  0  0
   48.1660   26.8810   49.6650 H   0  0  0  0  0  0  0  0  0  0  0  0
   51.8010   26.5760   48.7430 H   0  0  0  0  0  0  0  0  0  0  0  0
   51.9540   27.0130   47.7450 H   0  0  0  0  0  0  0  0  0  0  0  0
  1  2  2  0  0  0  0
  1  6  1  0  0  0  0
  2  3  1  0  0  0  0
  3  4  2  0  0  0  0
  4  5  1  0  0  0  0
  4  8  1  0  0  0  0
  5  9  1  0  0  0  0
  6  5  2  0  0  0  0
  7  2  1  0  0  0  0
 10  6  1  0  0  0  0
 11 17  1  0  0  0  0
 11 16  1  0  0  0  0
 12 11  2  0  0  0  0
 13 12  1  0  0  0  0
 13 14  2  0  0  0  0
 14 15  1  0  0  0  0
 15 16  2  0  0  0  0
 15  1  1  0  0  0  0
 18 12  1  0  0  0  0
 19 13  1  0  0  0  0
 20  3  1  0  0  0  0
 20 22  1  0  0  0  0
 21 28  1  0  0  0  0
 22 21  2  0  0  0  0
 22 23  1  0  0  0  0
 23 25  2  0  0  0  0
 24 23  1  0  0  0  0
 25 27  1  0  0  0  0
 25 26  1  0  0  0  0
 28 27  2  0  0  0  0
 29 30  2  0  0  0  0
 29 32  1  0  0  0  0
 30 21  1  0  0  0  0
 31 33  1  0  0  0  0
 31 30  1  0  0  0  0
 34 31  1  0  0  0  0
M  END
>  <minimizedAffinity>
-5.9980793

>  <minimizedRMSD>
1.51197708

$$$$
