
 OpenBabel03252509263D

 35 37  0  0  1  0  0  0  0  0999 V2000
   46.8160   35.1710   41.8650 C   0  0  1  0  0  0  0  0  0  0  0  0
   48.3590   35.3590   41.8790 C   0  0  0  0  0  0  0  0  0  0  0  0
   47.5710   34.2430   41.1310 C   0  0  2  0  0  0  0  0  0  0  0  0
   46.2740   36.0230   41.4060 H   0  0  0  0  0  0  0  0  0  0  0  0
   48.7130   36.1930   41.2520 H   0  0  0  0  0  0  0  0  0  0  0  0
   48.9210   35.0390   42.7600 H   0  0  0  0  0  0  0  0  0  0  0  0
   47.7710   33.2090   41.5450 H   0  0  0  0  0  0  0  0  0  0  0  0
   44.8260   35.0620   45.0410 C   0  0  0  0  0  0  0  0  0  0  0  0
   45.2720   35.5270   43.7550 C   0  0  0  0  0  0  0  0  0  0  0  0
   46.3110   34.8210   43.2450 C   0  0  0  0  0  0  0  0  0  0  0  0
   46.8910   33.7530   43.9030 N   0  0  0  0  0  0  0  0  0  0  0  0
   46.4350   33.3570   45.1070 C   0  0  0  0  0  0  0  0  0  0  0  0
   45.3960   34.0150   45.6780 N   0  0  0  0  0  0  0  0  0  0  0  0
   43.9960   35.6020   45.4780 H   0  0  0  0  0  0  0  0  0  0  0  0
   46.9710   32.5190   45.5080 H   0  0  0  0  0  0  0  0  0  0  0  0
   44.7000   36.6320   43.1060 N   0  0  0  0  0  0  0  0  0  0  0  0
   43.9970   36.0440   42.6220 H   0  0  0  0  0  0  0  0  0  0  0  0
   45.3690   37.3300   43.5440 H   0  0  0  0  0  0  0  0  0  0  0  0
   47.5560   34.2480   39.6200 C   0  0  0  0  0  0  0  0  0  0  0  0
   48.2990   35.0190   39.3190 H   0  0  0  0  0  0  0  0  0  0  0  0
   46.5290   34.5710   39.3200 H   0  0  0  0  0  0  0  0  0  0  0  0
   46.9230   32.4010   38.1140 C   0  0  0  0  0  0  0  0  0  0  0  0
   47.8200   32.9400   39.0120 C   0  0  0  0  0  0  0  0  0  0  0  0
   48.9680   32.2500   39.3410 C   0  0  0  0  0  0  0  0  0  0  0  0
   49.6490   32.7240   40.0640 H   0  0  0  0  0  0  0  0  0  0  0  0
   49.2120   31.0250   38.7680 C   0  0  0  0  0  0  0  0  0  0  0  0
   50.1430   30.5500   39.0840 H   0  0  0  0  0  0  0  0  0  0  0  0
   48.3340   30.4610   37.8660 C   0  0  0  0  0  3  0  0  0  0  0  0
   47.2160   31.1700   37.5660 C   0  0  0  0  0  3  0  0  0  0  0  0
   45.3740   33.7850   36.7030 N   0  0  0  0  0  0  0  0  0  0  0  0
   45.6860   33.0230   37.6890 C   0  0  0  0  0  0  0  0  0  0  0  0
   44.4870   32.8270   38.4370 N   0  0  0  0  0  0  0  0  0  0  0  0
   44.4080   34.1380   36.5630 H   0  0  0  0  0  0  0  0  0  0  0  0
   44.2770   33.6140   39.1060 H   0  0  0  0  0  0  0  0  0  0  0  0
   43.9050   31.9720   38.3040 H   0  0  0  0  0  0  0  0  0  0  0  0
  1  4  1  6  0  0  0
  1  2  1  0  0  0  0
  1 10  1  0  0  0  0
  2  6  1  0  0  0  0
  3  7  1  1  0  0  0
  3  1  1  0  0  0  0
  3  2  1  0  0  0  0
  5  2  1  0  0  0  0
  8 14  1  0  0  0  0
  8 13  1  0  0  0  0
  9  8  2  0  0  0  0
 10  9  1  0  0  0  0
 10 11  2  0  0  0  0
 11 12  1  0  0  0  0
 12 15  1  0  0  0  0
 12 13  2  0  0  0  0
 16 18  1  0  0  0  0
 16  9  1  0  0  0  0
 17 16  1  0  0  0  0
 19  3  1  0  0  0  0
 20 19  1  0  0  0  0
 21 19  1  0  0  0  0
 22 23  1  0  0  0  0
 23 24  2  0  0  0  0
 23 19  1  0  0  0  0
 24 25  1  0  0  0  0
 26 27  1  0  0  0  0
 26 24  1  0  0  0  0
 28 26  2  0  0  0  0
 29 28  1  0  0  0  0
 29 22  2  0  0  0  0
 30 31  2  0  0  0  0
 31 22  1  0  0  0  0
 31 32  1  0  0  0  0
 32 34  1  0  0  0  0
 33 30  1  0  0  0  0
 35 32  1  0  0  0  0
M  END
>  <minimizedAffinity>
-5.15043592

>  <minimizedRMSD>
2.41922259

$$$$
