
 OpenBabel03252508033D

 47 50  0  0  1  0  0  0  0  0999 V2000
   42.0980   33.2930   41.0090 C   0  0  0  0  0  0  0  0  0  0  0  0
   42.8230   34.4060   41.3250 C   0  0  0  0  0  0  0  0  0  0  0  0
   42.1330   35.6300   41.4180 C   0  0  0  0  0  0  0  0  0  0  0  0
   40.7820   35.7600   41.2090 C   0  0  0  0  0  0  0  0  0  0  0  0
   40.0650   34.6380   40.8930 C   0  0  0  0  0  0  0  0  0  0  0  0
   40.7230   33.4480   40.8000 C   0  0  0  0  0  0  0  0  0  0  0  0
   42.6240   36.5700   41.6550 H   0  0  0  0  0  0  0  0  0  0  0  0
   40.2680   36.6870   41.2810 H   0  0  0  0  0  0  0  0  0  0  0  0
   39.0060   34.6470   40.7140 H   0  0  0  0  0  0  0  0  0  0  0  0
   40.1400   32.5500   40.5450 H   0  0  0  0  0  0  0  0  0  0  0  0
   42.7730   31.7500   40.9620 S   0  0  0  0  0  0  0  0  0  0  0  0
   41.5280   30.9110   40.5320 O   0  0  0  0  0  0  0  0  0  0  0  0
   43.1830   31.2540   42.2950 O   0  0  0  0  0  0  0  0  0  0  0  0
   44.9020   30.4750   40.1260 C   0  0  0  0  0  0  0  0  0  0  0  0
   43.6240   30.9680   39.7370 C   0  0  0  0  0  0  0  0  0  0  0  0
   43.3210   30.6230   38.4090 C   0  0  0  0  0  0  0  0  0  0  0  0
   42.3040   30.9940   38.1690 H   0  0  0  0  0  0  0  0  0  0  0  0
   44.0300   29.9160   37.4630 C   0  0  0  0  0  0  0  0  0  0  0  0
   43.5700   29.7900   36.5060 H   0  0  0  0  0  0  0  0  0  0  0  0
   45.2200   29.5210   37.9930 C   0  0  0  0  0  3  0  0  0  0  0  0
   45.6770   29.7570   39.2410 C   0  0  0  0  0  3  0  0  0  0  0  0
   45.6190   29.7520   42.3400 N   0  0  0  0  0  0  0  0  0  0  0  0
   45.6500   30.6340   41.3960 C   0  0  0  0  0  0  0  0  0  0  0  0
   46.5110   31.6900   41.7920 N   0  0  0  0  0  0  0  0  0  0  0  0
   46.2090   29.9820   43.1690 H   0  0  0  0  0  0  0  0  0  0  0  0
   47.4900   31.5460   42.1270 H   0  0  0  0  0  0  0  0  0  0  0  0
   46.8710   32.6430   42.0030 H   0  0  0  0  0  0  0  0  0  0  0  0
   44.2530   34.3780   41.5630 C   0  0  0  0  0  0  0  0  0  0  0  0
   45.1310   34.2790   40.6480 O   0  0  0  0  0  0  0  0  0  0  0  0
   44.5990   34.4760   42.9550 C   0  0  0  0  0  0  0  0  0  0  0  0
   44.3190   35.7390   43.5810 C   0  0  0  0  0  0  0  0  0  0  0  0
   44.6340   35.8540   44.9250 C   0  0  0  0  0  0  0  0  0  0  0  0
   45.1820   34.7810   45.5590 N   0  0  0  0  0  0  0  0  0  0  0  0
   45.4300   33.5960   44.9120 C   0  0  0  0  0  0  0  0  0  0  0  0
   45.1380   33.4860   43.6640 N   0  0  0  0  0  0  0  0  0  0  0  0
   43.8990   36.6150   43.1630 H   0  0  0  0  0  0  0  0  0  0  0  0
   44.4760   36.7450   45.5120 H   0  0  0  0  0  0  0  0  0  0  0  0
   46.0200   32.4840   45.6860 C   0  0  1  0  0  0  0  0  0  0  0  0
   46.9550   32.7940   46.8290 C   0  0  0  0  0  0  0  0  0  0  0  0
   45.5280   32.3750   47.0860 C   0  0  1  0  0  0  0  0  0  0  0  0
   46.2710   31.5690   45.1540 H   0  0  0  0  0  0  0  0  0  0  0  0
   47.7730   32.0740   47.0700 H   0  0  0  0  0  0  0  0  0  0  0  0
   47.2620   33.8500   47.0160 H   0  0  0  0  0  0  0  0  0  0  0  0
   45.3320   31.3520   47.4560 H   0  0  0  0  0  0  0  0  0  0  0  0
   44.7220   33.4280   47.6600 N   0  0  0  0  0  0  0  0  0  0  0  0
   43.8490   33.6180   47.1620 H   0  0  0  0  0  0  0  0  0  0  0  0
   45.2450   34.2590   47.9780 H   0  0  0  0  0  0  0  0  0  0  0  0
  1  2  1  0  0  0  0
  2  3  2  0  0  0  0
  2 28  1  0  0  0  0
  3  7  1  0  0  0  0
  4  8  1  0  0  0  0
  4  3  1  0  0  0  0
  5  4  2  0  0  0  0
  6  5  1  0  0  0  0
  6  1  2  0  0  0  0
  9  5  1  0  0  0  0
 10  6  1  0  0  0  0
 11  1  1  0  0  0  0
 11 13  2  0  0  0  0
 12 11  2  0  0  0  0
 14 23  1  0  0  0  0
 15 14  1  0  0  0  0
 15 11  1  0  0  0  0
 16 15  2  0  0  0  0
 17 16  1  0  0  0  0
 18 20  2  0  0  0  0
 18 16  1  0  0  0  0
 19 18  1  0  0  0  0
 20 21  1  0  0  0  0
 21 14  2  0  0  0  0
 22 25  1  0  0  0  0
 23 24  1  0  0  0  0
 23 22  2  0  0  0  0
 24 27  1  0  0  0  0
 24 26  1  0  0  0  0
 28 30  1  0  0  0  0
 29 28  2  0  0  0  0
 30 31  2  0  0  0  0
 30 35  1  0  0  0  0
 31 32  1  0  0  0  0
 32 37  1  0  0  0  0
 32 33  2  0  0  0  0
 34 33  1  0  0  0  0
 34 38  1  0  0  0  0
 35 34  2  0  0  0  0
 36 31  1  0  0  0  0
 38 41  1  6  0  0  0
 38 39  1  0  0  0  0
 38 40  1  0  0  0  0
 39 43  1  0  0  0  0
 39 42  1  0  0  0  0
 39 40  1  0  0  0  0
 40 44  1  1  0  0  0
 40 45  1  0  0  0  0
 45 47  1  0  0  0  0
 46 45  1  0  0  0  0
M  END
>  <minimizedAffinity>
-5.59622812

>  <minimizedRMSD>
2.06809592

$$$$
