
 OpenBabel03242523343D

 42 45  0  0  0  0  0  0  0  0999 V2000
   44.6000   35.8940   44.5950 C   0  0  0  0  0  0  0  0  0  0  0  0
   45.3950   35.5450   43.4810 C   0  0  0  0  0  0  0  0  0  0  0  0
   46.2100   34.4120   43.5560 C   0  0  0  0  0  0  0  0  0  0  0  0
   46.2160   33.6730   44.7070 N   0  0  0  0  0  0  0  0  0  0  0  0
   45.4340   34.0480   45.7510 C   0  0  0  0  0  0  0  0  0  0  0  0
   44.6370   35.1460   45.6910 N   0  0  0  0  0  0  0  0  0  0  0  0
   43.9350   36.7420   44.6540 H   0  0  0  0  0  0  0  0  0  0  0  0
   45.2310   36.2640   42.7010 H   0  0  0  0  0  0  0  0  0  0  0  0
   47.1940   32.8840   41.9090 C   0  0  0  0  0  0  0  0  0  0  0  0
   46.9930   34.1590   42.3660 C   0  0  0  0  0  0  0  0  0  0  0  0
   47.5770   35.1300   41.6240 C   0  0  0  0  0  0  0  0  0  0  0  0
   47.4910   36.1750   41.8800 H   0  0  0  0  0  0  0  0  0  0  0  0
   48.3250   34.9340   40.4880 C   0  0  0  0  0  0  0  0  0  0  0  0
   48.7710   35.7390   39.9270 H   0  0  0  0  0  0  0  0  0  0  0  0
   48.5220   33.6270   40.0280 C   0  0  0  0  0  3  0  0  0  0  0  0
   47.9410   32.6210   40.7630 C   0  0  0  0  0  3  0  0  0  0  0  0
   45.7030   30.9080   42.6520 N   0  0  0  0  0  0  0  0  0  0  0  0
   46.7550   31.6640   42.5230 C   0  0  0  0  0  0  0  0  0  0  0  0
   47.6540   30.8400   43.2490 N   0  0  0  0  0  0  0  0  0  0  0  0
   44.7780   31.1680   42.2400 H   0  0  0  0  0  0  0  0  0  0  0  0
   48.2430   30.1960   43.8200 H   0  0  0  0  0  0  0  0  0  0  0  0
   48.7160   30.8420   43.2000 H   0  0  0  0  0  0  0  0  0  0  0  0
   45.4920   33.1760   46.9460 C   0  0  0  0  0  0  0  0  0  0  0  0
   44.5050   33.1090   47.4630 H   0  0  0  0  0  0  0  0  0  0  0  0
   46.1610   33.6750   47.6690 H   0  0  0  0  0  0  0  0  0  0  0  0
   46.0730   31.5540   46.4260 S   0  0  0  0  0  0  0  0  0  0  0  0
   47.3590   30.9710   47.5100 C   0  0  0  0  0  0  0  0  0  0  0  0
   47.8670   31.8580   48.4250 C   0  0  0  0  0  0  0  0  0  0  0  0
   48.8480   31.4160   49.2840 C   0  0  0  0  0  0  0  0  0  0  0  0
   49.3320   30.1100   49.2490 C   0  0  0  0  0  0  0  0  0  0  0  0
   50.2920   29.7190   50.1090 N   0  0  0  0  0  0  0  0  0  0  0  0
   50.7650   28.4500   50.0780 C   0  0  0  0  0  0  0  0  0  0  0  0
   50.2600   27.5720   49.1660 C   0  0  0  0  0  0  0  0  0  0  0  0
   49.2720   27.9740   48.2810 C   0  0  0  0  0  0  0  0  0  0  0  0
   48.7730   29.2820   48.3040 C   0  0  0  0  0  0  0  0  0  0  0  0
   47.7860   29.6700   47.4170 C   0  0  0  0  0  0  0  0  0  0  0  0
   47.6180   32.8880   48.5900 H   0  0  0  0  0  0  0  0  0  0  0  0
   49.3160   32.0550   50.0500 H   0  0  0  0  0  0  0  0  0  0  0  0
   51.5430   28.1050   50.7620 H   0  0  0  0  0  0  0  0  0  0  0  0
   50.5560   26.5410   49.0460 H   0  0  0  0  0  0  0  0  0  0  0  0
   48.8390   27.3170   47.5420 H   0  0  0  0  0  0  0  0  0  0  0  0
   47.3710   28.9910   46.6870 H   0  0  0  0  0  0  0  0  0  0  0  0
  1  7  1  0  0  0  0
  1  6  1  0  0  0  0
  2  3  1  0  0  0  0
  2  1  2  0  0  0  0
  3  4  2  0  0  0  0
  4  5  1  0  0  0  0
  5 23  1  0  0  0  0
  6  5  2  0  0  0  0
  8  2  1  0  0  0  0
  9 10  1  0  0  0  0
  9 18  1  0  0  0  0
 10  3  1  0  0  0  0
 11 12  1  0  0  0  0
 11 10  2  0  0  0  0
 13 11  1  0  0  0  0
 14 13  1  0  0  0  0
 15 13  2  0  0  0  0
 15 16  1  0  0  0  0
 16  9  2  0  0  0  0
 18 17  2  0  0  0  0
 18 19  1  0  0  0  0
 19 21  1  0  0  0  0
 20 17  1  0  0  0  0
 22 19  1  0  0  0  0
 23 24  1  0  0  0  0
 23 25  1  0  0  0  0
 26 23  1  0  0  0  0
 26 27  1  0  0  0  0
 27 28  1  0  0  0  0
 28 37  1  0  0  0  0
 28 29  2  0  0  0  0
 29 38  1  0  0  0  0
 30 29  1  0  0  0  0
 30 31  1  0  0  0  0
 32 31  2  0  0  0  0
 32 39  1  0  0  0  0
 33 32  1  0  0  0  0
 34 35  1  0  0  0  0
 34 33  2  0  0  0  0
 35 30  2  0  0  0  0
 36 27  2  0  0  0  0
 36 35  1  0  0  0  0
 40 33  1  0  0  0  0
 41 34  1  0  0  0  0
 42 36  1  0  0  0  0
M  END
>  <minimizedAffinity>
-6.04599428

>  <minimizedRMSD>
0.808090031

$$$$
