
 OpenBabel03252509263D

 35 37  0  0  1  0  0  0  0  0999 V2000
   46.5060   34.9750   41.9670 C   0  0  1  0  0  0  0  0  0  0  0  0
   48.0240   35.3100   41.9380 C   0  0  0  0  0  0  0  0  0  0  0  0
   47.3530   34.0150   41.3930 C   0  0  2  0  0  0  0  0  0  0  0  0
   45.8900   35.6830   41.3770 H   0  0  0  0  0  0  0  0  0  0  0  0
   48.3020   36.0570   41.1780 H   0  0  0  0  0  0  0  0  0  0  0  0
   48.6070   35.1960   42.8560 H   0  0  0  0  0  0  0  0  0  0  0  0
   47.6470   33.0880   41.9710 H   0  0  0  0  0  0  0  0  0  0  0  0
   44.6590   35.3910   45.2030 C   0  0  0  0  0  0  0  0  0  0  0  0
   45.0990   35.6820   43.8660 C   0  0  0  0  0  0  0  0  0  0  0  0
   46.0260   34.8140   43.3900 C   0  0  0  0  0  0  0  0  0  0  0  0
   46.5050   33.7460   44.1260 N   0  0  0  0  0  0  0  0  0  0  0  0
   46.0590   33.5180   45.3760 C   0  0  0  0  0  0  0  0  0  0  0  0
   45.1310   34.3450   45.9170 N   0  0  0  0  0  0  0  0  0  0  0  0
   43.9190   36.0640   45.6160 H   0  0  0  0  0  0  0  0  0  0  0  0
   46.5110   32.6600   45.8360 H   0  0  0  0  0  0  0  0  0  0  0  0
   44.6330   36.7850   43.1350 N   0  0  0  0  0  0  0  0  0  0  0  0
   43.8450   36.2450   42.7320 H   0  0  0  0  0  0  0  0  0  0  0  0
   45.3980   37.4340   43.4830 H   0  0  0  0  0  0  0  0  0  0  0  0
   47.3510   33.7660   39.9020 C   0  0  0  0  0  0  0  0  0  0  0  0
   47.3220   34.7750   39.4340 H   0  0  0  0  0  0  0  0  0  0  0  0
   46.4030   33.2160   39.6800 H   0  0  0  0  0  0  0  0  0  0  0  0
   48.7590   32.8860   38.0790 C   0  0  0  0  0  0  0  0  0  0  0  0
   48.4740   32.9520   39.4260 C   0  0  0  0  0  0  0  0  0  0  0  0
   49.2470   32.2550   40.3310 C   0  0  0  0  0  0  0  0  0  0  0  0
   48.9770   32.3410   41.3940 H   0  0  0  0  0  0  0  0  0  0  0  0
   50.3000   31.4950   39.8810 C   0  0  0  0  0  0  0  0  0  0  0  0
   50.8580   30.9770   40.6650 H   0  0  0  0  0  0  0  0  0  0  0  0
   50.6090   31.4090   38.5390 C   0  0  0  0  0  3  0  0  0  0  0  0
   49.8260   32.1100   37.6790 C   0  0  0  0  0  3  0  0  0  0  0  0
   47.7900   34.8060   36.7810 N   0  0  0  0  0  0  0  0  0  0  0  0
   48.0250   33.5670   37.0320 C   0  0  0  0  0  0  0  0  0  0  0  0
   47.3800   32.8210   36.0020 N   0  0  0  0  0  0  0  0  0  0  0  0
   47.2290   35.1050   35.9610 H   0  0  0  0  0  0  0  0  0  0  0  0
   46.3520   32.6670   36.1770 H   0  0  0  0  0  0  0  0  0  0  0  0
   47.9130   32.4790   35.1730 H   0  0  0  0  0  0  0  0  0  0  0  0
  1  4  1  6  0  0  0
  1 10  1  0  0  0  0
  2  1  1  0  0  0  0
  2  6  1  0  0  0  0
  3  2  1  0  0  0  0
  3  1  1  0  0  0  0
  3  7  1  1  0  0  0
  5  2  1  0  0  0  0
  8 14  1  0  0  0  0
  8 13  1  0  0  0  0
  9  8  2  0  0  0  0
 10  9  1  0  0  0  0
 10 11  2  0  0  0  0
 11 12  1  0  0  0  0
 12 15  1  0  0  0  0
 12 13  2  0  0  0  0
 16 18  1  0  0  0  0
 16  9  1  0  0  0  0
 17 16  1  0  0  0  0
 19  3  1  0  0  0  0
 20 19  1  0  0  0  0
 21 19  1  0  0  0  0
 22 23  1  0  0  0  0
 23 19  1  0  0  0  0
 23 24  2  0  0  0  0
 24 25  1  0  0  0  0
 26 24  1  0  0  0  0
 26 27  1  0  0  0  0
 28 26  2  0  0  0  0
 29 22  2  0  0  0  0
 29 28  1  0  0  0  0
 30 31  2  0  0  0  0
 31 22  1  0  0  0  0
 32 34  1  0  0  0  0
 32 31  1  0  0  0  0
 33 30  1  0  0  0  0
 35 32  1  0  0  0  0
M  END
>  <minimizedAffinity>
-5.73923731

>  <minimizedRMSD>
0.90184164

$$$$
