
 OpenBabel03252508033D

 47 50  0  0  1  0  0  0  0  0999 V2000
   42.0170   33.3100   41.1110 C   0  0  0  0  0  0  0  0  0  0  0  0
   42.7850   34.4210   41.3110 C   0  0  0  0  0  0  0  0  0  0  0  0
   42.1420   35.6730   41.2940 C   0  0  0  0  0  0  0  0  0  0  0  0
   40.7930   35.8330   41.0870 C   0  0  0  0  0  0  0  0  0  0  0  0
   40.0320   34.7130   40.8890 C   0  0  0  0  0  0  0  0  0  0  0  0
   40.6460   33.4970   40.9030 C   0  0  0  0  0  0  0  0  0  0  0  0
   42.6700   36.6120   41.4340 H   0  0  0  0  0  0  0  0  0  0  0  0
   40.3150   36.7820   41.0760 H   0  0  0  0  0  0  0  0  0  0  0  0
   38.9720   34.7450   40.7210 H   0  0  0  0  0  0  0  0  0  0  0  0
   40.0270   32.6000   40.7420 H   0  0  0  0  0  0  0  0  0  0  0  0
   42.6350   31.7460   41.2050 S   0  0  0  0  0  0  0  0  0  0  0  0
   41.4620   30.9410   40.5610 O   0  0  0  0  0  0  0  0  0  0  0  0
   42.7750   31.2590   42.5960 O   0  0  0  0  0  0  0  0  0  0  0  0
   43.9460   29.5760   40.5530 C   0  0  0  0  0  0  0  0  0  0  0  0
   43.6690   30.9170   40.1660 C   0  0  0  0  0  0  0  0  0  0  0  0
   44.2770   31.2360   38.9390 C   0  0  0  0  0  0  0  0  0  0  0  0
   44.0000   32.2720   38.6650 H   0  0  0  0  0  0  0  0  0  0  0  0
   45.0640   30.4910   38.0890 C   0  0  0  0  0  0  0  0  0  0  0  0
   45.4110   30.9750   37.2010 H   0  0  0  0  0  0  0  0  0  0  0  0
   45.2300   29.2420   38.6030 C   0  0  0  0  0  3  0  0  0  0  0  0
   44.7250   28.7620   39.7600 C   0  0  0  0  0  3  0  0  0  0  0  0
   42.4280   28.2200   41.8960 N   0  0  0  0  0  0  0  0  0  0  0  0
   43.5630   28.8270   41.7750 C   0  0  0  0  0  0  0  0  0  0  0  0
   44.3190   28.6120   42.9560 N   0  0  0  0  0  0  0  0  0  0  0  0
   42.3000   27.7160   42.8000 H   0  0  0  0  0  0  0  0  0  0  0  0
   44.5020   27.6680   43.3630 H   0  0  0  0  0  0  0  0  0  0  0  0
   44.8910   28.7880   43.8070 H   0  0  0  0  0  0  0  0  0  0  0  0
   44.2170   34.3620   41.5360 C   0  0  0  0  0  0  0  0  0  0  0  0
   45.0840   34.2440   40.6130 O   0  0  0  0  0  0  0  0  0  0  0  0
   44.5780   34.4530   42.9240 C   0  0  0  0  0  0  0  0  0  0  0  0
   44.3060   35.7140   43.5590 C   0  0  0  0  0  0  0  0  0  0  0  0
   44.6370   35.8210   44.9000 C   0  0  0  0  0  0  0  0  0  0  0  0
   45.1900   34.7450   45.5230 N   0  0  0  0  0  0  0  0  0  0  0  0
   45.4300   33.5630   44.8680 C   0  0  0  0  0  0  0  0  0  0  0  0
   45.1240   33.4600   43.6220 N   0  0  0  0  0  0  0  0  0  0  0  0
   43.8830   36.5920   43.1500 H   0  0  0  0  0  0  0  0  0  0  0  0
   44.4850   36.7100   45.4940 H   0  0  0  0  0  0  0  0  0  0  0  0
   46.0280   32.4460   45.6300 C   0  0  1  0  0  0  0  0  0  0  0  0
   46.9730   32.7500   46.7660 C   0  0  0  0  0  0  0  0  0  0  0  0
   45.5480   32.3290   47.0330 C   0  0  1  0  0  0  0  0  0  0  0  0
   46.2750   31.5350   45.0890 H   0  0  0  0  0  0  0  0  0  0  0  0
   47.7930   32.0290   46.9950 H   0  0  0  0  0  0  0  0  0  0  0  0
   47.2810   33.8050   46.9560 H   0  0  0  0  0  0  0  0  0  0  0  0
   45.3570   31.3030   47.3980 H   0  0  0  0  0  0  0  0  0  0  0  0
   44.7470   33.3780   47.6210 N   0  0  0  0  0  0  0  0  0  0  0  0
   43.8690   33.5700   47.1310 H   0  0  0  0  0  0  0  0  0  0  0  0
   45.2720   34.2070   47.9390 H   0  0  0  0  0  0  0  0  0  0  0  0
  1 11  1  0  0  0  0
  1  2  1  0  0  0  0
  2 28  1  0  0  0  0
  3  2  2  0  0  0  0
  3  7  1  0  0  0  0
  4  3  1  0  0  0  0
  5  6  1  0  0  0  0
  5  4  2  0  0  0  0
  6  1  2  0  0  0  0
  8  4  1  0  0  0  0
  9  5  1  0  0  0  0
 10  6  1  0  0  0  0
 11 13  2  0  0  0  0
 12 11  2  0  0  0  0
 14 23  1  0  0  0  0
 15 14  1  0  0  0  0
 15 11  1  0  0  0  0
 16 15  2  0  0  0  0
 17 16  1  0  0  0  0
 18 20  2  0  0  0  0
 18 16  1  0  0  0  0
 19 18  1  0  0  0  0
 20 21  1  0  0  0  0
 21 14  2  0  0  0  0
 22 25  1  0  0  0  0
 23 22  2  0  0  0  0
 23 24  1  0  0  0  0
 24 26  1  0  0  0  0
 24 27  1  0  0  0  0
 28 30  1  0  0  0  0
 29 28  2  0  0  0  0
 30 31  2  0  0  0  0
 30 35  1  0  0  0  0
 31 32  1  0  0  0  0
 32 37  1  0  0  0  0
 32 33  2  0  0  0  0
 34 33  1  0  0  0  0
 34 38  1  0  0  0  0
 35 34  2  0  0  0  0
 36 31  1  0  0  0  0
 38 41  1  6  0  0  0
 38 39  1  0  0  0  0
 38 40  1  0  0  0  0
 39 43  1  0  0  0  0
 39 42  1  0  0  0  0
 39 40  1  0  0  0  0
 40 44  1  1  0  0  0
 40 45  1  0  0  0  0
 45 47  1  0  0  0  0
 46 45  1  0  0  0  0
M  END
>  <minimizedAffinity>
-5.55984783

>  <minimizedRMSD>
1.34741318

$$$$
