
 OpenBabel03242511093D

 48 52  0  0  1  0  0  0  0  0999 V2000
   46.0740   32.2700   43.9450 C   0  0  0  0  0  0  0  0  0  0  0  0
   46.2490   31.6290   45.1690 C   0  0  0  0  0  0  0  0  0  0  0  0
   45.9630   32.2300   46.3900 C   0  0  0  0  0  0  0  0  0  0  0  0
   45.4810   33.5230   46.4260 C   0  0  0  0  0  0  0  0  0  0  0  0
   45.2970   34.1760   45.2500 C   0  0  0  0  0  0  0  0  0  0  0  0
   44.8130   35.4670   45.2750 C   0  0  0  0  0  0  0  0  0  0  0  0
   44.5980   36.1910   44.1100 C   0  0  0  0  0  0  0  0  0  0  0  0
   44.8940   35.5540   42.9090 C   0  0  0  0  0  0  0  0  0  0  0  0
   45.3810   34.2520   42.9190 C   0  0  0  0  0  0  0  0  0  0  0  0
   45.5930   33.5430   44.0620 C   0  0  0  0  0  0  0  0  0  0  0  0
   46.6220   30.6150   45.2290 H   0  0  0  0  0  0  0  0  0  0  0  0
   46.1150   31.6910   47.3190 H   0  0  0  0  0  0  0  0  0  0  0  0
   45.2720   33.9520   47.3900 H   0  0  0  0  0  0  0  0  0  0  0  0
   44.5980   35.9150   46.2420 H   0  0  0  0  0  0  0  0  0  0  0  0
   44.2160   37.1970   44.2520 H   0  0  0  0  0  0  0  0  0  0  0  0
   44.6850   36.2170   42.0810 H   0  0  0  0  0  0  0  0  0  0  0  0
   44.3860   33.3390   40.9730 C   0  0  0  0  0  0  0  0  0  0  0  0
   45.5620   33.8660   41.5320 C   0  0  0  0  0  0  0  0  0  0  0  0
   46.6300   33.9560   40.6620 C   0  0  0  0  0  0  0  0  0  0  0  0
   47.5010   34.3820   41.1810 H   0  0  0  0  0  0  0  0  0  0  0  0
   46.5710   33.5670   39.3490 C   0  0  0  0  0  0  0  0  0  0  0  0
   47.5050   33.7100   38.8200 H   0  0  0  0  0  0  0  0  0  0  0  0
   45.4130   33.0520   38.8100 C   0  0  0  0  0  3  0  0  0  0  0  0
   44.3300   32.9490   39.6480 C   0  0  0  0  0  3  0  0  0  0  0  0
   42.1810   33.9900   41.7220 N   0  0  0  0  0  0  0  0  0  0  0  0
   43.1550   33.1530   41.6890 C   0  0  0  0  0  0  0  0  0  0  0  0
   42.8720   31.9930   42.4600 N   0  0  0  0  0  0  0  0  0  0  0  0
   41.3090   33.8260   42.2500 H   0  0  0  0  0  0  0  0  0  0  0  0
   42.3560   31.1390   42.0910 H   0  0  0  0  0  0  0  0  0  0  0  0
   43.1780   31.9300   43.4760 H   0  0  0  0  0  0  0  0  0  0  0  0
   46.3970   31.5840   42.7660 N   0  0  0  0  0  0  0  0  0  0  0  0
   45.7780   31.6760   41.9330 H   0  0  0  0  0  0  0  0  0  0  0  0
   48.9120   31.2140   42.6210 C   0  0  1  0  0  0  0  0  0  0  0  0
   48.2880   30.6730   41.3520 C   0  0  0  0  0  0  0  0  0  0  0  0
   47.5450   30.7250   42.6820 C   0  0  2  0  0  0  0  0  0  0  0  0
   49.2330   32.2720   42.4700 H   0  0  0  0  0  0  0  0  0  0  0  0
   47.9640   31.3490   40.5510 H   0  0  0  0  0  0  0  0  0  0  0  0
   48.5820   29.6530   41.0050 H   0  0  0  0  0  0  0  0  0  0  0  0
   47.4090   29.7320   43.1950 H   0  0  0  0  0  0  0  0  0  0  0  0
   50.7120   28.8910   44.9000 C   0  0  0  0  0  0  0  0  0  0  0  0
   52.0600   29.0530   44.4390 C   0  0  0  0  0  0  0  0  0  0  0  0
   52.3070   29.9410   43.3580 C   0  0  0  0  0  0  0  0  0  0  0  0
   51.2750   30.5870   42.8160 N   0  0  0  0  0  0  0  0  0  0  0  0
   50.0070   30.4190   43.2680 C   0  0  0  0  0  0  0  0  0  0  0  0
   49.7230   29.5700   44.3110 N   0  0  0  0  0  0  0  0  0  0  0  0
   50.5440   28.2100   45.7250 H   0  0  0  0  0  0  0  0  0  0  0  0
   52.8450   28.5080   44.9150 H   0  0  0  0  0  0  0  0  0  0  0  0
   53.3270   30.0540   43.0190 H   0  0  0  0  0  0  0  0  0  0  0  0
  1 10  2  0  0  0  0
  1  2  1  0  0  0  0
  2 11  1  0  0  0  0
  2  3  2  0  0  0  0
  3  4  1  0  0  0  0
  3 12  1  0  0  0  0
  4 13  1  0  0  0  0
  5  6  1  0  0  0  0
  5  4  2  0  0  0  0
  6 14  1  0  0  0  0
  7 15  1  0  0  0  0
  7  6  2  0  0  0  0
  8  9  2  0  0  0  0
  8  7  1  0  0  0  0
  9 10  1  0  0  0  0
 10  5  1  0  0  0  0
 16  8  1  0  0  0  0
 17 18  1  0  0  0  0
 17 26  1  0  0  0  0
 18  9  1  0  0  0  0
 19 20  1  0  0  0  0
 19 18  2  0  0  0  0
 21 19  1  0  0  0  0
 22 21  1  0  0  0  0
 23 21  2  0  0  0  0
 23 24  1  0  0  0  0
 24 17  2  0  0  0  0
 25 28  1  0  0  0  0
 26 25  2  0  0  0  0
 26 27  1  0  0  0  0
 27 30  1  0  0  0  0
 29 27  1  0  0  0  0
 31  1  1  0  0  0  0
 32 31  1  0  0  0  0
 33 36  1  1  0  0  0
 33 35  1  0  0  0  0
 33 44  1  0  0  0  0
 34 33  1  0  0  0  0
 34 35  1  0  0  0  0
 35 31  1  0  0  0  0
 35 39  1  1  0  0  0
 37 34  1  0  0  0  0
 38 34  1  0  0  0  0
 40 46  1  0  0  0  0
 41 40  1  0  0  0  0
 41 47  1  0  0  0  0
 42 41  2  0  0  0  0
 43 44  2  0  0  0  0
 43 42  1  0  0  0  0
 44 45  1  0  0  0  0
 45 40  2  0  0  0  0
 48 42  1  0  0  0  0
M  END
>  <minimizedAffinity>
-5.52574682

>  <minimizedRMSD>
1.83812988

$$$$
