
 OpenBabel03252509273D

 35 37  0  0  1  0  0  0  0  0999 V2000
   46.5120   34.9490   41.9700 C   0  0  1  0  0  0  0  0  0  0  0  0
   48.0230   35.3130   41.9700 C   0  0  0  0  0  0  0  0  0  0  0  0
   47.3940   33.9780   41.4710 C   0  0  2  0  0  0  0  0  0  0  0  0
   45.9010   35.6140   41.3260 H   0  0  0  0  0  0  0  0  0  0  0  0
   48.3110   36.0260   41.1810 H   0  0  0  0  0  0  0  0  0  0  0  0
   48.5790   35.2570   42.9090 H   0  0  0  0  0  0  0  0  0  0  0  0
   47.6880   33.0880   42.1040 H   0  0  0  0  0  0  0  0  0  0  0  0
   44.5920   35.5230   45.1390 C   0  0  0  0  0  0  0  0  0  0  0  0
   45.0740   35.7550   43.8040 C   0  0  0  0  0  0  0  0  0  0  0  0
   45.9910   34.8490   43.3840 C   0  0  0  0  0  0  0  0  0  0  0  0
   46.4250   33.7980   44.1700 N   0  0  0  0  0  0  0  0  0  0  0  0
   45.9410   33.6240   45.4150 C   0  0  0  0  0  0  0  0  0  0  0  0
   45.0190   34.4910   45.9010 N   0  0  0  0  0  0  0  0  0  0  0  0
   43.8570   36.2260   45.5070 H   0  0  0  0  0  0  0  0  0  0  0  0
   46.3590   32.7730   45.9160 H   0  0  0  0  0  0  0  0  0  0  0  0
   44.6530   36.8420   43.0230 N   0  0  0  0  0  0  0  0  0  0  0  0
   43.8630   36.3070   42.6180 H   0  0  0  0  0  0  0  0  0  0  0  0
   45.4240   37.4850   43.3680 H   0  0  0  0  0  0  0  0  0  0  0  0
   47.4430   33.6550   39.9950 C   0  0  0  0  0  0  0  0  0  0  0  0
   47.7460   34.6010   39.4950 H   0  0  0  0  0  0  0  0  0  0  0  0
   46.3980   33.3860   39.7010 H   0  0  0  0  0  0  0  0  0  0  0  0
   49.0170   32.5320   38.4660 C   0  0  0  0  0  0  0  0  0  0  0  0
   48.3180   32.5290   39.6550 C   0  0  0  0  0  0  0  0  0  0  0  0
   48.4430   31.4680   40.5270 C   0  0  0  0  0  0  0  0  0  0  0  0
   47.8630   31.5160   41.4620 H   0  0  0  0  0  0  0  0  0  0  0  0
   49.2650   30.4170   40.2050 C   0  0  0  0  0  0  0  0  0  0  0  0
   49.3050   29.6200   40.9520 H   0  0  0  0  0  0  0  0  0  0  0  0
   49.9780   30.3900   39.0230 C   0  0  0  0  0  3  0  0  0  0  0  0
   49.8300   31.4530   38.1900 C   0  0  0  0  0  3  0  0  0  0  0  0
   49.0260   34.8640   37.5320 N   0  0  0  0  0  0  0  0  0  0  0  0
   48.9720   33.5810   37.4680 C   0  0  0  0  0  0  0  0  0  0  0  0
   48.8400   33.2550   36.0860 N   0  0  0  0  0  0  0  0  0  0  0  0
   48.9760   35.4610   36.6850 H   0  0  0  0  0  0  0  0  0  0  0  0
   47.8500   33.3200   35.7330 H   0  0  0  0  0  0  0  0  0  0  0  0
   49.6720   32.9840   35.5170 H   0  0  0  0  0  0  0  0  0  0  0  0
  1  4  1  6  0  0  0
  1 10  1  0  0  0  0
  2  1  1  0  0  0  0
  2  6  1  0  0  0  0
  3  2  1  0  0  0  0
  3  1  1  0  0  0  0
  3  7  1  1  0  0  0
  5  2  1  0  0  0  0
  8 14  1  0  0  0  0
  8 13  1  0  0  0  0
  9  8  2  0  0  0  0
 10  9  1  0  0  0  0
 10 11  2  0  0  0  0
 11 12  1  0  0  0  0
 12 13  2  0  0  0  0
 12 15  1  0  0  0  0
 16 18  1  0  0  0  0
 16  9  1  0  0  0  0
 17 16  1  0  0  0  0
 19  3  1  0  0  0  0
 20 19  1  0  0  0  0
 21 19  1  0  0  0  0
 22 23  1  0  0  0  0
 23 19  1  0  0  0  0
 23 24  2  0  0  0  0
 24 25  1  0  0  0  0
 26 24  1  0  0  0  0
 26 27  1  0  0  0  0
 28 26  2  0  0  0  0
 29 22  2  0  0  0  0
 29 28  1  0  0  0  0
 31 30  2  0  0  0  0
 31 22  1  0  0  0  0
 32 31  1  0  0  0  0
 33 30  1  0  0  0  0
 34 32  1  0  0  0  0
 35 32  1  0  0  0  0
M  END
>  <minimizedAffinity>
-5.45129967

>  <minimizedRMSD>
0.74147743

$$$$
