
 OpenBabel03252509273D

 35 37  0  0  1  0  0  0  0  0999 V2000
   46.5070   34.9760   41.9660 C   0  0  1  0  0  0  0  0  0  0  0  0
   48.0240   35.3100   41.9380 C   0  0  0  0  0  0  0  0  0  0  0  0
   47.3530   34.0150   41.3930 C   0  0  2  0  0  0  0  0  0  0  0  0
   45.8900   35.6830   41.3760 H   0  0  0  0  0  0  0  0  0  0  0  0
   48.3030   36.0570   41.1780 H   0  0  0  0  0  0  0  0  0  0  0  0
   48.6070   35.1960   42.8560 H   0  0  0  0  0  0  0  0  0  0  0  0
   47.6480   33.0880   41.9710 H   0  0  0  0  0  0  0  0  0  0  0  0
   44.6590   35.3920   45.2030 C   0  0  0  0  0  0  0  0  0  0  0  0
   45.0990   35.6820   43.8650 C   0  0  0  0  0  0  0  0  0  0  0  0
   46.0260   34.8140   43.3890 C   0  0  0  0  0  0  0  0  0  0  0  0
   46.5050   33.7470   44.1260 N   0  0  0  0  0  0  0  0  0  0  0  0
   46.0590   33.5180   45.3760 C   0  0  0  0  0  0  0  0  0  0  0  0
   45.1300   34.3450   45.9170 N   0  0  0  0  0  0  0  0  0  0  0  0
   43.9180   36.0640   45.6150 H   0  0  0  0  0  0  0  0  0  0  0  0
   46.5100   32.6610   45.8360 H   0  0  0  0  0  0  0  0  0  0  0  0
   44.6330   36.7860   43.1340 N   0  0  0  0  0  0  0  0  0  0  0  0
   43.8450   36.2450   42.7310 H   0  0  0  0  0  0  0  0  0  0  0  0
   45.3980   37.4350   43.4820 H   0  0  0  0  0  0  0  0  0  0  0  0
   47.3510   33.7660   39.9020 C   0  0  0  0  0  0  0  0  0  0  0  0
   47.3230   34.7740   39.4330 H   0  0  0  0  0  0  0  0  0  0  0  0
   46.4040   33.2160   39.6800 H   0  0  0  0  0  0  0  0  0  0  0  0
   48.7590   32.8860   38.0790 C   0  0  0  0  0  0  0  0  0  0  0  0
   48.4740   32.9510   39.4270 C   0  0  0  0  0  0  0  0  0  0  0  0
   49.2470   32.2540   40.3310 C   0  0  0  0  0  0  0  0  0  0  0  0
   48.9770   32.3420   41.3940 H   0  0  0  0  0  0  0  0  0  0  0  0
   50.3010   31.4950   39.8800 C   0  0  0  0  0  0  0  0  0  0  0  0
   50.8590   30.9770   40.6650 H   0  0  0  0  0  0  0  0  0  0  0  0
   50.6100   31.4100   38.5390 C   0  0  0  0  0  3  0  0  0  0  0  0
   49.8260   32.1100   37.6790 C   0  0  0  0  0  3  0  0  0  0  0  0
   47.7900   34.8060   36.7810 N   0  0  0  0  0  0  0  0  0  0  0  0
   48.0250   33.5680   37.0330 C   0  0  0  0  0  0  0  0  0  0  0  0
   47.3790   32.8220   36.0020 N   0  0  0  0  0  0  0  0  0  0  0  0
   47.2280   35.1060   35.9630 H   0  0  0  0  0  0  0  0  0  0  0  0
   46.3510   32.6670   36.1770 H   0  0  0  0  0  0  0  0  0  0  0  0
   47.9120   32.4800   35.1730 H   0  0  0  0  0  0  0  0  0  0  0  0
  1  4  1  6  0  0  0
  1 10  1  0  0  0  0
  2  1  1  0  0  0  0
  2  6  1  0  0  0  0
  3  2  1  0  0  0  0
  3  1  1  0  0  0  0
  3  7  1  1  0  0  0
  5  2  1  0  0  0  0
  8 14  1  0  0  0  0
  8 13  1  0  0  0  0
  9  8  2  0  0  0  0
 10  9  1  0  0  0  0
 10 11  2  0  0  0  0
 11 12  1  0  0  0  0
 12 15  1  0  0  0  0
 12 13  2  0  0  0  0
 16 18  1  0  0  0  0
 16  9  1  0  0  0  0
 17 16  1  0  0  0  0
 19  3  1  0  0  0  0
 20 19  1  0  0  0  0
 21 19  1  0  0  0  0
 22 23  1  0  0  0  0
 23 19  1  0  0  0  0
 23 24  2  0  0  0  0
 24 25  1  0  0  0  0
 26 24  1  0  0  0  0
 26 27  1  0  0  0  0
 28 26  2  0  0  0  0
 29 22  2  0  0  0  0
 29 28  1  0  0  0  0
 30 31  2  0  0  0  0
 31 22  1  0  0  0  0
 32 34  1  0  0  0  0
 32 31  1  0  0  0  0
 33 30  1  0  0  0  0
 35 32  1  0  0  0  0
M  END
>  <minimizedAffinity>
-5.73929453

>  <minimizedRMSD>
0.41830793

$$$$
