
 OpenBabel03242523343D

 42 45  0  0  0  0  0  0  0  0999 V2000
   44.4950   36.0760   44.6900 C   0  0  0  0  0  0  0  0  0  0  0  0
   45.2350   35.8900   43.5020 C   0  0  0  0  0  0  0  0  0  0  0  0
   46.0770   34.7800   43.3930 C   0  0  0  0  0  0  0  0  0  0  0  0
   46.1620   33.9040   44.4400 N   0  0  0  0  0  0  0  0  0  0  0  0
   45.4300   34.1250   45.5620 C   0  0  0  0  0  0  0  0  0  0  0  0
   44.6090   35.1990   45.6800 N   0  0  0  0  0  0  0  0  0  0  0  0
   43.8160   36.8910   44.8890 H   0  0  0  0  0  0  0  0  0  0  0  0
   45.0140   36.6950   42.8270 H   0  0  0  0  0  0  0  0  0  0  0  0
   46.3300   33.9400   41.1020 C   0  0  0  0  0  0  0  0  0  0  0  0
   46.7990   34.6980   42.1420 C   0  0  0  0  0  0  0  0  0  0  0  0
   47.9640   35.3450   41.8960 C   0  0  0  0  0  0  0  0  0  0  0  0
   48.4340   35.9750   42.6360 H   0  0  0  0  0  0  0  0  0  0  0  0
   48.6800   35.2970   40.7240 C   0  0  0  0  0  0  0  0  0  0  0  0
   49.6030   35.8300   40.5720 H   0  0  0  0  0  0  0  0  0  0  0  0
   48.1900   34.5210   39.6670 C   0  0  0  0  0  3  0  0  0  0  0  0
   47.0100   33.8530   39.8890 C   0  0  0  0  0  3  0  0  0  0  0  0
   43.9920   32.9880   40.5500 N   0  0  0  0  0  0  0  0  0  0  0  0
   45.1670   33.1000   41.0980 C   0  0  0  0  0  0  0  0  0  0  0  0
   45.1160   31.9080   41.8680 N   0  0  0  0  0  0  0  0  0  0  0  0
   43.6230   33.6990   39.8780 H   0  0  0  0  0  0  0  0  0  0  0  0
   44.9880   31.0360   42.4240 H   0  0  0  0  0  0  0  0  0  0  0  0
   45.9350   31.3660   42.2740 H   0  0  0  0  0  0  0  0  0  0  0  0
   45.5730   33.1140   46.6340 C   0  0  0  0  0  0  0  0  0  0  0  0
   44.5820   32.7430   46.9910 H   0  0  0  0  0  0  0  0  0  0  0  0
   46.0140   33.6340   47.5020 H   0  0  0  0  0  0  0  0  0  0  0  0
   46.5900   31.7710   46.0030 S   0  0  0  0  0  0  0  0  0  0  0  0
   47.6330   31.1160   47.2890 C   0  0  0  0  0  0  0  0  0  0  0  0
   47.9510   31.9490   48.3320 C   0  0  0  0  0  0  0  0  0  0  0  0
   48.7400   31.4510   49.3440 C   0  0  0  0  0  0  0  0  0  0  0  0
   49.2160   30.1420   49.3390 C   0  0  0  0  0  0  0  0  0  0  0  0
   49.9850   29.6950   50.3510 N   0  0  0  0  0  0  0  0  0  0  0  0
   50.4500   28.4220   50.3490 C   0  0  0  0  0  0  0  0  0  0  0  0
   50.1330   27.5990   49.3100 C   0  0  0  0  0  0  0  0  0  0  0  0
   49.3420   28.0580   48.2680 C   0  0  0  0  0  0  0  0  0  0  0  0
   48.8540   29.3700   48.2600 C   0  0  0  0  0  0  0  0  0  0  0  0
   48.0650   29.8160   47.2160 C   0  0  0  0  0  0  0  0  0  0  0  0
   47.6780   32.9730   48.4970 H   0  0  0  0  0  0  0  0  0  0  0  0
   49.0480   32.0440   50.2200 H   0  0  0  0  0  0  0  0  0  0  0  0
   51.0740   28.0330   51.1540 H   0  0  0  0  0  0  0  0  0  0  0  0
   50.4430   26.5710   49.1980 H   0  0  0  0  0  0  0  0  0  0  0  0
   49.0640   27.4450   47.4250 H   0  0  0  0  0  0  0  0  0  0  0  0
   47.8010   29.1800   46.3830 H   0  0  0  0  0  0  0  0  0  0  0  0
  1  7  1  0  0  0  0
  1  6  1  0  0  0  0
  2  1  2  0  0  0  0
  3  2  1  0  0  0  0
  3  4  2  0  0  0  0
  4  5  1  0  0  0  0
  5  6  2  0  0  0  0
  5 23  1  0  0  0  0
  8  2  1  0  0  0  0
  9 10  1  0  0  0  0
 10  3  1  0  0  0  0
 11 10  2  0  0  0  0
 11 12  1  0  0  0  0
 13 11  1  0  0  0  0
 14 13  1  0  0  0  0
 15 16  1  0  0  0  0
 15 13  2  0  0  0  0
 16  9  2  0  0  0  0
 17 18  2  0  0  0  0
 18  9  1  0  0  0  0
 18 19  1  0  0  0  0
 19 22  1  0  0  0  0
 19 21  1  0  0  0  0
 20 17  1  0  0  0  0
 23 24  1  0  0  0  0
 23 25  1  0  0  0  0
 26 23  1  0  0  0  0
 26 27  1  0  0  0  0
 27 28  1  0  0  0  0
 28 37  1  0  0  0  0
 28 29  2  0  0  0  0
 29 38  1  0  0  0  0
 30 29  1  0  0  0  0
 30 31  1  0  0  0  0
 32 31  2  0  0  0  0
 32 39  1  0  0  0  0
 33 32  1  0  0  0  0
 34 33  2  0  0  0  0
 35 34  1  0  0  0  0
 35 30  2  0  0  0  0
 36 27  2  0  0  0  0
 36 35  1  0  0  0  0
 40 33  1  0  0  0  0
 41 34  1  0  0  0  0
 42 36  1  0  0  0  0
M  END
>  <minimizedAffinity>
-6.79715061

>  <minimizedRMSD>
0.320399404

$$$$
