
 OpenBabel03242519383D

 32 33  0  0  0  0  0  0  0  0999 V2000
   48.0420   32.9230   41.7560 O   0  0  0  0  0  0  0  0  0  0  0  0
   47.2040   34.1130   41.2690 P   0  0  2  0  0  0  0  0  0  0  0  0
   45.6110   33.9280   41.8750 O   0  0  0  0  0  0  0  0  0  0  0  0
   44.3760   35.9210   44.6810 C   0  0  0  0  0  0  0  0  0  0  0  0
   44.6620   35.5470   43.3480 C   0  0  0  0  0  0  0  0  0  0  0  0
   45.3110   34.3310   43.1730 C   0  0  0  0  0  0  0  0  0  0  0  0
   45.6410   33.5650   44.2530 N   0  0  0  0  0  0  0  0  0  0  0  0
   45.3390   33.9770   45.5150 C   0  0  0  0  0  0  0  0  0  0  0  0
   44.7150   35.1370   45.7300 N   0  0  0  0  0  0  0  0  0  0  0  0
   43.8670   36.8660   44.8830 H   0  0  0  0  0  0  0  0  0  0  0  0
   44.3680   36.2100   42.5590 H   0  0  0  0  0  0  0  0  0  0  0  0
   45.6090   33.3520   46.3540 H   0  0  0  0  0  0  0  0  0  0  0  0
   47.1690   34.2390   39.6110 O   0  0  0  0  0  0  0  0  0  0  0  0
   46.6750   32.5190   37.9500 C   0  0  0  0  0  0  0  0  0  0  0  0
   47.5430   33.1560   38.8250 C   0  0  0  0  0  0  0  0  0  0  0  0
   48.8190   32.6310   38.8580 C   0  0  0  0  0  0  0  0  0  0  0  0
   49.5750   33.0650   39.5180 H   0  0  0  0  0  0  0  0  0  0  0  0
   49.2640   31.5610   38.1090 C   0  0  0  0  0  0  0  0  0  0  0  0
   50.2810   31.1950   38.1800 H   0  0  0  0  0  0  0  0  0  0  0  0
   48.3480   30.9780   37.2620 C   0  0  0  0  0  3  0  0  0  0  0  0
   47.0520   31.4420   37.1690 C   0  0  0  0  0  3  0  0  0  0  0  0
   44.7250   32.9510   36.6850 N   0  0  0  0  0  0  0  0  0  0  0  0
   45.3050   33.0060   37.8470 C   0  0  0  0  0  0  0  0  0  0  0  0
   44.4860   33.5490   38.8760 N   0  0  0  0  0  0  0  0  0  0  0  0
   43.7430   33.2850   36.5480 H   0  0  0  0  0  0  0  0  0  0  0  0
   43.9550   32.6780   39.1550 H   0  0  0  0  0  0  0  0  0  0  0  0
   44.3790   34.5010   39.2900 H   0  0  0  0  0  0  0  0  0  0  0  0
   47.8570   35.4910   41.9850 O   0  0  0  0  0  0  0  0  0  0  0  0
   49.0930   35.8290   41.4620 C   0  0  0  0  0  0  0  0  0  0  0  0
   49.5150   37.1020   41.8290 F   0  0  0  0  0  0  0  0  0  0  0  0
   50.0150   34.8540   41.7690 F   0  0  0  0  0  0  0  0  0  0  0  0
   48.9410   35.8510   40.0790 F   0  0  0  0  0  0  0  0  0  0  0  0
  2  1  2  1  0  0  0
  2  3  1  0  0  0  0
  2 28  1  0  0  0  0
  3  6  1  0  0  0  0
  4 10  1  0  0  0  0
  4  9  1  0  0  0  0
  5  4  2  0  0  0  0
  6  5  1  0  0  0  0
  6  7  2  0  0  0  0
  7  8  1  0  0  0  0
  8  9  2  0  0  0  0
  8 12  1  0  0  0  0
 11  5  1  0  0  0  0
 13  2  1  0  0  0  0
 14 15  1  0  0  0  0
 15 16  2  0  0  0  0
 15 13  1  0  0  0  0
 16 17  1  0  0  0  0
 18 19  1  0  0  0  0
 18 16  1  0  0  0  0
 20 18  2  0  0  0  0
 21 20  1  0  0  0  0
 21 14  2  0  0  0  0
 22 23  2  0  0  0  0
 23 14  1  0  0  0  0
 23 24  1  0  0  0  0
 24 26  1  0  0  0  0
 24 27  1  0  0  0  0
 25 22  1  0  0  0  0
 29 31  1  0  0  0  0
 29 30  1  0  0  0  0
 29 28  1  0  0  0  0
 32 29  1  0  0  0  0
M  END
>  <minimizedAffinity>
-5.47181511

>  <minimizedRMSD>
1.31914711

$$$$
