
 OpenBabel03242523293D

 26 27  0  0  0  0  0  0  0  0999 V2000
   37.1970   31.7980   39.0570 C   0  0  0  0  0  0  0  0  0  0  0  0
   36.5510   30.6630   39.5000 C   0  0  0  0  0  0  0  0  0  0  0  0
   36.3340   29.6050   38.6450 C   0  0  0  0  0  0  0  0  0  0  0  0
   35.8240   28.7270   39.0190 H   0  0  0  0  0  0  0  0  0  0  0  0
   36.7340   29.6030   37.3220 C   0  0  0  0  0  0  0  0  0  0  0  0
   36.5790   28.7990   36.6330 H   0  0  0  0  0  0  0  0  0  0  0  0
   37.3800   30.7410   36.8820 C   0  0  0  0  0  3  0  0  0  0  0  0
   37.6090   31.8130   37.7200 C   0  0  0  0  0  3  0  0  0  0  0  0
   36.9930   34.1410   39.5110 N   0  0  0  0  0  0  0  0  0  0  0  0
   37.5160   33.0070   39.8080 C   0  0  0  0  0  0  0  0  0  0  0  0
   38.4130   33.0120   40.9070 N   0  0  0  0  0  0  0  0  0  0  0  0
   37.2240   34.9920   40.0470 H   0  0  0  0  0  0  0  0  0  0  0  0
   37.9850   32.5050   41.7130 H   0  0  0  0  0  0  0  0  0  0  0  0
   39.0200   32.9790   41.7400 H   0  0  0  0  0  0  0  0  0  0  0  0
   36.1350   30.6900   40.9110 C   0  0  0  0  0  0  0  0  0  0  0  0
   35.0450   30.4280   41.0060 H   0  0  0  0  0  0  0  0  0  0  0  0
   36.2960   31.6830   41.3170 H   0  0  0  0  0  0  0  0  0  0  0  0
   37.1690   27.6130   42.7370 C   0  0  0  0  0  0  0  0  0  0  0  0
   38.4430   27.9570   43.1930 C   0  0  0  0  0  0  0  0  0  0  0  0
   38.9150   29.2230   42.8690 C   0  0  0  0  0  0  0  0  0  0  0  0
   38.1360   30.0660   42.1320 N   0  0  0  0  0  0  0  0  0  0  0  0
   36.8950   29.6730   41.7130 C   0  0  0  0  0  0  0  0  0  0  0  0
   36.4360   28.4600   42.0220 N   0  0  0  0  0  0  0  0  0  0  0  0
   36.8380   26.6200   43.0100 H   0  0  0  0  0  0  0  0  0  0  0  0
   39.1110   27.3290   43.7830 H   0  0  0  0  0  0  0  0  0  0  0  0
   39.8870   29.6250   43.1560 H   0  0  0  0  0  0  0  0  0  0  0  0
  1  2  1  0  0  0  0
  1 10  1  0  0  0  0
  2 15  1  0  0  0  0
  3  4  1  0  0  0  0
  3  2  2  0  0  0  0
  5  3  1  0  0  0  0
  6  5  1  0  0  0  0
  7  5  2  0  0  0  0
  7  8  1  0  0  0  0
  8  1  2  0  0  0  0
  9 10  2  0  0  0  0
  9 12  1  0  0  0  0
 10 11  1  0  0  0  0
 11 13  1  0  0  0  0
 11 14  1  0  0  0  0
 15 16  1  0  0  0  0
 15 17  1  0  0  0  0
 15 22  1  0  0  0  0
 18 24  1  0  0  0  0
 18 19  1  0  0  0  0
 19 25  1  0  0  0  0
 20 26  1  0  0  0  0
 20 19  2  0  0  0  0
 21 20  1  0  0  0  0
 22 23  1  0  0  0  0
 22 21  2  0  0  0  0
 23 18  2  0  0  0  0
M  END
>  <minimizedAffinity>
-5.38987923

$$$$

 OpenBabel03242523293D

 26 27  0  0  0  0  0  0  0  0999 V2000
   37.1280   31.2940   39.0610 C   0  0  0  0  0  0  0  0  0  0  0  0
   36.3170   30.2600   39.4800 C   0  0  0  0  0  0  0  0  0  0  0  0
   35.9150   29.2850   38.5930 C   0  0  0  0  0  0  0  0  0  0  0  0
   35.2780   28.4850   38.9490 H   0  0  0  0  0  0  0  0  0  0  0  0
   36.2820   29.2720   37.2610 C   0  0  0  0  0  0  0  0  0  0  0  0
   35.9860   28.5300   36.5480 H   0  0  0  0  0  0  0  0  0  0  0  0
   37.0940   30.3080   36.8450 C   0  0  0  0  0  3  0  0  0  0  0  0
   37.5090   31.2950   37.7140 C   0  0  0  0  0  3  0  0  0  0  0  0
   38.7080   32.2840   40.5630 N   0  0  0  0  0  0  0  0  0  0  0  0
   37.6520   32.4050   39.8450 C   0  0  0  0  0  0  0  0  0  0  0  0
   37.0370   33.6840   39.8660 N   0  0  0  0  0  0  0  0  0  0  0  0
   39.0720   33.0760   41.1160 H   0  0  0  0  0  0  0  0  0  0  0  0
   37.1620   34.1500   38.9400 H   0  0  0  0  0  0  0  0  0  0  0  0
   36.6100   34.6210   39.8170 H   0  0  0  0  0  0  0  0  0  0  0  0
   35.9400   30.2970   40.9010 C   0  0  0  0  0  0  0  0  0  0  0  0
   34.8970   29.9000   41.0430 H   0  0  0  0  0  0  0  0  0  0  0  0
   35.9790   31.3200   41.2590 H   0  0  0  0  0  0  0  0  0  0  0  0
   38.7730   28.9840   42.9310 C   0  0  0  0  0  0  0  0  0  0  0  0
   38.3640   27.6760   43.1940 C   0  0  0  0  0  0  0  0  0  0  0  0
   37.1390   27.2750   42.6750 C   0  0  0  0  0  0  0  0  0  0  0  0
   36.3950   28.1550   41.9440 N   0  0  0  0  0  0  0  0  0  0  0  0
   36.8490   29.4260   41.7200 C   0  0  0  0  0  0  0  0  0  0  0  0
   38.0230   29.8150   42.2140 N   0  0  0  0  0  0  0  0  0  0  0  0
   39.7320   29.2570   43.3520 H   0  0  0  0  0  0  0  0  0  0  0  0
   38.9110   26.9290   43.7690 H   0  0  0  0  0  0  0  0  0  0  0  0
   36.6940   26.2880   42.8000 H   0  0  0  0  0  0  0  0  0  0  0  0
  1  2  1  0  0  0  0
  1 10  1  0  0  0  0
  2 15  1  0  0  0  0
  3  4  1  0  0  0  0
  3  2  2  0  0  0  0
  5  3  1  0  0  0  0
  6  5  1  0  0  0  0
  7  5  2  0  0  0  0
  7  8  1  0  0  0  0
  8  1  2  0  0  0  0
  9 12  1  0  0  0  0
 10 11  1  0  0  0  0
 10  9  2  0  0  0  0
 13 11  1  0  0  0  0
 14 11  1  0  0  0  0
 15 16  1  0  0  0  0
 15 17  1  0  0  0  0
 15 22  1  0  0  0  0
 18 19  1  0  0  0  0
 18 24  1  0  0  0  0
 19 25  1  0  0  0  0
 20 26  1  0  0  0  0
 20 19  2  0  0  0  0
 21 20  1  0  0  0  0
 22 21  2  0  0  0  0
 22 23  1  0  0  0  0
 23 18  2  0  0  0  0
M  END
>  <minimizedAffinity>
-5.16208982

$$$$

 OpenBabel03242523293D

 26 27  0  0  0  0  0  0  0  0999 V2000
   37.3030   30.6180   39.3230 C   0  0  0  0  0  0  0  0  0  0  0  0
   38.3090   29.6870   39.4760 C   0  0  0  0  0  0  0  0  0  0  0  0
   38.7680   28.9710   38.3920 C   0  0  0  0  0  0  0  0  0  0  0  0
   39.5580   28.2460   38.5420 H   0  0  0  0  0  0  0  0  0  0  0  0
   38.2700   29.1270   37.1130 C   0  0  0  0  0  0  0  0  0  0  0  0
   38.6050   28.5870   36.2520 H   0  0  0  0  0  0  0  0  0  0  0  0
   37.2640   30.0600   36.9630 C   0  0  0  0  0  3  0  0  0  0  0  0
   36.7880   30.7890   38.0340 C   0  0  0  0  0  3  0  0  0  0  0  0
   37.0110   32.7010   40.4680 N   0  0  0  0  0  0  0  0  0  0  0  0
   36.6930   31.4640   40.3420 C   0  0  0  0  0  0  0  0  0  0  0  0
   35.7160   30.9830   41.2520 N   0  0  0  0  0  0  0  0  0  0  0  0
   36.5740   33.2940   41.1920 H   0  0  0  0  0  0  0  0  0  0  0  0
   34.8270   30.7870   40.7420 H   0  0  0  0  0  0  0  0  0  0  0  0
   34.9640   30.6290   41.8610 H   0  0  0  0  0  0  0  0  0  0  0  0
   38.8210   29.5390   40.8480 C   0  0  0  0  0  0  0  0  0  0  0  0
   38.5110   30.4150   41.4820 H   0  0  0  0  0  0  0  0  0  0  0  0
   39.9040   29.4860   40.8260 H   0  0  0  0  0  0  0  0  0  0  0  0
   38.1520   26.0360   41.9200 C   0  0  0  0  0  0  0  0  0  0  0  0
   37.0770   26.1970   42.7960 C   0  0  0  0  0  0  0  0  0  0  0  0
   36.6090   27.4900   42.9980 C   0  0  0  0  0  0  0  0  0  0  0  0
   37.2030   28.5320   42.3490 N   0  0  0  0  0  0  0  0  0  0  0  0
   38.2540   28.3110   41.5020 C   0  0  0  0  0  0  0  0  0  0  0  0
   38.7070   27.0740   41.3040 N   0  0  0  0  0  0  0  0  0  0  0  0
   38.4860   25.0150   41.7900 H   0  0  0  0  0  0  0  0  0  0  0  0
   36.5620   25.4070   43.3430 H   0  0  0  0  0  0  0  0  0  0  0  0
   35.7800   27.7650   43.6510 H   0  0  0  0  0  0  0  0  0  0  0  0
  1  2  1  0  0  0  0
  1 10  1  0  0  0  0
  2 15  1  0  0  0  0
  3  4  1  0  0  0  0
  3  2  2  0  0  0  0
  5  3  1  0  0  0  0
  6  5  1  0  0  0  0
  7  5  2  0  0  0  0
  7  8  1  0  0  0  0
  8  1  2  0  0  0  0
  9 12  1  0  0  0  0
 10  9  2  0  0  0  0
 10 11  1  0  0  0  0
 11 14  1  0  0  0  0
 13 11  1  0  0  0  0
 15 16  1  0  0  0  0
 15 22  1  0  0  0  0
 17 15  1  0  0  0  0
 18 19  1  0  0  0  0
 19 20  2  0  0  0  0
 19 25  1  0  0  0  0
 20 26  1  0  0  0  0
 21 20  1  0  0  0  0
 22 21  2  0  0  0  0
 23 22  1  0  0  0  0
 23 18  2  0  0  0  0
 24 18  1  0  0  0  0
M  END
>  <minimizedAffinity>
-4.96807432

$$$$

 OpenBabel03242523293D

 26 27  0  0  0  0  0  0  0  0999 V2000
   36.8090   27.5690   41.3850 C   0  0  0  0  0  0  0  0  0  0  0  0
   36.1500   28.0150   40.2590 C   0  0  0  0  0  0  0  0  0  0  0  0
   36.2190   27.3030   39.0810 C   0  0  0  0  0  0  0  0  0  0  0  0
   35.6930   27.6760   38.2120 H   0  0  0  0  0  0  0  0  0  0  0  0
   36.9320   26.1260   38.9460 C   0  0  0  0  0  0  0  0  0  0  0  0
   37.0060   25.5510   38.0470 H   0  0  0  0  0  0  0  0  0  0  0  0
   37.5900   25.6830   40.0750 C   0  0  0  0  0  3  0  0  0  0  0  0
   37.5350   26.3790   41.2650 C   0  0  0  0  0  3  0  0  0  0  0  0
   36.1420   27.7330   43.6790 N   0  0  0  0  0  0  0  0  0  0  0  0
   36.8510   28.1800   42.7080 C   0  0  0  0  0  0  0  0  0  0  0  0
   37.6730   29.2970   43.0090 N   0  0  0  0  0  0  0  0  0  0  0  0
   36.1780   28.1710   44.6130 H   0  0  0  0  0  0  0  0  0  0  0  0
   38.6760   29.0080   43.0020 H   0  0  0  0  0  0  0  0  0  0  0  0
   38.3230   30.0680   43.2210 H   0  0  0  0  0  0  0  0  0  0  0  0
   35.3990   29.2690   40.4280 C   0  0  0  0  0  0  0  0  0  0  0  0
   35.1260   29.4220   41.5090 H   0  0  0  0  0  0  0  0  0  0  0  0
   34.4910   29.2300   39.8370 H   0  0  0  0  0  0  0  0  0  0  0  0
   37.4250   32.3940   40.4320 C   0  0  0  0  0  0  0  0  0  0  0  0
   37.7420   32.5400   39.0800 C   0  0  0  0  0  0  0  0  0  0  0  0
   37.2600   31.5740   38.2050 C   0  0  0  0  0  0  0  0  0  0  0  0
   36.5110   30.5400   38.6870 N   0  0  0  0  0  0  0  0  0  0  0  0
   36.2330   30.4510   40.0230 C   0  0  0  0  0  0  0  0  0  0  0  0
   36.6920   31.3750   40.8670 N   0  0  0  0  0  0  0  0  0  0  0  0
   37.8190   33.1670   41.0790 H   0  0  0  0  0  0  0  0  0  0  0  0
   38.3340   33.3400   38.6360 H   0  0  0  0  0  0  0  0  0  0  0  0
   37.4280   31.5590   37.1280 H   0  0  0  0  0  0  0  0  0  0  0  0
  1 10  1  0  0  0  0
  2 15  1  0  0  0  0
  2  1  2  0  0  0  0
  3  2  1  0  0  0  0
  4  3  1  0  0  0  0
  5  3  2  0  0  0  0
  5  7  1  0  0  0  0
  6  5  1  0  0  0  0
  7  8  2  0  0  0  0
  8  1  1  0  0  0  0
  9 12  1  0  0  0  0
 10 11  1  0  0  0  0
 10  9  2  0  0  0  0
 11 14  1  0  0  0  0
 13 11  1  0  0  0  0
 15 16  1  0  0  0  0
 17 15  1  0  0  0  0
 18 23  1  0  0  0  0
 18 24  1  0  0  0  0
 19 18  2  0  0  0  0
 20 21  2  0  0  0  0
 20 19  1  0  0  0  0
 21 22  1  0  0  0  0
 22 15  1  0  0  0  0
 22 23  2  0  0  0  0
 25 19  1  0  0  0  0
 26 20  1  0  0  0  0
M  END
>  <minimizedAffinity>
-4.87695646

$$$$

 OpenBabel03242523293D

 26 27  0  0  0  0  0  0  0  0999 V2000
   39.2920   32.0110   40.1160 C   0  0  0  0  0  0  0  0  0  0  0  0
   39.7720   30.9150   40.8020 C   0  0  0  0  0  0  0  0  0  0  0  0
   40.6380   30.0340   40.1920 C   0  0  0  0  0  0  0  0  0  0  0  0
   40.9990   29.1820   40.7540 H   0  0  0  0  0  0  0  0  0  0  0  0
   41.0740   30.1780   38.8880 C   0  0  0  0  0  0  0  0  0  0  0  0
   41.7450   29.5120   38.3870 H   0  0  0  0  0  0  0  0  0  0  0  0
   40.5920   31.2760   38.2050 C   0  0  0  0  0  3  0  0  0  0  0  0
   39.7240   32.1710   38.7950 C   0  0  0  0  0  3  0  0  0  0  0  0
   38.7970   34.0670   41.2400 N   0  0  0  0  0  0  0  0  0  0  0  0
   38.3780   33.0440   40.5890 C   0  0  0  0  0  0  0  0  0  0  0  0
   36.9780   32.9890   40.3630 N   0  0  0  0  0  0  0  0  0  0  0  0
   38.1430   34.7940   41.5720 H   0  0  0  0  0  0  0  0  0  0  0  0
   36.7790   33.1390   39.3490 H   0  0  0  0  0  0  0  0  0  0  0  0
   35.9730   32.9600   40.1330 H   0  0  0  0  0  0  0  0  0  0  0  0
   39.2920   30.7850   42.1860 C   0  0  0  0  0  0  0  0  0  0  0  0
   38.7050   31.6960   42.4890 H   0  0  0  0  0  0  0  0  0  0  0  0
   40.1390   30.6730   42.8540 H   0  0  0  0  0  0  0  0  0  0  0  0
   36.4710   28.3830   41.8020 C   0  0  0  0  0  0  0  0  0  0  0  0
   36.8040   27.3890   42.7230 C   0  0  0  0  0  0  0  0  0  0  0  0
   37.9760   27.5610   43.4490 C   0  0  0  0  0  0  0  0  0  0  0  0
   38.7430   28.6700   43.2410 N   0  0  0  0  0  0  0  0  0  0  0  0
   38.3640   29.6110   42.3230 C   0  0  0  0  0  0  0  0  0  0  0  0
   37.2410   29.4520   41.6250 N   0  0  0  0  0  0  0  0  0  0  0  0
   35.5510   28.2120   41.2570 H   0  0  0  0  0  0  0  0  0  0  0  0
   36.2350   26.4840   42.9340 H   0  0  0  0  0  0  0  0  0  0  0  0
   38.3600   26.8690   44.1990 H   0  0  0  0  0  0  0  0  0  0  0  0
  1 10  1  0  0  0  0
  1  2  1  0  0  0  0
  2 15  1  0  0  0  0
  3  4  1  0  0  0  0
  3  2  2  0  0  0  0
  5  3  1  0  0  0  0
  6  5  1  0  0  0  0
  7  8  1  0  0  0  0
  7  5  2  0  0  0  0
  8  1  2  0  0  0  0
  9 12  1  0  0  0  0
 10  9  2  0  0  0  0
 11 10  1  0  0  0  0
 13 11  1  0  0  0  0
 14 11  1  0  0  0  0
 15 22  1  0  0  0  0
 15 16  1  0  0  0  0
 15 17  1  0  0  0  0
 18 19  1  0  0  0  0
 19 25  1  0  0  0  0
 19 20  2  0  0  0  0
 20 26  1  0  0  0  0
 21 20  1  0  0  0  0
 22 21  2  0  0  0  0
 23 18  2  0  0  0  0
 23 22  1  0  0  0  0
 24 18  1  0  0  0  0
M  END
>  <minimizedAffinity>
-4.77200031

$$$$

 OpenBabel03242523293D

 26 27  0  0  0  0  0  0  0  0999 V2000
   38.6650   29.4210   42.2050 C   0  0  0  0  0  0  0  0  0  0  0  0
   37.2980   29.2460   42.1540 C   0  0  0  0  0  0  0  0  0  0  0  0
   36.7190   28.1140   42.6840 C   0  0  0  0  0  0  0  0  0  0  0  0
   35.6430   28.0030   42.6300 H   0  0  0  0  0  0  0  0  0  0  0  0
   37.4410   27.1020   43.2860 C   0  0  0  0  0  0  0  0  0  0  0  0
   37.0210   26.2120   43.7060 H   0  0  0  0  0  0  0  0  0  0  0  0
   38.8090   27.2790   43.3350 C   0  0  0  0  0  3  0  0  0  0  0  0
   39.4120   28.4040   42.8110 C   0  0  0  0  0  3  0  0  0  0  0  0
   39.7590   30.6460   40.4630 N   0  0  0  0  0  0  0  0  0  0  0  0
   39.4520   30.5410   41.7040 C   0  0  0  0  0  0  0  0  0  0  0  0
   39.9250   31.5810   42.5450 N   0  0  0  0  0  0  0  0  0  0  0  0
   40.3170   31.4430   40.1160 H   0  0  0  0  0  0  0  0  0  0  0  0
   39.1220   32.1630   42.8710 H   0  0  0  0  0  0  0  0  0  0  0  0
   40.2050   32.3570   43.1640 H   0  0  0  0  0  0  0  0  0  0  0  0
   36.5520   30.3370   41.5080 C   0  0  0  0  0  0  0  0  0  0  0  0
   37.2240   31.2220   41.3280 H   0  0  0  0  0  0  0  0  0  0  0  0
   35.7310   30.6420   42.1470 H   0  0  0  0  0  0  0  0  0  0  0  0
   34.4840   28.9300   38.7480 C   0  0  0  0  0  0  0  0  0  0  0  0
   35.2640   29.2120   37.6250 C   0  0  0  0  0  0  0  0  0  0  0  0
   36.4690   29.8710   37.8350 C   0  0  0  0  0  0  0  0  0  0  0  0
   36.8390   30.2130   39.1020 N   0  0  0  0  0  0  0  0  0  0  0  0
   36.0330   29.9100   40.1650 C   0  0  0  0  0  0  0  0  0  0  0  0
   34.8770   29.2770   39.9700 N   0  0  0  0  0  0  0  0  0  0  0  0
   33.5550   28.4170   38.5420 H   0  0  0  0  0  0  0  0  0  0  0  0
   35.0230   28.9670   36.5910 H   0  0  0  0  0  0  0  0  0  0  0  0
   37.1760   30.1550   37.0550 H   0  0  0  0  0  0  0  0  0  0  0  0
  1  8  1  0  0  0  0
  2  1  2  0  0  0  0
  2  3  1  0  0  0  0
  3  5  2  0  0  0  0
  4  3  1  0  0  0  0
  5  7  1  0  0  0  0
  5  6  1  0  0  0  0
  8  7  2  0  0  0  0
  9 10  2  0  0  0  0
 10  1  1  0  0  0  0
 10 11  1  0  0  0  0
 11 13  1  0  0  0  0
 11 14  1  0  0  0  0
 12  9  1  0  0  0  0
 15 17  1  0  0  0  0
 15  2  1  0  0  0  0
 16 15  1  0  0  0  0
 18 23  1  0  0  0  0
 19 20  1  0  0  0  0
 19 18  2  0  0  0  0
 20 21  2  0  0  0  0
 21 22  1  0  0  0  0
 22 15  1  0  0  0  0
 23 22  2  0  0  0  0
 24 18  1  0  0  0  0
 25 19  1  0  0  0  0
 26 20  1  0  0  0  0
M  END
>  <minimizedAffinity>
-4.55740976

$$$$

 OpenBabel03242523293D

 26 27  0  0  0  0  0  0  0  0999 V2000
   36.4120   30.1460   38.5930 C   0  0  0  0  0  0  0  0  0  0  0  0
   36.1350   30.2160   39.9430 C   0  0  0  0  0  0  0  0  0  0  0  0
   36.5830   31.2820   40.6930 C   0  0  0  0  0  0  0  0  0  0  0  0
   36.3510   31.3100   41.7500 H   0  0  0  0  0  0  0  0  0  0  0  0
   37.3190   32.3260   40.1660 C   0  0  0  0  0  0  0  0  0  0  0  0
   37.6810   33.1650   40.7210 H   0  0  0  0  0  0  0  0  0  0  0  0
   37.5940   32.2520   38.8150 C   0  0  0  0  0  3  0  0  0  0  0  0
   37.1570   31.1950   38.0440 C   0  0  0  0  0  3  0  0  0  0  0  0
   34.9520   29.1980   36.9490 N   0  0  0  0  0  0  0  0  0  0  0  0
   36.0260   29.1080   37.6450 C   0  0  0  0  0  0  0  0  0  0  0  0
   36.8060   27.9430   37.4270 N   0  0  0  0  0  0  0  0  0  0  0  0
   34.6860   28.4580   36.2800 H   0  0  0  0  0  0  0  0  0  0  0  0
   37.6920   28.1980   36.9380 H   0  0  0  0  0  0  0  0  0  0  0  0
   37.4190   27.1350   37.2400 H   0  0  0  0  0  0  0  0  0  0  0  0
   35.3510   29.0930   40.4790 C   0  0  0  0  0  0  0  0  0  0  0  0
   34.8520   28.5260   39.6450 H   0  0  0  0  0  0  0  0  0  0  0  0
   34.5900   29.4720   41.1530 H   0  0  0  0  0  0  0  0  0  0  0  0
   37.4250   27.3350   43.0250 C   0  0  0  0  0  0  0  0  0  0  0  0
   37.8610   26.2100   42.3230 C   0  0  0  0  0  0  0  0  0  0  0  0
   37.4390   26.0790   41.0060 C   0  0  0  0  0  0  0  0  0  0  0  0
   36.6320   27.0330   40.4570 N   0  0  0  0  0  0  0  0  0  0  0  0
   36.2380   28.1140   41.1960 C   0  0  0  0  0  0  0  0  0  0  0  0
   36.6400   28.2450   42.4590 N   0  0  0  0  0  0  0  0  0  0  0  0
   37.7750   27.4000   44.0470 H   0  0  0  0  0  0  0  0  0  0  0  0
   38.5030   25.4170   42.7040 H   0  0  0  0  0  0  0  0  0  0  0  0
   37.6990   25.2560   40.3390 H   0  0  0  0  0  0  0  0  0  0  0  0
  1  2  1  0  0  0  0
  2 15  1  0  0  0  0
  2  3  2  0  0  0  0
  3  4  1  0  0  0  0
  5  3  1  0  0  0  0
  5  6  1  0  0  0  0
  7  5  2  0  0  0  0
  8  1  2  0  0  0  0
  8  7  1  0  0  0  0
  9 10  2  0  0  0  0
 10  1  1  0  0  0  0
 11 10  1  0  0  0  0
 12  9  1  0  0  0  0
 13 11  1  0  0  0  0
 14 11  1  0  0  0  0
 15 17  1  0  0  0  0
 15 22  1  0  0  0  0
 16 15  1  0  0  0  0
 18 24  1  0  0  0  0
 19 25  1  0  0  0  0
 19 18  2  0  0  0  0
 20 19  1  0  0  0  0
 21 20  2  0  0  0  0
 21 22  1  0  0  0  0
 22 23  2  0  0  0  0
 23 18  1  0  0  0  0
 26 20  1  0  0  0  0
M  END
>  <minimizedAffinity>
-4.51787281

$$$$

 OpenBabel03242523293D

 26 27  0  0  0  0  0  0  0  0999 V2000
   36.5860   28.3230   41.0340 C   0  0  0  0  0  0  0  0  0  0  0  0
   36.1890   29.4540   40.3530 C   0  0  0  0  0  0  0  0  0  0  0  0
   35.8180   29.3780   39.0280 C   0  0  0  0  0  0  0  0  0  0  0  0
   35.5110   30.2820   38.5180 H   0  0  0  0  0  0  0  0  0  0  0  0
   35.8180   28.1990   38.3060 C   0  0  0  0  0  0  0  0  0  0  0  0
   35.5370   28.1080   37.2780 H   0  0  0  0  0  0  0  0  0  0  0  0
   36.2160   27.0690   38.9900 C   0  0  0  0  0  3  0  0  0  0  0  0
   36.5910   27.1210   40.3170 C   0  0  0  0  0  3  0  0  0  0  0  0
   36.2080   27.7940   43.3380 N   0  0  0  0  0  0  0  0  0  0  0  0
   37.0080   28.2070   42.4240 C   0  0  0  0  0  0  0  0  0  0  0  0
   38.3200   28.5360   42.8560 N   0  0  0  0  0  0  0  0  0  0  0  0
   36.5160   27.7150   44.3210 H   0  0  0  0  0  0  0  0  0  0  0  0
   38.9980   27.8330   42.4880 H   0  0  0  0  0  0  0  0  0  0  0  0
   39.2950   28.7210   43.1350 H   0  0  0  0  0  0  0  0  0  0  0  0
   36.1990   30.6950   41.1430 C   0  0  0  0  0  0  0  0  0  0  0  0
   36.2400   30.4620   42.2430 H   0  0  0  0  0  0  0  0  0  0  0  0
   35.2980   31.2630   40.9360 H   0  0  0  0  0  0  0  0  0  0  0  0
   39.6790   32.0030   40.9160 C   0  0  0  0  0  0  0  0  0  0  0  0
   39.5080   33.1600   40.1540 C   0  0  0  0  0  0  0  0  0  0  0  0
   38.2170   33.4640   39.7380 C   0  0  0  0  0  0  0  0  0  0  0  0
   37.1860   32.6400   40.0810 N   0  0  0  0  0  0  0  0  0  0  0  0
   37.4150   31.5200   40.8310 C   0  0  0  0  0  0  0  0  0  0  0  0
   38.6510   31.2230   41.2330 N   0  0  0  0  0  0  0  0  0  0  0  0
   40.6980   31.8020   41.2190 H   0  0  0  0  0  0  0  0  0  0  0  0
   40.2890   33.8560   39.8480 H   0  0  0  0  0  0  0  0  0  0  0  0
   37.9360   34.3310   39.1400 H   0  0  0  0  0  0  0  0  0  0  0  0
  1 10  1  0  0  0  0
  2  1  1  0  0  0  0
  2 15  1  0  0  0  0
  3  2  2  0  0  0  0
  4  3  1  0  0  0  0
  5  7  2  0  0  0  0
  5  3  1  0  0  0  0
  6  5  1  0  0  0  0
  7  8  1  0  0  0  0
  8  1  2  0  0  0  0
  9 12  1  0  0  0  0
 10 11  1  0  0  0  0
 10  9  2  0  0  0  0
 11 14  1  0  0  0  0
 13 11  1  0  0  0  0
 15 16  1  0  0  0  0
 17 15  1  0  0  0  0
 18 24  1  0  0  0  0
 18 23  1  0  0  0  0
 19 18  2  0  0  0  0
 20 21  2  0  0  0  0
 20 19  1  0  0  0  0
 21 22  1  0  0  0  0
 22 15  1  0  0  0  0
 22 23  2  0  0  0  0
 25 19  1  0  0  0  0
 26 20  1  0  0  0  0
M  END
>  <minimizedAffinity>
-4.50773621

$$$$

 OpenBabel03242523293D

 26 27  0  0  0  0  0  0  0  0999 V2000
   37.9340   31.6010   40.6650 C   0  0  0  0  0  0  0  0  0  0  0  0
   37.1940   30.5410   41.1440 C   0  0  0  0  0  0  0  0  0  0  0  0
   37.6970   29.7300   42.1390 C   0  0  0  0  0  0  0  0  0  0  0  0
   37.0940   28.9050   42.4950 H   0  0  0  0  0  0  0  0  0  0  0  0
   38.9420   29.9130   42.7100 C   0  0  0  0  0  0  0  0  0  0  0  0
   39.3600   29.3020   43.4820 H   0  0  0  0  0  0  0  0  0  0  0  0
   39.6800   30.9750   42.2290 C   0  0  0  0  0  3  0  0  0  0  0  0
   39.1970   31.8000   41.2340 C   0  0  0  0  0  3  0  0  0  0  0  0
   37.0020   33.6730   39.9110 N   0  0  0  0  0  0  0  0  0  0  0  0
   37.5730   32.5600   39.6280 C   0  0  0  0  0  0  0  0  0  0  0  0
   37.8270   32.3300   38.2510 N   0  0  0  0  0  0  0  0  0  0  0  0
   36.7490   34.3470   39.1700 H   0  0  0  0  0  0  0  0  0  0  0  0
   38.8540   32.3720   38.0710 H   0  0  0  0  0  0  0  0  0  0  0  0
   38.0770   32.1690   37.2640 H   0  0  0  0  0  0  0  0  0  0  0  0
   35.8730   30.3670   40.5190 C   0  0  0  0  0  0  0  0  0  0  0  0
   35.5410   31.3230   40.0260 H   0  0  0  0  0  0  0  0  0  0  0  0
   35.1480   30.0900   41.2760 H   0  0  0  0  0  0  0  0  0  0  0  0
   35.9870   27.1430   38.6590 C   0  0  0  0  0  0  0  0  0  0  0  0
   36.0180   27.5720   37.3300 C   0  0  0  0  0  0  0  0  0  0  0  0
   35.9990   28.9420   37.1030 C   0  0  0  0  0  0  0  0  0  0  0  0
   35.9520   29.8020   38.1620 N   0  0  0  0  0  0  0  0  0  0  0  0
   35.9240   29.3210   39.4420 C   0  0  0  0  0  0  0  0  0  0  0  0
   35.9420   28.0080   39.6660 N   0  0  0  0  0  0  0  0  0  0  0  0
   36.0030   26.0690   38.7930 H   0  0  0  0  0  0  0  0  0  0  0  0
   36.0550   26.9370   36.4450 H   0  0  0  0  0  0  0  0  0  0  0  0
   36.0180   29.4190   36.1230 H   0  0  0  0  0  0  0  0  0  0  0  0
  1  2  2  0  0  0  0
  1  8  1  0  0  0  0
  2  3  1  0  0  0  0
  3  4  1  0  0  0  0
  3  5  2  0  0  0  0
  5  6  1  0  0  0  0
  7  5  1  0  0  0  0
  8  7  2  0  0  0  0
 10  9  2  0  0  0  0
 10  1  1  0  0  0  0
 11 10  1  0  0  0  0
 12  9  1  0  0  0  0
 13 11  1  0  0  0  0
 14 11  1  0  0  0  0
 15  2  1  0  0  0  0
 15 17  1  0  0  0  0
 16 15  1  0  0  0  0
 18 24  1  0  0  0  0
 18 23  1  0  0  0  0
 19 18  2  0  0  0  0
 20 19  1  0  0  0  0
 20 21  2  0  0  0  0
 21 22  1  0  0  0  0
 22 23  2  0  0  0  0
 22 15  1  0  0  0  0
 25 19  1  0  0  0  0
 26 20  1  0  0  0  0
M  END
>  <minimizedAffinity>
-4.48591232

$$$$
