
 OpenBabel03252508033D

 47 50  0  0  1  0  0  0  0  0999 V2000
   41.9110   33.2790   41.1250 C   0  0  0  0  0  0  0  0  0  0  0  0
   42.7480   34.3460   41.2850 C   0  0  0  0  0  0  0  0  0  0  0  0
   42.1810   35.6340   41.2360 C   0  0  0  0  0  0  0  0  0  0  0  0
   40.8420   35.8690   41.0370 C   0  0  0  0  0  0  0  0  0  0  0  0
   40.0130   34.7930   40.8790 C   0  0  0  0  0  0  0  0  0  0  0  0
   40.5520   33.5420   40.9240 C   0  0  0  0  0  0  0  0  0  0  0  0
   42.7660   36.5430   41.3440 H   0  0  0  0  0  0  0  0  0  0  0  0
   40.4220   36.8450   41.0020 H   0  0  0  0  0  0  0  0  0  0  0  0
   38.9540   34.8840   40.7200 H   0  0  0  0  0  0  0  0  0  0  0  0
   39.8780   32.6810   40.7950 H   0  0  0  0  0  0  0  0  0  0  0  0
   42.4350   31.6840   41.2610 S   0  0  0  0  0  0  0  0  0  0  0  0
   41.1330   30.9250   40.8470 O   0  0  0  0  0  0  0  0  0  0  0  0
   42.7360   31.2870   42.6540 O   0  0  0  0  0  0  0  0  0  0  0  0
   42.9990   29.3140   40.2980 C   0  0  0  0  0  0  0  0  0  0  0  0
   43.2570   30.7080   40.1620 C   0  0  0  0  0  0  0  0  0  0  0  0
   44.1060   30.9710   39.0720 C   0  0  0  0  0  0  0  0  0  0  0  0
   44.2440   32.0670   38.9860 H   0  0  0  0  0  0  0  0  0  0  0  0
   44.7020   30.1340   38.1560 C   0  0  0  0  0  0  0  0  0  0  0  0
   45.3160   30.5910   37.4090 H   0  0  0  0  0  0  0  0  0  0  0  0
   44.3540   28.8470   38.4250 C   0  0  0  0  0  3  0  0  0  0  0  0
   43.5550   28.4080   39.4220 C   0  0  0  0  0  3  0  0  0  0  0  0
   41.1440   27.9110   41.0250 N   0  0  0  0  0  0  0  0  0  0  0  0
   42.2130   28.5770   41.3150 C   0  0  0  0  0  0  0  0  0  0  0  0
   42.4700   28.4330   42.7030 N   0  0  0  0  0  0  0  0  0  0  0  0
   40.7030   27.4210   41.8330 H   0  0  0  0  0  0  0  0  0  0  0  0
   42.5260   27.5120   43.1910 H   0  0  0  0  0  0  0  0  0  0  0  0
   42.6680   28.6620   43.6990 H   0  0  0  0  0  0  0  0  0  0  0  0
   44.1760   34.2070   41.4990 C   0  0  0  0  0  0  0  0  0  0  0  0
   45.0190   33.9770   40.5760 O   0  0  0  0  0  0  0  0  0  0  0  0
   44.5610   34.3580   42.8750 C   0  0  0  0  0  0  0  0  0  0  0  0
   44.3200   35.6520   43.4530 C   0  0  0  0  0  0  0  0  0  0  0  0
   44.6750   35.8180   44.7820 C   0  0  0  0  0  0  0  0  0  0  0  0
   45.2210   34.7630   45.4470 N   0  0  0  0  0  0  0  0  0  0  0  0
   45.4300   33.5470   44.8460 C   0  0  0  0  0  0  0  0  0  0  0  0
   45.1020   33.3900   43.6110 N   0  0  0  0  0  0  0  0  0  0  0  0
   43.9050   36.5170   43.0090 H   0  0  0  0  0  0  0  0  0  0  0  0
   44.5480   36.7360   45.3340 H   0  0  0  0  0  0  0  0  0  0  0  0
   46.0220   32.4580   45.6510 C   0  0  1  0  0  0  0  0  0  0  0  0
   46.9600   32.8020   46.7820 C   0  0  0  0  0  0  0  0  0  0  0  0
   45.5330   32.3920   47.0540 C   0  0  1  0  0  0  0  0  0  0  0  0
   46.2710   31.5280   45.1450 H   0  0  0  0  0  0  0  0  0  0  0  0
   47.7780   32.0890   47.0410 H   0  0  0  0  0  0  0  0  0  0  0  0
   47.2680   33.8630   46.9360 H   0  0  0  0  0  0  0  0  0  0  0  0
   45.3380   31.3800   47.4550 H   0  0  0  0  0  0  0  0  0  0  0  0
   44.7300   33.4620   47.5990 N   0  0  0  0  0  0  0  0  0  0  0  0
   43.8550   33.6380   47.0970 H   0  0  0  0  0  0  0  0  0  0  0  0
   45.2540   34.3010   47.8910 H   0  0  0  0  0  0  0  0  0  0  0  0
  1 11  1  0  0  0  0
  1  2  1  0  0  0  0
  2 28  1  0  0  0  0
  3  2  2  0  0  0  0
  3  7  1  0  0  0  0
  4  3  1  0  0  0  0
  5  6  1  0  0  0  0
  5  4  2  0  0  0  0
  6  1  2  0  0  0  0
  8  4  1  0  0  0  0
  9  5  1  0  0  0  0
 10  6  1  0  0  0  0
 11 13  2  0  0  0  0
 12 11  2  0  0  0  0
 14 23  1  0  0  0  0
 15 14  1  0  0  0  0
 15 11  1  0  0  0  0
 16 15  2  0  0  0  0
 17 16  1  0  0  0  0
 18 20  2  0  0  0  0
 18 16  1  0  0  0  0
 19 18  1  0  0  0  0
 20 21  1  0  0  0  0
 21 14  2  0  0  0  0
 22 23  2  0  0  0  0
 22 25  1  0  0  0  0
 23 24  1  0  0  0  0
 24 26  1  0  0  0  0
 24 27  1  0  0  0  0
 28 30  1  0  0  0  0
 29 28  2  0  0  0  0
 30 31  2  0  0  0  0
 30 35  1  0  0  0  0
 31 32  1  0  0  0  0
 32 37  1  0  0  0  0
 32 33  2  0  0  0  0
 34 33  1  0  0  0  0
 34 38  1  0  0  0  0
 35 34  2  0  0  0  0
 36 31  1  0  0  0  0
 38 41  1  6  0  0  0
 38 39  1  0  0  0  0
 38 40  1  0  0  0  0
 39 43  1  0  0  0  0
 39 42  1  0  0  0  0
 39 40  1  0  0  0  0
 40 44  1  1  0  0  0
 40 45  1  0  0  0  0
 45 47  1  0  0  0  0
 46 45  1  0  0  0  0
M  END
>  <minimizedAffinity>
-5.5858202

>  <minimizedRMSD>
1.58474028

$$$$
