
 OpenBabel03242519393D

 32 33  0  0  0  0  0  0  0  0999 V2000
   48.1160   32.7830   41.7930 O   0  0  0  0  0  0  0  0  0  0  0  0
   47.1350   33.8640   41.3160 P   0  0  2  0  0  0  0  0  0  0  0  0
   45.6130   33.5630   42.0460 O   0  0  0  0  0  0  0  0  0  0  0  0
   44.3880   35.8830   44.5940 C   0  0  0  0  0  0  0  0  0  0  0  0
   44.6720   35.3510   43.3150 C   0  0  0  0  0  0  0  0  0  0  0  0
   45.3160   34.1200   43.2860 C   0  0  0  0  0  0  0  0  0  0  0  0
   45.6430   33.4870   44.4510 N   0  0  0  0  0  0  0  0  0  0  0  0
   45.3440   34.0490   45.6540 C   0  0  0  0  0  0  0  0  0  0  0  0
   44.7260   35.2290   45.7290 N   0  0  0  0  0  0  0  0  0  0  0  0
   43.8840   36.8480   44.6810 H   0  0  0  0  0  0  0  0  0  0  0  0
   44.3800   35.9160   42.4530 H   0  0  0  0  0  0  0  0  0  0  0  0
   45.6120   33.5270   46.5620 H   0  0  0  0  0  0  0  0  0  0  0  0
   46.9740   33.8990   39.6620 O   0  0  0  0  0  0  0  0  0  0  0  0
   45.3280   32.5640   38.4520 C   0  0  0  0  0  0  0  0  0  0  0  0
   46.5970   32.7510   38.9770 C   0  0  0  0  0  0  0  0  0  0  0  0
   47.4690   31.7020   38.7660 C   0  0  0  0  0  0  0  0  0  0  0  0
   48.4940   31.7560   39.1430 H   0  0  0  0  0  0  0  0  0  0  0  0
   47.1700   30.5340   38.0970 C   0  0  0  0  0  0  0  0  0  0  0  0
   47.9000   29.7450   37.9640 H   0  0  0  0  0  0  0  0  0  0  0  0
   45.8900   30.4170   37.6020 C   0  0  0  0  0  3  0  0  0  0  0  0
   44.9560   31.4200   37.7690 C   0  0  0  0  0  3  0  0  0  0  0  0
   43.7890   34.1230   37.5580 N   0  0  0  0  0  0  0  0  0  0  0  0
   44.3370   33.6210   38.6260 C   0  0  0  0  0  0  0  0  0  0  0  0
   43.8720   34.1960   39.8390 N   0  0  0  0  0  0  0  0  0  0  0  0
   43.0720   34.8820   37.6170 H   0  0  0  0  0  0  0  0  0  0  0  0
   42.9990   33.6160   39.9850 H   0  0  0  0  0  0  0  0  0  0  0  0
   44.2210   34.9590   40.4610 H   0  0  0  0  0  0  0  0  0  0  0  0
   47.7000   35.3310   41.9200 O   0  0  0  0  0  0  0  0  0  0  0  0
   48.9420   35.6730   41.4130 C   0  0  0  0  0  0  0  0  0  0  0  0
   49.3500   36.9510   41.7770 F   0  0  0  0  0  0  0  0  0  0  0  0
   49.8660   34.7060   41.7430 F   0  0  0  0  0  0  0  0  0  0  0  0
   48.8120   35.6830   40.0280 F   0  0  0  0  0  0  0  0  0  0  0  0
  2  1  2  1  0  0  0
  2 28  1  0  0  0  0
  2  3  1  0  0  0  0
  3  6  1  0  0  0  0
  4 10  1  0  0  0  0
  4  9  1  0  0  0  0
  5  4  2  0  0  0  0
  6  5  1  0  0  0  0
  6  7  2  0  0  0  0
  7  8  1  0  0  0  0
  8  9  2  0  0  0  0
  8 12  1  0  0  0  0
 11  5  1  0  0  0  0
 13  2  1  0  0  0  0
 14 23  1  0  0  0  0
 14 15  1  0  0  0  0
 15 13  1  0  0  0  0
 16 15  2  0  0  0  0
 16 17  1  0  0  0  0
 18 16  1  0  0  0  0
 19 18  1  0  0  0  0
 20 21  1  0  0  0  0
 20 18  2  0  0  0  0
 21 14  2  0  0  0  0
 22 25  1  0  0  0  0
 22 23  2  0  0  0  0
 23 24  1  0  0  0  0
 24 26  1  0  0  0  0
 24 27  1  0  0  0  0
 29 31  1  0  0  0  0
 29 30  1  0  0  0  0
 29 28  1  0  0  0  0
 32 29  1  0  0  0  0
M  END
>  <minimizedAffinity>
-5.40181303

>  <minimizedRMSD>
0.398373097

$$$$
