
 OpenBabel03242523333D

 42 45  0  0  0  0  0  0  0  0999 V2000
   44.4960   36.0830   44.6910 C   0  0  0  0  0  0  0  0  0  0  0  0
   45.2360   35.8950   43.5030 C   0  0  0  0  0  0  0  0  0  0  0  0
   46.0750   34.7830   43.3930 C   0  0  0  0  0  0  0  0  0  0  0  0
   46.1580   33.9070   44.4410 N   0  0  0  0  0  0  0  0  0  0  0  0
   45.4270   34.1300   45.5630 C   0  0  0  0  0  0  0  0  0  0  0  0
   44.6080   35.2060   45.6820 N   0  0  0  0  0  0  0  0  0  0  0  0
   43.8200   36.8990   44.8910 H   0  0  0  0  0  0  0  0  0  0  0  0
   45.0160   36.7000   42.8280 H   0  0  0  0  0  0  0  0  0  0  0  0
   46.3260   33.9420   41.1030 C   0  0  0  0  0  0  0  0  0  0  0  0
   46.7970   34.6990   42.1420 C   0  0  0  0  0  0  0  0  0  0  0  0
   47.9630   35.3440   41.8970 C   0  0  0  0  0  0  0  0  0  0  0  0
   48.4350   35.9740   42.6360 H   0  0  0  0  0  0  0  0  0  0  0  0
   48.6790   35.2960   40.7240 C   0  0  0  0  0  0  0  0  0  0  0  0
   49.6030   35.8260   40.5730 H   0  0  0  0  0  0  0  0  0  0  0  0
   48.1870   34.5200   39.6670 C   0  0  0  0  0  3  0  0  0  0  0  0
   47.0050   33.8530   39.8890 C   0  0  0  0  0  3  0  0  0  0  0  0
   43.9880   32.9930   40.5480 N   0  0  0  0  0  0  0  0  0  0  0  0
   45.1630   33.1040   41.0990 C   0  0  0  0  0  0  0  0  0  0  0  0
   45.1050   31.9170   41.8730 N   0  0  0  0  0  0  0  0  0  0  0  0
   43.6220   33.7020   39.8720 H   0  0  0  0  0  0  0  0  0  0  0  0
   44.9740   31.0460   42.4340 H   0  0  0  0  0  0  0  0  0  0  0  0
   45.9230   31.3740   42.2840 H   0  0  0  0  0  0  0  0  0  0  0  0
   45.5680   33.1180   46.6340 C   0  0  0  0  0  0  0  0  0  0  0  0
   44.5760   32.7490   46.9920 H   0  0  0  0  0  0  0  0  0  0  0  0
   46.0110   33.6370   47.5030 H   0  0  0  0  0  0  0  0  0  0  0  0
   46.5820   31.7720   46.0030 S   0  0  0  0  0  0  0  0  0  0  0  0
   47.6260   31.1170   47.2880 C   0  0  0  0  0  0  0  0  0  0  0  0
   47.9450   31.9500   48.3310 C   0  0  0  0  0  0  0  0  0  0  0  0
   48.7350   31.4510   49.3420 C   0  0  0  0  0  0  0  0  0  0  0  0
   49.2130   30.1440   49.3350 C   0  0  0  0  0  0  0  0  0  0  0  0
   49.9830   29.6960   50.3460 N   0  0  0  0  0  0  0  0  0  0  0  0
   50.4490   28.4240   50.3420 C   0  0  0  0  0  0  0  0  0  0  0  0
   50.1320   27.6010   49.3040 C   0  0  0  0  0  0  0  0  0  0  0  0
   49.3400   28.0600   48.2630 C   0  0  0  0  0  0  0  0  0  0  0  0
   48.8500   29.3720   48.2560 C   0  0  0  0  0  0  0  0  0  0  0  0
   48.0600   29.8180   47.2130 C   0  0  0  0  0  0  0  0  0  0  0  0
   47.6710   32.9730   48.4970 H   0  0  0  0  0  0  0  0  0  0  0  0
   49.0430   32.0440   50.2180 H   0  0  0  0  0  0  0  0  0  0  0  0
   51.0750   28.0340   51.1470 H   0  0  0  0  0  0  0  0  0  0  0  0
   50.4430   26.5730   49.1900 H   0  0  0  0  0  0  0  0  0  0  0  0
   49.0610   27.4480   47.4190 H   0  0  0  0  0  0  0  0  0  0  0  0
   47.7960   29.1820   46.3800 H   0  0  0  0  0  0  0  0  0  0  0  0
  1  7  1  0  0  0  0
  1  6  1  0  0  0  0
  2  1  2  0  0  0  0
  3  2  1  0  0  0  0
  3  4  2  0  0  0  0
  4  5  1  0  0  0  0
  5  6  2  0  0  0  0
  5 23  1  0  0  0  0
  8  2  1  0  0  0  0
  9 10  1  0  0  0  0
 10  3  1  0  0  0  0
 11 10  2  0  0  0  0
 11 12  1  0  0  0  0
 13 11  1  0  0  0  0
 14 13  1  0  0  0  0
 15 16  1  0  0  0  0
 15 13  2  0  0  0  0
 16  9  2  0  0  0  0
 17 18  2  0  0  0  0
 18  9  1  0  0  0  0
 18 19  1  0  0  0  0
 19 22  1  0  0  0  0
 19 21  1  0  0  0  0
 20 17  1  0  0  0  0
 23 24  1  0  0  0  0
 23 25  1  0  0  0  0
 26 23  1  0  0  0  0
 26 27  1  0  0  0  0
 27 28  1  0  0  0  0
 28 37  1  0  0  0  0
 28 29  2  0  0  0  0
 29 38  1  0  0  0  0
 30 29  1  0  0  0  0
 30 31  1  0  0  0  0
 32 31  2  0  0  0  0
 32 39  1  0  0  0  0
 33 32  1  0  0  0  0
 34 33  2  0  0  0  0
 35 34  1  0  0  0  0
 35 30  2  0  0  0  0
 36 27  2  0  0  0  0
 36 35  1  0  0  0  0
 40 33  1  0  0  0  0
 41 34  1  0  0  0  0
 42 36  1  0  0  0  0
M  END
>  <minimizedAffinity>
-6.80331469

>  <minimizedRMSD>
0.828932762

$$$$
