
 OpenBabel03242523113D

 51 55  0  0  1  0  0  0  0  0999 V2000
   46.0070   31.6250   44.7980 C   0  0  0  0  0  0  0  0  0  0  0  0
   46.7460   32.6340   44.1460 C   0  0  0  0  0  0  0  0  0  0  0  0
   47.9690   32.1650   43.7320 C   0  0  0  0  0  0  0  0  0  0  0  0
   48.4460   30.9010   43.9070 C   0  0  0  0  0  0  0  0  0  0  0  0
   47.6510   29.9680   44.5660 C   0  0  0  0  0  0  0  0  0  0  0  0
   46.4170   30.3370   45.0150 C   0  0  0  0  0  0  0  0  0  0  0  0
   48.4080   28.8090   44.5880 O   0  0  0  0  0  0  0  0  0  0  0  0
   49.6250   28.9940   43.8740 C   0  0  2  0  0  0  0  0  0  0  0  0
   49.6630   30.3840   43.5060 O   0  0  0  0  0  0  0  0  0  0  0  0
   44.9880   31.6690   45.2380 H   0  0  0  0  0  0  0  0  0  0  0  0
   48.5340   32.8980   43.2450 H   0  0  0  0  0  0  0  0  0  0  0  0
   45.9050   29.5480   45.4970 H   0  0  0  0  0  0  0  0  0  0  0  0
   50.4950   28.8910   44.5600 H   0  0  0  0  0  0  0  0  0  0  0  0
   45.2700   36.0140   43.4890 C   0  0  0  0  0  0  0  0  0  0  0  0
   46.0390   34.8830   43.2030 C   0  0  0  0  0  0  0  0  0  0  0  0
   46.1000   33.8740   44.1140 C   0  0  0  0  0  0  0  0  0  0  0  0
   45.3930   34.0320   45.2730 N   0  0  0  0  0  0  0  0  0  0  0  0
   44.6570   35.1170   45.5440 C   0  0  0  0  0  0  0  0  0  0  0  0
   44.6010   36.0860   44.6620 N   0  0  0  0  0  0  0  0  0  0  0  0
   45.2200   36.8250   42.7570 H   0  0  0  0  0  0  0  0  0  0  0  0
   44.0770   35.3070   46.4340 H   0  0  0  0  0  0  0  0  0  0  0  0
   46.7320   34.8690   41.9930 N   0  0  0  0  0  0  0  0  0  0  0  0
   48.0080   35.4940   41.8480 C   0  0  0  0  0  0  0  0  0  0  0  0
   48.6900   35.2400   40.5380 C   0  0  0  0  0  0  0  0  0  0  0  0
   48.5570   33.9370   40.0400 N   0  0  0  0  0  0  0  0  0  0  0  0
   47.3130   33.3500   40.1530 C   0  0  0  0  0  0  0  0  0  0  0  0
   46.2960   34.2700   40.7960 C   0  0  0  0  0  0  0  0  0  0  0  0
   48.7000   35.2930   42.6910 H   0  0  0  0  0  0  0  0  0  0  0  0
   47.8120   36.6050   41.8930 H   0  0  0  0  0  0  0  0  0  0  0  0
   49.7800   35.4630   40.6800 H   0  0  0  0  0  0  0  0  0  0  0  0
   48.3490   35.9700   39.7800 H   0  0  0  0  0  0  0  0  0  0  0  0
   49.0390   33.8630   39.1400 H   0  0  0  0  0  0  0  0  0  0  0  0
   46.8990   33.1350   39.1250 H   0  0  0  0  0  0  0  0  0  0  0  0
   47.3550   32.3650   40.6420 H   0  0  0  0  0  0  0  0  0  0  0  0
   46.0770   35.0800   40.0590 H   0  0  0  0  0  0  0  0  0  0  0  0
   45.3430   33.7300   40.9410 H   0  0  0  0  0  0  0  0  0  0  0  0
   49.5960   28.2150   42.7620 O   0  0  0  0  0  0  0  0  0  0  0  0
   49.2370   28.6220   40.3200 C   0  0  0  0  0  0  0  0  0  0  0  0
   49.8340   28.2110   41.4770 C   0  0  0  0  0  0  0  0  0  0  0  0
   51.0820   27.5900   41.3020 C   0  0  0  0  0  0  0  0  0  0  0  0
   51.7930   27.1600   42.0240 H   0  0  0  0  0  0  0  0  0  0  0  0
   51.6320   27.4260   40.0260 C   0  0  0  0  0  0  0  0  0  0  0  0
   52.5780   26.9640   39.7790 H   0  0  0  0  0  0  0  0  0  0  0  0
   50.9660   27.8680   38.9070 C   0  0  0  0  0  3  0  0  0  0  0  0
   49.7420   28.4810   39.0470 C   0  0  0  0  0  3  0  0  0  0  0  0
   47.4970   29.8070   39.3250 N   0  0  0  0  0  0  0  0  0  0  0  0
   47.9450   29.2360   40.4120 C   0  0  0  0  0  0  0  0  0  0  0  0
   46.7690   29.5850   41.0910 N   0  0  0  0  0  0  0  0  0  0  0  0
   46.5720   30.2710   39.2740 H   0  0  0  0  0  0  0  0  0  0  0  0
   45.9240   28.9650   41.1960 H   0  0  0  0  0  0  0  0  0  0  0  0
   46.5440   30.4750   41.5870 H   0  0  0  0  0  0  0  0  0  0  0  0
  1  6  1  0  0  0  0
  1 10  1  0  0  0  0
  2  1  2  0  0  0  0
  3  4  2  0  0  0  0
  3  2  1  0  0  0  0
  4  5  1  0  0  0  0
  5  7  1  0  0  0  0
  5  6  2  0  0  0  0
  6 12  1  0  0  0  0
  8 13  1  1  0  0  0
  8  7  1  0  0  0  0
  9  8  1  0  0  0  0
  9  4  1  0  0  0  0
 11  3  1  0  0  0  0
 14 19  1  0  0  0  0
 15 14  2  0  0  0  0
 15 16  1  0  0  0  0
 16  2  1  0  0  0  0
 16 17  2  0  0  0  0
 17 18  1  0  0  0  0
 18 21  1  0  0  0  0
 19 18  2  0  0  0  0
 20 14  1  0  0  0  0
 22 15  1  0  0  0  0
 23 29  1  0  0  0  0
 23 22  1  0  0  0  0
 23 28  1  0  0  0  0
 24 30  1  0  0  0  0
 24 23  1  0  0  0  0
 25 26  1  0  0  0  0
 25 24  1  0  0  0  0
 26 34  1  0  0  0  0
 26 27  1  0  0  0  0
 27 36  1  0  0  0  0
 27 22  1  0  0  0  0
 31 24  1  0  0  0  0
 32 25  1  0  0  0  0
 33 26  1  0  0  0  0
 35 27  1  0  0  0  0
 37  8  1  0  0  0  0
 38 47  1  0  0  0  0
 38 39  1  0  0  0  0
 39 37  1  0  0  0  0
 40 39  2  0  0  0  0
 40 41  1  0  0  0  0
 42 40  1  0  0  0  0
 43 42  1  0  0  0  0
 44 45  1  0  0  0  0
 44 42  2  0  0  0  0
 45 38  2  0  0  0  0
 46 47  2  0  0  0  0
 47 48  1  0  0  0  0
 48 50  1  0  0  0  0
 48 51  1  0  0  0  0
 49 46  1  0  0  0  0
M  END
>  <minimizedAffinity>
-4.43698168

>  <minimizedRMSD>
1.80490971

$$$$
