
 OpenBabel03242516223D

 34 36  0  0  0  0  0  0  0  0999 V2000
   45.9910   32.7410   46.8920 C   0  0  0  0  0  0  0  0  0  0  0  0
   47.0900   31.9140   46.8870 C   0  0  0  0  0  0  0  0  0  0  0  0
   47.3280   31.0320   47.9200 C   0  0  0  0  0  0  0  0  0  0  0  0
   46.4640   30.9510   49.0010 C   0  0  0  0  0  0  0  0  0  0  0  0
   45.3630   31.7710   49.0200 C   0  0  0  0  0  0  0  0  0  0  0  0
   45.1430   32.6460   47.9760 C   0  0  0  0  0  0  0  0  0  0  0  0
   47.7640   31.9830   46.0360 H   0  0  0  0  0  0  0  0  0  0  0  0
   46.6460   30.2570   49.8200 H   0  0  0  0  0  0  0  0  0  0  0  0
   44.6510   31.7480   49.8450 H   0  0  0  0  0  0  0  0  0  0  0  0
   44.2760   33.2990   47.9800 H   0  0  0  0  0  0  0  0  0  0  0  0
   44.5660   35.5350   45.0100 C   0  0  0  0  0  0  0  0  0  0  0  0
   45.2190   35.4730   43.7740 C   0  0  0  0  0  0  0  0  0  0  0  0
   46.1670   34.4520   43.5860 C   0  0  0  0  0  0  0  0  0  0  0  0
   46.4140   33.5670   44.6010 N   0  0  0  0  0  0  0  0  0  0  0  0
   45.7430   33.6760   45.7910 C   0  0  0  0  0  0  0  0  0  0  0  0
   44.8220   34.6550   45.9980 N   0  0  0  0  0  0  0  0  0  0  0  0
   43.8460   36.3380   45.1050 H   0  0  0  0  0  0  0  0  0  0  0  0
   45.0160   36.1820   42.9700 H   0  0  0  0  0  0  0  0  0  0  0  0
   46.6940   34.3710   42.6430 H   0  0  0  0  0  0  0  0  0  0  0  0
   48.7790   29.9860   47.8430 S   0  0  0  0  0  0  0  0  0  0  0  0
   50.1730   28.8400   49.7900 C   0  0  0  0  0  0  0  0  0  0  0  0
   49.7080   30.0530   49.3580 C   0  0  0  0  0  0  0  0  0  0  0  0
   49.9970   31.1550   50.1150 C   0  0  0  0  0  0  0  0  0  0  0  0
   49.5960   32.0980   49.7160 H   0  0  0  0  0  0  0  0  0  0  0  0
   50.7300   31.0730   51.2750 C   0  0  0  0  0  0  0  0  0  0  0  0
   50.9260   31.9930   51.8330 H   0  0  0  0  0  0  0  0  0  0  0  0
   51.2050   29.8540   51.7190 C   0  0  0  0  0  3  0  0  0  0  0  0
   50.9160   28.7270   50.9570 C   0  0  0  0  0  3  0  0  0  0  0  0
   48.9600   26.7390   49.0700 N   0  0  0  0  0  0  0  0  0  0  0  0
   49.9520   27.5650   49.0960 C   0  0  0  0  0  0  0  0  0  0  0  0
   51.0690   27.1880   48.3020 N   0  0  0  0  0  0  0  0  0  0  0  0
   48.0750   26.8690   49.5910 H   0  0  0  0  0  0  0  0  0  0  0  0
   51.7130   26.4750   48.7130 H   0  0  0  0  0  0  0  0  0  0  0  0
   51.8890   26.9130   47.7190 H   0  0  0  0  0  0  0  0  0  0  0  0
  1  6  1  0  0  0  0
  2  1  2  0  0  0  0
  2  3  1  0  0  0  0
  3  4  2  0  0  0  0
  4  5  1  0  0  0  0
  4  8  1  0  0  0  0
  5  9  1  0  0  0  0
  6 10  1  0  0  0  0
  6  5  2  0  0  0  0
  7  2  1  0  0  0  0
 11 17  1  0  0  0  0
 11 16  1  0  0  0  0
 12 11  2  0  0  0  0
 13 12  1  0  0  0  0
 13 14  2  0  0  0  0
 14 15  1  0  0  0  0
 15 16  2  0  0  0  0
 15  1  1  0  0  0  0
 18 12  1  0  0  0  0
 19 13  1  0  0  0  0
 20  3  1  0  0  0  0
 20 22  1  0  0  0  0
 21 28  1  0  0  0  0
 22 21  2  0  0  0  0
 22 23  1  0  0  0  0
 23 25  2  0  0  0  0
 24 23  1  0  0  0  0
 25 27  1  0  0  0  0
 25 26  1  0  0  0  0
 28 27  2  0  0  0  0
 29 30  2  0  0  0  0
 29 32  1  0  0  0  0
 30 21  1  0  0  0  0
 31 33  1  0  0  0  0
 31 30  1  0  0  0  0
 34 31  1  0  0  0  0
M  END
>  <minimizedAffinity>
-6.0007863

>  <minimizedRMSD>
1.40034318

$$$$
