
 OpenBabel03242523283D

 26 27  0  0  0  0  0  0  0  0999 V2000
   47.7600   29.7810   47.8990 C   0  0  0  0  0  0  0  0  0  0  0  0
   47.3590   31.0770   48.1420 C   0  0  0  0  0  0  0  0  0  0  0  0
   48.1840   31.9480   48.8210 C   0  0  0  0  0  0  0  0  0  0  0  0
   47.8440   32.9600   48.9980 H   0  0  0  0  0  0  0  0  0  0  0  0
   49.4340   31.5960   49.2950 C   0  0  0  0  0  0  0  0  0  0  0  0
   50.0960   32.2470   49.8250 H   0  0  0  0  0  0  0  0  0  0  0  0
   49.8320   30.2970   49.0500 C   0  0  0  0  0  0  0  0  0  0  0  0
   49.0230   29.4080   48.3720 C   0  0  0  0  0  0  0  0  0  0  0  0
   47.0820   28.6040   45.9260 N   0  0  0  0  0  0  0  0  0  0  0  0
   47.0330   28.7260   47.2030 C   0  0  0  0  0  0  0  0  0  0  0  0
   46.2320   27.7710   47.8820 N   0  0  0  0  0  0  0  0  0  0  0  0
   46.5640   27.8540   45.4410 H   0  0  0  0  0  0  0  0  0  0  0  0
   46.8430   27.1260   48.4290 H   0  0  0  0  0  0  0  0  0  0  0  0
   45.7070   27.0520   48.4010 H   0  0  0  0  0  0  0  0  0  0  0  0
   46.0260   31.4270   47.6280 C   0  0  0  0  0  0  0  0  0  0  0  0
   45.4370   31.9860   48.4070 H   0  0  0  0  0  0  0  0  0  0  0  0
   45.4910   30.5210   47.3640 H   0  0  0  0  0  0  0  0  0  0  0  0
   45.6190   34.2330   45.2130 C   0  0  0  0  0  0  0  0  0  0  0  0
   46.4630   33.8460   44.1700 C   0  0  0  0  0  0  0  0  0  0  0  0
   47.1450   32.6450   44.3140 C   0  0  0  0  0  0  0  0  0  0  0  0
   46.9720   31.9020   45.4460 N   0  0  0  0  0  0  0  0  0  0  0  0
   46.1310   32.3330   46.4340 C   0  0  0  0  0  0  0  0  0  0  0  0
   45.4730   33.4840   46.3010 N   0  0  0  0  0  0  0  0  0  0  0  0
   45.1060   35.1730   45.0610 H   0  0  0  0  0  0  0  0  0  0  0  0
   46.6430   34.3940   43.2450 H   0  0  0  0  0  0  0  0  0  0  0  0
   47.8350   32.2200   43.5840 H   0  0  0  0  0  0  0  0  0  0  0  0
  1  2  2  0  0  0  0
  1  8  1  0  0  0  0
  2  3  1  0  0  0  0
  3  4  1  0  0  0  0
  3  5  2  0  0  0  0
  5  6  1  0  0  0  0
  7  5  1  0  0  0  0
  8  7  2  0  0  0  0
  9 10  2  0  0  0  0
 10 11  1  0  0  0  0
 10  1  1  0  0  0  0
 11 14  1  0  0  0  0
 11 13  1  0  0  0  0
 12  9  1  0  0  0  0
 15  2  1  0  0  0  0
 15 16  1  0  0  0  0
 17 15  1  0  0  0  0
 18 23  1  0  0  0  0
 19 20  1  0  0  0  0
 19 18  2  0  0  0  0
 20 21  2  0  0  0  0
 21 22  1  0  0  0  0
 22 15  1  0  0  0  0
 23 22  2  0  0  0  0
 24 18  1  0  0  0  0
 25 19  1  0  0  0  0
 26 20  1  0  0  0  0
M  END
>  <minimizedAffinity>
-3.92793369

>  <minimizedRMSD>
2.85096335

$$$$
