
 OpenBabel03242511083D

 48 52  0  0  1  0  0  0  0  0999 V2000
   46.3070   32.2230   44.1320 C   0  0  0  0  0  0  0  0  0  0  0  0
   46.4530   31.5210   45.3260 C   0  0  0  0  0  0  0  0  0  0  0  0
   46.0660   32.0310   46.5600 C   0  0  0  0  0  0  0  0  0  0  0  0
   45.5080   33.2910   46.6420 C   0  0  0  0  0  0  0  0  0  0  0  0
   45.3500   34.0020   45.4970 C   0  0  0  0  0  0  0  0  0  0  0  0
   44.7910   35.2600   45.5670 C   0  0  0  0  0  0  0  0  0  0  0  0
   44.5960   36.0400   44.4340 C   0  0  0  0  0  0  0  0  0  0  0  0
   44.9940   35.4940   43.2180 C   0  0  0  0  0  0  0  0  0  0  0  0
   45.5560   34.2220   43.1820 C   0  0  0  0  0  0  0  0  0  0  0  0
   45.7470   33.4590   44.2930 C   0  0  0  0  0  0  0  0  0  0  0  0
   46.8810   30.5270   45.3500 H   0  0  0  0  0  0  0  0  0  0  0  0
   46.1990   31.4460   47.4650 H   0  0  0  0  0  0  0  0  0  0  0  0
   45.2220   33.6490   47.6150 H   0  0  0  0  0  0  0  0  0  0  0  0
   44.4970   35.6370   46.5440 H   0  0  0  0  0  0  0  0  0  0  0  0
   44.1490   37.0130   44.6110 H   0  0  0  0  0  0  0  0  0  0  0  0
   44.7920   36.1930   42.4180 H   0  0  0  0  0  0  0  0  0  0  0  0
   44.7080   33.4220   41.1200 C   0  0  0  0  0  0  0  0  0  0  0  0
   45.8340   33.9310   41.7880 C   0  0  0  0  0  0  0  0  0  0  0  0
   46.9530   34.0970   40.9970 C   0  0  0  0  0  0  0  0  0  0  0  0
   47.7790   34.5020   41.5980 H   0  0  0  0  0  0  0  0  0  0  0  0
   46.9870   33.7930   39.6610 C   0  0  0  0  0  0  0  0  0  0  0  0
   47.9500   33.9860   39.2050 H   0  0  0  0  0  0  0  0  0  0  0  0
   45.8780   33.2940   39.0160 C   0  0  0  0  0  3  0  0  0  0  0  0
   44.7460   33.1170   39.7730 C   0  0  0  0  0  3  0  0  0  0  0  0
   42.4180   33.9470   41.6900 N   0  0  0  0  0  0  0  0  0  0  0  0
   43.4370   33.1670   41.7410 C   0  0  0  0  0  0  0  0  0  0  0  0
   43.1630   31.9960   42.4980 N   0  0  0  0  0  0  0  0  0  0  0  0
   41.5170   33.7340   42.1500 H   0  0  0  0  0  0  0  0  0  0  0  0
   42.7280   31.1110   42.0970 H   0  0  0  0  0  0  0  0  0  0  0  0
   43.3920   31.9540   43.5340 H   0  0  0  0  0  0  0  0  0  0  0  0
   46.7340   31.6290   42.9370 N   0  0  0  0  0  0  0  0  0  0  0  0
   46.2290   31.8420   42.0490 H   0  0  0  0  0  0  0  0  0  0  0  0
   49.2220   31.1060   42.8010 C   0  0  1  0  0  0  0  0  0  0  0  0
   48.5550   30.5190   41.5740 C   0  0  0  0  0  0  0  0  0  0  0  0
   47.8290   30.7020   42.9020 C   0  0  2  0  0  0  0  0  0  0  0  0
   49.6010   32.1310   42.5780 H   0  0  0  0  0  0  0  0  0  0  0  0
   48.2620   31.1580   40.7330 H   0  0  0  0  0  0  0  0  0  0  0  0
   48.7870   29.4630   41.2940 H   0  0  0  0  0  0  0  0  0  0  0  0
   47.6420   29.7530   43.4810 H   0  0  0  0  0  0  0  0  0  0  0  0
   50.8850   28.7430   45.1420 C   0  0  0  0  0  0  0  0  0  0  0  0
   52.2560   28.8950   44.7490 C   0  0  0  0  0  0  0  0  0  0  0  0
   52.5640   29.7900   43.6900 C   0  0  0  0  0  0  0  0  0  0  0  0
   51.5660   30.4530   43.1040 N   0  0  0  0  0  0  0  0  0  0  0  0
   50.2750   30.2930   43.4930 C   0  0  0  0  0  0  0  0  0  0  0  0
   49.9330   29.4370   44.5130 N   0  0  0  0  0  0  0  0  0  0  0  0
   50.6700   28.0560   45.9520 H   0  0  0  0  0  0  0  0  0  0  0  0
   53.0100   28.3370   45.2570 H   0  0  0  0  0  0  0  0  0  0  0  0
   53.6000   29.8960   43.4020 H   0  0  0  0  0  0  0  0  0  0  0  0
  1 10  2  0  0  0  0
  1  2  1  0  0  0  0
  2 11  1  0  0  0  0
  2  3  2  0  0  0  0
  3  4  1  0  0  0  0
  3 12  1  0  0  0  0
  4 13  1  0  0  0  0
  5  6  1  0  0  0  0
  5  4  2  0  0  0  0
  6 14  1  0  0  0  0
  7 15  1  0  0  0  0
  7  6  2  0  0  0  0
  8  7  1  0  0  0  0
  9  8  2  0  0  0  0
  9 10  1  0  0  0  0
 10  5  1  0  0  0  0
 16  8  1  0  0  0  0
 17 26  1  0  0  0  0
 17 18  1  0  0  0  0
 18  9  1  0  0  0  0
 19 20  1  0  0  0  0
 19 18  2  0  0  0  0
 21 19  1  0  0  0  0
 22 21  1  0  0  0  0
 23 21  2  0  0  0  0
 23 24  1  0  0  0  0
 24 17  2  0  0  0  0
 25 26  2  0  0  0  0
 25 28  1  0  0  0  0
 26 27  1  0  0  0  0
 27 30  1  0  0  0  0
 29 27  1  0  0  0  0
 31  1  1  0  0  0  0
 32 31  1  0  0  0  0
 33 36  1  6  0  0  0
 33 35  1  0  0  0  0
 33 44  1  0  0  0  0
 34 33  1  0  0  0  0
 34 35  1  0  0  0  0
 35 31  1  0  0  0  0
 35 39  1  1  0  0  0
 37 34  1  0  0  0  0
 38 34  1  0  0  0  0
 40 46  1  0  0  0  0
 41 40  1  0  0  0  0
 41 47  1  0  0  0  0
 42 41  2  0  0  0  0
 43 44  2  0  0  0  0
 43 42  1  0  0  0  0
 44 45  1  0  0  0  0
 45 40  2  0  0  0  0
 48 42  1  0  0  0  0
M  END
>  <minimizedAffinity>
-5.63525391

>  <minimizedRMSD>
2.00908303

$$$$
