
 OpenBabel03242523343D

 42 45  0  0  0  0  0  0  0  0999 V2000
   44.5160   35.9330   44.5020 C   0  0  0  0  0  0  0  0  0  0  0  0
   44.9180   35.4720   43.2290 C   0  0  0  0  0  0  0  0  0  0  0  0
   45.5650   34.2370   43.1280 C   0  0  0  0  0  0  0  0  0  0  0  0
   45.7910   33.5090   44.2640 N   0  0  0  0  0  0  0  0  0  0  0  0
   45.3840   33.9950   45.4650 C   0  0  0  0  0  0  0  0  0  0  0  0
   44.7550   35.1920   45.5770 N   0  0  0  0  0  0  0  0  0  0  0  0
   44.0110   36.8650   44.7040 H   0  0  0  0  0  0  0  0  0  0  0  0
   44.6420   36.2020   42.4930 H   0  0  0  0  0  0  0  0  0  0  0  0
   47.2100   33.4160   41.5040 C   0  0  0  0  0  0  0  0  0  0  0  0
   45.9490   33.8720   41.7820 C   0  0  0  0  0  0  0  0  0  0  0  0
   45.1210   33.9440   40.7120 C   0  0  0  0  0  0  0  0  0  0  0  0
   44.1010   34.2870   40.8010 H   0  0  0  0  0  0  0  0  0  0  0  0
   45.4430   33.6060   39.4200 C   0  0  0  0  0  0  0  0  0  0  0  0
   44.7510   33.6790   38.5990 H   0  0  0  0  0  0  0  0  0  0  0  0
   46.7350   33.1390   39.1480 C   0  0  0  0  0  3  0  0  0  0  0  0
   47.5980   33.0560   40.2150 C   0  0  0  0  0  3  0  0  0  0  0  0
   49.1720   32.4360   42.8710 N   0  0  0  0  0  0  0  0  0  0  0  0
   48.3090   33.2990   42.4180 C   0  0  0  0  0  0  0  0  0  0  0  0
   48.7920   34.4230   43.1400 N   0  0  0  0  0  0  0  0  0  0  0  0
   49.1640   31.4340   42.5730 H   0  0  0  0  0  0  0  0  0  0  0  0
   49.1860   35.1900   43.7270 H   0  0  0  0  0  0  0  0  0  0  0  0
   48.6330   35.4500   42.9170 H   0  0  0  0  0  0  0  0  0  0  0  0
   45.6540   33.1290   46.6350 C   0  0  0  0  0  0  0  0  0  0  0  0
   44.7150   32.8400   47.1650 H   0  0  0  0  0  0  0  0  0  0  0  0
   46.2170   33.7430   47.3600 H   0  0  0  0  0  0  0  0  0  0  0  0
   46.5580   31.6810   46.0620 S   0  0  0  0  0  0  0  0  0  0  0  0
   47.6230   31.0580   47.3460 C   0  0  0  0  0  0  0  0  0  0  0  0
   47.9460   31.9110   48.3700 C   0  0  0  0  0  0  0  0  0  0  0  0
   48.7520   31.4370   49.3810 C   0  0  0  0  0  0  0  0  0  0  0  0
   49.2420   30.1330   49.3900 C   0  0  0  0  0  0  0  0  0  0  0  0
   50.0270   29.7100   50.3990 N   0  0  0  0  0  0  0  0  0  0  0  0
   50.5050   28.4430   50.4120 C   0  0  0  0  0  0  0  0  0  0  0  0
   50.1840   27.5990   49.3910 C   0  0  0  0  0  0  0  0  0  0  0  0
   49.3750   28.0340   48.3520 C   0  0  0  0  0  0  0  0  0  0  0  0
   48.8740   29.3400   48.3280 C   0  0  0  0  0  0  0  0  0  0  0  0
   48.0670   29.7610   47.2870 C   0  0  0  0  0  0  0  0  0  0  0  0
   47.6650   32.9350   48.5220 H   0  0  0  0  0  0  0  0  0  0  0  0
   49.0650   32.0470   50.2420 H   0  0  0  0  0  0  0  0  0  0  0  0
   51.1440   28.0720   51.2150 H   0  0  0  0  0  0  0  0  0  0  0  0
   50.5030   26.5720   49.2910 H   0  0  0  0  0  0  0  0  0  0  0  0
   49.0920   27.4040   47.5220 H   0  0  0  0  0  0  0  0  0  0  0  0
   47.7990   29.1090   46.4690 H   0  0  0  0  0  0  0  0  0  0  0  0
  1  7  1  0  0  0  0
  1  6  1  0  0  0  0
  2  1  2  0  0  0  0
  3  2  1  0  0  0  0
  3  4  2  0  0  0  0
  4  5  1  0  0  0  0
  5  6  2  0  0  0  0
  5 23  1  0  0  0  0
  8  2  1  0  0  0  0
  9 10  1  0  0  0  0
  9 18  1  0  0  0  0
 10  3  1  0  0  0  0
 11 12  1  0  0  0  0
 11 10  2  0  0  0  0
 13 11  1  0  0  0  0
 14 13  1  0  0  0  0
 15 13  2  0  0  0  0
 15 16  1  0  0  0  0
 16  9  2  0  0  0  0
 18 17  2  0  0  0  0
 18 19  1  0  0  0  0
 19 21  1  0  0  0  0
 20 17  1  0  0  0  0
 22 19  1  0  0  0  0
 23 24  1  0  0  0  0
 23 25  1  0  0  0  0
 26 23  1  0  0  0  0
 26 27  1  0  0  0  0
 27 28  1  0  0  0  0
 28 37  1  0  0  0  0
 28 29  2  0  0  0  0
 29 30  1  0  0  0  0
 29 38  1  0  0  0  0
 30 31  1  0  0  0  0
 31 32  2  0  0  0  0
 32 39  1  0  0  0  0
 33 32  1  0  0  0  0
 34 33  2  0  0  0  0
 35 34  1  0  0  0  0
 35 30  2  0  0  0  0
 36 27  2  0  0  0  0
 36 35  1  0  0  0  0
 40 33  1  0  0  0  0
 41 34  1  0  0  0  0
 42 36  1  0  0  0  0
M  END
>  <minimizedAffinity>
-5.97588348

>  <minimizedRMSD>
1.63110089

$$$$
