
 OpenBabel03242519383D

 32 33  0  0  0  0  0  0  0  0999 V2000
   48.0450   32.9120   41.8240 O   0  0  0  0  0  0  0  0  0  0  0  0
   47.2100   34.0930   41.3090 P   0  0  2  0  0  0  0  0  0  0  0  0
   45.6120   33.9190   41.9080 O   0  0  0  0  0  0  0  0  0  0  0  0
   44.3770   35.9390   44.6960 C   0  0  0  0  0  0  0  0  0  0  0  0
   44.6680   35.5540   43.3660 C   0  0  0  0  0  0  0  0  0  0  0  0
   45.3080   34.3320   43.2020 C   0  0  0  0  0  0  0  0  0  0  0  0
   45.6250   33.5700   44.2890 N   0  0  0  0  0  0  0  0  0  0  0  0
   45.3190   33.9910   45.5470 C   0  0  0  0  0  0  0  0  0  0  0  0
   44.7040   35.1580   45.7510 N   0  0  0  0  0  0  0  0  0  0  0  0
   43.8750   36.8890   44.8890 H   0  0  0  0  0  0  0  0  0  0  0  0
   44.3850   36.2150   42.5720 H   0  0  0  0  0  0  0  0  0  0  0  0
   45.5790   33.3690   46.3900 H   0  0  0  0  0  0  0  0  0  0  0  0
   47.1840   34.1860   39.6490 O   0  0  0  0  0  0  0  0  0  0  0  0
   46.4500   32.4870   38.0590 C   0  0  0  0  0  0  0  0  0  0  0  0
   47.4110   33.0480   38.8860 C   0  0  0  0  0  0  0  0  0  0  0  0
   48.6220   32.3850   38.8960 C   0  0  0  0  0  0  0  0  0  0  0  0
   49.4430   32.7530   39.5180 H   0  0  0  0  0  0  0  0  0  0  0  0
   48.9220   31.2520   38.1670 C   0  0  0  0  0  0  0  0  0  0  0  0
   49.8930   30.7790   38.2190 H   0  0  0  0  0  0  0  0  0  0  0  0
   47.9200   30.7520   37.3680 C   0  0  0  0  0  3  0  0  0  0  0  0
   46.6780   31.3520   37.3000 C   0  0  0  0  0  3  0  0  0  0  0  0
   44.5860   33.2380   36.8120 N   0  0  0  0  0  0  0  0  0  0  0  0
   45.1380   33.1180   37.9830 C   0  0  0  0  0  0  0  0  0  0  0  0
   44.3510   33.6390   39.0480 N   0  0  0  0  0  0  0  0  0  0  0  0
   43.6460   33.6820   36.6930 H   0  0  0  0  0  0  0  0  0  0  0  0
   43.7270   32.8040   39.2290 H   0  0  0  0  0  0  0  0  0  0  0  0
   44.3290   34.5510   39.5540 H   0  0  0  0  0  0  0  0  0  0  0  0
   47.8580   35.4840   42.0030 O   0  0  0  0  0  0  0  0  0  0  0  0
   49.0880   35.8230   41.4670 C   0  0  0  0  0  0  0  0  0  0  0  0
   49.5040   37.1040   41.8140 F   0  0  0  0  0  0  0  0  0  0  0  0
   50.0190   34.8580   41.7810 F   0  0  0  0  0  0  0  0  0  0  0  0
   48.9270   35.8260   40.0850 F   0  0  0  0  0  0  0  0  0  0  0  0
  2  1  2  1  0  0  0
  2  3  1  0  0  0  0
  2 28  1  0  0  0  0
  3  6  1  0  0  0  0
  4 10  1  0  0  0  0
  4  9  1  0  0  0  0
  5  4  2  0  0  0  0
  6  5  1  0  0  0  0
  6  7  2  0  0  0  0
  7  8  1  0  0  0  0
  8  9  2  0  0  0  0
  8 12  1  0  0  0  0
 11  5  1  0  0  0  0
 13  2  1  0  0  0  0
 14 15  1  0  0  0  0
 15 16  2  0  0  0  0
 15 13  1  0  0  0  0
 16 17  1  0  0  0  0
 18 19  1  0  0  0  0
 18 16  1  0  0  0  0
 20 18  2  0  0  0  0
 21 20  1  0  0  0  0
 21 14  2  0  0  0  0
 22 23  2  0  0  0  0
 23 14  1  0  0  0  0
 23 24  1  0  0  0  0
 24 26  1  0  0  0  0
 24 27  1  0  0  0  0
 25 22  1  0  0  0  0
 29 31  1  0  0  0  0
 29 30  1  0  0  0  0
 29 28  1  0  0  0  0
 32 29  1  0  0  0  0
M  END
>  <minimizedAffinity>
-5.42376423

>  <minimizedRMSD>
1.01700914

$$$$
