
 OpenBabel03242519033D

 37 39  0  0  1  0  0  0  0  0999 V2000
   47.9890   33.7250   42.5570 N   0  0  0  0  0  0  0  0  0  0  0  0
   47.9910   32.7760   41.4620 C   0  0  0  0  0  0  0  0  0  0  0  0
   49.2910   32.0920   41.7430 C   0  0  2  0  0  0  0  0  0  0  0  0
   50.2170   33.2730   41.9370 C   0  0  0  0  0  0  0  0  0  0  0  0
   49.3270   34.2790   42.6240 C   0  0  0  0  0  0  0  0  0  0  0  0
   47.1710   32.0770   41.4910 H   0  0  0  0  0  0  0  0  0  0  0  0
   48.1010   33.3310   40.5100 H   0  0  0  0  0  0  0  0  0  0  0  0
   49.2570   31.4510   42.6530 H   0  0  0  0  0  0  0  0  0  0  0  0
   50.5060   33.6180   40.9110 H   0  0  0  0  0  0  0  0  0  0  0  0
   51.0810   32.9650   42.5400 H   0  0  0  0  0  0  0  0  0  0  0  0
   49.6050   34.3120   43.7150 H   0  0  0  0  0  0  0  0  0  0  0  0
   49.4010   35.2750   42.1400 H   0  0  0  0  0  0  0  0  0  0  0  0
   45.5970   33.9470   45.4060 C   0  0  0  0  0  0  0  0  0  0  0  0
   46.6580   33.4840   44.6370 C   0  0  0  0  0  0  0  0  0  0  0  0
   46.9490   34.0930   43.4270 C   0  0  0  0  0  0  0  0  0  0  0  0
   46.1510   35.1510   43.0380 N   0  0  0  0  0  0  0  0  0  0  0  0
   45.1170   35.5860   43.8060 C   0  0  0  0  0  0  0  0  0  0  0  0
   44.8440   34.9760   44.9970 N   0  0  0  0  0  0  0  0  0  0  0  0
   45.3940   33.4530   46.3470 H   0  0  0  0  0  0  0  0  0  0  0  0
   47.2960   32.6500   44.9340 H   0  0  0  0  0  0  0  0  0  0  0  0
   44.5520   36.4200   43.4140 H   0  0  0  0  0  0  0  0  0  0  0  0
   49.7730   31.3230   40.6340 N   0  0  0  0  0  0  0  0  0  0  0  0
   49.0870   30.6620   40.1570 H   0  0  0  0  0  0  0  0  0  0  0  0
   51.2940   31.6380   38.7150 C   0  0  0  0  0  0  0  0  0  0  0  0
   51.0520   31.2710   40.0220 C   0  0  0  0  0  0  0  0  0  0  0  0
   52.1870   30.8590   40.6860 C   0  0  0  0  0  0  0  0  0  0  0  0
   52.1660   30.5490   41.7200 H   0  0  0  0  0  0  0  0  0  0  0  0
   53.4400   30.8060   40.1380 C   0  0  0  0  0  0  0  0  0  0  0  0
   54.3240   30.4770   40.6800 H   0  0  0  0  0  0  0  0  0  0  0  0
   53.6260   31.1810   38.8360 C   0  0  0  0  0  0  0  0  0  0  0  0
   52.5240   31.6000   38.1320 C   0  0  0  0  0  0  0  0  0  0  0  0
   49.2410   31.3350   37.5370 N   0  0  0  0  0  0  0  0  0  0  0  0
   50.2210   32.1020   37.8710 C   0  0  0  0  0  0  0  0  0  0  0  0
   49.7500   33.2240   37.1560 N   0  0  0  0  0  0  0  0  0  0  0  0
   48.4630   31.6450   36.9310 H   0  0  0  0  0  0  0  0  0  0  0  0
   49.0370   33.9210   37.4610 H   0  0  0  0  0  0  0  0  0  0  0  0
   50.1540   33.3910   36.2080 H   0  0  0  0  0  0  0  0  0  0  0  0
  1  5  1  0  0  0  0
  1 15  1  0  0  0  0
  2  6  1  0  0  0  0
  2  3  1  0  0  0  0
  2  1  1  0  0  0  0
  3  4  1  0  0  0  0
  3  8  1  1  0  0  0
  4 10  1  0  0  0  0
  4  5  1  0  0  0  0
  5 11  1  0  0  0  0
  7  2  1  0  0  0  0
  9  4  1  0  0  0  0
 12  5  1  0  0  0  0
 13 19  1  0  0  0  0
 14 20  1  0  0  0  0
 14 13  2  0  0  0  0
 15 14  1  0  0  0  0
 16 15  2  0  0  0  0
 16 17  1  0  0  0  0
 17 18  2  0  0  0  0
 18 13  1  0  0  0  0
 21 17  1  0  0  0  0
 22  3  1  0  0  0  0
 23 22  1  0  0  0  0
 24 25  1  0  0  0  0
 25 22  1  0  0  0  0
 25 26  2  0  0  0  0
 26 27  1  0  0  0  0
 28 29  1  0  0  0  0
 28 26  1  0  0  0  0
 30 28  2  0  0  0  0
 31 24  2  0  0  0  0
 31 30  1  0  0  0  0
 32 33  2  0  0  0  0
 33 24  1  0  0  0  0
 34 36  1  0  0  0  0
 34 33  1  0  0  0  0
 35 32  1  0  0  0  0
 37 34  1  0  0  0  0
M  END
>  <minimizedAffinity>
-4.92509508

>  <minimizedRMSD>
4.46486664

$$$$
