
 OpenBabel03252509263D

 35 37  0  0  1  0  0  0  0  0999 V2000
   47.0920   35.0250   41.8630 C   0  0  1  0  0  0  0  0  0  0  0  0
   48.4490   35.7680   42.0120 C   0  0  0  0  0  0  0  0  0  0  0  0
   48.2300   34.3610   41.3810 C   0  0  2  0  0  0  0  0  0  0  0  0
   46.3680   35.5580   41.2140 H   0  0  0  0  0  0  0  0  0  0  0  0
   48.5860   36.5940   41.2960 H   0  0  0  0  0  0  0  0  0  0  0  0
   48.9380   35.7820   42.9890 H   0  0  0  0  0  0  0  0  0  0  0  0
   48.7080   33.5300   41.9790 H   0  0  0  0  0  0  0  0  0  0  0  0
   44.9390   34.8910   44.9310 C   0  0  0  0  0  0  0  0  0  0  0  0
   45.4370   35.3530   43.6630 C   0  0  0  0  0  0  0  0  0  0  0  0
   46.5260   34.6770   43.2210 C   0  0  0  0  0  0  0  0  0  0  0  0
   47.1070   33.6400   43.9270 N   0  0  0  0  0  0  0  0  0  0  0  0
   46.6010   33.2460   45.1110 C   0  0  0  0  0  0  0  0  0  0  0  0
   45.5100   33.8750   45.6150 N   0  0  0  0  0  0  0  0  0  0  0  0
   44.0690   35.4070   45.3150 H   0  0  0  0  0  0  0  0  0  0  0  0
   47.1440   32.4330   45.5530 H   0  0  0  0  0  0  0  0  0  0  0  0
   44.8620   36.4270   42.9670 N   0  0  0  0  0  0  0  0  0  0  0  0
   44.2080   35.8070   42.4560 H   0  0  0  0  0  0  0  0  0  0  0  0
   45.4830   37.1550   43.4280 H   0  0  0  0  0  0  0  0  0  0  0  0
   48.4570   34.1840   39.8970 C   0  0  0  0  0  0  0  0  0  0  0  0
   49.3920   34.7430   39.6720 H   0  0  0  0  0  0  0  0  0  0  0  0
   47.5890   34.6730   39.3890 H   0  0  0  0  0  0  0  0  0  0  0  0
   49.3090   31.8830   40.1330 C   0  0  0  0  0  0  0  0  0  0  0  0
   48.5140   32.7850   39.4600 C   0  0  0  0  0  0  0  0  0  0  0  0
   47.7690   32.3750   38.3740 C   0  0  0  0  0  0  0  0  0  0  0  0
   47.1510   33.1350   37.8740 H   0  0  0  0  0  0  0  0  0  0  0  0
   47.8240   31.0620   37.9700 C   0  0  0  0  0  0  0  0  0  0  0  0
   47.2020   30.8250   37.1040 H   0  0  0  0  0  0  0  0  0  0  0  0
   48.6090   30.1370   38.6240 C   0  0  0  0  0  3  0  0  0  0  0  0
   49.3290   30.5790   39.6880 C   0  0  0  0  0  3  0  0  0  0  0  0
   49.9210   32.1990   42.5490 N   0  0  0  0  0  0  0  0  0  0  0  0
   50.1380   32.1880   41.2810 C   0  0  0  0  0  0  0  0  0  0  0  0
   51.5010   32.5690   41.1050 N   0  0  0  0  0  0  0  0  0  0  0  0
   50.6610   32.4510   43.2320 H   0  0  0  0  0  0  0  0  0  0  0  0
   51.6510   33.6120   41.1270 H   0  0  0  0  0  0  0  0  0  0  0  0
   52.2470   31.8520   40.9710 H   0  0  0  0  0  0  0  0  0  0  0  0
  1  4  1  6  0  0  0
  1  2  1  0  0  0  0
  1 10  1  0  0  0  0
  2  6  1  0  0  0  0
  3  1  1  0  0  0  0
  3  7  1  1  0  0  0
  3  2  1  0  0  0  0
  5  2  1  0  0  0  0
  8 14  1  0  0  0  0
  8 13  1  0  0  0  0
  9  8  2  0  0  0  0
 10  9  1  0  0  0  0
 10 11  2  0  0  0  0
 11 12  1  0  0  0  0
 12 15  1  0  0  0  0
 12 13  2  0  0  0  0
 16 18  1  0  0  0  0
 16  9  1  0  0  0  0
 17 16  1  0  0  0  0
 19  3  1  0  0  0  0
 20 19  1  0  0  0  0
 21 19  1  0  0  0  0
 22 31  1  0  0  0  0
 23 19  1  0  0  0  0
 23 22  2  0  0  0  0
 24 23  1  0  0  0  0
 25 24  1  0  0  0  0
 26 24  2  0  0  0  0
 26 28  1  0  0  0  0
 27 26  1  0  0  0  0
 28 29  2  0  0  0  0
 29 22  1  0  0  0  0
 30 33  1  0  0  0  0
 31 30  2  0  0  0  0
 32 34  1  0  0  0  0
 32 31  1  0  0  0  0
 35 32  1  0  0  0  0
M  END
>  <minimizedAffinity>
-4.77113581

>  <minimizedRMSD>
0.858094156

$$$$
