
 OpenBabel03252501553D

 26 27  0  0  0  0  0  0  0  0999 V2000
   47.9800   34.4750   41.2910 C   0  0  0  0  0  0  0  0  0  0  0  0
   46.8020   33.8990   41.6830 C   0  0  0  0  0  0  0  0  0  0  0  0
   46.0050   33.3350   40.6890 C   0  0  0  0  0  0  0  0  0  0  0  0
   45.0630   32.8660   40.9490 H   0  0  0  0  0  0  0  0  0  0  0  0
   46.3330   33.3230   39.3410 C   0  0  0  0  0  0  0  0  0  0  0  0
   45.6910   32.8770   38.5990 H   0  0  0  0  0  0  0  0  0  0  0  0
   47.5300   33.9120   38.9690 C   0  0  0  0  0  3  0  0  0  0  0  0
   48.3170   34.4690   39.9530 C   0  0  0  0  0  3  0  0  0  0  0  0
   45.0260   34.9420   44.7150 C   0  0  0  0  0  0  0  0  0  0  0  0
   45.4590   34.8450   43.3840 C   0  0  0  0  0  0  0  0  0  0  0  0
   46.4480   33.8960   43.0640 C   0  0  0  0  0  0  0  0  0  0  0  0
   46.9010   33.1510   44.0760 N   0  0  0  0  0  0  0  0  0  0  0  0
   46.4800   33.2510   45.3420 C   0  0  0  0  0  0  0  0  0  0  0  0
   45.5260   34.1520   45.7080 N   0  0  0  0  0  0  0  0  0  0  0  0
   44.2770   35.6280   45.0860 H   0  0  0  0  0  0  0  0  0  0  0  0
   47.0220   32.5210   45.9530 H   0  0  0  0  0  0  0  0  0  0  0  0
   44.7940   35.7920   42.4670 C   0  0  0  0  0  0  0  0  0  0  0  0
   45.4670   35.9630   41.5830 H   0  0  0  0  0  0  0  0  0  0  0  0
   44.6870   36.7670   42.9790 H   0  0  0  0  0  0  0  0  0  0  0  0
   43.8230   35.4010   42.0930 H   0  0  0  0  0  0  0  0  0  0  0  0
   49.5580   34.6270   43.1420 N   0  0  0  0  0  0  0  0  0  0  0  0
   48.9620   35.1180   42.1410 C   0  0  0  0  0  0  0  0  0  0  0  0
   49.3810   36.4780   41.9050 N   0  0  0  0  0  0  0  0  0  0  0  0
   50.2480   35.0720   43.7470 H   0  0  0  0  0  0  0  0  0  0  0  0
   50.2220   36.6560   41.3230 H   0  0  0  0  0  0  0  0  0  0  0  0
   48.7900   37.2130   42.3500 H   0  0  0  0  0  0  0  0  0  0  0  0
  1  2  1  0  0  0  0
  1 22  1  0  0  0  0
  2 11  1  0  0  0  0
  3  4  1  0  0  0  0
  3  2  2  0  0  0  0
  5  3  1  0  0  0  0
  6  5  1  0  0  0  0
  7  5  2  0  0  0  0
  7  8  1  0  0  0  0
  8  1  2  0  0  0  0
  9 15  1  0  0  0  0
  9 14  1  0  0  0  0
 10  9  2  0  0  0  0
 11 10  1  0  0  0  0
 11 12  2  0  0  0  0
 12 13  1  0  0  0  0
 13 14  2  0  0  0  0
 13 16  1  0  0  0  0
 17 19  1  0  0  0  0
 17 10  1  0  0  0  0
 18 17  1  0  0  0  0
 20 17  1  0  0  0  0
 21 24  1  0  0  0  0
 22 21  2  0  0  0  0
 23 22  1  0  0  0  0
 23 26  1  0  0  0  0
 25 23  1  0  0  0  0
M  END
>  <minimizedAffinity>
-5.10429621

>  <minimizedRMSD>
2.72699285

$$$$
