
 OpenBabel03252504053D

 24 25  0  0  0  0  0  0  0  0999 V2000
   46.3070   34.0350   41.0620 C   0  0  0  0  0  0  0  0  0  0  0  0
   46.7170   34.6640   42.1930 C   0  0  0  0  0  0  0  0  0  0  0  0
   47.9410   35.3450   42.1890 C   0  0  0  0  0  0  0  0  0  0  0  0
   48.4260   35.8940   42.9780 H   0  0  0  0  0  0  0  0  0  0  0  0
   48.6650   35.3340   41.0050 C   0  0  0  0  0  0  0  0  0  0  0  0
   49.6310   35.8250   40.8550 H   0  0  0  0  0  0  0  0  0  0  0  0
   48.2040   34.6760   39.8620 C   0  0  0  0  0  3  0  0  0  0  0  0
   47.0020   34.0070   39.8750 C   0  0  0  0  0  3  0  0  0  0  0  0
   44.4710   35.7310   45.0270 C   0  0  0  0  0  0  0  0  0  0  0  0
   45.0550   35.7740   43.7590 C   0  0  0  0  0  0  0  0  0  0  0  0
   46.0050   34.7680   43.4590 C   0  0  0  0  0  0  0  0  0  0  0  0
   46.2910   33.8260   44.4150 N   0  0  0  0  0  0  0  0  0  0  0  0
   45.6940   33.8340   45.6220 C   0  0  0  0  0  0  0  0  0  0  0  0
   44.7960   34.7810   45.9150 N   0  0  0  0  0  0  0  0  0  0  0  0
   43.7500   36.4960   45.2490 H   0  0  0  0  0  0  0  0  0  0  0  0
   45.9340   33.0820   46.3580 H   0  0  0  0  0  0  0  0  0  0  0  0
   44.7800   36.7200   42.7840 O   0  0  0  0  0  0  0  0  0  0  0  0
   45.3830   37.5110   42.6820 H   0  0  0  0  0  0  0  0  0  0  0  0
   45.1320   31.9970   41.2190 N   0  0  0  0  0  0  0  0  0  0  0  0
   45.0550   33.3090   41.1150 C   0  0  0  0  0  0  0  0  0  0  0  0
   43.6470   33.4010   41.0990 N   0  0  0  0  0  0  0  0  0  0  0  0
   46.0150   31.4700   41.2680 H   0  0  0  0  0  0  0  0  0  0  0  0
   43.0380   33.1520   40.2580 H   0  0  0  0  0  0  0  0  0  0  0  0
   43.2310   33.7340   42.0040 H   0  0  0  0  0  0  0  0  0  0  0  0
  1 20  1  0  0  0  0
  1  2  1  0  0  0  0
  2 11  1  0  0  0  0
  3  2  2  0  0  0  0
  3  4  1  0  0  0  0
  5  3  1  0  0  0  0
  6  5  1  0  0  0  0
  7  8  1  0  0  0  0
  7  5  2  0  0  0  0
  8  1  2  0  0  0  0
  9 15  1  0  0  0  0
  9 14  1  0  0  0  0
 10  9  2  0  0  0  0
 11 10  1  0  0  0  0
 11 12  2  0  0  0  0
 12 13  1  0  0  0  0
 13 14  2  0  0  0  0
 13 16  1  0  0  0  0
 17 10  1  0  0  0  0
 18 17  1  0  0  0  0
 19 22  1  0  0  0  0
 20 19  2  0  0  0  0
 21 20  1  0  0  0  0
 21 24  1  0  0  0  0
 23 21  1  0  0  0  0
M  END
>  <minimizedAffinity>
-5.38507748

>  <minimizedRMSD>
0.843696475

$$$$
