
 OpenBabel03242521243D

 47 50  0  0  0  0  0  0  0  0999 V2000
   45.3160   33.7740   45.6250 C   0  0  0  0  0  0  0  0  0  0  0  0
   44.8110   35.0070   45.9210 C   0  0  0  0  0  0  0  0  0  0  0  0
   44.4160   35.9230   44.9710 C   0  0  0  0  0  0  0  0  0  0  0  0
   44.5600   35.5250   43.6810 N   0  0  0  0  0  0  0  0  0  0  0  0
   45.0550   34.3170   43.3850 C   0  0  0  0  0  0  0  0  0  0  0  0
   45.4330   33.4400   44.3230 N   0  0  0  0  0  0  0  0  0  0  0  0
   44.7120   35.2900   46.9600 H   0  0  0  0  0  0  0  0  0  0  0  0
   44.0200   36.8910   45.2080 H   0  0  0  0  0  0  0  0  0  0  0  0
   45.1980   33.9110   41.9690 C   0  0  0  0  0  0  0  0  0  0  0  0
   44.1620   33.2920   41.3280 C   0  0  0  0  0  0  0  0  0  0  0  0
   44.1840   32.8730   40.0140 C   0  0  0  0  0  0  0  0  0  0  0  0
   45.3670   33.1120   39.3120 C   0  0  0  0  0  0  0  0  0  0  0  0
   46.4070   33.7290   39.9400 C   0  0  0  0  0  0  0  0  0  0  0  0
   46.3570   34.1360   41.2550 C   0  0  0  0  0  0  0  0  0  0  0  0
   43.2400   33.1080   41.8810 H   0  0  0  0  0  0  0  0  0  0  0  0
   43.3200   32.3880   39.5760 H   0  0  0  0  0  0  0  0  0  0  0  0
   45.4080   32.7930   38.2830 H   0  0  0  0  0  0  0  0  0  0  0  0
   47.3430   33.9320   39.4270 H   0  0  0  0  0  0  0  0  0  0  0  0
   47.3920   34.7630   41.9210 O   0  0  0  0  0  0  0  0  0  0  0  0
   49.8410   35.3940   42.5680 O   0  0  0  0  0  0  0  0  0  0  0  0
   49.0070   34.8220   41.4300 P   0  0  0  0  0  0  0  0  0  0  0  0
   49.6300   33.3440   40.9270 O   0  0  0  0  0  0  0  0  0  0  0  0
   50.3290   33.4300   40.2510 H   0  0  0  0  0  0  0  0  0  0  0  0
   49.1370   35.9060   40.1340 O   0  0  0  0  0  0  0  0  0  0  0  0
   49.9170   35.6460   39.6090 H   0  0  0  0  0  0  0  0  0  0  0  0
   45.4630   32.0270   48.8330 C   0  0  0  0  0  0  0  0  0  0  0  0
   46.4870   31.0910   48.5970 C   0  0  0  0  0  0  0  0  0  0  0  0
   47.1130   31.0590   47.3690 C   0  0  0  0  0  0  0  0  0  0  0  0
   46.6960   31.9600   46.4240 N   0  0  0  0  0  0  0  0  0  0  0  0
   45.7160   32.8470   46.6660 C   0  0  0  0  0  0  0  0  0  0  0  0
   45.1150   32.8720   47.8540 N   0  0  0  0  0  0  0  0  0  0  0  0
   44.9340   32.0950   49.7860 H   0  0  0  0  0  0  0  0  0  0  0  0
   46.6770   30.4680   49.4520 H   0  0  0  0  0  0  0  0  0  0  0  0
   49.2820   29.9570   47.9270 C   0  0  0  0  0  0  0  0  0  0  0  0
   48.1630   30.0860   47.1440 C   0  0  0  0  0  0  0  0  0  0  0  0
   48.1180   29.1920   46.1050 C   0  0  0  0  0  0  0  0  0  0  0  0
   47.3090   29.1560   45.3950 H   0  0  0  0  0  0  0  0  0  0  0  0
   49.1040   28.2590   45.8770 C   0  0  0  0  0  0  0  0  0  0  0  0
   49.0520   27.5640   45.0550 H   0  0  0  0  0  0  0  0  0  0  0  0
   50.2090   28.1590   46.6810 C   0  0  0  0  0  0  0  0  0  0  0  0
   50.2940   29.0390   47.7370 C   0  0  0  0  0  0  0  0  0  0  0  0
   49.8310   31.9380   49.5910 N   0  0  0  0  0  0  0  0  0  0  0  0
   49.5010   30.8280   49.0500 C   0  0  0  0  0  0  0  0  0  0  0  0
   49.2570   30.3580   50.3880 N   0  0  0  0  0  0  0  0  0  0  0  0
   49.7960   32.0390   50.6210 H   0  0  0  0  0  0  0  0  0  0  0  0
   49.9090   29.7390   50.9260 H   0  0  0  0  0  0  0  0  0  0  0  0
   48.8620   30.1530   51.3280 H   0  0  0  0  0  0  0  0  0  0  0  0
  1  2  1  0  0  0  0
  1 30  1  0  0  0  0
  2  7  1  0  0  0  0
  3  8  1  0  0  0  0
  3  2  2  0  0  0  0
  4  3  1  0  0  0  0
  5  4  2  0  0  0  0
  5  6  1  0  0  0  0
  6  1  2  0  0  0  0
  9  5  1  0  0  0  0
 10 15  1  0  0  0  0
 10  9  1  0  0  0  0
 11 10  2  0  0  0  0
 12 13  2  0  0  0  0
 12 11  1  0  0  0  0
 13 14  1  0  0  0  0
 14 19  1  0  0  0  0
 14  9  2  0  0  0  0
 16 11  1  0  0  0  0
 17 12  1  0  0  0  0
 18 13  1  0  0  0  0
 21 19  1  0  0  0  0
 21 20  2  0  0  0  0
 22 21  1  0  0  0  0
 23 22  1  0  0  0  0
 24 21  1  0  0  0  0
 25 24  1  0  0  0  0
 26 32  1  0  0  0  0
 27 26  1  0  0  0  0
 27 33  1  0  0  0  0
 28 27  2  0  0  0  0
 29 30  2  0  0  0  0
 29 28  1  0  0  0  0
 30 31  1  0  0  0  0
 31 26  2  0  0  0  0
 34 43  1  0  0  0  0
 35 28  1  0  0  0  0
 35 34  2  0  0  0  0
 36 35  1  0  0  0  0
 37 36  1  0  0  0  0
 38 36  2  0  0  0  0
 38 40  1  0  0  0  0
 39 38  1  0  0  0  0
 40 41  2  0  0  0  0
 41 34  1  0  0  0  0
 42 45  1  0  0  0  0
 43 42  2  0  0  0  0
 43 44  1  0  0  0  0
 44 46  1  0  0  0  0
 44 47  1  0  0  0  0
M  END
>  <minimizedAffinity>
-7.00156212

>  <minimizedRMSD>
0.684902906

$$$$
