
 OpenBabel03252501553D

 26 27  0  0  0  0  0  0  0  0999 V2000
   46.3620   33.8200   41.3180 C   0  0  0  0  0  0  0  0  0  0  0  0
   46.8770   34.5250   42.3740 C   0  0  0  0  0  0  0  0  0  0  0  0
   48.0210   35.2840   42.1380 C   0  0  0  0  0  0  0  0  0  0  0  0
   48.4660   35.8600   42.9390 H   0  0  0  0  0  0  0  0  0  0  0  0
   48.6630   35.3650   40.9100 C   0  0  0  0  0  0  0  0  0  0  0  0
   49.5470   35.9610   40.7630 H   0  0  0  0  0  0  0  0  0  0  0  0
   48.1240   34.6420   39.8570 C   0  0  0  0  0  3  0  0  0  0  0  0
   46.9920   33.8930   40.0940 C   0  0  0  0  0  3  0  0  0  0  0  0
   44.5950   35.5410   45.0550 C   0  0  0  0  0  0  0  0  0  0  0  0
   45.2960   35.4940   43.8420 C   0  0  0  0  0  0  0  0  0  0  0  0
   46.2300   34.4610   43.6430 C   0  0  0  0  0  0  0  0  0  0  0  0
   46.3740   33.5930   44.6480 N   0  0  0  0  0  0  0  0  0  0  0  0
   45.7000   33.6470   45.8020 C   0  0  0  0  0  0  0  0  0  0  0  0
   44.7840   34.6250   46.0480 N   0  0  0  0  0  0  0  0  0  0  0  0
   43.8550   36.2810   45.3280 H   0  0  0  0  0  0  0  0  0  0  0  0
   46.0190   32.8140   46.4370 H   0  0  0  0  0  0  0  0  0  0  0  0
   44.9460   36.5800   42.9040 C   0  0  0  0  0  0  0  0  0  0  0  0
   45.8100   36.7350   42.2020 H   0  0  0  0  0  0  0  0  0  0  0  0
   44.8270   37.5190   43.4770 H   0  0  0  0  0  0  0  0  0  0  0  0
   44.0460   36.3360   42.2990 H   0  0  0  0  0  0  0  0  0  0  0  0
   44.0650   33.1970   40.7960 N   0  0  0  0  0  0  0  0  0  0  0  0
   45.1890   32.9700   41.3270 C   0  0  0  0  0  0  0  0  0  0  0  0
   45.1970   31.6900   41.9940 N   0  0  0  0  0  0  0  0  0  0  0  0
   43.2350   32.6060   40.7990 H   0  0  0  0  0  0  0  0  0  0  0  0
   45.4320   30.8370   41.4510 H   0  0  0  0  0  0  0  0  0  0  0  0
   44.9580   31.7120   43.0090 H   0  0  0  0  0  0  0  0  0  0  0  0
  1 22  1  0  0  0  0
  1  2  1  0  0  0  0
  2 11  1  0  0  0  0
  3  2  2  0  0  0  0
  3  4  1  0  0  0  0
  5  3  1  0  0  0  0
  6  5  1  0  0  0  0
  7  8  1  0  0  0  0
  7  5  2  0  0  0  0
  8  1  2  0  0  0  0
  9 15  1  0  0  0  0
  9 14  1  0  0  0  0
 10  9  2  0  0  0  0
 11 10  1  0  0  0  0
 11 12  2  0  0  0  0
 12 13  1  0  0  0  0
 13 14  2  0  0  0  0
 13 16  1  0  0  0  0
 17 19  1  0  0  0  0
 17 10  1  0  0  0  0
 18 17  1  0  0  0  0
 20 17  1  0  0  0  0
 21 24  1  0  0  0  0
 21 22  2  0  0  0  0
 22 23  1  0  0  0  0
 23 26  1  0  0  0  0
 25 23  1  0  0  0  0
M  END
>  <minimizedAffinity>
-5.11134815

>  <minimizedRMSD>
2.41641712

$$$$
