
 OpenBabel03242512253D

 25 27  0  0  1  0  0  0  0  0999 V2000
   46.7300   30.3880   47.3860 C   0  0  0  0  0  0  0  0  0  0  0  0
   48.0710   30.1090   47.2970 C   0  0  0  0  0  0  0  0  0  0  0  0
   48.6050   29.8360   46.0570 C   0  0  0  0  0  0  0  0  0  0  0  0
   49.6490   29.6050   45.8950 H   0  0  0  0  0  0  0  0  0  0  0  0
   47.7210   29.8700   44.9960 C   0  0  0  0  0  0  0  0  0  0  0  0
   48.1440   29.6550   44.0260 H   0  0  0  0  0  0  0  0  0  0  0  0
   46.3720   30.1460   45.0370 C   0  0  0  0  0  3  0  0  0  0  0  0
   45.8630   30.4160   46.2870 C   0  0  0  0  0  3  0  0  0  0  0  0
   50.2030   29.1240   50.1700 C   0  0  0  0  0  0  0  0  0  0  0  0
   50.5120   30.3820   50.7100 C   0  0  0  0  0  0  0  0  0  0  0  0
   49.9870   31.5300   50.0780 C   0  0  0  0  0  0  0  0  0  0  0  0
   49.2130   31.3100   48.9780 N   0  0  0  0  0  0  0  0  0  0  0  0
   48.9270   30.1070   48.4760 C   0  0  0  0  0  0  0  0  0  0  0  0
   49.4350   29.0500   49.0930 N   0  0  0  0  0  0  0  0  0  0  0  0
   50.7150   27.9350   50.7800 N   0  0  0  0  0  0  0  0  0  0  0  0
   51.1310   30.4430   51.5790 H   0  0  0  0  0  0  0  0  0  0  0  0
   50.2100   32.4940   50.4730 H   0  0  0  0  0  0  0  0  0  0  0  0
   51.3460   27.9750   51.5870 H   0  0  0  0  0  0  0  0  0  0  0  0
   50.4520   27.0190   50.4100 H   0  0  0  0  0  0  0  0  0  0  0  0
   45.3600   30.5120   49.6920 N   0  0  0  0  0  0  0  0  0  0  0  0
   46.0480   30.6630   48.6360 C   0  0  1  0  0  3  0  0  0  0  0  0
   46.1490   31.9990   49.1780 N   0  0  0  0  0  4  0  0  0  0  0  0
   44.8800   29.6930   50.0470 H   0  0  0  0  0  0  0  0  0  0  0  0
   45.7770   32.9160   48.8100 H   0  0  0  0  0  0  0  0  0  0  0  0
   46.3060   32.9040   49.6900 H   0  0  0  0  0  0  0  0  0  0  0  0
  2  1  1  0  0  0  0
  2 13  1  0  0  0  0
  3  2  2  0  0  0  0
  4  3  1  0  0  0  0
  5  7  2  0  0  0  0
  5  3  1  0  0  0  0
  6  5  1  0  0  0  0
  7  8  1  0  0  0  0
  8  1  2  0  0  0  0
  9 10  1  0  0  0  0
  9 15  1  0  0  0  0
 10 16  1  0  0  0  0
 11 17  1  0  0  0  0
 11 10  2  0  0  0  0
 12 11  1  0  0  0  0
 13 12  2  0  0  0  0
 13 14  1  0  0  0  0
 14  9  2  0  0  0  0
 15 18  1  0  0  0  0
 19 15  1  0  0  0  0
 20 23  1  0  0  0  0
 21  1  1  1  0  0  0
 21 22  1  0  0  0  0
 21 20  1  0  0  0  0
 22 25  1  0  0  0  0
 22 20  1  0  0  0  0
 24 22  1  0  0  0  0
M  END
>  <minimizedAffinity>
-3.83425832

>  <minimizedRMSD>
6.64042616

$$$$
