
 OpenBabel03252501553D

 26 27  0  0  0  0  0  0  0  0999 V2000
   46.7390   31.2980   44.6820 C   0  0  0  0  0  0  0  0  0  0  0  0
   46.2820   32.5890   44.7200 C   0  0  0  0  0  0  0  0  0  0  0  0
   46.3340   33.2490   45.9440 C   0  0  0  0  0  0  0  0  0  0  0  0
   45.9840   34.2700   46.0270 H   0  0  0  0  0  0  0  0  0  0  0  0
   46.8170   32.6830   47.1160 C   0  0  0  0  0  0  0  0  0  0  0  0
   46.8430   33.2230   48.0470 H   0  0  0  0  0  0  0  0  0  0  0  0
   47.2750   31.3760   47.0540 C   0  0  0  0  0  3  0  0  0  0  0  0
   47.2230   30.7240   45.8390 C   0  0  0  0  0  3  0  0  0  0  0  0
   46.3990   34.5500   41.6270 C   0  0  0  0  0  0  0  0  0  0  0  0
   46.7660   33.9070   42.8180 C   0  0  0  0  0  0  0  0  0  0  0  0
   45.7840   33.1920   43.5270 C   0  0  0  0  0  0  0  0  0  0  0  0
   44.5590   33.1830   42.9960 N   0  0  0  0  0  0  0  0  0  0  0  0
   44.2200   33.8000   41.8570 C   0  0  0  0  0  0  0  0  0  0  0  0
   45.1300   34.5070   41.1300 N   0  0  0  0  0  0  0  0  0  0  0  0
   47.0580   35.1290   40.9930 H   0  0  0  0  0  0  0  0  0  0  0  0
   43.1570   33.6240   41.6650 H   0  0  0  0  0  0  0  0  0  0  0  0
   48.1880   34.0810   43.1800 C   0  0  0  0  0  0  0  0  0  0  0  0
   48.2910   33.9420   44.2900 H   0  0  0  0  0  0  0  0  0  0  0  0
   48.4850   35.1240   42.9600 H   0  0  0  0  0  0  0  0  0  0  0  0
   48.8420   33.3380   42.6740 H   0  0  0  0  0  0  0  0  0  0  0  0
   45.9010   29.5990   43.1490 N   0  0  0  0  0  0  0  0  0  0  0  0
   46.7840   30.4210   43.5290 C   0  0  0  0  0  0  0  0  0  0  0  0
   47.9240   30.4020   42.6450 N   0  0  0  0  0  0  0  0  0  0  0  0
   45.9250   28.9780   42.3420 H   0  0  0  0  0  0  0  0  0  0  0  0
   47.9200   31.0050   41.8010 H   0  0  0  0  0  0  0  0  0  0  0  0
   48.6980   29.7640   42.9280 H   0  0  0  0  0  0  0  0  0  0  0  0
  1  2  2  0  0  0  0
  1  8  1  0  0  0  0
  2  3  1  0  0  0  0
  3  4  1  0  0  0  0
  3  5  2  0  0  0  0
  5  6  1  0  0  0  0
  7  5  1  0  0  0  0
  8  7  2  0  0  0  0
  9 10  1  0  0  0  0
 10 17  1  0  0  0  0
 10 11  2  0  0  0  0
 11  2  1  0  0  0  0
 12 11  1  0  0  0  0
 13 12  2  0  0  0  0
 14  9  2  0  0  0  0
 14 13  1  0  0  0  0
 15  9  1  0  0  0  0
 16 13  1  0  0  0  0
 17 18  1  0  0  0  0
 19 17  1  0  0  0  0
 20 17  1  0  0  0  0
 21 22  2  0  0  0  0
 22  1  1  0  0  0  0
 23 26  1  0  0  0  0
 23 22  1  0  0  0  0
 24 21  1  0  0  0  0
 25 23  1  0  0  0  0
M  END
>  <minimizedAffinity>
-3.48388791

>  <minimizedRMSD>
4.9785943

$$$$
