
 OpenBabel03242511293D

 39 43  0  0  1  0  0  0  0  0999 V2000
   46.3590   33.2220   38.5330 C   0  0  0  0  0  0  0  0  0  0  0  0
   47.0520   33.4060   37.3470 C   0  0  0  0  0  0  0  0  0  0  0  0
   46.0900   32.3590   36.1560 S   0  0  0  0  0  0  0  0  0  0  0  0
   44.8960   31.8590   37.5400 C   0  0  0  0  0  0  0  0  0  0  0  0
   45.3420   32.4280   38.3910 N   0  0  0  0  0  0  0  0  0  0  0  0
   47.9330   34.0000   37.1330 H   0  0  0  0  0  0  0  0  0  0  0  0
   44.6050   33.3820   41.1180 Cl  0  0  0  0  0  0  0  0  0  0  0  0
   46.1770   34.0530   40.9310 C   0  0  0  0  0  0  0  0  0  0  0  0
   46.7640   34.7300   41.9730 C   0  0  0  0  0  0  0  0  0  0  0  0
   48.0420   35.2930   41.8650 C   0  0  0  0  0  0  0  0  0  0  0  0
   48.6700   35.1270   40.6600 C   0  0  0  0  0  0  0  0  0  0  0  0
   48.0910   34.4590   39.6280 C   0  0  0  0  0  0  0  0  0  0  0  0
   46.8230   33.9030   39.7410 C   0  0  0  0  0  0  0  0  0  0  0  0
   48.5020   35.8250   42.6880 H   0  0  0  0  0  0  0  0  0  0  0  0
   49.6620   35.5650   40.5820 H   0  0  0  0  0  0  0  0  0  0  0  0
   48.6900   34.3930   38.7180 H   0  0  0  0  0  0  0  0  0  0  0  0
   45.5060   34.0620   45.3830 C   0  0  0  0  0  0  0  0  0  0  0  0
   44.6740   35.1460   45.6100 C   0  0  0  0  0  0  0  0  0  0  0  0
   44.5420   36.0970   44.6090 C   0  0  0  0  0  0  0  0  0  0  0  0
   45.2250   35.9390   43.4500 N   0  0  0  0  0  0  0  0  0  0  0  0
   46.0400   34.8730   43.2340 C   0  0  0  0  0  0  0  0  0  0  0  0
   46.1640   33.9520   44.2120 N   0  0  0  0  0  0  0  0  0  0  0  0
   45.6410   33.2940   46.1340 H   0  0  0  0  0  0  0  0  0  0  0  0
   44.1330   35.2780   46.5190 H   0  0  0  0  0  0  0  0  0  0  0  0
   43.9090   36.9890   44.6900 H   0  0  0  0  0  0  0  0  0  0  0  0
   42.5180   31.3210   37.3520 C   0  0  0  0  0  0  0  0  0  0  0  0
   43.8270   30.9590   37.1340 C   0  0  0  0  0  0  0  0  0  0  0  0
   43.9950   29.7410   36.5110 C   0  0  0  0  0  0  0  0  0  0  0  0
   44.9950   29.4020   36.3140 H   0  0  0  0  0  0  0  0  0  0  0  0
   42.8980   29.0020   36.1630 C   0  0  0  0  0  0  0  0  0  0  0  0
   43.1160   28.0560   35.6780 H   0  0  0  0  0  0  0  0  0  0  0  0
   41.5920   29.3820   36.3880 C   0  0  0  0  0  3  0  0  0  0  0  0
   41.4090   30.5950   37.0090 C   0  0  0  0  0  3  0  0  0  0  0  0
   42.1920   33.8190   38.2730 N   0  0  0  0  0  0  0  0  0  0  0  0
   42.2500   32.5700   38.0350 C   0  0  1  0  0  3  0  0  0  0  0  0
   41.6190   32.5040   39.3070 N   0  0  0  0  0  4  0  0  0  0  0  0
   42.5400   34.5600   37.6400 H   0  0  0  0  0  0  0  0  0  0  0  0
   40.9870   31.7180   39.5970 H   0  0  0  0  0  0  0  0  0  0  0  0
   41.1730   32.4860   40.2480 H   0  0  0  0  0  0  0  0  0  0  0  0
  1 13  1  0  0  0  0
  2  1  2  0  0  0  0
  3  2  1  0  0  0  0
  3  4  1  0  0  0  0
  4  5  2  0  0  0  0
  5  1  1  0  0  0  0
  6  2  1  0  0  0  0
  8  7  1  0  0  0  0
  8  9  1  0  0  0  0
  9 21  1  0  0  0  0
 10  9  2  0  0  0  0
 10 14  1  0  0  0  0
 11 10  1  0  0  0  0
 12 13  1  0  0  0  0
 12 11  2  0  0  0  0
 13  8  2  0  0  0  0
 15 11  1  0  0  0  0
 16 12  1  0  0  0  0
 17 18  1  0  0  0  0
 17 23  1  0  0  0  0
 18 24  1  0  0  0  0
 19 25  1  0  0  0  0
 19 18  2  0  0  0  0
 20 19  1  0  0  0  0
 21 20  2  0  0  0  0
 21 22  1  0  0  0  0
 22 17  2  0  0  0  0
 27 26  1  0  0  0  0
 27  4  1  0  0  0  0
 28 27  2  0  0  0  0
 29 28  1  0  0  0  0
 30 32  2  0  0  0  0
 30 28  1  0  0  0  0
 31 30  1  0  0  0  0
 32 33  1  0  0  0  0
 33 26  2  0  0  0  0
 34 36  1  0  0  0  0
 35 26  1  6  0  0  0
 35 34  1  0  0  0  0
 35 36  1  0  0  0  0
 36 38  1  0  0  0  0
 36 39  1  0  0  0  0
 37 34  1  0  0  0  0
M  END
>  <minimizedAffinity>
-6.25008917

>  <minimizedRMSD>
1.27934313

$$$$
