
 OpenBabel03242514063D

 48 51  0  0  1  0  0  0  0  0999 V2000
   46.5300   32.9740   38.7740 C   0  0  1  0  0  0  0  0  0  0  0  0
   45.1410   33.4490   38.2830 C   0  0  0  0  0  0  0  0  0  0  0  0
   44.6110   32.2500   37.4720 C   0  0  0  0  0  0  0  0  0  0  0  0
   45.4530   32.2390   36.1980 C   0  0  0  0  0  0  0  0  0  0  0  0
   46.8780   32.0150   36.5170 C   0  0  0  0  0  0  0  0  0  0  0  0
   47.4630   32.7560   37.6710 C   0  0  2  0  0  0  0  0  0  0  0  0
   46.2500   31.9970   39.2770 H   0  0  0  0  0  0  0  0  0  0  0  0
   44.4710   33.7030   39.0970 H   0  0  0  0  0  0  0  0  0  0  0  0
   45.3220   34.2750   37.5720 H   0  0  0  0  0  0  0  0  0  0  0  0
   43.5720   32.4450   37.2050 H   0  0  0  0  0  0  0  0  0  0  0  0
   44.8010   31.3690   38.0910 H   0  0  0  0  0  0  0  0  0  0  0  0
   45.1090   31.4460   35.5240 H   0  0  0  0  0  0  0  0  0  0  0  0
   45.3330   33.2440   35.7380 H   0  0  0  0  0  0  0  0  0  0  0  0
   47.4680   32.1450   35.5780 H   0  0  0  0  0  0  0  0  0  0  0  0
   46.9810   30.9100   36.7320 H   0  0  0  0  0  0  0  0  0  0  0  0
   47.8780   33.7140   37.2900 H   0  0  0  0  0  0  0  0  0  0  0  0
   46.8640   34.6600   42.0220 C   0  0  0  0  0  0  0  0  0  0  0  0
   48.0030   35.4040   41.8210 C   0  0  0  0  0  0  0  0  0  0  0  0
   48.7260   35.4210   40.6490 C   0  0  0  0  0  0  0  0  0  0  0  0
   48.1960   34.5950   39.6460 C   0  0  0  0  0  0  0  0  0  0  0  0
   47.0430   33.8320   39.8390 C   0  0  0  0  0  0  0  0  0  0  0  0
   46.3880   33.8720   41.0240 N   0  0  0  0  0  0  0  0  0  0  0  0
   48.3280   36.0110   42.6610 H   0  0  0  0  0  0  0  0  0  0  0  0
   49.6050   36.0130   40.5300 H   0  0  0  0  0  0  0  0  0  0  0  0
   48.7840   34.6470   38.7440 H   0  0  0  0  0  0  0  0  0  0  0  0
   45.6710   33.9210   45.4000 C   0  0  0  0  0  0  0  0  0  0  0  0
   44.7560   34.9260   45.6690 C   0  0  0  0  0  0  0  0  0  0  0  0
   44.5590   35.8650   44.6620 C   0  0  0  0  0  0  0  0  0  0  0  0
   45.2640   35.7440   43.4890 N   0  0  0  0  0  0  0  0  0  0  0  0
   46.1480   34.7300   43.2910 C   0  0  0  0  0  0  0  0  0  0  0  0
   46.3460   33.8380   44.2290 N   0  0  0  0  0  0  0  0  0  0  0  0
   45.8330   33.1750   46.1880 H   0  0  0  0  0  0  0  0  0  0  0  0
   44.2310   34.9700   46.6110 H   0  0  0  0  0  0  0  0  0  0  0  0
   43.8640   36.6760   44.7980 H   0  0  0  0  0  0  0  0  0  0  0  0
   48.2960   30.7170   38.7790 C   0  0  0  0  0  0  0  0  0  0  0  0
   48.6330   31.8960   38.0960 C   0  0  0  0  0  0  0  0  0  0  0  0
   49.9780   32.1070   37.9070 C   0  0  0  0  0  0  0  0  0  0  0  0
   50.2400   33.0110   37.3830 H   0  0  0  0  0  0  0  0  0  0  0  0
   50.9030   31.2030   38.3710 C   0  0  0  0  0  0  0  0  0  0  0  0
   51.9250   31.4750   38.1630 H   0  0  0  0  0  0  0  0  0  0  0  0
   50.5570   30.0530   39.0390 C   0  0  0  0  0  3  0  0  0  0  0  0
   49.2250   29.8150   39.2430 C   0  0  0  0  0  3  0  0  0  0  0  0
   46.2960   30.5290   40.2140 N   0  0  0  0  0  0  0  0  0  0  0  0
   46.9230   30.2710   39.1000 C   0  0  0  0  0  0  0  0  0  0  0  0
   45.8520   29.5320   38.5450 N   0  0  0  0  0  0  0  0  0  0  0  0
   46.7130   31.0830   40.9850 H   0  0  0  0  0  0  0  0  0  0  0  0
   45.7390   28.4950   38.6930 H   0  0  0  0  0  0  0  0  0  0  0  0
   45.0720   29.9020   37.9440 H   0  0  0  0  0  0  0  0  0  0  0  0
  1  7  1  1  0  0  0
  1 21  1  0  0  0  0
  2  1  1  0  0  0  0
  2  8  1  0  0  0  0
  3 11  1  0  0  0  0
  3  2  1  0  0  0  0
  4  5  1  0  0  0  0
  4  3  1  0  0  0  0
  5 15  1  0  0  0  0
  5  6  1  0  0  0  0
  6 16  1  6  0  0  0
  6 36  1  0  0  0  0
  6  1  1  0  0  0  0
  9  2  1  0  0  0  0
 10  3  1  0  0  0  0
 12  4  1  0  0  0  0
 13  4  1  0  0  0  0
 14  5  1  0  0  0  0
 17 30  1  0  0  0  0
 18 17  1  0  0  0  0
 18 23  1  0  0  0  0
 19 18  2  0  0  0  0
 20 21  2  0  0  0  0
 20 19  1  0  0  0  0
 21 22  1  0  0  0  0
 22 17  2  0  0  0  0
 24 19  1  0  0  0  0
 25 20  1  0  0  0  0
 26 27  1  0  0  0  0
 26 32  1  0  0  0  0
 27 33  1  0  0  0  0
 28 34  1  0  0  0  0
 28 27  2  0  0  0  0
 29 28  1  0  0  0  0
 30 29  2  0  0  0  0
 30 31  1  0  0  0  0
 31 26  2  0  0  0  0
 35 44  1  0  0  0  0
 35 42  1  0  0  0  0
 36 35  2  0  0  0  0
 37 36  1  0  0  0  0
 37 39  2  0  0  0  0
 38 37  1  0  0  0  0
 39 41  1  0  0  0  0
 40 39  1  0  0  0  0
 41 42  2  0  0  0  0
 43 46  1  0  0  0  0
 44 43  2  0  0  0  0
 45 47  1  0  0  0  0
 45 44  1  0  0  0  0
 48 45  1  0  0  0  0
M  END
>  <minimizedAffinity>
-5.33330965

>  <minimizedRMSD>
0.927847803

$$$$
