
 OpenBabel03242523473D

 24 25  0  0  0  0  0  0  0  0999 V2000
   47.8180   32.2420   42.6650 C   0  0  0  0  0  0  0  0  0  0  0  0
   47.9090   33.4760   43.2360 C   0  0  0  0  0  0  0  0  0  0  0  0
   48.9930   34.2600   42.9080 C   0  0  0  0  0  0  0  0  0  0  0  0
   49.0840   35.2320   43.3460 H   0  0  0  0  0  0  0  0  0  0  0  0
   49.9840   33.8670   42.0380 C   0  0  0  0  0  0  0  0  0  0  0  0
   50.8100   34.5460   41.8290 H   0  0  0  0  0  0  0  0  0  0  0  0
   49.9210   32.6240   41.4410 C   0  0  0  0  0  3  0  0  0  0  0  0
   48.8180   31.8280   41.7760 C   0  0  0  0  0  3  0  0  0  0  0  0
   44.8280   35.1140   44.4910 C   0  0  0  0  0  0  0  0  0  0  0  0
   45.8910   34.7380   43.6550 C   0  0  0  0  0  0  0  0  0  0  0  0
   46.8390   33.8310   44.1280 C   0  0  0  0  0  0  0  0  0  0  0  0
   46.6690   33.3690   45.3790 N   0  0  0  0  0  0  0  0  0  0  0  0
   45.6550   33.7310   46.1730 C   0  0  0  0  0  0  0  0  0  0  0  0
   44.7340   34.6090   45.7170 N   0  0  0  0  0  0  0  0  0  0  0  0
   45.8710   35.2030   42.6920 H   0  0  0  0  0  0  0  0  0  0  0  0
   45.6120   33.3000   47.1610 H   0  0  0  0  0  0  0  0  0  0  0  0
   43.9000   35.9980   44.0330 O   0  0  0  0  0  0  0  0  0  0  0  0
   43.8050   36.9440   44.3570 H   0  0  0  0  0  0  0  0  0  0  0  0
   46.2570   30.5480   41.8430 N   0  0  0  0  0  0  0  0  0  0  0  0
   46.8710   31.1740   42.7900 C   0  0  0  0  0  0  0  0  0  0  0  0
   46.3110   30.4390   43.8500 N   0  0  0  0  0  0  0  0  0  0  0  0
   45.6100   29.7800   42.1130 H   0  0  0  0  0  0  0  0  0  0  0  0
   46.8330   29.9070   44.5740 H   0  0  0  0  0  0  0  0  0  0  0  0
   45.9050   29.9110   44.6120 H   0  0  0  0  0  0  0  0  0  0  0  0
  1 20  1  0  0  0  0
  1  2  1  0  0  0  0
  2 11  1  0  0  0  0
  3  2  2  0  0  0  0
  3  4  1  0  0  0  0
  5  3  1  0  0  0  0
  6  5  1  0  0  0  0
  7  8  1  0  0  0  0
  7  5  2  0  0  0  0
  8  1  2  0  0  0  0
  9 14  1  0  0  0  0
 10 11  1  0  0  0  0
 10  9  2  0  0  0  0
 11 12  2  0  0  0  0
 12 13  1  0  0  0  0
 13 16  1  0  0  0  0
 14 13  2  0  0  0  0
 15 10  1  0  0  0  0
 17 18  1  0  0  0  0
 17  9  1  0  0  0  0
 19 22  1  0  0  0  0
 19 20  2  0  0  0  0
 20 21  1  0  0  0  0
 21 23  1  0  0  0  0
 21 24  1  0  0  0  0
M  END
>  <minimizedAffinity>
-4.34421539

>  <minimizedRMSD>
0.735676646

$$$$
