
 OpenBabel03252502083D

 53 57  0  0  0  0  0  0  0  0999 V2000
   45.6570   33.8530   45.4510 C   0  0  0  0  0  0  0  0  0  0  0  0
   44.7520   34.7590   45.8390 N   0  0  0  0  0  0  0  0  0  0  0  0
   44.3920   35.8280   45.1420 C   0  0  0  0  0  0  0  0  0  0  0  0
   44.9540   36.0670   43.9380 N   0  0  0  0  0  0  0  0  0  0  0  0
   45.8800   35.2390   43.4250 C   0  0  0  0  0  0  0  0  0  0  0  0
   46.4730   35.4670   42.1990 C   0  0  0  0  0  0  0  0  0  0  0  0
   47.4150   34.6340   41.6850 C   0  0  0  0  0  0  0  0  0  0  0  0
   47.7640   33.5410   42.4340 C   0  0  0  0  0  0  0  0  0  0  0  0
   47.1440   33.3370   43.6700 C   0  0  0  0  0  0  0  0  0  0  0  0
   46.2060   34.1450   44.2080 C   0  0  0  0  0  0  0  0  0  0  0  0
   43.6450   36.5210   45.5300 H   0  0  0  0  0  0  0  0  0  0  0  0
   46.1720   36.3420   41.6350 H   0  0  0  0  0  0  0  0  0  0  0  0
   47.8380   34.8750   40.7190 H   0  0  0  0  0  0  0  0  0  0  0  0
   47.5820   32.0260   47.9070 C   0  0  0  0  0  0  0  0  0  0  0  0
   47.0930   30.7140   47.8980 C   0  0  0  0  0  0  0  0  0  0  0  0
   46.0620   30.4510   47.0370 C   0  0  0  0  0  0  0  0  0  0  0  0
   45.5760   31.4200   46.2580 N   0  0  0  0  0  0  0  0  0  0  0  0
   46.0330   32.6660   46.2540 C   0  0  0  0  0  0  0  0  0  0  0  0
   47.0410   32.9450   47.0950 N   0  0  0  0  0  0  0  0  0  0  0  0
   45.5120   29.1900   46.9950 N   0  0  0  0  0  0  0  0  0  0  0  0
   44.2880   28.8300   46.2290 C   0  0  0  0  0  0  0  0  0  0  0  0
   44.2360   27.3260   46.2220 C   0  0  0  0  0  0  0  0  0  0  0  0
   44.9350   26.9670   47.4950 C   0  0  0  0  0  0  0  0  0  0  0  0
   45.9840   28.0120   47.6620 C   0  0  0  0  0  0  0  0  0  0  0  0
   48.4040   32.2840   48.5800 H   0  0  0  0  0  0  0  0  0  0  0  0
   44.3840   29.1940   45.1840 H   0  0  0  0  0  0  0  0  0  0  0  0
   43.3960   29.2730   46.7500 H   0  0  0  0  0  0  0  0  0  0  0  0
   43.2010   26.9640   46.1650 H   0  0  0  0  0  0  0  0  0  0  0  0
   44.8640   26.9650   45.3720 H   0  0  0  0  0  0  0  0  0  0  0  0
   44.1680   27.0030   48.2970 H   0  0  0  0  0  0  0  0  0  0  0  0
   45.3520   25.9320   47.4550 H   0  0  0  0  0  0  0  0  0  0  0  0
   46.0330   28.1480   48.7840 H   0  0  0  0  0  0  0  0  0  0  0  0
   46.9260   27.6110   47.2420 H   0  0  0  0  0  0  0  0  0  0  0  0
   47.7130   29.7960   48.6920 N   0  0  0  0  0  0  0  0  0  0  0  0
   48.4020   29.0400   48.4790 H   0  0  0  0  0  0  0  0  0  0  0  0
   47.4940   29.7980   49.7320 H   0  0  0  0  0  0  0  0  0  0  0  0
   48.5290   31.5540   41.0510 C   0  0  0  0  0  0  0  0  0  0  0  0
   48.7810   32.6610   41.8590 C   0  0  0  0  0  0  0  0  0  0  0  0
   50.0800   33.0280   42.1940 C   0  0  0  0  0  0  0  0  0  0  0  0
   50.3240   33.8790   42.8180 H   0  0  0  0  0  0  0  0  0  0  0  0
   51.1540   32.2790   41.7160 C   0  0  0  0  0  0  0  0  0  0  0  0
   52.1770   32.5830   41.9900 H   0  0  0  0  0  0  0  0  0  0  0  0
   50.9050   31.1820   40.9160 C   0  0  0  0  0  3  0  0  0  0  0  0
   49.6130   30.8320   40.5920 C   0  0  0  0  0  3  0  0  0  0  0  0
   46.5450   31.8620   39.7920 N   0  0  0  0  0  0  0  0  0  0  0  0
   47.1300   31.2600   40.7640 C   0  0  0  0  0  0  0  0  0  0  0  0
   46.6000   30.2850   41.6740 N   0  0  0  0  0  0  0  0  0  0  0  0
   45.5460   31.6770   39.5570 H   0  0  0  0  0  0  0  0  0  0  0  0
   45.8190   30.3620   42.3590 H   0  0  0  0  0  0  0  0  0  0  0  0
   46.9900   29.3070   41.7380 H   0  0  0  0  0  0  0  0  0  0  0  0
   47.6310   32.1390   44.2830 N   0  0  0  0  0  0  0  0  0  0  0  0
   48.3870   31.9150   44.9620 H   0  0  0  0  0  0  0  0  0  0  0  0
   47.0160   31.3910   43.8760 H   0  0  0  0  0  0  0  0  0  0  0  0
  1  2  1  0  0  0  0
  1 18  1  0  0  0  0
  3 11  1  0  0  0  0
  3  2  2  0  0  0  0
  4  3  1  0  0  0  0
  5  4  2  0  0  0  0
  5 10  1  0  0  0  0
  6  5  1  0  0  0  0
  7  6  2  0  0  0  0
  7  8  1  0  0  0  0
  8  9  2  0  0  0  0
  9 10  1  0  0  0  0
  9 51  1  0  0  0  0
 10  1  2  0  0  0  0
 12  6  1  0  0  0  0
 13  7  1  0  0  0  0
 14 25  1  0  0  0  0
 15 14  1  0  0  0  0
 15 34  1  0  0  0  0
 16 15  2  0  0  0  0
 17 16  1  0  0  0  0
 18 17  2  0  0  0  0
 18 19  1  0  0  0  0
 19 14  2  0  0  0  0
 20 16  1  0  0  0  0
 20 24  1  0  0  0  0
 21 27  1  0  0  0  0
 21 20  1  0  0  0  0
 22 21  1  0  0  0  0
 22 23  1  0  0  0  0
 23 24  1  0  0  0  0
 23 30  1  0  0  0  0
 24 32  1  0  0  0  0
 26 21  1  0  0  0  0
 28 22  1  0  0  0  0
 29 22  1  0  0  0  0
 31 23  1  0  0  0  0
 33 24  1  0  0  0  0
 34 36  1  0  0  0  0
 35 34  1  0  0  0  0
 37 38  1  0  0  0  0
 38 39  2  0  0  0  0
 38  8  1  0  0  0  0
 39 40  1  0  0  0  0
 41 42  1  0  0  0  0
 41 39  1  0  0  0  0
 43 41  2  0  0  0  0
 44 43  1  0  0  0  0
 44 37  2  0  0  0  0
 45 46  2  0  0  0  0
 46 37  1  0  0  0  0
 46 47  1  0  0  0  0
 47 50  1  0  0  0  0
 47 49  1  0  0  0  0
 48 45  1  0  0  0  0
 51 52  1  0  0  0  0
 53 51  1  0  0  0  0
M  END
>  <minimizedAffinity>
-7.00351286

>  <minimizedRMSD>
0.700826943

$$$$
