
 OpenBabel03242511293D

 39 43  0  0  1  0  0  0  0  0999 V2000
   46.3400   33.1950   38.6630 C   0  0  0  0  0  0  0  0  0  0  0  0
   47.0660   33.3300   37.4890 C   0  0  0  0  0  0  0  0  0  0  0  0
   46.0930   32.2960   36.2960 S   0  0  0  0  0  0  0  0  0  0  0  0
   44.8500   31.8690   37.6610 C   0  0  0  0  0  0  0  0  0  0  0  0
   45.2970   32.4370   38.5120 N   0  0  0  0  0  0  0  0  0  0  0  0
   47.9740   33.8860   37.2850 H   0  0  0  0  0  0  0  0  0  0  0  0
   44.6320   33.2660   41.2810 Cl  0  0  0  0  0  0  0  0  0  0  0  0
   46.1740   33.9970   41.0710 C   0  0  0  0  0  0  0  0  0  0  0  0
   46.7560   34.6860   42.1090 C   0  0  0  0  0  0  0  0  0  0  0  0
   48.0110   35.2960   41.9820 C   0  0  0  0  0  0  0  0  0  0  0  0
   48.6210   35.1650   40.7640 C   0  0  0  0  0  0  0  0  0  0  0  0
   48.0470   34.4850   39.7360 C   0  0  0  0  0  0  0  0  0  0  0  0
   46.8020   33.8820   39.8680 C   0  0  0  0  0  0  0  0  0  0  0  0
   48.4660   35.8370   42.8010 H   0  0  0  0  0  0  0  0  0  0  0  0
   49.5940   35.6400   40.6710 H   0  0  0  0  0  0  0  0  0  0  0  0
   48.6300   34.4490   38.8140 H   0  0  0  0  0  0  0  0  0  0  0  0
   45.5990   33.9470   45.5400 C   0  0  0  0  0  0  0  0  0  0  0  0
   44.7230   34.9910   45.7890 C   0  0  0  0  0  0  0  0  0  0  0  0
   44.5270   35.9390   44.7950 C   0  0  0  0  0  0  0  0  0  0  0  0
   45.1930   35.8170   43.6220 N   0  0  0  0  0  0  0  0  0  0  0  0
   46.0520   34.7900   43.3850 C   0  0  0  0  0  0  0  0  0  0  0  0
   46.2380   33.8730   44.3550 N   0  0  0  0  0  0  0  0  0  0  0  0
   45.7850   33.1840   46.2840 H   0  0  0  0  0  0  0  0  0  0  0  0
   44.1950   35.0950   46.7090 H   0  0  0  0  0  0  0  0  0  0  0  0
   43.8560   36.8000   44.8930 H   0  0  0  0  0  0  0  0  0  0  0  0
   42.4590   31.4100   37.4410 C   0  0  0  0  0  0  0  0  0  0  0  0
   43.7570   31.0010   37.2470 C   0  0  0  0  0  0  0  0  0  0  0  0
   43.8920   29.7720   36.6390 C   0  0  0  0  0  0  0  0  0  0  0  0
   44.8830   29.3970   36.4610 H   0  0  0  0  0  0  0  0  0  0  0  0
   42.7770   29.0670   36.2800 C   0  0  0  0  0  0  0  0  0  0  0  0
   42.9690   28.1100   35.8080 H   0  0  0  0  0  0  0  0  0  0  0  0
   41.4810   29.4950   36.4810 C   0  0  0  0  0  3  0  0  0  0  0  0
   41.3310   30.7190   37.0880 C   0  0  0  0  0  3  0  0  0  0  0  0
   42.4050   33.6910   38.8530 N   0  0  0  0  0  0  0  0  0  0  0  0
   42.2230   32.6750   38.1090 C   0  0  1  0  0  3  0  0  0  0  0  0
   41.0090   33.3560   37.8220 N   0  0  0  0  0  4  0  0  0  0  0  0
   43.2400   33.8490   39.4440 H   0  0  0  0  0  0  0  0  0  0  0  0
   40.4890   33.2510   36.9180 H   0  0  0  0  0  0  0  0  0  0  0  0
   40.1210   33.8700   37.6460 H   0  0  0  0  0  0  0  0  0  0  0  0
  1 13  1  0  0  0  0
  2  1  2  0  0  0  0
  3  2  1  0  0  0  0
  3  4  1  0  0  0  0
  4  5  2  0  0  0  0
  5  1  1  0  0  0  0
  6  2  1  0  0  0  0
  8  7  1  0  0  0  0
  8  9  1  0  0  0  0
  9 21  1  0  0  0  0
 10  9  2  0  0  0  0
 10 14  1  0  0  0  0
 11 10  1  0  0  0  0
 12 13  1  0  0  0  0
 12 11  2  0  0  0  0
 13  8  2  0  0  0  0
 15 11  1  0  0  0  0
 16 12  1  0  0  0  0
 17 18  1  0  0  0  0
 17 23  1  0  0  0  0
 18 24  1  0  0  0  0
 19 25  1  0  0  0  0
 19 18  2  0  0  0  0
 20 19  1  0  0  0  0
 21 20  2  0  0  0  0
 21 22  1  0  0  0  0
 22 17  2  0  0  0  0
 27 26  1  0  0  0  0
 27  4  1  0  0  0  0
 28 27  2  0  0  0  0
 29 28  1  0  0  0  0
 30 32  2  0  0  0  0
 30 28  1  0  0  0  0
 31 30  1  0  0  0  0
 32 33  1  0  0  0  0
 33 26  2  0  0  0  0
 34 37  1  0  0  0  0
 35 26  1  6  0  0  0
 35 34  1  0  0  0  0
 36 35  1  0  0  0  0
 36 34  1  0  0  0  0
 38 36  1  0  0  0  0
 39 36  1  0  0  0  0
M  END
>  <minimizedAffinity>
-6.26057959

>  <minimizedRMSD>
1.42034495

$$$$
