
 OpenBabel03242514063D

 48 51  0  0  1  0  0  0  0  0999 V2000
   46.3060   32.5970   38.9900 C   0  0  1  0  0  0  0  0  0  0  0  0
   45.1670   33.2330   38.1590 C   0  0  0  0  0  0  0  0  0  0  0  0
   44.4990   32.0260   37.4710 C   0  0  0  0  0  0  0  0  0  0  0  0
   45.5030   31.5770   36.4110 C   0  0  0  0  0  0  0  0  0  0  0  0
   46.7640   31.1370   37.0420 C   0  0  0  0  0  0  0  0  0  0  0  0
   47.3210   31.9670   38.1490 C   0  0  2  0  0  0  0  0  0  0  0  0
   45.7250   31.8250   39.5830 H   0  0  0  0  0  0  0  0  0  0  0  0
   44.4570   33.7830   38.7680 H   0  0  0  0  0  0  0  0  0  0  0  0
   45.6490   33.8370   37.3690 H   0  0  0  0  0  0  0  0  0  0  0  0
   43.5920   32.3690   36.9730 H   0  0  0  0  0  0  0  0  0  0  0  0
   44.3730   31.2740   38.2550 H   0  0  0  0  0  0  0  0  0  0  0  0
   45.0890   30.7480   35.8260 H   0  0  0  0  0  0  0  0  0  0  0  0
   45.7010   32.4660   35.7750 H   0  0  0  0  0  0  0  0  0  0  0  0
   47.5090   30.9450   36.2320 H   0  0  0  0  0  0  0  0  0  0  0  0
   46.5650   30.1040   37.4560 H   0  0  0  0  0  0  0  0  0  0  0  0
   48.0090   32.7180   37.7030 H   0  0  0  0  0  0  0  0  0  0  0  0
   46.7040   34.5150   42.0990 C   0  0  0  0  0  0  0  0  0  0  0  0
   47.8280   35.2560   41.8150 C   0  0  0  0  0  0  0  0  0  0  0  0
   48.5190   35.1970   40.6250 C   0  0  0  0  0  0  0  0  0  0  0  0
   47.9740   34.2950   39.6980 C   0  0  0  0  0  0  0  0  0  0  0  0
   46.8360   33.5350   39.9770 C   0  0  0  0  0  0  0  0  0  0  0  0
   46.2130   33.6520   41.1740 N   0  0  0  0  0  0  0  0  0  0  0  0
   48.1670   35.9250   42.6000 H   0  0  0  0  0  0  0  0  0  0  0  0
   49.3870   35.7890   40.4400 H   0  0  0  0  0  0  0  0  0  0  0  0
   48.5370   34.2890   38.7800 H   0  0  0  0  0  0  0  0  0  0  0  0
   45.5640   33.9700   45.5320 C   0  0  0  0  0  0  0  0  0  0  0  0
   44.6940   35.0200   45.7760 C   0  0  0  0  0  0  0  0  0  0  0  0
   44.5090   35.9220   44.7330 C   0  0  0  0  0  0  0  0  0  0  0  0
   45.1810   35.7230   43.5510 N   0  0  0  0  0  0  0  0  0  0  0  0
   46.0210   34.6680   43.3790 C   0  0  0  0  0  0  0  0  0  0  0  0
   46.2070   33.8100   44.3510 N   0  0  0  0  0  0  0  0  0  0  0  0
   45.7150   33.2520   46.3480 H   0  0  0  0  0  0  0  0  0  0  0  0
   44.1930   35.1250   46.7260 H   0  0  0  0  0  0  0  0  0  0  0  0
   43.8490   36.7640   44.8480 H   0  0  0  0  0  0  0  0  0  0  0  0
   49.5480   31.0490   38.6780 C   0  0  0  0  0  0  0  0  0  0  0  0
   48.1700   30.9940   38.9370 C   0  0  0  0  0  0  0  0  0  0  0  0
   47.7790   30.0640   39.8730 C   0  0  0  0  0  0  0  0  0  0  0  0
   46.7220   30.0200   40.0740 H   0  0  0  0  0  0  0  0  0  0  0  0
   48.7050   29.2590   40.4910 C   0  0  0  0  0  0  0  0  0  0  0  0
   48.2810   28.5700   41.2050 H   0  0  0  0  0  0  0  0  0  0  0  0
   50.0530   29.3250   40.2260 C   0  0  0  0  0  3  0  0  0  0  0  0
   50.4720   30.2400   39.3000 C   0  0  0  0  0  3  0  0  0  0  0  0
   51.1920   31.6320   36.9320 N   0  0  0  0  0  0  0  0  0  0  0  0
   50.2080   31.9630   37.7220 C   0  0  0  0  0  0  0  0  0  0  0  0
   50.1560   33.3030   37.2710 N   0  0  0  0  0  0  0  0  0  0  0  0
   51.6040   30.6810   36.9050 H   0  0  0  0  0  0  0  0  0  0  0  0
   50.7320   34.0710   37.7050 H   0  0  0  0  0  0  0  0  0  0  0  0
   49.5700   33.6850   36.4860 H   0  0  0  0  0  0  0  0  0  0  0  0
  1  7  1  1  0  0  0
  1 21  1  0  0  0  0
  2  8  1  0  0  0  0
  2  1  1  0  0  0  0
  3  2  1  0  0  0  0
  3 11  1  0  0  0  0
  4  5  1  0  0  0  0
  4  3  1  0  0  0  0
  5 15  1  0  0  0  0
  5  6  1  0  0  0  0
  6 16  1  6  0  0  0
  6 36  1  0  0  0  0
  6  1  1  0  0  0  0
  9  2  1  0  0  0  0
 10  3  1  0  0  0  0
 12  4  1  0  0  0  0
 13  4  1  0  0  0  0
 14  5  1  0  0  0  0
 17 30  1  0  0  0  0
 18 17  1  0  0  0  0
 18 23  1  0  0  0  0
 19 18  2  0  0  0  0
 20 21  2  0  0  0  0
 20 19  1  0  0  0  0
 21 22  1  0  0  0  0
 22 17  2  0  0  0  0
 24 19  1  0  0  0  0
 25 20  1  0  0  0  0
 26 27  1  0  0  0  0
 26 32  1  0  0  0  0
 27 33  1  0  0  0  0
 28 34  1  0  0  0  0
 28 27  2  0  0  0  0
 29 28  1  0  0  0  0
 30 29  2  0  0  0  0
 30 31  1  0  0  0  0
 31 26  2  0  0  0  0
 35 36  2  0  0  0  0
 35 42  1  0  0  0  0
 36 37  1  0  0  0  0
 37 38  1  0  0  0  0
 37 39  2  0  0  0  0
 39 40  1  0  0  0  0
 41 39  1  0  0  0  0
 42 41  2  0  0  0  0
 43 44  2  0  0  0  0
 44 35  1  0  0  0  0
 45 47  1  0  0  0  0
 45 44  1  0  0  0  0
 46 43  1  0  0  0  0
 48 45  1  0  0  0  0
M  END
>  <minimizedAffinity>
-5.91798592

>  <minimizedRMSD>
1.94181883

$$$$
