
 OpenBabel03242523483D

 24 25  0  0  0  0  0  0  0  0999 V2000
   35.4660   29.5340   39.1750 C   0  0  0  0  0  0  0  0  0  0  0  0
   36.2550   29.5700   38.0640 C   0  0  0  0  0  0  0  0  0  0  0  0
   35.6940   29.2040   36.8620 C   0  0  0  0  0  0  0  0  0  0  0  0
   36.2950   29.2240   35.9780 H   0  0  0  0  0  0  0  0  0  0  0  0
   34.3830   28.8050   36.7210 C   0  0  0  0  0  0  0  0  0  0  0  0
   34.0130   28.5300   35.7330 H   0  0  0  0  0  0  0  0  0  0  0  0
   33.5570   28.7570   37.8250 C   0  0  0  0  0  3  0  0  0  0  0  0
   34.1300   29.1300   39.0480 C   0  0  0  0  0  3  0  0  0  0  0  0
   39.3980   31.4890   37.6300 C   0  0  0  0  0  0  0  0  0  0  0  0
   38.0820   31.0330   37.4610 C   0  0  0  0  0  0  0  0  0  0  0  0
   37.6090   30.0040   38.2750 C   0  0  0  0  0  0  0  0  0  0  0  0
   38.4640   29.5060   39.1860 N   0  0  0  0  0  0  0  0  0  0  0  0
   39.7180   29.9440   39.3430 C   0  0  0  0  0  0  0  0  0  0  0  0
   40.1790   30.9410   38.5560 N   0  0  0  0  0  0  0  0  0  0  0  0
   37.5430   31.5410   36.6890 H   0  0  0  0  0  0  0  0  0  0  0  0
   40.3220   29.4750   40.1050 H   0  0  0  0  0  0  0  0  0  0  0  0
   39.8630   32.4940   36.8380 O   0  0  0  0  0  0  0  0  0  0  0  0
   40.5490   32.3780   36.1140 H   0  0  0  0  0  0  0  0  0  0  0  0
   36.0880   28.9870   41.4750 N   0  0  0  0  0  0  0  0  0  0  0  0
   35.7120   29.8130   40.5580 C   0  0  0  0  0  0  0  0  0  0  0  0
   35.6810   30.9540   41.3810 N   0  0  0  0  0  0  0  0  0  0  0  0
   36.2380   29.3640   42.4330 H   0  0  0  0  0  0  0  0  0  0  0  0
   36.2050   31.8370   41.2290 H   0  0  0  0  0  0  0  0  0  0  0  0
   35.6550   31.7720   41.9740 H   0  0  0  0  0  0  0  0  0  0  0  0
  1 20  1  0  0  0  0
  2 11  1  0  0  0  0
  2  1  2  0  0  0  0
  3  2  1  0  0  0  0
  4  3  1  0  0  0  0
  5  3  2  0  0  0  0
  5  7  1  0  0  0  0
  6  5  1  0  0  0  0
  7  8  2  0  0  0  0
  8  1  1  0  0  0  0
  9 14  1  0  0  0  0
 10  9  2  0  0  0  0
 10 11  1  0  0  0  0
 11 12  2  0  0  0  0
 12 13  1  0  0  0  0
 13 16  1  0  0  0  0
 14 13  2  0  0  0  0
 15 10  1  0  0  0  0
 17  9  1  0  0  0  0
 18 17  1  0  0  0  0
 19 22  1  0  0  0  0
 20 21  1  0  0  0  0
 20 19  2  0  0  0  0
 21 24  1  0  0  0  0
 23 21  1  0  0  0  0
M  END
>  <minimizedAffinity>
-5.50571537

$$$$

 OpenBabel03242523483D

 24 25  0  0  0  0  0  0  0  0999 V2000
   37.4710   29.2450   41.9570 C   0  0  0  0  0  0  0  0  0  0  0  0
   38.7930   29.5290   41.7920 C   0  0  0  0  0  0  0  0  0  0  0  0
   39.7070   28.7780   42.4970 C   0  0  0  0  0  0  0  0  0  0  0  0
   40.7500   28.9850   42.3830 H   0  0  0  0  0  0  0  0  0  0  0  0
   39.3590   27.7600   43.3560 C   0  0  0  0  0  0  0  0  0  0  0  0
   40.1430   27.2110   43.8780 H   0  0  0  0  0  0  0  0  0  0  0  0
   38.0290   27.4460   43.5450 C   0  0  0  0  0  3  0  0  0  0  0  0
   37.1000   28.2100   42.8270 C   0  0  0  0  0  3  0  0  0  0  0  0
   39.6540   32.9220   40.5680 C   0  0  0  0  0  0  0  0  0  0  0  0
   39.3570   31.8500   41.4250 C   0  0  0  0  0  0  0  0  0  0  0  0
   39.0930   30.5950   40.8760 C   0  0  0  0  0  0  0  0  0  0  0  0
   39.1390   30.4940   39.5360 N   0  0  0  0  0  0  0  0  0  0  0  0
   39.4220   31.5190   38.7240 C   0  0  0  0  0  0  0  0  0  0  0  0
   39.6790   32.7360   39.2520 N   0  0  0  0  0  0  0  0  0  0  0  0
   39.3630   32.1090   42.4620 H   0  0  0  0  0  0  0  0  0  0  0  0
   39.4330   31.3290   37.6610 H   0  0  0  0  0  0  0  0  0  0  0  0
   39.9140   34.1480   41.1000 O   0  0  0  0  0  0  0  0  0  0  0  0
   39.3010   34.9400   41.0300 H   0  0  0  0  0  0  0  0  0  0  0  0
   35.2580   29.2030   40.9170 N   0  0  0  0  0  0  0  0  0  0  0  0
   36.2730   29.8200   41.4210 C   0  0  0  0  0  0  0  0  0  0  0  0
   35.7560   31.1190   41.2690 N   0  0  0  0  0  0  0  0  0  0  0  0
   34.4570   29.7790   40.5880 H   0  0  0  0  0  0  0  0  0  0  0  0
   35.6180   31.8190   42.0230 H   0  0  0  0  0  0  0  0  0  0  0  0
   35.3850   32.0530   41.1550 H   0  0  0  0  0  0  0  0  0  0  0  0
  1  8  1  0  0  0  0
  2  1  2  0  0  0  0
  2  3  1  0  0  0  0
  3  5  2  0  0  0  0
  4  3  1  0  0  0  0
  5  7  1  0  0  0  0
  5  6  1  0  0  0  0
  8  7  2  0  0  0  0
  9 17  1  0  0  0  0
  9 10  1  0  0  0  0
 10 15  1  0  0  0  0
 11 10  2  0  0  0  0
 11  2  1  0  0  0  0
 12 11  1  0  0  0  0
 13 14  1  0  0  0  0
 13 12  2  0  0  0  0
 14  9  2  0  0  0  0
 16 13  1  0  0  0  0
 18 17  1  0  0  0  0
 19 20  2  0  0  0  0
 20  1  1  0  0  0  0
 21 20  1  0  0  0  0
 21 23  1  0  0  0  0
 22 19  1  0  0  0  0
 24 21  1  0  0  0  0
M  END
>  <minimizedAffinity>
-5.47082996

$$$$

 OpenBabel03242523483D

 24 25  0  0  0  0  0  0  0  0999 V2000
   36.6430   30.4280   38.3030 C   0  0  0  0  0  0  0  0  0  0  0  0
   36.6000   30.8280   39.6050 C   0  0  0  0  0  0  0  0  0  0  0  0
   35.7310   30.1780   40.4520 C   0  0  0  0  0  0  0  0  0  0  0  0
   35.6800   30.4770   41.4770 H   0  0  0  0  0  0  0  0  0  0  0  0
   34.9050   29.1490   40.0570 C   0  0  0  0  0  0  0  0  0  0  0  0
   34.2440   28.6850   40.7880 H   0  0  0  0  0  0  0  0  0  0  0  0
   34.9240   28.7190   38.7460 C   0  0  0  0  0  3  0  0  0  0  0  0
   35.8090   29.3820   37.8860 C   0  0  0  0  0  3  0  0  0  0  0  0
   39.5280   32.5790   41.0580 C   0  0  0  0  0  0  0  0  0  0  0  0
   38.6300   31.5650   40.6910 C   0  0  0  0  0  0  0  0  0  0  0  0
   37.4910   31.9000   39.9580 C   0  0  0  0  0  0  0  0  0  0  0  0
   37.3260   33.1970   39.6470 N   0  0  0  0  0  0  0  0  0  0  0  0
   38.1850   34.1600   40.0000 C   0  0  0  0  0  0  0  0  0  0  0  0
   39.2900   33.8400   40.7090 N   0  0  0  0  0  0  0  0  0  0  0  0
   38.9170   30.5900   41.0230 H   0  0  0  0  0  0  0  0  0  0  0  0
   37.9580   35.1710   39.6990 H   0  0  0  0  0  0  0  0  0  0  0  0
   40.6410   32.2560   41.7730 O   0  0  0  0  0  0  0  0  0  0  0  0
   40.7880   32.4940   42.7370 H   0  0  0  0  0  0  0  0  0  0  0  0
   37.3350   30.4280   35.9590 N   0  0  0  0  0  0  0  0  0  0  0  0
   37.3850   30.8810   37.1650 C   0  0  0  0  0  0  0  0  0  0  0  0
   38.3290   31.8930   36.9110 N   0  0  0  0  0  0  0  0  0  0  0  0
   37.9340   30.8880   35.2440 H   0  0  0  0  0  0  0  0  0  0  0  0
   38.2070   32.9080   37.0910 H   0  0  0  0  0  0  0  0  0  0  0  0
   39.0110   32.6170   36.7280 H   0  0  0  0  0  0  0  0  0  0  0  0
  1  2  1  0  0  0  0
  2 11  1  0  0  0  0
  2  3  2  0  0  0  0
  3  4  1  0  0  0  0
  5  3  1  0  0  0  0
  5  6  1  0  0  0  0
  7  5  2  0  0  0  0
  8  1  2  0  0  0  0
  8  7  1  0  0  0  0
  9 17  1  0  0  0  0
 10 15  1  0  0  0  0
 10  9  2  0  0  0  0
 11 10  1  0  0  0  0
 12 11  2  0  0  0  0
 12 13  1  0  0  0  0
 13 14  2  0  0  0  0
 14  9  1  0  0  0  0
 16 13  1  0  0  0  0
 17 18  1  0  0  0  0
 19 20  2  0  0  0  0
 20  1  1  0  0  0  0
 21 23  1  0  0  0  0
 21 20  1  0  0  0  0
 22 19  1  0  0  0  0
 24 21  1  0  0  0  0
M  END
>  <minimizedAffinity>
-5.42454958

$$$$

 OpenBabel03242523483D

 24 25  0  0  0  0  0  0  0  0999 V2000
   37.3420   29.2780   41.8940 C   0  0  0  0  0  0  0  0  0  0  0  0
   38.6590   29.5940   41.7440 C   0  0  0  0  0  0  0  0  0  0  0  0
   39.5830   28.8660   42.4590 C   0  0  0  0  0  0  0  0  0  0  0  0
   40.6210   29.0970   42.3560 H   0  0  0  0  0  0  0  0  0  0  0  0
   39.2500   27.8390   43.3140 C   0  0  0  0  0  0  0  0  0  0  0  0
   40.0410   27.3090   43.8440 H   0  0  0  0  0  0  0  0  0  0  0  0
   37.9260   27.4930   43.4890 C   0  0  0  0  0  3  0  0  0  0  0  0
   36.9870   28.2350   42.7600 C   0  0  0  0  0  3  0  0  0  0  0  0
   39.5680   31.3340   38.5980 C   0  0  0  0  0  0  0  0  0  0  0  0
   39.2820   30.3180   39.5240 C   0  0  0  0  0  0  0  0  0  0  0  0
   38.9430   30.6670   40.8310 C   0  0  0  0  0  0  0  0  0  0  0  0
   38.9120   31.9790   41.1230 N   0  0  0  0  0  0  0  0  0  0  0  0
   39.1860   32.9440   40.2370 C   0  0  0  0  0  0  0  0  0  0  0  0
   39.5150   32.6090   38.9700 N   0  0  0  0  0  0  0  0  0  0  0  0
   39.3550   29.3310   39.1210 H   0  0  0  0  0  0  0  0  0  0  0  0
   39.1320   33.9670   40.5750 H   0  0  0  0  0  0  0  0  0  0  0  0
   39.8990   30.9970   37.3210 O   0  0  0  0  0  0  0  0  0  0  0  0
   40.8170   31.0950   36.9260 H   0  0  0  0  0  0  0  0  0  0  0  0
   35.7800   31.0630   41.3010 N   0  0  0  0  0  0  0  0  0  0  0  0
   36.1360   29.8240   41.3460 C   0  0  0  0  0  0  0  0  0  0  0  0
   35.0030   29.3130   40.6870 N   0  0  0  0  0  0  0  0  0  0  0  0
   34.8720   31.2890   40.8480 H   0  0  0  0  0  0  0  0  0  0  0  0
   35.0000   28.7390   39.8230 H   0  0  0  0  0  0  0  0  0  0  0  0
   34.1860   28.9470   40.2180 H   0  0  0  0  0  0  0  0  0  0  0  0
  1  8  1  0  0  0  0
  2  1  2  0  0  0  0
  2  3  1  0  0  0  0
  3  5  2  0  0  0  0
  4  3  1  0  0  0  0
  5  7  1  0  0  0  0
  5  6  1  0  0  0  0
  8  7  2  0  0  0  0
  9 14  2  0  0  0  0
  9 10  1  0  0  0  0
 10 11  2  0  0  0  0
 11 12  1  0  0  0  0
 11  2  1  0  0  0  0
 13 16  1  0  0  0  0
 13 12  2  0  0  0  0
 14 13  1  0  0  0  0
 15 10  1  0  0  0  0
 17  9  1  0  0  0  0
 18 17  1  0  0  0  0
 19 20  2  0  0  0  0
 20  1  1  0  0  0  0
 21 20  1  0  0  0  0
 22 19  1  0  0  0  0
 23 21  1  0  0  0  0
 24 21  1  0  0  0  0
M  END
>  <minimizedAffinity>
-5.37932968

$$$$

 OpenBabel03242523483D

 24 25  0  0  0  0  0  0  0  0999 V2000
   36.5410   28.7590   41.3290 C   0  0  0  0  0  0  0  0  0  0  0  0
   37.6090   29.5730   41.5630 C   0  0  0  0  0  0  0  0  0  0  0  0
   38.3100   29.3970   42.7340 C   0  0  0  0  0  0  0  0  0  0  0  0
   39.1500   30.0250   42.9390 H   0  0  0  0  0  0  0  0  0  0  0  0
   37.9920   28.4460   43.6790 C   0  0  0  0  0  0  0  0  0  0  0  0
   38.5970   28.3690   44.5820 H   0  0  0  0  0  0  0  0  0  0  0  0
   36.9180   27.6050   43.4730 C   0  0  0  0  0  3  0  0  0  0  0  0
   36.2060   27.7860   42.2800 C   0  0  0  0  0  3  0  0  0  0  0  0
   37.4800   32.7350   39.6310 C   0  0  0  0  0  0  0  0  0  0  0  0
   37.2330   31.7630   40.6120 C   0  0  0  0  0  0  0  0  0  0  0  0
   37.8950   30.5370   40.5360 C   0  0  0  0  0  0  0  0  0  0  0  0
   38.7420   30.3650   39.5070 N   0  0  0  0  0  0  0  0  0  0  0  0
   38.9750   31.2950   38.5730 C   0  0  0  0  0  0  0  0  0  0  0  0
   38.3350   32.4830   38.6440 N   0  0  0  0  0  0  0  0  0  0  0  0
   36.5290   32.0680   41.3570 H   0  0  0  0  0  0  0  0  0  0  0  0
   39.6750   31.0550   37.7890 H   0  0  0  0  0  0  0  0  0  0  0  0
   36.8360   33.9330   39.7010 O   0  0  0  0  0  0  0  0  0  0  0  0
   36.1130   34.2280   39.0710 H   0  0  0  0  0  0  0  0  0  0  0  0
   34.4520   29.2740   40.1680 N   0  0  0  0  0  0  0  0  0  0  0  0
   35.5910   28.6760   40.2600 C   0  0  0  0  0  0  0  0  0  0  0  0
   35.5220   28.0200   39.0170 N   0  0  0  0  0  0  0  0  0  0  0  0
   33.8900   29.1140   39.3080 H   0  0  0  0  0  0  0  0  0  0  0  0
   36.2120   28.0910   38.2450 H   0  0  0  0  0  0  0  0  0  0  0  0
   35.4690   27.5460   38.1250 H   0  0  0  0  0  0  0  0  0  0  0  0
  1  2  2  0  0  0  0
  1  8  1  0  0  0  0
  2  3  1  0  0  0  0
  3  4  1  0  0  0  0
  3  5  2  0  0  0  0
  5  6  1  0  0  0  0
  7  5  1  0  0  0  0
  8  7  2  0  0  0  0
  9 17  1  0  0  0  0
  9 10  1  0  0  0  0
 10 15  1  0  0  0  0
 11 10  2  0  0  0  0
 11  2  1  0  0  0  0
 12 11  1  0  0  0  0
 13 14  1  0  0  0  0
 13 12  2  0  0  0  0
 14  9  2  0  0  0  0
 16 13  1  0  0  0  0
 18 17  1  0  0  0  0
 19 20  2  0  0  0  0
 20  1  1  0  0  0  0
 21 20  1  0  0  0  0
 22 19  1  0  0  0  0
 23 21  1  0  0  0  0
 24 21  1  0  0  0  0
M  END
>  <minimizedAffinity>
-5.31627417

$$$$

 OpenBabel03242523483D

 24 25  0  0  0  0  0  0  0  0999 V2000
   36.8040   29.9310   39.4930 C   0  0  0  0  0  0  0  0  0  0  0  0
   37.2440   28.6580   39.7010 C   0  0  0  0  0  0  0  0  0  0  0  0
   37.4540   27.8600   38.6000 C   0  0  0  0  0  0  0  0  0  0  0  0
   37.7980   26.8570   38.7410 H   0  0  0  0  0  0  0  0  0  0  0  0
   37.2450   28.2750   37.3040 C   0  0  0  0  0  0  0  0  0  0  0  0
   37.4350   27.5820   36.4850 H   0  0  0  0  0  0  0  0  0  0  0  0
   36.8010   29.5580   37.0570 C   0  0  0  0  0  3  0  0  0  0  0  0
   36.5880   30.3690   38.1790 C   0  0  0  0  0  3  0  0  0  0  0  0
   39.0140   27.9490   42.8810 C   0  0  0  0  0  0  0  0  0  0  0  0
   38.7640   28.3040   41.5470 C   0  0  0  0  0  0  0  0  0  0  0  0
   37.4510   28.2870   41.0750 C   0  0  0  0  0  0  0  0  0  0  0  0
   36.4940   27.9240   41.9470 N   0  0  0  0  0  0  0  0  0  0  0  0
   36.7380   27.5860   43.2180 C   0  0  0  0  0  0  0  0  0  0  0  0
   38.0080   27.6010   43.6790 N   0  0  0  0  0  0  0  0  0  0  0  0
   39.6420   28.5650   40.9950 H   0  0  0  0  0  0  0  0  0  0  0  0
   35.8970   27.3100   43.8340 H   0  0  0  0  0  0  0  0  0  0  0  0
   40.2940   27.9640   43.3460 O   0  0  0  0  0  0  0  0  0  0  0  0
   40.8270   27.1440   43.5730 H   0  0  0  0  0  0  0  0  0  0  0  0
   35.6460   30.9750   41.3760 N   0  0  0  0  0  0  0  0  0  0  0  0
   36.4620   31.0050   40.3770 C   0  0  0  0  0  0  0  0  0  0  0  0
   36.8420   32.3510   40.5270 N   0  0  0  0  0  0  0  0  0  0  0  0
   35.5260   31.8490   41.9280 H   0  0  0  0  0  0  0  0  0  0  0  0
   37.8080   32.7070   40.6550 H   0  0  0  0  0  0  0  0  0  0  0  0
   37.1110   33.3200   40.6340 H   0  0  0  0  0  0  0  0  0  0  0  0
  1  2  1  0  0  0  0
  1 20  1  0  0  0  0
  2 11  1  0  0  0  0
  3  4  1  0  0  0  0
  3  2  2  0  0  0  0
  5  3  1  0  0  0  0
  6  5  1  0  0  0  0
  7  5  2  0  0  0  0
  7  8  1  0  0  0  0
  8  1  2  0  0  0  0
  9 17  1  0  0  0  0
  9 14  1  0  0  0  0
 10  9  2  0  0  0  0
 11 10  1  0  0  0  0
 11 12  2  0  0  0  0
 12 13  1  0  0  0  0
 13 14  2  0  0  0  0
 13 16  1  0  0  0  0
 15 10  1  0  0  0  0
 17 18  1  0  0  0  0
 19 22  1  0  0  0  0
 20 21  1  0  0  0  0
 20 19  2  0  0  0  0
 21 24  1  0  0  0  0
 21 23  1  0  0  0  0
M  END
>  <minimizedAffinity>
-5.26517773

$$$$

 OpenBabel03242523483D

 24 25  0  0  0  0  0  0  0  0999 V2000
   37.7360   31.3420   38.6210 C   0  0  0  0  0  0  0  0  0  0  0  0
   38.9790   30.9450   38.2300 C   0  0  0  0  0  0  0  0  0  0  0  0
   39.0930   29.7450   37.5650 C   0  0  0  0  0  0  0  0  0  0  0  0
   40.0600   29.4140   37.2490 H   0  0  0  0  0  0  0  0  0  0  0  0
   38.0240   28.9280   37.2740 C   0  0  0  0  0  0  0  0  0  0  0  0
   38.1970   27.9920   36.7430 H   0  0  0  0  0  0  0  0  0  0  0  0
   36.7510   29.3000   37.6560 C   0  0  0  0  0  3  0  0  0  0  0  0
   36.6370   30.5210   38.3330 C   0  0  0  0  0  3  0  0  0  0  0  0
   41.7160   33.4030   37.7620 C   0  0  0  0  0  0  0  0  0  0  0  0
   40.6630   32.5140   37.4930 C   0  0  0  0  0  0  0  0  0  0  0  0
   40.0520   31.8450   38.5530 C   0  0  0  0  0  0  0  0  0  0  0  0
   40.5220   32.1000   39.7870 N   0  0  0  0  0  0  0  0  0  0  0  0
   41.5260   32.9480   40.0380 C   0  0  0  0  0  0  0  0  0  0  0  0
   42.1200   33.5980   39.0130 N   0  0  0  0  0  0  0  0  0  0  0  0
   40.4190   32.4310   36.4550 H   0  0  0  0  0  0  0  0  0  0  0  0
   41.8260   33.0810   41.0660 H   0  0  0  0  0  0  0  0  0  0  0  0
   42.3150   34.0580   36.7300 O   0  0  0  0  0  0  0  0  0  0  0  0
   43.2450   33.8730   36.4010 H   0  0  0  0  0  0  0  0  0  0  0  0
   36.8580   32.5380   40.5650 N   0  0  0  0  0  0  0  0  0  0  0  0
   37.2550   32.4850   39.3390 C   0  0  0  0  0  0  0  0  0  0  0  0
   37.0670   33.8500   39.0560 N   0  0  0  0  0  0  0  0  0  0  0  0
   36.5550   33.4620   40.9350 H   0  0  0  0  0  0  0  0  0  0  0  0
   37.7880   34.5130   38.7130 H   0  0  0  0  0  0  0  0  0  0  0  0
   36.9270   34.8320   38.8530 H   0  0  0  0  0  0  0  0  0  0  0  0
  1 20  1  0  0  0  0
  2 11  1  0  0  0  0
  2  1  2  0  0  0  0
  3  2  1  0  0  0  0
  4  3  1  0  0  0  0
  5  3  2  0  0  0  0
  5  7  1  0  0  0  0
  6  5  1  0  0  0  0
  7  8  2  0  0  0  0
  8  1  1  0  0  0  0
  9 14  1  0  0  0  0
 10  9  2  0  0  0  0
 10 11  1  0  0  0  0
 11 12  2  0  0  0  0
 12 13  1  0  0  0  0
 13 16  1  0  0  0  0
 14 13  2  0  0  0  0
 15 10  1  0  0  0  0
 17  9  1  0  0  0  0
 18 17  1  0  0  0  0
 19 22  1  0  0  0  0
 20 19  2  0  0  0  0
 21 20  1  0  0  0  0
 23 21  1  0  0  0  0
 24 21  1  0  0  0  0
M  END
>  <minimizedAffinity>
-5.25042248

$$$$

 OpenBabel03242523483D

 24 25  0  0  0  0  0  0  0  0999 V2000
   38.5860   29.3490   42.3560 C   0  0  0  0  0  0  0  0  0  0  0  0
   37.5680   29.2830   41.4520 C   0  0  0  0  0  0  0  0  0  0  0  0
   36.5740   28.3570   41.6670 C   0  0  0  0  0  0  0  0  0  0  0  0
   35.7660   28.2870   40.9700 H   0  0  0  0  0  0  0  0  0  0  0  0
   36.5500   27.4960   42.7420 C   0  0  0  0  0  0  0  0  0  0  0  0
   35.7260   26.7900   42.8420 H   0  0  0  0  0  0  0  0  0  0  0  0
   37.5650   27.5370   43.6760 C   0  0  0  0  0  3  0  0  0  0  0  0
   38.5760   28.4800   43.4560 C   0  0  0  0  0  3  0  0  0  0  0  0
   37.2450   32.4520   39.5540 C   0  0  0  0  0  0  0  0  0  0  0  0
   37.1900   31.5100   40.5930 C   0  0  0  0  0  0  0  0  0  0  0  0
   37.6450   30.2130   40.3580 C   0  0  0  0  0  0  0  0  0  0  0  0
   38.1130   29.9450   39.1270 N   0  0  0  0  0  0  0  0  0  0  0  0
   38.1630   30.8470   38.1400 C   0  0  0  0  0  0  0  0  0  0  0  0
   37.7240   32.1040   38.3640 N   0  0  0  0  0  0  0  0  0  0  0  0
   36.7870   31.8950   41.5070 H   0  0  0  0  0  0  0  0  0  0  0  0
   38.5580   30.5270   37.1880 H   0  0  0  0  0  0  0  0  0  0  0  0
   36.8020   33.7200   39.7800 O   0  0  0  0  0  0  0  0  0  0  0  0
   35.9630   34.1090   39.3880 H   0  0  0  0  0  0  0  0  0  0  0  0
   40.9960   29.7600   42.3220 N   0  0  0  0  0  0  0  0  0  0  0  0
   39.7720   30.1490   42.4370 C   0  0  0  0  0  0  0  0  0  0  0  0
   40.0600   31.5130   42.6210 N   0  0  0  0  0  0  0  0  0  0  0  0
   41.7410   30.4820   42.3910 H   0  0  0  0  0  0  0  0  0  0  0  0
   39.7070   32.3000   42.0430 H   0  0  0  0  0  0  0  0  0  0  0  0
   40.2690   32.4940   42.7570 H   0  0  0  0  0  0  0  0  0  0  0  0
  1 20  1  0  0  0  0
  1  8  1  0  0  0  0
  2  3  1  0  0  0  0
  2  1  2  0  0  0  0
  3  5  2  0  0  0  0
  4  3  1  0  0  0  0
  5  6  1  0  0  0  0
  5  7  1  0  0  0  0
  8  7  2  0  0  0  0
  9 17  1  0  0  0  0
  9 10  1  0  0  0  0
 10 15  1  0  0  0  0
 11 10  2  0  0  0  0
 11  2  1  0  0  0  0
 12 11  1  0  0  0  0
 13 14  1  0  0  0  0
 13 12  2  0  0  0  0
 14  9  2  0  0  0  0
 16 13  1  0  0  0  0
 18 17  1  0  0  0  0
 19 22  1  0  0  0  0
 19 20  2  0  0  0  0
 20 21  1  0  0  0  0
 21 24  1  0  0  0  0
 23 21  1  0  0  0  0
M  END
>  <minimizedAffinity>
-5.23817635

$$$$

 OpenBabel03242523483D

 24 25  0  0  0  0  0  0  0  0999 V2000
   36.1160   29.9940   38.9820 C   0  0  0  0  0  0  0  0  0  0  0  0
   36.9550   30.7320   38.2010 C   0  0  0  0  0  0  0  0  0  0  0  0
   37.0150   30.4360   36.8580 C   0  0  0  0  0  0  0  0  0  0  0  0
   37.6670   31.0030   36.2280 H   0  0  0  0  0  0  0  0  0  0  0  0
   36.2760   29.4380   36.2620 C   0  0  0  0  0  0  0  0  0  0  0  0
   36.3790   29.2660   35.1910 H   0  0  0  0  0  0  0  0  0  0  0  0
   35.4180   28.6720   37.0230 C   0  0  0  0  0  3  0  0  0  0  0  0
   35.3580   28.9750   38.3900 C   0  0  0  0  0  3  0  0  0  0  0  0
   39.8040   32.5090   39.7760 C   0  0  0  0  0  0  0  0  0  0  0  0
   39.0450   31.5300   39.1160 C   0  0  0  0  0  0  0  0  0  0  0  0
   37.6910   31.7650   38.8790 C   0  0  0  0  0  0  0  0  0  0  0  0
   37.1910   32.9370   39.3090 N   0  0  0  0  0  0  0  0  0  0  0  0
   37.9180   33.8670   39.9380 C   0  0  0  0  0  0  0  0  0  0  0  0
   39.2310   33.6430   40.1680 N   0  0  0  0  0  0  0  0  0  0  0  0
   39.6030   30.6580   38.8450 H   0  0  0  0  0  0  0  0  0  0  0  0
   37.4190   34.7740   40.2410 H   0  0  0  0  0  0  0  0  0  0  0  0
   41.1260   32.2840   40.0080 O   0  0  0  0  0  0  0  0  0  0  0  0
   41.5240   32.1090   40.9130 H   0  0  0  0  0  0  0  0  0  0  0  0
   35.6640   28.9870   41.1630 N   0  0  0  0  0  0  0  0  0  0  0  0
   35.8250   30.0030   40.3840 C   0  0  0  0  0  0  0  0  0  0  0  0
   35.6450   30.9860   41.3730 N   0  0  0  0  0  0  0  0  0  0  0  0
   35.4730   29.1740   42.1680 H   0  0  0  0  0  0  0  0  0  0  0  0
   36.3180   31.7350   41.6260 H   0  0  0  0  0  0  0  0  0  0  0  0
   35.5120   31.6930   42.0850 H   0  0  0  0  0  0  0  0  0  0  0  0
  1 20  1  0  0  0  0
  2 11  1  0  0  0  0
  2  1  2  0  0  0  0
  3  2  1  0  0  0  0
  4  3  1  0  0  0  0
  5  3  2  0  0  0  0
  5  7  1  0  0  0  0
  6  5  1  0  0  0  0
  7  8  2  0  0  0  0
  8  1  1  0  0  0  0
  9 17  1  0  0  0  0
  9 14  1  0  0  0  0
 10  9  2  0  0  0  0
 11 10  1  0  0  0  0
 11 12  2  0  0  0  0
 12 13  1  0  0  0  0
 13 14  2  0  0  0  0
 13 16  1  0  0  0  0
 15 10  1  0  0  0  0
 17 18  1  0  0  0  0
 19 22  1  0  0  0  0
 20 19  2  0  0  0  0
 20 21  1  0  0  0  0
 21 23  1  0  0  0  0
 21 24  1  0  0  0  0
M  END
>  <minimizedAffinity>
-5.17607021

$$$$
