
 OpenBabel03252501513D

 50 53  0  0  1  0  0  0  0  0999 V2000
   48.6870   34.6960   41.8220 N   0  0  0  0  0  0  0  0  0  0  0  0
   49.8180   34.7020   42.7200 C   0  0  0  0  0  0  0  0  0  0  0  0
   50.7650   33.6390   42.2650 C   0  0  0  0  0  0  0  0  0  0  0  0
   49.8810   32.6850   41.5290 C   0  0  0  0  0  0  0  0  0  0  0  0
   48.5990   33.4200   41.2070 C   0  0  2  0  0  0  0  0  0  0  0  0
   49.4450   34.4940   43.7590 H   0  0  0  0  0  0  0  0  0  0  0  0
   50.3170   35.7020   42.7030 H   0  0  0  0  0  0  0  0  0  0  0  0
   51.6050   34.0410   41.6790 H   0  0  0  0  0  0  0  0  0  0  0  0
   51.1630   33.1160   43.1680 H   0  0  0  0  0  0  0  0  0  0  0  0
   50.3970   32.4500   40.5540 H   0  0  0  0  0  0  0  0  0  0  0  0
   49.7330   31.7090   42.0120 H   0  0  0  0  0  0  0  0  0  0  0  0
   47.8080   32.8510   41.7810 H   0  0  0  0  0  0  0  0  0  0  0  0
   47.5940   32.3850   39.1130 C   0  0  0  0  0  0  0  0  0  0  0  0
   48.2500   33.3680   39.7940 C   0  0  0  0  0  0  0  0  0  0  0  0
   48.6030   34.4610   38.9870 C   0  0  0  0  0  0  0  0  0  0  0  0
   49.1360   35.3010   39.4570 H   0  0  0  0  0  0  0  0  0  0  0  0
   48.2960   34.4930   37.6440 C   0  0  0  0  0  0  0  0  0  0  0  0
   48.6130   35.3800   37.1170 H   0  0  0  0  0  0  0  0  0  0  0  0
   47.6310   33.4660   37.0120 C   0  0  0  0  0  3  0  0  0  0  0  0
   47.2720   32.3830   37.7750 C   0  0  0  0  0  3  0  0  0  0  0  0
   47.3930   30.0230   40.2860 N   0  0  0  0  0  0  0  0  0  0  0  0
   47.1800   31.1960   39.8180 C   0  0  0  0  0  0  0  0  0  0  0  0
   45.8510   31.0760   40.3640 N   0  0  0  0  0  0  0  0  0  0  0  0
   46.5720   29.5960   40.7870 H   0  0  0  0  0  0  0  0  0  0  0  0
   45.0500   30.9510   39.6770 H   0  0  0  0  0  0  0  0  0  0  0  0
   45.1910   31.0450   41.1910 H   0  0  0  0  0  0  0  0  0  0  0  0
   47.4920   35.0120   42.5730 C   0  0  0  0  0  0  0  0  0  0  0  0
   47.4930   34.3630   43.4740 H   0  0  0  0  0  0  0  0  0  0  0  0
   47.4520   36.0510   42.9140 H   0  0  0  0  0  0  0  0  0  0  0  0
   45.1030   35.3140   42.0420 C   0  0  0  0  0  3  0  0  0  0  0  0
   46.2440   34.6380   41.8110 C   0  0  0  0  0  3  0  0  0  0  0  0
   43.8110   34.0440   40.2630 C   0  0  0  0  0  0  0  0  0  0  0  0
   43.8600   34.9890   41.3270 C   0  0  0  0  0  0  0  0  0  0  0  0
   42.6740   35.6280   41.7010 C   0  0  0  0  0  0  0  0  0  0  0  0
   41.5300   35.3190   41.0350 N   0  0  0  0  0  0  0  0  0  0  0  0
   41.5250   34.4190   40.0350 C   0  0  0  0  0  0  0  0  0  0  0  0
   42.6590   33.7980   39.6660 N   0  0  0  0  0  0  0  0  0  0  0  0
   44.7580   33.5620   39.9950 H   0  0  0  0  0  0  0  0  0  0  0  0
   42.6640   36.3530   42.5040 H   0  0  0  0  0  0  0  0  0  0  0  0
   39.4530   33.0930   41.3250 F   0  0  0  0  0  0  0  0  0  0  0  0
   39.2520   33.4480   40.0280 C   0  0  0  0  0  0  0  0  0  0  0  0
   40.2750   34.1170   39.3490 C   0  0  0  0  0  0  0  0  0  0  0  0
   40.1480   34.5100   38.0370 C   0  0  0  0  0  0  0  0  0  0  0  0
   38.9440   34.2110   37.4010 C   0  0  0  0  0  0  0  0  0  0  0  0
   37.9010   33.5410   38.0570 C   0  0  0  0  0  0  0  0  0  0  0  0
   38.0640   33.1620   39.3760 C   0  0  0  0  0  0  0  0  0  0  0  0
   40.9420   35.0190   37.5430 H   0  0  0  0  0  0  0  0  0  0  0  0
   38.8810   34.5400   36.3610 H   0  0  0  0  0  0  0  0  0  0  0  0
   37.0110   33.3530   37.4910 H   0  0  0  0  0  0  0  0  0  0  0  0
   37.2620   32.6420   39.8940 H   0  0  0  0  0  0  0  0  0  0  0  0
  1 27  1  0  0  0  0
  1  2  1  0  0  0  0
  2  6  1  0  0  0  0
  3  2  1  0  0  0  0
  3  9  1  0  0  0  0
  4 11  1  0  0  0  0
  4  3  1  0  0  0  0
  5  4  1  0  0  0  0
  5 12  1  1  0  0  0
  5  1  1  0  0  0  0
  7  2  1  0  0  0  0
  8  3  1  0  0  0  0
 10  4  1  0  0  0  0
 13 14  1  0  0  0  0
 13 22  1  0  0  0  0
 14  5  1  0  0  0  0
 15 16  1  0  0  0  0
 15 14  2  0  0  0  0
 17 15  1  0  0  0  0
 18 17  1  0  0  0  0
 19 17  2  0  0  0  0
 19 20  1  0  0  0  0
 20 13  2  0  0  0  0
 21 24  1  0  0  0  0
 22 21  2  0  0  0  0
 22 23  1  0  0  0  0
 23 26  1  0  0  0  0
 25 23  1  0  0  0  0
 27 29  1  0  0  0  0
 27 28  1  0  0  0  0
 31 30  2  0  0  0  0
 31 27  1  0  0  0  0
 32 33  1  0  0  0  0
 33 34  2  0  0  0  0
 33 30  1  0  0  0  0
 34 39  1  0  0  0  0
 35 34  1  0  0  0  0
 36 35  2  0  0  0  0
 37 36  1  0  0  0  0
 37 32  2  0  0  0  0
 38 32  1  0  0  0  0
 41 40  1  0  0  0  0
 42 41  2  0  0  0  0
 42 36  1  0  0  0  0
 43 42  1  0  0  0  0
 44 43  2  0  0  0  0
 44 45  1  0  0  0  0
 45 46  2  0  0  0  0
 46 50  1  0  0  0  0
 46 41  1  0  0  0  0
 47 43  1  0  0  0  0
 48 44  1  0  0  0  0
 49 45  1  0  0  0  0
M  END
>  <minimizedAffinity>
-6.46840096

>  <minimizedRMSD>
0.979479551

$$$$
