
 OpenBabel03242511293D

 39 43  0  0  1  0  0  0  0  0999 V2000
   46.5230   33.2330   38.4820 C   0  0  0  0  0  0  0  0  0  0  0  0
   47.1600   33.5140   37.2830 C   0  0  0  0  0  0  0  0  0  0  0  0
   46.2720   32.4050   36.0910 S   0  0  0  0  0  0  0  0  0  0  0  0
   45.1740   31.7560   37.4920 C   0  0  0  0  0  0  0  0  0  0  0  0
   45.5860   32.3450   38.3460 N   0  0  0  0  0  0  0  0  0  0  0  0
   47.9720   34.1970   37.0620 H   0  0  0  0  0  0  0  0  0  0  0  0
   44.7370   33.3370   41.0470 Cl  0  0  0  0  0  0  0  0  0  0  0  0
   46.2900   34.0570   40.8780 C   0  0  0  0  0  0  0  0  0  0  0  0
   46.8440   34.7510   41.9270 C   0  0  0  0  0  0  0  0  0  0  0  0
   48.1050   35.3530   41.8330 C   0  0  0  0  0  0  0  0  0  0  0  0
   48.7510   35.2080   40.6350 C   0  0  0  0  0  0  0  0  0  0  0  0
   48.2050   34.5220   39.5960 C   0  0  0  0  0  0  0  0  0  0  0  0
   46.9520   33.9280   39.6950 C   0  0  0  0  0  0  0  0  0  0  0  0
   48.5390   35.8990   42.6610 H   0  0  0  0  0  0  0  0  0  0  0  0
   49.7290   35.6760   40.5680 H   0  0  0  0  0  0  0  0  0  0  0  0
   48.8150   34.4750   38.6930 H   0  0  0  0  0  0  0  0  0  0  0  0
   45.5680   34.0420   45.3210 C   0  0  0  0  0  0  0  0  0  0  0  0
   44.7010   35.1010   45.5400 C   0  0  0  0  0  0  0  0  0  0  0  0
   44.5530   36.0480   44.5390 C   0  0  0  0  0  0  0  0  0  0  0  0
   45.2530   35.9120   43.3880 N   0  0  0  0  0  0  0  0  0  0  0  0
   46.1020   34.8710   43.1800 C   0  0  0  0  0  0  0  0  0  0  0  0
   46.2420   33.9530   44.1580 N   0  0  0  0  0  0  0  0  0  0  0  0
   45.7180   33.2780   46.0730 H   0  0  0  0  0  0  0  0  0  0  0  0
   44.1470   35.2150   46.4430 H   0  0  0  0  0  0  0  0  0  0  0  0
   43.8930   36.9210   44.6140 H   0  0  0  0  0  0  0  0  0  0  0  0
   44.5010   29.4270   37.1700 C   0  0  0  0  0  0  0  0  0  0  0  0
   44.1870   30.7640   37.0900 C   0  0  0  0  0  0  0  0  0  0  0  0
   42.9130   31.0350   36.6410 C   0  0  0  0  0  0  0  0  0  0  0  0
   42.6090   32.0620   36.5560 H   0  0  0  0  0  0  0  0  0  0  0  0
   42.0760   30.0040   36.3160 C   0  0  0  0  0  0  0  0  0  0  0  0
   41.0930   30.3000   35.9700 H   0  0  0  0  0  0  0  0  0  0  0  0
   42.4070   28.6670   36.4030 C   0  0  0  0  0  3  0  0  0  0  0  0
   43.6760   28.3820   36.8500 C   0  0  0  0  0  3  0  0  0  0  0  0
   47.0890   28.8510   37.5730 N   0  0  0  0  0  0  0  0  0  0  0  0
   45.8330   29.0530   37.5990 C   0  0  1  0  0  3  0  0  0  0  0  0
   45.9890   28.5840   38.9320 N   0  0  0  0  0  4  0  0  0  0  0  0
   47.7000   29.0210   36.7550 H   0  0  0  0  0  0  0  0  0  0  0  0
   45.3540   28.8610   39.7190 H   0  0  0  0  0  0  0  0  0  0  0  0
   46.1340   28.2220   39.8970 H   0  0  0  0  0  0  0  0  0  0  0  0
  1 13  1  0  0  0  0
  2  1  2  0  0  0  0
  3  2  1  0  0  0  0
  3  4  1  0  0  0  0
  4  5  2  0  0  0  0
  5  1  1  0  0  0  0
  6  2  1  0  0  0  0
  8  7  1  0  0  0  0
  8  9  1  0  0  0  0
  9 21  1  0  0  0  0
 10  9  2  0  0  0  0
 10 14  1  0  0  0  0
 11 10  1  0  0  0  0
 12 13  1  0  0  0  0
 12 11  2  0  0  0  0
 13  8  2  0  0  0  0
 15 11  1  0  0  0  0
 16 12  1  0  0  0  0
 17 18  1  0  0  0  0
 17 23  1  0  0  0  0
 18 24  1  0  0  0  0
 19 25  1  0  0  0  0
 19 18  2  0  0  0  0
 20 19  1  0  0  0  0
 21 20  2  0  0  0  0
 21 22  1  0  0  0  0
 22 17  2  0  0  0  0
 27 26  1  0  0  0  0
 27  4  1  0  0  0  0
 28 27  2  0  0  0  0
 29 28  1  0  0  0  0
 30 32  2  0  0  0  0
 30 28  1  0  0  0  0
 31 30  1  0  0  0  0
 32 33  1  0  0  0  0
 33 26  2  0  0  0  0
 34 35  1  0  0  0  0
 34 36  1  0  0  0  0
 35 26  1  1  0  0  0
 35 36  1  0  0  0  0
 36 38  1  0  0  0  0
 36 39  1  0  0  0  0
 37 34  1  0  0  0  0
M  END
>  <minimizedAffinity>
-5.60625315

>  <minimizedRMSD>
1.29980648

$$$$
