
 OpenBabel03242514053D

 48 51  0  0  1  0  0  0  0  0999 V2000
   46.5150   32.9630   38.7720 C   0  0  1  0  0  0  0  0  0  0  0  0
   45.0760   33.3630   38.3680 C   0  0  0  0  0  0  0  0  0  0  0  0
   44.5780   32.1540   37.5500 C   0  0  0  0  0  0  0  0  0  0  0  0
   45.3490   32.2300   36.2340 C   0  0  0  0  0  0  0  0  0  0  0  0
   46.8000   32.0870   36.4720 C   0  0  0  0  0  0  0  0  0  0  0  0
   47.4000   32.8330   37.6160 C   0  0  2  0  0  0  0  0  0  0  0  0
   46.3230   31.9580   39.2590 H   0  0  0  0  0  0  0  0  0  0  0  0
   44.4360   33.5520   39.2220 H   0  0  0  0  0  0  0  0  0  0  0  0
   45.1670   34.2170   37.6720 H   0  0  0  0  0  0  0  0  0  0  0  0
   43.5160   32.2900   37.3430 H   0  0  0  0  0  0  0  0  0  0  0  0
   44.8550   31.2710   38.1320 H   0  0  0  0  0  0  0  0  0  0  0  0
   45.0190   31.4340   35.5560 H   0  0  0  0  0  0  0  0  0  0  0  0
   45.1440   33.2360   35.8110 H   0  0  0  0  0  0  0  0  0  0  0  0
   47.3310   32.2790   35.5080 H   0  0  0  0  0  0  0  0  0  0  0  0
   46.9830   30.9850   36.6490 H   0  0  0  0  0  0  0  0  0  0  0  0
   47.7350   33.8240   37.2420 H   0  0  0  0  0  0  0  0  0  0  0  0
   46.8560   34.6580   42.0140 C   0  0  0  0  0  0  0  0  0  0  0  0
   47.9960   35.4000   41.8090 C   0  0  0  0  0  0  0  0  0  0  0  0
   48.7170   35.4130   40.6360 C   0  0  0  0  0  0  0  0  0  0  0  0
   48.1850   34.5840   39.6360 C   0  0  0  0  0  0  0  0  0  0  0  0
   47.0310   33.8230   39.8340 C   0  0  0  0  0  0  0  0  0  0  0  0
   46.3780   33.8680   41.0200 N   0  0  0  0  0  0  0  0  0  0  0  0
   48.3230   36.0090   42.6470 H   0  0  0  0  0  0  0  0  0  0  0  0
   49.5970   36.0030   40.5140 H   0  0  0  0  0  0  0  0  0  0  0  0
   48.7720   34.6330   38.7340 H   0  0  0  0  0  0  0  0  0  0  0  0
   45.6550   33.9210   45.3900 C   0  0  0  0  0  0  0  0  0  0  0  0
   44.7550   34.9380   45.6640 C   0  0  0  0  0  0  0  0  0  0  0  0
   44.5710   35.8840   44.6620 C   0  0  0  0  0  0  0  0  0  0  0  0
   45.2740   35.7590   43.4880 N   0  0  0  0  0  0  0  0  0  0  0  0
   46.1420   34.7330   43.2840 C   0  0  0  0  0  0  0  0  0  0  0  0
   46.3270   33.8330   44.2180 N   0  0  0  0  0  0  0  0  0  0  0  0
   45.8060   33.1680   46.1740 H   0  0  0  0  0  0  0  0  0  0  0  0
   44.2310   34.9850   46.6070 H   0  0  0  0  0  0  0  0  0  0  0  0
   43.8890   36.7050   44.8020 H   0  0  0  0  0  0  0  0  0  0  0  0
   48.4160   30.8320   38.6380 C   0  0  0  0  0  0  0  0  0  0  0  0
   48.6410   32.0370   37.9540 C   0  0  0  0  0  0  0  0  0  0  0  0
   49.9580   32.3290   37.6870 C   0  0  0  0  0  0  0  0  0  0  0  0
   50.1340   33.2530   37.1630 H   0  0  0  0  0  0  0  0  0  0  0  0
   50.9610   31.4750   38.0780 C   0  0  0  0  0  0  0  0  0  0  0  0
   51.9510   31.8090   37.8130 H   0  0  0  0  0  0  0  0  0  0  0  0
   50.7230   30.2970   38.7470 C   0  0  0  0  0  3  0  0  0  0  0  0
   49.4220   29.9790   39.0280 C   0  0  0  0  0  3  0  0  0  0  0  0
   46.5250   30.5050   40.1910 N   0  0  0  0  0  0  0  0  0  0  0  0
   47.0930   30.3020   39.0340 C   0  0  0  0  0  0  0  0  0  0  0  0
   46.0320   29.5130   38.5320 N   0  0  0  0  0  0  0  0  0  0  0  0
   46.9580   31.0680   40.9460 H   0  0  0  0  0  0  0  0  0  0  0  0
   45.9870   28.4690   38.6660 H   0  0  0  0  0  0  0  0  0  0  0  0
   45.1960   29.8480   37.9890 H   0  0  0  0  0  0  0  0  0  0  0  0
  1  7  1  1  0  0  0
  1 21  1  0  0  0  0
  2  1  1  0  0  0  0
  2  8  1  0  0  0  0
  3 11  1  0  0  0  0
  3  2  1  0  0  0  0
  4  5  1  0  0  0  0
  4  3  1  0  0  0  0
  5 15  1  0  0  0  0
  5  6  1  0  0  0  0
  6 16  1  6  0  0  0
  6 36  1  0  0  0  0
  6  1  1  0  0  0  0
  9  2  1  0  0  0  0
 10  3  1  0  0  0  0
 12  4  1  0  0  0  0
 13  4  1  0  0  0  0
 14  5  1  0  0  0  0
 17 30  1  0  0  0  0
 18 17  1  0  0  0  0
 18 23  1  0  0  0  0
 19 18  2  0  0  0  0
 20 21  2  0  0  0  0
 20 19  1  0  0  0  0
 21 22  1  0  0  0  0
 22 17  2  0  0  0  0
 24 19  1  0  0  0  0
 25 20  1  0  0  0  0
 26 27  1  0  0  0  0
 26 32  1  0  0  0  0
 27 33  1  0  0  0  0
 28 34  1  0  0  0  0
 28 27  2  0  0  0  0
 29 28  1  0  0  0  0
 30 29  2  0  0  0  0
 30 31  1  0  0  0  0
 31 26  2  0  0  0  0
 35 42  1  0  0  0  0
 35 44  1  0  0  0  0
 36 35  2  0  0  0  0
 37 36  1  0  0  0  0
 37 39  2  0  0  0  0
 38 37  1  0  0  0  0
 39 41  1  0  0  0  0
 40 39  1  0  0  0  0
 41 42  2  0  0  0  0
 43 46  1  0  0  0  0
 44 43  2  0  0  0  0
 45 47  1  0  0  0  0
 45 44  1  0  0  0  0
 48 45  1  0  0  0  0
M  END
>  <minimizedAffinity>
-5.43056345

>  <minimizedRMSD>
1.01099312

$$$$
