
 OpenBabel03242512223D

 46 49  0  0  0  0  0  0  0  0999 V2000
   48.3860   33.1720   41.3390 C   0  0  0  0  0  0  0  0  0  0  0  0
   48.0140   34.3870   41.8330 C   0  0  0  0  0  0  0  0  0  0  0  0
   48.9390   35.1620   42.4710 C   0  0  0  0  0  0  0  0  0  0  0  0
   50.2450   34.7050   42.6090 C   0  0  0  0  0  0  0  0  0  0  0  0
   50.5980   33.4820   42.1050 C   0  0  0  0  0  0  0  0  0  0  0  0
   49.6500   32.6780   41.4470 C   0  0  0  0  0  0  0  0  0  0  0  0
   48.5890   36.1110   42.8410 H   0  0  0  0  0  0  0  0  0  0  0  0
   50.9340   35.3650   43.1250 H   0  0  0  0  0  0  0  0  0  0  0  0
   51.6250   33.1400   42.2220 H   0  0  0  0  0  0  0  0  0  0  0  0
   46.6150   34.7740   41.6330 C   0  0  0  0  0  0  0  0  0  0  0  0
   46.0600   34.1320   40.9680 H   0  0  0  0  0  0  0  0  0  0  0  0
   46.6520   35.7840   41.1270 H   0  0  0  0  0  0  0  0  0  0  0  0
   45.9210   34.9660   42.9590 C   0  0  0  0  0  0  0  0  0  0  0  0
   46.0010   33.9250   43.8820 C   0  0  0  0  0  0  0  0  0  0  0  0
   45.3730   34.0900   45.1010 C   0  0  0  0  0  0  0  0  0  0  0  0
   44.7170   35.2530   45.3260 N   0  0  0  0  0  0  0  0  0  0  0  0
   44.6560   36.2510   44.4070 C   0  0  0  0  0  0  0  0  0  0  0  0
   45.2600   36.1020   43.2240 N   0  0  0  0  0  0  0  0  0  0  0  0
   46.5120   33.0020   43.7230 H   0  0  0  0  0  0  0  0  0  0  0  0
   45.3580   33.3780   45.8900 H   0  0  0  0  0  0  0  0  0  0  0  0
   44.1070   37.1250   44.7010 H   0  0  0  0  0  0  0  0  0  0  0  0
   47.5260   32.2900   40.6680 O   0  0  0  0  0  0  0  0  0  0  0  0
   47.0760   32.5800   39.8050 H   0  0  0  0  0  0  0  0  0  0  0  0
   50.1150   31.4460   40.9700 O   0  0  0  0  0  0  0  0  0  0  0  0
   50.5970   31.4660   39.6650 C   0  0  0  0  0  0  0  0  0  0  0  0
   51.9500   31.4860   39.4460 C   0  0  0  0  0  0  0  0  0  0  0  0
   52.4750   31.5060   38.1560 C   0  0  0  0  0  0  0  0  0  0  0  0
   51.6520   31.5040   37.1170 N   0  0  0  0  0  0  0  0  0  0  0  0
   50.3330   31.4840   37.3100 C   0  0  0  0  0  0  0  0  0  0  0  0
   49.8390   31.4660   38.5700 N   0  0  0  0  0  0  0  0  0  0  0  0
   52.6430   31.4890   40.2730 H   0  0  0  0  0  0  0  0  0  0  0  0
   53.5340   31.5220   37.9720 H   0  0  0  0  0  0  0  0  0  0  0  0
   48.3680   32.5370   36.4140 C   0  0  0  0  0  0  0  0  0  0  0  0
   49.2420   31.4770   36.3280 C   0  0  0  0  0  0  0  0  0  0  0  0
   49.0350   30.5130   35.3580 C   0  0  0  0  0  0  0  0  0  0  0  0
   49.7440   29.6990   35.3250 H   0  0  0  0  0  0  0  0  0  0  0  0
   47.9570   30.6580   34.5180 C   0  0  0  0  0  0  0  0  0  0  0  0
   47.8740   29.8600   33.7940 H   0  0  0  0  0  0  0  0  0  0  0  0
   47.0500   31.6880   34.5520 C   0  0  0  0  0  0  0  0  0  0  0  0
   47.2820   32.6390   35.5330 C   0  0  0  0  0  0  0  0  0  0  0  0
   47.3480   33.9370   38.1060 N   0  0  0  0  0  0  0  0  0  0  0  0
   48.3640   33.6780   37.3100 C   0  0  0  0  0  0  0  0  0  0  0  0
   49.1150   34.8010   37.7270 N   0  0  0  0  0  0  0  0  0  0  0  0
   47.4350   34.7870   38.7060 H   0  0  0  0  0  0  0  0  0  0  0  0
   49.3720   35.6960   37.2190 H   0  0  0  0  0  0  0  0  0  0  0  0
   49.5910   35.0170   38.6250 H   0  0  0  0  0  0  0  0  0  0  0  0
  1  6  2  0  0  0  0
  1  2  1  0  0  0  0
  2  3  2  0  0  0  0
  3  4  1  0  0  0  0
  3  7  1  0  0  0  0
  4  8  1  0  0  0  0
  5  9  1  0  0  0  0
  5  4  2  0  0  0  0
  6  5  1  0  0  0  0
 10  2  1  0  0  0  0
 10 13  1  0  0  0  0
 11 10  1  0  0  0  0
 12 10  1  0  0  0  0
 13 18  2  0  0  0  0
 13 14  1  0  0  0  0
 14 15  2  0  0  0  0
 15 16  1  0  0  0  0
 15 20  1  0  0  0  0
 17 21  1  0  0  0  0
 17 16  2  0  0  0  0
 18 17  1  0  0  0  0
 19 14  1  0  0  0  0
 22  1  1  0  0  0  0
 23 22  1  0  0  0  0
 24  6  1  0  0  0  0
 25 24  1  0  0  0  0
 26 25  1  0  0  0  0
 26 31  1  0  0  0  0
 27 26  2  0  0  0  0
 28 29  2  0  0  0  0
 28 27  1  0  0  0  0
 29 30  1  0  0  0  0
 30 25  2  0  0  0  0
 32 27  1  0  0  0  0
 33 42  1  0  0  0  0
 34 33  1  0  0  0  0
 34 29  1  0  0  0  0
 35 34  2  0  0  0  0
 36 35  1  0  0  0  0
 37 39  2  0  0  0  0
 37 35  1  0  0  0  0
 38 37  1  0  0  0  0
 39 40  1  0  0  0  0
 40 33  2  0  0  0  0
 41 44  1  0  0  0  0
 42 43  1  0  0  0  0
 42 41  2  0  0  0  0
 43 46  1  0  0  0  0
 45 43  1  0  0  0  0
M  END
>  <minimizedAffinity>
-6.66827154

>  <minimizedRMSD>
1.284971

$$$$
