
 OpenBabel03242515463D

 46 50  0  0  1  0  0  0  0  0999 V2000
   40.2130   34.9630   40.4300 C   0  0  0  0  0  0  0  0  0  0  0  0
   41.2880   34.3190   41.0480 C   0  0  0  0  0  0  0  0  0  0  0  0
   41.1790   33.0150   41.4850 C   0  0  0  0  0  0  0  0  0  0  0  0
   40.0120   32.3160   41.3220 C   0  0  0  0  0  0  0  0  0  0  0  0
   38.9430   32.9420   40.7120 C   0  0  0  0  0  0  0  0  0  0  0  0
   39.0130   34.2330   40.2680 C   0  0  0  0  0  0  0  0  0  0  0  0
   37.8880   31.9980   40.6790 O   0  0  0  0  0  0  0  0  0  0  0  0
   38.2580   30.9150   41.4670 C   0  0  2  0  0  0  0  0  0  0  0  0
   39.6290   31.0180   41.6580 O   0  0  0  0  0  0  0  0  0  0  0  0
   40.2180   35.9610   40.0680 H   0  0  0  0  0  0  0  0  0  0  0  0
   42.0610   32.6010   41.9510 H   0  0  0  0  0  0  0  0  0  0  0  0
   38.1740   34.7320   39.7850 H   0  0  0  0  0  0  0  0  0  0  0  0
   37.7030   30.8780   42.4430 H   0  0  0  0  0  0  0  0  0  0  0  0
   38.0450   29.3970   39.4180 C   0  0  0  0  0  0  0  0  0  0  0  0
   37.9400   29.6650   40.7480 C   0  0  0  0  0  0  0  0  0  0  0  0
   37.4800   28.6320   41.5750 C   0  0  0  0  0  0  0  0  0  0  0  0
   37.3520   28.7200   42.6590 H   0  0  0  0  0  0  0  0  0  0  0  0
   37.1810   27.4470   40.9540 C   0  0  0  0  0  0  0  0  0  0  0  0
   36.8230   26.6300   41.5830 H   0  0  0  0  0  0  0  0  0  0  0  0
   37.2820   27.1570   39.6110 C   0  0  0  0  0  3  0  0  0  0  0  0
   37.7320   28.1840   38.8350 C   0  0  0  0  0  3  0  0  0  0  0  0
   38.5870   31.3830   37.6740 N   0  0  0  0  0  0  0  0  0  0  0  0
   38.4880   30.4290   38.5020 C   0  0  1  0  0  3  0  0  0  0  0  0
   39.9310   30.5400   38.3960 N   0  0  0  0  0  4  0  0  0  0  0  0
   37.8910   31.9390   37.1960 H   0  0  0  0  0  0  0  0  0  0  0  0
   40.6240   29.8290   38.0390 H   0  0  0  0  0  0  0  0  0  0  0  0
   40.9580   30.7430   38.3700 H   0  0  0  0  0  0  0  0  0  0  0  0
   42.7400   35.3570   41.1730 S   0  0  0  0  0  0  0  0  0  0  0  0
   44.1930   34.4580   40.5400 C   0  0  0  0  0  0  0  0  0  0  0  0
   44.0250   33.7960   39.3780 C   0  0  0  0  0  0  0  0  0  0  0  0
   45.1440   33.0940   38.9180 C   0  0  0  0  0  0  0  0  0  0  0  0
   46.2990   33.1050   39.6190 N   0  0  0  0  0  0  0  0  0  0  0  0
   46.4240   33.7720   40.7610 C   0  0  0  0  0  0  0  0  0  0  0  0
   45.3560   34.4310   41.1830 N   0  0  0  0  0  0  0  0  0  0  0  0
   45.0560   32.3360   37.6920 N   0  0  0  0  0  0  0  0  0  0  0  0
   45.0600   32.7410   36.7320 H   0  0  0  0  0  0  0  0  0  0  0  0
   44.9760   31.3120   37.5090 H   0  0  0  0  0  0  0  0  0  0  0  0
   42.8850   33.6470   38.4130 C   0  0  0  0  0  0  0  0  0  0  0  0
   42.4200   32.6620   38.6140 H   0  0  0  0  0  0  0  0  0  0  0  0
   42.1640   34.4920   38.5430 H   0  0  0  0  0  0  0  0  0  0  0  0
   43.2370   33.7530   37.3610 H   0  0  0  0  0  0  0  0  0  0  0  0
   47.5680   33.8270   41.5200 O   0  0  0  0  0  0  0  0  0  0  0  0
   48.4230   34.9380   41.3510 C   0  0  0  0  0  0  0  0  0  0  0  0
   49.6800   34.6920   41.8070 F   0  0  0  0  0  0  0  0  0  0  0  0
   48.4000   35.2500   39.9740 F   0  0  0  0  0  0  0  0  0  0  0  0
   47.8910   36.0000   42.0820 F   0  0  0  0  0  0  0  0  0  0  0  0
  1  2  1  0  0  0  0
  2 28  1  0  0  0  0
  2  3  2  0  0  0  0
  3 11  1  0  0  0  0
  4  3  1  0  0  0  0
  4  9  1  0  0  0  0
  5  4  2  0  0  0  0
  6  1  2  0  0  0  0
  6  5  1  0  0  0  0
  7  5  1  0  0  0  0
  7  8  1  0  0  0  0
  8  9  1  0  0  0  0
  8 13  1  1  0  0  0
 10  1  1  0  0  0  0
 12  6  1  0  0  0  0
 14 15  1  0  0  0  0
 15  8  1  0  0  0  0
 15 16  2  0  0  0  0
 16 17  1  0  0  0  0
 18 16  1  0  0  0  0
 18 19  1  0  0  0  0
 20 18  2  0  0  0  0
 21 14  2  0  0  0  0
 21 20  1  0  0  0  0
 22 24  1  0  0  0  0
 22 23  1  0  0  0  0
 23 14  1  1  0  0  0
 24 23  1  0  0  0  0
 25 22  1  0  0  0  0
 26 24  1  0  0  0  0
 27 24  1  0  0  0  0
 29 28  1  0  0  0  0
 29 34  1  0  0  0  0
 30 29  2  0  0  0  0
 31 30  1  0  0  0  0
 31 32  2  0  0  0  0
 32 33  1  0  0  0  0
 33 34  2  0  0  0  0
 33 42  1  0  0  0  0
 35 31  1  0  0  0  0
 36 35  1  0  0  0  0
 37 35  1  0  0  0  0
 38 40  1  0  0  0  0
 38 39  1  0  0  0  0
 38 30  1  0  0  0  0
 41 38  1  0  0  0  0
 43 42  1  0  0  0  0
 43 44  1  0  0  0  0
 43 46  1  0  0  0  0
 45 43  1  0  0  0  0
M  END
>  <minimizedAffinity>
-6.40924072

>  <minimizedRMSD>
0.713084579

$$$$
