
 OpenBabel03242512253D

 25 27  0  0  1  0  0  0  0  0999 V2000
   45.7220   30.9450   46.8540 C   0  0  0  0  0  0  0  0  0  0  0  0
   45.7530   32.3110   46.9890 C   0  0  0  0  0  0  0  0  0  0  0  0
   45.7240   32.8480   48.2580 C   0  0  0  0  0  0  0  0  0  0  0  0
   45.7450   33.9110   48.4550 H   0  0  0  0  0  0  0  0  0  0  0  0
   45.6630   31.9400   49.2980 C   0  0  0  0  0  0  0  0  0  0  0  0
   45.6390   32.3660   50.2890 H   0  0  0  0  0  0  0  0  0  0  0  0
   45.6290   30.5660   49.2100 C   0  0  0  0  0  3  0  0  0  0  0  0
   45.6600   30.0550   47.9340 C   0  0  0  0  0  3  0  0  0  0  0  0
   45.1070   34.9060   44.4160 C   0  0  0  0  0  0  0  0  0  0  0  0
   46.1950   34.6970   43.5550 C   0  0  0  0  0  0  0  0  0  0  0  0
   47.1200   33.6800   43.8770 C   0  0  0  0  0  0  0  0  0  0  0  0
   46.8680   32.9780   45.0180 N   0  0  0  0  0  0  0  0  0  0  0  0
   45.8280   33.1880   45.8280 C   0  0  0  0  0  0  0  0  0  0  0  0
   44.9800   34.1500   45.4970 N   0  0  0  0  0  0  0  0  0  0  0  0
   44.1480   35.9270   44.1270 N   0  0  0  0  0  0  0  0  0  0  0  0
   46.2990   35.3060   42.6830 H   0  0  0  0  0  0  0  0  0  0  0  0
   47.9520   33.5050   43.2350 H   0  0  0  0  0  0  0  0  0  0  0  0
   44.2550   36.5500   43.3190 H   0  0  0  0  0  0  0  0  0  0  0  0
   43.3330   36.0470   44.7320 H   0  0  0  0  0  0  0  0  0  0  0  0
   45.4570   29.9650   44.3690 N   0  0  0  0  0  0  0  0  0  0  0  0
   45.7180   30.2640   45.5740 C   0  0  1  0  0  3  0  0  0  0  0  0
   46.5750   29.1090   45.4250 N   0  0  0  0  0  4  0  0  0  0  0  0
   44.8290   30.4090   43.7070 H   0  0  0  0  0  0  0  0  0  0  0  0
   46.5350   28.1630   45.8920 H   0  0  0  0  0  0  0  0  0  0  0  0
   47.2790   28.3590   45.2110 H   0  0  0  0  0  0  0  0  0  0  0  0
  1  2  2  0  0  0  0
  1  8  1  0  0  0  0
  2  3  1  0  0  0  0
  3  4  1  0  0  0  0
  3  5  2  0  0  0  0
  5  6  1  0  0  0  0
  7  5  1  0  0  0  0
  8  7  2  0  0  0  0
  9 14  1  0  0  0  0
 10 11  1  0  0  0  0
 10  9  2  0  0  0  0
 11 12  2  0  0  0  0
 12 13  1  0  0  0  0
 13  2  1  0  0  0  0
 14 13  2  0  0  0  0
 15  9  1  0  0  0  0
 15 19  1  0  0  0  0
 16 10  1  0  0  0  0
 17 11  1  0  0  0  0
 18 15  1  0  0  0  0
 20 22  1  0  0  0  0
 20 21  1  0  0  0  0
 21  1  1  6  0  0  0
 22 21  1  0  0  0  0
 22 24  1  0  0  0  0
 23 20  1  0  0  0  0
 25 22  1  0  0  0  0
M  END
>  <minimizedAffinity>
-4.76336908

>  <minimizedRMSD>
1.13433194

$$$$
