
 OpenBabel03252502043D

 51 55  0  0  0  0  0  0  0  0999 V2000
   45.4200   33.6090   45.0040 C   0  0  0  0  0  0  0  0  0  0  0  0
   44.9530   34.6630   45.7300 N   0  0  0  0  0  0  0  0  0  0  0  0
   44.4610   35.7880   45.2150 C   0  0  0  0  0  0  0  0  0  0  0  0
   44.4090   35.9290   43.8730 N   0  0  0  0  0  0  0  0  0  0  0  0
   44.8420   34.9560   43.0510 C   0  0  0  0  0  0  0  0  0  0  0  0
   44.7650   35.1210   41.6990 C   0  0  0  0  0  0  0  0  0  0  0  0
   45.1940   34.1170   40.8540 C   0  0  0  0  0  0  0  0  0  0  0  0
   45.7000   32.9550   41.4260 C   0  0  0  0  0  0  0  0  0  0  0  0
   45.7500   32.8580   42.8070 C   0  0  0  0  0  0  0  0  0  0  0  0
   45.3340   33.8280   43.6600 C   0  0  0  0  0  0  0  0  0  0  0  0
   44.1230   36.5450   45.9170 H   0  0  0  0  0  0  0  0  0  0  0  0
   44.3530   36.0720   41.3430 H   0  0  0  0  0  0  0  0  0  0  0  0
   45.0740   34.3750   39.8020 H   0  0  0  0  0  0  0  0  0  0  0  0
   45.9790   32.2990   40.6180 H   0  0  0  0  0  0  0  0  0  0  0  0
   47.8830   31.6210   46.7060 C   0  0  0  0  0  0  0  0  0  0  0  0
   47.3320   30.3570   46.8750 C   0  0  0  0  0  0  0  0  0  0  0  0
   46.0760   30.1750   46.4060 C   0  0  0  0  0  0  0  0  0  0  0  0
   45.4200   31.1780   45.8090 N   0  0  0  0  0  0  0  0  0  0  0  0
   45.9410   32.3970   45.6340 C   0  0  0  0  0  0  0  0  0  0  0  0
   47.1860   32.5720   46.1090 N   0  0  0  0  0  0  0  0  0  0  0  0
   45.4260   28.9570   46.5450 N   0  0  0  0  0  0  0  0  0  0  0  0
   43.9840   28.7250   46.3090 C   0  0  0  0  0  0  0  0  0  0  0  0
   43.7980   27.2340   46.3420 C   0  0  0  0  0  0  0  0  0  0  0  0
   44.9300   26.7570   47.2060 C   0  0  0  0  0  0  0  0  0  0  0  0
   46.0330   27.7180   46.9480 C   0  0  0  0  0  0  0  0  0  0  0  0
   48.8990   31.7790   47.0870 H   0  0  0  0  0  0  0  0  0  0  0  0
   43.7890   29.0620   45.2730 H   0  0  0  0  0  0  0  0  0  0  0  0
   43.3830   29.2790   47.0520 H   0  0  0  0  0  0  0  0  0  0  0  0
   43.8040   26.7640   45.3530 H   0  0  0  0  0  0  0  0  0  0  0  0
   42.7940   27.0340   46.8180 H   0  0  0  0  0  0  0  0  0  0  0  0
   45.1900   25.7220   46.8910 H   0  0  0  0  0  0  0  0  0  0  0  0
   44.5540   26.6920   48.2280 H   0  0  0  0  0  0  0  0  0  0  0  0
   46.7150   27.3390   46.1850 H   0  0  0  0  0  0  0  0  0  0  0  0
   46.4930   27.7640   47.9840 H   0  0  0  0  0  0  0  0  0  0  0  0
   48.1070   29.3460   47.4450 N   0  0  0  0  0  0  0  0  0  0  0  0
   48.6230   28.5500   46.9990 H   0  0  0  0  0  0  0  0  0  0  0  0
   48.1860   29.3890   48.4940 H   0  0  0  0  0  0  0  0  0  0  0  0
   47.6900   31.2870   43.1140 C   0  0  0  0  0  0  0  0  0  0  0  0
   46.3290   31.5390   43.0040 C   0  0  0  0  0  0  0  0  0  0  0  0
   45.5670   30.3510   43.0350 C   0  0  0  0  0  0  0  0  0  0  0  0
   44.4790   30.5090   42.9490 H   0  0  0  0  0  0  0  0  0  0  0  0
   46.1510   29.1110   43.1630 C   0  0  0  0  0  0  0  0  0  0  0  0
   45.4210   28.3150   43.1690 H   0  0  0  0  0  0  0  0  0  0  0  0
   47.5180   28.9790   43.2660 C   0  0  0  0  0  3  0  0  0  0  0  0
   48.3390   30.0830   43.2440 C   0  0  0  0  0  3  0  0  0  0  0  0
   48.8690   33.6450   43.4020 N   0  0  0  0  0  0  0  0  0  0  0  0
   48.5630   32.4500   43.0670 C   0  0  0  0  0  0  0  0  0  0  0  0
   49.7420   32.4560   42.2930 N   0  0  0  0  0  0  0  0  0  0  0  0
   48.2630   34.1690   44.0350 H   0  0  0  0  0  0  0  0  0  0  0  0
   50.1570   31.7940   41.6040 H   0  0  0  0  0  0  0  0  0  0  0  0
   50.6110   32.4760   41.7320 H   0  0  0  0  0  0  0  0  0  0  0  0
  1 19  1  0  0  0  0
  1  2  1  0  0  0  0
  3  2  2  0  0  0  0
  3 11  1  0  0  0  0
  4  3  1  0  0  0  0
  5 10  1  0  0  0  0
  5  4  2  0  0  0  0
  6  5  1  0  0  0  0
  7  8  1  0  0  0  0
  7  6  2  0  0  0  0
  8  9  2  0  0  0  0
  9 39  1  0  0  0  0
  9 10  1  0  0  0  0
 10  1  2  0  0  0  0
 12  6  1  0  0  0  0
 13  7  1  0  0  0  0
 14  8  1  0  0  0  0
 15 16  1  0  0  0  0
 15 26  1  0  0  0  0
 16 35  1  0  0  0  0
 17 21  1  0  0  0  0
 17 16  2  0  0  0  0
 18 17  1  0  0  0  0
 19 18  2  0  0  0  0
 19 20  1  0  0  0  0
 20 15  2  0  0  0  0
 21 25  1  0  0  0  0
 22 23  1  0  0  0  0
 22 21  1  0  0  0  0
 22 28  1  0  0  0  0
 23 30  1  0  0  0  0
 23 24  1  0  0  0  0
 24 32  1  0  0  0  0
 25 24  1  0  0  0  0
 25 34  1  0  0  0  0
 27 22  1  0  0  0  0
 29 23  1  0  0  0  0
 31 24  1  0  0  0  0
 33 25  1  0  0  0  0
 35 37  1  0  0  0  0
 36 35  1  0  0  0  0
 38 45  1  0  0  0  0
 39 40  1  0  0  0  0
 39 38  2  0  0  0  0
 40 42  2  0  0  0  0
 41 40  1  0  0  0  0
 42 43  1  0  0  0  0
 42 44  1  0  0  0  0
 45 44  2  0  0  0  0
 46 49  1  0  0  0  0
 47 38  1  0  0  0  0
 47 46  2  0  0  0  0
 48 47  1  0  0  0  0
 50 48  1  0  0  0  0
 51 48  1  0  0  0  0
M  END
>  <minimizedAffinity>
-5.17867947

>  <minimizedRMSD>
1.77335048

$$$$
