
 OpenBabel03242512233D

 46 49  0  0  0  0  0  0  0  0999 V2000
   36.3510   30.7980   39.9980 C   0  0  0  0  0  0  0  0  0  0  0  0
   36.1450   29.4940   39.6560 C   0  0  0  0  0  0  0  0  0  0  0  0
   36.5290   29.0580   38.4210 C   0  0  0  0  0  0  0  0  0  0  0  0
   37.1250   29.9450   37.5300 C   0  0  0  0  0  0  0  0  0  0  0  0
   37.3230   31.2500   37.8950 C   0  0  0  0  0  0  0  0  0  0  0  0
   36.9280   31.7050   39.1650 C   0  0  0  0  0  0  0  0  0  0  0  0
   36.3430   28.0200   38.2050 H   0  0  0  0  0  0  0  0  0  0  0  0
   37.4090   29.5390   36.5650 H   0  0  0  0  0  0  0  0  0  0  0  0
   37.7910   31.9290   37.1840 H   0  0  0  0  0  0  0  0  0  0  0  0
   35.5120   28.6440   40.6680 C   0  0  0  0  0  0  0  0  0  0  0  0
   34.8240   27.9120   40.2750 H   0  0  0  0  0  0  0  0  0  0  0  0
   34.8900   29.3430   41.3010 H   0  0  0  0  0  0  0  0  0  0  0  0
   36.5520   28.0300   41.5720 C   0  0  0  0  0  0  0  0  0  0  0  0
   36.9700   26.7330   41.2830 C   0  0  0  0  0  0  0  0  0  0  0  0
   37.9250   26.1620   42.1010 C   0  0  0  0  0  0  0  0  0  0  0  0
   38.3970   26.8970   43.1360 N   0  0  0  0  0  0  0  0  0  0  0  0
   37.9710   28.1600   43.3930 C   0  0  0  0  0  0  0  0  0  0  0  0
   37.0480   28.7230   42.6080 N   0  0  0  0  0  0  0  0  0  0  0  0
   36.6100   26.1390   40.4730 H   0  0  0  0  0  0  0  0  0  0  0  0
   38.3280   25.1850   41.9920 H   0  0  0  0  0  0  0  0  0  0  0  0
   38.4190   28.6420   44.2420 H   0  0  0  0  0  0  0  0  0  0  0  0
   35.9970   31.3600   41.2340 O   0  0  0  0  0  0  0  0  0  0  0  0
   36.4060   30.9990   42.0900 H   0  0  0  0  0  0  0  0  0  0  0  0
   37.1760   33.0570   39.4360 O   0  0  0  0  0  0  0  0  0  0  0  0
   38.5150   33.3820   39.6230 C   0  0  0  0  0  0  0  0  0  0  0  0
   38.8430   34.5470   40.2670 C   0  0  0  0  0  0  0  0  0  0  0  0
   40.1720   34.9110   40.4760 C   0  0  0  0  0  0  0  0  0  0  0  0
   41.1410   34.1150   40.0470 N   0  0  0  0  0  0  0  0  0  0  0  0
   40.8420   32.9770   39.4200 C   0  0  0  0  0  0  0  0  0  0  0  0
   39.5460   32.6390   39.2240 N   0  0  0  0  0  0  0  0  0  0  0  0
   38.0750   35.2140   40.6260 H   0  0  0  0  0  0  0  0  0  0  0  0
   40.4410   35.8220   40.9790 H   0  0  0  0  0  0  0  0  0  0  0  0
   42.7650   32.4280   38.0890 C   0  0  0  0  0  0  0  0  0  0  0  0
   41.7320   31.9520   38.8640 C   0  0  0  0  0  0  0  0  0  0  0  0
   41.6100   30.5880   39.0550 C   0  0  0  0  0  0  0  0  0  0  0  0
   40.7870   30.2560   39.6700 H   0  0  0  0  0  0  0  0  0  0  0  0
   42.5320   29.7630   38.4570 C   0  0  0  0  0  0  0  0  0  0  0  0
   42.3590   28.7160   38.6600 H   0  0  0  0  0  0  0  0  0  0  0  0
   43.5820   30.1730   37.6720 C   0  0  0  0  0  3  0  0  0  0  0  0
   43.6800   31.5440   37.4990 C   0  0  0  0  0  3  0  0  0  0  0  0
   42.7100   34.3710   36.6440 N   0  0  0  0  0  0  0  0  0  0  0  0
   43.1310   33.7900   37.7480 C   0  0  0  0  0  0  0  0  0  0  0  0
   43.8790   34.9100   38.1790 N   0  0  0  0  0  0  0  0  0  0  0  0
   43.0360   35.3490   36.4820 H   0  0  0  0  0  0  0  0  0  0  0  0
   44.9260   35.0620   38.2530 H   0  0  0  0  0  0  0  0  0  0  0  0
   43.5840   35.8450   38.5230 H   0  0  0  0  0  0  0  0  0  0  0  0
  1 22  1  0  0  0  0
  2  1  1  0  0  0  0
  2 10  1  0  0  0  0
  3  2  2  0  0  0  0
  4  5  2  0  0  0  0
  4  3  1  0  0  0  0
  5  6  1  0  0  0  0
  6 24  1  0  0  0  0
  6  1  2  0  0  0  0
  7  3  1  0  0  0  0
  8  4  1  0  0  0  0
  9  5  1  0  0  0  0
 10 12  1  0  0  0  0
 10 13  1  0  0  0  0
 11 10  1  0  0  0  0
 13 18  1  0  0  0  0
 14 13  2  0  0  0  0
 14 15  1  0  0  0  0
 15 16  2  0  0  0  0
 16 17  1  0  0  0  0
 17 21  1  0  0  0  0
 18 17  2  0  0  0  0
 19 14  1  0  0  0  0
 20 15  1  0  0  0  0
 22 23  1  0  0  0  0
 24 25  1  0  0  0  0
 25 26  1  0  0  0  0
 26 27  2  0  0  0  0
 26 31  1  0  0  0  0
 27 32  1  0  0  0  0
 28 27  1  0  0  0  0
 29 28  2  0  0  0  0
 30 29  1  0  0  0  0
 30 25  2  0  0  0  0
 33 34  1  0  0  0  0
 34 35  2  0  0  0  0
 34 29  1  0  0  0  0
 35 36  1  0  0  0  0
 37 38  1  0  0  0  0
 37 35  1  0  0  0  0
 39 37  2  0  0  0  0
 40 39  1  0  0  0  0
 40 33  2  0  0  0  0
 41 42  2  0  0  0  0
 42 33  1  0  0  0  0
 42 43  1  0  0  0  0
 43 45  1  0  0  0  0
 43 46  1  0  0  0  0
 44 41  1  0  0  0  0
M  END
>  <minimizedAffinity>
-7.60653257

$$$$

 OpenBabel03242512233D

 46 49  0  0  0  0  0  0  0  0999 V2000
   36.5680   31.1650   39.8270 C   0  0  0  0  0  0  0  0  0  0  0  0
   37.3190   32.1610   39.2770 C   0  0  0  0  0  0  0  0  0  0  0  0
   37.7670   32.0320   37.9940 C   0  0  0  0  0  0  0  0  0  0  0  0
   37.4520   30.8890   37.2660 C   0  0  0  0  0  0  0  0  0  0  0  0
   36.6950   29.9010   37.8360 C   0  0  0  0  0  0  0  0  0  0  0  0
   36.2320   30.0280   39.1580 C   0  0  0  0  0  0  0  0  0  0  0  0
   38.3550   32.8480   37.6120 H   0  0  0  0  0  0  0  0  0  0  0  0
   37.8350   30.8450   36.2520 H   0  0  0  0  0  0  0  0  0  0  0  0
   36.4590   29.0140   37.2510 H   0  0  0  0  0  0  0  0  0  0  0  0
   37.5920   33.3210   40.1300 C   0  0  0  0  0  0  0  0  0  0  0  0
   37.0420   33.3380   41.0570 H   0  0  0  0  0  0  0  0  0  0  0  0
   37.2330   34.2170   39.5420 H   0  0  0  0  0  0  0  0  0  0  0  0
   39.0770   33.4910   40.3380 C   0  0  0  0  0  0  0  0  0  0  0  0
   39.6280   34.7380   40.0500 C   0  0  0  0  0  0  0  0  0  0  0  0
   40.9850   34.9060   40.2410 C   0  0  0  0  0  0  0  0  0  0  0  0
   41.6990   33.8490   40.6940 N   0  0  0  0  0  0  0  0  0  0  0  0
   41.1350   32.6440   40.9660 C   0  0  0  0  0  0  0  0  0  0  0  0
   39.8220   32.4700   40.7870 N   0  0  0  0  0  0  0  0  0  0  0  0
   39.0820   35.5810   39.6920 H   0  0  0  0  0  0  0  0  0  0  0  0
   41.5280   35.8020   40.0600 H   0  0  0  0  0  0  0  0  0  0  0  0
   41.8040   31.8830   41.3210 H   0  0  0  0  0  0  0  0  0  0  0  0
   36.0550   31.1850   41.1320 O   0  0  0  0  0  0  0  0  0  0  0  0
   35.4110   31.9180   41.4120 H   0  0  0  0  0  0  0  0  0  0  0  0
   35.4670   28.9610   39.6450 O   0  0  0  0  0  0  0  0  0  0  0  0
   36.1540   27.7590   39.7780 C   0  0  0  0  0  0  0  0  0  0  0  0
   35.8000   26.6900   38.9960 C   0  0  0  0  0  0  0  0  0  0  0  0
   36.4620   25.4680   39.0970 C   0  0  0  0  0  0  0  0  0  0  0  0
   37.4550   25.3330   39.9640 N   0  0  0  0  0  0  0  0  0  0  0  0
   37.8130   26.3620   40.7340 C   0  0  0  0  0  0  0  0  0  0  0  0
   37.1590   27.5420   40.6240 N   0  0  0  0  0  0  0  0  0  0  0  0
   34.9960   26.7710   38.2820 H   0  0  0  0  0  0  0  0  0  0  0  0
   36.1940   24.6230   38.4890 H   0  0  0  0  0  0  0  0  0  0  0  0
   38.5230   27.1360   42.8950 C   0  0  0  0  0  0  0  0  0  0  0  0
   38.8660   26.4490   41.7510 C   0  0  0  0  0  0  0  0  0  0  0  0
   40.1360   25.9110   41.6470 C   0  0  0  0  0  0  0  0  0  0  0  0
   40.3640   25.3790   40.7350 H   0  0  0  0  0  0  0  0  0  0  0  0
   41.0050   26.0880   42.6960 C   0  0  0  0  0  0  0  0  0  0  0  0
   41.9720   25.6360   42.5280 H   0  0  0  0  0  0  0  0  0  0  0  0
   40.7270   26.7620   43.8600 C   0  0  0  0  0  3  0  0  0  0  0  0
   39.4480   27.2890   43.9380 C   0  0  0  0  0  3  0  0  0  0  0  0
   37.1030   29.0750   43.1840 N   0  0  0  0  0  0  0  0  0  0  0  0
   37.2750   27.7720   43.2660 C   0  0  0  0  0  0  0  0  0  0  0  0
   35.9760   27.5260   43.7700 N   0  0  0  0  0  0  0  0  0  0  0  0
   36.1730   29.4390   43.4850 H   0  0  0  0  0  0  0  0  0  0  0  0
   35.6480   27.2100   44.7270 H   0  0  0  0  0  0  0  0  0  0  0  0
   35.0400   27.5950   43.3250 H   0  0  0  0  0  0  0  0  0  0  0  0
  1 22  1  0  0  0  0
  2  1  1  0  0  0  0
  2 10  1  0  0  0  0
  3  2  2  0  0  0  0
  4  5  2  0  0  0  0
  4  3  1  0  0  0  0
  5  6  1  0  0  0  0
  6 24  1  0  0  0  0
  6  1  2  0  0  0  0
  7  3  1  0  0  0  0
  8  4  1  0  0  0  0
  9  5  1  0  0  0  0
 10 13  1  0  0  0  0
 10 11  1  0  0  0  0
 12 10  1  0  0  0  0
 13 18  1  0  0  0  0
 14 15  1  0  0  0  0
 14 13  2  0  0  0  0
 15 16  2  0  0  0  0
 16 17  1  0  0  0  0
 17 21  1  0  0  0  0
 18 17  2  0  0  0  0
 19 14  1  0  0  0  0
 20 15  1  0  0  0  0
 22 23  1  0  0  0  0
 24 25  1  0  0  0  0
 25 30  1  0  0  0  0
 26 27  1  0  0  0  0
 26 25  2  0  0  0  0
 27 28  2  0  0  0  0
 28 29  1  0  0  0  0
 29 34  1  0  0  0  0
 30 29  2  0  0  0  0
 31 26  1  0  0  0  0
 32 27  1  0  0  0  0
 33 42  1  0  0  0  0
 33 40  1  0  0  0  0
 34 33  2  0  0  0  0
 35 34  1  0  0  0  0
 35 37  2  0  0  0  0
 36 35  1  0  0  0  0
 37 39  1  0  0  0  0
 38 37  1  0  0  0  0
 39 40  2  0  0  0  0
 41 42  2  0  0  0  0
 41 44  1  0  0  0  0
 42 43  1  0  0  0  0
 43 45  1  0  0  0  0
 46 43  1  0  0  0  0
M  END
>  <minimizedAffinity>
-7.29447174

$$$$

 OpenBabel03242512233D

 46 49  0  0  0  0  0  0  0  0999 V2000
   38.6130   28.9120   42.7920 C   0  0  0  0  0  0  0  0  0  0  0  0
   38.7480   27.5570   42.7430 C   0  0  0  0  0  0  0  0  0  0  0  0
   39.9620   27.0160   42.4310 C   0  0  0  0  0  0  0  0  0  0  0  0
   41.0420   27.8520   42.1680 C   0  0  0  0  0  0  0  0  0  0  0  0
   40.8850   29.2110   42.2240 C   0  0  0  0  0  0  0  0  0  0  0  0
   39.6360   29.7740   42.5440 C   0  0  0  0  0  0  0  0  0  0  0  0
   40.0100   25.9410   42.4070 H   0  0  0  0  0  0  0  0  0  0  0  0
   41.9800   27.3640   41.9260 H   0  0  0  0  0  0  0  0  0  0  0  0
   41.7420   29.8490   42.0150 H   0  0  0  0  0  0  0  0  0  0  0  0
   37.5490   26.7680   43.0380 C   0  0  0  0  0  0  0  0  0  0  0  0
   36.7400   27.3270   43.4810 H   0  0  0  0  0  0  0  0  0  0  0  0
   37.8680   26.0170   43.8200 H   0  0  0  0  0  0  0  0  0  0  0  0
   37.1130   25.9880   41.8230 C   0  0  0  0  0  0  0  0  0  0  0  0
   36.9600   24.6100   41.9640 C   0  0  0  0  0  0  0  0  0  0  0  0
   36.5570   23.8870   40.8590 C   0  0  0  0  0  0  0  0  0  0  0  0
   36.3360   24.5590   39.7040 N   0  0  0  0  0  0  0  0  0  0  0  0
   36.4940   25.9030   39.5960 C   0  0  0  0  0  0  0  0  0  0  0  0
   36.8820   26.6140   40.6590 N   0  0  0  0  0  0  0  0  0  0  0  0
   37.1290   24.0640   42.8640 H   0  0  0  0  0  0  0  0  0  0  0  0
   36.4030   22.8350   40.8310 H   0  0  0  0  0  0  0  0  0  0  0  0
   36.2880   26.3220   38.6290 H   0  0  0  0  0  0  0  0  0  0  0  0
   37.4180   29.5800   43.1000 O   0  0  0  0  0  0  0  0  0  0  0  0
   36.9740   29.4350   44.0010 H   0  0  0  0  0  0  0  0  0  0  0  0
   39.5840   31.1730   42.5730 O   0  0  0  0  0  0  0  0  0  0  0  0
   39.1490   31.7700   41.3950 C   0  0  0  0  0  0  0  0  0  0  0  0
   39.3930   33.1010   41.1820 C   0  0  0  0  0  0  0  0  0  0  0  0
   38.9750   33.7380   40.0160 C   0  0  0  0  0  0  0  0  0  0  0  0
   38.3290   33.0450   39.0900 N   0  0  0  0  0  0  0  0  0  0  0  0
   38.0820   31.7480   39.2780 C   0  0  0  0  0  0  0  0  0  0  0  0
   38.4950   31.1440   40.4180 N   0  0  0  0  0  0  0  0  0  0  0  0
   39.9160   33.6910   41.9190 H   0  0  0  0  0  0  0  0  0  0  0  0
   39.1600   34.7820   39.8380 H   0  0  0  0  0  0  0  0  0  0  0  0
   36.3500   30.1080   38.9920 C   0  0  0  0  0  0  0  0  0  0  0  0
   37.3940   30.7890   38.4070 C   0  0  0  0  0  0  0  0  0  0  0  0
   37.7100   30.5260   37.0860 C   0  0  0  0  0  0  0  0  0  0  0  0
   38.5350   31.0820   36.6660 H   0  0  0  0  0  0  0  0  0  0  0  0
   36.9620   29.5910   36.4130 C   0  0  0  0  0  0  0  0  0  0  0  0
   37.2790   29.4510   35.3890 H   0  0  0  0  0  0  0  0  0  0  0  0
   35.9120   28.8780   36.9370 C   0  0  0  0  0  3  0  0  0  0  0  0
   35.6180   29.1610   38.2610 C   0  0  0  0  0  3  0  0  0  0  0  0
   35.1510   29.2050   40.8920 N   0  0  0  0  0  0  0  0  0  0  0  0
   35.8030   30.2020   40.3320 C   0  0  0  0  0  0  0  0  0  0  0  0
   35.6530   31.0650   41.4430 N   0  0  0  0  0  0  0  0  0  0  0  0
   34.7860   29.3740   41.8560 H   0  0  0  0  0  0  0  0  0  0  0  0
   35.0780   31.9470   41.5670 H   0  0  0  0  0  0  0  0  0  0  0  0
   36.0670   31.0400   42.3950 H   0  0  0  0  0  0  0  0  0  0  0  0
  1 22  1  0  0  0  0
  2  1  1  0  0  0  0
  2 10  1  0  0  0  0
  3  2  2  0  0  0  0
  4  5  2  0  0  0  0
  4  3  1  0  0  0  0
  5  6  1  0  0  0  0
  6 24  1  0  0  0  0
  6  1  2  0  0  0  0
  7  3  1  0  0  0  0
  8  4  1  0  0  0  0
  9  5  1  0  0  0  0
 10 11  1  0  0  0  0
 10 12  1  0  0  0  0
 13 14  1  0  0  0  0
 13 10  1  0  0  0  0
 14 19  1  0  0  0  0
 15 14  2  0  0  0  0
 16 15  1  0  0  0  0
 17 16  2  0  0  0  0
 17 18  1  0  0  0  0
 18 13  2  0  0  0  0
 20 15  1  0  0  0  0
 21 17  1  0  0  0  0
 22 23  1  0  0  0  0
 25 24  1  0  0  0  0
 26 25  1  0  0  0  0
 26 31  1  0  0  0  0
 27 26  2  0  0  0  0
 28 29  2  0  0  0  0
 28 27  1  0  0  0  0
 29 30  1  0  0  0  0
 30 25  2  0  0  0  0
 32 27  1  0  0  0  0
 33 42  1  0  0  0  0
 34 33  1  0  0  0  0
 34 29  1  0  0  0  0
 35 34  2  0  0  0  0
 36 35  1  0  0  0  0
 37 39  2  0  0  0  0
 37 35  1  0  0  0  0
 38 37  1  0  0  0  0
 39 40  1  0  0  0  0
 40 33  2  0  0  0  0
 41 44  1  0  0  0  0
 42 41  2  0  0  0  0
 42 43  1  0  0  0  0
 43 45  1  0  0  0  0
 43 46  1  0  0  0  0
M  END
>  <minimizedAffinity>
-7.23739243

$$$$

 OpenBabel03242512233D

 46 49  0  0  0  0  0  0  0  0999 V2000
   39.7510   27.6780   42.2490 C   0  0  0  0  0  0  0  0  0  0  0  0
   38.9360   26.8590   42.9730 C   0  0  0  0  0  0  0  0  0  0  0  0
   37.9190   27.4030   43.7040 C   0  0  0  0  0  0  0  0  0  0  0  0
   37.7290   28.7810   43.7020 C   0  0  0  0  0  0  0  0  0  0  0  0
   38.5590   29.5850   42.9680 C   0  0  0  0  0  0  0  0  0  0  0  0
   39.6080   29.0310   42.2140 C   0  0  0  0  0  0  0  0  0  0  0  0
   37.3070   26.7090   44.2550 H   0  0  0  0  0  0  0  0  0  0  0  0
   36.9050   29.1530   44.3010 H   0  0  0  0  0  0  0  0  0  0  0  0
   38.3940   30.6610   42.9790 H   0  0  0  0  0  0  0  0  0  0  0  0
   39.2220   25.4240   42.9040 C   0  0  0  0  0  0  0  0  0  0  0  0
   39.0420   24.8840   43.8200 H   0  0  0  0  0  0  0  0  0  0  0  0
   40.3330   25.3470   42.7140 H   0  0  0  0  0  0  0  0  0  0  0  0
   38.5240   24.7990   41.7210 C   0  0  0  0  0  0  0  0  0  0  0  0
   37.1800   24.4630   41.8710 C   0  0  0  0  0  0  0  0  0  0  0  0
   36.5300   23.8940   40.7930 C   0  0  0  0  0  0  0  0  0  0  0  0
   37.2380   23.6960   39.6560 N   0  0  0  0  0  0  0  0  0  0  0  0
   38.5480   24.0330   39.5390 C   0  0  0  0  0  0  0  0  0  0  0  0
   39.1870   24.5850   40.5740 N   0  0  0  0  0  0  0  0  0  0  0  0
   36.6070   24.6120   42.7580 H   0  0  0  0  0  0  0  0  0  0  0  0
   35.5110   23.5940   40.7750 H   0  0  0  0  0  0  0  0  0  0  0  0
   39.0010   23.8270   38.5870 H   0  0  0  0  0  0  0  0  0  0  0  0
   40.8260   27.2360   41.4640 O   0  0  0  0  0  0  0  0  0  0  0  0
   40.6590   26.6030   40.6870 H   0  0  0  0  0  0  0  0  0  0  0  0
   40.3980   29.9410   41.5000 O   0  0  0  0  0  0  0  0  0  0  0  0
   39.6990   30.7620   40.6210 C   0  0  0  0  0  0  0  0  0  0  0  0
   39.9760   32.1040   40.5860 C   0  0  0  0  0  0  0  0  0  0  0  0
   39.3000   32.9610   39.7200 C   0  0  0  0  0  0  0  0  0  0  0  0
   38.3710   32.4720   38.9120 N   0  0  0  0  0  0  0  0  0  0  0  0
   38.0880   31.1690   38.9310 C   0  0  0  0  0  0  0  0  0  0  0  0
   38.7530   30.3500   39.7790 N   0  0  0  0  0  0  0  0  0  0  0  0
   40.7270   32.5290   41.2330 H   0  0  0  0  0  0  0  0  0  0  0  0
   39.5090   34.0150   39.6840 H   0  0  0  0  0  0  0  0  0  0  0  0
   36.0290   29.9340   38.8420 C   0  0  0  0  0  0  0  0  0  0  0  0
   37.1130   30.4110   38.1390 C   0  0  0  0  0  0  0  0  0  0  0  0
   37.2030   30.1460   36.7850 C   0  0  0  0  0  0  0  0  0  0  0  0
   38.0690   30.5390   36.2710 H   0  0  0  0  0  0  0  0  0  0  0  0
   36.2010   29.4140   36.1970 C   0  0  0  0  0  0  0  0  0  0  0  0
   36.3540   29.2570   35.1390 H   0  0  0  0  0  0  0  0  0  0  0  0
   35.0970   28.9100   36.8400 C   0  0  0  0  0  3  0  0  0  0  0  0
   35.0320   29.1900   38.1950 C   0  0  0  0  0  3  0  0  0  0  0  0
   35.0840   29.1210   40.9180 N   0  0  0  0  0  0  0  0  0  0  0  0
   35.6830   30.0800   40.2420 C   0  0  0  0  0  0  0  0  0  0  0  0
   35.7200   30.9740   41.3380 N   0  0  0  0  0  0  0  0  0  0  0  0
   34.8660   29.3260   41.9180 H   0  0  0  0  0  0  0  0  0  0  0  0
   35.1970   31.8790   41.5160 H   0  0  0  0  0  0  0  0  0  0  0  0
   36.2640   30.9580   42.2230 H   0  0  0  0  0  0  0  0  0  0  0  0
  1  2  1  0  0  0  0
  2  3  2  0  0  0  0
  3  7  1  0  0  0  0
  4  3  1  0  0  0  0
  4  8  1  0  0  0  0
  5  9  1  0  0  0  0
  5  4  2  0  0  0  0
  6  1  2  0  0  0  0
  6  5  1  0  0  0  0
 10  2  1  0  0  0  0
 10 11  1  0  0  0  0
 12 10  1  0  0  0  0
 13 14  1  0  0  0  0
 13 10  1  0  0  0  0
 14 19  1  0  0  0  0
 15 14  2  0  0  0  0
 16 15  1  0  0  0  0
 17 16  2  0  0  0  0
 17 18  1  0  0  0  0
 18 13  2  0  0  0  0
 20 15  1  0  0  0  0
 21 17  1  0  0  0  0
 22  1  1  0  0  0  0
 23 22  1  0  0  0  0
 24  6  1  0  0  0  0
 25 24  1  0  0  0  0
 26 25  1  0  0  0  0
 26 31  1  0  0  0  0
 27 26  2  0  0  0  0
 28 29  2  0  0  0  0
 28 27  1  0  0  0  0
 29 30  1  0  0  0  0
 30 25  2  0  0  0  0
 32 27  1  0  0  0  0
 33 42  1  0  0  0  0
 34 33  2  0  0  0  0
 34 29  1  0  0  0  0
 35 34  1  0  0  0  0
 36 35  1  0  0  0  0
 37 35  2  0  0  0  0
 37 39  1  0  0  0  0
 38 37  1  0  0  0  0
 39 40  2  0  0  0  0
 40 33  1  0  0  0  0
 41 44  1  0  0  0  0
 42 41  2  0  0  0  0
 42 43  1  0  0  0  0
 43 45  1  0  0  0  0
 43 46  1  0  0  0  0
M  END
>  <minimizedAffinity>
-7.13903284

$$$$

 OpenBabel03242512233D

 46 49  0  0  0  0  0  0  0  0999 V2000
   36.6740   28.2200   41.5880 C   0  0  0  0  0  0  0  0  0  0  0  0
   37.3460   27.1950   42.1850 C   0  0  0  0  0  0  0  0  0  0  0  0
   37.4720   26.0050   41.5280 C   0  0  0  0  0  0  0  0  0  0  0  0
   36.9170   25.8540   40.2620 C   0  0  0  0  0  0  0  0  0  0  0  0
   36.2470   26.8970   39.6800 C   0  0  0  0  0  0  0  0  0  0  0  0
   36.1120   28.1240   40.3520 C   0  0  0  0  0  0  0  0  0  0  0  0
   38.0120   25.2320   42.0470 H   0  0  0  0  0  0  0  0  0  0  0  0
   37.0500   24.8860   39.7910 H   0  0  0  0  0  0  0  0  0  0  0  0
   35.8180   26.7590   38.6890 H   0  0  0  0  0  0  0  0  0  0  0  0
   37.8940   27.4600   43.5180 C   0  0  0  0  0  0  0  0  0  0  0  0
   37.5190   26.8150   44.2960 H   0  0  0  0  0  0  0  0  0  0  0  0
   37.5440   28.5010   43.7850 H   0  0  0  0  0  0  0  0  0  0  0  0
   39.4020   27.4940   43.4750 C   0  0  0  0  0  0  0  0  0  0  0  0
   40.0850   26.4220   44.0460 C   0  0  0  0  0  0  0  0  0  0  0  0
   41.4650   26.4400   44.0090 C   0  0  0  0  0  0  0  0  0  0  0  0
   42.0720   27.4990   43.4220 N   0  0  0  0  0  0  0  0  0  0  0  0
   41.3800   28.5300   42.8750 C   0  0  0  0  0  0  0  0  0  0  0  0
   40.0440   28.5230   42.9030 N   0  0  0  0  0  0  0  0  0  0  0  0
   39.6250   25.5800   44.5120 H   0  0  0  0  0  0  0  0  0  0  0  0
   42.1040   25.6880   44.4060 H   0  0  0  0  0  0  0  0  0  0  0  0
   41.9720   29.3120   42.4380 H   0  0  0  0  0  0  0  0  0  0  0  0
   36.4800   29.4840   42.1640 O   0  0  0  0  0  0  0  0  0  0  0  0
   37.2800   30.0600   42.4060 H   0  0  0  0  0  0  0  0  0  0  0  0
   35.4090   29.1240   39.6680 O   0  0  0  0  0  0  0  0  0  0  0  0
   36.1790   29.9010   38.8100 C   0  0  0  0  0  0  0  0  0  0  0  0
   36.1900   29.6170   37.4690 C   0  0  0  0  0  0  0  0  0  0  0  0
   36.9460   30.3710   36.5740 C   0  0  0  0  0  0  0  0  0  0  0  0
   37.6700   31.3850   37.0250 N   0  0  0  0  0  0  0  0  0  0  0  0
   37.6720   31.6770   38.3260 C   0  0  0  0  0  0  0  0  0  0  0  0
   36.9320   30.9340   39.1830 N   0  0  0  0  0  0  0  0  0  0  0  0
   35.6100   28.7980   37.0740 H   0  0  0  0  0  0  0  0  0  0  0  0
   36.9630   30.1570   35.5210 H   0  0  0  0  0  0  0  0  0  0  0  0
   39.7540   32.7300   38.9010 C   0  0  0  0  0  0  0  0  0  0  0  0
   38.3850   32.7380   39.0480 C   0  0  0  0  0  0  0  0  0  0  0  0
   37.8010   33.7090   39.8390 C   0  0  0  0  0  0  0  0  0  0  0  0
   36.7250   33.6810   39.9270 H   0  0  0  0  0  0  0  0  0  0  0  0
   38.6190   34.6300   40.4490 C   0  0  0  0  0  0  0  0  0  0  0  0
   38.0770   35.3490   41.0460 H   0  0  0  0  0  0  0  0  0  0  0  0
   39.9880   34.6760   40.3450 C   0  0  0  0  0  3  0  0  0  0  0  0
   40.5460   33.6920   39.5460 C   0  0  0  0  0  3  0  0  0  0  0  0
   40.8380   32.0480   36.8460 N   0  0  0  0  0  0  0  0  0  0  0  0
   40.6090   31.8500   38.1270 C   0  0  0  0  0  0  0  0  0  0  0  0
   41.4030   30.6820   38.1970 N   0  0  0  0  0  0  0  0  0  0  0  0
   41.4580   31.3540   36.3740 H   0  0  0  0  0  0  0  0  0  0  0  0
   41.1360   29.6640   38.3300 H   0  0  0  0  0  0  0  0  0  0  0  0
   42.4310   30.5430   38.1350 H   0  0  0  0  0  0  0  0  0  0  0  0
  1 22  1  0  0  0  0
  1  2  1  0  0  0  0
  2 10  1  0  0  0  0
  3  7  1  0  0  0  0
  3  2  2  0  0  0  0
  4  3  1  0  0  0  0
  5  4  2  0  0  0  0
  5  6  1  0  0  0  0
  6  1  2  0  0  0  0
  8  4  1  0  0  0  0
  9  5  1  0  0  0  0
 10 12  1  0  0  0  0
 10 11  1  0  0  0  0
 13 10  1  0  0  0  0
 13 14  1  0  0  0  0
 14 19  1  0  0  0  0
 15 14  2  0  0  0  0
 15 20  1  0  0  0  0
 16 15  1  0  0  0  0
 17 18  1  0  0  0  0
 17 16  2  0  0  0  0
 18 13  2  0  0  0  0
 21 17  1  0  0  0  0
 22 23  1  0  0  0  0
 24  6  1  0  0  0  0
 25 30  1  0  0  0  0
 25 24  1  0  0  0  0
 26 25  2  0  0  0  0
 27 28  2  0  0  0  0
 27 26  1  0  0  0  0
 28 29  1  0  0  0  0
 29 34  1  0  0  0  0
 29 30  2  0  0  0  0
 31 26  1  0  0  0  0
 32 27  1  0  0  0  0
 33 34  2  0  0  0  0
 33 40  1  0  0  0  0
 34 35  1  0  0  0  0
 35 36  1  0  0  0  0
 35 37  2  0  0  0  0
 37 38  1  0  0  0  0
 39 37  1  0  0  0  0
 40 39  2  0  0  0  0
 41 42  2  0  0  0  0
 42 43  1  0  0  0  0
 42 33  1  0  0  0  0
 43 45  1  0  0  0  0
 44 41  1  0  0  0  0
 46 43  1  0  0  0  0
M  END
>  <minimizedAffinity>
-7.10051823

$$$$

 OpenBabel03242512233D

 46 49  0  0  0  0  0  0  0  0999 V2000
   36.7200   28.8910   41.7420 C   0  0  0  0  0  0  0  0  0  0  0  0
   36.8210   27.5430   41.5630 C   0  0  0  0  0  0  0  0  0  0  0  0
   36.6730   27.0210   40.3110 C   0  0  0  0  0  0  0  0  0  0  0  0
   36.4210   27.8680   39.2360 C   0  0  0  0  0  0  0  0  0  0  0  0
   36.3250   29.2190   39.4380 C   0  0  0  0  0  0  0  0  0  0  0  0
   36.4760   29.7620   40.7270 C   0  0  0  0  0  0  0  0  0  0  0  0
   36.7620   25.9520   40.2280 H   0  0  0  0  0  0  0  0  0  0  0  0
   36.3130   27.3950   38.2660 H   0  0  0  0  0  0  0  0  0  0  0  0
   36.1270   29.8660   38.5850 H   0  0  0  0  0  0  0  0  0  0  0  0
   37.0890   26.7420   42.7610 C   0  0  0  0  0  0  0  0  0  0  0  0
   36.5250   25.8250   42.8250 H   0  0  0  0  0  0  0  0  0  0  0  0
   36.7460   27.3760   43.6300 H   0  0  0  0  0  0  0  0  0  0  0  0
   38.5720   26.5190   42.9300 C   0  0  0  0  0  0  0  0  0  0  0  0
   39.0690   25.2520   42.6300 C   0  0  0  0  0  0  0  0  0  0  0  0
   40.4260   25.0380   42.7780 C   0  0  0  0  0  0  0  0  0  0  0  0
   41.1900   26.0700   43.2050 N   0  0  0  0  0  0  0  0  0  0  0  0
   40.6770   27.2940   43.4890 C   0  0  0  0  0  0  0  0  0  0  0  0
   39.3660   27.5140   43.3500 N   0  0  0  0  0  0  0  0  0  0  0  0
   38.4840   24.4270   42.2930 H   0  0  0  0  0  0  0  0  0  0  0  0
   40.9310   24.1230   42.5840 H   0  0  0  0  0  0  0  0  0  0  0  0
   41.3830   28.0330   43.8190 H   0  0  0  0  0  0  0  0  0  0  0  0
   36.8530   29.5390   42.9790 O   0  0  0  0  0  0  0  0  0  0  0  0
   37.7210   29.4660   43.4990 H   0  0  0  0  0  0  0  0  0  0  0  0
   36.3580   31.1550   40.8230 O   0  0  0  0  0  0  0  0  0  0  0  0
   37.5030   31.8660   40.4800 C   0  0  0  0  0  0  0  0  0  0  0  0
   37.4400   33.2300   40.3640 C   0  0  0  0  0  0  0  0  0  0  0  0
   38.5630   33.9810   40.0240 C   0  0  0  0  0  0  0  0  0  0  0  0
   39.7180   33.3670   39.8090 N   0  0  0  0  0  0  0  0  0  0  0  0
   39.7990   32.0400   39.9170 C   0  0  0  0  0  0  0  0  0  0  0  0
   38.6980   31.3250   40.2480 N   0  0  0  0  0  0  0  0  0  0  0  0
   36.5140   33.7560   40.5330 H   0  0  0  0  0  0  0  0  0  0  0  0
   38.5260   35.0510   39.9300 H   0  0  0  0  0  0  0  0  0  0  0  0
   41.6760   31.3670   38.5770 C   0  0  0  0  0  0  0  0  0  0  0  0
   40.9520   31.1530   39.7290 C   0  0  0  0  0  0  0  0  0  0  0  0
   41.3490   30.1500   40.5940 C   0  0  0  0  0  0  0  0  0  0  0  0
   40.7550   30.0170   41.4860 H   0  0  0  0  0  0  0  0  0  0  0  0
   42.4560   29.4060   40.2630 C   0  0  0  0  0  0  0  0  0  0  0  0
   42.6920   28.6480   40.9950 H   0  0  0  0  0  0  0  0  0  0  0  0
   43.2180   29.5670   39.1320 C   0  0  0  0  0  3  0  0  0  0  0  0
   42.7980   30.5790   38.2840 C   0  0  0  0  0  3  0  0  0  0  0  0
   40.4110   32.3730   36.7740 N   0  0  0  0  0  0  0  0  0  0  0  0
   41.4930   32.3470   37.5240 C   0  0  0  0  0  0  0  0  0  0  0  0
   42.1030   33.4420   36.8690 N   0  0  0  0  0  0  0  0  0  0  0  0
   40.3780   33.1100   36.0350 H   0  0  0  0  0  0  0  0  0  0  0  0
   42.9480   33.4890   36.2300 H   0  0  0  0  0  0  0  0  0  0  0  0
   41.8700   34.4550   36.8560 H   0  0  0  0  0  0  0  0  0  0  0  0
  1 22  1  0  0  0  0
  2  1  1  0  0  0  0
  2 10  1  0  0  0  0
  3  2  2  0  0  0  0
  4  5  2  0  0  0  0
  4  3  1  0  0  0  0
  5  6  1  0  0  0  0
  6 24  1  0  0  0  0
  6  1  2  0  0  0  0
  7  3  1  0  0  0  0
  8  4  1  0  0  0  0
  9  5  1  0  0  0  0
 10 11  1  0  0  0  0
 10 13  1  0  0  0  0
 10 12  1  0  0  0  0
 13 18  1  0  0  0  0
 14 15  1  0  0  0  0
 14 13  2  0  0  0  0
 15 16  2  0  0  0  0
 16 17  1  0  0  0  0
 17 21  1  0  0  0  0
 18 17  2  0  0  0  0
 19 14  1  0  0  0  0
 20 15  1  0  0  0  0
 22 23  1  0  0  0  0
 25 24  1  0  0  0  0
 26 25  1  0  0  0  0
 26 31  1  0  0  0  0
 27 26  2  0  0  0  0
 28 29  2  0  0  0  0
 28 27  1  0  0  0  0
 29 30  1  0  0  0  0
 30 25  2  0  0  0  0
 32 27  1  0  0  0  0
 33 34  1  0  0  0  0
 34 29  1  0  0  0  0
 34 35  2  0  0  0  0
 35 36  1  0  0  0  0
 37 35  1  0  0  0  0
 37 38  1  0  0  0  0
 39 37  2  0  0  0  0
 40 33  2  0  0  0  0
 40 39  1  0  0  0  0
 41 42  2  0  0  0  0
 42 33  1  0  0  0  0
 43 42  1  0  0  0  0
 44 41  1  0  0  0  0
 45 43  1  0  0  0  0
 46 43  1  0  0  0  0
M  END
>  <minimizedAffinity>
-6.94478703

$$$$

 OpenBabel03242512233D

 46 49  0  0  0  0  0  0  0  0999 V2000
   36.8190   29.0060   41.8140 C   0  0  0  0  0  0  0  0  0  0  0  0
   36.8620   27.6620   41.5920 C   0  0  0  0  0  0  0  0  0  0  0  0
   36.8230   27.1930   40.3100 C   0  0  0  0  0  0  0  0  0  0  0  0
   36.7380   28.0900   39.2500 C   0  0  0  0  0  0  0  0  0  0  0  0
   36.6960   29.4370   39.4960 C   0  0  0  0  0  0  0  0  0  0  0  0
   36.7350   29.9250   40.8140 C   0  0  0  0  0  0  0  0  0  0  0  0
   36.8610   26.1240   40.1940 H   0  0  0  0  0  0  0  0  0  0  0  0
   36.7100   27.6590   38.2560 H   0  0  0  0  0  0  0  0  0  0  0  0
   36.6290   30.1240   38.6540 H   0  0  0  0  0  0  0  0  0  0  0  0
   36.9530   26.8050   42.7770 C   0  0  0  0  0  0  0  0  0  0  0  0
   36.2020   26.0340   42.8340 H   0  0  0  0  0  0  0  0  0  0  0  0
   36.7630   27.4880   43.6570 H   0  0  0  0  0  0  0  0  0  0  0  0
   38.3510   26.2580   42.9320 C   0  0  0  0  0  0  0  0  0  0  0  0
   39.2780   27.0470   43.6110 C   0  0  0  0  0  0  0  0  0  0  0  0
   40.5600   26.5560   43.7620 C   0  0  0  0  0  0  0  0  0  0  0  0
   40.8390   25.3380   43.2400 N   0  0  0  0  0  0  0  0  0  0  0  0
   39.9150   24.5910   42.5830 C   0  0  0  0  0  0  0  0  0  0  0  0
   38.6720   25.0560   42.4310 N   0  0  0  0  0  0  0  0  0  0  0  0
   39.0760   28.0080   44.0280 H   0  0  0  0  0  0  0  0  0  0  0  0
   41.3580   27.0540   44.2570 H   0  0  0  0  0  0  0  0  0  0  0  0
   40.2560   23.6420   42.2150 H   0  0  0  0  0  0  0  0  0  0  0  0
   36.8520   29.6020   43.0830 O   0  0  0  0  0  0  0  0  0  0  0  0
   37.6530   29.4590   43.6890 H   0  0  0  0  0  0  0  0  0  0  0  0
   36.6860   31.3180   40.9540 O   0  0  0  0  0  0  0  0  0  0  0  0
   37.9050   31.9680   40.7930 C   0  0  0  0  0  0  0  0  0  0  0  0
   37.9700   33.1000   40.0240 C   0  0  0  0  0  0  0  0  0  0  0  0
   39.1700   33.7830   39.8370 C   0  0  0  0  0  0  0  0  0  0  0  0
   40.2740   33.3300   40.4150 N   0  0  0  0  0  0  0  0  0  0  0  0
   40.2310   32.2300   41.1670 C   0  0  0  0  0  0  0  0  0  0  0  0
   39.0560   31.5790   41.3380 N   0  0  0  0  0  0  0  0  0  0  0  0
   37.0880   33.4910   39.5420 H   0  0  0  0  0  0  0  0  0  0  0  0
   39.2330   34.6720   39.2360 H   0  0  0  0  0  0  0  0  0  0  0  0
   42.4850   32.2580   41.9980 C   0  0  0  0  0  0  0  0  0  0  0  0
   41.3080   31.5510   41.8970 C   0  0  0  0  0  0  0  0  0  0  0  0
   41.2290   30.2940   42.4670 C   0  0  0  0  0  0  0  0  0  0  0  0
   40.2870   29.7740   42.3660 H   0  0  0  0  0  0  0  0  0  0  0  0
   42.3370   29.8020   43.1140 C   0  0  0  0  0  0  0  0  0  0  0  0
   42.1840   28.8160   43.5280 H   0  0  0  0  0  0  0  0  0  0  0  0
   43.5380   30.4540   43.2490 C   0  0  0  0  0  3  0  0  0  0  0  0
   43.5890   31.7110   42.6690 C   0  0  0  0  0  3  0  0  0  0  0  0
   42.7790   34.6430   42.2950 N   0  0  0  0  0  0  0  0  0  0  0  0
   42.8280   33.5820   41.5160 C   0  0  0  0  0  0  0  0  0  0  0  0
   43.2410   34.3070   40.3740 N   0  0  0  0  0  0  0  0  0  0  0  0
   43.0330   35.5530   41.8520 H   0  0  0  0  0  0  0  0  0  0  0  0
   42.7330   34.5360   39.4730 H   0  0  0  0  0  0  0  0  0  0  0  0
   44.1360   34.7850   40.1480 H   0  0  0  0  0  0  0  0  0  0  0  0
  1 22  1  0  0  0  0
  2  1  1  0  0  0  0
  2 10  1  0  0  0  0
  3  2  2  0  0  0  0
  4  5  2  0  0  0  0
  4  3  1  0  0  0  0
  5  6  1  0  0  0  0
  6 24  1  0  0  0  0
  6  1  2  0  0  0  0
  7  3  1  0  0  0  0
  8  4  1  0  0  0  0
  9  5  1  0  0  0  0
 10 11  1  0  0  0  0
 10 13  1  0  0  0  0
 10 12  1  0  0  0  0
 13 14  1  0  0  0  0
 14 15  2  0  0  0  0
 14 19  1  0  0  0  0
 15 20  1  0  0  0  0
 16 15  1  0  0  0  0
 17 16  2  0  0  0  0
 18 17  1  0  0  0  0
 18 13  2  0  0  0  0
 21 17  1  0  0  0  0
 22 23  1  0  0  0  0
 25 24  1  0  0  0  0
 25 30  1  0  0  0  0
 26 25  2  0  0  0  0
 27 26  1  0  0  0  0
 27 28  2  0  0  0  0
 28 29  1  0  0  0  0
 29 30  2  0  0  0  0
 29 34  1  0  0  0  0
 31 26  1  0  0  0  0
 32 27  1  0  0  0  0
 33 40  1  0  0  0  0
 34 33  2  0  0  0  0
 34 35  1  0  0  0  0
 35 37  2  0  0  0  0
 36 35  1  0  0  0  0
 37 39  1  0  0  0  0
 37 38  1  0  0  0  0
 40 39  2  0  0  0  0
 42 33  1  0  0  0  0
 42 41  2  0  0  0  0
 43 42  1  0  0  0  0
 44 41  1  0  0  0  0
 45 43  1  0  0  0  0
 46 43  1  0  0  0  0
M  END
>  <minimizedAffinity>
-6.90160131

$$$$

 OpenBabel03242512233D

 46 49  0  0  0  0  0  0  0  0999 V2000
   37.7320   29.8680   41.8830 C   0  0  0  0  0  0  0  0  0  0  0  0
   37.2000   28.6310   42.0980 C   0  0  0  0  0  0  0  0  0  0  0  0
   36.0390   28.2840   41.4690 C   0  0  0  0  0  0  0  0  0  0  0  0
   35.4150   29.1930   40.6210 C   0  0  0  0  0  0  0  0  0  0  0  0
   35.9670   30.4300   40.4190 C   0  0  0  0  0  0  0  0  0  0  0  0
   37.1620   30.7930   41.0640 C   0  0  0  0  0  0  0  0  0  0  0  0
   35.6650   27.2960   41.6750 H   0  0  0  0  0  0  0  0  0  0  0  0
   34.4960   28.8590   40.1500 H   0  0  0  0  0  0  0  0  0  0  0  0
   35.4650   31.1280   39.7510 H   0  0  0  0  0  0  0  0  0  0  0  0
   37.9360   27.7500   43.0080 C   0  0  0  0  0  0  0  0  0  0  0  0
   37.4480   27.5670   43.9510 H   0  0  0  0  0  0  0  0  0  0  0  0
   38.8890   28.3050   43.2570 H   0  0  0  0  0  0  0  0  0  0  0  0
   38.3340   26.4750   42.3070 C   0  0  0  0  0  0  0  0  0  0  0  0
   39.5080   26.4930   41.5560 C   0  0  0  0  0  0  0  0  0  0  0  0
   39.8840   25.3300   40.9130 C   0  0  0  0  0  0  0  0  0  0  0  0
   39.0890   24.2420   41.0500 N   0  0  0  0  0  0  0  0  0  0  0  0
   37.9500   24.2540   41.7890 C   0  0  0  0  0  0  0  0  0  0  0  0
   37.5760   25.3730   42.4160 N   0  0  0  0  0  0  0  0  0  0  0  0
   40.1460   27.3390   41.4370 H   0  0  0  0  0  0  0  0  0  0  0  0
   40.7520   25.2090   40.3120 H   0  0  0  0  0  0  0  0  0  0  0  0
   37.4040   23.3300   41.8220 H   0  0  0  0  0  0  0  0  0  0  0  0
   38.9150   30.3360   42.4730 O   0  0  0  0  0  0  0  0  0  0  0  0
   39.7920   29.8540   42.3010 H   0  0  0  0  0  0  0  0  0  0  0  0
   37.6410   32.0810   40.7890 O   0  0  0  0  0  0  0  0  0  0  0  0
   38.7180   32.1320   39.9110 C   0  0  0  0  0  0  0  0  0  0  0  0
   38.5310   31.8060   38.5930 C   0  0  0  0  0  0  0  0  0  0  0  0
   39.5830   31.8440   37.6800 C   0  0  0  0  0  0  0  0  0  0  0  0
   40.7900   32.2040   38.0910 N   0  0  0  0  0  0  0  0  0  0  0  0
   40.9920   32.5240   39.3700 C   0  0  0  0  0  0  0  0  0  0  0  0
   39.9590   32.4810   40.2440 N   0  0  0  0  0  0  0  0  0  0  0  0
   37.5590   31.5100   38.2310 H   0  0  0  0  0  0  0  0  0  0  0  0
   39.4480   31.5910   36.6440 H   0  0  0  0  0  0  0  0  0  0  0  0
   43.2080   33.4420   39.2210 C   0  0  0  0  0  0  0  0  0  0  0  0
   42.2230   32.9470   40.0470 C   0  0  0  0  0  0  0  0  0  0  0  0
   42.4590   32.8830   41.4080 C   0  0  0  0  0  0  0  0  0  0  0  0
   41.6610   32.4890   42.0200 H   0  0  0  0  0  0  0  0  0  0  0  0
   43.6740   33.3180   41.8780 C   0  0  0  0  0  0  0  0  0  0  0  0
   43.7700   33.2310   42.9510 H   0  0  0  0  0  0  0  0  0  0  0  0
   44.6960   33.8200   41.1090 C   0  0  0  0  0  3  0  0  0  0  0  0
   44.4320   33.8740   39.7510 C   0  0  0  0  0  3  0  0  0  0  0  0
   43.8730   32.8310   36.9740 N   0  0  0  0  0  0  0  0  0  0  0  0
   43.2150   33.6350   37.7830 C   0  0  0  0  0  0  0  0  0  0  0  0
   42.7440   34.4700   36.7440 N   0  0  0  0  0  0  0  0  0  0  0  0
   43.8270   33.0590   35.9570 H   0  0  0  0  0  0  0  0  0  0  0  0
   42.9890   35.4680   36.4860 H   0  0  0  0  0  0  0  0  0  0  0  0
   42.0500   34.3040   35.9880 H   0  0  0  0  0  0  0  0  0  0  0  0
  1  2  1  0  0  0  0
  1 22  1  0  0  0  0
  2 10  1  0  0  0  0
  3  7  1  0  0  0  0
  3  2  2  0  0  0  0
  4  3  1  0  0  0  0
  5  4  2  0  0  0  0
  5  6  1  0  0  0  0
  6  1  2  0  0  0  0
  8  4  1  0  0  0  0
  9  5  1  0  0  0  0
 10 12  1  0  0  0  0
 10 11  1  0  0  0  0
 13 18  1  0  0  0  0
 13 10  1  0  0  0  0
 14 13  2  0  0  0  0
 15 16  2  0  0  0  0
 15 14  1  0  0  0  0
 16 17  1  0  0  0  0
 17 21  1  0  0  0  0
 17 18  2  0  0  0  0
 19 14  1  0  0  0  0
 20 15  1  0  0  0  0
 23 22  1  0  0  0  0
 24  6  1  0  0  0  0
 25 30  1  0  0  0  0
 25 24  1  0  0  0  0
 26 25  2  0  0  0  0
 27 28  2  0  0  0  0
 27 26  1  0  0  0  0
 28 29  1  0  0  0  0
 29 34  1  0  0  0  0
 29 30  2  0  0  0  0
 31 26  1  0  0  0  0
 32 27  1  0  0  0  0
 33 40  2  0  0  0  0
 33 34  1  0  0  0  0
 34 35  2  0  0  0  0
 35 37  1  0  0  0  0
 35 36  1  0  0  0  0
 37 38  1  0  0  0  0
 39 37  2  0  0  0  0
 40 39  1  0  0  0  0
 41 42  2  0  0  0  0
 42 33  1  0  0  0  0
 43 42  1  0  0  0  0
 44 41  1  0  0  0  0
 45 43  1  0  0  0  0
 46 43  1  0  0  0  0
M  END
>  <minimizedAffinity>
-6.88304663

$$$$

 OpenBabel03242512233D

 46 49  0  0  0  0  0  0  0  0999 V2000
   37.8490   26.5990   42.6470 C   0  0  0  0  0  0  0  0  0  0  0  0
   37.9830   25.2570   42.4470 C   0  0  0  0  0  0  0  0  0  0  0  0
   39.1650   24.6500   42.7580 C   0  0  0  0  0  0  0  0  0  0  0  0
   40.2140   25.4040   43.2740 C   0  0  0  0  0  0  0  0  0  0  0  0
   40.0570   26.7510   43.4680 C   0  0  0  0  0  0  0  0  0  0  0  0
   38.8420   27.3820   43.1480 C   0  0  0  0  0  0  0  0  0  0  0  0
   39.2150   23.5890   42.5800 H   0  0  0  0  0  0  0  0  0  0  0  0
   41.1270   24.8650   43.5020 H   0  0  0  0  0  0  0  0  0  0  0  0
   40.8890   27.3250   43.8730 H   0  0  0  0  0  0  0  0  0  0  0  0
   36.8180   24.5560   41.9010 C   0  0  0  0  0  0  0  0  0  0  0  0
   35.8710   24.8730   42.3070 H   0  0  0  0  0  0  0  0  0  0  0  0
   36.9420   23.4780   42.2140 H   0  0  0  0  0  0  0  0  0  0  0  0
   36.8380   24.5870   40.3920 C   0  0  0  0  0  0  0  0  0  0  0  0
   37.2790   23.4410   39.7330 C   0  0  0  0  0  0  0  0  0  0  0  0
   37.2980   23.4560   38.3520 C   0  0  0  0  0  0  0  0  0  0  0  0
   36.8880   24.5830   37.7220 N   0  0  0  0  0  0  0  0  0  0  0  0
   36.4630   25.6840   38.3920 C   0  0  0  0  0  0  0  0  0  0  0  0
   36.4390   25.6810   39.7280 N   0  0  0  0  0  0  0  0  0  0  0  0
   37.6060   22.5460   40.2110 H   0  0  0  0  0  0  0  0  0  0  0  0
   37.6100   22.6530   37.7290 H   0  0  0  0  0  0  0  0  0  0  0  0
   36.1620   26.5160   37.7830 H   0  0  0  0  0  0  0  0  0  0  0  0
   36.6850   27.3310   42.3640 O   0  0  0  0  0  0  0  0  0  0  0  0
   35.8160   27.1040   42.8370 H   0  0  0  0  0  0  0  0  0  0  0  0
   38.7870   28.7620   43.3850 O   0  0  0  0  0  0  0  0  0  0  0  0
   39.0860   29.5590   42.2860 C   0  0  0  0  0  0  0  0  0  0  0  0
   40.0580   30.5180   42.3920 C   0  0  0  0  0  0  0  0  0  0  0  0
   40.3890   31.3380   41.3150 C   0  0  0  0  0  0  0  0  0  0  0  0
   39.7540   31.1880   40.1620 N   0  0  0  0  0  0  0  0  0  0  0  0
   38.8050   30.2600   40.0390 C   0  0  0  0  0  0  0  0  0  0  0  0
   38.4950   29.4720   41.0950 N   0  0  0  0  0  0  0  0  0  0  0  0
   40.5920   30.6630   43.3190 H   0  0  0  0  0  0  0  0  0  0  0  0
   41.1500   32.0940   41.3870 H   0  0  0  0  0  0  0  0  0  0  0  0
   36.6220   29.8640   39.1160 C   0  0  0  0  0  0  0  0  0  0  0  0
   37.9770   29.9140   38.8780 C   0  0  0  0  0  0  0  0  0  0  0  0
   38.4450   29.6410   37.6050 C   0  0  0  0  0  0  0  0  0  0  0  0
   39.5140   29.6910   37.4610 H   0  0  0  0  0  0  0  0  0  0  0  0
   37.5290   29.3290   36.6290 C   0  0  0  0  0  0  0  0  0  0  0  0
   37.9840   29.1310   35.6690 H   0  0  0  0  0  0  0  0  0  0  0  0
   36.1680   29.2620   36.8020 C   0  0  0  0  0  3  0  0  0  0  0  0
   35.7280   29.5410   38.0850 C   0  0  0  0  0  3  0  0  0  0  0  0
   35.0130   29.2530   40.8190 N   0  0  0  0  0  0  0  0  0  0  0  0
   35.8740   30.1220   40.3320 C   0  0  0  0  0  0  0  0  0  0  0  0
   35.6520   31.0760   41.3520 N   0  0  0  0  0  0  0  0  0  0  0  0
   34.5160   29.5350   41.6930 H   0  0  0  0  0  0  0  0  0  0  0  0
   35.1830   32.0260   41.3260 H   0  0  0  0  0  0  0  0  0  0  0  0
   35.8930   31.0730   42.3630 H   0  0  0  0  0  0  0  0  0  0  0  0
  1  6  1  0  0  0  0
  2  1  2  0  0  0  0
  2  3  1  0  0  0  0
  3  4  2  0  0  0  0
  4  5  1  0  0  0  0
  4  8  1  0  0  0  0
  5  9  1  0  0  0  0
  6 24  1  0  0  0  0
  6  5  2  0  0  0  0
  7  3  1  0  0  0  0
 10 12  1  0  0  0  0
 10 11  1  0  0  0  0
 10  2  1  0  0  0  0
 13 10  1  0  0  0  0
 14 19  1  0  0  0  0
 14 13  1  0  0  0  0
 15 14  2  0  0  0  0
 16 15  1  0  0  0  0
 16 17  2  0  0  0  0
 17 18  1  0  0  0  0
 18 13  2  0  0  0  0
 20 15  1  0  0  0  0
 21 17  1  0  0  0  0
 22  1  1  0  0  0  0
 22 23  1  0  0  0  0
 25 26  1  0  0  0  0
 25 24  1  0  0  0  0
 26 31  1  0  0  0  0
 27 32  1  0  0  0  0
 27 26  2  0  0  0  0
 28 27  1  0  0  0  0
 29 28  2  0  0  0  0
 29 30  1  0  0  0  0
 30 25  2  0  0  0  0
 33 42  1  0  0  0  0
 34 33  1  0  0  0  0
 34 29  1  0  0  0  0
 35 34  2  0  0  0  0
 36 35  1  0  0  0  0
 37 39  2  0  0  0  0
 37 35  1  0  0  0  0
 38 37  1  0  0  0  0
 39 40  1  0  0  0  0
 40 33  2  0  0  0  0
 41 44  1  0  0  0  0
 42 41  2  0  0  0  0
 42 43  1  0  0  0  0
 43 46  1  0  0  0  0
 45 43  1  0  0  0  0
M  END
>  <minimizedAffinity>
-6.85294485

$$$$
