
 OpenBabel03242514063D

 48 51  0  0  1  0  0  0  0  0999 V2000
   46.7010   32.7130   38.9540 C   0  0  1  0  0  0  0  0  0  0  0  0
   45.4800   33.2400   38.1620 C   0  0  0  0  0  0  0  0  0  0  0  0
   44.9450   31.9860   37.4420 C   0  0  0  0  0  0  0  0  0  0  0  0
   45.9740   31.6920   36.3530 C   0  0  0  0  0  0  0  0  0  0  0  0
   47.2890   31.3820   36.9490 C   0  0  0  0  0  0  0  0  0  0  0  0
   47.7670   32.2340   38.0770 C   0  0  2  0  0  0  0  0  0  0  0  0
   46.2240   31.8600   39.5280 H   0  0  0  0  0  0  0  0  0  0  0  0
   44.7230   33.6820   38.8000 H   0  0  0  0  0  0  0  0  0  0  0  0
   45.8750   33.9210   37.3870 H   0  0  0  0  0  0  0  0  0  0  0  0
   43.9950   32.2380   36.9690 H   0  0  0  0  0  0  0  0  0  0  0  0
   44.9210   31.1990   38.2010 H   0  0  0  0  0  0  0  0  0  0  0  0
   45.6490   30.8410   35.7450 H   0  0  0  0  0  0  0  0  0  0  0  0
   46.0560   32.6190   35.7450 H   0  0  0  0  0  0  0  0  0  0  0  0
   48.0360   31.3050   36.1230 H   0  0  0  0  0  0  0  0  0  0  0  0
   47.2190   30.3200   37.3300 H   0  0  0  0  0  0  0  0  0  0  0  0
   48.3540   33.0740   37.6480 H   0  0  0  0  0  0  0  0  0  0  0  0
   46.8750   34.6180   42.0920 C   0  0  0  0  0  0  0  0  0  0  0  0
   47.9540   35.4360   41.8490 C   0  0  0  0  0  0  0  0  0  0  0  0
   48.6830   35.4370   40.6810 C   0  0  0  0  0  0  0  0  0  0  0  0
   48.2290   34.5110   39.7290 C   0  0  0  0  0  0  0  0  0  0  0  0
   47.1370   33.6730   39.9660 C   0  0  0  0  0  0  0  0  0  0  0  0
   46.4710   33.7350   41.1440 N   0  0  0  0  0  0  0  0  0  0  0  0
   48.2240   36.1170   42.6510 H   0  0  0  0  0  0  0  0  0  0  0  0
   49.5150   36.0870   40.5290 H   0  0  0  0  0  0  0  0  0  0  0  0
   48.8180   34.5520   38.8290 H   0  0  0  0  0  0  0  0  0  0  0  0
   45.6360   33.9330   45.4650 C   0  0  0  0  0  0  0  0  0  0  0  0
   44.7270   34.9490   45.7100 C   0  0  0  0  0  0  0  0  0  0  0  0
   44.5490   35.8760   44.6890 C   0  0  0  0  0  0  0  0  0  0  0  0
   45.2670   35.7350   43.5260 N   0  0  0  0  0  0  0  0  0  0  0  0
   46.1440   34.7110   43.3510 C   0  0  0  0  0  0  0  0  0  0  0  0
   46.3230   33.8280   44.3030 N   0  0  0  0  0  0  0  0  0  0  0  0
   45.7820   33.1950   46.2640 H   0  0  0  0  0  0  0  0  0  0  0  0
   44.1910   35.0090   46.6450 H   0  0  0  0  0  0  0  0  0  0  0  0
   43.8600   36.6950   44.8060 H   0  0  0  0  0  0  0  0  0  0  0  0
   48.1510   30.3000   39.5570 C   0  0  0  0  0  0  0  0  0  0  0  0
   48.7360   31.3410   38.8190 C   0  0  0  0  0  0  0  0  0  0  0  0
   50.1090   31.4060   38.8720 C   0  0  0  0  0  0  0  0  0  0  0  0
   50.5600   32.2030   38.3080 H   0  0  0  0  0  0  0  0  0  0  0  0
   50.8270   30.4940   39.6090 C   0  0  0  0  0  0  0  0  0  0  0  0
   51.8940   30.6460   39.5750 H   0  0  0  0  0  0  0  0  0  0  0  0
   50.2380   29.4810   40.3270 C   0  0  0  0  0  3  0  0  0  0  0  0
   48.8730   29.3900   40.2930 C   0  0  0  0  0  3  0  0  0  0  0  0
   45.9150   30.4860   40.5850 N   0  0  0  0  0  0  0  0  0  0  0  0
   46.7020   30.0220   39.6530 C   0  0  0  0  0  0  0  0  0  0  0  0
   45.6740   29.3120   38.9900 N   0  0  0  0  0  0  0  0  0  0  0  0
   46.2420   31.1010   41.3510 H   0  0  0  0  0  0  0  0  0  0  0  0
   45.4200   28.3190   39.2340 H   0  0  0  0  0  0  0  0  0  0  0  0
   45.0630   29.6630   38.2090 H   0  0  0  0  0  0  0  0  0  0  0  0
  1  7  1  1  0  0  0
  1 21  1  0  0  0  0
  2  8  1  0  0  0  0
  2  1  1  0  0  0  0
  3  2  1  0  0  0  0
  3 11  1  0  0  0  0
  4  5  1  0  0  0  0
  4  3  1  0  0  0  0
  5 15  1  0  0  0  0
  5  6  1  0  0  0  0
  6 16  1  6  0  0  0
  6 36  1  0  0  0  0
  6  1  1  0  0  0  0
  9  2  1  0  0  0  0
 10  3  1  0  0  0  0
 12  4  1  0  0  0  0
 13  4  1  0  0  0  0
 14  5  1  0  0  0  0
 17 30  1  0  0  0  0
 18 17  1  0  0  0  0
 18 23  1  0  0  0  0
 19 18  2  0  0  0  0
 20 21  2  0  0  0  0
 20 19  1  0  0  0  0
 21 22  1  0  0  0  0
 22 17  2  0  0  0  0
 24 19  1  0  0  0  0
 25 20  1  0  0  0  0
 26 27  1  0  0  0  0
 26 32  1  0  0  0  0
 27 33  1  0  0  0  0
 28 34  1  0  0  0  0
 28 27  2  0  0  0  0
 29 28  1  0  0  0  0
 30 29  2  0  0  0  0
 30 31  1  0  0  0  0
 31 26  2  0  0  0  0
 35 44  1  0  0  0  0
 35 42  1  0  0  0  0
 36 37  1  0  0  0  0
 36 35  2  0  0  0  0
 37 39  2  0  0  0  0
 38 37  1  0  0  0  0
 39 41  1  0  0  0  0
 40 39  1  0  0  0  0
 42 41  2  0  0  0  0
 43 46  1  0  0  0  0
 44 43  2  0  0  0  0
 45 47  1  0  0  0  0
 45 44  1  0  0  0  0
 48 45  1  0  0  0  0
M  END
>  <minimizedAffinity>
-5.10066175

>  <minimizedRMSD>
1.37869942

$$$$
