
 OpenBabel03252501513D

 50 53  0  0  1  0  0  0  0  0999 V2000
   48.5570   34.0750   42.2130 N   0  0  0  0  0  0  0  0  0  0  0  0
   49.8360   34.4430   42.7730 C   0  0  0  0  0  0  0  0  0  0  0  0
   50.8670   33.5320   42.1900 C   0  0  0  0  0  0  0  0  0  0  0  0
   50.0780   32.3190   41.8120 C   0  0  0  0  0  0  0  0  0  0  0  0
   48.6220   32.7270   41.7720 C   0  0  2  0  0  0  0  0  0  0  0  0
   49.7790   34.3280   43.8890 H   0  0  0  0  0  0  0  0  0  0  0  0
   50.0720   35.5070   42.5260 H   0  0  0  0  0  0  0  0  0  0  0  0
   51.4270   33.9960   41.3650 H   0  0  0  0  0  0  0  0  0  0  0  0
   51.5770   33.2430   43.0010 H   0  0  0  0  0  0  0  0  0  0  0  0
   50.3870   32.0450   40.7630 H   0  0  0  0  0  0  0  0  0  0  0  0
   50.2780   31.4200   42.4110 H   0  0  0  0  0  0  0  0  0  0  0  0
   48.1430   32.1090   42.5890 H   0  0  0  0  0  0  0  0  0  0  0  0
   47.8830   33.1340   39.3750 C   0  0  0  0  0  0  0  0  0  0  0  0
   47.9690   32.3910   40.5150 C   0  0  0  0  0  0  0  0  0  0  0  0
   47.3420   31.1410   40.4110 C   0  0  0  0  0  0  0  0  0  0  0  0
   47.3630   30.4760   41.2860 H   0  0  0  0  0  0  0  0  0  0  0  0
   46.7130   30.7440   39.2500 C   0  0  0  0  0  0  0  0  0  0  0  0
   46.2630   29.7640   39.2780 H   0  0  0  0  0  0  0  0  0  0  0  0
   46.6590   31.5410   38.1290 C   0  0  0  0  0  3  0  0  0  0  0  0
   47.2650   32.7720   38.1990 C   0  0  0  0  0  3  0  0  0  0  0  0
   48.8650   35.5310   39.9070 N   0  0  0  0  0  0  0  0  0  0  0  0
   48.4760   34.4490   39.3440 C   0  0  0  0  0  0  0  0  0  0  0  0
   48.9480   35.0270   38.1090 N   0  0  0  0  0  0  0  0  0  0  0  0
   49.2930   36.2360   39.2540 H   0  0  0  0  0  0  0  0  0  0  0  0
   48.2170   35.3380   37.4040 H   0  0  0  0  0  0  0  0  0  0  0  0
   49.7390   35.3340   37.4760 H   0  0  0  0  0  0  0  0  0  0  0  0
   47.5350   34.2600   43.2200 C   0  0  0  0  0  0  0  0  0  0  0  0
   47.6830   33.4680   43.9830 H   0  0  0  0  0  0  0  0  0  0  0  0
   47.5940   35.2270   43.7310 H   0  0  0  0  0  0  0  0  0  0  0  0
   45.6840   34.8390   41.6960 C   0  0  0  0  0  3  0  0  0  0  0  0
   46.1550   34.0220   42.6580 C   0  0  0  0  0  3  0  0  0  0  0  0
   44.0270   33.5560   40.2630 C   0  0  0  0  0  0  0  0  0  0  0  0
   44.3470   34.6500   41.1160 C   0  0  0  0  0  0  0  0  0  0  0  0
   43.3410   35.5760   41.4110 C   0  0  0  0  0  0  0  0  0  0  0  0
   42.1070   35.3900   40.8710 N   0  0  0  0  0  0  0  0  0  0  0  0
   41.8450   34.3420   40.0700 C   0  0  0  0  0  0  0  0  0  0  0  0
   42.8030   33.4460   39.7790 N   0  0  0  0  0  0  0  0  0  0  0  0
   44.8380   32.8490   40.0520 H   0  0  0  0  0  0  0  0  0  0  0  0
   43.5380   36.4220   42.0550 H   0  0  0  0  0  0  0  0  0  0  0  0
   39.7120   33.5310   41.6520 F   0  0  0  0  0  0  0  0  0  0  0  0
   39.4550   33.7720   40.3390 C   0  0  0  0  0  0  0  0  0  0  0  0
   40.5070   34.1820   39.5140 C   0  0  0  0  0  0  0  0  0  0  0  0
   40.3290   34.4460   38.1750 C   0  0  0  0  0  0  0  0  0  0  0  0
   39.0420   34.2860   37.6650 C   0  0  0  0  0  0  0  0  0  0  0  0
   37.9680   33.8760   38.4700 C   0  0  0  0  0  0  0  0  0  0  0  0
   38.1840   33.6210   39.8110 C   0  0  0  0  0  0  0  0  0  0  0  0
   41.1470   34.7570   37.5690 H   0  0  0  0  0  0  0  0  0  0  0  0
   38.9400   34.5050   36.6010 H   0  0  0  0  0  0  0  0  0  0  0  0
   37.0120   33.7800   37.9940 H   0  0  0  0  0  0  0  0  0  0  0  0
   37.3580   33.3020   40.4420 H   0  0  0  0  0  0  0  0  0  0  0  0
  1  2  1  0  0  0  0
  1 27  1  0  0  0  0
  2  6  1  0  0  0  0
  3  2  1  0  0  0  0
  3  9  1  0  0  0  0
  4  3  1  0  0  0  0
  4 11  1  0  0  0  0
  5  4  1  0  0  0  0
  5  1  1  0  0  0  0
  5 12  1  1  0  0  0
  7  2  1  0  0  0  0
  8  3  1  0  0  0  0
 10  4  1  0  0  0  0
 13 14  1  0  0  0  0
 14  5  1  0  0  0  0
 15 14  2  0  0  0  0
 15 16  1  0  0  0  0
 17 18  1  0  0  0  0
 17 15  1  0  0  0  0
 19 20  1  0  0  0  0
 19 17  2  0  0  0  0
 20 13  2  0  0  0  0
 22 13  1  0  0  0  0
 22 21  2  0  0  0  0
 23 22  1  0  0  0  0
 24 21  1  0  0  0  0
 25 23  1  0  0  0  0
 26 23  1  0  0  0  0
 27 29  1  0  0  0  0
 27 28  1  0  0  0  0
 30 31  2  0  0  0  0
 31 27  1  0  0  0  0
 32 33  1  0  0  0  0
 33 34  2  0  0  0  0
 33 30  1  0  0  0  0
 34 39  1  0  0  0  0
 35 34  1  0  0  0  0
 36 35  2  0  0  0  0
 37 36  1  0  0  0  0
 37 32  2  0  0  0  0
 38 32  1  0  0  0  0
 41 40  1  0  0  0  0
 42 36  1  0  0  0  0
 42 41  2  0  0  0  0
 43 42  1  0  0  0  0
 44 43  2  0  0  0  0
 44 45  1  0  0  0  0
 45 46  2  0  0  0  0
 46 41  1  0  0  0  0
 46 50  1  0  0  0  0
 47 43  1  0  0  0  0
 48 44  1  0  0  0  0
 49 45  1  0  0  0  0
M  END
>  <minimizedAffinity>
-6.85043955

>  <minimizedRMSD>
1.19567561

$$$$
