
 OpenBabel03242519063D

 48 51  0  0  1  0  0  0  0  0999 V2000
   49.2280   32.0000   37.9020 C   0  0  0  0  0  0  0  0  0  0  0  0
   48.8680   32.9790   38.8420 C   0  0  0  0  0  0  0  0  0  0  0  0
   48.3210   34.0940   38.2690 C   0  0  0  0  0  0  0  0  0  0  0  0
   48.1160   34.3030   36.9350 C   0  0  0  0  0  0  0  0  0  0  0  0
   48.4860   33.3100   36.0480 C   0  0  0  0  0  0  0  0  0  0  0  0
   49.0460   32.1540   36.5620 C   0  0  0  0  0  0  0  0  0  0  0  0
   48.0060   34.9180   38.9020 H   0  0  0  0  0  0  0  0  0  0  0  0
   47.6740   35.2180   36.5390 H   0  0  0  0  0  0  0  0  0  0  0  0
   48.3670   33.3750   34.9760 H   0  0  0  0  0  0  0  0  0  0  0  0
   48.3850   30.2560   35.3040 C   0  0  0  0  0  0  0  0  0  0  0  0
   49.4440   31.0930   35.6390 C   0  0  0  0  0  0  0  0  0  0  0  0
   50.7020   30.8850   35.1200 C   0  0  0  0  0  0  0  0  0  0  0  0
   51.4580   31.5860   35.4380 H   0  0  0  0  0  0  0  0  0  0  0  0
   50.9650   29.8510   34.2570 C   0  0  0  0  0  0  0  0  0  0  0  0
   51.9560   29.6980   33.8550 H   0  0  0  0  0  0  0  0  0  0  0  0
   49.9190   29.0210   33.9220 C   0  0  0  0  0  3  0  0  0  0  0  0
   48.6550   29.2030   34.4240 C   0  0  0  0  0  3  0  0  0  0  0  0
   46.1080   31.0320   35.1520 N   0  0  0  0  0  0  0  0  0  0  0  0
   47.0150   30.3760   35.7880 C   0  0  0  0  0  0  0  0  0  0  0  0
   46.6490   29.7490   37.0120 N   0  0  0  0  0  0  0  0  0  0  0  0
   45.1560   31.0640   35.5750 H   0  0  0  0  0  0  0  0  0  0  0  0
   46.7680   28.7010   37.1220 H   0  0  0  0  0  0  0  0  0  0  0  0
   46.2840   29.7500   37.9810 H   0  0  0  0  0  0  0  0  0  0  0  0
   49.0400   32.8580   40.2420 N   0  0  0  0  0  0  0  0  0  0  0  0
   50.0270   32.7740   40.6250 H   0  0  0  0  0  0  0  0  0  0  0  0
   47.3840   33.5430   43.3250 N   0  0  0  0  0  0  0  0  0  0  0  0
   48.1230   34.0420   42.1850 C   0  0  0  0  0  0  0  0  0  0  0  0
   48.0620   32.8250   41.3100 C   0  0  2  0  0  0  0  0  0  0  0  0
   48.5190   31.7590   42.2900 C   0  0  0  0  0  0  0  0  0  0  0  0
   47.8740   32.1970   43.5800 C   0  0  0  0  0  0  0  0  0  0  0  0
   47.6580   34.9440   41.7510 H   0  0  0  0  0  0  0  0  0  0  0  0
   49.1680   34.2090   42.5200 H   0  0  0  0  0  0  0  0  0  0  0  0
   47.0390   32.6500   40.9750 H   0  0  0  0  0  0  0  0  0  0  0  0
   49.6170   31.7960   42.4150 H   0  0  0  0  0  0  0  0  0  0  0  0
   48.2340   30.7370   41.9800 H   0  0  0  0  0  0  0  0  0  0  0  0
   46.9870   31.5590   43.7610 H   0  0  0  0  0  0  0  0  0  0  0  0
   48.6020   32.1710   44.4150 H   0  0  0  0  0  0  0  0  0  0  0  0
   44.6310   35.7310   44.5390 C   0  0  0  0  0  0  0  0  0  0  0  0
   45.5980   35.2140   43.6770 C   0  0  0  0  0  0  0  0  0  0  0  0
   46.3850   34.1460   44.0940 C   0  0  0  0  0  0  0  0  0  0  0  0
   46.1500   33.6660   45.3510 N   0  0  0  0  0  0  0  0  0  0  0  0
   45.2210   34.1570   46.1860 C   0  0  0  0  0  0  0  0  0  0  0  0
   44.4550   35.2010   45.7740 N   0  0  0  0  0  0  0  0  0  0  0  0
   44.0500   36.5610   44.1580 H   0  0  0  0  0  0  0  0  0  0  0  0
   45.8100   35.5680   42.6810 H   0  0  0  0  0  0  0  0  0  0  0  0
   45.1370   33.6920   47.1450 H   0  0  0  0  0  0  0  0  0  0  0  0
   50.2740   29.7960   38.8610 N   0  0  0  0  0  0  0  0  0  0  0  0
   49.8210   30.7760   38.4400 C   0  0  0  0  0  0  0  0  0  0  0  0
  1 48  1  0  0  0  0
  1  2  1  0  0  0  0
  2 24  1  0  0  0  0
  3  2  2  0  0  0  0
  3  7  1  0  0  0  0
  4  3  1  0  0  0  0
  5  6  1  0  0  0  0
  5  4  2  0  0  0  0
  6  1  2  0  0  0  0
  8  4  1  0  0  0  0
  9  5  1  0  0  0  0
 10 11  1  0  0  0  0
 10 19  1  0  0  0  0
 11  6  1  0  0  0  0
 12 13  1  0  0  0  0
 12 11  2  0  0  0  0
 14 12  1  0  0  0  0
 15 14  1  0  0  0  0
 16 14  2  0  0  0  0
 16 17  1  0  0  0  0
 17 10  2  0  0  0  0
 18 21  1  0  0  0  0
 18 19  2  0  0  0  0
 19 20  1  0  0  0  0
 20 22  1  0  0  0  0
 20 23  1  0  0  0  0
 24 25  1  0  0  0  0
 24 28  1  0  0  0  0
 26 30  1  0  0  0  0
 26 40  1  0  0  0  0
 27 32  1  0  0  0  0
 27 26  1  0  0  0  0
 28 33  1  6  0  0  0
 28 27  1  0  0  0  0
 28 29  1  0  0  0  0
 29 34  1  0  0  0  0
 29 30  1  0  0  0  0
 30 36  1  0  0  0  0
 30 37  1  0  0  0  0
 31 27  1  0  0  0  0
 35 29  1  0  0  0  0
 38 43  1  0  0  0  0
 39 40  1  0  0  0  0
 39 38  2  0  0  0  0
 40 41  2  0  0  0  0
 41 42  1  0  0  0  0
 42 46  1  0  0  0  0
 43 42  2  0  0  0  0
 44 38  1  0  0  0  0
 45 39  1  0  0  0  0
 48 47  3  0  0  0  0
M  END
>  <minimizedAffinity>
-4.68143797

>  <minimizedRMSD>
0.664950848

$$$$
