
 OpenBabel03242521243D

 47 50  0  0  0  0  0  0  0  0999 V2000
   45.3810   33.6180   45.6870 C   0  0  0  0  0  0  0  0  0  0  0  0
   44.8580   34.8420   45.9870 C   0  0  0  0  0  0  0  0  0  0  0  0
   44.4370   35.7500   45.0400 C   0  0  0  0  0  0  0  0  0  0  0  0
   44.5740   35.3540   43.7490 N   0  0  0  0  0  0  0  0  0  0  0  0
   45.0870   34.1540   43.4490 C   0  0  0  0  0  0  0  0  0  0  0  0
   45.4900   33.2840   44.3840 N   0  0  0  0  0  0  0  0  0  0  0  0
   44.7640   35.1250   47.0260 H   0  0  0  0  0  0  0  0  0  0  0  0
   44.0260   36.7120   45.2800 H   0  0  0  0  0  0  0  0  0  0  0  0
   45.2220   33.7490   42.0320 C   0  0  0  0  0  0  0  0  0  0  0  0
   44.2240   33.0410   41.4250 C   0  0  0  0  0  0  0  0  0  0  0  0
   44.2420   32.6140   40.1140 C   0  0  0  0  0  0  0  0  0  0  0  0
   45.3800   32.9440   39.3760 C   0  0  0  0  0  0  0  0  0  0  0  0
   46.3840   33.6500   39.9700 C   0  0  0  0  0  0  0  0  0  0  0  0
   46.3380   34.0630   41.2830 C   0  0  0  0  0  0  0  0  0  0  0  0
   43.3360   32.7860   42.0070 H   0  0  0  0  0  0  0  0  0  0  0  0
   43.4100   32.0560   39.7050 H   0  0  0  0  0  0  0  0  0  0  0  0
   45.4180   32.6200   38.3480 H   0  0  0  0  0  0  0  0  0  0  0  0
   47.2850   33.9250   39.4280 H   0  0  0  0  0  0  0  0  0  0  0  0
   47.3360   34.7790   41.9140 O   0  0  0  0  0  0  0  0  0  0  0  0
   49.7660   35.4280   42.6160 O   0  0  0  0  0  0  0  0  0  0  0  0
   48.9640   34.8350   41.4660 P   0  0  0  0  0  0  0  0  0  0  0  0
   49.6040   33.3510   41.0030 O   0  0  0  0  0  0  0  0  0  0  0  0
   50.3210   33.4290   40.3440 H   0  0  0  0  0  0  0  0  0  0  0  0
   49.1250   35.8990   40.1560 O   0  0  0  0  0  0  0  0  0  0  0  0
   49.9190   35.6330   39.6560 H   0  0  0  0  0  0  0  0  0  0  0  0
   45.8800   32.1050   48.9770 C   0  0  0  0  0  0  0  0  0  0  0  0
   46.6190   30.9540   48.6480 C   0  0  0  0  0  0  0  0  0  0  0  0
   46.9400   30.7020   47.3310 C   0  0  0  0  0  0  0  0  0  0  0  0
   46.5140   31.6050   46.3920 N   0  0  0  0  0  0  0  0  0  0  0  0
   45.8080   32.6990   46.7250 C   0  0  0  0  0  0  0  0  0  0  0  0
   45.5010   32.9370   47.9980 N   0  0  0  0  0  0  0  0  0  0  0  0
   45.5990   32.3510   50.0020 H   0  0  0  0  0  0  0  0  0  0  0  0
   46.8660   30.3640   49.5120 H   0  0  0  0  0  0  0  0  0  0  0  0
   47.2010   28.2330   47.0700 C   0  0  0  0  0  0  0  0  0  0  0  0
   47.6990   29.5100   47.0110 C   0  0  0  0  0  0  0  0  0  0  0  0
   49.0110   29.5660   46.6130 C   0  0  0  0  0  0  0  0  0  0  0  0
   49.5570   30.4880   46.5140 H   0  0  0  0  0  0  0  0  0  0  0  0
   49.7470   28.4440   46.3030 C   0  0  0  0  0  0  0  0  0  0  0  0
   50.7770   28.5050   45.9920 H   0  0  0  0  0  0  0  0  0  0  0  0
   49.2140   27.1830   46.3730 C   0  0  0  0  0  3  0  0  0  0  0  0
   47.8990   27.0820   46.7690 C   0  0  0  0  0  3  0  0  0  0  0  0
   44.9450   27.7290   48.3560 N   0  0  0  0  0  0  0  0  0  0  0  0
   45.8460   27.9880   47.4880 C   0  0  0  0  0  0  0  0  0  0  0  0
   44.7750   28.0220   46.5280 N   0  0  0  0  0  0  0  0  0  0  0  0
   43.9540   27.6580   48.0650 H   0  0  0  0  0  0  0  0  0  0  0  0
   44.5550   27.2450   45.8590 H   0  0  0  0  0  0  0  0  0  0  0  0
   43.9600   28.2800   45.9330 H   0  0  0  0  0  0  0  0  0  0  0  0
  1  2  1  0  0  0  0
  1 30  1  0  0  0  0
  2  7  1  0  0  0  0
  3  8  1  0  0  0  0
  3  2  2  0  0  0  0
  4  3  1  0  0  0  0
  5  4  2  0  0  0  0
  5  6  1  0  0  0  0
  6  1  2  0  0  0  0
  9  5  1  0  0  0  0
 10 15  1  0  0  0  0
 10  9  1  0  0  0  0
 11 10  2  0  0  0  0
 12 13  2  0  0  0  0
 12 11  1  0  0  0  0
 13 14  1  0  0  0  0
 14 19  1  0  0  0  0
 14  9  2  0  0  0  0
 16 11  1  0  0  0  0
 17 12  1  0  0  0  0
 18 13  1  0  0  0  0
 21 19  1  0  0  0  0
 21 20  2  0  0  0  0
 22 21  1  0  0  0  0
 23 22  1  0  0  0  0
 24 21  1  0  0  0  0
 25 24  1  0  0  0  0
 26 32  1  0  0  0  0
 27 26  1  0  0  0  0
 27 33  1  0  0  0  0
 28 27  2  0  0  0  0
 29 30  2  0  0  0  0
 29 28  1  0  0  0  0
 30 31  1  0  0  0  0
 31 26  2  0  0  0  0
 34 43  1  0  0  0  0
 35 34  1  0  0  0  0
 35 28  1  0  0  0  0
 36 35  2  0  0  0  0
 37 36  1  0  0  0  0
 38 40  2  0  0  0  0
 38 36  1  0  0  0  0
 39 38  1  0  0  0  0
 40 41  1  0  0  0  0
 41 34  2  0  0  0  0
 43 42  2  0  0  0  0
 44 43  1  0  0  0  0
 45 42  1  0  0  0  0
 46 44  1  0  0  0  0
 47 44  1  0  0  0  0
M  END
>  <minimizedAffinity>
-6.45948362

>  <minimizedRMSD>
1.28667092

$$$$
