
 OpenBabel03242514053D

 48 51  0  0  1  0  0  0  0  0999 V2000
   46.6190   32.8360   38.8530 C   0  0  1  0  0  0  0  0  0  0  0  0
   45.3040   33.3400   38.2110 C   0  0  0  0  0  0  0  0  0  0  0  0
   44.7750   32.1090   37.4490 C   0  0  0  0  0  0  0  0  0  0  0  0
   45.7160   31.9550   36.2560 C   0  0  0  0  0  0  0  0  0  0  0  0
   47.0950   31.6860   36.7110 C   0  0  0  0  0  0  0  0  0  0  0  0
   47.6250   32.4850   37.8530 C   0  0  2  0  0  0  0  0  0  0  0  0
   46.2440   31.9170   39.4010 H   0  0  0  0  0  0  0  0  0  0  0  0
   44.5850   33.6900   38.9440 H   0  0  0  0  0  0  0  0  0  0  0  0
   45.5890   34.0970   37.4580 H   0  0  0  0  0  0  0  0  0  0  0  0
   43.7730   32.3340   37.0810 H   0  0  0  0  0  0  0  0  0  0  0  0
   44.8640   31.2710   38.1460 H   0  0  0  0  0  0  0  0  0  0  0  0
   45.3840   31.1290   35.6170 H   0  0  0  0  0  0  0  0  0  0  0  0
   45.6910   32.9250   35.7140 H   0  0  0  0  0  0  0  0  0  0  0  0
   47.7670   31.7110   35.8200 H   0  0  0  0  0  0  0  0  0  0  0  0
   47.1180   30.5970   37.0160 H   0  0  0  0  0  0  0  0  0  0  0  0
   48.1240   33.3870   37.4390 H   0  0  0  0  0  0  0  0  0  0  0  0
   46.8720   34.6340   42.0480 C   0  0  0  0  0  0  0  0  0  0  0  0
   47.9760   35.4230   41.8240 C   0  0  0  0  0  0  0  0  0  0  0  0
   48.6990   35.4370   40.6520 C   0  0  0  0  0  0  0  0  0  0  0  0
   48.2090   34.5570   39.6750 C   0  0  0  0  0  0  0  0  0  0  0  0
   47.0910   33.7480   39.8910 C   0  0  0  0  0  0  0  0  0  0  0  0
   46.4340   33.7950   41.0750 N   0  0  0  0  0  0  0  0  0  0  0  0
   48.2730   36.0690   42.6450 H   0  0  0  0  0  0  0  0  0  0  0  0
   49.5510   36.0640   40.5150 H   0  0  0  0  0  0  0  0  0  0  0  0
   48.7950   34.6080   38.7720 H   0  0  0  0  0  0  0  0  0  0  0  0
   45.6660   33.9100   45.4250 C   0  0  0  0  0  0  0  0  0  0  0  0
   44.7530   34.9180   45.6870 C   0  0  0  0  0  0  0  0  0  0  0  0
   44.5600   35.8530   44.6750 C   0  0  0  0  0  0  0  0  0  0  0  0
   45.2690   35.7270   43.5050 N   0  0  0  0  0  0  0  0  0  0  0  0
   46.1520   34.7100   43.3140 C   0  0  0  0  0  0  0  0  0  0  0  0
   46.3440   33.8210   44.2560 N   0  0  0  0  0  0  0  0  0  0  0  0
   45.8240   33.1660   46.2160 H   0  0  0  0  0  0  0  0  0  0  0  0
   44.2240   34.9670   46.6270 H   0  0  0  0  0  0  0  0  0  0  0  0
   43.8670   36.6670   44.8060 H   0  0  0  0  0  0  0  0  0  0  0  0
   48.2470   30.4860   39.1550 C   0  0  0  0  0  0  0  0  0  0  0  0
   48.7060   31.6040   38.4400 C   0  0  0  0  0  0  0  0  0  0  0  0
   50.0720   31.7430   38.3710 C   0  0  0  0  0  0  0  0  0  0  0  0
   50.4250   32.6000   37.8230 H   0  0  0  0  0  0  0  0  0  0  0  0
   50.9040   30.8310   38.9740 C   0  0  0  0  0  0  0  0  0  0  0  0
   51.9540   31.0450   38.8520 H   0  0  0  0  0  0  0  0  0  0  0  0
   50.4380   29.7410   39.6720 C   0  0  0  0  0  3  0  0  0  0  0  0
   49.0830   29.5740   39.7580 C   0  0  0  0  0  3  0  0  0  0  0  0
   46.1130   30.4780   40.3940 N   0  0  0  0  0  0  0  0  0  0  0  0
   46.8310   30.1200   39.3650 C   0  0  0  0  0  0  0  0  0  0  0  0
   45.7820   29.3940   38.7530 N   0  0  0  0  0  0  0  0  0  0  0  0
   46.4800   31.0620   41.1680 H   0  0  0  0  0  0  0  0  0  0  0  0
   45.6040   28.3760   38.9530 H   0  0  0  0  0  0  0  0  0  0  0  0
   45.0820   29.7570   38.0580 H   0  0  0  0  0  0  0  0  0  0  0  0
  1  7  1  1  0  0  0
  1 21  1  0  0  0  0
  2  1  1  0  0  0  0
  2  8  1  0  0  0  0
  3 11  1  0  0  0  0
  3  2  1  0  0  0  0
  4  5  1  0  0  0  0
  4  3  1  0  0  0  0
  5 15  1  0  0  0  0
  5  6  1  0  0  0  0
  6 16  1  6  0  0  0
  6 36  1  0  0  0  0
  6  1  1  0  0  0  0
  9  2  1  0  0  0  0
 10  3  1  0  0  0  0
 12  4  1  0  0  0  0
 13  4  1  0  0  0  0
 14  5  1  0  0  0  0
 17 30  1  0  0  0  0
 18 17  1  0  0  0  0
 18 23  1  0  0  0  0
 19 18  2  0  0  0  0
 20 21  2  0  0  0  0
 20 19  1  0  0  0  0
 21 22  1  0  0  0  0
 22 17  2  0  0  0  0
 24 19  1  0  0  0  0
 25 20  1  0  0  0  0
 26 27  1  0  0  0  0
 26 32  1  0  0  0  0
 27 33  1  0  0  0  0
 28 34  1  0  0  0  0
 28 27  2  0  0  0  0
 29 28  1  0  0  0  0
 30 29  2  0  0  0  0
 30 31  1  0  0  0  0
 31 26  2  0  0  0  0
 35 44  1  0  0  0  0
 35 42  1  0  0  0  0
 36 35  2  0  0  0  0
 37 36  1  0  0  0  0
 37 39  2  0  0  0  0
 38 37  1  0  0  0  0
 39 41  1  0  0  0  0
 40 39  1  0  0  0  0
 41 42  2  0  0  0  0
 43 46  1  0  0  0  0
 44 43  2  0  0  0  0
 45 47  1  0  0  0  0
 45 44  1  0  0  0  0
 48 45  1  0  0  0  0
M  END
>  <minimizedAffinity>
-5.20898676

>  <minimizedRMSD>
1.17930818

$$$$
