
 OpenBabel03242513583D

 39 43  0  0  1  0  0  0  0  0999 V2000
   40.0330   32.4130   40.9950 C   0  0  0  0  0  0  0  0  0  0  0  0
   38.9950   33.2360   40.5520 C   0  0  0  0  0  0  0  0  0  0  0  0
   39.3690   34.4350   39.9470 C   0  0  0  0  0  0  0  0  0  0  0  0
   40.6690   34.7240   39.8260 N   0  0  0  0  0  0  0  0  0  0  0  0
   41.6570   33.9340   40.2500 C   0  0  0  0  0  0  0  0  0  0  0  0
   41.2880   32.7730   40.8360 N   0  0  0  0  0  0  0  0  0  0  0  0
   39.7110   31.4840   41.4630 H   0  0  0  0  0  0  0  0  0  0  0  0
   38.6560   35.1580   39.5620 H   0  0  0  0  0  0  0  0  0  0  0  0
   43.7710   33.8730   39.0100 C   0  0  0  0  0  0  0  0  0  0  0  0
   43.1020   34.1130   40.1880 C   0  0  0  0  0  0  0  0  0  0  0  0
   43.8880   34.5040   41.2510 C   0  0  0  0  0  0  0  0  0  0  0  0
   43.3840   34.7010   42.1920 H   0  0  0  0  0  0  0  0  0  0  0  0
   45.2330   34.6280   41.0900 C   0  0  0  0  0  0  0  0  0  0  0  0
   45.7610   34.9360   41.9610 H   0  0  0  0  0  0  0  0  0  0  0  0
   45.9160   34.3940   39.9280 C   0  0  0  0  0  3  0  0  0  0  0  0
   45.1570   34.0020   38.8500 C   0  0  0  0  0  3  0  0  0  0  0  0
   42.6750   32.8010   36.7980 N   0  0  0  0  0  0  0  0  0  0  0  0
   43.1330   33.4890   37.7640 C   0  0  2  0  0  3  0  0  0  0  0  0
   42.6460   34.5400   36.9110 N   0  0  0  0  0  4  0  0  0  0  0  0
   42.7370   31.7660   36.8250 H   0  0  0  0  0  0  0  0  0  0  0  0
   43.1380   35.4270   36.5900 H   0  0  0  0  0  0  0  0  0  0  0  0
   42.2200   35.2780   36.2750 H   0  0  0  0  0  0  0  0  0  0  0  0
   37.6480   32.9560   40.6680 O   0  0  0  0  0  0  0  0  0  0  0  0
   37.0390   31.7950   40.2110 C   0  0  0  0  0  0  0  0  0  0  0  0
   36.2890   30.8920   40.9540 C   0  0  0  0  0  0  0  0  0  0  0  0
   35.7570   29.7860   40.3380 C   0  0  0  0  0  0  0  0  0  0  0  0
   35.9390   29.5330   38.9880 C   0  0  0  0  0  0  0  0  0  0  0  0
   35.3760   28.4240   38.4790 N   0  0  0  0  0  0  0  0  0  0  0  0
   35.5360   28.1460   37.1600 C   0  0  0  0  0  0  0  0  0  0  0  0
   36.2690   29.0080   36.3870 C   0  0  0  0  0  0  0  0  0  0  0  0
   36.8560   30.1680   36.9240 C   0  0  0  0  0  0  0  0  0  0  0  0
   36.6890   30.4420   38.2570 C   0  0  0  0  0  0  0  0  0  0  0  0
   37.2470   31.5730   38.8430 C   0  0  0  0  0  0  0  0  0  0  0  0
   36.1800   31.1400   42.0000 H   0  0  0  0  0  0  0  0  0  0  0  0
   35.1800   29.1080   40.9480 H   0  0  0  0  0  0  0  0  0  0  0  0
   35.1080   27.2690   36.6960 H   0  0  0  0  0  0  0  0  0  0  0  0
   36.4240   28.8290   35.3310 H   0  0  0  0  0  0  0  0  0  0  0  0
   37.4300   30.8430   36.3120 H   0  0  0  0  0  0  0  0  0  0  0  0
   37.8140   32.2160   38.1840 H   0  0  0  0  0  0  0  0  0  0  0  0
  1  7  1  0  0  0  0
  2 23  1  0  0  0  0
  2  1  2  0  0  0  0
  3  2  1  0  0  0  0
  4  3  2  0  0  0  0
  4  5  1  0  0  0  0
  5  6  2  0  0  0  0
  6  1  1  0  0  0  0
  8  3  1  0  0  0  0
  9 10  1  0  0  0  0
 10  5  1  0  0  0  0
 10 11  2  0  0  0  0
 11 12  1  0  0  0  0
 13 11  1  0  0  0  0
 13 14  1  0  0  0  0
 15 13  2  0  0  0  0
 16  9  2  0  0  0  0
 16 15  1  0  0  0  0
 17 20  1  0  0  0  0
 17 19  1  0  0  0  0
 17 18  1  0  0  0  0
 18  9  1  6  0  0  0
 19 18  1  0  0  0  0
 21 19  1  0  0  0  0
 22 19  1  0  0  0  0
 24 23  1  0  0  0  0
 24 25  1  0  0  0  0
 25 34  1  0  0  0  0
 26 35  1  0  0  0  0
 26 25  2  0  0  0  0
 27 26  1  0  0  0  0
 28 27  1  0  0  0  0
 29 28  2  0  0  0  0
 30 31  2  0  0  0  0
 30 29  1  0  0  0  0
 31 32  1  0  0  0  0
 32 33  1  0  0  0  0
 32 27  2  0  0  0  0
 33 24  2  0  0  0  0
 36 29  1  0  0  0  0
 37 30  1  0  0  0  0
 38 31  1  0  0  0  0
 39 33  1  0  0  0  0
M  END
>  <minimizedAffinity>
-6.97637606

$$$$

 OpenBabel03242513583D

 39 43  0  0  1  0  0  0  0  0999 V2000
   39.8960   30.6850   41.5720 C   0  0  0  0  0  0  0  0  0  0  0  0
   38.6260   31.1840   41.2680 C   0  0  0  0  0  0  0  0  0  0  0  0
   38.5800   32.4380   40.6620 C   0  0  0  0  0  0  0  0  0  0  0  0
   39.7260   33.0800   40.4100 N   0  0  0  0  0  0  0  0  0  0  0  0
   40.9370   32.6000   40.7000 C   0  0  0  0  0  0  0  0  0  0  0  0
   40.9740   31.3830   41.2890 N   0  0  0  0  0  0  0  0  0  0  0  0
   39.9000   29.7050   42.0450 H   0  0  0  0  0  0  0  0  0  0  0  0
   37.6560   32.9310   40.3790 H   0  0  0  0  0  0  0  0  0  0  0  0
   42.6740   33.4790   39.2120 C   0  0  0  0  0  0  0  0  0  0  0  0
   42.2570   33.1760   40.4870 C   0  0  0  0  0  0  0  0  0  0  0  0
   43.1650   33.4430   41.4910 C   0  0  0  0  0  0  0  0  0  0  0  0
   42.8610   33.2140   42.5060 H   0  0  0  0  0  0  0  0  0  0  0  0
   44.3810   33.9710   41.1820 C   0  0  0  0  0  0  0  0  0  0  0  0
   45.0170   34.1460   42.0160 H   0  0  0  0  0  0  0  0  0  0  0  0
   44.8130   34.2790   39.9210 C   0  0  0  0  0  3  0  0  0  0  0  0
   43.9270   34.0230   38.9000 C   0  0  0  0  0  3  0  0  0  0  0  0
   40.9560   32.9370   37.2130 N   0  0  0  0  0  0  0  0  0  0  0  0
   41.8630   33.3140   38.0190 C   0  0  2  0  0  3  0  0  0  0  0  0
   42.2910   33.9860   36.8220 N   0  0  0  0  0  4  0  0  0  0  0  0
   40.1990   32.3100   37.5430 H   0  0  0  0  0  0  0  0  0  0  0  0
   43.2570   34.0130   36.3750 H   0  0  0  0  0  0  0  0  0  0  0  0
   42.5360   34.5090   35.9290 H   0  0  0  0  0  0  0  0  0  0  0  0
   37.4330   30.5380   41.5220 O   0  0  0  0  0  0  0  0  0  0  0  0
   37.3130   29.1890   41.8280 C   0  0  0  0  0  0  0  0  0  0  0  0
   37.3840   28.6030   43.0850 C   0  0  0  0  0  0  0  0  0  0  0  0
   37.2440   27.2430   43.2080 C   0  0  0  0  0  0  0  0  0  0  0  0
   37.0320   26.4200   42.1140 C   0  0  0  0  0  0  0  0  0  0  0  0
   36.9070   25.1010   42.3380 N   0  0  0  0  0  0  0  0  0  0  0  0
   36.6990   24.2680   41.2870 C   0  0  0  0  0  0  0  0  0  0  0  0
   36.6220   24.8000   40.0260 C   0  0  0  0  0  0  0  0  0  0  0  0
   36.7540   26.1810   39.7960 C   0  0  0  0  0  0  0  0  0  0  0  0
   36.9630   27.0170   40.8630 C   0  0  0  0  0  0  0  0  0  0  0  0
   37.1010   28.3910   40.6950 C   0  0  0  0  0  0  0  0  0  0  0  0
   37.5500   29.2920   43.9020 H   0  0  0  0  0  0  0  0  0  0  0  0
   37.3040   26.8260   44.2020 H   0  0  0  0  0  0  0  0  0  0  0  0
   36.5920   23.1990   41.4070 H   0  0  0  0  0  0  0  0  0  0  0  0
   36.4580   24.1750   39.1580 H   0  0  0  0  0  0  0  0  0  0  0  0
   36.6920   26.5950   38.8030 H   0  0  0  0  0  0  0  0  0  0  0  0
   37.0310   28.7520   39.6790 H   0  0  0  0  0  0  0  0  0  0  0  0
  1  7  1  0  0  0  0
  2 23  1  0  0  0  0
  2  1  2  0  0  0  0
  3  2  1  0  0  0  0
  4  3  2  0  0  0  0
  4  5  1  0  0  0  0
  5  6  2  0  0  0  0
  6  1  1  0  0  0  0
  8  3  1  0  0  0  0
  9 10  1  0  0  0  0
 10  5  1  0  0  0  0
 10 11  2  0  0  0  0
 11 12  1  0  0  0  0
 13 11  1  0  0  0  0
 13 14  1  0  0  0  0
 15 13  2  0  0  0  0
 16  9  2  0  0  0  0
 16 15  1  0  0  0  0
 17 20  1  0  0  0  0
 17 18  1  0  0  0  0
 18  9  1  6  0  0  0
 19 17  1  0  0  0  0
 19 18  1  0  0  0  0
 21 19  1  0  0  0  0
 22 19  1  0  0  0  0
 23 24  1  0  0  0  0
 24 25  1  0  0  0  0
 25 26  2  0  0  0  0
 25 34  1  0  0  0  0
 26 35  1  0  0  0  0
 27 28  1  0  0  0  0
 27 26  1  0  0  0  0
 29 36  1  0  0  0  0
 29 28  2  0  0  0  0
 30 29  1  0  0  0  0
 31 30  2  0  0  0  0
 31 32  1  0  0  0  0
 32 27  2  0  0  0  0
 33 32  1  0  0  0  0
 33 24  2  0  0  0  0
 37 30  1  0  0  0  0
 38 31  1  0  0  0  0
 39 33  1  0  0  0  0
M  END
>  <minimizedAffinity>
-6.80354071

$$$$

 OpenBabel03242513583D

 39 43  0  0  1  0  0  0  0  0999 V2000
   39.5320   30.5340   40.9020 C   0  0  0  0  0  0  0  0  0  0  0  0
   38.2420   31.0460   41.0540 C   0  0  0  0  0  0  0  0  0  0  0  0
   38.0220   32.3340   40.5690 C   0  0  0  0  0  0  0  0  0  0  0  0
   39.0360   32.9930   39.9970 N   0  0  0  0  0  0  0  0  0  0  0  0
   40.2670   32.5000   39.8520 C   0  0  0  0  0  0  0  0  0  0  0  0
   40.4730   31.2510   40.3260 N   0  0  0  0  0  0  0  0  0  0  0  0
   39.6730   29.5270   41.2910 H   0  0  0  0  0  0  0  0  0  0  0  0
   37.0640   32.8400   40.6290 H   0  0  0  0  0  0  0  0  0  0  0  0
   42.5360   33.4050   40.0510 C   0  0  0  0  0  0  0  0  0  0  0  0
   41.4570   33.0920   39.2560 C   0  0  0  0  0  0  0  0  0  0  0  0
   41.5970   33.3890   37.9170 C   0  0  0  0  0  0  0  0  0  0  0  0
   40.7600   33.1520   37.2680 H   0  0  0  0  0  0  0  0  0  0  0  0
   42.7490   33.9550   37.4650 C   0  0  0  0  0  0  0  0  0  0  0  0
   42.7710   34.1490   36.4190 H   0  0  0  0  0  0  0  0  0  0  0  0
   43.8310   34.2730   38.2380 C   0  0  0  0  0  3  0  0  0  0  0  0
   43.7200   33.9880   39.5790 C   0  0  0  0  0  3  0  0  0  0  0  0
   42.5660   32.5620   42.6060 N   0  0  0  0  0  0  0  0  0  0  0  0
   42.6130   33.1420   41.4760 C   0  0  2  0  0  3  0  0  0  0  0  0
   42.9680   34.2360   42.3400 N   0  0  0  0  0  4  0  0  0  0  0  0
   42.3170   31.5570   42.6610 H   0  0  0  0  0  0  0  0  0  0  0  0
   42.5770   35.2260   42.3650 H   0  0  0  0  0  0  0  0  0  0  0  0
   43.2810   34.9990   43.0110 H   0  0  0  0  0  0  0  0  0  0  0  0
   37.1830   30.3820   41.6430 O   0  0  0  0  0  0  0  0  0  0  0  0
   37.1470   29.0170   41.8930 C   0  0  0  0  0  0  0  0  0  0  0  0
   37.3250   28.3820   43.1160 C   0  0  0  0  0  0  0  0  0  0  0  0
   37.2570   27.0120   43.1840 C   0  0  0  0  0  0  0  0  0  0  0  0
   37.0150   26.2280   42.0680 C   0  0  0  0  0  0  0  0  0  0  0  0
   36.9670   24.8960   42.2390 N   0  0  0  0  0  0  0  0  0  0  0  0
   36.7320   24.0990   41.1650 C   0  0  0  0  0  0  0  0  0  0  0  0
   36.5500   24.6800   39.9370 C   0  0  0  0  0  0  0  0  0  0  0  0
   36.6020   26.0750   39.7630 C   0  0  0  0  0  0  0  0  0  0  0  0
   36.8390   26.8730   40.8520 C   0  0  0  0  0  0  0  0  0  0  0  0
   36.9010   28.2580   40.7410 C   0  0  0  0  0  0  0  0  0  0  0  0
   37.5100   29.0430   43.9510 H   0  0  0  0  0  0  0  0  0  0  0  0
   37.4000   26.5560   44.1520 H   0  0  0  0  0  0  0  0  0  0  0  0
   36.6830   23.0220   41.2420 H   0  0  0  0  0  0  0  0  0  0  0  0
   36.3610   24.0860   39.0530 H   0  0  0  0  0  0  0  0  0  0  0  0
   36.4580   26.5270   38.7960 H   0  0  0  0  0  0  0  0  0  0  0  0
   36.7500   28.6590   39.7480 H   0  0  0  0  0  0  0  0  0  0  0  0
  1  2  1  0  0  0  0
  1  7  1  0  0  0  0
  2 23  1  0  0  0  0
  3  8  1  0  0  0  0
  3  2  2  0  0  0  0
  4  3  1  0  0  0  0
  5  4  2  0  0  0  0
  5  6  1  0  0  0  0
  6  1  2  0  0  0  0
 10  5  1  0  0  0  0
 10  9  2  0  0  0  0
 11 10  1  0  0  0  0
 12 11  1  0  0  0  0
 13 11  2  0  0  0  0
 13 15  1  0  0  0  0
 14 13  1  0  0  0  0
 15 16  2  0  0  0  0
 16  9  1  0  0  0  0
 17 20  1  0  0  0  0
 18  9  1  1  0  0  0
 18 19  1  0  0  0  0
 18 17  1  0  0  0  0
 19 21  1  0  0  0  0
 19 17  1  0  0  0  0
 19 22  1  0  0  0  0
 23 24  1  0  0  0  0
 24 25  1  0  0  0  0
 25 26  2  0  0  0  0
 25 34  1  0  0  0  0
 26 35  1  0  0  0  0
 27 28  1  0  0  0  0
 27 26  1  0  0  0  0
 29 36  1  0  0  0  0
 29 28  2  0  0  0  0
 30 29  1  0  0  0  0
 31 30  2  0  0  0  0
 31 32  1  0  0  0  0
 32 27  2  0  0  0  0
 33 32  1  0  0  0  0
 33 24  2  0  0  0  0
 37 30  1  0  0  0  0
 38 31  1  0  0  0  0
 39 33  1  0  0  0  0
M  END
>  <minimizedAffinity>
-6.58808661

$$$$

 OpenBabel03242513583D

 39 43  0  0  1  0  0  0  0  0999 V2000
   38.7730   29.9250   41.4350 C   0  0  0  0  0  0  0  0  0  0  0  0
   37.3840   30.0230   41.3280 C   0  0  0  0  0  0  0  0  0  0  0  0
   36.8880   31.1710   40.7120 C   0  0  0  0  0  0  0  0  0  0  0  0
   37.7490   32.0930   40.2690 N   0  0  0  0  0  0  0  0  0  0  0  0
   39.0760   31.9960   40.3730 C   0  0  0  0  0  0  0  0  0  0  0  0
   39.5500   30.8800   40.9710 N   0  0  0  0  0  0  0  0  0  0  0  0
   39.1310   29.0180   41.9200 H   0  0  0  0  0  0  0  0  0  0  0  0
   35.8300   31.3630   40.5700 H   0  0  0  0  0  0  0  0  0  0  0  0
   40.6900   32.7620   38.6960 C   0  0  0  0  0  0  0  0  0  0  0  0
   40.1270   32.9080   39.9420 C   0  0  0  0  0  0  0  0  0  0  0  0
   40.6340   33.9350   40.7090 C   0  0  0  0  0  0  0  0  0  0  0  0
   40.2050   34.0720   41.6970 H   0  0  0  0  0  0  0  0  0  0  0  0
   41.6270   34.7230   40.2160 C   0  0  0  0  0  0  0  0  0  0  0  0
   41.9570   35.4910   40.8740 H   0  0  0  0  0  0  0  0  0  0  0  0
   42.2000   34.5940   38.9800 C   0  0  0  0  0  3  0  0  0  0  0  0
   41.7140   33.5760   38.1930 C   0  0  0  0  0  3  0  0  0  0  0  0
   40.1680   30.6870   37.0630 N   0  0  0  0  0  0  0  0  0  0  0  0
   40.2800   31.7720   37.7170 C   0  0  2  0  0  3  0  0  0  0  0  0
   39.3680   32.1880   36.6850 N   0  0  0  0  0  4  0  0  0  0  0  0
   40.6860   29.8430   37.3700 H   0  0  0  0  0  0  0  0  0  0  0  0
   39.4110   33.0480   36.0580 H   0  0  0  0  0  0  0  0  0  0  0  0
   38.6530   32.4350   35.9380 H   0  0  0  0  0  0  0  0  0  0  0  0
   36.4790   29.0830   41.7790 O   0  0  0  0  0  0  0  0  0  0  0  0
   36.6730   27.7090   41.7260 C   0  0  0  0  0  0  0  0  0  0  0  0
   36.9390   26.8550   42.7890 C   0  0  0  0  0  0  0  0  0  0  0  0
   37.1050   25.5130   42.5560 C   0  0  0  0  0  0  0  0  0  0  0  0
   37.0170   24.9680   41.2850 C   0  0  0  0  0  0  0  0  0  0  0  0
   37.1950   23.6420   41.1600 N   0  0  0  0  0  0  0  0  0  0  0  0
   37.1160   23.0760   39.9290 C   0  0  0  0  0  0  0  0  0  0  0  0
   36.8560   23.8790   38.8480 C   0  0  0  0  0  0  0  0  0  0  0  0
   36.6710   25.2660   38.9830 C   0  0  0  0  0  0  0  0  0  0  0  0
   36.7510   25.8300   40.2310 C   0  0  0  0  0  0  0  0  0  0  0  0
   36.5780   27.1960   40.4250 C   0  0  0  0  0  0  0  0  0  0  0  0
   36.9960   27.3350   43.7570 H   0  0  0  0  0  0  0  0  0  0  0  0
   37.3100   24.8830   43.4080 H   0  0  0  0  0  0  0  0  0  0  0  0
   37.2510   22.0160   39.7680 H   0  0  0  0  0  0  0  0  0  0  0  0
   36.7840   23.4740   37.8470 H   0  0  0  0  0  0  0  0  0  0  0  0
   36.4660   25.8930   38.1310 H   0  0  0  0  0  0  0  0  0  0  0  0
   36.3750   27.7780   39.5370 H   0  0  0  0  0  0  0  0  0  0  0  0
  1  7  1  0  0  0  0
  2  1  1  0  0  0  0
  2 23  1  0  0  0  0
  3  2  2  0  0  0  0
  4  5  2  0  0  0  0
  4  3  1  0  0  0  0
  5  6  1  0  0  0  0
  6  1  2  0  0  0  0
  8  3  1  0  0  0  0
  9 10  1  0  0  0  0
 10  5  1  0  0  0  0
 10 11  2  0  0  0  0
 11 12  1  0  0  0  0
 13 11  1  0  0  0  0
 13 14  1  0  0  0  0
 15 13  2  0  0  0  0
 16  9  2  0  0  0  0
 16 15  1  0  0  0  0
 17 20  1  0  0  0  0
 17 18  1  0  0  0  0
 18  9  1  6  0  0  0
 19 17  1  0  0  0  0
 19 18  1  0  0  0  0
 21 19  1  0  0  0  0
 22 19  1  0  0  0  0
 24 23  1  0  0  0  0
 24 25  1  0  0  0  0
 25 34  1  0  0  0  0
 26 25  2  0  0  0  0
 26 35  1  0  0  0  0
 27 26  1  0  0  0  0
 28 27  1  0  0  0  0
 29 28  2  0  0  0  0
 30 31  2  0  0  0  0
 30 29  1  0  0  0  0
 31 32  1  0  0  0  0
 32 33  1  0  0  0  0
 32 27  2  0  0  0  0
 33 24  2  0  0  0  0
 36 29  1  0  0  0  0
 37 30  1  0  0  0  0
 38 31  1  0  0  0  0
 39 33  1  0  0  0  0
M  END
>  <minimizedAffinity>
-6.41088915

$$$$

 OpenBabel03242513583D

 39 43  0  0  1  0  0  0  0  0999 V2000
   38.7550   29.8440   40.5120 C   0  0  0  0  0  0  0  0  0  0  0  0
   37.4390   29.7540   40.0550 C   0  0  0  0  0  0  0  0  0  0  0  0
   37.0620   30.6610   39.0660 C   0  0  0  0  0  0  0  0  0  0  0  0
   37.9600   31.5460   38.6200 N   0  0  0  0  0  0  0  0  0  0  0  0
   39.2170   31.6280   39.0580 C   0  0  0  0  0  0  0  0  0  0  0  0
   39.5760   30.7460   40.0180 N   0  0  0  0  0  0  0  0  0  0  0  0
   39.0210   29.1230   41.2840 H   0  0  0  0  0  0  0  0  0  0  0  0
   36.0680   30.6920   38.6310 H   0  0  0  0  0  0  0  0  0  0  0  0
   40.3750   33.7810   39.2320 C   0  0  0  0  0  0  0  0  0  0  0  0
   40.2960   32.5270   38.6720 C   0  0  0  0  0  0  0  0  0  0  0  0
   41.2750   32.2230   37.7500 C   0  0  0  0  0  0  0  0  0  0  0  0
   41.2360   31.2390   37.2940 H   0  0  0  0  0  0  0  0  0  0  0  0
   42.2330   33.1420   37.4500 C   0  0  0  0  0  0  0  0  0  0  0  0
   42.9480   32.8230   36.7300 H   0  0  0  0  0  0  0  0  0  0  0  0
   42.3280   34.3930   37.9950 C   0  0  0  0  0  3  0  0  0  0  0  0
   41.3630   34.7240   38.9190 C   0  0  0  0  0  3  0  0  0  0  0  0
   38.9760   34.6360   41.3660 N   0  0  0  0  0  0  0  0  0  0  0  0
   39.4700   34.2880   40.2480 C   0  0  2  0  0  3  0  0  0  0  0  0
   38.1650   34.7200   39.8260 N   0  0  0  0  0  4  0  0  0  0  0  0
   39.5410   34.5490   42.2310 H   0  0  0  0  0  0  0  0  0  0  0  0
   37.4630   34.2230   39.1990 H   0  0  0  0  0  0  0  0  0  0  0  0
   37.2110   35.1040   39.5540 H   0  0  0  0  0  0  0  0  0  0  0  0
   36.4970   28.8490   40.5030 O   0  0  0  0  0  0  0  0  0  0  0  0
   36.7630   27.5260   40.8290 C   0  0  0  0  0  0  0  0  0  0  0  0
   37.0030   27.0050   42.0940 C   0  0  0  0  0  0  0  0  0  0  0  0
   37.2530   25.6620   42.2370 C   0  0  0  0  0  0  0  0  0  0  0  0
   37.2740   24.7960   41.1560 C   0  0  0  0  0  0  0  0  0  0  0  0
   37.5280   23.4990   41.4000 N   0  0  0  0  0  0  0  0  0  0  0  0
   37.5570   22.6230   40.3630 C   0  0  0  0  0  0  0  0  0  0  0  0
   37.3270   23.0920   39.0950 C   0  0  0  0  0  0  0  0  0  0  0  0
   37.0620   24.4500   38.8450 C   0  0  0  0  0  0  0  0  0  0  0  0
   37.0340   25.3280   39.8980 C   0  0  0  0  0  0  0  0  0  0  0  0
   36.7780   26.6830   39.7100 C   0  0  0  0  0  0  0  0  0  0  0  0
   36.9730   27.7260   42.8990 H   0  0  0  0  0  0  0  0  0  0  0  0
   37.4340   25.2950   43.2350 H   0  0  0  0  0  0  0  0  0  0  0  0
   37.7560   21.5700   40.4990 H   0  0  0  0  0  0  0  0  0  0  0  0
   37.3400   22.4330   38.2380 H   0  0  0  0  0  0  0  0  0  0  0  0
   36.8820   24.8140   37.8470 H   0  0  0  0  0  0  0  0  0  0  0  0
   36.6040   26.9940   38.6890 H   0  0  0  0  0  0  0  0  0  0  0  0
  1  7  1  0  0  0  0
  2 23  1  0  0  0  0
  2  1  1  0  0  0  0
  3  2  2  0  0  0  0
  4  5  2  0  0  0  0
  4  3  1  0  0  0  0
  5  6  1  0  0  0  0
  6  1  2  0  0  0  0
  8  3  1  0  0  0  0
 10  5  1  0  0  0  0
 10  9  2  0  0  0  0
 11 10  1  0  0  0  0
 12 11  1  0  0  0  0
 13 11  2  0  0  0  0
 13 15  1  0  0  0  0
 14 13  1  0  0  0  0
 15 16  2  0  0  0  0
 16  9  1  0  0  0  0
 17 20  1  0  0  0  0
 18  9  1  1  0  0  0
 18 17  1  0  0  0  0
 19 18  1  0  0  0  0
 19 17  1  0  0  0  0
 21 19  1  0  0  0  0
 22 19  1  0  0  0  0
 23 24  1  0  0  0  0
 24 25  1  0  0  0  0
 25 26  2  0  0  0  0
 25 34  1  0  0  0  0
 26 35  1  0  0  0  0
 27 28  1  0  0  0  0
 27 26  1  0  0  0  0
 29 36  1  0  0  0  0
 29 28  2  0  0  0  0
 30 29  1  0  0  0  0
 31 30  2  0  0  0  0
 31 32  1  0  0  0  0
 32 27  2  0  0  0  0
 33 32  1  0  0  0  0
 33 24  2  0  0  0  0
 37 30  1  0  0  0  0
 38 31  1  0  0  0  0
 39 33  1  0  0  0  0
M  END
>  <minimizedAffinity>
-6.36397839

$$$$

 OpenBabel03242513583D

 39 43  0  0  1  0  0  0  0  0999 V2000
   38.6710   29.1540   40.6760 C   0  0  0  0  0  0  0  0  0  0  0  0
   38.3800   28.8200   42.0010 C   0  0  0  0  0  0  0  0  0  0  0  0
   38.8450   29.6970   42.9800 C   0  0  0  0  0  0  0  0  0  0  0  0
   39.5270   30.7850   42.6050 N   0  0  0  0  0  0  0  0  0  0  0  0
   39.8030   31.1010   41.3390 C   0  0  0  0  0  0  0  0  0  0  0  0
   39.3500   30.2450   40.3950 N   0  0  0  0  0  0  0  0  0  0  0  0
   38.2960   28.4510   39.9350 H   0  0  0  0  0  0  0  0  0  0  0  0
   38.6840   29.5470   44.0420 H   0  0  0  0  0  0  0  0  0  0  0  0
   39.8300   33.2940   40.2470 C   0  0  0  0  0  0  0  0  0  0  0  0
   40.5260   32.2370   40.7840 C   0  0  0  0  0  0  0  0  0  0  0  0
   41.9000   32.3430   40.7390 C   0  0  0  0  0  0  0  0  0  0  0  0
   42.4730   31.5220   41.1580 H   0  0  0  0  0  0  0  0  0  0  0  0
   42.4770   33.4450   40.1860 C   0  0  0  0  0  0  0  0  0  0  0  0
   43.5410   33.4430   40.1950 H   0  0  0  0  0  0  0  0  0  0  0  0
   41.8030   34.5050   39.6470 C   0  0  0  0  0  3  0  0  0  0  0  0
   40.4300   34.4260   39.6780 C   0  0  0  0  0  3  0  0  0  0  0  0
   37.1450   33.1320   40.3300 N   0  0  0  0  0  0  0  0  0  0  0  0
   38.3820   33.4030   40.2260 C   0  0  2  0  0  3  0  0  0  0  0  0
   37.8110   34.6370   39.7560 N   0  0  0  0  0  4  0  0  0  0  0  0
   36.8470   32.2050   40.6860 H   0  0  0  0  0  0  0  0  0  0  0  0
   38.0410   35.1910   38.8770 H   0  0  0  0  0  0  0  0  0  0  0  0
   37.3440   35.5480   39.4700 H   0  0  0  0  0  0  0  0  0  0  0  0
   37.6790   27.7020   42.4080 O   0  0  0  0  0  0  0  0  0  0  0  0
   37.9440   26.4060   41.9870 C   0  0  0  0  0  0  0  0  0  0  0  0
   39.0570   25.6330   42.2960 C   0  0  0  0  0  0  0  0  0  0  0  0
   39.1600   24.3610   41.7900 C   0  0  0  0  0  0  0  0  0  0  0  0
   38.1850   23.8100   40.9740 C   0  0  0  0  0  0  0  0  0  0  0  0
   38.3780   22.5560   40.5290 N   0  0  0  0  0  0  0  0  0  0  0  0
   37.4430   21.9870   39.7270 C   0  0  0  0  0  0  0  0  0  0  0  0
   36.3270   22.7110   39.3950 C   0  0  0  0  0  0  0  0  0  0  0  0
   36.1300   24.0220   39.8620 C   0  0  0  0  0  0  0  0  0  0  0  0
   37.0780   24.5900   40.6730 C   0  0  0  0  0  0  0  0  0  0  0  0
   36.9370   25.8840   41.1640 C   0  0  0  0  0  0  0  0  0  0  0  0
   39.7830   26.1140   42.9360 H   0  0  0  0  0  0  0  0  0  0  0  0
   40.0390   23.7930   42.0520 H   0  0  0  0  0  0  0  0  0  0  0  0
   37.5450   20.9830   39.3400 H   0  0  0  0  0  0  0  0  0  0  0  0
   35.5550   22.2990   38.7580 H   0  0  0  0  0  0  0  0  0  0  0  0
   35.2510   24.5870   39.5990 H   0  0  0  0  0  0  0  0  0  0  0  0
   36.0370   26.4060   40.8690 H   0  0  0  0  0  0  0  0  0  0  0  0
  1  2  1  0  0  0  0
  2 23  1  0  0  0  0
  2  3  2  0  0  0  0
  3  8  1  0  0  0  0
  4  3  1  0  0  0  0
  5  4  2  0  0  0  0
  6  1  2  0  0  0  0
  6  5  1  0  0  0  0
  7  1  1  0  0  0  0
  9 10  1  0  0  0  0
 10  5  1  0  0  0  0
 11 10  2  0  0  0  0
 11 12  1  0  0  0  0
 13 14  1  0  0  0  0
 13 11  1  0  0  0  0
 15 16  1  0  0  0  0
 15 13  2  0  0  0  0
 16  9  2  0  0  0  0
 17 20  1  0  0  0  0
 18  9  1  6  0  0  0
 18 17  1  0  0  0  0
 19 18  1  0  0  0  0
 19 17  1  0  0  0  0
 21 19  1  0  0  0  0
 22 19  1  0  0  0  0
 24 25  1  0  0  0  0
 24 23  1  0  0  0  0
 25 34  1  0  0  0  0
 26 35  1  0  0  0  0
 26 25  2  0  0  0  0
 27 26  1  0  0  0  0
 28 27  2  0  0  0  0
 29 28  1  0  0  0  0
 30 29  2  0  0  0  0
 30 31  1  0  0  0  0
 31 32  2  0  0  0  0
 32 27  1  0  0  0  0
 32 33  1  0  0  0  0
 33 24  2  0  0  0  0
 36 29  1  0  0  0  0
 37 30  1  0  0  0  0
 38 31  1  0  0  0  0
 39 33  1  0  0  0  0
M  END
>  <minimizedAffinity>
-6.33845282

$$$$

 OpenBabel03242513583D

 39 43  0  0  1  0  0  0  0  0999 V2000
   34.4010   26.9660   37.2100 C   0  0  0  0  0  0  0  0  0  0  0  0
   34.3650   28.2700   36.7110 C   0  0  0  0  0  0  0  0  0  0  0  0
   35.2150   29.1920   37.3190 C   0  0  0  0  0  0  0  0  0  0  0  0
   36.0000   28.7860   38.3230 N   0  0  0  0  0  0  0  0  0  0  0  0
   36.0330   27.5390   38.7960 C   0  0  0  0  0  0  0  0  0  0  0  0
   35.2050   26.6510   38.2030 N   0  0  0  0  0  0  0  0  0  0  0  0
   33.7260   26.2690   36.7160 H   0  0  0  0  0  0  0  0  0  0  0  0
   35.2780   30.2330   37.0220 H   0  0  0  0  0  0  0  0  0  0  0  0
   36.9900   27.6460   41.0500 C   0  0  0  0  0  0  0  0  0  0  0  0
   36.8250   26.9570   39.8700 C   0  0  0  0  0  0  0  0  0  0  0  0
   37.4590   25.7350   39.8000 C   0  0  0  0  0  0  0  0  0  0  0  0
   37.3440   25.1700   38.8800 H   0  0  0  0  0  0  0  0  0  0  0  0
   38.1890   25.2870   40.8590 C   0  0  0  0  0  0  0  0  0  0  0  0
   38.6420   24.3350   40.7180 H   0  0  0  0  0  0  0  0  0  0  0  0
   38.3640   25.9560   42.0380 C   0  0  0  0  0  3  0  0  0  0  0  0
   37.7430   27.1800   42.1370 C   0  0  0  0  0  3  0  0  0  0  0  0
   35.6880   29.9920   41.2590 N   0  0  0  0  0  0  0  0  0  0  0  0
   36.3800   28.9290   41.3470 C   0  0  2  0  0  3  0  0  0  0  0  0
   36.7510   29.5770   42.5760 N   0  0  0  0  0  4  0  0  0  0  0  0
   35.0820   30.1470   40.4330 H   0  0  0  0  0  0  0  0  0  0  0  0
   37.7220   29.7470   42.9800 H   0  0  0  0  0  0  0  0  0  0  0  0
   36.9520   30.0670   43.4990 H   0  0  0  0  0  0  0  0  0  0  0  0
   33.5610   28.7080   35.6760 O   0  0  0  0  0  0  0  0  0  0  0  0
   32.4350   29.5050   35.8330 C   0  0  0  0  0  0  0  0  0  0  0  0
   31.6560   29.6440   36.9750 C   0  0  0  0  0  0  0  0  0  0  0  0
   30.5680   30.4800   36.9550 C   0  0  0  0  0  0  0  0  0  0  0  0
   30.2110   31.2010   35.8270 C   0  0  0  0  0  0  0  0  0  0  0  0
   29.1290   31.9940   35.9080 N   0  0  0  0  0  0  0  0  0  0  0  0
   28.7520   32.7130   34.8200 C   0  0  0  0  0  0  0  0  0  0  0  0
   29.4900   32.6080   33.6690 C   0  0  0  0  0  0  0  0  0  0  0  0
   30.6220   31.7770   33.5890 C   0  0  0  0  0  0  0  0  0  0  0  0
   30.9970   31.0540   34.6920 C   0  0  0  0  0  0  0  0  0  0  0  0
   32.1060   30.2150   34.6710 C   0  0  0  0  0  0  0  0  0  0  0  0
   31.9820   29.0590   37.8240 H   0  0  0  0  0  0  0  0  0  0  0  0
   29.9890   30.5620   37.8610 H   0  0  0  0  0  0  0  0  0  0  0  0
   27.8910   33.3660   34.8260 H   0  0  0  0  0  0  0  0  0  0  0  0
   29.2280   33.1610   32.7770 H   0  0  0  0  0  0  0  0  0  0  0  0
   31.1980   31.6970   32.6820 H   0  0  0  0  0  0  0  0  0  0  0  0
   32.6490   30.1730   33.7370 H   0  0  0  0  0  0  0  0  0  0  0  0
  1  6  1  0  0  0  0
  2  1  2  0  0  0  0
  2  3  1  0  0  0  0
  3  4  2  0  0  0  0
  4  5  1  0  0  0  0
  5 10  1  0  0  0  0
  6  5  2  0  0  0  0
  7  1  1  0  0  0  0
  8  3  1  0  0  0  0
  9 16  1  0  0  0  0
 10  9  2  0  0  0  0
 11 10  1  0  0  0  0
 11 13  2  0  0  0  0
 12 11  1  0  0  0  0
 13 15  1  0  0  0  0
 14 13  1  0  0  0  0
 15 16  2  0  0  0  0
 17 18  1  0  0  0  0
 17 19  1  0  0  0  0
 18  9  1  6  0  0  0
 18 19  1  0  0  0  0
 19 21  1  0  0  0  0
 19 22  1  0  0  0  0
 20 17  1  0  0  0  0
 23 24  1  0  0  0  0
 23  2  1  0  0  0  0
 24 25  1  0  0  0  0
 25 34  1  0  0  0  0
 26 25  2  0  0  0  0
 26 35  1  0  0  0  0
 27 28  1  0  0  0  0
 27 26  1  0  0  0  0
 29 36  1  0  0  0  0
 29 28  2  0  0  0  0
 30 29  1  0  0  0  0
 31 30  2  0  0  0  0
 31 32  1  0  0  0  0
 32 27  2  0  0  0  0
 33 32  1  0  0  0  0
 33 24  2  0  0  0  0
 37 30  1  0  0  0  0
 38 31  1  0  0  0  0
 39 33  1  0  0  0  0
M  END
>  <minimizedAffinity>
-6.19235516

$$$$

 OpenBabel03242513583D

 39 43  0  0  1  0  0  0  0  0999 V2000
   36.6190   28.2830   40.0230 C   0  0  0  0  0  0  0  0  0  0  0  0
   36.6840   28.8810   41.2840 C   0  0  0  0  0  0  0  0  0  0  0  0
   36.8830   28.0270   42.3680 C   0  0  0  0  0  0  0  0  0  0  0  0
   36.9990   26.7130   42.1460 N   0  0  0  0  0  0  0  0  0  0  0  0
   36.9370   26.1450   40.9400 C   0  0  0  0  0  0  0  0  0  0  0  0
   36.7430   26.9790   39.8940 N   0  0  0  0  0  0  0  0  0  0  0  0
   36.4630   28.9740   39.1970 H   0  0  0  0  0  0  0  0  0  0  0  0
   36.9500   28.3700   43.3950 H   0  0  0  0  0  0  0  0  0  0  0  0
   38.1200   24.0000   40.9670 C   0  0  0  0  0  0  0  0  0  0  0  0
   37.0440   24.7470   40.5480 C   0  0  0  0  0  0  0  0  0  0  0  0
   36.1330   24.0860   39.7520 C   0  0  0  0  0  0  0  0  0  0  0  0
   35.2740   24.6530   39.4080 H   0  0  0  0  0  0  0  0  0  0  0  0
   36.3350   22.7780   39.4320 C   0  0  0  0  0  0  0  0  0  0  0  0
   35.5820   22.3480   38.8160 H   0  0  0  0  0  0  0  0  0  0  0  0
   37.3970   22.0190   39.8390 C   0  0  0  0  0  3  0  0  0  0  0  0
   38.3230   22.6530   40.6350 C   0  0  0  0  0  3  0  0  0  0  0  0
   40.1430   25.1630   42.3090 N   0  0  0  0  0  0  0  0  0  0  0  0
   39.1730   24.4880   41.8390 C   0  0  2  0  0  3  0  0  0  0  0  0
   39.3940   23.7890   43.0770 N   0  0  0  0  0  4  0  0  0  0  0  0
   40.5190   25.9670   41.7750 H   0  0  0  0  0  0  0  0  0  0  0  0
   39.4940   22.7440   43.2490 H   0  0  0  0  0  0  0  0  0  0  0  0
   39.5560   23.3400   44.0270 H   0  0  0  0  0  0  0  0  0  0  0  0
   36.5670   30.2340   41.5330 O   0  0  0  0  0  0  0  0  0  0  0  0
   37.3860   31.2130   40.9880 C   0  0  0  0  0  0  0  0  0  0  0  0
   37.0140   32.2310   40.1180 C   0  0  0  0  0  0  0  0  0  0  0  0
   37.9610   33.1190   39.6700 C   0  0  0  0  0  0  0  0  0  0  0  0
   39.2880   33.0410   40.0580 C   0  0  0  0  0  0  0  0  0  0  0  0
   40.1380   33.9580   39.5660 N   0  0  0  0  0  0  0  0  0  0  0  0
   41.4460   33.9100   39.9250 C   0  0  0  0  0  0  0  0  0  0  0  0
   41.8600   32.9230   40.7820 C   0  0  0  0  0  0  0  0  0  0  0  0
   40.9670   31.9650   41.2950 C   0  0  0  0  0  0  0  0  0  0  0  0
   39.6480   32.0210   40.9280 C   0  0  0  0  0  0  0  0  0  0  0  0
   38.7200   31.1000   41.4020 C   0  0  0  0  0  0  0  0  0  0  0  0
   35.9670   32.2430   39.8500 H   0  0  0  0  0  0  0  0  0  0  0  0
   37.6330   33.8950   38.9960 H   0  0  0  0  0  0  0  0  0  0  0  0
   42.1740   34.6200   39.5610 H   0  0  0  0  0  0  0  0  0  0  0  0
   42.8920   32.8430   41.0960 H   0  0  0  0  0  0  0  0  0  0  0  0
   41.2980   31.1910   41.9680 H   0  0  0  0  0  0  0  0  0  0  0  0
   39.1040   30.3450   42.0740 H   0  0  0  0  0  0  0  0  0  0  0  0
  1  2  1  0  0  0  0
  2 23  1  0  0  0  0
  2  3  2  0  0  0  0
  3  8  1  0  0  0  0
  4  3  1  0  0  0  0
  5  4  2  0  0  0  0
  6  1  2  0  0  0  0
  6  5  1  0  0  0  0
  7  1  1  0  0  0  0
 10  5  1  0  0  0  0
 10  9  2  0  0  0  0
 11 10  1  0  0  0  0
 12 11  1  0  0  0  0
 13 11  2  0  0  0  0
 13 15  1  0  0  0  0
 14 13  1  0  0  0  0
 15 16  2  0  0  0  0
 16  9  1  0  0  0  0
 17 19  1  0  0  0  0
 18  9  1  6  0  0  0
 18 17  1  0  0  0  0
 18 19  1  0  0  0  0
 19 21  1  0  0  0  0
 19 22  1  0  0  0  0
 20 17  1  0  0  0  0
 24 33  1  0  0  0  0
 24 23  1  0  0  0  0
 25 24  2  0  0  0  0
 26 27  2  0  0  0  0
 26 25  1  0  0  0  0
 27 32  1  0  0  0  0
 28 29  2  0  0  0  0
 28 27  1  0  0  0  0
 29 30  1  0  0  0  0
 30 37  1  0  0  0  0
 30 31  2  0  0  0  0
 31 38  1  0  0  0  0
 32 31  1  0  0  0  0
 32 33  2  0  0  0  0
 33 39  1  0  0  0  0
 34 25  1  0  0  0  0
 35 26  1  0  0  0  0
 36 29  1  0  0  0  0
M  END
>  <minimizedAffinity>
-6.1762619

$$$$

 OpenBabel03242513583D

 39 43  0  0  1  0  0  0  0  0999 V2000
   34.7590   28.5620   36.7370 C   0  0  0  0  0  0  0  0  0  0  0  0
   34.4840   27.1930   36.7730 C   0  0  0  0  0  0  0  0  0  0  0  0
   33.1840   26.8120   36.4470 C   0  0  0  0  0  0  0  0  0  0  0  0
   32.2920   27.7550   36.1250 N   0  0  0  0  0  0  0  0  0  0  0  0
   32.5580   29.0620   36.0910 C   0  0  0  0  0  0  0  0  0  0  0  0
   33.8210   29.4250   36.4090 N   0  0  0  0  0  0  0  0  0  0  0  0
   35.7820   28.8300   36.9970 H   0  0  0  0  0  0  0  0  0  0  0  0
   32.8480   25.7800   36.4390 H   0  0  0  0  0  0  0  0  0  0  0  0
   30.7820   30.6430   36.6820 C   0  0  0  0  0  0  0  0  0  0  0  0
   31.7010   30.1920   35.7630 C   0  0  0  0  0  0  0  0  0  0  0  0
   31.7230   30.8670   34.5610 C   0  0  0  0  0  0  0  0  0  0  0  0
   32.4390   30.5320   33.8190 H   0  0  0  0  0  0  0  0  0  0  0  0
   30.8670   31.9050   34.3500 C   0  0  0  0  0  0  0  0  0  0  0  0
   30.9540   32.3690   33.3970 H   0  0  0  0  0  0  0  0  0  0  0  0
   29.9470   32.3680   35.2510 C   0  0  0  0  0  3  0  0  0  0  0  0
   29.9040   31.7120   36.4600 C   0  0  0  0  0  3  0  0  0  0  0  0
   30.7890   29.8470   39.2530 N   0  0  0  0  0  0  0  0  0  0  0  0
   30.6190   30.1010   38.0190 C   0  0  2  0  0  3  0  0  0  0  0  0
   29.5620   29.1490   38.2300 N   0  0  0  0  0  4  0  0  0  0  0  0
   31.5490   30.3170   39.7780 H   0  0  0  0  0  0  0  0  0  0  0  0
   29.3120   28.2860   37.6590 H   0  0  0  0  0  0  0  0  0  0  0  0
   28.7600   28.4850   38.4470 H   0  0  0  0  0  0  0  0  0  0  0  0
   35.3910   26.2050   37.1030 O   0  0  0  0  0  0  0  0  0  0  0  0
   35.9160   26.0060   38.3730 C   0  0  0  0  0  0  0  0  0  0  0  0
   36.2760   24.7960   38.9530 C   0  0  0  0  0  0  0  0  0  0  0  0
   36.7830   24.7800   40.2290 C   0  0  0  0  0  0  0  0  0  0  0  0
   36.9520   25.9390   40.9710 C   0  0  0  0  0  0  0  0  0  0  0  0
   37.4560   25.8190   42.2100 N   0  0  0  0  0  0  0  0  0  0  0  0
   37.6330   26.9340   42.9640 C   0  0  0  0  0  0  0  0  0  0  0  0
   37.2920   28.1510   42.4340 C   0  0  0  0  0  0  0  0  0  0  0  0
   36.7640   28.2720   41.1360 C   0  0  0  0  0  0  0  0  0  0  0  0
   36.5890   27.1410   40.3810 C   0  0  0  0  0  0  0  0  0  0  0  0
   36.0700   27.1990   39.0910 C   0  0  0  0  0  0  0  0  0  0  0  0
   36.1230   23.9270   38.3290 H   0  0  0  0  0  0  0  0  0  0  0  0
   37.0510   23.8220   40.6450 H   0  0  0  0  0  0  0  0  0  0  0  0
   38.0340   26.8980   43.9670 H   0  0  0  0  0  0  0  0  0  0  0  0
   37.4150   29.0670   42.9960 H   0  0  0  0  0  0  0  0  0  0  0  0
   36.4970   29.2310   40.7240 H   0  0  0  0  0  0  0  0  0  0  0  0
   35.8190   28.1860   38.7270 H   0  0  0  0  0  0  0  0  0  0  0  0
  1  2  1  0  0  0  0
  1  7  1  0  0  0  0
  2 23  1  0  0  0  0
  3  2  2  0  0  0  0
  4  3  1  0  0  0  0
  5  4  2  0  0  0  0
  5  6  1  0  0  0  0
  6  1  2  0  0  0  0
  8  3  1  0  0  0  0
 10  5  1  0  0  0  0
 10  9  2  0  0  0  0
 11 10  1  0  0  0  0
 12 11  1  0  0  0  0
 13 11  2  0  0  0  0
 13 15  1  0  0  0  0
 14 13  1  0  0  0  0
 15 16  2  0  0  0  0
 16  9  1  0  0  0  0
 17 20  1  0  0  0  0
 18  9  1  6  0  0  0
 18 19  1  0  0  0  0
 18 17  1  0  0  0  0
 19 22  1  0  0  0  0
 19 17  1  0  0  0  0
 21 19  1  0  0  0  0
 23 24  1  0  0  0  0
 24 25  2  0  0  0  0
 24 33  1  0  0  0  0
 25 26  1  0  0  0  0
 26 35  1  0  0  0  0
 26 27  2  0  0  0  0
 27 28  1  0  0  0  0
 28 29  2  0  0  0  0
 29 36  1  0  0  0  0
 30 29  1  0  0  0  0
 30 37  1  0  0  0  0
 31 30  2  0  0  0  0
 32 27  1  0  0  0  0
 32 31  1  0  0  0  0
 33 32  2  0  0  0  0
 34 25  1  0  0  0  0
 38 31  1  0  0  0  0
 39 33  1  0  0  0  0
M  END
>  <minimizedAffinity>
-6.17018318

$$$$
