
 OpenBabel03242523473D

 24 25  0  0  0  0  0  0  0  0999 V2000
   47.8650   32.1590   43.0430 C   0  0  0  0  0  0  0  0  0  0  0  0
   47.7800   33.4770   43.3770 C   0  0  0  0  0  0  0  0  0  0  0  0
   48.6750   34.3490   42.7990 C   0  0  0  0  0  0  0  0  0  0  0  0
   48.6250   35.3880   43.0480 H   0  0  0  0  0  0  0  0  0  0  0  0
   49.6490   33.9620   41.9050 C   0  0  0  0  0  0  0  0  0  0  0  0
   50.3210   34.7130   41.4910 H   0  0  0  0  0  0  0  0  0  0  0  0
   49.7630   32.6360   41.5450 C   0  0  0  0  0  3  0  0  0  0  0  0
   48.8510   31.7500   42.1340 C   0  0  0  0  0  3  0  0  0  0  0  0
   44.7260   35.0770   44.7430 C   0  0  0  0  0  0  0  0  0  0  0  0
   45.7630   34.7150   43.8690 C   0  0  0  0  0  0  0  0  0  0  0  0
   46.7370   33.8180   44.3060 C   0  0  0  0  0  0  0  0  0  0  0  0
   46.6170   33.3510   45.5610 N   0  0  0  0  0  0  0  0  0  0  0  0
   45.6260   33.7000   46.3910 C   0  0  0  0  0  0  0  0  0  0  0  0
   44.6810   34.5680   45.9700 N   0  0  0  0  0  0  0  0  0  0  0  0
   45.7040   35.1820   42.9090 H   0  0  0  0  0  0  0  0  0  0  0  0
   45.6230   33.2660   47.3790 H   0  0  0  0  0  0  0  0  0  0  0  0
   43.7720   35.9520   44.3200 O   0  0  0  0  0  0  0  0  0  0  0  0
   43.6780   36.8950   44.6490 H   0  0  0  0  0  0  0  0  0  0  0  0
   46.3580   30.2570   42.7430 N   0  0  0  0  0  0  0  0  0  0  0  0
   47.1390   30.9950   43.4560 C   0  0  0  0  0  0  0  0  0  0  0  0
   47.0120   30.2530   44.6450 N   0  0  0  0  0  0  0  0  0  0  0  0
   45.9210   29.4330   43.2020 H   0  0  0  0  0  0  0  0  0  0  0  0
   47.7860   29.8210   45.1860 H   0  0  0  0  0  0  0  0  0  0  0  0
   46.9180   29.7190   45.4990 H   0  0  0  0  0  0  0  0  0  0  0  0
  1  2  1  0  0  0  0
  1 20  1  0  0  0  0
  2 11  1  0  0  0  0
  3  4  1  0  0  0  0
  3  2  2  0  0  0  0
  5  3  1  0  0  0  0
  6  5  1  0  0  0  0
  7  5  2  0  0  0  0
  7  8  1  0  0  0  0
  8  1  2  0  0  0  0
  9 14  1  0  0  0  0
 10 11  1  0  0  0  0
 10  9  2  0  0  0  0
 11 12  2  0  0  0  0
 12 13  1  0  0  0  0
 13 16  1  0  0  0  0
 14 13  2  0  0  0  0
 15 10  1  0  0  0  0
 17 18  1  0  0  0  0
 17  9  1  0  0  0  0
 19 22  1  0  0  0  0
 19 20  2  0  0  0  0
 20 21  1  0  0  0  0
 21 23  1  0  0  0  0
 21 24  1  0  0  0  0
M  END
>  <minimizedAffinity>
-4.34633923

>  <minimizedRMSD>
0.783977151

$$$$
