
 OpenBabel03242514063D

 48 51  0  0  1  0  0  0  0  0999 V2000
   45.2730   34.0980   40.5820 C   0  0  1  0  0  0  0  0  0  0  0  0
   46.6850   33.5990   40.1930 C   0  0  0  0  0  0  0  0  0  0  0  0
   46.6960   33.6990   38.6540 C   0  0  0  0  0  0  0  0  0  0  0  0
   45.7800   32.5710   38.1830 C   0  0  0  0  0  0  0  0  0  0  0  0
   44.4020   32.7820   38.6710 C   0  0  0  0  0  0  0  0  0  0  0  0
   44.2180   33.2160   40.0860 C   0  0  2  0  0  0  0  0  0  0  0  0
   45.2540   35.1010   40.0540 H   0  0  0  0  0  0  0  0  0  0  0  0
   47.4780   34.1930   40.6330 H   0  0  0  0  0  0  0  0  0  0  0  0
   46.7250   32.5260   40.4540 H   0  0  0  0  0  0  0  0  0  0  0  0
   47.7090   33.4990   38.3020 H   0  0  0  0  0  0  0  0  0  0  0  0
   46.2810   34.6830   38.4210 H   0  0  0  0  0  0  0  0  0  0  0  0
   45.7680   32.5270   37.0890 H   0  0  0  0  0  0  0  0  0  0  0  0
   46.1870   31.6360   38.6250 H   0  0  0  0  0  0  0  0  0  0  0  0
   43.8010   31.8760   38.4180 H   0  0  0  0  0  0  0  0  0  0  0  0
   43.9520   33.5800   38.0070 H   0  0  0  0  0  0  0  0  0  0  0  0
   44.1150   32.3060   40.7150 H   0  0  0  0  0  0  0  0  0  0  0  0
   45.5550   33.7620   44.2300 C   0  0  0  0  0  0  0  0  0  0  0  0
   45.0450   34.9690   44.6500 C   0  0  0  0  0  0  0  0  0  0  0  0
   44.5780   35.9530   43.8070 C   0  0  0  0  0  0  0  0  0  0  0  0
   44.6670   35.6210   42.4460 C   0  0  0  0  0  0  0  0  0  0  0  0
   45.1860   34.4010   42.0080 C   0  0  0  0  0  0  0  0  0  0  0  0
   45.6240   33.4840   42.9030 N   0  0  0  0  0  0  0  0  0  0  0  0
   45.0200   35.1260   45.7240 H   0  0  0  0  0  0  0  0  0  0  0  0
   44.1880   36.8770   44.1700 H   0  0  0  0  0  0  0  0  0  0  0  0
   44.2810   36.4120   41.8240 H   0  0  0  0  0  0  0  0  0  0  0  0
   46.2890   30.5790   45.8760 C   0  0  0  0  0  0  0  0  0  0  0  0
   46.8600   30.9410   47.0850 C   0  0  0  0  0  0  0  0  0  0  0  0
   46.9870   32.3060   47.3220 C   0  0  0  0  0  0  0  0  0  0  0  0
   46.5510   33.1930   46.3680 N   0  0  0  0  0  0  0  0  0  0  0  0
   45.9980   32.7680   45.2010 C   0  0  0  0  0  0  0  0  0  0  0  0
   45.8710   31.4860   44.9620 N   0  0  0  0  0  0  0  0  0  0  0  0
   46.1830   29.5040   45.6800 H   0  0  0  0  0  0  0  0  0  0  0  0
   47.1850   30.1980   47.7970 H   0  0  0  0  0  0  0  0  0  0  0  0
   47.4230   32.6640   48.2390 H   0  0  0  0  0  0  0  0  0  0  0  0
   41.8660   33.2810   40.8270 C   0  0  0  0  0  0  0  0  0  0  0  0
   42.8730   33.9110   40.0780 C   0  0  0  0  0  0  0  0  0  0  0  0
   42.5000   35.0700   39.4410 C   0  0  0  0  0  0  0  0  0  0  0  0
   43.2690   35.5550   38.8660 H   0  0  0  0  0  0  0  0  0  0  0  0
   41.2170   35.5510   39.5530 C   0  0  0  0  0  0  0  0  0  0  0  0
   41.0430   36.4670   39.0090 H   0  0  0  0  0  0  0  0  0  0  0  0
   40.2420   34.9220   40.2900 C   0  0  0  0  0  0  0  0  0  0  0  0
   40.5840   33.7650   40.9360 C   0  0  0  0  0  0  0  0  0  0  0  0
   42.7520   31.9060   42.6750 N   0  0  0  0  0  0  0  0  0  0  0  0
   42.0240   32.0300   41.6000 C   0  0  0  0  0  0  0  0  0  0  0  0
   41.6040   30.6800   41.6000 N   0  0  0  0  0  0  0  0  0  0  0  0
   43.2900   32.6880   43.0910 H   0  0  0  0  0  0  0  0  0  0  0  0
   42.1460   29.9160   41.1160 H   0  0  0  0  0  0  0  0  0  0  0  0
   40.7440   30.2830   42.0570 H   0  0  0  0  0  0  0  0  0  0  0  0
  1  7  1  6  0  0  0
  1 21  1  0  0  0  0
  2  9  1  0  0  0  0
  2  1  1  0  0  0  0
  2  8  1  0  0  0  0
  3  2  1  0  0  0  0
  4 13  1  0  0  0  0
  4  3  1  0  0  0  0
  4  5  1  0  0  0  0
  5  6  1  0  0  0  0
  6  1  1  0  0  0  0
  6 16  1  1  0  0  0
 10  3  1  0  0  0  0
 11  3  1  0  0  0  0
 12  4  1  0  0  0  0
 14  5  1  0  0  0  0
 15  5  1  0  0  0  0
 17 18  1  0  0  0  0
 17 30  1  0  0  0  0
 18 23  1  0  0  0  0
 19 24  1  0  0  0  0
 19 18  2  0  0  0  0
 20 19  1  0  0  0  0
 21 20  2  0  0  0  0
 21 22  1  0  0  0  0
 22 17  2  0  0  0  0
 25 20  1  0  0  0  0
 26 27  1  0  0  0  0
 27 28  2  0  0  0  0
 27 33  1  0  0  0  0
 28 34  1  0  0  0  0
 29 28  1  0  0  0  0
 30 29  2  0  0  0  0
 31 30  1  0  0  0  0
 31 26  2  0  0  0  0
 32 26  1  0  0  0  0
 35 42  1  0  0  0  0
 35 44  1  0  0  0  0
 36  6  1  0  0  0  0
 36 35  2  0  0  0  0
 37 39  2  0  0  0  0
 37 36  1  0  0  0  0
 38 37  1  0  0  0  0
 39 41  1  0  0  0  0
 40 39  1  0  0  0  0
 41 42  2  0  0  0  0
 43 46  1  0  0  0  0
 44 43  2  0  0  0  0
 45 44  1  0  0  0  0
 45 48  1  0  0  0  0
 47 45  1  0  0  0  0
M  END
>  <minimizedAffinity>
-6.28515577

>  <minimizedRMSD>
5.59651852

$$$$
