
 OpenBabel03242514063D

 48 51  0  0  1  0  0  0  0  0999 V2000
   46.6920   32.7120   38.9610 C   0  0  1  0  0  0  0  0  0  0  0  0
   45.4680   33.2370   38.1730 C   0  0  0  0  0  0  0  0  0  0  0  0
   44.9320   31.9840   37.4530 C   0  0  0  0  0  0  0  0  0  0  0  0
   45.9590   31.6930   36.3600 C   0  0  0  0  0  0  0  0  0  0  0  0
   47.2770   31.3840   36.9520 C   0  0  0  0  0  0  0  0  0  0  0  0
   47.7560   32.2350   38.0790 C   0  0  2  0  0  0  0  0  0  0  0  0
   46.2190   31.8570   39.5350 H   0  0  0  0  0  0  0  0  0  0  0  0
   44.7130   33.6780   38.8140 H   0  0  0  0  0  0  0  0  0  0  0  0
   45.8600   33.9210   37.3980 H   0  0  0  0  0  0  0  0  0  0  0  0
   43.9800   32.2350   36.9840 H   0  0  0  0  0  0  0  0  0  0  0  0
   44.9120   31.1960   38.2110 H   0  0  0  0  0  0  0  0  0  0  0  0
   45.6330   30.8410   35.7520 H   0  0  0  0  0  0  0  0  0  0  0  0
   46.0380   32.6210   35.7530 H   0  0  0  0  0  0  0  0  0  0  0  0
   48.0210   31.3080   36.1230 H   0  0  0  0  0  0  0  0  0  0  0  0
   47.2090   30.3210   37.3310 H   0  0  0  0  0  0  0  0  0  0  0  0
   48.3410   33.0770   37.6500 H   0  0  0  0  0  0  0  0  0  0  0  0
   46.8700   34.6160   42.0980 C   0  0  0  0  0  0  0  0  0  0  0  0
   47.9500   35.4320   41.8550 C   0  0  0  0  0  0  0  0  0  0  0  0
   48.6790   35.4320   40.6860 C   0  0  0  0  0  0  0  0  0  0  0  0
   48.2230   34.5070   39.7350 C   0  0  0  0  0  0  0  0  0  0  0  0
   47.1300   33.6710   39.9720 C   0  0  0  0  0  0  0  0  0  0  0  0
   46.4640   33.7340   41.1500 N   0  0  0  0  0  0  0  0  0  0  0  0
   48.2210   36.1130   42.6570 H   0  0  0  0  0  0  0  0  0  0  0  0
   49.5120   36.0820   40.5340 H   0  0  0  0  0  0  0  0  0  0  0  0
   48.8120   34.5480   38.8340 H   0  0  0  0  0  0  0  0  0  0  0  0
   45.6340   33.9330   45.4720 C   0  0  0  0  0  0  0  0  0  0  0  0
   44.7240   34.9490   45.7170 C   0  0  0  0  0  0  0  0  0  0  0  0
   44.5460   35.8760   44.6950 C   0  0  0  0  0  0  0  0  0  0  0  0
   45.2630   35.7330   43.5320 N   0  0  0  0  0  0  0  0  0  0  0  0
   46.1400   34.7100   43.3580 C   0  0  0  0  0  0  0  0  0  0  0  0
   46.3200   33.8280   44.3100 N   0  0  0  0  0  0  0  0  0  0  0  0
   45.7800   33.1960   46.2720 H   0  0  0  0  0  0  0  0  0  0  0  0
   44.1890   35.0100   46.6530 H   0  0  0  0  0  0  0  0  0  0  0  0
   43.8560   36.6940   44.8120 H   0  0  0  0  0  0  0  0  0  0  0  0
   48.1480   30.3010   39.5570 C   0  0  0  0  0  0  0  0  0  0  0  0
   48.7290   31.3420   38.8170 C   0  0  0  0  0  0  0  0  0  0  0  0
   50.1020   31.4090   38.8660 C   0  0  0  0  0  0  0  0  0  0  0  0
   50.5500   32.2070   38.2990 H   0  0  0  0  0  0  0  0  0  0  0  0
   50.8250   30.4990   39.5990 C   0  0  0  0  0  0  0  0  0  0  0  0
   51.8910   30.6520   39.5600 H   0  0  0  0  0  0  0  0  0  0  0  0
   50.2390   29.4830   40.3180 C   0  0  0  0  0  3  0  0  0  0  0  0
   48.8750   29.3920   40.2900 C   0  0  0  0  0  3  0  0  0  0  0  0
   45.9160   30.4820   40.5940 N   0  0  0  0  0  0  0  0  0  0  0  0
   46.7000   30.0210   39.6590 C   0  0  0  0  0  0  0  0  0  0  0  0
   45.6710   29.3100   38.9990 N   0  0  0  0  0  0  0  0  0  0  0  0
   46.2450   31.0980   41.3590 H   0  0  0  0  0  0  0  0  0  0  0  0
   45.4190   28.3160   39.2440 H   0  0  0  0  0  0  0  0  0  0  0  0
   45.0560   29.6600   38.2200 H   0  0  0  0  0  0  0  0  0  0  0  0
  1  7  1  1  0  0  0
  1 21  1  0  0  0  0
  2  8  1  0  0  0  0
  2  1  1  0  0  0  0
  3  2  1  0  0  0  0
  3 11  1  0  0  0  0
  4  5  1  0  0  0  0
  4  3  1  0  0  0  0
  5 15  1  0  0  0  0
  5  6  1  0  0  0  0
  6 16  1  6  0  0  0
  6 36  1  0  0  0  0
  6  1  1  0  0  0  0
  9  2  1  0  0  0  0
 10  3  1  0  0  0  0
 12  4  1  0  0  0  0
 13  4  1  0  0  0  0
 14  5  1  0  0  0  0
 17 30  1  0  0  0  0
 18 17  1  0  0  0  0
 18 23  1  0  0  0  0
 19 18  2  0  0  0  0
 20 21  2  0  0  0  0
 20 19  1  0  0  0  0
 21 22  1  0  0  0  0
 22 17  2  0  0  0  0
 24 19  1  0  0  0  0
 25 20  1  0  0  0  0
 26 27  1  0  0  0  0
 26 32  1  0  0  0  0
 27 33  1  0  0  0  0
 28 34  1  0  0  0  0
 28 27  2  0  0  0  0
 29 28  1  0  0  0  0
 30 29  2  0  0  0  0
 30 31  1  0  0  0  0
 31 26  2  0  0  0  0
 35 44  1  0  0  0  0
 35 42  1  0  0  0  0
 36 37  1  0  0  0  0
 36 35  2  0  0  0  0
 37 39  2  0  0  0  0
 38 37  1  0  0  0  0
 39 41  1  0  0  0  0
 40 39  1  0  0  0  0
 42 41  2  0  0  0  0
 43 46  1  0  0  0  0
 44 43  2  0  0  0  0
 45 47  1  0  0  0  0
 45 44  1  0  0  0  0
 48 45  1  0  0  0  0
M  END
>  <minimizedAffinity>
-5.10398054

>  <minimizedRMSD>
1.85319817

$$$$
