
 OpenBabel03252502093D

 53 57  0  0  0  0  0  0  0  0999 V2000
   45.6580   33.8380   45.4570 C   0  0  0  0  0  0  0  0  0  0  0  0
   44.7690   34.7590   45.8430 N   0  0  0  0  0  0  0  0  0  0  0  0
   44.4180   35.8270   45.1400 C   0  0  0  0  0  0  0  0  0  0  0  0
   44.9750   36.0480   43.9300 N   0  0  0  0  0  0  0  0  0  0  0  0
   45.8870   35.2040   43.4180 C   0  0  0  0  0  0  0  0  0  0  0  0
   46.4750   35.4130   42.1870 C   0  0  0  0  0  0  0  0  0  0  0  0
   47.4020   34.5640   41.6740 C   0  0  0  0  0  0  0  0  0  0  0  0
   47.7410   33.4720   42.4300 C   0  0  0  0  0  0  0  0  0  0  0  0
   47.1270   33.2870   43.6710 C   0  0  0  0  0  0  0  0  0  0  0  0
   46.2030   34.1120   44.2080 C   0  0  0  0  0  0  0  0  0  0  0  0
   43.6830   36.5330   45.5260 H   0  0  0  0  0  0  0  0  0  0  0  0
   46.1810   36.2880   41.6170 H   0  0  0  0  0  0  0  0  0  0  0  0
   47.8210   34.7910   40.7030 H   0  0  0  0  0  0  0  0  0  0  0  0
   47.5580   32.0130   47.9350 C   0  0  0  0  0  0  0  0  0  0  0  0
   47.0640   30.7040   47.9270 C   0  0  0  0  0  0  0  0  0  0  0  0
   46.0390   30.4410   47.0600 C   0  0  0  0  0  0  0  0  0  0  0  0
   45.5620   31.4080   46.2730 N   0  0  0  0  0  0  0  0  0  0  0  0
   46.0240   32.6520   46.2680 C   0  0  0  0  0  0  0  0  0  0  0  0
   47.0270   32.9310   47.1150 N   0  0  0  0  0  0  0  0  0  0  0  0
   45.4840   29.1820   47.0190 N   0  0  0  0  0  0  0  0  0  0  0  0
   44.2640   28.8230   46.2460 C   0  0  0  0  0  0  0  0  0  0  0  0
   44.2060   27.3190   46.2450 C   0  0  0  0  0  0  0  0  0  0  0  0
   44.8940   26.9630   47.5240 C   0  0  0  0  0  0  0  0  0  0  0  0
   45.9460   28.0040   47.6940 C   0  0  0  0  0  0  0  0  0  0  0  0
   48.3760   32.2710   48.6130 H   0  0  0  0  0  0  0  0  0  0  0  0
   44.3690   29.1830   45.2000 H   0  0  0  0  0  0  0  0  0  0  0  0
   43.3700   29.2720   46.7580 H   0  0  0  0  0  0  0  0  0  0  0  0
   43.1700   26.9610   46.1810 H   0  0  0  0  0  0  0  0  0  0  0  0
   44.8390   26.9530   45.4000 H   0  0  0  0  0  0  0  0  0  0  0  0
   44.1210   27.0060   48.3200 H   0  0  0  0  0  0  0  0  0  0  0  0
   45.3070   25.9260   47.4910 H   0  0  0  0  0  0  0  0  0  0  0  0
   45.9870   28.1450   48.8170 H   0  0  0  0  0  0  0  0  0  0  0  0
   46.8890   27.5980   47.2830 H   0  0  0  0  0  0  0  0  0  0  0  0
   47.6750   29.7860   48.7300 N   0  0  0  0  0  0  0  0  0  0  0  0
   48.3620   29.0270   48.5250 H   0  0  0  0  0  0  0  0  0  0  0  0
   47.4480   29.7930   49.7680 H   0  0  0  0  0  0  0  0  0  0  0  0
   48.4710   31.4700   41.0480 C   0  0  0  0  0  0  0  0  0  0  0  0
   48.7430   32.5740   41.8560 C   0  0  0  0  0  0  0  0  0  0  0  0
   50.0480   32.9170   42.1900 C   0  0  0  0  0  0  0  0  0  0  0  0
   50.3070   33.7650   42.8140 H   0  0  0  0  0  0  0  0  0  0  0  0
   51.1080   32.1490   41.7130 C   0  0  0  0  0  0  0  0  0  0  0  0
   52.1360   32.4350   41.9880 H   0  0  0  0  0  0  0  0  0  0  0  0
   50.8410   31.0550   40.9130 C   0  0  0  0  0  3  0  0  0  0  0  0
   49.5410   30.7290   40.5900 C   0  0  0  0  0  3  0  0  0  0  0  0
   46.4960   31.8020   39.7800 N   0  0  0  0  0  0  0  0  0  0  0  0
   47.0650   31.2010   40.7610 C   0  0  0  0  0  0  0  0  0  0  0  0
   46.5150   30.2490   41.6810 N   0  0  0  0  0  0  0  0  0  0  0  0
   45.4950   31.6350   39.5450 H   0  0  0  0  0  0  0  0  0  0  0  0
   45.7350   30.3510   42.3650 H   0  0  0  0  0  0  0  0  0  0  0  0
   46.8850   29.2640   41.7600 H   0  0  0  0  0  0  0  0  0  0  0  0
   47.6020   32.0880   44.2910 N   0  0  0  0  0  0  0  0  0  0  0  0
   48.3590   31.8600   44.9670 H   0  0  0  0  0  0  0  0  0  0  0  0
   46.9740   31.3440   43.8950 H   0  0  0  0  0  0  0  0  0  0  0  0
  1  2  1  0  0  0  0
  1 18  1  0  0  0  0
  3 11  1  0  0  0  0
  3  2  2  0  0  0  0
  4  3  1  0  0  0  0
  5  4  2  0  0  0  0
  5 10  1  0  0  0  0
  6  5  1  0  0  0  0
  7  6  2  0  0  0  0
  7  8  1  0  0  0  0
  8  9  2  0  0  0  0
  9 10  1  0  0  0  0
  9 51  1  0  0  0  0
 10  1  2  0  0  0  0
 12  6  1  0  0  0  0
 13  7  1  0  0  0  0
 14 25  1  0  0  0  0
 15 14  1  0  0  0  0
 15 34  1  0  0  0  0
 16 15  2  0  0  0  0
 17 16  1  0  0  0  0
 18 17  2  0  0  0  0
 18 19  1  0  0  0  0
 19 14  2  0  0  0  0
 20 16  1  0  0  0  0
 20 24  1  0  0  0  0
 21 27  1  0  0  0  0
 21 20  1  0  0  0  0
 22 21  1  0  0  0  0
 22 23  1  0  0  0  0
 23 24  1  0  0  0  0
 23 30  1  0  0  0  0
 24 32  1  0  0  0  0
 26 21  1  0  0  0  0
 28 22  1  0  0  0  0
 29 22  1  0  0  0  0
 31 23  1  0  0  0  0
 33 24  1  0  0  0  0
 34 36  1  0  0  0  0
 35 34  1  0  0  0  0
 37 38  1  0  0  0  0
 38 39  2  0  0  0  0
 38  8  1  0  0  0  0
 39 40  1  0  0  0  0
 41 42  1  0  0  0  0
 41 39  1  0  0  0  0
 43 41  2  0  0  0  0
 44 43  1  0  0  0  0
 44 37  2  0  0  0  0
 45 46  2  0  0  0  0
 46 37  1  0  0  0  0
 46 47  1  0  0  0  0
 47 50  1  0  0  0  0
 47 49  1  0  0  0  0
 48 45  1  0  0  0  0
 51 52  1  0  0  0  0
 53 51  1  0  0  0  0
M  END
>  <minimizedAffinity>
-6.99472141

>  <minimizedRMSD>
0.83621186

$$$$
