
 OpenBabel03242514063D

 48 51  0  0  1  0  0  0  0  0999 V2000
   46.0790   32.6050   39.0050 C   0  0  1  0  0  0  0  0  0  0  0  0
   44.8870   33.2600   38.2670 C   0  0  0  0  0  0  0  0  0  0  0  0
   44.1860   32.0710   37.5800 C   0  0  0  0  0  0  0  0  0  0  0  0
   45.1260   31.6660   36.4460 C   0  0  0  0  0  0  0  0  0  0  0  0
   46.4270   31.2160   36.9840 C   0  0  0  0  0  0  0  0  0  0  0  0
   47.0450   32.0120   38.0820 C   0  0  2  0  0  0  0  0  0  0  0  0
   45.5400   31.8090   39.6060 H   0  0  0  0  0  0  0  0  0  0  0  0
   44.2130   33.7830   38.9360 H   0  0  0  0  0  0  0  0  0  0  0  0
   45.3170   33.8940   37.4700 H   0  0  0  0  0  0  0  0  0  0  0  0
   43.2480   32.4230   37.1500 H   0  0  0  0  0  0  0  0  0  0  0  0
   44.1130   31.2920   38.3440 H   0  0  0  0  0  0  0  0  0  0  0  0
   44.6830   30.8540   35.8590 H   0  0  0  0  0  0  0  0  0  0  0  0
   45.2800   32.5770   35.8300 H   0  0  0  0  0  0  0  0  0  0  0  0
   47.1210   31.0560   36.1240 H   0  0  0  0  0  0  0  0  0  0  0  0
   46.2590   30.1670   37.3730 H   0  0  0  0  0  0  0  0  0  0  0  0
   47.6990   32.7830   37.6220 H   0  0  0  0  0  0  0  0  0  0  0  0
   46.6070   34.4800   42.1210 C   0  0  0  0  0  0  0  0  0  0  0  0
   47.7530   35.1790   41.8220 C   0  0  0  0  0  0  0  0  0  0  0  0
   48.4200   35.1040   40.6190 C   0  0  0  0  0  0  0  0  0  0  0  0
   47.8240   34.2320   39.6950 C   0  0  0  0  0  0  0  0  0  0  0  0
   46.6630   33.5130   39.9890 C   0  0  0  0  0  0  0  0  0  0  0  0
   46.0660   33.6440   41.1980 N   0  0  0  0  0  0  0  0  0  0  0  0
   48.1320   35.8280   42.6060 H   0  0  0  0  0  0  0  0  0  0  0  0
   49.3070   35.6640   40.4230 H   0  0  0  0  0  0  0  0  0  0  0  0
   48.3690   34.2120   38.7670 H   0  0  0  0  0  0  0  0  0  0  0  0
   45.5360   33.9670   45.5810 C   0  0  0  0  0  0  0  0  0  0  0  0
   44.6840   35.0290   45.8380 C   0  0  0  0  0  0  0  0  0  0  0  0
   44.4860   35.9260   44.7930 C   0  0  0  0  0  0  0  0  0  0  0  0
   45.1300   35.7130   43.5990 N   0  0  0  0  0  0  0  0  0  0  0  0
   45.9540   34.6480   43.4140 C   0  0  0  0  0  0  0  0  0  0  0  0
   46.1510   33.7930   44.3880 N   0  0  0  0  0  0  0  0  0  0  0  0
   45.6970   33.2530   46.3980 H   0  0  0  0  0  0  0  0  0  0  0  0
   44.2040   35.1450   46.7980 H   0  0  0  0  0  0  0  0  0  0  0  0
   43.8380   36.7770   44.9180 H   0  0  0  0  0  0  0  0  0  0  0  0
   49.3030   31.0860   38.4350 C   0  0  0  0  0  0  0  0  0  0  0  0
   47.9460   31.0200   38.7840 C   0  0  0  0  0  0  0  0  0  0  0  0
   47.6200   30.0620   39.7160 C   0  0  0  0  0  0  0  0  0  0  0  0
   46.5800   30.0080   39.9860 H   0  0  0  0  0  0  0  0  0  0  0  0
   48.5870   29.2420   40.2480 C   0  0  0  0  0  0  0  0  0  0  0  0
   48.2120   28.5310   40.9680 H   0  0  0  0  0  0  0  0  0  0  0  0
   49.9130   29.3200   39.8950 C   0  0  0  0  0  3  0  0  0  0  0  0
   50.2680   30.2640   38.9690 C   0  0  0  0  0  3  0  0  0  0  0  0
   50.5240   31.6810   36.3740 N   0  0  0  0  0  0  0  0  0  0  0  0
   49.8960   32.0300   37.4630 C   0  0  0  0  0  0  0  0  0  0  0  0
   50.0650   33.4170   37.2440 N   0  0  0  0  0  0  0  0  0  0  0  0
   50.6620   30.6950   36.0880 H   0  0  0  0  0  0  0  0  0  0  0  0
   50.9080   33.9480   37.5880 H   0  0  0  0  0  0  0  0  0  0  0  0
   49.4080   34.0630   36.7360 H   0  0  0  0  0  0  0  0  0  0  0  0
  1  7  1  1  0  0  0
  1 21  1  0  0  0  0
  2  8  1  0  0  0  0
  2  1  1  0  0  0  0
  3  2  1  0  0  0  0
  3 11  1  0  0  0  0
  4  5  1  0  0  0  0
  4  3  1  0  0  0  0
  5 15  1  0  0  0  0
  5  6  1  0  0  0  0
  6 16  1  6  0  0  0
  6 36  1  0  0  0  0
  6  1  1  0  0  0  0
  9  2  1  0  0  0  0
 10  3  1  0  0  0  0
 12  4  1  0  0  0  0
 13  4  1  0  0  0  0
 14  5  1  0  0  0  0
 17 30  1  0  0  0  0
 18 17  1  0  0  0  0
 18 23  1  0  0  0  0
 19 18  2  0  0  0  0
 20 21  2  0  0  0  0
 20 19  1  0  0  0  0
 21 22  1  0  0  0  0
 22 17  2  0  0  0  0
 24 19  1  0  0  0  0
 25 20  1  0  0  0  0
 26 27  1  0  0  0  0
 26 32  1  0  0  0  0
 27 33  1  0  0  0  0
 28 34  1  0  0  0  0
 28 27  2  0  0  0  0
 29 28  1  0  0  0  0
 30 29  2  0  0  0  0
 30 31  1  0  0  0  0
 31 26  2  0  0  0  0
 35 36  2  0  0  0  0
 35 42  1  0  0  0  0
 36 37  1  0  0  0  0
 37 38  1  0  0  0  0
 37 39  2  0  0  0  0
 39 40  1  0  0  0  0
 41 39  1  0  0  0  0
 42 41  2  0  0  0  0
 43 44  2  0  0  0  0
 44 35  1  0  0  0  0
 45 44  1  0  0  0  0
 45 47  1  0  0  0  0
 46 43  1  0  0  0  0
 48 45  1  0  0  0  0
M  END
>  <minimizedAffinity>
-5.83817577

>  <minimizedRMSD>
1.92698956

$$$$
