
 OpenBabel03242519063D

 48 51  0  0  1  0  0  0  0  0999 V2000
   49.1610   32.0160   37.8470 C   0  0  0  0  0  0  0  0  0  0  0  0
   48.8210   32.9880   38.8020 C   0  0  0  0  0  0  0  0  0  0  0  0
   48.2740   34.1120   38.2480 C   0  0  0  0  0  0  0  0  0  0  0  0
   48.0510   34.3360   36.9200 C   0  0  0  0  0  0  0  0  0  0  0  0
   48.4020   33.3500   36.0180 C   0  0  0  0  0  0  0  0  0  0  0  0
   48.9620   32.1850   36.5110 C   0  0  0  0  0  0  0  0  0  0  0  0
   47.9730   34.9310   38.8940 H   0  0  0  0  0  0  0  0  0  0  0  0
   47.6090   35.2580   36.5400 H   0  0  0  0  0  0  0  0  0  0  0  0
   48.2690   33.4270   34.9480 H   0  0  0  0  0  0  0  0  0  0  0  0
   48.2710   30.3040   35.2430 C   0  0  0  0  0  0  0  0  0  0  0  0
   49.3400   31.1310   35.5720 C   0  0  0  0  0  0  0  0  0  0  0  0
   50.5890   30.9200   35.0340 C   0  0  0  0  0  0  0  0  0  0  0  0
   51.3540   31.6120   35.3500 H   0  0  0  0  0  0  0  0  0  0  0  0
   50.8320   29.8930   34.1560 C   0  0  0  0  0  0  0  0  0  0  0  0
   51.8170   29.7370   33.7400 H   0  0  0  0  0  0  0  0  0  0  0  0
   49.7760   29.0730   33.8280 C   0  0  0  0  0  3  0  0  0  0  0  0
   48.5210   29.2600   34.3480 C   0  0  0  0  0  3  0  0  0  0  0  0
   45.9970   31.0980   35.1300 N   0  0  0  0  0  0  0  0  0  0  0  0
   46.9070   30.4300   35.7480 C   0  0  0  0  0  0  0  0  0  0  0  0
   46.5540   29.7940   36.9700 N   0  0  0  0  0  0  0  0  0  0  0  0
   45.0510   31.1310   35.5660 H   0  0  0  0  0  0  0  0  0  0  0  0
   46.6670   28.7430   37.0680 H   0  0  0  0  0  0  0  0  0  0  0  0
   46.2020   29.7870   37.9440 H   0  0  0  0  0  0  0  0  0  0  0  0
   49.0110   32.8510   40.1990 N   0  0  0  0  0  0  0  0  0  0  0  0
   50.0030   32.7540   40.5670 H   0  0  0  0  0  0  0  0  0  0  0  0
   47.3890   33.5460   43.2970 N   0  0  0  0  0  0  0  0  0  0  0  0
   48.1060   34.0430   42.1420 C   0  0  0  0  0  0  0  0  0  0  0  0
   48.0490   32.8170   41.2800 C   0  0  2  0  0  0  0  0  0  0  0  0
   48.5320   31.7660   42.2640 C   0  0  0  0  0  0  0  0  0  0  0  0
   47.8990   32.2080   43.5590 C   0  0  0  0  0  0  0  0  0  0  0  0
   47.6240   34.9350   41.7050 H   0  0  0  0  0  0  0  0  0  0  0  0
   49.1530   34.2260   42.4610 H   0  0  0  0  0  0  0  0  0  0  0  0
   47.0230   32.6260   40.9600 H   0  0  0  0  0  0  0  0  0  0  0  0
   49.6310   31.8180   42.3740 H   0  0  0  0  0  0  0  0  0  0  0  0
   48.2560   30.7370   41.9680 H   0  0  0  0  0  0  0  0  0  0  0  0
   47.0230   31.5620   43.7570 H   0  0  0  0  0  0  0  0  0  0  0  0
   48.6390   32.2000   44.3840 H   0  0  0  0  0  0  0  0  0  0  0  0
   44.6380   35.7240   44.5340 C   0  0  0  0  0  0  0  0  0  0  0  0
   45.6020   35.2120   43.6650 C   0  0  0  0  0  0  0  0  0  0  0  0
   46.3930   34.1440   44.0730 C   0  0  0  0  0  0  0  0  0  0  0  0
   46.1660   33.6600   45.3300 N   0  0  0  0  0  0  0  0  0  0  0  0
   45.2400   34.1450   46.1720 C   0  0  0  0  0  0  0  0  0  0  0  0
   44.4700   35.1890   45.7680 N   0  0  0  0  0  0  0  0  0  0  0  0
   44.0530   36.5540   44.1590 H   0  0  0  0  0  0  0  0  0  0  0  0
   45.8070   35.5700   42.6690 H   0  0  0  0  0  0  0  0  0  0  0  0
   45.1620   33.6770   47.1300 H   0  0  0  0  0  0  0  0  0  0  0  0
   50.2060   29.7960   38.7690 N   0  0  0  0  0  0  0  0  0  0  0  0
   49.7540   30.7830   38.3640 C   0  0  0  0  0  0  0  0  0  0  0  0
  1 48  1  0  0  0  0
  1  2  1  0  0  0  0
  2 24  1  0  0  0  0
  3  2  2  0  0  0  0
  3  7  1  0  0  0  0
  4  3  1  0  0  0  0
  5  6  1  0  0  0  0
  5  4  2  0  0  0  0
  6  1  2  0  0  0  0
  8  4  1  0  0  0  0
  9  5  1  0  0  0  0
 10 11  1  0  0  0  0
 10 19  1  0  0  0  0
 11  6  1  0  0  0  0
 12 13  1  0  0  0  0
 12 11  2  0  0  0  0
 14 12  1  0  0  0  0
 15 14  1  0  0  0  0
 16 14  2  0  0  0  0
 16 17  1  0  0  0  0
 17 10  2  0  0  0  0
 18 21  1  0  0  0  0
 18 19  2  0  0  0  0
 19 20  1  0  0  0  0
 20 22  1  0  0  0  0
 20 23  1  0  0  0  0
 24 25  1  0  0  0  0
 24 28  1  0  0  0  0
 26 30  1  0  0  0  0
 26 40  1  0  0  0  0
 27 32  1  0  0  0  0
 27 26  1  0  0  0  0
 28 33  1  6  0  0  0
 28 27  1  0  0  0  0
 28 29  1  0  0  0  0
 29 34  1  0  0  0  0
 29 30  1  0  0  0  0
 30 36  1  0  0  0  0
 30 37  1  0  0  0  0
 31 27  1  0  0  0  0
 35 29  1  0  0  0  0
 38 43  1  0  0  0  0
 39 40  1  0  0  0  0
 39 38  2  0  0  0  0
 40 41  2  0  0  0  0
 41 42  1  0  0  0  0
 42 46  1  0  0  0  0
 43 42  2  0  0  0  0
 44 38  1  0  0  0  0
 45 39  1  0  0  0  0
 48 47  3  0  0  0  0
M  END
>  <minimizedAffinity>
-4.68206358

>  <minimizedRMSD>
1.30786908

$$$$
