
 OpenBabel03252509193D

 48 51  0  0  1  0  0  0  0  0999 V2000
   52.9130   26.6200   52.2090 C   0  0  1  0  0  0  0  0  0  0  0  0
   52.7540   25.3270   51.5000 C   0  0  0  0  0  0  0  0  0  0  0  0
   54.0620   24.6980   51.0850 C   0  0  0  0  0  0  0  0  0  0  0  0
   55.0880   24.7350   52.1810 C   0  0  0  0  0  0  0  0  0  0  0  0
   55.1840   26.0790   52.8270 C   0  0  0  0  0  0  0  0  0  0  0  0
   54.3670   27.1320   52.0270 C   0  0  2  0  0  0  0  0  0  0  0  0
   52.8330   26.4460   53.2910 H   0  0  0  0  0  0  0  0  0  0  0  0
   52.1650   25.5020   50.5760 H   0  0  0  0  0  0  0  0  0  0  0  0
   52.1460   24.6320   52.1080 H   0  0  0  0  0  0  0  0  0  0  0  0
   53.8670   23.6580   50.8420 H   0  0  0  0  0  0  0  0  0  0  0  0
   54.4820   25.2440   50.2080 H   0  0  0  0  0  0  0  0  0  0  0  0
   54.7160   24.0370   52.9820 H   0  0  0  0  0  0  0  0  0  0  0  0
   56.0390   24.3260   51.8150 H   0  0  0  0  0  0  0  0  0  0  0  0
   54.8340   26.1230   53.8710 H   0  0  0  0  0  0  0  0  0  0  0  0
   56.2300   26.4260   52.7110 H   0  0  0  0  0  0  0  0  0  0  0  0
   54.6740   27.0830   50.9600 H   0  0  0  0  0  0  0  0  0  0  0  0
   50.2500   29.1220   50.3760 C   0  0  0  0  0  0  0  0  0  0  0  0
   50.3630   29.3690   51.7390 C   0  0  0  0  0  0  0  0  0  0  0  0
   51.1960   28.6170   52.4470 C   0  0  0  0  0  0  0  0  0  0  0  0
   51.9480   27.5950   51.8280 C   0  0  0  0  0  0  0  0  0  0  0  0
   51.4110   27.7170   50.0880 S   0  0  0  0  0  0  0  0  0  0  0  0
   49.7860   30.1550   52.2060 H   0  0  0  0  0  0  0  0  0  0  0  0
   51.4120   28.6590   53.5020 H   0  0  0  0  0  0  0  0  0  0  0  0
   48.1870   31.6930   48.6300 C   0  0  0  0  0  0  0  0  0  0  0  0
   47.7920   30.9780   47.5020 C   0  0  0  0  0  0  0  0  0  0  0  0
   48.2390   29.6520   47.3800 C   0  0  0  0  0  0  0  0  0  0  0  0
   49.0350   29.1360   48.3710 N   0  0  0  0  0  0  0  0  0  0  0  0
   49.3850   29.8720   49.4360 C   0  0  0  0  0  0  0  0  0  0  0  0
   48.9600   31.1450   49.5600 N   0  0  0  0  0  0  0  0  0  0  0  0
   47.8620   32.7190   48.7590 H   0  0  0  0  0  0  0  0  0  0  0  0
   47.1690   31.3910   46.7340 H   0  0  0  0  0  0  0  0  0  0  0  0
   47.9860   29.0150   46.5390 H   0  0  0  0  0  0  0  0  0  0  0  0
   54.5430   28.4320   52.6240 C   0  0  0  0  0  0  0  0  0  0  0  0
   55.3360   28.6160   53.5570 O   0  0  0  0  0  0  0  0  0  0  0  0
   54.1770   30.6560   51.6620 C   0  0  0  0  0  0  0  0  0  0  0  0
   54.2730   29.8050   52.7440 C   0  0  0  0  0  0  0  0  0  0  0  0
   54.0100   30.4210   53.9340 C   0  0  0  0  0  0  0  0  0  0  0  0
   53.9800   29.9120   54.8730 H   0  0  0  0  0  0  0  0  0  0  0  0
   53.6820   31.7200   54.1740 C   0  0  0  0  0  0  0  0  0  0  0  0
   53.4770   32.2000   55.1090 H   0  0  0  0  0  0  0  0  0  0  0  0
   53.6030   32.5220   53.0750 C   0  0  0  0  0  3  0  0  0  0  0  0
   53.8410   32.0220   51.8310 C   0  0  0  0  0  3  0  0  0  0  0  0
   55.5600   30.3170   49.7160 N   0  0  0  0  0  0  0  0  0  0  0  0
   54.3590   30.3950   50.2400 C   0  0  0  0  0  0  0  0  0  0  0  0
   53.8040   30.1760   48.9880 N   0  0  0  0  0  0  0  0  0  0  0  0
   56.3600   30.4350   50.3660 H   0  0  0  0  0  0  0  0  0  0  0  0
   53.5740   29.2510   48.5170 H   0  0  0  0  0  0  0  0  0  0  0  0
   53.5060   30.8800   48.2750 H   0  0  0  0  0  0  0  0  0  0  0  0
  1  7  1  1  0  0  0
  2  9  1  0  0  0  0
  2  1  1  0  0  0  0
  3  2  1  0  0  0  0
  3  4  1  0  0  0  0
  4  5  1  0  0  0  0
  4 12  1  0  0  0  0
  5 14  1  0  0  0  0
  6 16  1  6  0  0  0
  6  1  1  0  0  0  0
  6 33  1  0  0  0  0
  6  5  1  0  0  0  0
  8  2  1  0  0  0  0
 10  3  1  0  0  0  0
 11  3  1  0  0  0  0
 13  4  1  0  0  0  0
 15  5  1  0  0  0  0
 17 18  2  0  0  0  0
 18 22  1  0  0  0  0
 18 19  1  0  0  0  0
 19 23  1  0  0  0  0
 20  1  1  0  0  0  0
 20 19  2  0  0  0  0
 21 17  1  0  0  0  0
 21 20  1  0  0  0  0
 24 30  1  0  0  0  0
 24 29  1  0  0  0  0
 25 24  2  0  0  0  0
 26 25  1  0  0  0  0
 26 27  2  0  0  0  0
 27 28  1  0  0  0  0
 28 29  2  0  0  0  0
 28 17  1  0  0  0  0
 31 25  1  0  0  0  0
 32 26  1  0  0  0  0
 33 36  1  0  0  0  0
 33 34  2  0  0  0  0
 35 42  2  0  0  0  0
 35 36  1  0  0  0  0
 36 37  2  0  0  0  0
 37 39  1  0  0  0  0
 37 38  1  0  0  0  0
 39 40  1  0  0  0  0
 41 39  2  0  0  0  0
 42 41  1  0  0  0  0
 43 44  2  0  0  0  0
 43 46  1  0  0  0  0
 44 35  1  0  0  0  0
 45 44  1  0  0  0  0
 47 45  1  0  0  0  0
 48 45  1  0  0  0  0
M  END
>  <minimizedAffinity>
-4.3686552

>  <minimizedRMSD>
7.04491711

$$$$
