
 OpenBabel03252507313D

 52 56  0  0  1  0  0  0  0  0999 V2000
   46.9510   32.7890   45.4630 C   0  0  0  0  0  0  0  0  0  0  0  0
   45.8520   33.4640   45.9710 C   0  0  0  0  0  0  0  0  0  0  0  0
   45.1740   34.4070   45.1630 C   0  0  0  0  0  0  0  0  0  0  0  0
   45.6770   34.5940   43.8780 N   0  0  0  0  0  0  0  0  0  0  0  0
   46.7430   33.9120   43.4500 C   0  0  0  0  0  0  0  0  0  0  0  0
   47.3700   33.0250   44.2250 N   0  0  0  0  0  0  0  0  0  0  0  0
   45.3320   33.5060   46.9050 H   0  0  0  0  0  0  0  0  0  0  0  0
   44.3280   35.0060   45.3780 H   0  0  0  0  0  0  0  0  0  0  0  0
   47.2350   34.1710   42.0930 C   0  0  0  0  0  0  0  0  0  0  0  0
   48.1660   35.1560   41.8520 C   0  0  0  0  0  0  0  0  0  0  0  0
   48.6880   35.4720   40.6160 C   0  0  0  0  0  0  0  0  0  0  0  0
   48.2010   34.7070   39.5870 C   0  0  0  0  0  0  0  0  0  0  0  0
   47.2570   33.7010   39.8020 C   0  0  0  0  0  0  0  0  0  0  0  0
   46.7820   33.4420   41.0600 N   0  0  0  0  0  0  0  0  0  0  0  0
   48.5050   35.7220   42.7250 H   0  0  0  0  0  0  0  0  0  0  0  0
   49.4130   36.2440   40.4450 H   0  0  0  0  0  0  0  0  0  0  0  0
   48.5250   34.8480   38.5650 H   0  0  0  0  0  0  0  0  0  0  0  0
   46.7860   32.9370   38.6940 N   0  0  0  0  0  0  0  0  0  0  0  0
   46.0450   33.2580   37.5950 C   0  0  0  0  0  0  0  0  0  0  0  0
   45.6940   34.2690   37.4380 H   0  0  0  0  0  0  0  0  0  0  0  0
   45.8760   32.1480   36.8440 N   0  0  0  0  0  0  0  0  0  0  0  0
   46.5010   31.1100   37.4460 C   0  0  0  0  0  0  0  0  0  0  0  0
   46.6280   29.7740   37.0930 C   0  0  0  0  0  0  0  0  0  0  0  0
   46.1750   29.3970   36.1770 H   0  0  0  0  0  0  0  0  0  0  0  0
   47.3140   28.9220   37.8750 N   0  0  0  0  0  0  0  0  0  0  0  0
   47.8630   29.4440   39.0110 C   0  0  0  0  0  0  0  0  0  0  0  0
   48.4450   28.8420   39.7260 H   0  0  0  0  0  0  0  0  0  0  0  0
   47.7640   30.7330   39.3920 N   0  0  0  0  0  0  0  0  0  0  0  0
   47.0790   31.6060   38.6200 C   0  0  0  0  0  0  0  0  0  0  0  0
   47.5950   31.8160   46.3220 C   0  0  2  0  0  0  0  0  0  0  0  0
   47.3560   30.3630   45.8240 C   0  0  0  0  0  0  0  0  0  0  0  0
   48.1670   29.4160   46.6410 C   0  0  0  0  0  0  0  0  0  0  0  0
   48.1490   29.6460   48.1140 C   0  0  0  0  0  0  0  0  0  0  0  0
   48.1470   31.0370   48.5020 C   0  0  0  0  0  0  0  0  0  0  0  0
   47.1500   31.9030   47.6990 C   0  0  2  0  0  0  0  0  0  0  0  0
   48.6940   31.9270   46.2070 H   0  0  0  0  0  0  0  0  0  0  0  0
   46.3040   30.0870   45.8460 H   0  0  0  0  0  0  0  0  0  0  0  0
   47.6880   30.3280   44.7670 H   0  0  0  0  0  0  0  0  0  0  0  0
   49.1610   29.3690   46.1570 H   0  0  0  0  0  0  0  0  0  0  0  0
   47.7400   28.3840   46.4750 H   0  0  0  0  0  0  0  0  0  0  0  0
   47.7730   28.8510   48.7570 H   0  0  0  0  0  0  0  0  0  0  0  0
   49.2610   29.3930   48.3480 H   0  0  0  0  0  0  0  0  0  0  0  0
   49.1030   31.6120   48.4390 H   0  0  0  0  0  0  0  0  0  0  0  0
   47.8330   31.1700   49.5730 H   0  0  0  0  0  0  0  0  0  0  0  0
   47.2670   32.8660   48.1960 H   0  0  0  0  0  0  0  0  0  0  0  0
   45.8140   31.3200   47.8300 N   0  0  0  0  0  0  0  0  0  0  0  0
   45.1510   30.7390   48.9250 C   0  0  0  0  0  0  0  0  0  0  0  0
   44.6350   31.4300   49.8770 O   0  0  0  0  0  0  0  0  0  0  0  0
   45.0880   29.3130   48.8960 N   0  0  0  0  0  0  0  0  0  0  0  0
   45.1510   31.2100   46.9740 H   0  0  0  0  0  0  0  0  0  0  0  0
   44.7560   28.6810   48.1450 H   0  0  0  0  0  0  0  0  0  0  0  0
   45.4100   28.7500   49.7210 H   0  0  0  0  0  0  0  0  0  0  0  0
  1  2  1  0  0  0  0
  1 30  1  0  0  0  0
  2  7  1  0  0  0  0
  3  8  1  0  0  0  0
  3  2  2  0  0  0  0
  4  3  1  0  0  0  0
  5  4  2  0  0  0  0
  5  6  1  0  0  0  0
  6  1  2  0  0  0  0
  9  5  1  0  0  0  0
 10  9  1  0  0  0  0
 10 15  1  0  0  0  0
 11 10  2  0  0  0  0
 12 13  2  0  0  0  0
 12 11  1  0  0  0  0
 13 14  1  0  0  0  0
 14  9  2  0  0  0  0
 16 11  1  0  0  0  0
 17 12  1  0  0  0  0
 18 13  1  0  0  0  0
 19 18  1  0  0  0  0
 20 19  1  0  0  0  0
 21 22  1  0  0  0  0
 21 19  2  0  0  0  0
 22 29  1  0  0  0  0
 23 22  2  0  0  0  0
 23 25  1  0  0  0  0
 24 23  1  0  0  0  0
 25 26  2  0  0  0  0
 26 28  1  0  0  0  0
 26 27  1  0  0  0  0
 29 18  1  0  0  0  0
 29 28  2  0  0  0  0
 30 36  1  6  0  0  0
 30 35  1  0  0  0  0
 31 37  1  0  0  0  0
 31 30  1  0  0  0  0
 31 32  1  0  0  0  0
 32 33  1  0  0  0  0
 33 42  1  0  0  0  0
 33 34  1  0  0  0  0
 33 41  1  0  0  0  0
 34 44  1  0  0  0  0
 35 46  1  0  0  0  0
 35 45  1  1  0  0  0
 35 34  1  0  0  0  0
 38 31  1  0  0  0  0
 39 32  1  0  0  0  0
 40 32  1  0  0  0  0
 43 34  1  0  0  0  0
 46 47  1  0  0  0  0
 47 48  2  0  0  0  0
 49 47  1  0  0  0  0
 49 52  1  0  0  0  0
 50 46  1  0  0  0  0
 51 49  1  0  0  0  0
M  END
>  <minimizedAffinity>
-6.64915323

>  <minimizedRMSD>
0.198974296

$$$$
