
 OpenBabel03242516423D

 35 37  0  0  0  0  0  0  0  0999 V2000
   36.5940   29.4650   39.0170 O   0  0  0  0  0  0  0  0  0  0  0  0
   36.7390   30.7540   38.5500 C   0  0  0  0  0  0  0  0  0  0  0  0
   35.8450   31.0170   37.9140 H   0  0  0  0  0  0  0  0  0  0  0  0
   36.7200   31.4710   39.4220 H   0  0  0  0  0  0  0  0  0  0  0  0
   37.9960   30.9040   37.7570 C   0  0  0  0  0  0  0  0  0  0  0  0
   37.7740   31.1630   36.6980 H   0  0  0  0  0  0  0  0  0  0  0  0
   38.5480   29.9380   37.8040 H   0  0  0  0  0  0  0  0  0  0  0  0
   39.1970   33.5250   40.1870 C   0  0  0  0  0  0  0  0  0  0  0  0
   38.3780   32.5370   39.5560 C   0  0  0  0  0  0  0  0  0  0  0  0
   38.8530   31.9250   38.4010 C   0  0  0  0  0  0  0  0  0  0  0  0
   40.0510   32.2890   37.9360 N   0  0  0  0  0  0  0  0  0  0  0  0
   40.8120   33.2250   38.5440 C   0  0  0  0  0  0  0  0  0  0  0  0
   40.4000   33.8430   39.6590 N   0  0  0  0  0  0  0  0  0  0  0  0
   38.7470   34.1610   41.3550 N   0  0  0  0  0  0  0  0  0  0  0  0
   37.4300   32.3270   40.0260 H   0  0  0  0  0  0  0  0  0  0  0  0
   41.7740   33.4700   38.1100 H   0  0  0  0  0  0  0  0  0  0  0  0
   39.0940   35.1270   41.5510 H   0  0  0  0  0  0  0  0  0  0  0  0
   38.0890   33.7620   42.0610 H   0  0  0  0  0  0  0  0  0  0  0  0
   34.1310   29.1450   39.8400 O   0  0  0  0  0  0  0  0  0  0  0  0
   35.5290   29.3700   40.3300 P   0  0  2  0  0  0  0  0  0  0  0  0
   35.6860   30.8220   41.1860 O   0  0  0  0  0  0  0  0  0  0  0  0
   36.3730   30.7620   41.9110 H   0  0  0  0  0  0  0  0  0  0  0  0
   36.0400   28.1500   41.3910 O   0  0  0  0  0  0  0  0  0  0  0  0
   38.1920   30.0070   41.5700 H   0  0  0  0  0  0  0  0  0  0  0  0
   38.3510   29.0470   41.9360 N   0  0  0  0  0  0  0  0  0  0  0  0
   37.3470   28.1580   41.8590 C   0  0  0  0  0  0  0  0  0  0  0  0
   37.7570   26.9730   42.3860 N   0  0  0  0  0  0  0  0  0  0  0  0
   39.0390   27.0960   42.8080 C   0  0  0  0  0  0  0  0  0  0  0  0
   40.0240   26.3400   43.4060 C   0  0  0  0  0  0  0  0  0  0  0  0
   39.7500   25.3130   43.6360 H   0  0  0  0  0  0  0  0  0  0  0  0
   41.2270   26.8570   43.6730 N   0  0  0  0  0  0  0  0  0  0  0  0
   41.5510   28.1300   43.3810 C   0  0  0  0  0  0  0  0  0  0  0  0
   42.5260   28.5370   43.6030 H   0  0  0  0  0  0  0  0  0  0  0  0
   40.5970   28.8960   42.7930 N   0  0  0  0  0  0  0  0  0  0  0  0
   39.3770   28.4050   42.5110 C   0  0  0  0  0  0  0  0  0  0  0  0
  1 20  1  0  0  0  0
  2  1  1  0  0  0  0
  2  4  1  0  0  0  0
  3  2  1  0  0  0  0
  5  7  1  0  0  0  0
  5 10  1  0  0  0  0
  5  2  1  0  0  0  0
  6  5  1  0  0  0  0
  8 14  1  0  0  0  0
  9 15  1  0  0  0  0
  9  8  2  0  0  0  0
 10  9  1  0  0  0  0
 11 10  2  0  0  0  0
 11 12  1  0  0  0  0
 12 13  2  0  0  0  0
 13  8  1  0  0  0  0
 14 17  1  0  0  0  0
 14 18  1  0  0  0  0
 16 12  1  0  0  0  0
 20 19  2  6  0  0  0
 20 21  1  0  0  0  0
 20 23  1  0  0  0  0
 21 22  1  0  0  0  0
 23 26  1  0  0  0  0
 24 25  1  0  0  0  0
 25 35  1  0  0  0  0
 26 25  1  0  0  0  0
 26 27  2  0  0  0  0
 27 28  1  0  0  0  0
 28 29  1  0  0  0  0
 29 30  1  0  0  0  0
 29 31  2  0  0  0  0
 32 33  1  0  0  0  0
 32 31  1  0  0  0  0
 34 32  2  0  0  0  0
 35 34  1  0  0  0  0
 35 28  2  0  0  0  0
M  END
>  <minimizedAffinity>
-5.5278945

$$$$

 OpenBabel03242516423D

 35 37  0  0  0  0  0  0  0  0999 V2000
   37.1480   29.4930   39.5450 O   0  0  0  0  0  0  0  0  0  0  0  0
   37.9860   30.5800   39.6800 C   0  0  0  0  0  0  0  0  0  0  0  0
   37.4620   31.3750   40.2840 H   0  0  0  0  0  0  0  0  0  0  0  0
   38.8920   30.2790   40.2820 H   0  0  0  0  0  0  0  0  0  0  0  0
   38.3830   31.1240   38.3460 C   0  0  0  0  0  0  0  0  0  0  0  0
   37.4970   31.4960   37.7850 H   0  0  0  0  0  0  0  0  0  0  0  0
   38.8790   30.3070   37.7760 H   0  0  0  0  0  0  0  0  0  0  0  0
   41.3880   33.3310   37.7810 C   0  0  0  0  0  0  0  0  0  0  0  0
   40.4080   32.3050   37.6020 C   0  0  0  0  0  0  0  0  0  0  0  0
   39.3910   32.1910   38.5430 C   0  0  0  0  0  0  0  0  0  0  0  0
   39.3770   33.0450   39.5690 N   0  0  0  0  0  0  0  0  0  0  0  0
   40.3100   34.0090   39.7240 C   0  0  0  0  0  0  0  0  0  0  0  0
   41.3100   34.1610   38.8450 N   0  0  0  0  0  0  0  0  0  0  0  0
   42.4270   33.4730   36.8480 N   0  0  0  0  0  0  0  0  0  0  0  0
   40.5240   31.6760   36.7320 H   0  0  0  0  0  0  0  0  0  0  0  0
   40.2350   34.6670   40.5820 H   0  0  0  0  0  0  0  0  0  0  0  0
   43.3300   33.8800   37.1810 H   0  0  0  0  0  0  0  0  0  0  0  0
   42.3920   33.2080   35.8380 H   0  0  0  0  0  0  0  0  0  0  0  0
   34.5820   29.1600   39.9340 O   0  0  0  0  0  0  0  0  0  0  0  0
   35.8520   29.5410   40.6330 P   0  0  2  0  0  0  0  0  0  0  0  0
   35.7980   31.1160   41.2520 O   0  0  0  0  0  0  0  0  0  0  0  0
   36.3320   31.2100   42.0930 H   0  0  0  0  0  0  0  0  0  0  0  0
   36.1820   28.5340   41.9570 O   0  0  0  0  0  0  0  0  0  0  0  0
   37.4630   26.7320   40.1620 H   0  0  0  0  0  0  0  0  0  0  0  0
   37.9140   26.8970   41.0840 N   0  0  0  0  0  0  0  0  0  0  0  0
   37.3230   27.7430   41.9440 C   0  0  0  0  0  0  0  0  0  0  0  0
   38.0650   27.8180   43.0810 N   0  0  0  0  0  0  0  0  0  0  0  0
   39.1460   27.0120   42.9570 C   0  0  0  0  0  0  0  0  0  0  0  0
   40.2540   26.6230   43.6790 C   0  0  0  0  0  0  0  0  0  0  0  0
   40.3470   27.0670   44.6690 H   0  0  0  0  0  0  0  0  0  0  0  0
   41.1400   25.7570   43.1780 N   0  0  0  0  0  0  0  0  0  0  0  0
   41.0110   25.2160   41.9520 C   0  0  0  0  0  0  0  0  0  0  0  0
   41.7340   24.5180   41.5560 H   0  0  0  0  0  0  0  0  0  0  0  0
   39.9290   25.5840   41.2200 N   0  0  0  0  0  0  0  0  0  0  0  0
   39.0190   26.4530   41.6970 C   0  0  0  0  0  0  0  0  0  0  0  0
  1  2  1  0  0  0  0
  1 20  1  0  0  0  0
  2  4  1  0  0  0  0
  2  3  1  0  0  0  0
  5 10  1  0  0  0  0
  5  2  1  0  0  0  0
  6  5  1  0  0  0  0
  7  5  1  0  0  0  0
  8 13  1  0  0  0  0
  9  8  2  0  0  0  0
  9 10  1  0  0  0  0
 10 11  2  0  0  0  0
 11 12  1  0  0  0  0
 12 16  1  0  0  0  0
 13 12  2  0  0  0  0
 14 17  1  0  0  0  0
 14  8  1  0  0  0  0
 15  9  1  0  0  0  0
 18 14  1  0  0  0  0
 20 19  2  6  0  0  0
 20 21  1  0  0  0  0
 20 23  1  0  0  0  0
 21 22  1  0  0  0  0
 24 25  1  0  0  0  0
 25 35  1  0  0  0  0
 25 26  1  0  0  0  0
 26 23  1  0  0  0  0
 26 27  2  0  0  0  0
 28 27  1  0  0  0  0
 28 29  1  0  0  0  0
 29 30  1  0  0  0  0
 31 29  2  0  0  0  0
 32 31  1  0  0  0  0
 33 32  1  0  0  0  0
 34 35  1  0  0  0  0
 34 32  2  0  0  0  0
 35 28  2  0  0  0  0
M  END
>  <minimizedAffinity>
-5.3904891

$$$$

 OpenBabel03242516423D

 35 37  0  0  0  0  0  0  0  0999 V2000
   37.6100   32.6930   40.0030 O   0  0  0  0  0  0  0  0  0  0  0  0
   38.6860   33.1940   40.7060 C   0  0  0  0  0  0  0  0  0  0  0  0
   38.3100   33.6990   41.6410 H   0  0  0  0  0  0  0  0  0  0  0  0
   39.3340   32.3390   41.0550 H   0  0  0  0  0  0  0  0  0  0  0  0
   39.4690   34.1610   39.8780 C   0  0  0  0  0  0  0  0  0  0  0  0
   39.7500   35.0600   40.4700 H   0  0  0  0  0  0  0  0  0  0  0  0
   38.8380   34.4580   39.0110 H   0  0  0  0  0  0  0  0  0  0  0  0
   42.5870   33.4970   37.8650 C   0  0  0  0  0  0  0  0  0  0  0  0
   41.4340   34.1530   38.3990 C   0  0  0  0  0  0  0  0  0  0  0  0
   40.6610   33.4720   39.3320 C   0  0  0  0  0  0  0  0  0  0  0  0
   41.0310   32.2380   39.6860 N   0  0  0  0  0  0  0  0  0  0  0  0
   42.1230   31.6330   39.1720 C   0  0  0  0  0  0  0  0  0  0  0  0
   42.9020   32.2470   38.2700 N   0  0  0  0  0  0  0  0  0  0  0  0
   43.3900   34.1580   36.9210 N   0  0  0  0  0  0  0  0  0  0  0  0
   41.2370   35.1500   38.0370 H   0  0  0  0  0  0  0  0  0  0  0  0
   42.3640   30.6300   39.5050 H   0  0  0  0  0  0  0  0  0  0  0  0
   43.9220   33.5740   36.2380 H   0  0  0  0  0  0  0  0  0  0  0  0
   43.5110   35.1920   36.8290 H   0  0  0  0  0  0  0  0  0  0  0  0
   37.0500   30.2550   39.2370 O   0  0  0  0  0  0  0  0  0  0  0  0
   37.2260   31.1080   40.4560 P   0  0  2  0  0  0  0  0  0  0  0  0
   35.8160   31.2000   41.3880 O   0  0  0  0  0  0  0  0  0  0  0  0
   36.0120   31.2880   42.3650 H   0  0  0  0  0  0  0  0  0  0  0  0
   38.4260   30.5050   41.4910 O   0  0  0  0  0  0  0  0  0  0  0  0
   37.3930   28.1260   40.3140 H   0  0  0  0  0  0  0  0  0  0  0  0
   38.0180   28.0250   41.1390 N   0  0  0  0  0  0  0  0  0  0  0  0
   38.5140   29.1360   41.7070 C   0  0  0  0  0  0  0  0  0  0  0  0
   39.2990   28.7880   42.7620 N   0  0  0  0  0  0  0  0  0  0  0  0
   39.3110   27.4380   42.8780 C   0  0  0  0  0  0  0  0  0  0  0  0
   39.8640   26.4590   43.6740 C   0  0  0  0  0  0  0  0  0  0  0  0
   40.5000   26.8160   44.4810 H   0  0  0  0  0  0  0  0  0  0  0  0
   39.6200   25.1640   43.4500 N   0  0  0  0  0  0  0  0  0  0  0  0
   38.8300   24.7380   42.4470 C   0  0  0  0  0  0  0  0  0  0  0  0
   38.6400   23.6890   42.2740 H   0  0  0  0  0  0  0  0  0  0  0  0
   38.2740   25.6840   41.6480 N   0  0  0  0  0  0  0  0  0  0  0  0
   38.5010   26.9950   41.8480 C   0  0  0  0  0  0  0  0  0  0  0  0
  1 20  1  0  0  0  0
  1  2  1  0  0  0  0
  2  4  1  0  0  0  0
  2  3  1  0  0  0  0
  5  6  1  0  0  0  0
  5  2  1  0  0  0  0
  7  5  1  0  0  0  0
  8 13  2  0  0  0  0
  8  9  1  0  0  0  0
  9 10  2  0  0  0  0
 10 11  1  0  0  0  0
 10  5  1  0  0  0  0
 12 16  1  0  0  0  0
 12 11  2  0  0  0  0
 13 12  1  0  0  0  0
 14  8  1  0  0  0  0
 15  9  1  0  0  0  0
 17 14  1  0  0  0  0
 18 14  1  0  0  0  0
 20 19  2  6  0  0  0
 20 21  1  0  0  0  0
 20 23  1  0  0  0  0
 21 22  1  0  0  0  0
 23 26  1  0  0  0  0
 24 25  1  0  0  0  0
 25 26  1  0  0  0  0
 25 35  1  0  0  0  0
 26 27  2  0  0  0  0
 27 28  1  0  0  0  0
 28 29  1  0  0  0  0
 29 30  1  0  0  0  0
 31 29  2  0  0  0  0
 32 31  1  0  0  0  0
 33 32  1  0  0  0  0
 34 35  1  0  0  0  0
 34 32  2  0  0  0  0
 35 28  2  0  0  0  0
M  END
>  <minimizedAffinity>
-5.35729122

$$$$

 OpenBabel03242516423D

 35 37  0  0  0  0  0  0  0  0999 V2000
   37.1760   30.7100   37.5960 O   0  0  0  0  0  0  0  0  0  0  0  0
   36.5560   30.1900   38.7130 C   0  0  0  0  0  0  0  0  0  0  0  0
   37.1690   30.4450   39.6250 H   0  0  0  0  0  0  0  0  0  0  0  0
   35.5590   30.6970   38.8570 H   0  0  0  0  0  0  0  0  0  0  0  0
   36.3950   28.7090   38.5990 C   0  0  0  0  0  0  0  0  0  0  0  0
   37.0570   28.2920   37.8090 H   0  0  0  0  0  0  0  0  0  0  0  0
   35.3300   28.4980   38.3530 H   0  0  0  0  0  0  0  0  0  0  0  0
   36.9930   28.3480   42.3050 C   0  0  0  0  0  0  0  0  0  0  0  0
   36.7320   28.9310   41.0250 C   0  0  0  0  0  0  0  0  0  0  0  0
   36.6660   28.0930   39.9190 C   0  0  0  0  0  0  0  0  0  0  0  0
   36.8480   26.7830   40.1020 N   0  0  0  0  0  0  0  0  0  0  0  0
   37.0940   26.2470   41.3170 C   0  0  0  0  0  0  0  0  0  0  0  0
   37.1670   27.0120   42.4150 N   0  0  0  0  0  0  0  0  0  0  0  0
   37.0650   29.1670   43.4430 N   0  0  0  0  0  0  0  0  0  0  0  0
   36.6010   30.0020   41.0030 H   0  0  0  0  0  0  0  0  0  0  0  0
   37.2330   25.1750   41.3910 H   0  0  0  0  0  0  0  0  0  0  0  0
   37.6590   28.8460   44.2400 H   0  0  0  0  0  0  0  0  0  0  0  0
   36.5790   30.0820   43.5780 H   0  0  0  0  0  0  0  0  0  0  0  0
   38.3770   32.4780   39.1050 O   0  0  0  0  0  0  0  0  0  0  0  0
   38.6120   31.5210   37.9750 P   0  0  2  0  0  0  0  0  0  0  0  0
   39.1140   32.3050   36.5610 O   0  0  0  0  0  0  0  0  0  0  0  0
   39.7340   31.7400   36.0160 H   0  0  0  0  0  0  0  0  0  0  0  0
   39.8260   30.3920   38.3340 O   0  0  0  0  0  0  0  0  0  0  0  0
   40.8910   29.0070   36.0860 H   0  0  0  0  0  0  0  0  0  0  0  0
   41.4860   29.7330   36.5320 N   0  0  0  0  0  0  0  0  0  0  0  0
   41.0000   30.3960   37.5930 C   0  0  0  0  0  0  0  0  0  0  0  0
   41.9260   31.2940   38.0240 N   0  0  0  0  0  0  0  0  0  0  0  0
   43.0240   31.2100   37.2340 C   0  0  0  0  0  0  0  0  0  0  0  0
   44.2670   31.7890   37.1000 C   0  0  0  0  0  0  0  0  0  0  0  0
   44.5040   32.5630   37.8280 H   0  0  0  0  0  0  0  0  0  0  0  0
   45.1090   31.4090   36.1340 N   0  0  0  0  0  0  0  0  0  0  0  0
   44.8020   30.4500   35.2410 C   0  0  0  0  0  0  0  0  0  0  0  0
   45.4890   30.1510   34.4640 H   0  0  0  0  0  0  0  0  0  0  0  0
   43.5820   29.8650   35.3510 N   0  0  0  0  0  0  0  0  0  0  0  0
   42.7130   30.2260   36.3120 C   0  0  0  0  0  0  0  0  0  0  0  0
  1 20  1  0  0  0  0
  1  2  1  0  0  0  0
  2  4  1  0  0  0  0
  2  3  1  0  0  0  0
  5  2  1  0  0  0  0
  5 10  1  0  0  0  0
  6  5  1  0  0  0  0
  7  5  1  0  0  0  0
  8 13  1  0  0  0  0
  8 14  1  0  0  0  0
  9  8  2  0  0  0  0
 10 11  2  0  0  0  0
 10  9  1  0  0  0  0
 11 12  1  0  0  0  0
 12 16  1  0  0  0  0
 12 13  2  0  0  0  0
 14 18  1  0  0  0  0
 14 17  1  0  0  0  0
 15  9  1  0  0  0  0
 20 23  1  0  0  0  0
 20 19  2  1  0  0  0
 21 20  1  0  0  0  0
 22 21  1  0  0  0  0
 24 25  1  0  0  0  0
 25 26  1  0  0  0  0
 26 27  2  0  0  0  0
 26 23  1  0  0  0  0
 28 27  1  0  0  0  0
 29 28  1  0  0  0  0
 29 30  1  0  0  0  0
 31 29  2  0  0  0  0
 32 34  2  0  0  0  0
 32 31  1  0  0  0  0
 33 32  1  0  0  0  0
 34 35  1  0  0  0  0
 35 25  1  0  0  0  0
 35 28  2  0  0  0  0
M  END
>  <minimizedAffinity>
-5.33482933

$$$$

 OpenBabel03242516423D

 35 37  0  0  0  0  0  0  0  0999 V2000
   36.2300   27.3720   36.4380 O   0  0  0  0  0  0  0  0  0  0  0  0
   35.5890   27.5880   37.6400 C   0  0  0  0  0  0  0  0  0  0  0  0
   35.7310   28.6660   37.9430 H   0  0  0  0  0  0  0  0  0  0  0  0
   34.4780   27.4490   37.5010 H   0  0  0  0  0  0  0  0  0  0  0  0
   36.1170   26.6820   38.7040 C   0  0  0  0  0  0  0  0  0  0  0  0
   37.0000   26.1090   38.3420 H   0  0  0  0  0  0  0  0  0  0  0  0
   35.3020   25.9820   38.9930 H   0  0  0  0  0  0  0  0  0  0  0  0
   36.2190   29.5540   41.1450 C   0  0  0  0  0  0  0  0  0  0  0  0
   35.9100   28.7670   39.9920 C   0  0  0  0  0  0  0  0  0  0  0  0
   36.4440   27.4870   39.9030 C   0  0  0  0  0  0  0  0  0  0  0  0
   37.2200   27.0520   40.9000 N   0  0  0  0  0  0  0  0  0  0  0  0
   37.5020   27.8080   41.9830 C   0  0  0  0  0  0  0  0  0  0  0  0
   37.0120   29.0480   42.1160 N   0  0  0  0  0  0  0  0  0  0  0  0
   35.6950   30.8510   41.2650 N   0  0  0  0  0  0  0  0  0  0  0  0
   35.2710   29.2270   39.2530 H   0  0  0  0  0  0  0  0  0  0  0  0
   38.1400   27.3900   42.7530 H   0  0  0  0  0  0  0  0  0  0  0  0
   36.2350   31.5460   41.8270 H   0  0  0  0  0  0  0  0  0  0  0  0
   34.8050   31.1990   40.8430 H   0  0  0  0  0  0  0  0  0  0  0  0
   36.7550   28.9670   34.4320 O   0  0  0  0  0  0  0  0  0  0  0  0
   37.0450   28.7490   35.8860 P   0  0  2  0  0  0  0  0  0  0  0  0
   38.6910   28.4880   36.1830 O   0  0  0  0  0  0  0  0  0  0  0  0
   38.9750   28.8420   37.0740 H   0  0  0  0  0  0  0  0  0  0  0  0
   36.6100   30.0870   36.8330 O   0  0  0  0  0  0  0  0  0  0  0  0
   39.3580   30.6460   36.3370 H   0  0  0  0  0  0  0  0  0  0  0  0
   38.9010   31.1390   37.1300 N   0  0  0  0  0  0  0  0  0  0  0  0
   37.6050   30.8870   37.3790 C   0  0  0  0  0  0  0  0  0  0  0  0
   37.2020   31.6250   38.4470 N   0  0  0  0  0  0  0  0  0  0  0  0
   38.2470   32.3620   38.8950 C   0  0  0  0  0  0  0  0  0  0  0  0
   38.5380   33.2780   39.8830 C   0  0  0  0  0  0  0  0  0  0  0  0
   37.7120   33.5310   40.5440 H   0  0  0  0  0  0  0  0  0  0  0  0
   39.7610   33.8050   40.0000 N   0  0  0  0  0  0  0  0  0  0  0  0
   40.7730   33.4820   39.1740 C   0  0  0  0  0  0  0  0  0  0  0  0
   41.7560   33.9150   39.2780 H   0  0  0  0  0  0  0  0  0  0  0  0
   40.5110   32.5820   38.1920 N   0  0  0  0  0  0  0  0  0  0  0  0
   39.2910   32.0330   38.0480 C   0  0  0  0  0  0  0  0  0  0  0  0
  1  2  1  0  0  0  0
  2  3  1  0  0  0  0
  2  5  1  0  0  0  0
  4  2  1  0  0  0  0
  5  7  1  0  0  0  0
  5 10  1  0  0  0  0
  6  5  1  0  0  0  0
  8 14  1  0  0  0  0
  8 13  1  0  0  0  0
  9  8  2  0  0  0  0
 10  9  1  0  0  0  0
 10 11  2  0  0  0  0
 11 12  1  0  0  0  0
 12 13  2  0  0  0  0
 12 16  1  0  0  0  0
 14 17  1  0  0  0  0
 15  9  1  0  0  0  0
 18 14  1  0  0  0  0
 20 19  2  6  0  0  0
 20 21  1  0  0  0  0
 20  1  1  0  0  0  0
 20 23  1  0  0  0  0
 21 22  1  0  0  0  0
 23 26  1  0  0  0  0
 24 25  1  0  0  0  0
 25 26  1  0  0  0  0
 25 35  1  0  0  0  0
 26 27  2  0  0  0  0
 27 28  1  0  0  0  0
 28 29  1  0  0  0  0
 29 31  2  0  0  0  0
 29 30  1  0  0  0  0
 32 33  1  0  0  0  0
 32 31  1  0  0  0  0
 34 32  2  0  0  0  0
 35 34  1  0  0  0  0
 35 28  2  0  0  0  0
M  END
>  <minimizedAffinity>
-5.20785093

$$$$

 OpenBabel03242516423D

 35 37  0  0  0  0  0  0  0  0999 V2000
   37.3300   30.4440   41.5230 O   0  0  0  0  0  0  0  0  0  0  0  0
   38.2730   29.7080   42.2090 C   0  0  0  0  0  0  0  0  0  0  0  0
   38.8410   29.0650   41.4760 H   0  0  0  0  0  0  0  0  0  0  0  0
   39.0340   30.4060   42.6630 H   0  0  0  0  0  0  0  0  0  0  0  0
   37.6340   28.8530   43.2550 C   0  0  0  0  0  0  0  0  0  0  0  0
   36.5260   28.9440   43.2260 H   0  0  0  0  0  0  0  0  0  0  0  0
   38.0180   29.1810   44.2470 H   0  0  0  0  0  0  0  0  0  0  0  0
   37.6210   25.2300   42.2070 C   0  0  0  0  0  0  0  0  0  0  0  0
   37.2090   26.5870   42.3980 C   0  0  0  0  0  0  0  0  0  0  0  0
   38.0720   27.4510   43.0630 C   0  0  0  0  0  0  0  0  0  0  0  0
   39.2430   26.9740   43.4920 N   0  0  0  0  0  0  0  0  0  0  0  0
   39.6170   25.6900   43.3030 C   0  0  0  0  0  0  0  0  0  0  0  0
   38.8230   24.8180   42.6690 N   0  0  0  0  0  0  0  0  0  0  0  0
   36.7730   24.3320   41.5390 N   0  0  0  0  0  0  0  0  0  0  0  0
   36.2400   26.8550   42.0060 H   0  0  0  0  0  0  0  0  0  0  0  0
   40.5830   25.3730   43.6790 H   0  0  0  0  0  0  0  0  0  0  0  0
   36.8510   23.3180   41.7770 H   0  0  0  0  0  0  0  0  0  0  0  0
   36.0600   24.5770   40.8160 H   0  0  0  0  0  0  0  0  0  0  0  0
   39.2600   32.1950   41.2860 O   0  0  0  0  0  0  0  0  0  0  0  0
   38.0250   31.6860   40.6070 P   0  0  2  0  0  0  0  0  0  0  0  0
   36.8410   32.8850   40.4410 O   0  0  0  0  0  0  0  0  0  0  0  0
   36.2920   32.7640   39.6130 H   0  0  0  0  0  0  0  0  0  0  0  0
   38.3410   31.1290   39.0370 O   0  0  0  0  0  0  0  0  0  0  0  0
   35.8190   29.9320   39.6000 H   0  0  0  0  0  0  0  0  0  0  0  0
   36.1500   29.9170   38.6150 N   0  0  0  0  0  0  0  0  0  0  0  0
   37.3380   30.4770   38.3310 C   0  0  0  0  0  0  0  0  0  0  0  0
   37.5850   30.3530   37.0000 N   0  0  0  0  0  0  0  0  0  0  0  0
   36.5480   29.7070   36.4150 C   0  0  0  0  0  0  0  0  0  0  0  0
   36.1520   29.2670   35.1700 C   0  0  0  0  0  0  0  0  0  0  0  0
   36.8480   29.4730   34.3590 H   0  0  0  0  0  0  0  0  0  0  0  0
   34.9890   28.6330   34.9970 N   0  0  0  0  0  0  0  0  0  0  0  0
   34.1390   28.3860   36.0110 C   0  0  0  0  0  0  0  0  0  0  0  0
   33.2010   27.8730   35.8590 H   0  0  0  0  0  0  0  0  0  0  0  0
   34.5060   28.8100   37.2470 N   0  0  0  0  0  0  0  0  0  0  0  0
   35.6700   29.4500   37.4540 C   0  0  0  0  0  0  0  0  0  0  0  0
  1  2  1  0  0  0  0
  2  4  1  0  0  0  0
  2  5  1  0  0  0  0
  3  2  1  0  0  0  0
  5  7  1  0  0  0  0
  6  5  1  0  0  0  0
  8  9  2  0  0  0  0
  8 13  1  0  0  0  0
  9 10  1  0  0  0  0
 10  5  1  0  0  0  0
 10 11  2  0  0  0  0
 12 11  1  0  0  0  0
 12 16  1  0  0  0  0
 13 12  2  0  0  0  0
 14 17  1  0  0  0  0
 14  8  1  0  0  0  0
 15  9  1  0  0  0  0
 18 14  1  0  0  0  0
 20 19  2  1  0  0  0
 20  1  1  0  0  0  0
 21 20  1  0  0  0  0
 22 21  1  0  0  0  0
 23 20  1  0  0  0  0
 25 24  1  0  0  0  0
 26 25  1  0  0  0  0
 26 23  1  0  0  0  0
 27 26  2  0  0  0  0
 28 27  1  0  0  0  0
 28 35  1  0  0  0  0
 29 28  2  0  0  0  0
 30 29  1  0  0  0  0
 31 29  1  0  0  0  0
 31 32  2  0  0  0  0
 32 34  1  0  0  0  0
 33 32  1  0  0  0  0
 34 35  2  0  0  0  0
 35 25  1  0  0  0  0
M  END
>  <minimizedAffinity>
-5.16718483

$$$$

 OpenBabel03242516423D

 35 37  0  0  0  0  0  0  0  0999 V2000
   39.8490   24.2660   42.3400 O   0  0  0  0  0  0  0  0  0  0  0  0
   39.6880   24.9600   43.5210 C   0  0  0  0  0  0  0  0  0  0  0  0
   38.6650   25.4340   43.5320 H   0  0  0  0  0  0  0  0  0  0  0  0
   39.7030   24.2350   44.3850 H   0  0  0  0  0  0  0  0  0  0  0  0
   40.7420   26.0080   43.6790 C   0  0  0  0  0  0  0  0  0  0  0  0
   41.6230   25.7920   43.0350 H   0  0  0  0  0  0  0  0  0  0  0  0
   41.0480   26.0280   44.7490 H   0  0  0  0  0  0  0  0  0  0  0  0
   38.2330   28.8080   43.3830 C   0  0  0  0  0  0  0  0  0  0  0  0
   38.8120   27.5330   43.6760 C   0  0  0  0  0  0  0  0  0  0  0  0
   40.1530   27.3320   43.3710 C   0  0  0  0  0  0  0  0  0  0  0  0
   40.8370   28.3380   42.8200 N   0  0  0  0  0  0  0  0  0  0  0  0
   40.2750   29.5360   42.5500 C   0  0  0  0  0  0  0  0  0  0  0  0
   38.9870   29.7810   42.8250 N   0  0  0  0  0  0  0  0  0  0  0  0
   36.8800   29.0430   43.6790 N   0  0  0  0  0  0  0  0  0  0  0  0
   38.1580   26.7990   44.1220 H   0  0  0  0  0  0  0  0  0  0  0  0
   40.8910   30.3070   42.1020 H   0  0  0  0  0  0  0  0  0  0  0  0
   36.3690   29.7470   43.1010 H   0  0  0  0  0  0  0  0  0  0  0  0
   36.3220   28.5800   44.4310 H   0  0  0  0  0  0  0  0  0  0  0  0
   37.2380   24.4150   42.3860 O   0  0  0  0  0  0  0  0  0  0  0  0
   38.3960   24.0960   41.4900 P   0  0  2  0  0  0  0  0  0  0  0  0
   38.3510   22.5010   40.9230 O   0  0  0  0  0  0  0  0  0  0  0  0
   38.7410   22.4140   40.0060 H   0  0  0  0  0  0  0  0  0  0  0  0
   38.4250   25.0780   40.1070 O   0  0  0  0  0  0  0  0  0  0  0  0
   35.9950   26.2180   41.0570 H   0  0  0  0  0  0  0  0  0  0  0  0
   36.6820   26.8540   40.6050 N   0  0  0  0  0  0  0  0  0  0  0  0
   37.8340   26.3330   40.1510 C   0  0  0  0  0  0  0  0  0  0  0  0
   38.5860   27.3220   39.5990 N   0  0  0  0  0  0  0  0  0  0  0  0
   37.9150   28.4950   39.6960 C   0  0  0  0  0  0  0  0  0  0  0  0
   38.0710   29.8240   39.3670 C   0  0  0  0  0  0  0  0  0  0  0  0
   39.0060   30.0760   38.8690 H   0  0  0  0  0  0  0  0  0  0  0  0
   37.1240   30.7240   39.6490 N   0  0  0  0  0  0  0  0  0  0  0  0
   35.9730   30.3970   40.2650 C   0  0  0  0  0  0  0  0  0  0  0  0
   35.2150   31.1320   40.4890 H   0  0  0  0  0  0  0  0  0  0  0  0
   35.7960   29.0940   40.6010 N   0  0  0  0  0  0  0  0  0  0  0  0
   36.7300   28.1640   40.3300 C   0  0  0  0  0  0  0  0  0  0  0  0
  1  2  1  0  0  0  0
  2  3  1  0  0  0  0
  2  5  1  0  0  0  0
  2  4  1  0  0  0  0
  5  7  1  0  0  0  0
  6  5  1  0  0  0  0
  8  9  1  0  0  0  0
  8 14  1  0  0  0  0
  9 15  1  0  0  0  0
 10  9  2  0  0  0  0
 10  5  1  0  0  0  0
 11 10  1  0  0  0  0
 12 11  2  0  0  0  0
 12 13  1  0  0  0  0
 13  8  2  0  0  0  0
 14 18  1  0  0  0  0
 16 12  1  0  0  0  0
 17 14  1  0  0  0  0
 20  1  1  0  0  0  0
 20 19  2  1  0  0  0
 21 20  1  0  0  0  0
 22 21  1  0  0  0  0
 23 26  1  0  0  0  0
 23 20  1  0  0  0  0
 25 24  1  0  0  0  0
 26 25  1  0  0  0  0
 27 28  1  0  0  0  0
 27 26  2  0  0  0  0
 28 35  1  0  0  0  0
 29 31  1  0  0  0  0
 29 28  2  0  0  0  0
 30 29  1  0  0  0  0
 31 32  2  0  0  0  0
 32 33  1  0  0  0  0
 32 34  1  0  0  0  0
 35 34  2  0  0  0  0
 35 25  1  0  0  0  0
M  END
>  <minimizedAffinity>
-5.0586524

$$$$

 OpenBabel03242516423D

 35 37  0  0  0  0  0  0  0  0999 V2000
   37.2720   29.9630   41.6390 O   0  0  0  0  0  0  0  0  0  0  0  0
   38.2250   29.5560   42.5480 C   0  0  0  0  0  0  0  0  0  0  0  0
   39.0720   29.0580   41.9940 H   0  0  0  0  0  0  0  0  0  0  0  0
   38.6720   30.4610   43.0510 H   0  0  0  0  0  0  0  0  0  0  0  0
   37.6440   28.6140   43.5530 C   0  0  0  0  0  0  0  0  0  0  0  0
   36.5350   28.6920   43.5830 H   0  0  0  0  0  0  0  0  0  0  0  0
   38.0710   28.8690   44.5480 H   0  0  0  0  0  0  0  0  0  0  0  0
   37.6300   25.0960   42.1950 C   0  0  0  0  0  0  0  0  0  0  0  0
   37.2150   26.4280   42.5100 C   0  0  0  0  0  0  0  0  0  0  0  0
   38.0850   27.2370   43.2320 C   0  0  0  0  0  0  0  0  0  0  0  0
   39.2670   26.7320   43.5960 N   0  0  0  0  0  0  0  0  0  0  0  0
   39.6440   25.4720   43.2900 C   0  0  0  0  0  0  0  0  0  0  0  0
   38.8420   24.6530   42.5960 N   0  0  0  0  0  0  0  0  0  0  0  0
   36.7740   24.2540   41.4670 N   0  0  0  0  0  0  0  0  0  0  0  0
   36.2370   26.7220   42.1610 H   0  0  0  0  0  0  0  0  0  0  0  0
   40.6180   25.1300   43.6180 H   0  0  0  0  0  0  0  0  0  0  0  0
   36.8610   23.2230   41.6140 H   0  0  0  0  0  0  0  0  0  0  0  0
   36.0460   24.5560   40.7810 H   0  0  0  0  0  0  0  0  0  0  0  0
   39.0570   31.8370   41.2570 O   0  0  0  0  0  0  0  0  0  0  0  0
   37.8090   31.2460   40.6740 P   0  0  2  0  0  0  0  0  0  0  0  0
   36.5390   32.3630   40.6030 O   0  0  0  0  0  0  0  0  0  0  0  0
   35.9380   32.2030   39.8200 H   0  0  0  0  0  0  0  0  0  0  0  0
   38.0390   30.7050   39.0830 O   0  0  0  0  0  0  0  0  0  0  0  0
   39.5000   32.5810   37.5160 H   0  0  0  0  0  0  0  0  0  0  0  0
   39.9750   31.6920   37.7700 N   0  0  0  0  0  0  0  0  0  0  0  0
   39.3010   30.7950   38.5090 C   0  0  0  0  0  0  0  0  0  0  0  0
   40.0910   29.7110   38.7300 N   0  0  0  0  0  0  0  0  0  0  0  0
   41.2890   29.9070   38.1280 C   0  0  0  0  0  0  0  0  0  0  0  0
   42.4940   29.2610   37.9530 C   0  0  0  0  0  0  0  0  0  0  0  0
   42.5710   28.2810   38.4200 H   0  0  0  0  0  0  0  0  0  0  0  0
   43.4850   29.8210   37.2530 N   0  0  0  0  0  0  0  0  0  0  0  0
   43.3740   31.0340   36.6810 C   0  0  0  0  0  0  0  0  0  0  0  0
   44.1810   31.4780   36.1180 H   0  0  0  0  0  0  0  0  0  0  0  0
   42.1960   31.6920   36.8400 N   0  0  0  0  0  0  0  0  0  0  0  0
   41.1800   31.1550   37.5390 C   0  0  0  0  0  0  0  0  0  0  0  0
  1  2  1  0  0  0  0
  2  4  1  0  0  0  0
  2  5  1  0  0  0  0
  3  2  1  0  0  0  0
  5  6  1  0  0  0  0
  5  7  1  0  0  0  0
  8  9  2  0  0  0  0
  8 13  1  0  0  0  0
  9 10  1  0  0  0  0
 10  5  1  0  0  0  0
 10 11  2  0  0  0  0
 12 11  1  0  0  0  0
 12 16  1  0  0  0  0
 13 12  2  0  0  0  0
 14 17  1  0  0  0  0
 14  8  1  0  0  0  0
 15  9  1  0  0  0  0
 18 14  1  0  0  0  0
 20 19  2  1  0  0  0
 20  1  1  0  0  0  0
 21 20  1  0  0  0  0
 22 21  1  0  0  0  0
 23 20  1  0  0  0  0
 24 25  1  0  0  0  0
 25 26  1  0  0  0  0
 26 27  2  0  0  0  0
 26 23  1  0  0  0  0
 28 27  1  0  0  0  0
 29 28  1  0  0  0  0
 29 30  1  0  0  0  0
 31 29  2  0  0  0  0
 32 34  2  0  0  0  0
 32 31  1  0  0  0  0
 33 32  1  0  0  0  0
 34 35  1  0  0  0  0
 35 25  1  0  0  0  0
 35 28  2  0  0  0  0
M  END
>  <minimizedAffinity>
-5.04762316

$$$$

 OpenBabel03242516423D

 35 37  0  0  0  0  0  0  0  0999 V2000
   36.0380   28.6220   40.5410 O   0  0  0  0  0  0  0  0  0  0  0  0
   36.9810   27.6580   40.2530 C   0  0  0  0  0  0  0  0  0  0  0  0
   37.8830   28.1540   39.7900 H   0  0  0  0  0  0  0  0  0  0  0  0
   37.3440   27.1920   41.2140 H   0  0  0  0  0  0  0  0  0  0  0  0
   36.4310   26.6240   39.3260 C   0  0  0  0  0  0  0  0  0  0  0  0
   36.7460   26.8170   38.2760 H   0  0  0  0  0  0  0  0  0  0  0  0
   35.3210   26.6530   39.4010 H   0  0  0  0  0  0  0  0  0  0  0  0
   37.9870   23.9180   41.4420 C   0  0  0  0  0  0  0  0  0  0  0  0
   37.5650   25.2060   40.9850 C   0  0  0  0  0  0  0  0  0  0  0  0
   36.8630   25.2850   39.7880 C   0  0  0  0  0  0  0  0  0  0  0  0
   36.6150   24.1550   39.1210 N   0  0  0  0  0  0  0  0  0  0  0  0
   37.0210   22.9460   39.5660 C   0  0  0  0  0  0  0  0  0  0  0  0
   37.7000   22.8160   40.7140 N   0  0  0  0  0  0  0  0  0  0  0  0
   38.6970   23.8050   42.6470 N   0  0  0  0  0  0  0  0  0  0  0  0
   37.8230   26.0470   41.6110 H   0  0  0  0  0  0  0  0  0  0  0  0
   36.7850   22.0710   38.9720 H   0  0  0  0  0  0  0  0  0  0  0  0
   39.3550   23.0000   42.7530 H   0  0  0  0  0  0  0  0  0  0  0  0
   38.6360   24.4530   43.4650 H   0  0  0  0  0  0  0  0  0  0  0  0
   38.0180   30.1240   41.3580 O   0  0  0  0  0  0  0  0  0  0  0  0
   36.7080   30.1730   40.6320 P   0  0  2  0  0  0  0  0  0  0  0  0
   35.5700   31.1470   41.4210 O   0  0  0  0  0  0  0  0  0  0  0  0
   34.9490   31.5990   40.7790 H   0  0  0  0  0  0  0  0  0  0  0  0
   36.8650   30.8180   39.0700 O   0  0  0  0  0  0  0  0  0  0  0  0
   38.3320   33.2150   38.6100 H   0  0  0  0  0  0  0  0  0  0  0  0
   38.8010   32.3130   38.3930 N   0  0  0  0  0  0  0  0  0  0  0  0
   38.1240   31.1720   38.6040 C   0  0  0  0  0  0  0  0  0  0  0  0
   38.9070   30.1160   38.2590 N   0  0  0  0  0  0  0  0  0  0  0  0
   40.1040   30.5760   37.8210 C   0  0  0  0  0  0  0  0  0  0  0  0
   41.3030   30.0940   37.3420 C   0  0  0  0  0  0  0  0  0  0  0  0
   41.3750   29.0100   37.2680 H   0  0  0  0  0  0  0  0  0  0  0  0
   42.2940   30.9210   36.9970 N   0  0  0  0  0  0  0  0  0  0  0  0
   42.1900   32.2590   37.0930 C   0  0  0  0  0  0  0  0  0  0  0  0
   42.9980   32.9180   36.8120 H   0  0  0  0  0  0  0  0  0  0  0  0
   41.0180   32.7590   37.5630 N   0  0  0  0  0  0  0  0  0  0  0  0
   40.0020   31.9530   37.9180 C   0  0  0  0  0  0  0  0  0  0  0  0
  1 20  1  0  0  0  0
  2  1  1  0  0  0  0
  2  4  1  0  0  0  0
  3  2  1  0  0  0  0
  5  7  1  0  0  0  0
  5 10  1  0  0  0  0
  5  2  1  0  0  0  0
  6  5  1  0  0  0  0
  8 14  1  0  0  0  0
  9  8  1  0  0  0  0
  9 15  1  0  0  0  0
 10  9  2  0  0  0  0
 11 12  2  0  0  0  0
 11 10  1  0  0  0  0
 12 13  1  0  0  0  0
 13  8  2  0  0  0  0
 14 17  1  0  0  0  0
 14 18  1  0  0  0  0
 16 12  1  0  0  0  0
 20 19  2  1  0  0  0
 20 21  1  0  0  0  0
 22 21  1  0  0  0  0
 23 20  1  0  0  0  0
 25 26  1  0  0  0  0
 25 24  1  0  0  0  0
 26 23  1  0  0  0  0
 27 26  2  0  0  0  0
 28 35  1  0  0  0  0
 28 27  1  0  0  0  0
 29 28  2  0  0  0  0
 30 29  1  0  0  0  0
 31 32  2  0  0  0  0
 31 29  1  0  0  0  0
 32 34  1  0  0  0  0
 33 32  1  0  0  0  0
 34 35  2  0  0  0  0
 35 25  1  0  0  0  0
M  END
>  <minimizedAffinity>
-5.0284543

$$$$
