
 OpenBabel03242515593D

 31 34  0  0  0  0  0  0  0  0999 V2000
   45.0180   32.9310   41.2300 Cl  0  0  0  0  0  0  0  0  0  0  0  0
   46.4540   33.8820   41.0190 C   0  0  0  0  0  0  0  0  0  0  0  0
   46.8960   34.7130   41.9940 C   0  0  0  0  0  0  0  0  0  0  0  0
   48.0490   35.4250   41.7220 C   0  0  0  0  0  0  0  0  0  0  0  0
   48.7240   35.3170   40.5430 C   0  0  0  0  0  0  0  0  0  0  0  0
   48.2730   34.4800   39.5670 C   0  0  0  0  0  0  0  0  0  0  0  0
   47.1220   33.7570   39.8150 C   0  0  0  0  0  0  0  0  0  0  0  0
   48.4330   36.0990   42.4790 H   0  0  0  0  0  0  0  0  0  0  0  0
   49.6250   35.9100   40.4000 H   0  0  0  0  0  0  0  0  0  0  0  0
   48.8220   34.4070   38.6370 H   0  0  0  0  0  0  0  0  0  0  0  0
   46.6850   32.8940   38.7670 N   0  0  0  0  0  0  0  0  0  0  0  0
   45.8040   33.3410   37.8480 C   0  0  0  0  0  0  0  0  0  0  0  0
   45.2730   34.2860   37.6620 H   0  0  0  0  0  0  0  0  0  0  0  0
   45.5170   32.3790   36.9470 N   0  0  0  0  0  0  0  0  0  0  0  0
   46.2270   31.2860   37.2880 C   0  0  0  0  0  0  0  0  0  0  0  0
   46.3750   30.0030   36.7850 C   0  0  0  0  0  0  0  0  0  0  0  0
   45.7880   29.8040   35.9020 H   0  0  0  0  0  0  0  0  0  0  0  0
   47.2090   29.1290   37.4100 N   0  0  0  0  0  0  0  0  0  0  0  0
   47.8850   29.5330   38.5220 C   0  0  0  0  0  0  0  0  0  0  0  0
   48.4980   28.7340   38.8960 H   0  0  0  0  0  0  0  0  0  0  0  0
   47.7770   30.7820   39.0590 N   0  0  0  0  0  0  0  0  0  0  0  0
   46.9450   31.6210   38.4190 C   0  0  0  0  0  0  0  0  0  0  0  0
   44.5000   35.8780   44.6850 C   0  0  0  0  0  0  0  0  0  0  0  0
   45.2060   35.8090   43.4740 C   0  0  0  0  0  0  0  0  0  0  0  0
   46.1540   34.8040   43.2360 C   0  0  0  0  0  0  0  0  0  0  0  0
   46.3250   33.9300   44.2430 N   0  0  0  0  0  0  0  0  0  0  0  0
   45.6480   33.9990   45.3970 C   0  0  0  0  0  0  0  0  0  0  0  0
   44.7360   34.9690   45.6240 N   0  0  0  0  0  0  0  0  0  0  0  0
   43.7710   36.6580   44.8560 H   0  0  0  0  0  0  0  0  0  0  0  0
   45.0140   36.5540   42.7030 H   0  0  0  0  0  0  0  0  0  0  0  0
   45.8730   33.2360   46.1360 H   0  0  0  0  0  0  0  0  0  0  0  0
  2  1  1  0  0  0  0
  2  3  1  0  0  0  0
  3 25  1  0  0  0  0
  4  3  2  0  0  0  0
  4  8  1  0  0  0  0
  5  4  1  0  0  0  0
  6  7  1  0  0  0  0
  6  5  2  0  0  0  0
  7  2  2  0  0  0  0
  9  5  1  0  0  0  0
 10  6  1  0  0  0  0
 11  7  1  0  0  0  0
 12 11  1  0  0  0  0
 13 12  1  0  0  0  0
 14 15  1  0  0  0  0
 14 12  2  0  0  0  0
 15 22  1  0  0  0  0
 16 15  2  0  0  0  0
 16 18  1  0  0  0  0
 17 16  1  0  0  0  0
 18 19  2  0  0  0  0
 19 20  1  0  0  0  0
 19 21  1  0  0  0  0
 22 11  1  0  0  0  0
 22 21  2  0  0  0  0
 23 29  1  0  0  0  0
 23 28  1  0  0  0  0
 24 23  2  0  0  0  0
 25 24  1  0  0  0  0
 25 26  2  0  0  0  0
 26 27  1  0  0  0  0
 27 28  2  0  0  0  0
 27 31  1  0  0  0  0
 30 24  1  0  0  0  0
M  END
>  <minimizedAffinity>
-5.43752575

>  <minimizedRMSD>
0.393364549

$$$$
