
 OpenBabel03252502013D

 37 41  0  0  0  0  0  0  0  0999 V2000
   47.6710   31.9940   48.0870 C   0  0  0  0  0  0  0  0  0  0  0  0
   47.4150   30.6440   47.9820 C   0  0  0  0  0  0  0  0  0  0  0  0
   46.5860   30.2680   46.9670 C   0  0  0  0  0  0  0  0  0  0  0  0
   46.0660   31.1820   46.1350 N   0  0  0  0  0  0  0  0  0  0  0  0
   46.3190   32.4880   46.2440 C   0  0  0  0  0  0  0  0  0  0  0  0
   47.1250   32.8540   47.2310 N   0  0  0  0  0  0  0  0  0  0  0  0
   48.3390   32.2950   48.9050 H   0  0  0  0  0  0  0  0  0  0  0  0
   46.2510   28.9300   46.7580 N   0  0  0  0  0  0  0  0  0  0  0  0
   45.1960   28.3800   46.1280 C   0  0  0  0  0  0  0  0  0  0  0  0
   44.3950   28.9330   45.6590 H   0  0  0  0  0  0  0  0  0  0  0  0
   45.2850   27.0360   46.1690 N   0  0  0  0  0  0  0  0  0  0  0  0
   46.4070   26.6990   46.8320 C   0  0  0  0  0  0  0  0  0  0  0  0
   46.9630   25.4770   47.1500 C   0  0  0  0  0  0  0  0  0  0  0  0
   46.4520   24.5690   46.8400 H   0  0  0  0  0  0  0  0  0  0  0  0
   48.1210   25.4990   47.8350 N   0  0  0  0  0  0  0  0  0  0  0  0
   48.7260   26.6500   48.2040 C   0  0  0  0  0  0  0  0  0  0  0  0
   49.6660   26.5990   48.7590 H   0  0  0  0  0  0  0  0  0  0  0  0
   48.1670   27.8200   47.8820 N   0  0  0  0  0  0  0  0  0  0  0  0
   46.9980   27.8710   47.1910 C   0  0  0  0  0  0  0  0  0  0  0  0
   45.8650   33.6440   45.4590 C   0  0  0  0  0  0  0  0  0  0  0  0
   44.9310   34.5220   45.8910 N   0  0  0  0  0  0  0  0  0  0  0  0
   44.4930   35.5790   45.2110 C   0  0  0  0  0  0  0  0  0  0  0  0
   44.9950   35.8350   43.9850 N   0  0  0  0  0  0  0  0  0  0  0  0
   45.9330   35.0330   43.4410 C   0  0  0  0  0  0  0  0  0  0  0  0
   46.4440   35.3010   42.1830 C   0  0  0  0  0  0  0  0  0  0  0  0
   47.3970   34.4910   41.6280 C   0  0  0  0  0  0  0  0  0  0  0  0
   47.8220   33.4090   42.3630 C   0  0  0  0  0  0  0  0  0  0  0  0
   47.2920   33.1760   43.6050 C   0  0  0  0  0  0  0  0  0  0  0  0
   46.3380   33.9550   44.2070 C   0  0  0  0  0  0  0  0  0  0  0  0
   43.7400   36.2170   45.6550 H   0  0  0  0  0  0  0  0  0  0  0  0
   46.0910   36.1600   41.6260 H   0  0  0  0  0  0  0  0  0  0  0  0
   47.8280   34.6540   40.6510 H   0  0  0  0  0  0  0  0  0  0  0  0
   48.5730   32.7370   41.9710 H   0  0  0  0  0  0  0  0  0  0  0  0
   47.6630   32.3030   44.1510 H   0  0  0  0  0  0  0  0  0  0  0  0
   47.9900   29.7310   48.8850 N   0  0  0  0  0  0  0  0  0  0  0  0
   47.4950   29.4030   49.7410 H   0  0  0  0  0  0  0  0  0  0  0  0
   48.9400   29.2770   48.8350 H   0  0  0  0  0  0  0  0  0  0  0  0
  1  7  1  0  0  0  0
  2  1  1  0  0  0  0
  2 35  1  0  0  0  0
  3  2  2  0  0  0  0
  4  5  2  0  0  0  0
  4  3  1  0  0  0  0
  5  6  1  0  0  0  0
  6  1  2  0  0  0  0
  8  3  1  0  0  0  0
  8 19  1  0  0  0  0
  9 11  2  0  0  0  0
  9  8  1  0  0  0  0
 10  9  1  0  0  0  0
 11 12  1  0  0  0  0
 12 13  2  0  0  0  0
 12 19  1  0  0  0  0
 13 15  1  0  0  0  0
 14 13  1  0  0  0  0
 15 16  2  0  0  0  0
 16 17  1  0  0  0  0
 18 16  1  0  0  0  0
 19 18  2  0  0  0  0
 20 21  1  0  0  0  0
 20  5  1  0  0  0  0
 22 30  1  0  0  0  0
 22 21  2  0  0  0  0
 23 22  1  0  0  0  0
 24 23  2  0  0  0  0
 24 29  1  0  0  0  0
 25 24  1  0  0  0  0
 26 25  2  0  0  0  0
 26 27  1  0  0  0  0
 27 28  2  0  0  0  0
 28 34  1  0  0  0  0
 28 29  1  0  0  0  0
 29 20  2  0  0  0  0
 31 25  1  0  0  0  0
 32 26  1  0  0  0  0
 33 27  1  0  0  0  0
 35 36  1  0  0  0  0
 37 35  1  0  0  0  0
M  END
>  <minimizedAffinity>
-6.51392937

>  <minimizedRMSD>
0.657926083

$$$$
