
 OpenBabel03242523543D

 48 52  0  0  1  0  0  0  0  0999 V2000
   42.6470   34.4270   38.8650 C   0  0  1  0  0  0  0  0  0  0  0  0
   43.0330   35.1760   40.1310 C   0  0  1  0  0  0  0  0  0  0  0  0
   41.8460   35.6280   40.7520 O   0  0  0  0  0  0  0  0  0  0  0  0
   40.8690   36.0130   39.8280 C   0  0  0  0  0  0  0  0  0  0  0  0
   40.3080   34.8230   39.0710 C   0  0  2  0  0  0  0  0  0  0  0  0
   41.3870   33.6910   39.1820 C   0  0  1  0  0  0  0  0  0  0  0  0
   43.4770   33.7200   38.6160 H   0  0  0  0  0  0  0  0  0  0  0  0
   43.7180   36.0190   39.9370 H   0  0  0  0  0  0  0  0  0  0  0  0
   40.0530   36.4340   40.4240 H   0  0  0  0  0  0  0  0  0  0  0  0
   41.2350   36.8020   39.1440 H   0  0  0  0  0  0  0  0  0  0  0  0
   39.3580   34.4470   39.4790 H   0  0  0  0  0  0  0  0  0  0  0  0
   41.2660   33.5530   40.3080 H   0  0  0  0  0  0  0  0  0  0  0  0
   42.4510   35.3210   37.7980 O   0  0  0  0  0  0  0  0  0  0  0  0
   42.4780   34.7830   36.9590 H   0  0  0  0  0  0  0  0  0  0  0  0
   40.2340   35.1230   37.7200 O   0  0  0  0  0  0  0  0  0  0  0  0
   39.5980   34.5030   37.3160 H   0  0  0  0  0  0  0  0  0  0  0  0
   43.5200   34.2020   41.0050 O   0  0  0  0  0  0  0  0  0  0  0  0
   44.6340   34.3130   41.7400 C   0  0  0  0  0  0  0  0  0  0  0  0
   45.8900   34.4410   41.1290 C   0  0  0  0  0  0  0  0  0  0  0  0
   47.0090   34.5540   41.9370 C   0  0  0  0  0  0  0  0  0  0  0  0
   46.8560   34.5370   43.3140 N   0  0  0  0  0  0  0  0  0  0  0  0
   45.6280   34.4130   43.8640 C   0  0  0  0  0  0  0  0  0  0  0  0
   44.5240   34.3020   43.0840 N   0  0  0  0  0  0  0  0  0  0  0  0
   45.9960   34.4510   40.0520 H   0  0  0  0  0  0  0  0  0  0  0  0
   45.5760   34.4070   44.9500 H   0  0  0  0  0  0  0  0  0  0  0  0
   48.3860   34.6820   41.3490 C   0  0  0  0  0  0  0  0  0  0  0  0
   49.0710   36.0350   41.5220 C   0  0  0  0  0  0  0  0  0  0  0  0
   49.5350   34.7350   42.2010 C   0  0  0  0  0  0  0  0  0  0  0  0
   48.4050   34.3690   40.2760 H   0  0  0  0  0  0  0  0  0  0  0  0
   48.5940   36.7420   42.2570 H   0  0  0  0  0  0  0  0  0  0  0  0
   49.6820   36.4430   40.7200 H   0  0  0  0  0  0  0  0  0  0  0  0
   50.5250   34.3850   41.8330 H   0  0  0  0  0  0  0  0  0  0  0  0
   49.4260   34.6270   43.2830 H   0  0  0  0  0  0  0  0  0  0  0  0
   41.0190   32.7020   38.3540 O   0  0  0  0  0  0  0  0  0  0  0  0
   39.9170   31.9520   38.2940 C   0  0  0  0  0  0  0  0  0  0  0  0
   38.9590   32.1810   37.4020 O   0  0  0  0  0  0  0  0  0  0  0  0
   37.2830   30.8310   38.9870 H   0  0  0  0  0  0  0  0  0  0  0  0
   38.1900   30.4460   39.2690 N   0  0  0  0  0  0  0  0  0  0  0  0
   39.4550   30.7530   39.1000 C   0  0  0  0  0  0  0  0  0  0  0  0
   40.1820   29.7960   39.7600 N   0  0  0  0  0  0  0  0  0  0  0  0
   39.3730   28.9090   40.3300 C   0  0  0  0  0  0  0  0  0  0  0  0
   39.7140   27.8040   41.0780 C   0  0  0  0  0  0  0  0  0  0  0  0
   40.7200   27.5150   41.3000 H   0  0  0  0  0  0  0  0  0  0  0  0
   38.6640   27.0690   41.5390 N   0  0  0  0  0  0  0  0  0  0  0  0
   37.3940   27.4310   41.2620 C   0  0  0  0  0  0  0  0  0  0  0  0
   36.5210   26.8880   41.6010 H   0  0  0  0  0  0  0  0  0  0  0  0
   37.1490   28.5240   40.5250 N   0  0  0  0  0  0  0  0  0  0  0  0
   38.0950   29.3110   40.0260 C   0  0  0  0  0  0  0  0  0  0  0  0
  1  7  1  6  0  0  0
  1  6  1  0  0  0  0
  1  2  1  0  0  0  0
  2  8  1  6  0  0  0
  2  3  1  0  0  0  0
  2 17  1  0  0  0  0
  4  9  1  0  0  0  0
  4  3  1  0  0  0  0
  5  6  1  0  0  0  0
  5 11  1  1  0  0  0
  5  4  1  0  0  0  0
  6 12  1  1  0  0  0
 10  4  1  0  0  0  0
 13  1  1  0  0  0  0
 14 13  1  0  0  0  0
 15  5  1  0  0  0  0
 16 15  1  0  0  0  0
 17 18  1  0  0  0  0
 18 23  1  0  0  0  0
 19 18  2  0  0  0  0
 19 20  1  0  0  0  0
 20 21  2  0  0  0  0
 21 22  1  0  0  0  0
 22 25  1  0  0  0  0
 23 22  2  0  0  0  0
 24 19  1  0  0  0  0
 26 27  1  0  0  0  0
 26 20  1  0  0  0  0
 26 28  1  0  0  0  0
 27 28  1  0  0  0  0
 27 30  1  0  0  0  0
 28 33  1  0  0  0  0
 29 26  1  0  0  0  0
 31 27  1  0  0  0  0
 32 28  1  0  0  0  0
 34  6  1  0  0  0  0
 35 34  1  0  0  0  0
 35 39  1  0  0  0  0
 36 35  2  0  0  0  0
 37 38  1  0  0  0  0
 38 48  1  0  0  0  0
 39 38  1  0  0  0  0
 39 40  2  0  0  0  0
 40 41  1  0  0  0  0
 41 42  1  0  0  0  0
 42 43  1  0  0  0  0
 42 44  2  0  0  0  0
 45 44  1  0  0  0  0
 45 46  1  0  0  0  0
 47 45  2  0  0  0  0
 48 41  2  0  0  0  0
 48 47  1  0  0  0  0
M  END
>  <minimizedAffinity>
-6.32538414

>  <minimizedRMSD>
2.24537826

$$$$
