
 OpenBabel03252502003D

 37 41  0  0  0  0  0  0  0  0999 V2000
   46.8130   32.0150   47.7370 C   0  0  0  0  0  0  0  0  0  0  0  0
   46.6230   30.6630   47.5470 C   0  0  0  0  0  0  0  0  0  0  0  0
   46.2050   30.2840   46.3060 C   0  0  0  0  0  0  0  0  0  0  0  0
   45.9980   31.1970   45.3460 N   0  0  0  0  0  0  0  0  0  0  0  0
   46.1830   32.5060   45.5390 C   0  0  0  0  0  0  0  0  0  0  0  0
   46.5910   32.8740   46.7460 N   0  0  0  0  0  0  0  0  0  0  0  0
   47.1510   32.3180   48.7370 H   0  0  0  0  0  0  0  0  0  0  0  0
   45.9780   28.9440   45.9910 N   0  0  0  0  0  0  0  0  0  0  0  0
   46.2150   28.2600   44.8560 C   0  0  0  0  0  0  0  0  0  0  0  0
   46.6450   28.6790   43.9550 H   0  0  0  0  0  0  0  0  0  0  0  0
   45.8350   26.9770   45.0050 N   0  0  0  0  0  0  0  0  0  0  0  0
   45.3450   26.8140   46.2470 C   0  0  0  0  0  0  0  0  0  0  0  0
   44.8290   25.7150   46.9040 C   0  0  0  0  0  0  0  0  0  0  0  0
   44.7780   24.7640   46.3780 H   0  0  0  0  0  0  0  0  0  0  0  0
   44.4200   25.9040   48.1710 N   0  0  0  0  0  0  0  0  0  0  0  0
   44.5010   27.1020   48.7900 C   0  0  0  0  0  0  0  0  0  0  0  0
   44.1500   27.1910   49.8230 H   0  0  0  0  0  0  0  0  0  0  0  0
   45.0040   28.1510   48.1320 N   0  0  0  0  0  0  0  0  0  0  0  0
   45.4360   28.0310   46.8500 C   0  0  0  0  0  0  0  0  0  0  0  0
   46.0200   33.6610   44.6460 C   0  0  0  0  0  0  0  0  0  0  0  0
   44.9870   34.5300   44.7280 N   0  0  0  0  0  0  0  0  0  0  0  0
   44.8030   35.5860   43.9400 C   0  0  0  0  0  0  0  0  0  0  0  0
   45.6960   35.8520   42.9650 N   0  0  0  0  0  0  0  0  0  0  0  0
   46.7720   35.0600   42.7790 C   0  0  0  0  0  0  0  0  0  0  0  0
   47.6850   35.3370   41.7770 C   0  0  0  0  0  0  0  0  0  0  0  0
   48.7790   34.5370   41.5860 C   0  0  0  0  0  0  0  0  0  0  0  0
   48.9320   33.4550   42.4210 C   0  0  0  0  0  0  0  0  0  0  0  0
   48.0060   33.2130   43.4020 C   0  0  0  0  0  0  0  0  0  0  0  0
   46.8950   33.9810   43.6370 C   0  0  0  0  0  0  0  0  0  0  0  0
   43.9370   36.2170   44.0960 H   0  0  0  0  0  0  0  0  0  0  0  0
   47.5400   36.1960   41.1330 H   0  0  0  0  0  0  0  0  0  0  0  0
   49.5210   34.7080   40.8200 H   0  0  0  0  0  0  0  0  0  0  0  0
   49.7780   32.7910   42.3140 H   0  0  0  0  0  0  0  0  0  0  0  0
   48.1720   32.3400   44.0420 H   0  0  0  0  0  0  0  0  0  0  0  0
   46.8570   29.7510   48.5920 N   0  0  0  0  0  0  0  0  0  0  0  0
   46.0980   29.4140   49.2210 H   0  0  0  0  0  0  0  0  0  0  0  0
   47.7690   29.3050   48.8760 H   0  0  0  0  0  0  0  0  0  0  0  0
  1  7  1  0  0  0  0
  2  1  1  0  0  0  0
  2 35  1  0  0  0  0
  3  2  2  0  0  0  0
  4  5  2  0  0  0  0
  4  3  1  0  0  0  0
  5  6  1  0  0  0  0
  6  1  2  0  0  0  0
  8  3  1  0  0  0  0
  8 19  1  0  0  0  0
  9 11  2  0  0  0  0
  9  8  1  0  0  0  0
 10  9  1  0  0  0  0
 11 12  1  0  0  0  0
 12 19  2  0  0  0  0
 12 13  1  0  0  0  0
 13 15  2  0  0  0  0
 14 13  1  0  0  0  0
 15 16  1  0  0  0  0
 16 17  1  0  0  0  0
 18 16  2  0  0  0  0
 19 18  1  0  0  0  0
 20 21  1  0  0  0  0
 20  5  1  0  0  0  0
 22 30  1  0  0  0  0
 22 21  2  0  0  0  0
 23 22  1  0  0  0  0
 24 23  2  0  0  0  0
 24 29  1  0  0  0  0
 25 24  1  0  0  0  0
 26 25  2  0  0  0  0
 26 27  1  0  0  0  0
 27 28  2  0  0  0  0
 28 29  1  0  0  0  0
 28 34  1  0  0  0  0
 29 20  2  0  0  0  0
 31 25  1  0  0  0  0
 32 26  1  0  0  0  0
 33 27  1  0  0  0  0
 35 37  1  0  0  0  0
 35 36  1  0  0  0  0
M  END
>  <minimizedAffinity>
-6.38736534

>  <minimizedRMSD>
1.37763441

$$$$
