
 OpenBabel03242516393D

 23 25  0  0  0  0  0  0  0  0999 V2000
   38.7540   28.1260   42.2630 N   0  0  0  0  0  0  0  0  0  0  0  0
   39.8360   28.7790   42.7520 C   0  0  0  0  0  0  0  0  0  0  0  0
   40.0840   29.8380   42.7920 H   0  0  0  0  0  0  0  0  0  0  0  0
   40.7320   27.8950   43.2690 N   0  0  0  0  0  0  0  0  0  0  0  0
   40.2260   26.6720   43.1130 C   0  0  0  0  0  0  0  0  0  0  0  0
   40.5950   25.3690   43.4000 C   0  0  0  0  0  0  0  0  0  0  0  0
   41.5460   25.2020   43.8880 H   0  0  0  0  0  0  0  0  0  0  0  0
   39.7800   24.3440   43.0730 N   0  0  0  0  0  0  0  0  0  0  0  0
   38.5810   24.5530   42.4560 C   0  0  0  0  0  0  0  0  0  0  0  0
   37.9780   23.6730   42.2240 H   0  0  0  0  0  0  0  0  0  0  0  0
   38.1590   25.8080   42.1470 N   0  0  0  0  0  0  0  0  0  0  0  0
   39.0030   26.8110   42.4900 C   0  0  0  0  0  0  0  0  0  0  0  0
   36.6650   30.8720   40.8290 C   0  0  0  0  0  0  0  0  0  0  0  0
   37.7710   30.2390   41.4160 C   0  0  0  0  0  0  0  0  0  0  0  0
   37.6820   28.8490   41.6700 C   0  0  0  0  0  0  0  0  0  0  0  0
   36.5300   28.2140   41.3270 N   0  0  0  0  0  0  0  0  0  0  0  0
   35.4890   28.8630   40.7620 C   0  0  0  0  0  0  0  0  0  0  0  0
   35.5610   30.1900   40.5150 N   0  0  0  0  0  0  0  0  0  0  0  0
   36.7510   32.2730   40.5720 N   0  0  0  0  0  0  0  0  0  0  0  0
   38.6620   30.7540   41.6780 H   0  0  0  0  0  0  0  0  0  0  0  0
   34.5730   28.3430   40.4920 H   0  0  0  0  0  0  0  0  0  0  0  0
   36.6650   32.6850   41.5180 H   0  0  0  0  0  0  0  0  0  0  0  0
   36.8690   32.8080   39.6850 H   0  0  0  0  0  0  0  0  0  0  0  0
  1 12  1  0  0  0  0
  1  2  1  0  0  0  0
  2  3  1  0  0  0  0
  2  4  2  0  0  0  0
  5  4  1  0  0  0  0
  5  6  1  0  0  0  0
  6  7  1  0  0  0  0
  8  6  2  0  0  0  0
  9  8  1  0  0  0  0
 10  9  1  0  0  0  0
 11  9  2  0  0  0  0
 11 12  1  0  0  0  0
 12  5  2  0  0  0  0
 13 14  1  0  0  0  0
 14 15  2  0  0  0  0
 14 20  1  0  0  0  0
 15  1  1  0  0  0  0
 16 15  1  0  0  0  0
 17 16  2  0  0  0  0
 18 17  1  0  0  0  0
 18 13  2  0  0  0  0
 19 13  1  0  0  0  0
 19 22  1  0  0  0  0
 21 17  1  0  0  0  0
 23 19  1  0  0  0  0
M  END
>  <minimizedAffinity>
-4.90544939

$$$$

 OpenBabel03242516393D

 23 25  0  0  0  0  0  0  0  0999 V2000
   37.6570   30.2580   40.7500 N   0  0  0  0  0  0  0  0  0  0  0  0
   36.3630   30.1520   40.3610 C   0  0  0  0  0  0  0  0  0  0  0  0
   35.7730   30.7230   39.6470 H   0  0  0  0  0  0  0  0  0  0  0  0
   35.7510   29.1290   41.0190 N   0  0  0  0  0  0  0  0  0  0  0  0
   36.6530   28.5780   41.8320 C   0  0  0  0  0  0  0  0  0  0  0  0
   36.7040   27.5420   42.7490 C   0  0  0  0  0  0  0  0  0  0  0  0
   35.8060   26.9620   42.9180 H   0  0  0  0  0  0  0  0  0  0  0  0
   37.8510   27.2740   43.4080 N   0  0  0  0  0  0  0  0  0  0  0  0
   38.9840   28.0040   43.1970 C   0  0  0  0  0  0  0  0  0  0  0  0
   39.8720   27.7260   43.7690 H   0  0  0  0  0  0  0  0  0  0  0  0
   39.0010   29.0340   42.3110 N   0  0  0  0  0  0  0  0  0  0  0  0
   37.8330   29.2740   41.6680 C   0  0  0  0  0  0  0  0  0  0  0  0
   39.6670   32.3000   38.3520 C   0  0  0  0  0  0  0  0  0  0  0  0
   38.8330   31.2740   38.8170 C   0  0  0  0  0  0  0  0  0  0  0  0
   38.4970   31.2620   40.1920 C   0  0  0  0  0  0  0  0  0  0  0  0
   39.0040   32.2490   40.9770 N   0  0  0  0  0  0  0  0  0  0  0  0
   39.8050   33.2200   40.4870 C   0  0  0  0  0  0  0  0  0  0  0  0
   40.1340   33.2420   39.1770 N   0  0  0  0  0  0  0  0  0  0  0  0
   40.0080   32.3150   36.9670 N   0  0  0  0  0  0  0  0  0  0  0  0
   38.4470   30.5100   38.1860 H   0  0  0  0  0  0  0  0  0  0  0  0
   40.2040   34.0040   41.1260 H   0  0  0  0  0  0  0  0  0  0  0  0
   40.6850   31.5350   36.8900 H   0  0  0  0  0  0  0  0  0  0  0  0
   39.6930   32.9270   36.1840 H   0  0  0  0  0  0  0  0  0  0  0  0
  1 12  1  0  0  0  0
  2  1  1  0  0  0  0
  2  4  2  0  0  0  0
  3  2  1  0  0  0  0
  4  5  1  0  0  0  0
  5  6  1  0  0  0  0
  6  7  1  0  0  0  0
  6  8  2  0  0  0  0
  9  8  1  0  0  0  0
  9 10  1  0  0  0  0
 11  9  2  0  0  0  0
 12  5  2  0  0  0  0
 12 11  1  0  0  0  0
 13 14  2  0  0  0  0
 13 18  1  0  0  0  0
 14 15  1  0  0  0  0
 15  1  1  0  0  0  0
 15 16  2  0  0  0  0
 17 16  1  0  0  0  0
 17 21  1  0  0  0  0
 18 17  2  0  0  0  0
 19 13  1  0  0  0  0
 20 14  1  0  0  0  0
 22 19  1  0  0  0  0
 23 19  1  0  0  0  0
M  END
>  <minimizedAffinity>
-4.82240438

$$$$

 OpenBabel03242516393D

 23 25  0  0  0  0  0  0  0  0999 V2000
   37.4850   29.0660   41.1990 N   0  0  0  0  0  0  0  0  0  0  0  0
   36.3760   28.3810   41.5660 C   0  0  0  0  0  0  0  0  0  0  0  0
   35.3450   28.4360   41.2220 H   0  0  0  0  0  0  0  0  0  0  0  0
   36.6730   27.4810   42.5430 N   0  0  0  0  0  0  0  0  0  0  0  0
   37.9770   27.5880   42.8040 C   0  0  0  0  0  0  0  0  0  0  0  0
   38.9010   26.9980   43.6480 C   0  0  0  0  0  0  0  0  0  0  0  0
   38.5590   26.2230   44.3210 H   0  0  0  0  0  0  0  0  0  0  0  0
   40.1920   27.3900   43.6230 N   0  0  0  0  0  0  0  0  0  0  0  0
   40.6250   28.3680   42.7750 C   0  0  0  0  0  0  0  0  0  0  0  0
   41.6840   28.6300   42.8140 H   0  0  0  0  0  0  0  0  0  0  0  0
   39.7690   28.9880   41.9200 N   0  0  0  0  0  0  0  0  0  0  0  0
   38.4820   28.5680   41.9740 C   0  0  0  0  0  0  0  0  0  0  0  0
   37.1590   32.3490   39.4440 C   0  0  0  0  0  0  0  0  0  0  0  0
   37.2160   31.4310   40.5040 C   0  0  0  0  0  0  0  0  0  0  0  0
   37.4150   30.0650   40.1890 C   0  0  0  0  0  0  0  0  0  0  0  0
   37.5390   29.7280   38.8780 N   0  0  0  0  0  0  0  0  0  0  0  0
   37.4780   30.6460   37.8880 C   0  0  0  0  0  0  0  0  0  0  0  0
   37.2880   31.9530   38.1750 N   0  0  0  0  0  0  0  0  0  0  0  0
   36.9580   33.7270   39.7580 N   0  0  0  0  0  0  0  0  0  0  0  0
   37.1160   31.7160   41.5230 H   0  0  0  0  0  0  0  0  0  0  0  0
   37.5790   30.3630   36.8440 H   0  0  0  0  0  0  0  0  0  0  0  0
   35.9590   33.7570   40.0270 H   0  0  0  0  0  0  0  0  0  0  0  0
   37.6080   34.5410   39.7410 H   0  0  0  0  0  0  0  0  0  0  0  0
  1  2  1  0  0  0  0
  1 12  1  0  0  0  0
  2  4  2  0  0  0  0
  3  2  1  0  0  0  0
  4  5  1  0  0  0  0
  5  6  1  0  0  0  0
  6  7  1  0  0  0  0
  8  6  2  0  0  0  0
  9 10  1  0  0  0  0
  9  8  1  0  0  0  0
 11 12  1  0  0  0  0
 11  9  2  0  0  0  0
 12  5  2  0  0  0  0
 13 19  1  0  0  0  0
 13 14  1  0  0  0  0
 14 20  1  0  0  0  0
 15 14  2  0  0  0  0
 15  1  1  0  0  0  0
 16 15  1  0  0  0  0
 17 18  1  0  0  0  0
 17 16  2  0  0  0  0
 18 13  2  0  0  0  0
 19 22  1  0  0  0  0
 21 17  1  0  0  0  0
 23 19  1  0  0  0  0
M  END
>  <minimizedAffinity>
-4.79582453

$$$$

 OpenBabel03242516393D

 23 25  0  0  0  0  0  0  0  0999 V2000
   38.6960   28.1080   42.1900 N   0  0  0  0  0  0  0  0  0  0  0  0
   39.4400   29.1510   42.6280 C   0  0  0  0  0  0  0  0  0  0  0  0
   40.3910   29.1910   43.1560 H   0  0  0  0  0  0  0  0  0  0  0  0
   38.8340   30.3310   42.3200 N   0  0  0  0  0  0  0  0  0  0  0  0
   37.6980   30.0440   41.6840 C   0  0  0  0  0  0  0  0  0  0  0  0
   36.6420   30.7360   41.1150 C   0  0  0  0  0  0  0  0  0  0  0  0
   36.6600   31.8180   41.1520 H   0  0  0  0  0  0  0  0  0  0  0  0
   35.6240   30.0670   40.5360 N   0  0  0  0  0  0  0  0  0  0  0  0
   35.6000   28.7040   40.4900 C   0  0  0  0  0  0  0  0  0  0  0  0
   34.7420   28.2350   40.0030 H   0  0  0  0  0  0  0  0  0  0  0  0
   36.6040   27.9640   41.0290 N   0  0  0  0  0  0  0  0  0  0  0  0
   37.6090   28.6700   41.6020 C   0  0  0  0  0  0  0  0  0  0  0  0
   40.8380   25.1160   42.8420 C   0  0  0  0  0  0  0  0  0  0  0  0
   40.4940   26.4620   42.6450 C   0  0  0  0  0  0  0  0  0  0  0  0
   39.1340   26.7710   42.4010 C   0  0  0  0  0  0  0  0  0  0  0  0
   38.2450   25.7430   42.3740 N   0  0  0  0  0  0  0  0  0  0  0  0
   38.6200   24.4590   42.5690 C   0  0  0  0  0  0  0  0  0  0  0  0
   39.9150   24.1510   42.8020 N   0  0  0  0  0  0  0  0  0  0  0  0
   42.2080   24.8010   43.0870 N   0  0  0  0  0  0  0  0  0  0  0  0
   41.2050   27.2510   42.6700 H   0  0  0  0  0  0  0  0  0  0  0  0
   37.8990   23.6460   42.5450 H   0  0  0  0  0  0  0  0  0  0  0  0
   42.6410   24.9240   42.1560 H   0  0  0  0  0  0  0  0  0  0  0  0
   42.7060   24.5140   43.9570 H   0  0  0  0  0  0  0  0  0  0  0  0
  1 15  1  0  0  0  0
  1  2  1  0  0  0  0
  2  3  1  0  0  0  0
  4  2  2  0  0  0  0
  5  4  1  0  0  0  0
  6  7  1  0  0  0  0
  6  5  2  0  0  0  0
  8  6  1  0  0  0  0
  9  8  2  0  0  0  0
  9 11  1  0  0  0  0
 10  9  1  0  0  0  0
 11 12  2  0  0  0  0
 12  5  1  0  0  0  0
 12  1  1  0  0  0  0
 13 19  1  0  0  0  0
 14 20  1  0  0  0  0
 14 13  2  0  0  0  0
 15 14  1  0  0  0  0
 16 15  2  0  0  0  0
 16 17  1  0  0  0  0
 17 18  2  0  0  0  0
 18 13  1  0  0  0  0
 19 23  1  0  0  0  0
 21 17  1  0  0  0  0
 22 19  1  0  0  0  0
M  END
>  <minimizedAffinity>
-4.76082802

$$$$

 OpenBabel03242516393D

 23 25  0  0  0  0  0  0  0  0999 V2000
   37.7270   28.7310   42.1250 N   0  0  0  0  0  0  0  0  0  0  0  0
   37.1900   28.5520   43.3550 C   0  0  0  0  0  0  0  0  0  0  0  0
   36.9810   29.2520   44.1620 H   0  0  0  0  0  0  0  0  0  0  0  0
   36.8780   27.2420   43.5530 N   0  0  0  0  0  0  0  0  0  0  0  0
   37.2160   26.5780   42.4470 C   0  0  0  0  0  0  0  0  0  0  0  0
   37.1760   25.2730   41.9860 C   0  0  0  0  0  0  0  0  0  0  0  0
   36.7730   24.5110   42.6400 H   0  0  0  0  0  0  0  0  0  0  0  0
   37.6320   24.9740   40.7520 N   0  0  0  0  0  0  0  0  0  0  0  0
   38.1400   25.9340   39.9260 C   0  0  0  0  0  0  0  0  0  0  0  0
   38.4890   25.6130   38.9420 H   0  0  0  0  0  0  0  0  0  0  0  0
   38.2080   27.2340   40.3170 N   0  0  0  0  0  0  0  0  0  0  0  0
   37.7420   27.4960   41.5620 C   0  0  0  0  0  0  0  0  0  0  0  0
   37.7270   32.1560   40.6290 C   0  0  0  0  0  0  0  0  0  0  0  0
   37.2450   30.8970   41.0170 C   0  0  0  0  0  0  0  0  0  0  0  0
   38.1310   30.0260   41.6960 C   0  0  0  0  0  0  0  0  0  0  0  0
   39.3960   30.4650   41.9310 N   0  0  0  0  0  0  0  0  0  0  0  0
   39.8190   31.6880   41.5400 C   0  0  0  0  0  0  0  0  0  0  0  0
   38.9830   32.5280   40.8910 N   0  0  0  0  0  0  0  0  0  0  0  0
   36.8370   33.0350   39.9440 N   0  0  0  0  0  0  0  0  0  0  0  0
   36.2520   30.5720   40.8220 H   0  0  0  0  0  0  0  0  0  0  0  0
   40.8330   32.0270   41.7350 H   0  0  0  0  0  0  0  0  0  0  0  0
   36.7750   32.6100   39.0030 H   0  0  0  0  0  0  0  0  0  0  0  0
   36.3430   33.8990   40.2550 H   0  0  0  0  0  0  0  0  0  0  0  0
  1  2  1  0  0  0  0
  2  4  2  0  0  0  0
  2  3  1  0  0  0  0
  5  4  1  0  0  0  0
  6  5  1  0  0  0  0
  6  7  1  0  0  0  0
  8  6  2  0  0  0  0
  9 11  2  0  0  0  0
  9  8  1  0  0  0  0
 10  9  1  0  0  0  0
 11 12  1  0  0  0  0
 12  1  1  0  0  0  0
 12  5  2  0  0  0  0
 13 18  2  0  0  0  0
 13 14  1  0  0  0  0
 14 15  2  0  0  0  0
 15 16  1  0  0  0  0
 15  1  1  0  0  0  0
 17 21  1  0  0  0  0
 17 16  2  0  0  0  0
 18 17  1  0  0  0  0
 19 23  1  0  0  0  0
 19 13  1  0  0  0  0
 20 14  1  0  0  0  0
 22 19  1  0  0  0  0
M  END
>  <minimizedAffinity>
-4.65543985

$$$$

 OpenBabel03242516393D

 23 25  0  0  0  0  0  0  0  0999 V2000
   37.2170   26.3650   41.2290 N   0  0  0  0  0  0  0  0  0  0  0  0
   37.5350   25.4860   42.2090 C   0  0  0  0  0  0  0  0  0  0  0  0
   37.9850   25.6270   43.1900 H   0  0  0  0  0  0  0  0  0  0  0  0
   37.2080   24.2180   41.8360 N   0  0  0  0  0  0  0  0  0  0  0  0
   36.6790   24.2830   40.6140 C   0  0  0  0  0  0  0  0  0  0  0  0
   36.1550   23.4070   39.6790 C   0  0  0  0  0  0  0  0  0  0  0  0
   36.1270   22.3530   39.9240 H   0  0  0  0  0  0  0  0  0  0  0  0
   35.6950   23.8690   38.4980 N   0  0  0  0  0  0  0  0  0  0  0  0
   35.7290   25.1970   38.1870 C   0  0  0  0  0  0  0  0  0  0  0  0
   35.3380   25.4930   37.2120 H   0  0  0  0  0  0  0  0  0  0  0  0
   36.2310   26.1100   39.0600 N   0  0  0  0  0  0  0  0  0  0  0  0
   36.6830   25.6100   40.2360 C   0  0  0  0  0  0  0  0  0  0  0  0
   36.7900   30.0730   41.4110 C   0  0  0  0  0  0  0  0  0  0  0  0
   36.4520   28.7240   41.2260 C   0  0  0  0  0  0  0  0  0  0  0  0
   37.4700   27.7550   41.3980 C   0  0  0  0  0  0  0  0  0  0  0  0
   38.7120   28.1930   41.7340 N   0  0  0  0  0  0  0  0  0  0  0  0
   38.9940   29.5030   41.9030 C   0  0  0  0  0  0  0  0  0  0  0  0
   38.0310   30.4380   41.7410 N   0  0  0  0  0  0  0  0  0  0  0  0
   35.7660   31.0520   41.2380 N   0  0  0  0  0  0  0  0  0  0  0  0
   35.4740   28.4020   40.9620 H   0  0  0  0  0  0  0  0  0  0  0  0
   39.9910   29.8400   42.1720 H   0  0  0  0  0  0  0  0  0  0  0  0
   35.6440   31.0760   40.2100 H   0  0  0  0  0  0  0  0  0  0  0  0
   35.2390   31.6300   41.9260 H   0  0  0  0  0  0  0  0  0  0  0  0
  1 15  1  0  0  0  0
  1  2  1  0  0  0  0
  2  3  1  0  0  0  0
  4  2  2  0  0  0  0
  5  4  1  0  0  0  0
  6  7  1  0  0  0  0
  6  5  2  0  0  0  0
  8  6  1  0  0  0  0
  9  8  2  0  0  0  0
  9 11  1  0  0  0  0
 10  9  1  0  0  0  0
 11 12  2  0  0  0  0
 12  5  1  0  0  0  0
 12  1  1  0  0  0  0
 13 18  1  0  0  0  0
 14 15  1  0  0  0  0
 14 13  2  0  0  0  0
 15 16  2  0  0  0  0
 16 17  1  0  0  0  0
 17 21  1  0  0  0  0
 18 17  2  0  0  0  0
 19 13  1  0  0  0  0
 19 23  1  0  0  0  0
 20 14  1  0  0  0  0
 22 19  1  0  0  0  0
M  END
>  <minimizedAffinity>
-4.58322668

$$$$

 OpenBabel03242516393D

 23 25  0  0  0  0  0  0  0  0999 V2000
   37.7400   29.9340   40.3820 N   0  0  0  0  0  0  0  0  0  0  0  0
   37.6120   29.1740   39.2670 C   0  0  0  0  0  0  0  0  0  0  0  0
   37.6730   29.4240   38.2100 H   0  0  0  0  0  0  0  0  0  0  0  0
   37.3650   27.8770   39.6010 N   0  0  0  0  0  0  0  0  0  0  0  0
   37.3330   27.8040   40.9320 C   0  0  0  0  0  0  0  0  0  0  0  0
   37.1380   26.8320   41.8970 C   0  0  0  0  0  0  0  0  0  0  0  0
   36.9520   25.8170   41.5720 H   0  0  0  0  0  0  0  0  0  0  0  0
   37.1810   27.1550   43.2070 N   0  0  0  0  0  0  0  0  0  0  0  0
   37.4150   28.4350   43.6190 C   0  0  0  0  0  0  0  0  0  0  0  0
   37.4350   28.6180   44.6950 H   0  0  0  0  0  0  0  0  0  0  0  0
   37.6150   29.4370   42.7230 N   0  0  0  0  0  0  0  0  0  0  0  0
   37.5650   29.0740   41.4180 C   0  0  0  0  0  0  0  0  0  0  0  0
   39.3870   33.2800   40.6080 C   0  0  0  0  0  0  0  0  0  0  0  0
   39.2110   31.8960   40.7500 C   0  0  0  0  0  0  0  0  0  0  0  0
   38.0030   31.3280   40.2780 C   0  0  0  0  0  0  0  0  0  0  0  0
   37.0890   32.1600   39.7130 N   0  0  0  0  0  0  0  0  0  0  0  0
   37.3000   33.4900   39.5960 C   0  0  0  0  0  0  0  0  0  0  0  0
   38.4480   34.0450   40.0430 N   0  0  0  0  0  0  0  0  0  0  0  0
   40.6030   33.8560   41.0840 N   0  0  0  0  0  0  0  0  0  0  0  0
   39.9380   31.2620   41.1950 H   0  0  0  0  0  0  0  0  0  0  0  0
   36.5600   34.1450   39.1420 H   0  0  0  0  0  0  0  0  0  0  0  0
   40.4800   33.8330   42.1110 H   0  0  0  0  0  0  0  0  0  0  0  0
   41.4370   34.2250   40.5790 H   0  0  0  0  0  0  0  0  0  0  0  0
  1 12  1  0  0  0  0
  2  4  2  0  0  0  0
  2  1  1  0  0  0  0
  3  2  1  0  0  0  0
  4  5  1  0  0  0  0
  5 12  2  0  0  0  0
  5  6  1  0  0  0  0
  6  8  2  0  0  0  0
  7  6  1  0  0  0  0
  8  9  1  0  0  0  0
  9 10  1  0  0  0  0
 11  9  2  0  0  0  0
 12 11  1  0  0  0  0
 13 14  1  0  0  0  0
 13 19  1  0  0  0  0
 14 20  1  0  0  0  0
 15  1  1  0  0  0  0
 15 14  2  0  0  0  0
 16 15  1  0  0  0  0
 17 16  2  0  0  0  0
 17 18  1  0  0  0  0
 18 13  2  0  0  0  0
 19 22  1  0  0  0  0
 21 17  1  0  0  0  0
 23 19  1  0  0  0  0
M  END
>  <minimizedAffinity>
-4.56487274

$$$$

 OpenBabel03242516393D

 23 25  0  0  0  0  0  0  0  0999 V2000
   37.7760   29.0840   42.0430 N   0  0  0  0  0  0  0  0  0  0  0  0
   37.8180   28.8780   43.3810 C   0  0  0  0  0  0  0  0  0  0  0  0
   38.0010   29.5560   44.2120 H   0  0  0  0  0  0  0  0  0  0  0  0
   37.5820   27.5680   43.6690 N   0  0  0  0  0  0  0  0  0  0  0  0
   37.3870   26.9320   42.5130 C   0  0  0  0  0  0  0  0  0  0  0  0
   37.1110   25.6430   42.0900 C   0  0  0  0  0  0  0  0  0  0  0  0
   37.0070   24.8690   42.8390 H   0  0  0  0  0  0  0  0  0  0  0  0
   36.9780   25.3740   40.7740 N   0  0  0  0  0  0  0  0  0  0  0  0
   37.1090   26.3480   39.8290 C   0  0  0  0  0  0  0  0  0  0  0  0
   36.9870   26.0510   38.7850 H   0  0  0  0  0  0  0  0  0  0  0  0
   37.3800   27.6340   40.1760 N   0  0  0  0  0  0  0  0  0  0  0  0
   37.5060   27.8670   41.5050 C   0  0  0  0  0  0  0  0  0  0  0  0
   39.3620   32.3320   41.0950 C   0  0  0  0  0  0  0  0  0  0  0  0
   39.2330   31.0520   41.6560 C   0  0  0  0  0  0  0  0  0  0  0  0
   37.9950   30.3830   41.5060 C   0  0  0  0  0  0  0  0  0  0  0  0
   37.0070   31.0220   40.8260 N   0  0  0  0  0  0  0  0  0  0  0  0
   37.1740   32.2560   40.3000 C   0  0  0  0  0  0  0  0  0  0  0  0
   38.3510   32.9060   40.4370 N   0  0  0  0  0  0  0  0  0  0  0  0
   40.6090   33.0090   41.2450 N   0  0  0  0  0  0  0  0  0  0  0  0
   40.0180   30.5700   42.1850 H   0  0  0  0  0  0  0  0  0  0  0  0
   36.3760   32.7560   39.7580 H   0  0  0  0  0  0  0  0  0  0  0  0
   40.5970   33.2910   42.2400 H   0  0  0  0  0  0  0  0  0  0  0  0
   41.3750   33.2040   40.5660 H   0  0  0  0  0  0  0  0  0  0  0  0
  1  2  1  0  0  0  0
  2  4  2  0  0  0  0
  2  3  1  0  0  0  0
  5  4  1  0  0  0  0
  6  5  1  0  0  0  0
  6  7  1  0  0  0  0
  8  6  2  0  0  0  0
  9 11  2  0  0  0  0
  9  8  1  0  0  0  0
 10  9  1  0  0  0  0
 11 12  1  0  0  0  0
 12  1  1  0  0  0  0
 12  5  2  0  0  0  0
 13 19  1  0  0  0  0
 13 14  1  0  0  0  0
 14 20  1  0  0  0  0
 15 14  2  0  0  0  0
 15  1  1  0  0  0  0
 16 15  1  0  0  0  0
 17 18  1  0  0  0  0
 17 16  2  0  0  0  0
 18 13  2  0  0  0  0
 19 22  1  0  0  0  0
 21 17  1  0  0  0  0
 23 19  1  0  0  0  0
M  END
>  <minimizedAffinity>
-4.56167364

$$$$

 OpenBabel03242516393D

 23 25  0  0  0  0  0  0  0  0999 V2000
   39.4900   32.1460   40.1970 N   0  0  0  0  0  0  0  0  0  0  0  0
   39.5200   33.4520   40.5570 C   0  0  0  0  0  0  0  0  0  0  0  0
   39.0210   33.9930   41.3590 H   0  0  0  0  0  0  0  0  0  0  0  0
   40.3390   34.1550   39.7280 N   0  0  0  0  0  0  0  0  0  0  0  0
   40.8350   33.3000   38.8340 C   0  0  0  0  0  0  0  0  0  0  0  0
   41.6950   33.3400   37.7490 C   0  0  0  0  0  0  0  0  0  0  0  0
   42.1340   34.2910   37.4790 H   0  0  0  0  0  0  0  0  0  0  0  0
   41.9680   32.2150   37.0570 N   0  0  0  0  0  0  0  0  0  0  0  0
   41.4150   31.0150   37.3960 C   0  0  0  0  0  0  0  0  0  0  0  0
   41.6850   30.1490   36.7880 H   0  0  0  0  0  0  0  0  0  0  0  0
   40.5630   30.9060   38.4500 N   0  0  0  0  0  0  0  0  0  0  0  0
   40.3120   32.0560   39.1210 C   0  0  0  0  0  0  0  0  0  0  0  0
   36.6460   30.0090   41.3410 C   0  0  0  0  0  0  0  0  0  0  0  0
   37.3550   30.9410   40.5680 C   0  0  0  0  0  0  0  0  0  0  0  0
   38.6970   31.2160   40.9250 C   0  0  0  0  0  0  0  0  0  0  0  0
   39.2160   30.5580   41.9950 N   0  0  0  0  0  0  0  0  0  0  0  0
   38.4970   29.6670   42.7130 C   0  0  0  0  0  0  0  0  0  0  0  0
   37.2150   29.3960   42.3830 N   0  0  0  0  0  0  0  0  0  0  0  0
   35.2930   29.7300   40.9850 N   0  0  0  0  0  0  0  0  0  0  0  0
   36.9300   31.4450   39.7350 H   0  0  0  0  0  0  0  0  0  0  0  0
   38.9250   29.1470   43.5660 H   0  0  0  0  0  0  0  0  0  0  0  0
   34.7940   30.5820   41.2960 H   0  0  0  0  0  0  0  0  0  0  0  0
   34.8550   28.9020   40.5280 H   0  0  0  0  0  0  0  0  0  0  0  0
  1  2  1  0  0  0  0
  1 15  1  0  0  0  0
  2  3  1  0  0  0  0
  4  2  2  0  0  0  0
  5 12  1  0  0  0  0
  5  4  1  0  0  0  0
  6  5  2  0  0  0  0
  7  6  1  0  0  0  0
  8  9  2  0  0  0  0
  8  6  1  0  0  0  0
  9 11  1  0  0  0  0
 10  9  1  0  0  0  0
 11 12  2  0  0  0  0
 12  1  1  0  0  0  0
 13 18  1  0  0  0  0
 14 15  1  0  0  0  0
 14 13  2  0  0  0  0
 15 16  2  0  0  0  0
 16 17  1  0  0  0  0
 17 21  1  0  0  0  0
 18 17  2  0  0  0  0
 19 22  1  0  0  0  0
 19 13  1  0  0  0  0
 20 14  1  0  0  0  0
 23 19  1  0  0  0  0
M  END
>  <minimizedAffinity>
-4.52711868

$$$$
