
 OpenBabel03242511173D

 22 24  0  0  0  0  0  0  0  0999 V2000
   43.8400   36.2750   40.2650 H   0  0  0  0  0  0  0  0  0  0  0  0
   43.6650   35.2430   40.1250 N   0  0  0  0  0  0  0  0  0  0  0  0
   44.3450   34.1280   40.4530 C   0  0  0  0  0  0  0  0  0  0  0  0
   43.6410   33.0660   40.0180 N   0  0  0  0  0  0  0  0  0  0  0  0
   42.5260   33.5120   39.4230 C   0  0  0  0  0  0  0  0  0  0  0  0
   41.5190   32.7800   38.8360 C   0  0  0  0  0  0  0  0  0  0  0  0
   41.5600   31.7090   38.8130 H   0  0  0  0  0  0  0  0  0  0  0  0
   40.4870   33.4690   38.2950 N   0  0  0  0  0  0  0  0  0  0  0  0
   40.4860   34.8310   38.3540 C   0  0  0  0  0  0  0  0  0  0  0  0
   39.7110   35.4670   37.9530 H   0  0  0  0  0  0  0  0  0  0  0  0
   41.4770   35.5360   38.9310 N   0  0  0  0  0  0  0  0  0  0  0  0
   42.5230   34.8940   39.4810 C   0  0  0  0  0  0  0  0  0  0  0  0
   45.9090   34.3580   41.3250 S   0  0  0  0  0  0  0  0  0  0  0  0
   44.4870   35.9990   44.7530 C   0  0  0  0  0  0  0  0  0  0  0  0
   44.8070   35.8420   43.3800 C   0  0  0  0  0  0  0  0  0  0  0  0
   45.4680   34.6410   43.0300 C   0  0  0  0  0  0  0  0  0  0  0  0
   45.7390   33.7500   44.0050 N   0  0  0  0  0  0  0  0  0  0  0  0
   45.4190   33.9360   45.2930 C   0  0  0  0  0  0  0  0  0  0  0  0
   44.7930   35.0630   45.6590 N   0  0  0  0  0  0  0  0  0  0  0  0
   43.9810   36.9140   45.0350 H   0  0  0  0  0  0  0  0  0  0  0  0
   44.5650   36.5900   42.6440 H   0  0  0  0  0  0  0  0  0  0  0  0
   45.7020   33.1340   45.9560 H   0  0  0  0  0  0  0  0  0  0  0  0
  2  1  1  0  0  0  0
  2  3  1  0  0  0  0
  3 13  1  0  0  0  0
  4  3  2  0  0  0  0
  5 12  1  0  0  0  0
  5  4  1  0  0  0  0
  6  5  2  0  0  0  0
  7  6  1  0  0  0  0
  8  9  2  0  0  0  0
  8  6  1  0  0  0  0
  9 11  1  0  0  0  0
 10  9  1  0  0  0  0
 11 12  2  0  0  0  0
 12  2  1  0  0  0  0
 13 16  1  0  0  0  0
 14 20  1  0  0  0  0
 14 19  1  0  0  0  0
 15 14  2  0  0  0  0
 16 15  1  0  0  0  0
 16 17  2  0  0  0  0
 17 18  1  0  0  0  0
 18 19  2  0  0  0  0
 18 22  1  0  0  0  0
 21 15  1  0  0  0  0
M  END
>  <minimizedAffinity>
-4.76537275

>  <minimizedRMSD>
2.27123713

$$$$
