
 OpenBabel03252508293D

 42 46  0  0  1  0  0  0  0  0999 V2000
   41.2790   33.3170   40.1600 N   0  0  0  0  0  0  0  0  0  0  0  0
   41.3870   34.4050   41.1370 C   0  0  2  0  0  0  0  0  0  0  0  0
   41.1210   35.7400   40.5370 C   0  0  0  0  0  0  0  0  0  0  0  0
   40.5410   35.6450   39.2100 N   0  0  0  0  0  0  0  0  0  0  0  0
   41.2400   34.7990   38.3140 C   0  0  0  0  0  0  0  0  0  0  0  0
   42.0980   33.7790   39.0160 C   0  0  2  0  0  0  0  0  0  0  0  0
   40.2700   33.2900   39.8530 H   0  0  0  0  0  0  0  0  0  0  0  0
   40.6980   34.2100   41.9730 H   0  0  0  0  0  0  0  0  0  0  0  0
   42.0010   36.3740   40.3280 H   0  0  0  0  0  0  0  0  0  0  0  0
   40.3700   36.3380   41.1310 H   0  0  0  0  0  0  0  0  0  0  0  0
   40.4780   36.6030   38.8100 H   0  0  0  0  0  0  0  0  0  0  0  0
   41.7990   35.3250   37.5350 H   0  0  0  0  0  0  0  0  0  0  0  0
   40.4610   34.2010   37.7570 H   0  0  0  0  0  0  0  0  0  0  0  0
   42.9660   34.3470   39.4230 H   0  0  0  0  0  0  0  0  0  0  0  0
   42.5180   32.7000   38.1870 N   0  0  0  0  0  0  0  0  0  0  0  0
   43.8080   32.5000   37.7900 C   0  0  0  0  0  0  0  0  0  0  0  0
   44.6530   33.1510   38.0680 H   0  0  0  0  0  0  0  0  0  0  0  0
   43.9240   31.4200   37.0220 N   0  0  0  0  0  0  0  0  0  0  0  0
   42.6790   30.9040   36.9180 C   0  0  0  0  0  0  0  0  0  0  0  0
   42.2160   29.7910   36.2440 C   0  0  0  0  0  0  0  0  0  0  0  0
   42.9380   29.2040   35.6950 H   0  0  0  0  0  0  0  0  0  0  0  0
   40.9000   29.5100   36.3160 N   0  0  0  0  0  0  0  0  0  0  0  0
   40.0410   30.2940   37.0290 C   0  0  0  0  0  0  0  0  0  0  0  0
   39.0100   29.9680   37.0120 H   0  0  0  0  0  0  0  0  0  0  0  0
   40.5100   31.3910   37.6890 N   0  0  0  0  0  0  0  0  0  0  0  0
   41.8110   31.7170   37.6520 C   0  0  0  0  0  0  0  0  0  0  0  0
   44.6740   33.7680   42.4910 C   0  0  0  0  0  0  0  0  0  0  0  0
   44.6620   35.1450   42.2650 C   0  0  0  0  0  0  0  0  0  0  0  0
   43.4380   35.5290   41.7470 C   0  0  0  0  0  0  0  0  0  0  0  0
   42.7430   34.3970   41.6670 N   0  0  0  0  0  0  0  0  0  0  0  0
   43.4610   33.3700   42.1020 N   0  0  0  0  0  0  0  0  0  0  0  0
   45.5780   35.7180   42.5140 H   0  0  0  0  0  0  0  0  0  0  0  0
   43.4280   36.6000   41.5780 H   0  0  0  0  0  0  0  0  0  0  0  0
   47.8810   31.8700   42.9750 C   0  0  0  0  0  0  0  0  0  0  0  0
   46.8620   32.5930   42.2850 C   0  0  0  0  0  0  0  0  0  0  0  0
   45.7980   33.0120   43.0470 C   0  0  0  0  0  0  0  0  0  0  0  0
   45.7570   32.7330   44.3830 N   0  0  0  0  0  0  0  0  0  0  0  0
   46.7500   32.0440   44.9950 C   0  0  0  0  0  0  0  0  0  0  0  0
   47.7910   31.6270   44.2750 N   0  0  0  0  0  0  0  0  0  0  0  0
   48.6950   31.5720   42.2940 H   0  0  0  0  0  0  0  0  0  0  0  0
   46.8960   32.8140   41.2270 H   0  0  0  0  0  0  0  0  0  0  0  0
   46.6610   31.8560   46.0470 H   0  0  0  0  0  0  0  0  0  0  0  0
  1  2  1  0  0  0  0
  2 30  1  0  0  0  0
  2  8  1  1  0  0  0
  3 10  1  0  0  0  0
  3  2  1  0  0  0  0
  4  3  1  0  0  0  0
  5  6  1  0  0  0  0
  5  4  1  0  0  0  0
  6 14  1  1  0  0  0
  6  1  1  0  0  0  0
  7  1  1  0  0  0  0
  9  3  1  0  0  0  0
 11  4  1  0  0  0  0
 12  5  1  0  0  0  0
 13  5  1  0  0  0  0
 15  6  1  0  0  0  0
 16 17  1  0  0  0  0
 16 15  1  0  0  0  0
 18 16  2  0  0  0  0
 19 18  1  0  0  0  0
 19 26  1  0  0  0  0
 20 22  1  0  0  0  0
 20 19  2  0  0  0  0
 21 20  1  0  0  0  0
 22 23  2  0  0  0  0
 23 25  1  0  0  0  0
 24 23  1  0  0  0  0
 26 25  2  0  0  0  0
 26 15  1  0  0  0  0
 27 36  1  0  0  0  0
 28 27  1  0  0  0  0
 28 32  1  0  0  0  0
 29 28  2  0  0  0  0
 30 29  1  0  0  0  0
 30 31  1  0  0  0  0
 31 27  2  0  0  0  0
 33 29  1  0  0  0  0
 34 39  1  0  0  0  0
 35 34  2  0  0  0  0
 35 36  1  0  0  0  0
 36 37  2  0  0  0  0
 37 38  1  0  0  0  0
 38 42  1  0  0  0  0
 39 38  2  0  0  0  0
 40 34  1  0  0  0  0
 41 35  1  0  0  0  0
M  END
>  <minimizedAffinity>
-4.62738132

>  <minimizedRMSD>
3.66825986

$$$$
