
 OpenBabel03252505063D

 46 50  0  0  1  0  0  0  0  0999 V2000
   44.5850   35.5610   44.5550 C   0  0  0  0  0  0  0  0  0  0  0  0
   45.2590   35.5650   43.3140 C   0  0  0  0  0  0  0  0  0  0  0  0
   46.3540   34.6580   43.1670 C   0  0  0  0  0  0  0  0  0  0  0  0
   46.6960   33.8500   44.1950 N   0  0  0  0  0  0  0  0  0  0  0  0
   46.0150   33.8880   45.3660 C   0  0  0  0  0  0  0  0  0  0  0  0
   44.9600   34.7410   45.5510 N   0  0  0  0  0  0  0  0  0  0  0  0
   43.7650   36.2570   44.6320 H   0  0  0  0  0  0  0  0  0  0  0  0
   45.0160   36.1860   42.4850 H   0  0  0  0  0  0  0  0  0  0  0  0
   47.0700   34.6350   41.8890 C   0  0  0  0  0  0  0  0  0  0  0  0
   48.1650   35.4270   41.7540 C   0  0  0  0  0  0  0  0  0  0  0  0
   48.8130   35.3760   40.5200 C   0  0  0  0  0  0  0  0  0  0  0  0
   48.2870   34.5350   39.5640 C   0  0  0  0  0  0  0  0  0  0  0  0
   47.1860   33.7420   39.7060 C   0  0  0  0  0  0  0  0  0  0  0  0
   46.5760   33.8210   40.9350 N   0  0  0  0  0  0  0  0  0  0  0  0
   48.5110   36.0580   42.5580 H   0  0  0  0  0  0  0  0  0  0  0  0
   49.6960   35.9850   40.3470 H   0  0  0  0  0  0  0  0  0  0  0  0
   48.7820   34.4870   38.5990 H   0  0  0  0  0  0  0  0  0  0  0  0
   46.6850   32.8900   38.6800 N   0  0  0  0  0  0  0  0  0  0  0  0
   45.6300   32.0570   38.7950 C   0  0  0  0  0  0  0  0  0  0  0  0
   45.0010   31.8960   39.6650 H   0  0  0  0  0  0  0  0  0  0  0  0
   45.4240   31.4040   37.6580 N   0  0  0  0  0  0  0  0  0  0  0  0
   46.3400   31.7870   36.7470 C   0  0  0  0  0  0  0  0  0  0  0  0
   46.6560   31.4940   35.4240 C   0  0  0  0  0  0  0  0  0  0  0  0
   46.0160   30.7630   34.9600 H   0  0  0  0  0  0  0  0  0  0  0  0
   47.6960   32.1140   34.8280 N   0  0  0  0  0  0  0  0  0  0  0  0
   48.4330   33.0080   35.4850 C   0  0  0  0  0  0  0  0  0  0  0  0
   49.2610   33.4880   34.9780 H   0  0  0  0  0  0  0  0  0  0  0  0
   48.1490   33.3150   36.7760 N   0  0  0  0  0  0  0  0  0  0  0  0
   47.1190   32.7260   37.4280 C   0  0  0  0  0  0  0  0  0  0  0  0
   46.4380   32.9830   46.4640 C   0  0  2  0  0  0  0  0  0  0  0  0
   46.9740   31.7460   45.7990 C   0  0  0  0  0  0  0  0  0  0  0  0
   46.1030   30.5580   45.8220 C   0  0  0  0  0  0  0  0  0  0  0  0
   45.7840   30.3170   47.2910 C   0  0  0  0  0  0  0  0  0  0  0  0
   44.9860   31.3930   47.8760 C   0  0  0  0  0  0  0  0  0  0  0  0
   45.3670   32.7620   47.4120 C   0  0  0  0  0  0  0  0  0  0  0  0
   47.2730   33.5200   46.9750 H   0  0  0  0  0  0  0  0  0  0  0  0
   47.9320   31.4830   46.2920 H   0  0  0  0  0  0  0  0  0  0  0  0
   47.2630   31.9320   44.7280 H   0  0  0  0  0  0  0  0  0  0  0  0
   46.6920   29.6860   45.5040 H   0  0  0  0  0  0  0  0  0  0  0  0
   45.1980   30.7250   45.2280 H   0  0  0  0  0  0  0  0  0  0  0  0
   46.7300   30.1280   47.8180 H   0  0  0  0  0  0  0  0  0  0  0  0
   45.1390   29.4230   47.3010 H   0  0  0  0  0  0  0  0  0  0  0  0
   44.1700   31.3800   48.5840 H   0  0  0  0  0  0  0  0  0  0  0  0
   44.6660   33.8980   47.9060 N   0  0  0  0  0  0  0  0  0  0  0  0
   45.0090   34.5110   48.6810 H   0  0  0  0  0  0  0  0  0  0  0  0
   43.7540   34.2300   47.5530 H   0  0  0  0  0  0  0  0  0  0  0  0
  1  7  1  0  0  0  0
  1  6  1  0  0  0  0
  2  1  2  0  0  0  0
  3  2  1  0  0  0  0
  3  4  2  0  0  0  0
  4  5  1  0  0  0  0
  5  6  2  0  0  0  0
  5 30  1  0  0  0  0
  8  2  1  0  0  0  0
  9  3  1  0  0  0  0
 10  9  1  0  0  0  0
 10 15  1  0  0  0  0
 11 10  2  0  0  0  0
 12 13  2  0  0  0  0
 12 11  1  0  0  0  0
 13 14  1  0  0  0  0
 14  9  2  0  0  0  0
 16 11  1  0  0  0  0
 17 12  1  0  0  0  0
 18 19  1  0  0  0  0
 18 13  1  0  0  0  0
 19 20  1  0  0  0  0
 21 19  2  0  0  0  0
 22 29  1  0  0  0  0
 22 21  1  0  0  0  0
 23 22  2  0  0  0  0
 24 23  1  0  0  0  0
 25 23  1  0  0  0  0
 25 26  2  0  0  0  0
 26 28  1  0  0  0  0
 27 26  1  0  0  0  0
 28 29  2  0  0  0  0
 29 18  1  0  0  0  0
 30 36  1  1  0  0  0
 30 35  1  0  0  0  0
 31 32  1  0  0  0  0
 31 37  1  0  0  0  0
 31 30  1  0  0  0  0
 32 33  1  0  0  0  0
 33 42  1  0  0  0  0
 33 41  1  0  0  0  0
 33 34  1  0  0  0  0
 34 43  1  0  0  0  0
 35 34  2  0  0  0  0
 35 44  1  0  0  0  0
 38 31  1  0  0  0  0
 39 32  1  0  0  0  0
 40 32  1  0  0  0  0
 44 45  1  0  0  0  0
 46 44  1  0  0  0  0
M  END
>  <minimizedAffinity>
-8.19927979

>  <minimizedRMSD>
0.204383776

$$$$
