
 OpenBabel03252506343D

 36 39  0  0  1  0  0  0  0  0999 V2000
   44.4930   35.6480   45.0880 C   0  0  0  0  0  0  0  0  0  0  0  0
   45.1280   35.6250   43.8400 C   0  0  0  0  0  0  0  0  0  0  0  0
   46.0300   34.6430   43.5800 C   0  0  0  0  0  0  0  0  0  0  0  0
   46.2520   33.7410   44.5720 N   0  0  0  0  0  0  0  0  0  0  0  0
   45.6510   33.7650   45.7500 C   0  0  0  0  0  0  0  0  0  0  0  0
   44.7510   34.7210   46.0440 N   0  0  0  0  0  0  0  0  0  0  0  0
   45.9790   32.7680   46.6940 N   0  0  0  0  0  0  0  0  0  0  0  0
   45.2090   32.4770   47.9120 C   0  0  0  0  0  0  0  0  0  0  0  0
   46.3140   32.1700   48.9020 C   0  0  0  0  0  0  0  0  0  0  0  0
   47.5870   32.0160   48.1240 C   0  0  0  0  0  0  0  0  0  0  0  0
   47.0840   31.8360   46.7130 C   0  0  1  0  0  0  0  0  0  0  0  0
   43.7600   36.4410   45.3020 H   0  0  0  0  0  0  0  0  0  0  0  0
   46.5010   34.6480   42.6250 H   0  0  0  0  0  0  0  0  0  0  0  0
   44.5200   31.6290   47.7710 H   0  0  0  0  0  0  0  0  0  0  0  0
   44.6140   33.3680   48.1750 H   0  0  0  0  0  0  0  0  0  0  0  0
   46.0600   31.2260   49.4510 H   0  0  0  0  0  0  0  0  0  0  0  0
   46.3890   33.0380   49.5890 H   0  0  0  0  0  0  0  0  0  0  0  0
   48.2600   32.8920   48.2190 H   0  0  0  0  0  0  0  0  0  0  0  0
   48.1450   31.0890   48.3890 H   0  0  0  0  0  0  0  0  0  0  0  0
   47.8190   32.1450   45.9520 H   0  0  0  0  0  0  0  0  0  0  0  0
   44.7630   36.6680   42.9270 N   0  0  0  0  0  0  0  0  0  0  0  0
   44.3870   37.5750   43.2770 H   0  0  0  0  0  0  0  0  0  0  0  0
   44.8740   36.5170   41.8920 H   0  0  0  0  0  0  0  0  0  0  0  0
   46.5490   30.1280   46.4940 S   0  0  0  0  0  0  0  0  0  0  0  0
   46.2840   31.4190   43.7970 H   0  0  0  0  0  0  0  0  0  0  0  0
   45.5830   30.6820   44.0180 N   0  0  0  0  0  0  0  0  0  0  0  0
   45.4340   29.9320   45.1220 C   0  0  0  0  0  0  0  0  0  0  0  0
   44.3710   29.0910   44.9720 N   0  0  0  0  0  0  0  0  0  0  0  0
   43.8490   29.3320   43.7310 C   0  0  0  0  0  0  0  0  0  0  0  0
   42.8230   28.8740   42.9530 C   0  0  0  0  0  0  0  0  0  0  0  0
   42.2040   28.0840   43.4000 H   0  0  0  0  0  0  0  0  0  0  0  0
   42.5710   29.3410   41.7260 N   0  0  0  0  0  0  0  0  0  0  0  0
   43.3200   30.3030   41.1760 C   0  0  0  0  0  0  0  0  0  0  0  0
   43.0160   30.5940   40.1810 H   0  0  0  0  0  0  0  0  0  0  0  0
   44.3390   30.7920   41.8900 N   0  0  0  0  0  0  0  0  0  0  0  0
   44.6190   30.3330   43.1450 C   0  0  0  0  0  0  0  0  0  0  0  0
  1 12  1  0  0  0  0
  1  6  1  0  0  0  0
  2  1  2  0  0  0  0
  3  2  1  0  0  0  0
  3  4  2  0  0  0  0
  4  5  1  0  0  0  0
  5  6  2  0  0  0  0
  5  7  1  0  0  0  0
  7 11  1  0  0  0  0
  7  8  1  0  0  0  0
  8 15  1  0  0  0  0
  8  9  1  0  0  0  0
  9 16  1  0  0  0  0
  9 17  1  0  0  0  0
 10 18  1  0  0  0  0
 10 19  1  0  0  0  0
 10  9  1  0  0  0  0
 11 20  1  6  0  0  0
 11 10  1  0  0  0  0
 13  3  1  0  0  0  0
 14  8  1  0  0  0  0
 21 22  1  0  0  0  0
 21  2  1  0  0  0  0
 23 21  1  0  0  0  0
 24 11  1  0  0  0  0
 25 26  1  0  0  0  0
 26 27  1  0  0  0  0
 27 24  1  0  0  0  0
 28 27  2  0  0  0  0
 29 28  1  0  0  0  0
 30 31  1  0  0  0  0
 30 29  2  0  0  0  0
 32 30  1  0  0  0  0
 33 32  2  0  0  0  0
 33 35  1  0  0  0  0
 34 33  1  0  0  0  0
 35 36  2  0  0  0  0
 36 29  1  0  0  0  0
 36 26  1  0  0  0  0
M  END
>  <minimizedAffinity>
-5.23337412

>  <minimizedRMSD>
1.01978374

$$$$
