
 OpenBabel03252502013D

 37 41  0  0  0  0  0  0  0  0999 V2000
   47.8030   31.9150   48.2340 C   0  0  0  0  0  0  0  0  0  0  0  0
   47.8080   30.5600   47.9810 C   0  0  0  0  0  0  0  0  0  0  0  0
   47.1880   30.1620   46.8340 C   0  0  0  0  0  0  0  0  0  0  0  0
   46.6150   31.0600   46.0190 N   0  0  0  0  0  0  0  0  0  0  0  0
   46.6140   32.3710   46.2720 C   0  0  0  0  0  0  0  0  0  0  0  0
   47.2180   32.7590   47.3880 N   0  0  0  0  0  0  0  0  0  0  0  0
   48.3030   32.2340   49.1590 H   0  0  0  0  0  0  0  0  0  0  0  0
   47.1260   28.8180   46.4680 N   0  0  0  0  0  0  0  0  0  0  0  0
   46.4570   28.2120   45.4690 C   0  0  0  0  0  0  0  0  0  0  0  0
   45.8220   28.7150   44.7520 H   0  0  0  0  0  0  0  0  0  0  0  0
   46.6940   26.8860   45.4940 N   0  0  0  0  0  0  0  0  0  0  0  0
   47.5250   26.6170   46.5170 C   0  0  0  0  0  0  0  0  0  0  0  0
   48.0750   25.4380   46.9790 C   0  0  0  0  0  0  0  0  0  0  0  0
   47.8330   24.5090   46.4680 H   0  0  0  0  0  0  0  0  0  0  0  0
   48.8850   25.5260   48.0500 N   0  0  0  0  0  0  0  0  0  0  0  0
   49.1610   26.7010   48.6580 C   0  0  0  0  0  0  0  0  0  0  0  0
   49.8270   26.7060   49.5250 H   0  0  0  0  0  0  0  0  0  0  0  0
   48.6160   27.8280   48.1910 N   0  0  0  0  0  0  0  0  0  0  0  0
   47.7880   27.8120   47.1130 C   0  0  0  0  0  0  0  0  0  0  0  0
   46.0580   33.5130   45.5330 C   0  0  0  0  0  0  0  0  0  0  0  0
   45.0750   34.3080   46.0130 N   0  0  0  0  0  0  0  0  0  0  0  0
   44.5440   35.3480   45.3760 C   0  0  0  0  0  0  0  0  0  0  0  0
   44.9940   35.6750   44.1470 N   0  0  0  0  0  0  0  0  0  0  0  0
   45.9730   34.9600   43.5570 C   0  0  0  0  0  0  0  0  0  0  0  0
   46.4300   35.2990   42.2960 C   0  0  0  0  0  0  0  0  0  0  0  0
   47.4250   34.5770   41.6940 C   0  0  0  0  0  0  0  0  0  0  0  0
   47.9460   33.5100   42.3850 C   0  0  0  0  0  0  0  0  0  0  0  0
   47.4670   33.2030   43.6330 C   0  0  0  0  0  0  0  0  0  0  0  0
   46.4740   33.8930   44.2810 C   0  0  0  0  0  0  0  0  0  0  0  0
   43.7590   35.9170   45.8570 H   0  0  0  0  0  0  0  0  0  0  0  0
   46.0010   36.1460   41.7730 H   0  0  0  0  0  0  0  0  0  0  0  0
   47.8180   34.8000   40.7120 H   0  0  0  0  0  0  0  0  0  0  0  0
   48.7330   32.9060   41.9560 H   0  0  0  0  0  0  0  0  0  0  0  0
   47.9140   32.3440   44.1430 H   0  0  0  0  0  0  0  0  0  0  0  0
   48.4250   29.6650   48.8730 N   0  0  0  0  0  0  0  0  0  0  0  0
   47.8980   29.1690   49.6230 H   0  0  0  0  0  0  0  0  0  0  0  0
   49.4400   29.3840   48.9150 H   0  0  0  0  0  0  0  0  0  0  0  0
  1  7  1  0  0  0  0
  2  1  1  0  0  0  0
  2 35  1  0  0  0  0
  3  2  2  0  0  0  0
  4  5  2  0  0  0  0
  4  3  1  0  0  0  0
  5  6  1  0  0  0  0
  6  1  2  0  0  0  0
  8  3  1  0  0  0  0
  8 19  1  0  0  0  0
  9 11  2  0  0  0  0
  9  8  1  0  0  0  0
 10  9  1  0  0  0  0
 11 12  1  0  0  0  0
 12 13  2  0  0  0  0
 12 19  1  0  0  0  0
 13 15  1  0  0  0  0
 14 13  1  0  0  0  0
 15 16  2  0  0  0  0
 16 17  1  0  0  0  0
 18 16  1  0  0  0  0
 19 18  2  0  0  0  0
 20 21  1  0  0  0  0
 20  5  1  0  0  0  0
 22 30  1  0  0  0  0
 22 21  2  0  0  0  0
 23 22  1  0  0  0  0
 24 23  2  0  0  0  0
 24 29  1  0  0  0  0
 25 24  1  0  0  0  0
 26 25  2  0  0  0  0
 26 27  1  0  0  0  0
 27 28  2  0  0  0  0
 28 34  1  0  0  0  0
 28 29  1  0  0  0  0
 29 20  2  0  0  0  0
 31 25  1  0  0  0  0
 32 26  1  0  0  0  0
 33 27  1  0  0  0  0
 35 37  1  0  0  0  0
 35 36  1  0  0  0  0
M  END
>  <minimizedAffinity>
-6.28123903

>  <minimizedRMSD>
1.2861923

$$$$
