
 OpenBabel03252507313D

 52 56  0  0  1  0  0  0  0  0999 V2000
   46.9360   32.8200   45.4870 C   0  0  0  0  0  0  0  0  0  0  0  0
   45.8360   33.4870   46.0020 C   0  0  0  0  0  0  0  0  0  0  0  0
   45.1530   34.4340   45.2030 C   0  0  0  0  0  0  0  0  0  0  0  0
   45.6540   34.6320   43.9180 N   0  0  0  0  0  0  0  0  0  0  0  0
   46.7210   33.9570   43.4830 C   0  0  0  0  0  0  0  0  0  0  0  0
   47.3520   33.0660   44.2500 N   0  0  0  0  0  0  0  0  0  0  0  0
   45.3170   33.5200   46.9370 H   0  0  0  0  0  0  0  0  0  0  0  0
   44.3060   35.0280   45.4230 H   0  0  0  0  0  0  0  0  0  0  0  0
   47.2100   34.2270   42.1270 C   0  0  0  0  0  0  0  0  0  0  0  0
   48.2460   35.1070   41.9100 C   0  0  0  0  0  0  0  0  0  0  0  0
   48.7740   35.4240   40.6770 C   0  0  0  0  0  0  0  0  0  0  0  0
   48.1760   34.7790   39.6250 C   0  0  0  0  0  0  0  0  0  0  0  0
   47.1230   33.8810   39.8160 C   0  0  0  0  0  0  0  0  0  0  0  0
   46.6500   33.6140   41.0720 N   0  0  0  0  0  0  0  0  0  0  0  0
   48.6700   35.5810   42.8000 H   0  0  0  0  0  0  0  0  0  0  0  0
   49.5830   36.1130   40.5230 H   0  0  0  0  0  0  0  0  0  0  0  0
   48.4920   34.9350   38.6030 H   0  0  0  0  0  0  0  0  0  0  0  0
   46.5390   33.2390   38.6850 N   0  0  0  0  0  0  0  0  0  0  0  0
   46.7210   33.3820   37.3410 C   0  0  0  0  0  0  0  0  0  0  0  0
   47.4290   34.1010   36.9510 H   0  0  0  0  0  0  0  0  0  0  0  0
   45.9070   32.5180   36.6950 N   0  0  0  0  0  0  0  0  0  0  0  0
   45.1990   31.8160   37.6100 C   0  0  0  0  0  0  0  0  0  0  0  0
   44.2420   30.8200   37.4730 C   0  0  0  0  0  0  0  0  0  0  0  0
   43.9380   30.4730   36.4870 H   0  0  0  0  0  0  0  0  0  0  0  0
   43.6720   30.2670   38.5600 N   0  0  0  0  0  0  0  0  0  0  0  0
   44.0870   30.7360   39.7720 C   0  0  0  0  0  0  0  0  0  0  0  0
   43.6910   30.3590   40.7280 H   0  0  0  0  0  0  0  0  0  0  0  0
   45.0120   31.7000   39.9500 N   0  0  0  0  0  0  0  0  0  0  0  0
   45.5980   32.2700   38.8710 C   0  0  0  0  0  0  0  0  0  0  0  0
   47.5850   31.8420   46.3380 C   0  0  2  0  0  0  0  0  0  0  0  0
   47.3570   30.3930   45.8240 C   0  0  0  0  0  0  0  0  0  0  0  0
   48.1730   29.4430   46.6330 C   0  0  0  0  0  0  0  0  0  0  0  0
   48.1500   29.6570   48.1090 C   0  0  0  0  0  0  0  0  0  0  0  0
   48.1380   31.0440   48.5100 C   0  0  0  0  0  0  0  0  0  0  0  0
   47.1370   31.9120   47.7140 C   0  0  2  0  0  0  0  0  0  0  0  0
   48.6830   31.9620   46.2270 H   0  0  0  0  0  0  0  0  0  0  0  0
   46.3070   30.1100   45.8410 H   0  0  0  0  0  0  0  0  0  0  0  0
   47.6920   30.3710   44.7680 H   0  0  0  0  0  0  0  0  0  0  0  0
   49.1690   29.4080   46.1510 H   0  0  0  0  0  0  0  0  0  0  0  0
   47.7540   28.4100   46.4560 H   0  0  0  0  0  0  0  0  0  0  0  0
   47.7780   28.8540   48.7430 H   0  0  0  0  0  0  0  0  0  0  0  0
   49.2630   29.4100   48.3420 H   0  0  0  0  0  0  0  0  0  0  0  0
   49.0900   31.6270   48.4560 H   0  0  0  0  0  0  0  0  0  0  0  0
   47.8200   31.1650   49.5830 H   0  0  0  0  0  0  0  0  0  0  0  0
   47.2460   32.8710   48.2210 H   0  0  0  0  0  0  0  0  0  0  0  0
   45.8040   31.3180   47.8370 N   0  0  0  0  0  0  0  0  0  0  0  0
   45.1390   30.7310   48.9270 C   0  0  0  0  0  0  0  0  0  0  0  0
   44.6120   31.4160   49.8760 O   0  0  0  0  0  0  0  0  0  0  0  0
   45.0880   29.3030   48.8940 N   0  0  0  0  0  0  0  0  0  0  0  0
   45.1470   31.2050   46.9770 H   0  0  0  0  0  0  0  0  0  0  0  0
   44.7650   28.6710   48.1410 H   0  0  0  0  0  0  0  0  0  0  0  0
   45.4090   28.7420   49.7200 H   0  0  0  0  0  0  0  0  0  0  0  0
  1  2  1  0  0  0  0
  1 30  1  0  0  0  0
  2  7  1  0  0  0  0
  3  8  1  0  0  0  0
  3  2  2  0  0  0  0
  4  3  1  0  0  0  0
  5  4  2  0  0  0  0
  5  6  1  0  0  0  0
  6  1  2  0  0  0  0
  9  5  1  0  0  0  0
 10  9  1  0  0  0  0
 10 15  1  0  0  0  0
 11 10  2  0  0  0  0
 12 13  2  0  0  0  0
 12 11  1  0  0  0  0
 13 14  1  0  0  0  0
 14  9  2  0  0  0  0
 16 11  1  0  0  0  0
 17 12  1  0  0  0  0
 18 29  1  0  0  0  0
 18 13  1  0  0  0  0
 19 18  1  0  0  0  0
 20 19  1  0  0  0  0
 21 19  2  0  0  0  0
 21 22  1  0  0  0  0
 22 29  1  0  0  0  0
 23 22  2  0  0  0  0
 23 25  1  0  0  0  0
 24 23  1  0  0  0  0
 25 26  2  0  0  0  0
 26 28  1  0  0  0  0
 26 27  1  0  0  0  0
 29 28  2  0  0  0  0
 30 36  1  6  0  0  0
 30 35  1  0  0  0  0
 31 37  1  0  0  0  0
 31 30  1  0  0  0  0
 31 32  1  0  0  0  0
 32 33  1  0  0  0  0
 33 42  1  0  0  0  0
 33 34  1  0  0  0  0
 33 41  1  0  0  0  0
 34 44  1  0  0  0  0
 35 46  1  0  0  0  0
 35 45  1  1  0  0  0
 35 34  1  0  0  0  0
 38 31  1  0  0  0  0
 39 32  1  0  0  0  0
 40 32  1  0  0  0  0
 43 34  1  0  0  0  0
 46 47  1  0  0  0  0
 47 48  2  0  0  0  0
 49 47  1  0  0  0  0
 49 52  1  0  0  0  0
 50 46  1  0  0  0  0
 51 49  1  0  0  0  0
M  END
>  <minimizedAffinity>
-6.86084366

>  <minimizedRMSD>
0.247329503

$$$$
