
 OpenBabel03252506353D

 36 39  0  0  1  0  0  0  0  0999 V2000
   38.5470   27.6840   36.3710 C   0  0  0  0  0  0  0  0  0  0  0  0
   37.3850   28.3450   35.9540 C   0  0  0  0  0  0  0  0  0  0  0  0
   36.4180   28.6140   36.8700 C   0  0  0  0  0  0  0  0  0  0  0  0
   36.6580   28.2110   38.1450 N   0  0  0  0  0  0  0  0  0  0  0  0
   37.7550   27.5860   38.5360 C   0  0  0  0  0  0  0  0  0  0  0  0
   38.7350   27.3030   37.6590 N   0  0  0  0  0  0  0  0  0  0  0  0
   37.8730   27.2170   39.8940 N   0  0  0  0  0  0  0  0  0  0  0  0
   39.1200   26.7920   40.5450 C   0  0  0  0  0  0  0  0  0  0  0  0
   38.6200   25.7050   41.4740 C   0  0  0  0  0  0  0  0  0  0  0  0
   37.1240   25.7920   41.5080 C   0  0  0  0  0  0  0  0  0  0  0  0
   36.8670   27.1630   40.9310 C   0  0  1  0  0  0  0  0  0  0  0  0
   39.3350   27.4650   35.6340 H   0  0  0  0  0  0  0  0  0  0  0  0
   35.5440   29.1170   36.5280 H   0  0  0  0  0  0  0  0  0  0  0  0
   39.6070   27.6190   41.0850 H   0  0  0  0  0  0  0  0  0  0  0  0
   39.8170   26.4270   39.7700 H   0  0  0  0  0  0  0  0  0  0  0  0
   39.0570   25.8670   42.4940 H   0  0  0  0  0  0  0  0  0  0  0  0
   38.9370   24.7330   41.0410 H   0  0  0  0  0  0  0  0  0  0  0  0
   36.6310   24.9920   40.9180 H   0  0  0  0  0  0  0  0  0  0  0  0
   36.7150   25.7950   42.5440 H   0  0  0  0  0  0  0  0  0  0  0  0
   35.8740   27.2530   40.4640 H   0  0  0  0  0  0  0  0  0  0  0  0
   37.3180   28.6850   34.5640 N   0  0  0  0  0  0  0  0  0  0  0  0
   37.8650   28.1480   33.8570 H   0  0  0  0  0  0  0  0  0  0  0  0
   36.7100   29.4840   34.2510 H   0  0  0  0  0  0  0  0  0  0  0  0
   37.1340   28.3990   42.2160 S   0  0  0  0  0  0  0  0  0  0  0  0
   39.5740   30.1470   42.2390 H   0  0  0  0  0  0  0  0  0  0  0  0
   38.7460   30.5300   41.7370 N   0  0  0  0  0  0  0  0  0  0  0  0
   37.5260   30.0020   41.5520 C   0  0  0  0  0  0  0  0  0  0  0  0
   36.7530   30.8620   40.8290 N   0  0  0  0  0  0  0  0  0  0  0  0
   37.5270   31.9580   40.5610 C   0  0  0  0  0  0  0  0  0  0  0  0
   37.4050   33.1520   39.9080 C   0  0  0  0  0  0  0  0  0  0  0  0
   36.4270   33.3450   39.4470 H   0  0  0  0  0  0  0  0  0  0  0  0
   38.4000   34.0420   39.8220 N   0  0  0  0  0  0  0  0  0  0  0  0
   39.5940   33.8150   40.3810 C   0  0  0  0  0  0  0  0  0  0  0  0
   40.3120   34.6090   40.2420 H   0  0  0  0  0  0  0  0  0  0  0  0
   39.7720   32.6620   41.0340 N   0  0  0  0  0  0  0  0  0  0  0  0
   38.7750   31.7350   41.1370 C   0  0  0  0  0  0  0  0  0  0  0  0
  1  6  1  0  0  0  0
  2  1  2  0  0  0  0
  2  3  1  0  0  0  0
  3  4  2  0  0  0  0
  4  5  1  0  0  0  0
  5  7  1  0  0  0  0
  6  5  2  0  0  0  0
  7  8  1  0  0  0  0
  7 11  1  0  0  0  0
  8 14  1  0  0  0  0
  8  9  1  0  0  0  0
  9 10  1  0  0  0  0
  9 16  1  0  0  0  0
 10 19  1  0  0  0  0
 11 20  1  6  0  0  0
 11 10  1  0  0  0  0
 11 24  1  0  0  0  0
 12  1  1  0  0  0  0
 13  3  1  0  0  0  0
 15  8  1  0  0  0  0
 17  9  1  0  0  0  0
 18 10  1  0  0  0  0
 21  2  1  0  0  0  0
 22 21  1  0  0  0  0
 23 21  1  0  0  0  0
 26 25  1  0  0  0  0
 27 26  1  0  0  0  0
 27 24  1  0  0  0  0
 28 27  2  0  0  0  0
 29 28  1  0  0  0  0
 29 36  1  0  0  0  0
 30 29  2  0  0  0  0
 31 30  1  0  0  0  0
 32 30  1  0  0  0  0
 32 33  2  0  0  0  0
 33 35  1  0  0  0  0
 34 33  1  0  0  0  0
 35 36  2  0  0  0  0
 36 26  1  0  0  0  0
M  END
>  <minimizedAffinity>
-5.38574934

$$$$

 OpenBabel03252506353D

 36 39  0  0  1  0  0  0  0  0999 V2000
   37.8560   32.6200   38.9030 C   0  0  0  0  0  0  0  0  0  0  0  0
   37.7990   32.5840   40.3020 C   0  0  0  0  0  0  0  0  0  0  0  0
   37.1550   31.5520   40.9070 C   0  0  0  0  0  0  0  0  0  0  0  0
   36.6030   30.6160   40.0920 N   0  0  0  0  0  0  0  0  0  0  0  0
   36.6570   30.6520   38.7710 C   0  0  0  0  0  0  0  0  0  0  0  0
   37.2870   31.6570   38.1360 N   0  0  0  0  0  0  0  0  0  0  0  0
   36.0350   29.6150   38.0420 N   0  0  0  0  0  0  0  0  0  0  0  0
   36.2470   29.3470   36.6130 C   0  0  0  0  0  0  0  0  0  0  0  0
   34.8540   28.9470   36.1710 C   0  0  0  0  0  0  0  0  0  0  0  0
   34.0330   28.7290   37.4060 C   0  0  0  0  0  0  0  0  0  0  0  0
   35.0880   28.6140   38.4790 C   0  0  1  0  0  0  0  0  0  0  0  0
   38.3780   33.4530   38.4080 H   0  0  0  0  0  0  0  0  0  0  0  0
   37.1240   31.5480   41.9720 H   0  0  0  0  0  0  0  0  0  0  0  0
   36.9880   28.5480   36.4490 H   0  0  0  0  0  0  0  0  0  0  0  0
   36.6180   30.2680   36.1310 H   0  0  0  0  0  0  0  0  0  0  0  0
   34.9210   28.0090   35.5600 H   0  0  0  0  0  0  0  0  0  0  0  0
   34.4420   29.7940   35.5820 H   0  0  0  0  0  0  0  0  0  0  0  0
   33.3240   29.5590   37.6050 H   0  0  0  0  0  0  0  0  0  0  0  0
   33.4800   27.7630   37.3910 H   0  0  0  0  0  0  0  0  0  0  0  0
   34.7160   28.8920   39.4780 H   0  0  0  0  0  0  0  0  0  0  0  0
   38.4390   33.6680   40.9870 N   0  0  0  0  0  0  0  0  0  0  0  0
   38.5730   34.5900   40.5180 H   0  0  0  0  0  0  0  0  0  0  0  0
   38.7780   33.5340   41.9730 H   0  0  0  0  0  0  0  0  0  0  0  0
   35.7800   26.9490   38.4450 S   0  0  0  0  0  0  0  0  0  0  0  0
   36.6630   28.5320   40.8370 H   0  0  0  0  0  0  0  0  0  0  0  0
   37.0260   27.5580   40.7780 N   0  0  0  0  0  0  0  0  0  0  0  0
   36.8200   26.6120   39.8470 C   0  0  0  0  0  0  0  0  0  0  0  0
   37.5000   25.4780   40.1800 N   0  0  0  0  0  0  0  0  0  0  0  0
   38.1480   25.7370   41.3570 C   0  0  0  0  0  0  0  0  0  0  0  0
   38.9720   25.0820   42.2270 C   0  0  0  0  0  0  0  0  0  0  0  0
   39.2260   24.0480   41.9570 H   0  0  0  0  0  0  0  0  0  0  0  0
   39.4520   25.6450   43.3430 N   0  0  0  0  0  0  0  0  0  0  0  0
   39.1480   26.9030   43.6790 C   0  0  0  0  0  0  0  0  0  0  0  0
   39.5970   27.2410   44.6010 H   0  0  0  0  0  0  0  0  0  0  0  0
   38.3440   27.5940   42.8640 N   0  0  0  0  0  0  0  0  0  0  0  0
   37.8400   27.0460   41.7190 C   0  0  0  0  0  0  0  0  0  0  0  0
  1  2  1  0  0  0  0
  2  3  2  0  0  0  0
  2 21  1  0  0  0  0
  3 13  1  0  0  0  0
  4  3  1  0  0  0  0
  5  4  2  0  0  0  0
  6  5  1  0  0  0  0
  6  1  2  0  0  0  0
  7 11  1  0  0  0  0
  7  5  1  0  0  0  0
  8  7  1  0  0  0  0
  9  8  1  0  0  0  0
  9 10  1  0  0  0  0
 10 18  1  0  0  0  0
 10 11  1  0  0  0  0
 11 20  1  1  0  0  0
 12  1  1  0  0  0  0
 14  8  1  0  0  0  0
 15  8  1  0  0  0  0
 16  9  1  0  0  0  0
 17  9  1  0  0  0  0
 19 10  1  0  0  0  0
 21 23  1  0  0  0  0
 22 21  1  0  0  0  0
 24 11  1  0  0  0  0
 24 27  1  0  0  0  0
 26 25  1  0  0  0  0
 26 36  1  0  0  0  0
 27 28  2  0  0  0  0
 27 26  1  0  0  0  0
 28 29  1  0  0  0  0
 29 36  2  0  0  0  0
 29 30  1  0  0  0  0
 30 32  2  0  0  0  0
 31 30  1  0  0  0  0
 32 33  1  0  0  0  0
 33 34  1  0  0  0  0
 35 33  2  0  0  0  0
 36 35  1  0  0  0  0
M  END
>  <minimizedAffinity>
-5.3513999

$$$$

 OpenBabel03252506353D

 36 39  0  0  1  0  0  0  0  0999 V2000
   38.5540   27.4380   36.3820 C   0  0  0  0  0  0  0  0  0  0  0  0
   37.4370   28.2120   36.0410 C   0  0  0  0  0  0  0  0  0  0  0  0
   36.5200   28.5000   37.0010 C   0  0  0  0  0  0  0  0  0  0  0  0
   36.7620   28.0040   38.2430 N   0  0  0  0  0  0  0  0  0  0  0  0
   37.8160   27.2740   38.5620 C   0  0  0  0  0  0  0  0  0  0  0  0
   38.7460   26.9680   37.6390 N   0  0  0  0  0  0  0  0  0  0  0  0
   37.9420   26.8160   39.8920 N   0  0  0  0  0  0  0  0  0  0  0  0
   39.1680   26.2560   40.4770 C   0  0  0  0  0  0  0  0  0  0  0  0
   38.6090   25.1580   41.3580 C   0  0  0  0  0  0  0  0  0  0  0  0
   37.1260   25.3590   41.4440 C   0  0  0  0  0  0  0  0  0  0  0  0
   36.9630   26.7780   40.9560 C   0  0  1  0  0  0  0  0  0  0  0  0
   39.3010   27.2040   35.6080 H   0  0  0  0  0  0  0  0  0  0  0  0
   35.6800   29.0890   36.7170 H   0  0  0  0  0  0  0  0  0  0  0  0
   39.7330   27.0100   41.0490 H   0  0  0  0  0  0  0  0  0  0  0  0
   39.8120   25.8860   39.6610 H   0  0  0  0  0  0  0  0  0  0  0  0
   39.0850   25.2250   42.3710 H   0  0  0  0  0  0  0  0  0  0  0  0
   38.8350   24.1920   40.8600 H   0  0  0  0  0  0  0  0  0  0  0  0
   36.5550   24.6370   40.8260 H   0  0  0  0  0  0  0  0  0  0  0  0
   36.7470   25.3320   42.4910 H   0  0  0  0  0  0  0  0  0  0  0  0
   35.9680   26.9730   40.5260 H   0  0  0  0  0  0  0  0  0  0  0  0
   37.3590   28.6380   34.6750 N   0  0  0  0  0  0  0  0  0  0  0  0
   37.8430   28.1050   33.9210 H   0  0  0  0  0  0  0  0  0  0  0  0
   36.8090   29.5000   34.4290 H   0  0  0  0  0  0  0  0  0  0  0  0
   37.3620   27.9100   42.3010 S   0  0  0  0  0  0  0  0  0  0  0  0
   35.9890   29.8570   40.4740 H   0  0  0  0  0  0  0  0  0  0  0  0
   36.8900   30.1780   40.8860 N   0  0  0  0  0  0  0  0  0  0  0  0
   37.7310   29.5520   41.7250 C   0  0  0  0  0  0  0  0  0  0  0  0
   38.7960   30.3580   42.0020 N   0  0  0  0  0  0  0  0  0  0  0  0
   38.6020   31.5210   41.3080 C   0  0  0  0  0  0  0  0  0  0  0  0
   39.2410   32.7150   41.1280 C   0  0  0  0  0  0  0  0  0  0  0  0
   40.1890   32.8340   41.6690 H   0  0  0  0  0  0  0  0  0  0  0  0
   38.7600   33.6910   40.3490 N   0  0  0  0  0  0  0  0  0  0  0  0
   37.6070   33.5550   39.6870 C   0  0  0  0  0  0  0  0  0  0  0  0
   37.3270   34.4110   39.0920 H   0  0  0  0  0  0  0  0  0  0  0  0
   36.9360   32.4060   39.8240 N   0  0  0  0  0  0  0  0  0  0  0  0
   37.4020   31.3930   40.6130 C   0  0  0  0  0  0  0  0  0  0  0  0
  1  6  1  0  0  0  0
  2  1  2  0  0  0  0
  2  3  1  0  0  0  0
  3  4  2  0  0  0  0
  4  5  1  0  0  0  0
  5  7  1  0  0  0  0
  6  5  2  0  0  0  0
  7  8  1  0  0  0  0
  7 11  1  0  0  0  0
  8 14  1  0  0  0  0
  8  9  1  0  0  0  0
  9 10  1  0  0  0  0
  9 16  1  0  0  0  0
 10 19  1  0  0  0  0
 11 20  1  6  0  0  0
 11 10  1  0  0  0  0
 11 24  1  0  0  0  0
 12  1  1  0  0  0  0
 13  3  1  0  0  0  0
 15  8  1  0  0  0  0
 17  9  1  0  0  0  0
 18 10  1  0  0  0  0
 21  2  1  0  0  0  0
 22 21  1  0  0  0  0
 23 21  1  0  0  0  0
 25 26  1  0  0  0  0
 26 27  1  0  0  0  0
 27 28  2  0  0  0  0
 27 24  1  0  0  0  0
 29 28  1  0  0  0  0
 30 29  1  0  0  0  0
 30 31  1  0  0  0  0
 32 30  2  0  0  0  0
 33 35  2  0  0  0  0
 33 32  1  0  0  0  0
 34 33  1  0  0  0  0
 35 36  1  0  0  0  0
 36 26  1  0  0  0  0
 36 29  2  0  0  0  0
M  END
>  <minimizedAffinity>
-5.25550413

$$$$

 OpenBabel03252506353D

 36 39  0  0  1  0  0  0  0  0999 V2000
   37.4740   28.3500   37.0770 C   0  0  0  0  0  0  0  0  0  0  0  0
   37.0680   29.6710   36.8500 C   0  0  0  0  0  0  0  0  0  0  0  0
   36.8620   30.4880   37.9150 C   0  0  0  0  0  0  0  0  0  0  0  0
   37.0690   29.9490   39.1450 N   0  0  0  0  0  0  0  0  0  0  0  0
   37.4520   28.7010   39.3570 C   0  0  0  0  0  0  0  0  0  0  0  0
   37.6670   27.8630   38.3280 N   0  0  0  0  0  0  0  0  0  0  0  0
   37.6250   28.2670   40.6900 N   0  0  0  0  0  0  0  0  0  0  0  0
   38.3150   27.0320   41.0890 C   0  0  0  0  0  0  0  0  0  0  0  0
   37.4630   26.5730   42.2540 C   0  0  0  0  0  0  0  0  0  0  0  0
   36.5490   27.7040   42.6190 C   0  0  0  0  0  0  0  0  0  0  0  0
   37.1970   28.8790   41.9280 C   0  0  1  0  0  0  0  0  0  0  0  0
   37.6430   27.6850   36.2170 H   0  0  0  0  0  0  0  0  0  0  0  0
   36.5530   31.4870   37.7170 H   0  0  0  0  0  0  0  0  0  0  0  0
   39.3610   27.2200   41.3790 H   0  0  0  0  0  0  0  0  0  0  0  0
   38.3130   26.3330   40.2350 H   0  0  0  0  0  0  0  0  0  0  0  0
   38.1320   26.3020   43.1120 H   0  0  0  0  0  0  0  0  0  0  0  0
   36.8700   25.7020   41.9030 H   0  0  0  0  0  0  0  0  0  0  0  0
   35.5060   27.5440   42.2790 H   0  0  0  0  0  0  0  0  0  0  0  0
   36.5540   27.9280   43.7100 H   0  0  0  0  0  0  0  0  0  0  0  0
   36.4850   29.6860   41.6940 H   0  0  0  0  0  0  0  0  0  0  0  0
   36.8980   30.0510   35.4780 N   0  0  0  0  0  0  0  0  0  0  0  0
   36.6940   29.3360   34.7480 H   0  0  0  0  0  0  0  0  0  0  0  0
   36.9810   31.0630   35.2030 H   0  0  0  0  0  0  0  0  0  0  0  0
   38.5830   29.4560   42.9270 S   0  0  0  0  0  0  0  0  0  0  0  0
   37.9610   31.5600   40.8800 H   0  0  0  0  0  0  0  0  0  0  0  0
   38.9450   31.5330   41.2180 N   0  0  0  0  0  0  0  0  0  0  0  0
   39.5300   30.7230   42.1150 C   0  0  0  0  0  0  0  0  0  0  0  0
   40.8480   31.0510   42.2470 N   0  0  0  0  0  0  0  0  0  0  0  0
   41.0800   32.1000   41.4000 C   0  0  0  0  0  0  0  0  0  0  0  0
   42.1270   32.8980   41.0360 C   0  0  0  0  0  0  0  0  0  0  0  0
   43.0840   32.6830   41.5300 H   0  0  0  0  0  0  0  0  0  0  0  0
   42.0160   33.8850   40.1400 N   0  0  0  0  0  0  0  0  0  0  0  0
   40.8540   34.1540   39.5340 C   0  0  0  0  0  0  0  0  0  0  0  0
   40.8940   34.9730   38.8310 H   0  0  0  0  0  0  0  0  0  0  0  0
   39.7930   33.4050   39.8500 N   0  0  0  0  0  0  0  0  0  0  0  0
   39.8770   32.3910   40.7620 C   0  0  0  0  0  0  0  0  0  0  0  0
  1  6  1  0  0  0  0
  2  1  2  0  0  0  0
  2  3  1  0  0  0  0
  3  4  2  0  0  0  0
  4  5  1  0  0  0  0
  5  7  1  0  0  0  0
  6  5  2  0  0  0  0
  7  8  1  0  0  0  0
  7 11  1  0  0  0  0
  8 14  1  0  0  0  0
  8  9  1  0  0  0  0
  9 10  1  0  0  0  0
  9 16  1  0  0  0  0
 10 19  1  0  0  0  0
 11 20  1  6  0  0  0
 11 10  1  0  0  0  0
 11 24  1  0  0  0  0
 12  1  1  0  0  0  0
 13  3  1  0  0  0  0
 15  8  1  0  0  0  0
 17  9  1  0  0  0  0
 18 10  1  0  0  0  0
 21  2  1  0  0  0  0
 22 21  1  0  0  0  0
 23 21  1  0  0  0  0
 25 26  1  0  0  0  0
 26 27  1  0  0  0  0
 27 28  2  0  0  0  0
 27 24  1  0  0  0  0
 29 28  1  0  0  0  0
 30 29  1  0  0  0  0
 30 31  1  0  0  0  0
 32 30  2  0  0  0  0
 33 35  2  0  0  0  0
 33 32  1  0  0  0  0
 34 33  1  0  0  0  0
 35 36  1  0  0  0  0
 36 26  1  0  0  0  0
 36 29  2  0  0  0  0
M  END
>  <minimizedAffinity>
-5.21786737

$$$$

 OpenBabel03252506353D

 36 39  0  0  1  0  0  0  0  0999 V2000
   37.0220   30.0960   36.5730 C   0  0  0  0  0  0  0  0  0  0  0  0
   37.9220   29.0530   36.3220 C   0  0  0  0  0  0  0  0  0  0  0  0
   39.0200   28.9290   37.1110 C   0  0  0  0  0  0  0  0  0  0  0  0
   39.1650   29.8470   38.1020 N   0  0  0  0  0  0  0  0  0  0  0  0
   38.3150   30.8320   38.3370 C   0  0  0  0  0  0  0  0  0  0  0  0
   37.2150   30.9860   37.5780 N   0  0  0  0  0  0  0  0  0  0  0  0
   38.5900   31.7210   39.3980 N   0  0  0  0  0  0  0  0  0  0  0  0
   37.6250   32.6700   39.9730 C   0  0  0  0  0  0  0  0  0  0  0  0
   38.5090   33.8680   40.2500 C   0  0  0  0  0  0  0  0  0  0  0  0
   39.9330   33.4250   40.0990 C   0  0  0  0  0  0  0  0  0  0  0  0
   39.8100   31.9210   40.1480 C   0  0  1  0  0  0  0  0  0  0  0  0
   36.1290   30.2000   35.9380 H   0  0  0  0  0  0  0  0  0  0  0  0
   39.6900   28.1280   36.9000 H   0  0  0  0  0  0  0  0  0  0  0  0
   37.1510   32.2740   40.8850 H   0  0  0  0  0  0  0  0  0  0  0  0
   36.8350   32.8650   39.2270 H   0  0  0  0  0  0  0  0  0  0  0  0
   38.3090   34.2360   41.2900 H   0  0  0  0  0  0  0  0  0  0  0  0
   38.2660   34.6380   39.4870 H   0  0  0  0  0  0  0  0  0  0  0  0
   40.3970   33.7750   39.1550 H   0  0  0  0  0  0  0  0  0  0  0  0
   40.5720   33.7250   40.9600 H   0  0  0  0  0  0  0  0  0  0  0  0
   40.6320   31.4060   39.6280 H   0  0  0  0  0  0  0  0  0  0  0  0
   37.5950   28.1890   35.2260 N   0  0  0  0  0  0  0  0  0  0  0  0
   36.9920   28.5240   34.4440 H   0  0  0  0  0  0  0  0  0  0  0  0
   37.9670   27.2050   35.2090 H   0  0  0  0  0  0  0  0  0  0  0  0
   39.6550   31.4010   41.8680 S   0  0  0  0  0  0  0  0  0  0  0  0
   39.9840   28.7540   40.4930 H   0  0  0  0  0  0  0  0  0  0  0  0
   39.2640   28.7880   41.2450 N   0  0  0  0  0  0  0  0  0  0  0  0
   38.8850   29.8070   42.0330 C   0  0  0  0  0  0  0  0  0  0  0  0
   37.9000   29.3940   42.8820 N   0  0  0  0  0  0  0  0  0  0  0  0
   37.6680   28.0750   42.6060 C   0  0  0  0  0  0  0  0  0  0  0  0
   36.8540   27.0720   43.0520 C   0  0  0  0  0  0  0  0  0  0  0  0
   36.1660   27.3430   43.8640 H   0  0  0  0  0  0  0  0  0  0  0  0
   36.8780   25.8330   42.5480 N   0  0  0  0  0  0  0  0  0  0  0  0
   37.7130   25.4960   41.5590 C   0  0  0  0  0  0  0  0  0  0  0  0
   37.6360   24.4670   41.2390 H   0  0  0  0  0  0  0  0  0  0  0  0
   38.5340   26.4360   41.0810 N   0  0  0  0  0  0  0  0  0  0  0  0
   38.5310   27.7090   41.5770 C   0  0  0  0  0  0  0  0  0  0  0  0
  1  6  1  0  0  0  0
  2  1  2  0  0  0  0
  2  3  1  0  0  0  0
  3  4  2  0  0  0  0
  4  5  1  0  0  0  0
  5  7  1  0  0  0  0
  6  5  2  0  0  0  0
  7  8  1  0  0  0  0
  7 11  1  0  0  0  0
  8  9  1  0  0  0  0
  8 14  1  0  0  0  0
  9 16  1  0  0  0  0
 10 11  1  0  0  0  0
 10  9  1  0  0  0  0
 10 19  1  0  0  0  0
 11 20  1  6  0  0  0
 11 24  1  0  0  0  0
 12  1  1  0  0  0  0
 13  3  1  0  0  0  0
 15  8  1  0  0  0  0
 17  9  1  0  0  0  0
 18 10  1  0  0  0  0
 21  2  1  0  0  0  0
 22 21  1  0  0  0  0
 23 21  1  0  0  0  0
 24 27  1  0  0  0  0
 25 26  1  0  0  0  0
 26 36  1  0  0  0  0
 26 27  1  0  0  0  0
 27 28  2  0  0  0  0
 29 28  1  0  0  0  0
 29 30  1  0  0  0  0
 30 31  1  0  0  0  0
 32 30  2  0  0  0  0
 33 32  1  0  0  0  0
 34 33  1  0  0  0  0
 35 33  2  0  0  0  0
 35 36  1  0  0  0  0
 36 29  2  0  0  0  0
M  END
>  <minimizedAffinity>
-5.18094158

$$$$

 OpenBabel03252506353D

 36 39  0  0  1  0  0  0  0  0999 V2000
   36.0510   27.2890   37.1420 C   0  0  0  0  0  0  0  0  0  0  0  0
   35.1140   28.3220   37.2710 C   0  0  0  0  0  0  0  0  0  0  0  0
   34.9190   28.8840   38.4930 C   0  0  0  0  0  0  0  0  0  0  0  0
   35.6630   28.3890   39.5160 N   0  0  0  0  0  0  0  0  0  0  0  0
   36.5460   27.4130   39.3920 C   0  0  0  0  0  0  0  0  0  0  0  0
   36.7670   26.8330   38.1990 N   0  0  0  0  0  0  0  0  0  0  0  0
   37.2480   26.9890   40.5420 N   0  0  0  0  0  0  0  0  0  0  0  0
   38.4490   26.1420   40.5300 C   0  0  0  0  0  0  0  0  0  0  0  0
   38.2150   25.2700   41.7460 C   0  0  0  0  0  0  0  0  0  0  0  0
   37.0780   25.8670   42.5190 C   0  0  0  0  0  0  0  0  0  0  0  0
   36.9880   27.2570   41.9390 C   0  0  1  0  0  0  0  0  0  0  0  0
   36.2130   26.8320   36.1540 H   0  0  0  0  0  0  0  0  0  0  0  0
   34.2010   29.6670   38.5650 H   0  0  0  0  0  0  0  0  0  0  0  0
   39.3730   26.7350   40.6070 H   0  0  0  0  0  0  0  0  0  0  0  0
   38.4750   25.5800   39.5800 H   0  0  0  0  0  0  0  0  0  0  0  0
   39.1520   25.2440   42.3620 H   0  0  0  0  0  0  0  0  0  0  0  0
   37.9370   24.2600   41.3770 H   0  0  0  0  0  0  0  0  0  0  0  0
   36.1300   25.3030   42.3990 H   0  0  0  0  0  0  0  0  0  0  0  0
   37.3070   25.9830   43.6030 H   0  0  0  0  0  0  0  0  0  0  0  0
   35.9820   27.6970   42.0320 H   0  0  0  0  0  0  0  0  0  0  0  0
   34.4250   28.7020   36.0730 N   0  0  0  0  0  0  0  0  0  0  0  0
   34.3180   28.0290   35.2840 H   0  0  0  0  0  0  0  0  0  0  0  0
   34.0240   29.6700   35.9870 H   0  0  0  0  0  0  0  0  0  0  0  0
   38.2600   28.2900   42.6910 S   0  0  0  0  0  0  0  0  0  0  0  0
   36.4020   29.9850   41.0540 H   0  0  0  0  0  0  0  0  0  0  0  0
   37.3430   30.3920   41.2380 N   0  0  0  0  0  0  0  0  0  0  0  0
   38.3820   29.8910   41.9250 C   0  0  0  0  0  0  0  0  0  0  0  0
   39.4200   30.7760   41.9070 N   0  0  0  0  0  0  0  0  0  0  0  0
   39.0030   31.8590   41.1830 C   0  0  0  0  0  0  0  0  0  0  0  0
   39.5020   33.0640   40.7810 C   0  0  0  0  0  0  0  0  0  0  0  0
   40.5310   33.2830   41.0970 H   0  0  0  0  0  0  0  0  0  0  0  0
   38.8020   33.9380   40.0490 N   0  0  0  0  0  0  0  0  0  0  0  0
   37.5490   33.6800   39.6590 C   0  0  0  0  0  0  0  0  0  0  0  0
   37.0910   34.4630   39.0730 H   0  0  0  0  0  0  0  0  0  0  0  0
   37.0060   32.5140   40.0230 N   0  0  0  0  0  0  0  0  0  0  0  0
   37.6980   31.6030   40.7700 C   0  0  0  0  0  0  0  0  0  0  0  0
  1  2  2  0  0  0  0
  1  6  1  0  0  0  0
  2  3  1  0  0  0  0
  3 13  1  0  0  0  0
  3  4  2  0  0  0  0
  5  4  1  0  0  0  0
  5  7  1  0  0  0  0
  6  5  2  0  0  0  0
  7 11  1  0  0  0  0
  8  7  1  0  0  0  0
  8 14  1  0  0  0  0
  8  9  1  0  0  0  0
  9 16  1  0  0  0  0
  9 10  1  0  0  0  0
 10 19  1  0  0  0  0
 11 20  1  1  0  0  0
 11 10  1  0  0  0  0
 11 24  1  0  0  0  0
 12  1  1  0  0  0  0
 15  8  1  0  0  0  0
 17  9  1  0  0  0  0
 18 10  1  0  0  0  0
 21  2  1  0  0  0  0
 22 21  1  0  0  0  0
 23 21  1  0  0  0  0
 25 26  1  0  0  0  0
 26 27  1  0  0  0  0
 27 24  1  0  0  0  0
 28 27  2  0  0  0  0
 29 28  1  0  0  0  0
 30 31  1  0  0  0  0
 30 29  1  0  0  0  0
 32 30  2  0  0  0  0
 33 35  2  0  0  0  0
 33 32  1  0  0  0  0
 34 33  1  0  0  0  0
 35 36  1  0  0  0  0
 36 29  2  0  0  0  0
 36 26  1  0  0  0  0
M  END
>  <minimizedAffinity>
-5.04176903

$$$$

 OpenBabel03252506353D

 36 39  0  0  1  0  0  0  0  0999 V2000
   36.7830   29.7090   36.6070 C   0  0  0  0  0  0  0  0  0  0  0  0
   37.5690   28.5750   36.3650 C   0  0  0  0  0  0  0  0  0  0  0  0
   38.5830   28.2830   37.2210 C   0  0  0  0  0  0  0  0  0  0  0  0
   38.7610   29.1320   38.2670 N   0  0  0  0  0  0  0  0  0  0  0  0
   38.0180   30.2020   38.4930 C   0  0  0  0  0  0  0  0  0  0  0  0
   37.0040   30.5230   37.6690 N   0  0  0  0  0  0  0  0  0  0  0  0
   38.3150   31.0040   39.6170 N   0  0  0  0  0  0  0  0  0  0  0  0
   37.4300   32.0370   40.1720 C   0  0  0  0  0  0  0  0  0  0  0  0
   38.4260   33.1050   40.5740 C   0  0  0  0  0  0  0  0  0  0  0  0
   39.7950   32.4970   40.4990 C   0  0  0  0  0  0  0  0  0  0  0  0
   39.4910   31.0200   40.4600 C   0  0  1  0  0  0  0  0  0  0  0  0
   35.9600   29.9480   35.9180 H   0  0  0  0  0  0  0  0  0  0  0  0
   39.1670   27.4170   37.0150 H   0  0  0  0  0  0  0  0  0  0  0  0
   36.8440   31.6620   41.0270 H   0  0  0  0  0  0  0  0  0  0  0  0
   36.7260   32.3590   39.3850 H   0  0  0  0  0  0  0  0  0  0  0  0
   38.1930   33.4480   41.6150 H   0  0  0  0  0  0  0  0  0  0  0  0
   38.3340   33.9310   39.8370 H   0  0  0  0  0  0  0  0  0  0  0  0
   40.3670   32.8290   39.6090 H   0  0  0  0  0  0  0  0  0  0  0  0
   40.3980   32.6790   41.4170 H   0  0  0  0  0  0  0  0  0  0  0  0
   40.2830   30.4310   39.9710 H   0  0  0  0  0  0  0  0  0  0  0  0
   37.2260   27.8070   35.2050 N   0  0  0  0  0  0  0  0  0  0  0  0
   36.7280   28.2470   34.4020 H   0  0  0  0  0  0  0  0  0  0  0  0
   37.4790   26.7870   35.1610 H   0  0  0  0  0  0  0  0  0  0  0  0
   39.1460   30.4470   42.1350 S   0  0  0  0  0  0  0  0  0  0  0  0
   38.3380   28.1230   40.4170 H   0  0  0  0  0  0  0  0  0  0  0  0
   38.7980   27.8820   41.3190 N   0  0  0  0  0  0  0  0  0  0  0  0
   39.2680   28.6800   42.2910 C   0  0  0  0  0  0  0  0  0  0  0  0
   39.7940   27.9250   43.2980 N   0  0  0  0  0  0  0  0  0  0  0  0
   39.6420   26.6160   42.9300 C   0  0  0  0  0  0  0  0  0  0  0  0
   39.9300   25.3790   43.4340 C   0  0  0  0  0  0  0  0  0  0  0  0
   40.4250   25.3690   44.4150 H   0  0  0  0  0  0  0  0  0  0  0  0
   39.6390   24.2420   42.7920 N   0  0  0  0  0  0  0  0  0  0  0  0
   39.0380   24.2470   41.5980 C   0  0  0  0  0  0  0  0  0  0  0  0
   38.8570   23.2660   41.1830 H   0  0  0  0  0  0  0  0  0  0  0  0
   38.7310   25.4290   41.0540 N   0  0  0  0  0  0  0  0  0  0  0  0
   39.0160   26.6050   41.6860 C   0  0  0  0  0  0  0  0  0  0  0  0
  1  6  1  0  0  0  0
  2  1  2  0  0  0  0
  2  3  1  0  0  0  0
  3  4  2  0  0  0  0
  4  5  1  0  0  0  0
  5  7  1  0  0  0  0
  6  5  2  0  0  0  0
  7  8  1  0  0  0  0
  7 11  1  0  0  0  0
  8  9  1  0  0  0  0
  8 14  1  0  0  0  0
  9 16  1  0  0  0  0
 10  9  1  0  0  0  0
 10 19  1  0  0  0  0
 11 20  1  6  0  0  0
 11 10  1  0  0  0  0
 11 24  1  0  0  0  0
 12  1  1  0  0  0  0
 13  3  1  0  0  0  0
 15  8  1  0  0  0  0
 17  9  1  0  0  0  0
 18 10  1  0  0  0  0
 21  2  1  0  0  0  0
 22 21  1  0  0  0  0
 23 21  1  0  0  0  0
 24 27  1  0  0  0  0
 25 26  1  0  0  0  0
 26 36  1  0  0  0  0
 26 27  1  0  0  0  0
 27 28  2  0  0  0  0
 29 28  1  0  0  0  0
 29 30  1  0  0  0  0
 30 31  1  0  0  0  0
 32 30  2  0  0  0  0
 33 32  1  0  0  0  0
 34 33  1  0  0  0  0
 35 33  2  0  0  0  0
 35 36  1  0  0  0  0
 36 29  2  0  0  0  0
M  END
>  <minimizedAffinity>
-4.97095823

$$$$

 OpenBabel03252506353D

 36 39  0  0  1  0  0  0  0  0999 V2000
   40.3510   24.4300   42.8770 C   0  0  0  0  0  0  0  0  0  0  0  0
   41.3460   25.4160   42.8580 C   0  0  0  0  0  0  0  0  0  0  0  0
   41.1660   26.5160   42.0810 C   0  0  0  0  0  0  0  0  0  0  0  0
   40.0110   26.5750   41.3660 N   0  0  0  0  0  0  0  0  0  0  0  0
   39.0750   25.6420   41.3850 C   0  0  0  0  0  0  0  0  0  0  0  0
   39.2160   24.5390   42.1430 N   0  0  0  0  0  0  0  0  0  0  0  0
   37.9240   25.8260   40.5880 N   0  0  0  0  0  0  0  0  0  0  0  0
   36.6810   25.0520   40.7120 C   0  0  0  0  0  0  0  0  0  0  0  0
   36.2690   24.9070   39.2610 C   0  0  0  0  0  0  0  0  0  0  0  0
   37.1200   25.8410   38.4540 C   0  0  0  0  0  0  0  0  0  0  0  0
   37.6820   26.7600   39.5110 C   0  0  1  0  0  0  0  0  0  0  0  0
   40.4920   23.5380   43.5060 H   0  0  0  0  0  0  0  0  0  0  0  0
   41.9360   27.2510   42.0830 H   0  0  0  0  0  0  0  0  0  0  0  0
   35.9250   25.5790   41.3150 H   0  0  0  0  0  0  0  0  0  0  0  0
   36.9110   24.0920   41.2060 H   0  0  0  0  0  0  0  0  0  0  0  0
   35.1820   25.1640   39.1630 H   0  0  0  0  0  0  0  0  0  0  0  0
   36.4720   23.8550   38.9670 H   0  0  0  0  0  0  0  0  0  0  0  0
   37.9190   25.3180   37.8890 H   0  0  0  0  0  0  0  0  0  0  0  0
   36.5250   26.4730   37.7580 H   0  0  0  0  0  0  0  0  0  0  0  0
   38.6410   27.2170   39.2180 H   0  0  0  0  0  0  0  0  0  0  0  0
   42.4940   25.1690   43.6790 N   0  0  0  0  0  0  0  0  0  0  0  0
   42.7640   24.1960   43.9400 H   0  0  0  0  0  0  0  0  0  0  0  0
   43.0720   25.9770   44.0240 H   0  0  0  0  0  0  0  0  0  0  0  0
   36.4380   27.9940   39.9350 S   0  0  0  0  0  0  0  0  0  0  0  0
   35.7330   30.7250   38.9090 H   0  0  0  0  0  0  0  0  0  0  0  0
   36.5660   30.6760   39.5310 N   0  0  0  0  0  0  0  0  0  0  0  0
   37.1300   29.6200   40.1400 C   0  0  0  0  0  0  0  0  0  0  0  0
   38.2140   30.0250   40.8610 N   0  0  0  0  0  0  0  0  0  0  0  0
   38.3200   31.3780   40.6890 C   0  0  0  0  0  0  0  0  0  0  0  0
   39.1350   32.3930   41.1020 C   0  0  0  0  0  0  0  0  0  0  0  0
   39.9620   32.1010   41.7630 H   0  0  0  0  0  0  0  0  0  0  0  0
   38.9560   33.6680   40.7380 N   0  0  0  0  0  0  0  0  0  0  0  0
   37.9520   34.0320   39.9330 C   0  0  0  0  0  0  0  0  0  0  0  0
   37.9140   35.0890   39.7130 H   0  0  0  0  0  0  0  0  0  0  0  0
   37.1210   33.0810   39.4960 N   0  0  0  0  0  0  0  0  0  0  0  0
   37.2800   31.7720   39.8520 C   0  0  0  0  0  0  0  0  0  0  0  0
  1 12  1  0  0  0  0
  2  1  1  0  0  0  0
  2 21  1  0  0  0  0
  3 13  1  0  0  0  0
  3  2  2  0  0  0  0
  4  5  2  0  0  0  0
  4  3  1  0  0  0  0
  5  6  1  0  0  0  0
  6  1  2  0  0  0  0
  7  8  1  0  0  0  0
  7  5  1  0  0  0  0
  8 15  1  0  0  0  0
  8 14  1  0  0  0  0
  9  8  1  0  0  0  0
 10  9  1  0  0  0  0
 10 11  1  0  0  0  0
 11 20  1  6  0  0  0
 11 24  1  0  0  0  0
 11  7  1  0  0  0  0
 16  9  1  0  0  0  0
 17  9  1  0  0  0  0
 18 10  1  0  0  0  0
 19 10  1  0  0  0  0
 21 22  1  0  0  0  0
 21 23  1  0  0  0  0
 24 27  1  0  0  0  0
 25 26  1  0  0  0  0
 26 36  1  0  0  0  0
 26 27  1  0  0  0  0
 27 28  2  0  0  0  0
 29 28  1  0  0  0  0
 29 30  1  0  0  0  0
 30 31  1  0  0  0  0
 32 30  2  0  0  0  0
 33 32  1  0  0  0  0
 34 33  1  0  0  0  0
 35 36  1  0  0  0  0
 35 33  2  0  0  0  0
 36 29  2  0  0  0  0
M  END
>  <minimizedAffinity>
-4.968009

$$$$

 OpenBabel03252506353D

 36 39  0  0  1  0  0  0  0  0999 V2000
   38.6240   32.0020   38.9690 C   0  0  0  0  0  0  0  0  0  0  0  0
   39.1740   31.3980   37.8310 C   0  0  0  0  0  0  0  0  0  0  0  0
   39.3800   30.0560   37.8340 C   0  0  0  0  0  0  0  0  0  0  0  0
   39.0300   29.3880   38.9650 N   0  0  0  0  0  0  0  0  0  0  0  0
   38.5110   29.9600   40.0380 C   0  0  0  0  0  0  0  0  0  0  0  0
   38.2920   31.2870   40.0730 N   0  0  0  0  0  0  0  0  0  0  0  0
   38.1980   29.1480   41.1500 N   0  0  0  0  0  0  0  0  0  0  0  0
   37.3610   29.5620   42.2850 C   0  0  0  0  0  0  0  0  0  0  0  0
   38.0760   28.8980   43.4450 C   0  0  0  0  0  0  0  0  0  0  0  0
   39.0670   27.9310   42.8700 C   0  0  0  0  0  0  0  0  0  0  0  0
   38.5910   27.7890   41.4450 C   0  0  1  0  0  0  0  0  0  0  0  0
   38.4530   33.0890   38.9710 H   0  0  0  0  0  0  0  0  0  0  0  0
   39.8000   29.6210   36.9580 H   0  0  0  0  0  0  0  0  0  0  0  0
   36.3200   29.2180   42.1780 H   0  0  0  0  0  0  0  0  0  0  0  0
   37.3580   30.6640   42.3390 H   0  0  0  0  0  0  0  0  0  0  0  0
   37.3210   28.3710   44.0850 H   0  0  0  0  0  0  0  0  0  0  0  0
   38.6030   29.6990   44.0050 H   0  0  0  0  0  0  0  0  0  0  0  0
   40.1120   28.2990   42.9270 H   0  0  0  0  0  0  0  0  0  0  0  0
   39.0030   26.9210   43.3350 H   0  0  0  0  0  0  0  0  0  0  0  0
   39.3950   27.4950   40.7520 H   0  0  0  0  0  0  0  0  0  0  0  0
   39.4810   32.2750   36.7400 N   0  0  0  0  0  0  0  0  0  0  0  0
   39.6670   33.2870   36.9040 H   0  0  0  0  0  0  0  0  0  0  0  0
   39.5190   31.8940   35.7600 H   0  0  0  0  0  0  0  0  0  0  0  0
   37.1990   26.6430   41.4040 S   0  0  0  0  0  0  0  0  0  0  0  0
   36.3350   28.4670   39.1820 H   0  0  0  0  0  0  0  0  0  0  0  0
   36.2660   27.4470   38.9850 N   0  0  0  0  0  0  0  0  0  0  0  0
   36.5690   26.3930   39.7600 C   0  0  0  0  0  0  0  0  0  0  0  0
   36.3170   25.2340   39.0860 N   0  0  0  0  0  0  0  0  0  0  0  0
   35.8430   25.5890   37.8530 C   0  0  0  0  0  0  0  0  0  0  0  0
   35.4130   24.9710   36.7140 C   0  0  0  0  0  0  0  0  0  0  0  0
   35.4270   23.8730   36.7330 H   0  0  0  0  0  0  0  0  0  0  0  0
   34.9980   25.6390   35.6310 N   0  0  0  0  0  0  0  0  0  0  0  0
   34.9780   26.9760   35.5990 C   0  0  0  0  0  0  0  0  0  0  0  0
   34.6220   27.3960   34.6700 H   0  0  0  0  0  0  0  0  0  0  0  0
   35.3880   27.6370   36.6860 N   0  0  0  0  0  0  0  0  0  0  0  0
   35.8170   26.9810   37.8040 C   0  0  0  0  0  0  0  0  0  0  0  0
  1 12  1  0  0  0  0
  1  6  1  0  0  0  0
  2  3  1  0  0  0  0
  2  1  2  0  0  0  0
  3  4  2  0  0  0  0
  4  5  1  0  0  0  0
  5  6  2  0  0  0  0
  5  7  1  0  0  0  0
  7 11  1  0  0  0  0
  7  8  1  0  0  0  0
  8 15  1  0  0  0  0
  8  9  1  0  0  0  0
  9 17  1  0  0  0  0
  9 16  1  0  0  0  0
 10 18  1  0  0  0  0
 10 19  1  0  0  0  0
 10  9  1  0  0  0  0
 11 20  1  6  0  0  0
 11 10  1  0  0  0  0
 13  3  1  0  0  0  0
 14  8  1  0  0  0  0
 21 22  1  0  0  0  0
 21  2  1  0  0  0  0
 23 21  1  0  0  0  0
 24 11  1  0  0  0  0
 26 25  1  0  0  0  0
 26 27  1  0  0  0  0
 27 24  1  0  0  0  0
 28 27  2  0  0  0  0
 29 28  1  0  0  0  0
 30 31  1  0  0  0  0
 30 29  2  0  0  0  0
 32 30  1  0  0  0  0
 33 32  2  0  0  0  0
 33 35  1  0  0  0  0
 34 33  1  0  0  0  0
 35 36  2  0  0  0  0
 36 29  1  0  0  0  0
 36 26  1  0  0  0  0
M  END
>  <minimizedAffinity>
-4.94290352

$$$$
