
 OpenBabel03242510143D

 45 49  0  0  1  0  0  0  0  0999 V2000
   38.5640   31.3660   40.2570 N   0  0  0  0  0  0  0  0  0  0  0  0
   39.1730   32.4000   41.0830 C   0  0  0  0  0  0  0  0  0  0  0  0
   39.0280   33.7710   40.4460 C   0  0  0  0  0  0  0  0  0  0  0  0
   39.7400   33.8480   39.1980 N   0  0  0  0  0  0  0  0  0  0  0  0
   39.9920   32.5000   38.7260 C   0  0  0  0  0  0  0  0  0  0  0  0
   38.7160   31.6660   38.8340 C   0  0  1  0  0  0  0  0  0  0  0  0
   38.6180   32.3930   42.0340 H   0  0  0  0  0  0  0  0  0  0  0  0
   40.2220   32.1420   41.3060 H   0  0  0  0  0  0  0  0  0  0  0  0
   37.9440   33.9100   40.2660 H   0  0  0  0  0  0  0  0  0  0  0  0
   39.3790   34.4990   41.1870 H   0  0  0  0  0  0  0  0  0  0  0  0
   40.6870   34.2760   39.3870 H   0  0  0  0  0  0  0  0  0  0  0  0
   40.2210   32.5770   37.6420 H   0  0  0  0  0  0  0  0  0  0  0  0
   40.8300   32.0210   39.2650 H   0  0  0  0  0  0  0  0  0  0  0  0
   37.8780   32.2870   38.4780 H   0  0  0  0  0  0  0  0  0  0  0  0
   38.9100   30.4650   38.0400 N   0  0  0  0  0  0  0  0  0  0  0  0
   40.0830   29.7970   37.8460 C   0  0  0  0  0  0  0  0  0  0  0  0
   41.0680   30.0570   38.2560 H   0  0  0  0  0  0  0  0  0  0  0  0
   39.8910   28.7390   37.0620 N   0  0  0  0  0  0  0  0  0  0  0  0
   38.5880   28.6730   36.7120 C   0  0  0  0  0  0  0  0  0  0  0  0
   37.8900   27.7810   35.9240 C   0  0  0  0  0  0  0  0  0  0  0  0
   38.3850   26.9300   35.4460 H   0  0  0  0  0  0  0  0  0  0  0  0
   36.5760   28.0280   35.7920 N   0  0  0  0  0  0  0  0  0  0  0  0
   35.9730   29.0800   36.3860 C   0  0  0  0  0  0  0  0  0  0  0  0
   34.8940   29.2700   36.2690 H   0  0  0  0  0  0  0  0  0  0  0  0
   36.6790   29.9350   37.1500 N   0  0  0  0  0  0  0  0  0  0  0  0
   38.0020   29.7640   37.3380 C   0  0  0  0  0  0  0  0  0  0  0  0
   40.4290   29.0250   41.1990 Br  0  0  0  0  0  0  0  0  0  0  0  0
   38.5320   29.0530   41.1470 C   0  0  0  0  0  0  0  0  0  0  0  0
   37.8120   27.9620   41.5520 C   0  0  0  0  0  0  0  0  0  0  0  0
   36.4060   27.9630   41.5210 C   0  0  0  0  0  0  0  0  0  0  0  0
   35.7700   29.0950   41.0710 C   0  0  0  0  0  0  0  0  0  0  0  0
   36.5400   30.1650   40.6750 C   0  0  0  0  0  0  0  0  0  0  0  0
   37.8890   30.1820   40.6980 C   0  0  0  0  0  0  0  0  0  0  0  0
   35.9050   27.0820   41.8500 H   0  0  0  0  0  0  0  0  0  0  0  0
   34.6940   29.0920   41.0490 H   0  0  0  0  0  0  0  0  0  0  0  0
   35.9690   31.0360   40.3270 H   0  0  0  0  0  0  0  0  0  0  0  0
   39.2170   24.5840   41.6500 C   0  0  0  0  0  0  0  0  0  0  0  0
   39.8760   24.5360   42.8940 C   0  0  0  0  0  0  0  0  0  0  0  0
   39.8200   25.6810   43.6760 C   0  0  0  0  0  0  0  0  0  0  0  0
   39.1540   26.7650   43.2260 N   0  0  0  0  0  0  0  0  0  0  0  0
   38.5260   26.7860   42.0220 C   0  0  0  0  0  0  0  0  0  0  0  0
   38.5720   25.6730   41.2470 N   0  0  0  0  0  0  0  0  0  0  0  0
   39.1730   23.7660   40.9300 H   0  0  0  0  0  0  0  0  0  0  0  0
   40.3510   23.5990   43.0880 H   0  0  0  0  0  0  0  0  0  0  0  0
   40.3270   25.6090   44.6050 H   0  0  0  0  0  0  0  0  0  0  0  0
  1 33  1  0  0  0  0
  1  2  1  0  0  0  0
  2  8  1  0  0  0  0
  2  7  1  0  0  0  0
  3  2  1  0  0  0  0
  3 10  1  0  0  0  0
  4 11  1  0  0  0  0
  4  3  1  0  0  0  0
  5  6  1  0  0  0  0
  5  4  1  0  0  0  0
  5 13  1  0  0  0  0
  6 14  1  6  0  0  0
  6  1  1  0  0  0  0
  9  3  1  0  0  0  0
 12  5  1  0  0  0  0
 15  6  1  0  0  0  0
 16 15  1  0  0  0  0
 16 17  1  0  0  0  0
 18 16  2  0  0  0  0
 19 18  1  0  0  0  0
 19 26  1  0  0  0  0
 20 19  2  0  0  0  0
 21 20  1  0  0  0  0
 22 20  1  0  0  0  0
 22 23  2  0  0  0  0
 23 25  1  0  0  0  0
 24 23  1  0  0  0  0
 25 26  2  0  0  0  0
 26 15  1  0  0  0  0
 28 27  1  0  0  0  0
 28 29  1  0  0  0  0
 29 41  1  0  0  0  0
 30 29  2  0  0  0  0
 30 34  1  0  0  0  0
 31 30  1  0  0  0  0
 32 33  1  0  0  0  0
 32 31  2  0  0  0  0
 33 28  2  0  0  0  0
 35 31  1  0  0  0  0
 36 32  1  0  0  0  0
 37 38  1  0  0  0  0
 38 44  1  0  0  0  0
 38 39  2  0  0  0  0
 39 45  1  0  0  0  0
 40 39  1  0  0  0  0
 41 40  2  0  0  0  0
 42 37  2  0  0  0  0
 42 41  1  0  0  0  0
 43 37  1  0  0  0  0
M  END
>  <minimizedAffinity>
-6.16288996

$$$$

 OpenBabel03242510143D

 45 49  0  0  1  0  0  0  0  0999 V2000
   39.4230   29.5030   42.2090 N   0  0  0  0  0  0  0  0  0  0  0  0
   40.8630   29.4830   42.4350 C   0  0  0  0  0  0  0  0  0  0  0  0
   41.3590   30.8270   42.9380 C   0  0  0  0  0  0  0  0  0  0  0  0
   41.1690   31.8590   41.9530 N   0  0  0  0  0  0  0  0  0  0  0  0
   40.1820   31.4050   40.9930 C   0  0  0  0  0  0  0  0  0  0  0  0
   38.9800   30.8100   41.7280 C   0  0  1  0  0  0  0  0  0  0  0  0
   41.0350   28.7290   43.2190 H   0  0  0  0  0  0  0  0  0  0  0  0
   41.3880   29.1470   41.5260 H   0  0  0  0  0  0  0  0  0  0  0  0
   40.7590   31.0570   43.8390 H   0  0  0  0  0  0  0  0  0  0  0  0
   42.4110   30.6880   43.2170 H   0  0  0  0  0  0  0  0  0  0  0  0
   42.0720   31.9700   41.4170 H   0  0  0  0  0  0  0  0  0  0  0  0
   39.8060   32.3080   40.4670 H   0  0  0  0  0  0  0  0  0  0  0  0
   40.6050   30.6830   40.2700 H   0  0  0  0  0  0  0  0  0  0  0  0
   38.7430   31.4740   42.5750 H   0  0  0  0  0  0  0  0  0  0  0  0
   37.8930   30.7010   40.7710 N   0  0  0  0  0  0  0  0  0  0  0  0
   36.5780   30.9880   40.9940 C   0  0  0  0  0  0  0  0  0  0  0  0
   36.1290   31.3480   41.9290 H   0  0  0  0  0  0  0  0  0  0  0  0
   35.8620   30.7730   39.8930 N   0  0  0  0  0  0  0  0  0  0  0  0
   36.6770   30.3370   38.9080 C   0  0  0  0  0  0  0  0  0  0  0  0
   36.4300   29.9780   37.5990 C   0  0  0  0  0  0  0  0  0  0  0  0
   35.4220   30.0180   37.1740 H   0  0  0  0  0  0  0  0  0  0  0  0
   37.5030   29.5840   36.8930 N   0  0  0  0  0  0  0  0  0  0  0  0
   38.7440   29.5390   37.4240 C   0  0  0  0  0  0  0  0  0  0  0  0
   39.6140   29.2130   36.8320 H   0  0  0  0  0  0  0  0  0  0  0  0
   38.9550   29.8940   38.7050 N   0  0  0  0  0  0  0  0  0  0  0  0
   37.9380   30.3020   39.4870 C   0  0  0  0  0  0  0  0  0  0  0  0
   39.7580   27.0630   40.2640 Br  0  0  0  0  0  0  0  0  0  0  0  0
   38.4820   27.2780   41.6520 C   0  0  0  0  0  0  0  0  0  0  0  0
   37.5610   26.2990   41.9030 C   0  0  0  0  0  0  0  0  0  0  0  0
   36.6070   26.4390   42.9280 C   0  0  0  0  0  0  0  0  0  0  0  0
   36.6260   27.5920   43.6740 C   0  0  0  0  0  0  0  0  0  0  0  0
   37.5730   28.5460   43.3820 C   0  0  0  0  0  0  0  0  0  0  0  0
   38.4950   28.4300   42.4030 C   0  0  0  0  0  0  0  0  0  0  0  0
   35.9180   25.6400   43.0720 H   0  0  0  0  0  0  0  0  0  0  0  0
   35.8950   27.6960   44.4580 H   0  0  0  0  0  0  0  0  0  0  0  0
   37.5320   29.4420   44.0160 H   0  0  0  0  0  0  0  0  0  0  0  0
   38.4260   22.9500   40.7070 C   0  0  0  0  0  0  0  0  0  0  0  0
   37.6280   22.7930   39.5570 C   0  0  0  0  0  0  0  0  0  0  0  0
   36.8030   23.8560   39.2180 C   0  0  0  0  0  0  0  0  0  0  0  0
   36.7980   24.9680   39.9840 N   0  0  0  0  0  0  0  0  0  0  0  0
   37.5780   25.0940   41.0890 C   0  0  0  0  0  0  0  0  0  0  0  0
   38.3900   24.0630   41.4320 N   0  0  0  0  0  0  0  0  0  0  0  0
   39.1210   22.2050   41.0960 H   0  0  0  0  0  0  0  0  0  0  0  0
   37.7590   21.8500   39.0720 H   0  0  0  0  0  0  0  0  0  0  0  0
   36.2170   23.7030   38.3480 H   0  0  0  0  0  0  0  0  0  0  0  0
  1 33  1  0  0  0  0
  1  2  1  0  0  0  0
  2  3  1  0  0  0  0
  2  7  1  0  0  0  0
  3 10  1  0  0  0  0
  3  9  1  0  0  0  0
  4  3  1  0  0  0  0
  5  6  1  0  0  0  0
  5  4  1  0  0  0  0
  6  1  1  0  0  0  0
  6 14  1  1  0  0  0
  8  2  1  0  0  0  0
 11  4  1  0  0  0  0
 12  5  1  0  0  0  0
 13  5  1  0  0  0  0
 15 16  1  0  0  0  0
 15  6  1  0  0  0  0
 16 17  1  0  0  0  0
 18 16  2  0  0  0  0
 19 26  1  0  0  0  0
 19 18  1  0  0  0  0
 20 19  2  0  0  0  0
 21 20  1  0  0  0  0
 22 23  2  0  0  0  0
 22 20  1  0  0  0  0
 23 25  1  0  0  0  0
 24 23  1  0  0  0  0
 25 26  2  0  0  0  0
 26 15  1  0  0  0  0
 27 28  1  0  0  0  0
 28 29  2  0  0  0  0
 28 33  1  0  0  0  0
 29 30  1  0  0  0  0
 30 34  1  0  0  0  0
 30 31  2  0  0  0  0
 31 35  1  0  0  0  0
 32 31  1  0  0  0  0
 32 36  1  0  0  0  0
 33 32  2  0  0  0  0
 37 43  1  0  0  0  0
 37 42  1  0  0  0  0
 38 37  2  0  0  0  0
 39 38  1  0  0  0  0
 39 40  2  0  0  0  0
 40 41  1  0  0  0  0
 41 42  2  0  0  0  0
 41 29  1  0  0  0  0
 44 38  1  0  0  0  0
 45 39  1  0  0  0  0
M  END
>  <minimizedAffinity>
-6.15123272

$$$$

 OpenBabel03242510143D

 45 49  0  0  1  0  0  0  0  0999 V2000
   38.0850   30.8980   40.6340 N   0  0  0  0  0  0  0  0  0  0  0  0
   38.3050   32.3370   40.7040 C   0  0  0  0  0  0  0  0  0  0  0  0
   39.7830   32.6740   40.6070 C   0  0  0  0  0  0  0  0  0  0  0  0
   40.5160   32.1470   41.7270 N   0  0  0  0  0  0  0  0  0  0  0  0
   39.7230   31.1050   42.3500 C   0  0  0  0  0  0  0  0  0  0  0  0
   39.1730   30.1640   41.2780 C   0  0  1  0  0  0  0  0  0  0  0  0
   37.7880   32.7650   39.8310 H   0  0  0  0  0  0  0  0  0  0  0  0
   37.8320   32.7520   41.6100 H   0  0  0  0  0  0  0  0  0  0  0  0
   40.1420   32.2030   39.6720 H   0  0  0  0  0  0  0  0  0  0  0  0
   39.8500   33.7660   40.5240 H   0  0  0  0  0  0  0  0  0  0  0  0
   40.6110   32.9150   42.4460 H   0  0  0  0  0  0  0  0  0  0  0  0
   40.4190   30.4980   42.9670 H   0  0  0  0  0  0  0  0  0  0  0  0
   38.9100   31.5190   42.9750 H   0  0  0  0  0  0  0  0  0  0  0  0
   39.9830   29.9620   40.5600 H   0  0  0  0  0  0  0  0  0  0  0  0
   38.6990   28.9660   41.9510 N   0  0  0  0  0  0  0  0  0  0  0  0
   38.2090   28.8840   43.2210 C   0  0  0  0  0  0  0  0  0  0  0  0
   38.0920   29.7060   43.9390 H   0  0  0  0  0  0  0  0  0  0  0  0
   37.8690   27.6300   43.5080 N   0  0  0  0  0  0  0  0  0  0  0  0
   38.1230   26.8420   42.4400 C   0  0  0  0  0  0  0  0  0  0  0  0
   37.9520   25.4900   42.2320 C   0  0  0  0  0  0  0  0  0  0  0  0
   37.5400   24.8380   43.0080 H   0  0  0  0  0  0  0  0  0  0  0  0
   38.3210   25.0380   41.0220 N   0  0  0  0  0  0  0  0  0  0  0  0
   38.8280   25.8490   40.0680 C   0  0  0  0  0  0  0  0  0  0  0  0
   39.1260   25.4640   39.0800 H   0  0  0  0  0  0  0  0  0  0  0  0
   38.9840   27.1660   40.3000 N   0  0  0  0  0  0  0  0  0  0  0  0
   38.6400   27.7060   41.4840 C   0  0  0  0  0  0  0  0  0  0  0  0
   38.4860   30.0600   37.6360 Br  0  0  0  0  0  0  0  0  0  0  0  0
   36.9650   29.7680   38.7330 C   0  0  0  0  0  0  0  0  0  0  0  0
   35.8670   29.1210   38.2360 C   0  0  0  0  0  0  0  0  0  0  0  0
   34.7300   28.8950   39.0320 C   0  0  0  0  0  0  0  0  0  0  0  0
   34.7510   29.3430   40.3310 C   0  0  0  0  0  0  0  0  0  0  0  0
   35.8800   29.9870   40.7830 C   0  0  0  0  0  0  0  0  0  0  0  0
   36.9800   30.2140   40.0340 C   0  0  0  0  0  0  0  0  0  0  0  0
   33.9080   28.3860   38.5850 H   0  0  0  0  0  0  0  0  0  0  0  0
   33.8800   29.1680   40.9380 H   0  0  0  0  0  0  0  0  0  0  0  0
   35.8310   30.3190   41.8280 H   0  0  0  0  0  0  0  0  0  0  0  0
   36.3190   26.9530   35.3220 C   0  0  0  0  0  0  0  0  0  0  0  0
   35.9360   27.7700   34.2400 C   0  0  0  0  0  0  0  0  0  0  0  0
   35.5270   29.0600   34.5440 C   0  0  0  0  0  0  0  0  0  0  0  0
   35.5140   29.4700   35.8300 N   0  0  0  0  0  0  0  0  0  0  0  0
   35.8880   28.6630   36.8560 C   0  0  0  0  0  0  0  0  0  0  0  0
   36.2900   27.3990   36.5730 N   0  0  0  0  0  0  0  0  0  0  0  0
   36.6620   25.9220   35.2410 H   0  0  0  0  0  0  0  0  0  0  0  0
   36.0100   27.2830   33.2920 H   0  0  0  0  0  0  0  0  0  0  0  0
   35.2470   29.6460   33.7050 H   0  0  0  0  0  0  0  0  0  0  0  0
  1  2  1  0  0  0  0
  1  6  1  0  0  0  0
  2  8  1  0  0  0  0
  3  2  1  0  0  0  0
  3  4  1  0  0  0  0
  4  5  1  0  0  0  0
  4 11  1  0  0  0  0
  5 12  1  0  0  0  0
  5 13  1  0  0  0  0
  6 14  1  6  0  0  0
  6 15  1  0  0  0  0
  6  5  1  0  0  0  0
  7  2  1  0  0  0  0
  9  3  1  0  0  0  0
 10  3  1  0  0  0  0
 15 16  1  0  0  0  0
 16 18  2  0  0  0  0
 16 17  1  0  0  0  0
 19 18  1  0  0  0  0
 20 19  1  0  0  0  0
 20 21  1  0  0  0  0
 22 20  2  0  0  0  0
 23 25  2  0  0  0  0
 23 22  1  0  0  0  0
 24 23  1  0  0  0  0
 25 26  1  0  0  0  0
 26 15  1  0  0  0  0
 26 19  2  0  0  0  0
 27 28  1  0  0  0  0
 28 33  1  0  0  0  0
 29 28  2  0  0  0  0
 29 30  1  0  0  0  0
 30 31  2  0  0  0  0
 31 32  1  0  0  0  0
 31 35  1  0  0  0  0
 32 36  1  0  0  0  0
 33  1  1  0  0  0  0
 33 32  2  0  0  0  0
 34 30  1  0  0  0  0
 37 42  1  0  0  0  0
 38 39  1  0  0  0  0
 38 37  2  0  0  0  0
 39 40  2  0  0  0  0
 40 41  1  0  0  0  0
 41 29  1  0  0  0  0
 42 41  2  0  0  0  0
 43 37  1  0  0  0  0
 44 38  1  0  0  0  0
 45 39  1  0  0  0  0
M  END
>  <minimizedAffinity>
-5.90163088

$$$$

 OpenBabel03242510143D

 45 49  0  0  1  0  0  0  0  0999 V2000
   37.0040   27.5650   39.6340 N   0  0  0  0  0  0  0  0  0  0  0  0
   36.1930   26.5690   38.9450 C   0  0  0  0  0  0  0  0  0  0  0  0
   36.5670   26.4740   37.4770 C   0  0  0  0  0  0  0  0  0  0  0  0
   36.2860   27.7030   36.7830 N   0  0  0  0  0  0  0  0  0  0  0  0
   36.1590   28.7670   37.7590 C   0  0  0  0  0  0  0  0  0  0  0  0
   37.3150   28.6930   38.7570 C   0  0  1  0  0  0  0  0  0  0  0  0
   36.4220   25.6070   39.4290 H   0  0  0  0  0  0  0  0  0  0  0  0
   35.1210   26.7760   39.1000 H   0  0  0  0  0  0  0  0  0  0  0  0
   37.6550   26.2730   37.4520 H   0  0  0  0  0  0  0  0  0  0  0  0
   36.0200   25.6150   37.0690 H   0  0  0  0  0  0  0  0  0  0  0  0
   35.3390   27.6100   36.3240 H   0  0  0  0  0  0  0  0  0  0  0  0
   36.2850   29.7240   37.2100 H   0  0  0  0  0  0  0  0  0  0  0  0
   35.1820   28.7420   38.2770 H   0  0  0  0  0  0  0  0  0  0  0  0
   38.2380   28.4990   38.1880 H   0  0  0  0  0  0  0  0  0  0  0  0
   37.3480   29.9530   39.4800 N   0  0  0  0  0  0  0  0  0  0  0  0
   36.2800   30.6270   39.9940 C   0  0  0  0  0  0  0  0  0  0  0  0
   35.2240   30.3280   39.9460 H   0  0  0  0  0  0  0  0  0  0  0  0
   36.6800   31.7460   40.5920 N   0  0  0  0  0  0  0  0  0  0  0  0
   38.0230   31.8500   40.4950 C   0  0  0  0  0  0  0  0  0  0  0  0
   38.9080   32.8080   40.9420 C   0  0  0  0  0  0  0  0  0  0  0  0
   38.5670   33.6910   41.4920 H   0  0  0  0  0  0  0  0  0  0  0  0
   40.2020   32.5810   40.6590 N   0  0  0  0  0  0  0  0  0  0  0  0
   40.6150   31.4890   39.9810 C   0  0  0  0  0  0  0  0  0  0  0  0
   41.6790   31.3160   39.7560 H   0  0  0  0  0  0  0  0  0  0  0  0
   39.7280   30.5690   39.5560 N   0  0  0  0  0  0  0  0  0  0  0  0
   38.4110   30.7160   39.7950 C   0  0  0  0  0  0  0  0  0  0  0  0
   40.0520   26.9030   39.9800 Br  0  0  0  0  0  0  0  0  0  0  0  0
   38.7740   27.2500   41.3390 C   0  0  0  0  0  0  0  0  0  0  0  0
   39.1430   27.2290   42.6570 C   0  0  0  0  0  0  0  0  0  0  0  0
   38.2120   27.4840   43.6800 C   0  0  0  0  0  0  0  0  0  0  0  0
   36.9140   27.7550   43.3190 C   0  0  0  0  0  0  0  0  0  0  0  0
   36.5950   27.7650   41.9810 C   0  0  0  0  0  0  0  0  0  0  0  0
   37.4740   27.5230   40.9860 C   0  0  0  0  0  0  0  0  0  0  0  0
   38.5620   27.4520   44.6850 H   0  0  0  0  0  0  0  0  0  0  0  0
   36.2040   27.9500   44.1040 H   0  0  0  0  0  0  0  0  0  0  0  0
   35.5420   27.9890   41.7620 H   0  0  0  0  0  0  0  0  0  0  0  0
   42.6470   27.7180   43.5920 C   0  0  0  0  0  0  0  0  0  0  0  0
   43.1640   26.4090   43.6360 C   0  0  0  0  0  0  0  0  0  0  0  0
   42.2830   25.3790   43.3390 C   0  0  0  0  0  0  0  0  0  0  0  0
   41.0010   25.6650   43.0290 N   0  0  0  0  0  0  0  0  0  0  0  0
   40.5270   26.9380   42.9940 C   0  0  0  0  0  0  0  0  0  0  0  0
   41.3780   27.9550   43.2810 N   0  0  0  0  0  0  0  0  0  0  0  0
   43.2160   28.6250   43.8000 H   0  0  0  0  0  0  0  0  0  0  0  0
   44.1980   26.3680   43.8990 H   0  0  0  0  0  0  0  0  0  0  0  0
   42.7060   24.4070   43.3820 H   0  0  0  0  0  0  0  0  0  0  0  0
  1 33  1  0  0  0  0
  2  8  1  0  0  0  0
  2  7  1  0  0  0  0
  2  1  1  0  0  0  0
  3  2  1  0  0  0  0
  4  3  1  0  0  0  0
  4  5  1  0  0  0  0
  5 13  1  0  0  0  0
  5  6  1  0  0  0  0
  6 14  1  6  0  0  0
  6 15  1  0  0  0  0
  6  1  1  0  0  0  0
  9  3  1  0  0  0  0
 10  3  1  0  0  0  0
 11  4  1  0  0  0  0
 12  5  1  0  0  0  0
 15 26  1  0  0  0  0
 15 16  1  0  0  0  0
 16 18  2  0  0  0  0
 17 16  1  0  0  0  0
 19 18  1  0  0  0  0
 19 20  1  0  0  0  0
 20 21  1  0  0  0  0
 22 20  2  0  0  0  0
 23 22  1  0  0  0  0
 24 23  1  0  0  0  0
 25 26  1  0  0  0  0
 25 23  2  0  0  0  0
 26 19  2  0  0  0  0
 27 28  1  0  0  0  0
 28 29  1  0  0  0  0
 29 41  1  0  0  0  0
 29 30  2  0  0  0  0
 30 34  1  0  0  0  0
 31 30  1  0  0  0  0
 31 35  1  0  0  0  0
 32 31  2  0  0  0  0
 33 28  2  0  0  0  0
 33 32  1  0  0  0  0
 36 32  1  0  0  0  0
 37 38  1  0  0  0  0
 37 43  1  0  0  0  0
 38 44  1  0  0  0  0
 39 45  1  0  0  0  0
 39 38  2  0  0  0  0
 40 39  1  0  0  0  0
 41 40  2  0  0  0  0
 41 42  1  0  0  0  0
 42 37  2  0  0  0  0
M  END
>  <minimizedAffinity>
-5.890481

$$$$

 OpenBabel03242510143D

 45 49  0  0  1  0  0  0  0  0999 V2000
   38.7810   30.7840   39.2330 N   0  0  0  0  0  0  0  0  0  0  0  0
   37.7290   31.6340   38.6900 C   0  0  0  0  0  0  0  0  0  0  0  0
   37.6990   31.5730   37.1730 C   0  0  0  0  0  0  0  0  0  0  0  0
   38.9110   32.0990   36.6020 N   0  0  0  0  0  0  0  0  0  0  0  0
   39.9380   32.1060   37.6250 C   0  0  0  0  0  0  0  0  0  0  0  0
   39.9510   30.7630   38.3560 C   0  0  1  0  0  0  0  0  0  0  0  0
   36.7820   31.2270   39.0770 H   0  0  0  0  0  0  0  0  0  0  0  0
   37.8330   32.6620   39.0740 H   0  0  0  0  0  0  0  0  0  0  0  0
   37.5990   30.5010   36.9130 H   0  0  0  0  0  0  0  0  0  0  0  0
   36.8020   32.1180   36.8550 H   0  0  0  0  0  0  0  0  0  0  0  0
   38.7400   33.1100   36.3480 H   0  0  0  0  0  0  0  0  0  0  0  0
   40.9140   32.1820   37.1000 H   0  0  0  0  0  0  0  0  0  0  0  0
   39.8130   32.9460   38.3340 H   0  0  0  0  0  0  0  0  0  0  0  0
   39.8540   29.9690   37.5990 H   0  0  0  0  0  0  0  0  0  0  0  0
   41.1930   30.6850   39.1050 N   0  0  0  0  0  0  0  0  0  0  0  0
   42.0300   29.6110   39.1870 C   0  0  0  0  0  0  0  0  0  0  0  0
   41.9010   28.6340   38.7020 H   0  0  0  0  0  0  0  0  0  0  0  0
   43.0740   29.8930   39.9610 N   0  0  0  0  0  0  0  0  0  0  0  0
   42.9640   31.1610   40.4160 C   0  0  0  0  0  0  0  0  0  0  0  0
   43.7720   31.9170   41.2380 C   0  0  0  0  0  0  0  0  0  0  0  0
   44.7010   31.5160   41.6560 H   0  0  0  0  0  0  0  0  0  0  0  0
   43.3420   33.1660   41.4850 N   0  0  0  0  0  0  0  0  0  0  0  0
   42.1950   33.6540   40.9650 C   0  0  0  0  0  0  0  0  0  0  0  0
   41.8550   34.6800   41.1760 H   0  0  0  0  0  0  0  0  0  0  0  0
   41.4260   32.8920   40.1650 N   0  0  0  0  0  0  0  0  0  0  0  0
   41.7800   31.6280   39.8640 C   0  0  0  0  0  0  0  0  0  0  0  0
   38.3520   27.6920   38.9090 Br  0  0  0  0  0  0  0  0  0  0  0  0
   38.5770   28.6740   40.5170 C   0  0  0  0  0  0  0  0  0  0  0  0
   38.5640   28.0340   41.7270 C   0  0  0  0  0  0  0  0  0  0  0  0
   38.7300   28.7440   42.9300 C   0  0  0  0  0  0  0  0  0  0  0  0
   38.9060   30.1040   42.8580 C   0  0  0  0  0  0  0  0  0  0  0  0
   38.9120   30.7000   41.6180 C   0  0  0  0  0  0  0  0  0  0  0  0
   38.7540   30.0360   40.4530 C   0  0  0  0  0  0  0  0  0  0  0  0
   38.7100   28.1870   43.8370 H   0  0  0  0  0  0  0  0  0  0  0  0
   39.0330   30.6440   43.7810 H   0  0  0  0  0  0  0  0  0  0  0  0
   39.0570   31.7880   41.6330 H   0  0  0  0  0  0  0  0  0  0  0  0
   39.3120   24.4520   41.7130 C   0  0  0  0  0  0  0  0  0  0  0  0
   38.0430   23.8490   41.8080 C   0  0  0  0  0  0  0  0  0  0  0  0
   36.9490   24.7000   41.8760 C   0  0  0  0  0  0  0  0  0  0  0  0
   37.1410   26.0350   41.8480 N   0  0  0  0  0  0  0  0  0  0  0  0
   38.3760   26.5930   41.7560 C   0  0  0  0  0  0  0  0  0  0  0  0
   39.4540   25.7720   41.6890 N   0  0  0  0  0  0  0  0  0  0  0  0
   40.2600   23.9160   41.6530 H   0  0  0  0  0  0  0  0  0  0  0  0
   38.0780   22.7810   41.8170 H   0  0  0  0  0  0  0  0  0  0  0  0
   36.0110   24.2110   41.9460 H   0  0  0  0  0  0  0  0  0  0  0  0
  1 33  1  0  0  0  0
  2  8  1  0  0  0  0
  2  7  1  0  0  0  0
  2  1  1  0  0  0  0
  3  2  1  0  0  0  0
  4  3  1  0  0  0  0
  4  5  1  0  0  0  0
  5 13  1  0  0  0  0
  5  6  1  0  0  0  0
  6 14  1  6  0  0  0
  6 15  1  0  0  0  0
  6  1  1  0  0  0  0
  9  3  1  0  0  0  0
 10  3  1  0  0  0  0
 11  4  1  0  0  0  0
 12  5  1  0  0  0  0
 15 16  1  0  0  0  0
 15 26  1  0  0  0  0
 16 18  2  0  0  0  0
 17 16  1  0  0  0  0
 18 19  1  0  0  0  0
 19 20  1  0  0  0  0
 20 22  2  0  0  0  0
 20 21  1  0  0  0  0
 23 24  1  0  0  0  0
 23 22  1  0  0  0  0
 25 23  2  0  0  0  0
 26 25  1  0  0  0  0
 26 19  2  0  0  0  0
 27 28  1  0  0  0  0
 28 29  1  0  0  0  0
 29 41  1  0  0  0  0
 29 30  2  0  0  0  0
 30 34  1  0  0  0  0
 31 30  1  0  0  0  0
 31 35  1  0  0  0  0
 32 36  1  0  0  0  0
 32 31  2  0  0  0  0
 33 28  2  0  0  0  0
 33 32  1  0  0  0  0
 37 38  1  0  0  0  0
 38 44  1  0  0  0  0
 38 39  2  0  0  0  0
 39 45  1  0  0  0  0
 40 39  1  0  0  0  0
 41 40  2  0  0  0  0
 42 37  2  0  0  0  0
 42 41  1  0  0  0  0
 43 37  1  0  0  0  0
M  END
>  <minimizedAffinity>
-5.86886787

$$$$

 OpenBabel03242510143D

 45 49  0  0  1  0  0  0  0  0999 V2000
   37.2630   25.4640   40.7060 N   0  0  0  0  0  0  0  0  0  0  0  0
   36.4380   25.2140   39.5300 C   0  0  0  0  0  0  0  0  0  0  0  0
   35.9990   23.7620   39.4650 C   0  0  0  0  0  0  0  0  0  0  0  0
   37.1230   22.8800   39.3040 N   0  0  0  0  0  0  0  0  0  0  0  0
   38.3260   23.5880   39.6960 C   0  0  0  0  0  0  0  0  0  0  0  0
   38.0940   24.3050   41.0260 C   0  0  1  0  0  0  0  0  0  0  0  0
   35.5450   25.8480   39.6470 H   0  0  0  0  0  0  0  0  0  0  0  0
   36.9640   25.5420   38.6180 H   0  0  0  0  0  0  0  0  0  0  0  0
   35.4950   23.5530   40.4280 H   0  0  0  0  0  0  0  0  0  0  0  0
   35.2750   23.6910   38.6430 H   0  0  0  0  0  0  0  0  0  0  0  0
   37.2290   22.6680   38.2750 H   0  0  0  0  0  0  0  0  0  0  0  0
   39.1030   22.8180   39.8920 H   0  0  0  0  0  0  0  0  0  0  0  0
   38.6670   24.2930   38.9160 H   0  0  0  0  0  0  0  0  0  0  0  0
   37.5530   23.6130   41.6910 H   0  0  0  0  0  0  0  0  0  0  0  0
   39.3940   24.6930   41.5470 N   0  0  0  0  0  0  0  0  0  0  0  0
   39.8380   24.5390   42.8270 C   0  0  0  0  0  0  0  0  0  0  0  0
   39.2890   24.1000   43.6700 H   0  0  0  0  0  0  0  0  0  0  0  0
   41.0780   25.0070   42.9480 N   0  0  0  0  0  0  0  0  0  0  0  0
   41.4950   25.4840   41.7540 C   0  0  0  0  0  0  0  0  0  0  0  0
   42.6810   26.0650   41.3580 C   0  0  0  0  0  0  0  0  0  0  0  0
   43.5080   26.2150   42.0580 H   0  0  0  0  0  0  0  0  0  0  0  0
   42.7460   26.4260   40.0650 N   0  0  0  0  0  0  0  0  0  0  0  0
   41.7210   26.2370   39.2060 C   0  0  0  0  0  0  0  0  0  0  0  0
   41.7890   26.5380   38.1490 H   0  0  0  0  0  0  0  0  0  0  0  0
   40.5750   25.6670   39.6220 N   0  0  0  0  0  0  0  0  0  0  0  0
   40.4210   25.2740   40.9000 C   0  0  0  0  0  0  0  0  0  0  0  0
   38.1250   28.0630   39.1720 Br  0  0  0  0  0  0  0  0  0  0  0  0
   37.6680   27.8910   41.0060 C   0  0  0  0  0  0  0  0  0  0  0  0
   37.6920   28.9830   41.8310 C   0  0  0  0  0  0  0  0  0  0  0  0
   37.3570   28.8760   43.1920 C   0  0  0  0  0  0  0  0  0  0  0  0
   37.0040   27.6400   43.6760 C   0  0  0  0  0  0  0  0  0  0  0  0
   36.9950   26.5740   42.8060 C   0  0  0  0  0  0  0  0  0  0  0  0
   37.3130   26.6570   41.4970 C   0  0  0  0  0  0  0  0  0  0  0  0
   37.3950   29.7640   43.7800 H   0  0  0  0  0  0  0  0  0  0  0  0
   36.7470   27.5630   44.7190 H   0  0  0  0  0  0  0  0  0  0  0  0
   36.7040   25.6160   43.2570 H   0  0  0  0  0  0  0  0  0  0  0  0
   37.4380   32.2660   40.2340 C   0  0  0  0  0  0  0  0  0  0  0  0
   38.7680   32.7290   40.2160 C   0  0  0  0  0  0  0  0  0  0  0  0
   39.7300   31.8900   40.7600 C   0  0  0  0  0  0  0  0  0  0  0  0
   39.3620   30.6960   41.2710 N   0  0  0  0  0  0  0  0  0  0  0  0
   38.0710   30.2720   41.2760 C   0  0  0  0  0  0  0  0  0  0  0  0
   37.1210   31.0820   40.7470 N   0  0  0  0  0  0  0  0  0  0  0  0
   36.5780   32.8110   39.8450 H   0  0  0  0  0  0  0  0  0  0  0  0
   38.8770   33.6950   39.7730 H   0  0  0  0  0  0  0  0  0  0  0  0
   40.7190   32.2700   40.7290 H   0  0  0  0  0  0  0  0  0  0  0  0
  1  6  1  0  0  0  0
  1 33  1  0  0  0  0
  2  7  1  0  0  0  0
  2  1  1  0  0  0  0
  3  2  1  0  0  0  0
  3  9  1  0  0  0  0
  4  3  1  0  0  0  0
  4  5  1  0  0  0  0
  5 12  1  0  0  0  0
  5  6  1  0  0  0  0
  6 15  1  0  0  0  0
  6 14  1  1  0  0  0
  8  2  1  0  0  0  0
 10  3  1  0  0  0  0
 11  4  1  0  0  0  0
 13  5  1  0  0  0  0
 15 16  1  0  0  0  0
 16 18  2  0  0  0  0
 16 17  1  0  0  0  0
 19 18  1  0  0  0  0
 20 19  1  0  0  0  0
 20 21  1  0  0  0  0
 22 20  2  0  0  0  0
 23 25  2  0  0  0  0
 23 22  1  0  0  0  0
 24 23  1  0  0  0  0
 25 26  1  0  0  0  0
 26 15  1  0  0  0  0
 26 19  2  0  0  0  0
 27 28  1  0  0  0  0
 28 33  2  0  0  0  0
 28 29  1  0  0  0  0
 29 30  2  0  0  0  0
 30 31  1  0  0  0  0
 30 34  1  0  0  0  0
 31 35  1  0  0  0  0
 32 36  1  0  0  0  0
 32 31  2  0  0  0  0
 33 32  1  0  0  0  0
 37 42  1  0  0  0  0
 38 37  2  0  0  0  0
 38 39  1  0  0  0  0
 39 40  2  0  0  0  0
 40 41  1  0  0  0  0
 41 29  1  0  0  0  0
 42 41  2  0  0  0  0
 43 37  1  0  0  0  0
 44 38  1  0  0  0  0
 45 39  1  0  0  0  0
M  END
>  <minimizedAffinity>
-5.8066926

$$$$

 OpenBabel03242510143D

 45 49  0  0  1  0  0  0  0  0999 V2000
   37.3530   28.3040   38.2040 N   0  0  0  0  0  0  0  0  0  0  0  0
   36.6910   27.4670   37.2110 C   0  0  0  0  0  0  0  0  0  0  0  0
   37.4790   27.4220   35.9140 C   0  0  0  0  0  0  0  0  0  0  0  0
   37.5470   28.7190   35.2960 N   0  0  0  0  0  0  0  0  0  0  0  0
   37.2400   29.7240   36.2950 C   0  0  0  0  0  0  0  0  0  0  0  0
   38.0270   29.4390   37.5740 C   0  0  1  0  0  0  0  0  0  0  0  0
   36.6630   26.4540   37.6420 H   0  0  0  0  0  0  0  0  0  0  0  0
   35.6490   27.7980   37.0660 H   0  0  0  0  0  0  0  0  0  0  0  0
   38.4980   27.0860   36.1880 H   0  0  0  0  0  0  0  0  0  0  0  0
   36.9960   26.6680   35.2810 H   0  0  0  0  0  0  0  0  0  0  0  0
   36.7780   28.7780   34.5740 H   0  0  0  0  0  0  0  0  0  0  0  0
   37.6230   30.6920   35.9060 H   0  0  0  0  0  0  0  0  0  0  0  0
   36.1550   29.7900   36.4990 H   0  0  0  0  0  0  0  0  0  0  0  0
   39.0540   29.1660   37.2830 H   0  0  0  0  0  0  0  0  0  0  0  0
   37.9690   30.6340   38.3980 N   0  0  0  0  0  0  0  0  0  0  0  0
   36.9020   31.4710   38.5470 C   0  0  0  0  0  0  0  0  0  0  0  0
   35.9180   31.3780   38.0700 H   0  0  0  0  0  0  0  0  0  0  0  0
   37.2040   32.4650   39.3780 N   0  0  0  0  0  0  0  0  0  0  0  0
   38.4770   32.3190   39.8060 C   0  0  0  0  0  0  0  0  0  0  0  0
   39.2520   33.0730   40.6630 C   0  0  0  0  0  0  0  0  0  0  0  0
   38.8640   33.9760   41.1430 H   0  0  0  0  0  0  0  0  0  0  0  0
   40.5020   32.6210   40.8640 N   0  0  0  0  0  0  0  0  0  0  0  0
   40.9730   31.5040   40.2680 C   0  0  0  0  0  0  0  0  0  0  0  0
   42.0000   31.1450   40.4420 H   0  0  0  0  0  0  0  0  0  0  0  0
   40.1930   30.7890   39.4360 N   0  0  0  0  0  0  0  0  0  0  0  0
   38.9280   31.1680   39.1770 C   0  0  0  0  0  0  0  0  0  0  0  0
   40.0250   27.1150   39.3400 Br  0  0  0  0  0  0  0  0  0  0  0  0
   38.4660   27.6060   40.3050 C   0  0  0  0  0  0  0  0  0  0  0  0
   38.4170   27.4550   41.6640 C   0  0  0  0  0  0  0  0  0  0  0  0
   37.2710   27.8130   42.3970 C   0  0  0  0  0  0  0  0  0  0  0  0
   36.1960   28.3200   41.7080 C   0  0  0  0  0  0  0  0  0  0  0  0
   36.2960   28.4510   40.3420 C   0  0  0  0  0  0  0  0  0  0  0  0
   37.3860   28.1140   39.6220 C   0  0  0  0  0  0  0  0  0  0  0  0
   37.2970   27.6710   43.4520 H   0  0  0  0  0  0  0  0  0  0  0  0
   35.3210   28.5920   42.2730 H   0  0  0  0  0  0  0  0  0  0  0  0
   35.4020   28.8630   39.8550 H   0  0  0  0  0  0  0  0  0  0  0  0
   41.5270   27.2920   43.5850 C   0  0  0  0  0  0  0  0  0  0  0  0
   41.7940   25.9110   43.6670 C   0  0  0  0  0  0  0  0  0  0  0  0
   40.8860   25.0620   43.0510 C   0  0  0  0  0  0  0  0  0  0  0  0
   39.8130   25.5790   42.4160 N   0  0  0  0  0  0  0  0  0  0  0  0
   39.5780   26.9150   42.3520 C   0  0  0  0  0  0  0  0  0  0  0  0
   40.4580   27.7570   42.9490 N   0  0  0  0  0  0  0  0  0  0  0  0
   42.1470   28.0780   44.0180 H   0  0  0  0  0  0  0  0  0  0  0  0
   42.6870   25.6810   44.2060 H   0  0  0  0  0  0  0  0  0  0  0  0
   41.1180   24.0300   43.1330 H   0  0  0  0  0  0  0  0  0  0  0  0
  1 33  1  0  0  0  0
  2  7  1  0  0  0  0
  2  1  1  0  0  0  0
  3  9  1  0  0  0  0
  3  2  1  0  0  0  0
  4  3  1  0  0  0  0
  4  5  1  0  0  0  0
  5 13  1  0  0  0  0
  5  6  1  0  0  0  0
  6 14  1  6  0  0  0
  6  1  1  0  0  0  0
  6 15  1  0  0  0  0
  8  2  1  0  0  0  0
 10  3  1  0  0  0  0
 11  4  1  0  0  0  0
 12  5  1  0  0  0  0
 15 16  1  0  0  0  0
 15 26  1  0  0  0  0
 16 18  2  0  0  0  0
 17 16  1  0  0  0  0
 18 19  1  0  0  0  0
 19 20  1  0  0  0  0
 20 22  2  0  0  0  0
 20 21  1  0  0  0  0
 23 24  1  0  0  0  0
 23 22  1  0  0  0  0
 25 23  2  0  0  0  0
 26 25  1  0  0  0  0
 26 19  2  0  0  0  0
 27 28  1  0  0  0  0
 28 29  1  0  0  0  0
 29 41  1  0  0  0  0
 29 30  2  0  0  0  0
 30 34  1  0  0  0  0
 31 35  1  0  0  0  0
 31 30  1  0  0  0  0
 32 31  2  0  0  0  0
 33 28  2  0  0  0  0
 33 32  1  0  0  0  0
 36 32  1  0  0  0  0
 37 38  1  0  0  0  0
 37 43  1  0  0  0  0
 38 44  1  0  0  0  0
 39 45  1  0  0  0  0
 39 38  2  0  0  0  0
 40 39  1  0  0  0  0
 41 40  2  0  0  0  0
 41 42  1  0  0  0  0
 42 37  2  0  0  0  0
M  END
>  <minimizedAffinity>
-5.80508327

$$$$

 OpenBabel03242510143D

 45 49  0  0  1  0  0  0  0  0999 V2000
   40.6300   27.0880   42.6410 N   0  0  0  0  0  0  0  0  0  0  0  0
   41.8240   27.3100   43.4480 C   0  0  0  0  0  0  0  0  0  0  0  0
   43.0780   26.8940   42.7010 C   0  0  0  0  0  0  0  0  0  0  0  0
   43.0860   25.4800   42.4350 N   0  0  0  0  0  0  0  0  0  0  0  0
   41.7320   24.9790   42.5570 C   0  0  0  0  0  0  0  0  0  0  0  0
   40.7700   25.8980   41.8040 C   0  0  1  0  0  0  0  0  0  0  0  0
   41.8670   28.3950   43.6310 H   0  0  0  0  0  0  0  0  0  0  0  0
   41.7220   26.8090   44.4250 H   0  0  0  0  0  0  0  0  0  0  0  0
   43.0640   27.4530   41.7450 H   0  0  0  0  0  0  0  0  0  0  0  0
   43.9290   27.2220   43.3110 H   0  0  0  0  0  0  0  0  0  0  0  0
   43.6450   25.0070   43.1970 H   0  0  0  0  0  0  0  0  0  0  0  0
   41.7020   24.0010   42.0300 H   0  0  0  0  0  0  0  0  0  0  0  0
   41.4260   24.8590   43.6130 H   0  0  0  0  0  0  0  0  0  0  0  0
   41.2380   26.1550   40.8400 H   0  0  0  0  0  0  0  0  0  0  0  0
   39.5130   25.1860   41.6530 N   0  0  0  0  0  0  0  0  0  0  0  0
   38.9820   24.2760   42.5190 C   0  0  0  0  0  0  0  0  0  0  0  0
   39.4170   23.9340   43.4680 H   0  0  0  0  0  0  0  0  0  0  0  0
   37.8180   23.8230   42.0620 N   0  0  0  0  0  0  0  0  0  0  0  0
   37.5390   24.4180   40.8810 C   0  0  0  0  0  0  0  0  0  0  0  0
   36.4720   24.2930   40.0170 C   0  0  0  0  0  0  0  0  0  0  0  0
   35.6380   23.6170   40.2280 H   0  0  0  0  0  0  0  0  0  0  0  0
   36.5290   25.0550   38.9110 N   0  0  0  0  0  0  0  0  0  0  0  0
   37.5610   25.8880   38.6570 C   0  0  0  0  0  0  0  0  0  0  0  0
   37.5940   26.5060   37.7460 H   0  0  0  0  0  0  0  0  0  0  0  0
   38.5900   25.9880   39.5190 N   0  0  0  0  0  0  0  0  0  0  0  0
   38.6160   25.2620   40.6530 C   0  0  0  0  0  0  0  0  0  0  0  0
   40.4600   29.1870   40.3140 Br  0  0  0  0  0  0  0  0  0  0  0  0
   39.1800   28.8500   41.6730 C   0  0  0  0  0  0  0  0  0  0  0  0
   38.0130   29.5630   41.7170 C   0  0  0  0  0  0  0  0  0  0  0  0
   37.0510   29.3290   42.7160 C   0  0  0  0  0  0  0  0  0  0  0  0
   37.3150   28.3590   43.6530 C   0  0  0  0  0  0  0  0  0  0  0  0
   38.5030   27.6690   43.5640 C   0  0  0  0  0  0  0  0  0  0  0  0
   39.4370   27.8800   42.6130 C   0  0  0  0  0  0  0  0  0  0  0  0
   36.1640   29.9180   42.6950 H   0  0  0  0  0  0  0  0  0  0  0  0
   36.5770   28.1820   44.4150 H   0  0  0  0  0  0  0  0  0  0  0  0
   38.6510   26.9090   44.3430 H   0  0  0  0  0  0  0  0  0  0  0  0
   37.9380   32.8140   40.0370 C   0  0  0  0  0  0  0  0  0  0  0  0
   37.3300   32.5320   38.7990 C   0  0  0  0  0  0  0  0  0  0  0  0
   36.9570   31.2150   38.5700 C   0  0  0  0  0  0  0  0  0  0  0  0
   37.1850   30.2830   39.5190 N   0  0  0  0  0  0  0  0  0  0  0  0
   37.7740   30.5800   40.7060 C   0  0  0  0  0  0  0  0  0  0  0  0
   38.1440   31.8640   40.9430 N   0  0  0  0  0  0  0  0  0  0  0  0
   38.2830   33.7970   40.3590 H   0  0  0  0  0  0  0  0  0  0  0  0
   37.2270   33.3890   38.1700 H   0  0  0  0  0  0  0  0  0  0  0  0
   36.5020   31.0400   37.6280 H   0  0  0  0  0  0  0  0  0  0  0  0
  1  2  1  0  0  0  0
  2  7  1  0  0  0  0
  2  8  1  0  0  0  0
  3 10  1  0  0  0  0
  3  2  1  0  0  0  0
  4  5  1  0  0  0  0
  4  3  1  0  0  0  0
  4 11  1  0  0  0  0
  5 13  1  0  0  0  0
  6 14  1  6  0  0  0
  6  5  1  0  0  0  0
  6  1  1  0  0  0  0
  9  3  1  0  0  0  0
 12  5  1  0  0  0  0
 15  6  1  0  0  0  0
 15 16  1  0  0  0  0
 16 17  1  0  0  0  0
 18 16  2  0  0  0  0
 19 18  1  0  0  0  0
 20 21  1  0  0  0  0
 20 19  2  0  0  0  0
 22 20  1  0  0  0  0
 23 22  2  0  0  0  0
 23 25  1  0  0  0  0
 24 23  1  0  0  0  0
 25 26  2  0  0  0  0
 26 19  1  0  0  0  0
 26 15  1  0  0  0  0
 27 28  1  0  0  0  0
 28 29  2  0  0  0  0
 28 33  1  0  0  0  0
 29 30  1  0  0  0  0
 30 31  2  0  0  0  0
 31 35  1  0  0  0  0
 32 31  1  0  0  0  0
 32 36  1  0  0  0  0
 33  1  1  0  0  0  0
 33 32  2  0  0  0  0
 34 30  1  0  0  0  0
 37 43  1  0  0  0  0
 37 42  1  0  0  0  0
 38 37  2  0  0  0  0
 39 38  1  0  0  0  0
 39 40  2  0  0  0  0
 40 41  1  0  0  0  0
 41 42  2  0  0  0  0
 41 29  1  0  0  0  0
 44 38  1  0  0  0  0
 45 39  1  0  0  0  0
M  END
>  <minimizedAffinity>
-5.79378939

$$$$

 OpenBabel03242510143D

 45 49  0  0  1  0  0  0  0  0999 V2000
   37.4040   30.4030   38.3920 N   0  0  0  0  0  0  0  0  0  0  0  0
   37.2880   29.9570   37.0100 C   0  0  0  0  0  0  0  0  0  0  0  0
   35.9890   29.2040   36.7810 C   0  0  0  0  0  0  0  0  0  0  0  0
   35.9430   27.9900   37.5510 N   0  0  0  0  0  0  0  0  0  0  0  0
   36.9200   28.0820   38.6180 C   0  0  0  0  0  0  0  0  0  0  0  0
   36.8010   29.4400   39.3120 C   0  0  1  0  0  0  0  0  0  0  0  0
   37.2780   30.8720   36.3970 H   0  0  0  0  0  0  0  0  0  0  0  0
   38.1780   29.3710   36.7220 H   0  0  0  0  0  0  0  0  0  0  0  0
   35.1810   29.8850   37.1090 H   0  0  0  0  0  0  0  0  0  0  0  0
   35.9150   29.0310   35.7000 H   0  0  0  0  0  0  0  0  0  0  0  0
   36.2600   27.1970   36.9300 H   0  0  0  0  0  0  0  0  0  0  0  0
   36.6390   27.3220   39.3770 H   0  0  0  0  0  0  0  0  0  0  0  0
   37.9500   27.9070   38.2560 H   0  0  0  0  0  0  0  0  0  0  0  0
   35.7290   29.6540   39.4500 H   0  0  0  0  0  0  0  0  0  0  0  0
   37.5290   29.3540   40.5670 N   0  0  0  0  0  0  0  0  0  0  0  0
   37.1420   29.8670   41.7700 C   0  0  0  0  0  0  0  0  0  0  0  0
   36.2220   30.4250   41.9860 H   0  0  0  0  0  0  0  0  0  0  0  0
   38.0530   29.6010   42.7030 N   0  0  0  0  0  0  0  0  0  0  0  0
   39.0700   28.9040   42.1490 C   0  0  0  0  0  0  0  0  0  0  0  0
   40.2370   28.3990   42.6820 C   0  0  0  0  0  0  0  0  0  0  0  0
   40.4870   28.5260   43.7390 H   0  0  0  0  0  0  0  0  0  0  0  0
   41.0340   27.7470   41.8190 N   0  0  0  0  0  0  0  0  0  0  0  0
   40.7190   27.5940   40.5140 C   0  0  0  0  0  0  0  0  0  0  0  0
   41.3820   27.0560   39.8180 H   0  0  0  0  0  0  0  0  0  0  0  0
   39.5720   28.0980   40.0220 N   0  0  0  0  0  0  0  0  0  0  0  0
   38.7140   28.7670   40.8150 C   0  0  0  0  0  0  0  0  0  0  0  0
   40.4980   30.6310   37.9220 Br  0  0  0  0  0  0  0  0  0  0  0  0
   39.3510   31.8910   38.7590 C   0  0  0  0  0  0  0  0  0  0  0  0
   39.8530   33.0680   39.2440 C   0  0  0  0  0  0  0  0  0  0  0  0
   39.0200   34.0150   39.8670 C   0  0  0  0  0  0  0  0  0  0  0  0
   37.6820   33.7250   39.9770 C   0  0  0  0  0  0  0  0  0  0  0  0
   37.2270   32.5290   39.4720 C   0  0  0  0  0  0  0  0  0  0  0  0
   38.0110   31.6080   38.8710 C   0  0  0  0  0  0  0  0  0  0  0  0
   39.4730   34.9110   40.2230 H   0  0  0  0  0  0  0  0  0  0  0  0
   37.0480   34.4520   40.4540 H   0  0  0  0  0  0  0  0  0  0  0  0
   36.1490   32.3610   39.5930 H   0  0  0  0  0  0  0  0  0  0  0  0
   43.0350   34.2020   37.8350 C   0  0  0  0  0  0  0  0  0  0  0  0
   43.9770   33.8500   38.8210 C   0  0  0  0  0  0  0  0  0  0  0  0
   43.4890   33.2240   39.9580 C   0  0  0  0  0  0  0  0  0  0  0  0
   42.1650   32.9840   40.0710 N   0  0  0  0  0  0  0  0  0  0  0  0
   41.2760   33.3340   39.1060 C   0  0  0  0  0  0  0  0  0  0  0  0
   41.7400   33.9470   37.9880 N   0  0  0  0  0  0  0  0  0  0  0  0
   43.2670   34.6970   36.8920 H   0  0  0  0  0  0  0  0  0  0  0  0
   44.9800   34.1140   38.5650 H   0  0  0  0  0  0  0  0  0  0  0  0
   44.2260   32.9730   40.6780 H   0  0  0  0  0  0  0  0  0  0  0  0
  1 33  1  0  0  0  0
  1  6  1  0  0  0  0
  2  1  1  0  0  0  0
  3  2  1  0  0  0  0
  3  9  1  0  0  0  0
  3  4  1  0  0  0  0
  4  5  1  0  0  0  0
  5  6  1  0  0  0  0
  5 12  1  0  0  0  0
  6 14  1  1  0  0  0
  6 15  1  0  0  0  0
  7  2  1  0  0  0  0
  8  2  1  0  0  0  0
 10  3  1  0  0  0  0
 11  4  1  0  0  0  0
 13  5  1  0  0  0  0
 15 26  1  0  0  0  0
 15 16  1  0  0  0  0
 16 17  1  0  0  0  0
 16 18  2  0  0  0  0
 19 20  1  0  0  0  0
 19 18  1  0  0  0  0
 20 21  1  0  0  0  0
 22 20  2  0  0  0  0
 23 22  1  0  0  0  0
 24 23  1  0  0  0  0
 25 23  2  0  0  0  0
 25 26  1  0  0  0  0
 26 19  2  0  0  0  0
 27 28  1  0  0  0  0
 28 33  2  0  0  0  0
 28 29  1  0  0  0  0
 29 30  2  0  0  0  0
 30 31  1  0  0  0  0
 30 34  1  0  0  0  0
 31 35  1  0  0  0  0
 32 36  1  0  0  0  0
 32 31  2  0  0  0  0
 33 32  1  0  0  0  0
 37 42  2  0  0  0  0
 37 38  1  0  0  0  0
 38 39  2  0  0  0  0
 39 40  1  0  0  0  0
 39 45  1  0  0  0  0
 41 29  1  0  0  0  0
 41 40  2  0  0  0  0
 42 41  1  0  0  0  0
 43 37  1  0  0  0  0
 44 38  1  0  0  0  0
M  END
>  <minimizedAffinity>
-5.75701475

$$$$
