
 OpenBabel03252506343D

 36 39  0  0  1  0  0  0  0  0999 V2000
   44.4800   35.7940   45.0060 C   0  0  0  0  0  0  0  0  0  0  0  0
   45.1010   35.7580   43.7520 C   0  0  0  0  0  0  0  0  0  0  0  0
   45.9770   34.7550   43.4800 C   0  0  0  0  0  0  0  0  0  0  0  0
   46.1870   33.8460   44.4680 N   0  0  0  0  0  0  0  0  0  0  0  0
   45.5990   33.8820   45.6520 C   0  0  0  0  0  0  0  0  0  0  0  0
   44.7260   34.8590   45.9570 N   0  0  0  0  0  0  0  0  0  0  0  0
   45.9130   32.8760   46.5910 N   0  0  0  0  0  0  0  0  0  0  0  0
   45.1500   32.6000   47.8160 C   0  0  0  0  0  0  0  0  0  0  0  0
   46.2580   32.2640   48.7930 C   0  0  0  0  0  0  0  0  0  0  0  0
   47.5180   32.0810   48.0020 C   0  0  0  0  0  0  0  0  0  0  0  0
   46.9960   31.9170   46.5960 C   0  0  1  0  0  0  0  0  0  0  0  0
   43.7690   36.6030   45.2300 H   0  0  0  0  0  0  0  0  0  0  0  0
   46.4370   34.7510   42.5200 H   0  0  0  0  0  0  0  0  0  0  0  0
   44.4390   31.7700   47.6810 H   0  0  0  0  0  0  0  0  0  0  0  0
   44.5790   33.5050   48.0870 H   0  0  0  0  0  0  0  0  0  0  0  0
   45.9870   31.3250   49.3430 H   0  0  0  0  0  0  0  0  0  0  0  0
   46.3610   33.1290   49.4810 H   0  0  0  0  0  0  0  0  0  0  0  0
   48.2130   32.9410   48.0910 H   0  0  0  0  0  0  0  0  0  0  0  0
   48.0560   31.1410   48.2590 H   0  0  0  0  0  0  0  0  0  0  0  0
   47.7290   32.2090   45.8280 H   0  0  0  0  0  0  0  0  0  0  0  0
   44.7510   36.8110   42.8450 N   0  0  0  0  0  0  0  0  0  0  0  0
   44.4010   37.7270   43.2000 H   0  0  0  0  0  0  0  0  0  0  0  0
   44.8470   36.6600   41.8080 H   0  0  0  0  0  0  0  0  0  0  0  0
   46.4170   30.2230   46.3790 S   0  0  0  0  0  0  0  0  0  0  0  0
   45.7740   27.7800   44.7570 H   0  0  0  0  0  0  0  0  0  0  0  0
   45.5400   28.6930   44.3160 N   0  0  0  0  0  0  0  0  0  0  0  0
   45.7020   29.9440   44.7750 C   0  0  0  0  0  0  0  0  0  0  0  0
   45.2510   30.8410   43.8510 N   0  0  0  0  0  0  0  0  0  0  0  0
   44.7940   30.1130   42.7860 C   0  0  0  0  0  0  0  0  0  0  0  0
   44.2300   30.3470   41.5640 C   0  0  0  0  0  0  0  0  0  0  0  0
   44.0750   31.4030   41.3050 H   0  0  0  0  0  0  0  0  0  0  0  0
   43.8810   29.3680   40.7210 N   0  0  0  0  0  0  0  0  0  0  0  0
   44.0670   28.0800   41.0290 C   0  0  0  0  0  0  0  0  0  0  0  0
   43.7440   27.3860   40.2660 H   0  0  0  0  0  0  0  0  0  0  0  0
   44.6160   27.7900   42.2120 N   0  0  0  0  0  0  0  0  0  0  0  0
   44.9820   28.7680   43.0920 C   0  0  0  0  0  0  0  0  0  0  0  0
  1 12  1  0  0  0  0
  1  6  1  0  0  0  0
  2  1  2  0  0  0  0
  3  2  1  0  0  0  0
  3  4  2  0  0  0  0
  4  5  1  0  0  0  0
  5  6  2  0  0  0  0
  5  7  1  0  0  0  0
  7 11  1  0  0  0  0
  7  8  1  0  0  0  0
  8 15  1  0  0  0  0
  8  9  1  0  0  0  0
  9 16  1  0  0  0  0
  9 17  1  0  0  0  0
 10 18  1  0  0  0  0
 10 19  1  0  0  0  0
 10  9  1  0  0  0  0
 11 20  1  6  0  0  0
 11 10  1  0  0  0  0
 13  3  1  0  0  0  0
 14  8  1  0  0  0  0
 21 22  1  0  0  0  0
 21  2  1  0  0  0  0
 23 21  1  0  0  0  0
 24 11  1  0  0  0  0
 26 25  1  0  0  0  0
 26 27  1  0  0  0  0
 27 24  1  0  0  0  0
 28 27  2  0  0  0  0
 29 36  1  0  0  0  0
 29 28  1  0  0  0  0
 30 29  2  0  0  0  0
 31 30  1  0  0  0  0
 32 33  2  0  0  0  0
 32 30  1  0  0  0  0
 33 35  1  0  0  0  0
 34 33  1  0  0  0  0
 35 36  2  0  0  0  0
 36 26  1  0  0  0  0
M  END
>  <minimizedAffinity>
-4.93282366

>  <minimizedRMSD>
0.115041517

$$$$
