
 OpenBabel03252508253D

 44 49  0  0  1  0  0  0  0  0999 V2000
   46.5150   32.4220   46.0590 C   0  0  1  0  0  0  0  0  0  0  0  0
   46.8860   32.6830   47.4580 C   0  0  0  0  0  0  0  0  0  0  0  0
   45.5300   32.0000   47.0310 C   0  0  2  0  0  0  0  0  0  0  0  0
   47.3660   31.7710   45.6400 H   0  0  0  0  0  0  0  0  0  0  0  0
   47.5420   32.0560   48.0730 H   0  0  0  0  0  0  0  0  0  0  0  0
   46.7680   33.7290   47.7870 H   0  0  0  0  0  0  0  0  0  0  0  0
   44.7330   32.6830   47.4700 H   0  0  0  0  0  0  0  0  0  0  0  0
   45.2590   30.6140   47.4230 C   0  0  0  0  0  0  0  0  0  0  0  0
   45.1230   30.1200   48.6820 C   0  0  0  0  0  0  0  0  0  0  0  0
   44.9900   28.7800   49.0160 C   0  0  0  0  0  0  0  0  0  0  0  0
   44.9990   27.8660   47.9530 C   0  0  0  0  0  0  0  0  0  0  0  0
   45.1340   28.3450   46.6500 C   0  0  0  0  0  0  0  0  0  0  0  0
   45.0740   27.4150   45.6310 C   0  0  0  0  0  0  0  0  0  0  0  0
   45.1330   27.8550   44.3140 C   0  0  0  0  0  0  0  0  0  0  0  0
   45.2450   29.1970   44.0240 C   0  0  0  0  0  0  0  0  0  0  0  0
   45.3020   30.0820   45.0750 C   0  0  0  0  0  0  0  0  0  0  0  0
   45.2570   29.6920   46.4060 C   0  0  0  0  0  0  0  0  0  0  0  0
   45.1230   30.8650   49.4750 H   0  0  0  0  0  0  0  0  0  0  0  0
   44.8850   28.4580   50.0450 H   0  0  0  0  0  0  0  0  0  0  0  0
   44.9000   26.8150   48.1970 H   0  0  0  0  0  0  0  0  0  0  0  0
   44.9830   26.3660   45.8840 H   0  0  0  0  0  0  0  0  0  0  0  0
   45.0790   27.0290   43.5850 H   0  0  0  0  0  0  0  0  0  0  0  0
   45.2710   29.3380   42.9610 H   0  0  0  0  0  0  0  0  0  0  0  0
   45.2990   31.0250   44.6110 H   0  0  0  0  0  0  0  0  0  0  0  0
   44.8410   35.3560   44.5740 C   0  0  0  0  0  0  0  0  0  0  0  0
   45.5960   35.5580   43.3630 C   0  0  0  0  0  0  0  0  0  0  0  0
   46.6840   34.6580   43.1070 C   0  0  0  0  0  0  0  0  0  0  0  0
   46.9530   33.6880   43.9830 N   0  0  0  0  0  0  0  0  0  0  0  0
   46.1950   33.5430   45.1270 C   0  0  0  0  0  0  0  0  0  0  0  0
   45.1770   34.3490   45.4090 N   0  0  0  0  0  0  0  0  0  0  0  0
   44.0440   36.0660   44.6980 H   0  0  0  0  0  0  0  0  0  0  0  0
   45.3310   36.3620   42.6910 H   0  0  0  0  0  0  0  0  0  0  0  0
   47.4350   34.8510   41.9110 N   0  0  0  0  0  0  0  0  0  0  0  0
   48.5180   35.6250   41.7000 C   0  0  0  0  0  0  0  0  0  0  0  0
   48.9500   36.2230   42.4950 H   0  0  0  0  0  0  0  0  0  0  0  0
   48.9500   35.5470   40.4320 N   0  0  0  0  0  0  0  0  0  0  0  0
   48.1230   34.6890   39.7840 C   0  0  0  0  0  0  0  0  0  0  0  0
   48.0380   34.2000   38.4980 C   0  0  0  0  0  0  0  0  0  0  0  0
   48.7790   34.5380   37.7620 H   0  0  0  0  0  0  0  0  0  0  0  0
   47.0570   33.3250   38.1600 N   0  0  0  0  0  0  0  0  0  0  0  0
   46.1470   32.9170   39.0780 C   0  0  0  0  0  0  0  0  0  0  0  0
   45.3610   32.2170   38.8120 H   0  0  0  0  0  0  0  0  0  0  0  0
   46.2140   33.3890   40.3540 N   0  0  0  0  0  0  0  0  0  0  0  0
   47.1710   34.2510   40.7120 C   0  0  0  0  0  0  0  0  0  0  0  0
  1  4  1  6  0  0  0
  1  3  1  0  0  0  0
  1  2  1  0  0  0  0
  2  6  1  0  0  0  0
  2  5  1  0  0  0  0
  3  8  1  0  0  0  0
  3  2  1  0  0  0  0
  3  7  1  1  0  0  0
  8  9  1  0  0  0  0
  9 10  2  0  0  0  0
  9 18  1  0  0  0  0
 10 19  1  0  0  0  0
 11 20  1  0  0  0  0
 11 10  1  0  0  0  0
 12 11  2  0  0  0  0
 13 21  1  0  0  0  0
 13 12  1  0  0  0  0
 14 13  2  0  0  0  0
 15 14  1  0  0  0  0
 15 16  2  0  0  0  0
 16 17  1  0  0  0  0
 17 12  1  0  0  0  0
 17  8  2  0  0  0  0
 22 14  1  0  0  0  0
 23 15  1  0  0  0  0
 24 16  1  0  0  0  0
 25 31  1  0  0  0  0
 25 30  1  0  0  0  0
 26 25  2  0  0  0  0
 27 26  1  0  0  0  0
 27 28  2  0  0  0  0
 28 29  1  0  0  0  0
 29 30  2  0  0  0  0
 29  1  1  0  0  0  0
 32 26  1  0  0  0  0
 33 27  1  0  0  0  0
 34 33  1  0  0  0  0
 34 35  1  0  0  0  0
 36 34  2  0  0  0  0
 37 36  1  0  0  0  0
 37 44  1  0  0  0  0
 38 37  2  0  0  0  0
 39 38  1  0  0  0  0
 40 38  1  0  0  0  0
 40 41  2  0  0  0  0
 41 43  1  0  0  0  0
 42 41  1  0  0  0  0
 43 44  2  0  0  0  0
 44 33  1  0  0  0  0
M  END
>  <minimizedAffinity>
-6.23869324

>  <minimizedRMSD>
0.996984959

$$$$
