
 OpenBabel03252508293D

 42 46  0  0  1  0  0  0  0  0999 V2000
   41.8340   33.2350   39.9420 N   0  0  0  0  0  0  0  0  0  0  0  0
   41.7200   34.1890   41.0500 C   0  0  2  0  0  0  0  0  0  0  0  0
   41.4580   35.5770   40.5840 C   0  0  0  0  0  0  0  0  0  0  0  0
   41.0920   35.6310   39.1810 N   0  0  0  0  0  0  0  0  0  0  0  0
   41.9730   34.9440   38.3090 C   0  0  0  0  0  0  0  0  0  0  0  0
   42.7830   33.8830   39.0060 C   0  0  2  0  0  0  0  0  0  0  0  0
   40.8870   33.2020   39.4780 H   0  0  0  0  0  0  0  0  0  0  0  0
   40.9270   33.8520   41.7360 H   0  0  0  0  0  0  0  0  0  0  0  0
   42.3140   36.2740   40.5970 H   0  0  0  0  0  0  0  0  0  0  0  0
   40.5870   36.0550   41.1210 H   0  0  0  0  0  0  0  0  0  0  0  0
   41.0260   36.6290   38.8970 H   0  0  0  0  0  0  0  0  0  0  0  0
   42.6070   35.5950   37.6990 H   0  0  0  0  0  0  0  0  0  0  0  0
   41.3290   34.3890   37.5660 H   0  0  0  0  0  0  0  0  0  0  0  0
   43.5400   34.4330   39.6130 H   0  0  0  0  0  0  0  0  0  0  0  0
   43.3940   32.9440   38.1280 N   0  0  0  0  0  0  0  0  0  0  0  0
   44.7050   32.9950   37.7500 C   0  0  0  0  0  0  0  0  0  0  0  0
   45.4200   33.7630   38.0850 H   0  0  0  0  0  0  0  0  0  0  0  0
   45.0170   31.9980   36.9260 N   0  0  0  0  0  0  0  0  0  0  0  0
   43.8810   31.2820   36.7630 C   0  0  0  0  0  0  0  0  0  0  0  0
   43.6290   30.1480   36.0170 C   0  0  0  0  0  0  0  0  0  0  0  0
   44.4490   29.7300   35.4520 H   0  0  0  0  0  0  0  0  0  0  0  0
   42.3800   29.6400   36.0410 N   0  0  0  0  0  0  0  0  0  0  0  0
   41.3890   30.2200   36.7770 C   0  0  0  0  0  0  0  0  0  0  0  0
   40.4310   29.7230   36.7180 H   0  0  0  0  0  0  0  0  0  0  0  0
   41.6520   31.3410   37.5100 N   0  0  0  0  0  0  0  0  0  0  0  0
   42.8760   31.8870   37.5220 C   0  0  0  0  0  0  0  0  0  0  0  0
   44.7920   33.5350   42.8330 C   0  0  0  0  0  0  0  0  0  0  0  0
   44.7420   34.9270   42.7430 C   0  0  0  0  0  0  0  0  0  0  0  0
   43.5920   35.3180   42.0800 C   0  0  0  0  0  0  0  0  0  0  0  0
   42.9780   34.1750   41.7820 N   0  0  0  0  0  0  0  0  0  0  0  0
   43.6750   33.1360   42.2210 N   0  0  0  0  0  0  0  0  0  0  0  0
   45.5780   35.5040   43.1880 H   0  0  0  0  0  0  0  0  0  0  0  0
   43.5510   36.3990   42.0180 H   0  0  0  0  0  0  0  0  0  0  0  0
   47.8640   31.4970   43.5620 C   0  0  0  0  0  0  0  0  0  0  0  0
   46.9040   32.2140   42.7850 C   0  0  0  0  0  0  0  0  0  0  0  0
   45.8560   32.7670   43.4810 C   0  0  0  0  0  0  0  0  0  0  0  0
   45.7760   32.6170   44.8370 N   0  0  0  0  0  0  0  0  0  0  0  0
   46.7130   31.9290   45.5310 C   0  0  0  0  0  0  0  0  0  0  0  0
   47.7370   31.3840   44.8760 N   0  0  0  0  0  0  0  0  0  0  0  0
   48.6690   31.0870   42.9300 H   0  0  0  0  0  0  0  0  0  0  0  0
   46.9690   32.3310   41.7120 H   0  0  0  0  0  0  0  0  0  0  0  0
   46.5950   31.8470   46.5940 H   0  0  0  0  0  0  0  0  0  0  0  0
  1  2  1  0  0  0  0
  2  8  1  1  0  0  0
  2 30  1  0  0  0  0
  3  9  1  0  0  0  0
  3  2  1  0  0  0  0
  3 10  1  0  0  0  0
  4  3  1  0  0  0  0
  5  6  1  0  0  0  0
  5  4  1  0  0  0  0
  6 14  1  1  0  0  0
  6  1  1  0  0  0  0
  7  1  1  0  0  0  0
 11  4  1  0  0  0  0
 12  5  1  0  0  0  0
 13  5  1  0  0  0  0
 15  6  1  0  0  0  0
 16 17  1  0  0  0  0
 16 15  1  0  0  0  0
 18 16  2  0  0  0  0
 19 18  1  0  0  0  0
 19 26  1  0  0  0  0
 20 22  1  0  0  0  0
 20 19  2  0  0  0  0
 21 20  1  0  0  0  0
 22 23  2  0  0  0  0
 23 25  1  0  0  0  0
 24 23  1  0  0  0  0
 25 26  2  0  0  0  0
 26 15  1  0  0  0  0
 27 36  1  0  0  0  0
 28 27  1  0  0  0  0
 28 32  1  0  0  0  0
 29 28  2  0  0  0  0
 30 29  1  0  0  0  0
 30 31  1  0  0  0  0
 31 27  2  0  0  0  0
 33 29  1  0  0  0  0
 34 39  1  0  0  0  0
 35 36  1  0  0  0  0
 35 34  2  0  0  0  0
 36 37  2  0  0  0  0
 37 38  1  0  0  0  0
 38 42  1  0  0  0  0
 39 38  2  0  0  0  0
 40 34  1  0  0  0  0
 41 35  1  0  0  0  0
M  END
>  <minimizedAffinity>
-4.48312378

>  <minimizedRMSD>
3.25266314

$$$$
