
 OpenBabel03242513103D

 44 49  0  0  0  0  0  0  0  0999 V2000
   37.2190   27.9160   40.0500 C   0  0  0  0  0  0  0  0  0  0  0  0
   37.1330   27.4420   41.3650 C   0  0  0  0  0  0  0  0  0  0  0  0
   37.2890   28.3690   42.3870 C   0  0  0  0  0  0  0  0  0  0  0  0
   37.5130   29.6700   42.0290 N   0  0  0  0  0  0  0  0  0  0  0  0
   37.5920   30.1080   40.7730 C   0  0  0  0  0  0  0  0  0  0  0  0
   37.4450   29.2280   39.7700 N   0  0  0  0  0  0  0  0  0  0  0  0
   37.0990   27.2020   39.2560 H   0  0  0  0  0  0  0  0  0  0  0  0
   36.9500   32.2620   39.7970 C   0  0  0  0  0  0  0  0  0  0  0  0
   37.8350   31.5110   40.5060 C   0  0  0  0  0  0  0  0  0  0  0  0
   39.0410   32.0430   41.0270 C   0  0  0  0  0  0  0  0  0  0  0  0
   39.3560   33.3760   40.8180 C   0  0  0  0  0  0  0  0  0  0  0  0
   40.3730   34.2120   41.1450 N   0  0  0  0  0  0  0  0  0  0  0  0
   40.0910   35.4400   40.6360 C   0  0  0  0  0  0  0  0  0  0  0  0
   38.9000   35.3540   39.9970 N   0  0  0  0  0  0  0  0  0  0  0  0
   38.4330   34.0980   40.0970 C   0  0  0  0  0  0  0  0  0  0  0  0
   37.2410   33.6060   39.5730 C   0  0  0  0  0  0  0  0  0  0  0  0
   36.0530   31.8310   39.4210 H   0  0  0  0  0  0  0  0  0  0  0  0
   39.7500   31.4380   41.5960 H   0  0  0  0  0  0  0  0  0  0  0  0
   41.1700   33.8230   41.7030 H   0  0  0  0  0  0  0  0  0  0  0  0
   40.7720   36.2780   40.7750 H   0  0  0  0  0  0  0  0  0  0  0  0
   36.5700   34.2420   39.0160 H   0  0  0  0  0  0  0  0  0  0  0  0
   37.2080   27.9310   43.7930 C   0  0  0  0  0  0  0  0  0  0  0  0
   37.1800   29.0470   44.6500 F   0  0  0  0  0  0  0  0  0  0  0  0
   36.0400   27.2420   44.0190 F   0  0  0  0  0  0  0  0  0  0  0  0
   38.3040   27.1650   44.0720 F   0  0  0  0  0  0  0  0  0  0  0  0
   36.9070   26.1240   41.5810 O   0  0  0  0  0  0  0  0  0  0  0  0
   37.4980   25.1420   40.8050 C   0  0  0  0  0  0  0  0  0  0  0  0
   36.5480   24.1300   40.7940 C   0  0  0  0  0  0  0  0  0  0  0  0
   37.3320   22.8210   39.7580 S   0  0  0  0  0  0  0  0  0  0  0  0
   38.8470   23.8980   39.5160 C   0  0  0  0  0  0  0  0  0  0  0  0
   38.5270   24.7730   40.1040 N   0  0  0  0  0  0  0  0  0  0  0  0
   35.4780   23.6350   41.0950 H   0  0  0  0  0  0  0  0  0  0  0  0
   40.0630   23.6170   38.7620 N   0  0  0  0  0  0  0  0  0  0  0  0
   41.0310   24.5260   38.5660 C   0  0  0  0  0  0  0  0  0  0  0  0
   40.9960   25.5540   38.9510 H   0  0  0  0  0  0  0  0  0  0  0  0
   41.9840   23.9170   37.8380 N   0  0  0  0  0  0  0  0  0  0  0  0
   41.5720   22.6720   37.6140 C   0  0  0  0  0  0  0  0  0  0  0  0
   42.1850   21.6280   36.9140 C   0  0  0  0  0  0  0  0  0  0  0  0
   43.1590   21.7830   36.4450 H   0  0  0  0  0  0  0  0  0  0  0  0
   41.5470   20.4450   36.8350 N   0  0  0  0  0  0  0  0  0  0  0  0
   40.3450   20.2290   37.4040 C   0  0  0  0  0  0  0  0  0  0  0  0
   39.9090   19.2370   37.2850 H   0  0  0  0  0  0  0  0  0  0  0  0
   39.7570   21.2510   38.0830 N   0  0  0  0  0  0  0  0  0  0  0  0
   40.3410   22.4520   38.1980 C   0  0  0  0  0  0  0  0  0  0  0  0
  1  2  1  0  0  0  0
  2 26  1  0  0  0  0
  2  3  2  0  0  0  0
  3 22  1  0  0  0  0
  4  3  1  0  0  0  0
  5  4  2  0  0  0  0
  6  1  2  0  0  0  0
  6  5  1  0  0  0  0
  7  1  1  0  0  0  0
  8  9  1  0  0  0  0
  9  5  1  0  0  0  0
  9 10  2  0  0  0  0
 10 18  1  0  0  0  0
 11 10  1  0  0  0  0
 11 12  1  0  0  0  0
 12 19  1  0  0  0  0
 13 20  1  0  0  0  0
 13 12  1  0  0  0  0
 14 15  1  0  0  0  0
 14 13  2  0  0  0  0
 15 11  2  0  0  0  0
 16  8  2  0  0  0  0
 16 15  1  0  0  0  0
 17  8  1  0  0  0  0
 21 16  1  0  0  0  0
 22 24  1  0  0  0  0
 22 25  1  0  0  0  0
 22 23  1  0  0  0  0
 27 26  1  0  0  0  0
 28 27  2  0  0  0  0
 28 32  1  0  0  0  0
 29 28  1  0  0  0  0
 30 29  1  0  0  0  0
 30 31  2  0  0  0  0
 31 27  1  0  0  0  0
 33 30  1  0  0  0  0
 34 33  1  0  0  0  0
 34 35  1  0  0  0  0
 36 34  2  0  0  0  0
 37 36  1  0  0  0  0
 37 44  1  0  0  0  0
 38 37  2  0  0  0  0
 39 38  1  0  0  0  0
 40 38  1  0  0  0  0
 40 41  2  0  0  0  0
 41 43  1  0  0  0  0
 42 41  1  0  0  0  0
 43 44  2  0  0  0  0
 44 33  1  0  0  0  0
M  END
>  <minimizedAffinity>
-7.36986113

$$$$

 OpenBabel03242513103D

 44 49  0  0  0  0  0  0  0  0999 V2000
   39.3950   26.9130   40.5470 C   0  0  0  0  0  0  0  0  0  0  0  0
   39.0400   27.4660   41.7840 C   0  0  0  0  0  0  0  0  0  0  0  0
   37.7720   27.1770   42.2700 C   0  0  0  0  0  0  0  0  0  0  0  0
   36.9710   26.3750   41.5040 N   0  0  0  0  0  0  0  0  0  0  0  0
   37.3220   25.8550   40.3280 C   0  0  0  0  0  0  0  0  0  0  0  0
   38.5440   26.1230   39.8400 N   0  0  0  0  0  0  0  0  0  0  0  0
   40.3760   27.1350   40.1680 H   0  0  0  0  0  0  0  0  0  0  0  0
   36.0460   23.7820   40.0460 C   0  0  0  0  0  0  0  0  0  0  0  0
   36.3930   25.0180   39.5970 C   0  0  0  0  0  0  0  0  0  0  0  0
   35.8750   25.5650   38.3960 C   0  0  0  0  0  0  0  0  0  0  0  0
   34.9810   24.8340   37.6320 C   0  0  0  0  0  0  0  0  0  0  0  0
   34.2980   25.0120   36.4740 N   0  0  0  0  0  0  0  0  0  0  0  0
   33.5580   23.8950   36.2430 C   0  0  0  0  0  0  0  0  0  0  0  0
   33.7900   23.0340   37.2620 N   0  0  0  0  0  0  0  0  0  0  0  0
   34.6580   23.5900   38.1240 C   0  0  0  0  0  0  0  0  0  0  0  0
   35.1480   23.0240   39.2970 C   0  0  0  0  0  0  0  0  0  0  0  0
   36.4540   23.4010   40.9520 H   0  0  0  0  0  0  0  0  0  0  0  0
   36.1550   26.5580   38.0380 H   0  0  0  0  0  0  0  0  0  0  0  0
   34.4260   25.9150   35.9600 H   0  0  0  0  0  0  0  0  0  0  0  0
   32.9240   23.8110   35.3620 H   0  0  0  0  0  0  0  0  0  0  0  0
   34.8430   22.0390   39.6130 H   0  0  0  0  0  0  0  0  0  0  0  0
   37.3390   27.7280   43.5680 C   0  0  0  0  0  0  0  0  0  0  0  0
   38.2480   27.3660   44.5790 F   0  0  0  0  0  0  0  0  0  0  0  0
   37.3320   29.1020   43.5310 F   0  0  0  0  0  0  0  0  0  0  0  0
   36.1030   27.2280   43.8600 F   0  0  0  0  0  0  0  0  0  0  0  0
   39.9310   28.2460   42.4420 O   0  0  0  0  0  0  0  0  0  0  0  0
   40.1590   29.5630   42.0810 C   0  0  0  0  0  0  0  0  0  0  0  0
   41.5090   29.7380   42.3550 C   0  0  0  0  0  0  0  0  0  0  0  0
   41.8170   31.4920   41.8710 S   0  0  0  0  0  0  0  0  0  0  0  0
   40.0200   31.6860   41.3730 C   0  0  0  0  0  0  0  0  0  0  0  0
   39.6680   30.6690   41.6110 N   0  0  0  0  0  0  0  0  0  0  0  0
   42.6010   29.3660   42.7390 H   0  0  0  0  0  0  0  0  0  0  0  0
   39.3370   32.8570   40.8340 N   0  0  0  0  0  0  0  0  0  0  0  0
   38.0670   32.8310   40.4020 C   0  0  0  0  0  0  0  0  0  0  0  0
   37.4310   31.9350   40.4150 H   0  0  0  0  0  0  0  0  0  0  0  0
   37.7820   34.0770   39.9820 N   0  0  0  0  0  0  0  0  0  0  0  0
   38.8730   34.8130   40.1680 C   0  0  0  0  0  0  0  0  0  0  0  0
   39.1090   36.1660   39.9000 C   0  0  0  0  0  0  0  0  0  0  0  0
   38.3180   36.7820   39.4670 H   0  0  0  0  0  0  0  0  0  0  0  0
   40.3210   36.6760   40.1870 N   0  0  0  0  0  0  0  0  0  0  0  0
   41.3130   35.9370   40.7200 C   0  0  0  0  0  0  0  0  0  0  0  0
   42.2590   36.4410   40.9170 H   0  0  0  0  0  0  0  0  0  0  0  0
   41.0730   34.6220   40.9770 N   0  0  0  0  0  0  0  0  0  0  0  0
   39.8880   34.0550   40.7150 C   0  0  0  0  0  0  0  0  0  0  0  0
  1  2  1  0  0  0  0
  2  3  2  0  0  0  0
  2 26  1  0  0  0  0
  3 22  1  0  0  0  0
  4  3  1  0  0  0  0
  5  4  2  0  0  0  0
  6  5  1  0  0  0  0
  6  1  2  0  0  0  0
  7  1  1  0  0  0  0
  8 17  1  0  0  0  0
  9  8  1  0  0  0  0
  9  5  1  0  0  0  0
 10  9  2  0  0  0  0
 11 15  2  0  0  0  0
 11 10  1  0  0  0  0
 12 11  1  0  0  0  0
 13 12  1  0  0  0  0
 13 14  2  0  0  0  0
 14 15  1  0  0  0  0
 15 16  1  0  0  0  0
 16 21  1  0  0  0  0
 16  8  2  0  0  0  0
 18 10  1  0  0  0  0
 19 12  1  0  0  0  0
 20 13  1  0  0  0  0
 22 25  1  0  0  0  0
 22 23  1  0  0  0  0
 24 22  1  0  0  0  0
 27 28  2  0  0  0  0
 27 26  1  0  0  0  0
 28 32  1  0  0  0  0
 29 28  1  0  0  0  0
 30 31  2  0  0  0  0
 30 29  1  0  0  0  0
 31 27  1  0  0  0  0
 33 30  1  0  0  0  0
 34 35  1  0  0  0  0
 34 33  1  0  0  0  0
 36 37  1  0  0  0  0
 36 34  2  0  0  0  0
 37 44  1  0  0  0  0
 38 37  2  0  0  0  0
 38 40  1  0  0  0  0
 39 38  1  0  0  0  0
 40 41  2  0  0  0  0
 41 42  1  0  0  0  0
 41 43  1  0  0  0  0
 44 33  1  0  0  0  0
 44 43  2  0  0  0  0
M  END
>  <minimizedAffinity>
-7.23487711

$$$$

 OpenBabel03242513103D

 44 49  0  0  0  0  0  0  0  0999 V2000
   39.0590   27.9120   40.3000 C   0  0  0  0  0  0  0  0  0  0  0  0
   38.5710   27.4070   41.5120 C   0  0  0  0  0  0  0  0  0  0  0  0
   38.0200   28.3160   42.4040 C   0  0  0  0  0  0  0  0  0  0  0  0
   37.9960   29.6310   42.0300 N   0  0  0  0  0  0  0  0  0  0  0  0
   38.4630   30.0990   40.8730 C   0  0  0  0  0  0  0  0  0  0  0  0
   39.0010   29.2360   39.9960 N   0  0  0  0  0  0  0  0  0  0  0  0
   39.4870   27.2110   39.6060 H   0  0  0  0  0  0  0  0  0  0  0  0
   37.3180   32.0500   39.9310 C   0  0  0  0  0  0  0  0  0  0  0  0
   38.3890   31.5150   40.5770 C   0  0  0  0  0  0  0  0  0  0  0  0
   39.4930   32.2970   41.0010 C   0  0  0  0  0  0  0  0  0  0  0  0
   39.5070   33.6610   40.7590 C   0  0  0  0  0  0  0  0  0  0  0  0
   40.3480   34.6970   41.0020 N   0  0  0  0  0  0  0  0  0  0  0  0
   39.7810   35.8280   40.5050 C   0  0  0  0  0  0  0  0  0  0  0  0
   38.5910   35.4820   39.9580 N   0  0  0  0  0  0  0  0  0  0  0  0
   38.4050   34.1590   40.1040 C   0  0  0  0  0  0  0  0  0  0  0  0
   37.3060   33.4190   39.6750 C   0  0  0  0  0  0  0  0  0  0  0  0
   36.5060   31.4340   39.6270 H   0  0  0  0  0  0  0  0  0  0  0  0
   40.3510   31.8650   41.5190 H   0  0  0  0  0  0  0  0  0  0  0  0
   41.2470   34.4950   41.5000 H   0  0  0  0  0  0  0  0  0  0  0  0
   40.2820   36.7910   40.5860 H   0  0  0  0  0  0  0  0  0  0  0  0
   36.4790   33.8900   39.1660 H   0  0  0  0  0  0  0  0  0  0  0  0
   37.4890   27.8450   43.6970 C   0  0  0  0  0  0  0  0  0  0  0  0
   38.4810   27.1430   44.4060 F   0  0  0  0  0  0  0  0  0  0  0  0
   37.1310   28.9110   44.4890 F   0  0  0  0  0  0  0  0  0  0  0  0
   36.4260   27.0220   43.4550 F   0  0  0  0  0  0  0  0  0  0  0  0
   38.6580   26.0770   41.7590 O   0  0  0  0  0  0  0  0  0  0  0  0
   38.0580   25.1390   40.9370 C   0  0  0  0  0  0  0  0  0  0  0  0
   38.6080   23.9400   41.3690 C   0  0  0  0  0  0  0  0  0  0  0  0
   37.8070   22.6870   40.2780 S   0  0  0  0  0  0  0  0  0  0  0  0
   36.8450   24.0380   39.4050 C   0  0  0  0  0  0  0  0  0  0  0  0
   37.2270   24.9060   39.9670 N   0  0  0  0  0  0  0  0  0  0  0  0
   39.3300   23.2630   42.0760 H   0  0  0  0  0  0  0  0  0  0  0  0
   35.8870   23.9240   38.3110 N   0  0  0  0  0  0  0  0  0  0  0  0
   35.1720   24.9630   37.8520 C   0  0  0  0  0  0  0  0  0  0  0  0
   35.2420   25.9840   38.2530 H   0  0  0  0  0  0  0  0  0  0  0  0
   34.4060   24.4870   36.8540 N   0  0  0  0  0  0  0  0  0  0  0  0
   34.6740   23.1890   36.7380 C   0  0  0  0  0  0  0  0  0  0  0  0
   34.1540   22.2320   35.8600 C   0  0  0  0  0  0  0  0  0  0  0  0
   33.4020   22.5200   35.1220 H   0  0  0  0  0  0  0  0  0  0  0  0
   34.6010   20.9660   35.9520 N   0  0  0  0  0  0  0  0  0  0  0  0
   35.5270   20.5860   36.8530 C   0  0  0  0  0  0  0  0  0  0  0  0
   35.8260   19.5370   36.8490 H   0  0  0  0  0  0  0  0  0  0  0  0
   36.0260   21.5240   37.7020 N   0  0  0  0  0  0  0  0  0  0  0  0
   35.6230   22.8010   37.6620 C   0  0  0  0  0  0  0  0  0  0  0  0
  1  2  1  0  0  0  0
  2 26  1  0  0  0  0
  2  3  2  0  0  0  0
  3 22  1  0  0  0  0
  4  3  1  0  0  0  0
  5  4  2  0  0  0  0
  6  1  2  0  0  0  0
  6  5  1  0  0  0  0
  7  1  1  0  0  0  0
  8  9  1  0  0  0  0
  9  5  1  0  0  0  0
  9 10  2  0  0  0  0
 10 18  1  0  0  0  0
 11 10  1  0  0  0  0
 11 12  1  0  0  0  0
 12 19  1  0  0  0  0
 13 20  1  0  0  0  0
 13 12  1  0  0  0  0
 14 15  1  0  0  0  0
 14 13  2  0  0  0  0
 15 11  2  0  0  0  0
 16  8  2  0  0  0  0
 16 15  1  0  0  0  0
 17  8  1  0  0  0  0
 21 16  1  0  0  0  0
 22 23  1  0  0  0  0
 22 24  1  0  0  0  0
 25 22  1  0  0  0  0
 27 28  2  0  0  0  0
 27 26  1  0  0  0  0
 28 32  1  0  0  0  0
 29 28  1  0  0  0  0
 30 31  2  0  0  0  0
 30 29  1  0  0  0  0
 31 27  1  0  0  0  0
 33 30  1  0  0  0  0
 34 35  1  0  0  0  0
 34 33  1  0  0  0  0
 36 34  2  0  0  0  0
 37 36  1  0  0  0  0
 37 44  1  0  0  0  0
 38 40  1  0  0  0  0
 38 37  2  0  0  0  0
 39 38  1  0  0  0  0
 40 41  2  0  0  0  0
 41 43  1  0  0  0  0
 42 41  1  0  0  0  0
 44 43  2  0  0  0  0
 44 33  1  0  0  0  0
M  END
>  <minimizedAffinity>
-7.23194456

$$$$

 OpenBabel03242513103D

 44 49  0  0  0  0  0  0  0  0999 V2000
   36.7230   27.7000   40.4270 C   0  0  0  0  0  0  0  0  0  0  0  0
   37.4400   27.9650   41.6020 C   0  0  0  0  0  0  0  0  0  0  0  0
   37.9750   26.8780   42.2780 C   0  0  0  0  0  0  0  0  0  0  0  0
   37.7610   25.6360   41.7470 N   0  0  0  0  0  0  0  0  0  0  0  0
   37.0780   25.3980   40.6280 C   0  0  0  0  0  0  0  0  0  0  0  0
   36.5510   26.4350   39.9580 N   0  0  0  0  0  0  0  0  0  0  0  0
   36.3060   28.5390   39.9000 H   0  0  0  0  0  0  0  0  0  0  0  0
   35.9090   23.7060   39.2950 C   0  0  0  0  0  0  0  0  0  0  0  0
   36.9100   24.0400   40.1530 C   0  0  0  0  0  0  0  0  0  0  0  0
   37.8480   23.0920   40.6350 C   0  0  0  0  0  0  0  0  0  0  0  0
   37.7620   21.7690   40.2340 C   0  0  0  0  0  0  0  0  0  0  0  0
   38.4460   20.6210   40.4700 N   0  0  0  0  0  0  0  0  0  0  0  0
   37.8550   19.6240   39.7600 C   0  0  0  0  0  0  0  0  0  0  0  0
   36.8090   20.1640   39.0900 N   0  0  0  0  0  0  0  0  0  0  0  0
   36.7350   21.4770   39.3670 C   0  0  0  0  0  0  0  0  0  0  0  0
   35.7990   22.3820   38.8750 C   0  0  0  0  0  0  0  0  0  0  0  0
   35.2220   24.4430   38.9520 H   0  0  0  0  0  0  0  0  0  0  0  0
   38.6500   23.3630   41.3240 H   0  0  0  0  0  0  0  0  0  0  0  0
   39.2690   20.6620   41.1150 H   0  0  0  0  0  0  0  0  0  0  0  0
   38.2360   18.6050   39.7950 H   0  0  0  0  0  0  0  0  0  0  0  0
   35.0220   22.0700   38.1950 H   0  0  0  0  0  0  0  0  0  0  0  0
   38.7410   27.0920   43.5210 C   0  0  0  0  0  0  0  0  0  0  0  0
   39.3100   25.8810   43.9580 F   0  0  0  0  0  0  0  0  0  0  0  0
   39.7900   27.9530   43.3000 F   0  0  0  0  0  0  0  0  0  0  0  0
   37.8920   27.5710   44.4770 F   0  0  0  0  0  0  0  0  0  0  0  0
   37.5770   29.2460   42.0200 O   0  0  0  0  0  0  0  0  0  0  0  0
   38.3330   30.1700   41.3180 C   0  0  0  0  0  0  0  0  0  0  0  0
   39.1080   29.3770   40.4830 C   0  0  0  0  0  0  0  0  0  0  0  0
   40.1140   30.6040   39.5430 S   0  0  0  0  0  0  0  0  0  0  0  0
   39.2900   32.0110   40.4690 C   0  0  0  0  0  0  0  0  0  0  0  0
   38.6180   31.4190   41.1110 N   0  0  0  0  0  0  0  0  0  0  0  0
   39.4860   28.3120   40.0310 H   0  0  0  0  0  0  0  0  0  0  0  0
   39.5080   33.4480   40.3410 N   0  0  0  0  0  0  0  0  0  0  0  0
   38.7630   34.3620   40.9800 C   0  0  0  0  0  0  0  0  0  0  0  0
   37.9290   34.1150   41.6520 H   0  0  0  0  0  0  0  0  0  0  0  0
   39.2490   35.5650   40.6260 N   0  0  0  0  0  0  0  0  0  0  0  0
   40.2620   35.3490   39.7920 C   0  0  0  0  0  0  0  0  0  0  0  0
   41.1030   36.2540   39.1370 C   0  0  0  0  0  0  0  0  0  0  0  0
   40.9690   37.3280   39.2830 H   0  0  0  0  0  0  0  0  0  0  0  0
   42.0680   35.7680   38.3330 N   0  0  0  0  0  0  0  0  0  0  0  0
   42.2530   34.4490   38.1360 C   0  0  0  0  0  0  0  0  0  0  0  0
   43.0610   34.1540   37.4660 H   0  0  0  0  0  0  0  0  0  0  0  0
   41.4290   33.5770   38.7780 N   0  0  0  0  0  0  0  0  0  0  0  0
   40.4500   33.9970   39.5910 C   0  0  0  0  0  0  0  0  0  0  0  0
  1  2  1  0  0  0  0
  2 26  1  0  0  0  0
  2  3  2  0  0  0  0
  3 22  1  0  0  0  0
  4  3  1  0  0  0  0
  5  4  2  0  0  0  0
  6  1  2  0  0  0  0
  6  5  1  0  0  0  0
  7  1  1  0  0  0  0
  8  9  1  0  0  0  0
  9  5  1  0  0  0  0
  9 10  2  0  0  0  0
 10 18  1  0  0  0  0
 11 12  1  0  0  0  0
 11 10  1  0  0  0  0
 12 19  1  0  0  0  0
 13 20  1  0  0  0  0
 13 12  1  0  0  0  0
 14 15  1  0  0  0  0
 14 13  2  0  0  0  0
 15 11  2  0  0  0  0
 16  8  2  0  0  0  0
 16 15  1  0  0  0  0
 17  8  1  0  0  0  0
 21 16  1  0  0  0  0
 22 23  1  0  0  0  0
 22 25  1  0  0  0  0
 24 22  1  0  0  0  0
 27 26  1  0  0  0  0
 28 27  2  0  0  0  0
 29 30  1  0  0  0  0
 29 28  1  0  0  0  0
 30 31  2  0  0  0  0
 31 27  1  0  0  0  0
 32 28  1  0  0  0  0
 33 30  1  0  0  0  0
 33 34  1  0  0  0  0
 34 35  1  0  0  0  0
 36 34  2  0  0  0  0
 37 36  1  0  0  0  0
 38 39  1  0  0  0  0
 38 37  2  0  0  0  0
 40 38  1  0  0  0  0
 41 40  2  0  0  0  0
 41 43  1  0  0  0  0
 42 41  1  0  0  0  0
 43 44  2  0  0  0  0
 44 37  1  0  0  0  0
 44 33  1  0  0  0  0
M  END
>  <minimizedAffinity>
-7.19907093

$$$$

 OpenBabel03242513103D

 44 49  0  0  0  0  0  0  0  0999 V2000
   36.5450   28.1260   40.0920 C   0  0  0  0  0  0  0  0  0  0  0  0
   37.1060   28.4770   41.3270 C   0  0  0  0  0  0  0  0  0  0  0  0
   37.5670   27.4450   42.1310 C   0  0  0  0  0  0  0  0  0  0  0  0
   37.4380   26.1690   41.6570 N   0  0  0  0  0  0  0  0  0  0  0  0
   36.9020   25.8490   40.4800 C   0  0  0  0  0  0  0  0  0  0  0  0
   36.4490   26.8320   39.6850 N   0  0  0  0  0  0  0  0  0  0  0  0
   36.1860   28.9230   39.4660 H   0  0  0  0  0  0  0  0  0  0  0  0
   35.8770   24.0420   39.1800 C   0  0  0  0  0  0  0  0  0  0  0  0
   36.8120   24.4610   40.0740 C   0  0  0  0  0  0  0  0  0  0  0  0
   37.7530   23.5790   40.6630 C   0  0  0  0  0  0  0  0  0  0  0  0
   37.7400   22.2340   40.3340 C   0  0  0  0  0  0  0  0  0  0  0  0
   38.4490   21.1280   40.6740 N   0  0  0  0  0  0  0  0  0  0  0  0
   37.9380   20.0710   39.9890 C   0  0  0  0  0  0  0  0  0  0  0  0
   36.9160   20.5320   39.2300 N   0  0  0  0  0  0  0  0  0  0  0  0
   36.7780   21.8540   39.4270 C   0  0  0  0  0  0  0  0  0  0  0  0
   35.8410   22.6930   38.8300 C   0  0  0  0  0  0  0  0  0  0  0  0
   35.1860   24.7300   38.7560 H   0  0  0  0  0  0  0  0  0  0  0  0
   38.5030   23.9190   41.3810 H   0  0  0  0  0  0  0  0  0  0  0  0
   39.2310   21.2370   41.3620 H   0  0  0  0  0  0  0  0  0  0  0  0
   38.3540   19.0710   40.1050 H   0  0  0  0  0  0  0  0  0  0  0  0
   35.1180   22.3130   38.1260 H   0  0  0  0  0  0  0  0  0  0  0  0
   38.1700   27.7500   43.4430 C   0  0  0  0  0  0  0  0  0  0  0  0
   38.7360   26.5890   44.0020 F   0  0  0  0  0  0  0  0  0  0  0  0
   39.1990   28.6510   43.3050 F   0  0  0  0  0  0  0  0  0  0  0  0
   37.1930   28.2280   44.2680 F   0  0  0  0  0  0  0  0  0  0  0  0
   37.1730   29.7840   41.6770 O   0  0  0  0  0  0  0  0  0  0  0  0
   38.0890   30.6500   41.1050 C   0  0  0  0  0  0  0  0  0  0  0  0
   37.3010   31.7110   40.6800 C   0  0  0  0  0  0  0  0  0  0  0  0
   38.5200   32.8690   39.9200 S   0  0  0  0  0  0  0  0  0  0  0  0
   39.9170   31.6840   40.3190 C   0  0  0  0  0  0  0  0  0  0  0  0
   39.3300   30.8890   40.8060 N   0  0  0  0  0  0  0  0  0  0  0  0
   36.2440   32.2950   40.5360 H   0  0  0  0  0  0  0  0  0  0  0  0
   41.3440   31.8210   40.0460 N   0  0  0  0  0  0  0  0  0  0  0  0
   42.2620   30.9500   40.4930 C   0  0  0  0  0  0  0  0  0  0  0  0
   42.0270   30.0640   41.0980 H   0  0  0  0  0  0  0  0  0  0  0  0
   43.4530   31.3920   40.0500 N   0  0  0  0  0  0  0  0  0  0  0  0
   43.2260   32.5050   39.3580 C   0  0  0  0  0  0  0  0  0  0  0  0
   44.1160   33.3530   38.6910 C   0  0  0  0  0  0  0  0  0  0  0  0
   45.1860   33.1340   38.6960 H   0  0  0  0  0  0  0  0  0  0  0  0
   43.6220   34.4320   38.0550 N   0  0  0  0  0  0  0  0  0  0  0  0
   42.3080   34.7240   38.0350 C   0  0  0  0  0  0  0  0  0  0  0  0
   42.0040   35.6200   37.4920 H   0  0  0  0  0  0  0  0  0  0  0  0
   41.4500   33.8920   38.6870 N   0  0  0  0  0  0  0  0  0  0  0  0
   41.8790   32.8030   39.3380 C   0  0  0  0  0  0  0  0  0  0  0  0
  1  2  1  0  0  0  0
  2 26  1  0  0  0  0
  2  3  2  0  0  0  0
  3 22  1  0  0  0  0
  4  3  1  0  0  0  0
  5  4  2  0  0  0  0
  6  1  2  0  0  0  0
  6  5  1  0  0  0  0
  7  1  1  0  0  0  0
  8  9  1  0  0  0  0
  9  5  1  0  0  0  0
  9 10  2  0  0  0  0
 10 18  1  0  0  0  0
 11 10  1  0  0  0  0
 11 12  1  0  0  0  0
 12 19  1  0  0  0  0
 13 20  1  0  0  0  0
 13 12  1  0  0  0  0
 14 15  1  0  0  0  0
 14 13  2  0  0  0  0
 15 11  2  0  0  0  0
 16  8  2  0  0  0  0
 16 15  1  0  0  0  0
 17  8  1  0  0  0  0
 21 16  1  0  0  0  0
 22 23  1  0  0  0  0
 22 25  1  0  0  0  0
 24 22  1  0  0  0  0
 27 26  1  0  0  0  0
 28 27  2  0  0  0  0
 29 30  1  0  0  0  0
 29 28  1  0  0  0  0
 30 31  2  0  0  0  0
 31 27  1  0  0  0  0
 32 28  1  0  0  0  0
 33 30  1  0  0  0  0
 33 34  1  0  0  0  0
 34 35  1  0  0  0  0
 36 34  2  0  0  0  0
 37 36  1  0  0  0  0
 38 39  1  0  0  0  0
 38 37  2  0  0  0  0
 40 38  1  0  0  0  0
 41 40  2  0  0  0  0
 41 43  1  0  0  0  0
 42 41  1  0  0  0  0
 43 44  2  0  0  0  0
 44 37  1  0  0  0  0
 44 33  1  0  0  0  0
M  END
>  <minimizedAffinity>
-7.08758545

$$$$

 OpenBabel03242513103D

 44 49  0  0  0  0  0  0  0  0999 V2000
   39.1050   27.9220   40.4660 C   0  0  0  0  0  0  0  0  0  0  0  0
   38.5810   27.4370   41.6710 C   0  0  0  0  0  0  0  0  0  0  0  0
   37.9830   28.3580   42.5200 C   0  0  0  0  0  0  0  0  0  0  0  0
   37.9540   29.6640   42.1140 N   0  0  0  0  0  0  0  0  0  0  0  0
   38.4560   30.1120   40.9640 C   0  0  0  0  0  0  0  0  0  0  0  0
   39.0390   29.2380   40.1280 N   0  0  0  0  0  0  0  0  0  0  0  0
   39.5700   27.2120   39.8060 H   0  0  0  0  0  0  0  0  0  0  0  0
   37.3000   32.0290   39.9670 C   0  0  0  0  0  0  0  0  0  0  0  0
   38.3720   31.5190   40.6320 C   0  0  0  0  0  0  0  0  0  0  0  0
   39.4660   32.3210   41.0420 C   0  0  0  0  0  0  0  0  0  0  0  0
   39.4700   33.6790   40.7660 C   0  0  0  0  0  0  0  0  0  0  0  0
   40.3020   34.7270   40.9860 N   0  0  0  0  0  0  0  0  0  0  0  0
   39.7280   35.8410   40.4580 C   0  0  0  0  0  0  0  0  0  0  0  0
   38.5450   35.4710   39.9140 N   0  0  0  0  0  0  0  0  0  0  0  0
   38.3680   34.1510   40.0920 C   0  0  0  0  0  0  0  0  0  0  0  0
   37.2780   33.3910   39.6770 C   0  0  0  0  0  0  0  0  0  0  0  0
   36.4940   31.3980   39.6750 H   0  0  0  0  0  0  0  0  0  0  0  0
   40.3250   31.9100   41.5750 H   0  0  0  0  0  0  0  0  0  0  0  0
   41.2000   34.5450   41.4940 H   0  0  0  0  0  0  0  0  0  0  0  0
   40.2200   36.8100   40.5170 H   0  0  0  0  0  0  0  0  0  0  0  0
   36.4500   33.8410   39.1520 H   0  0  0  0  0  0  0  0  0  0  0  0
   37.4110   27.9100   43.8040 C   0  0  0  0  0  0  0  0  0  0  0  0
   38.3450   27.1280   44.5080 F   0  0  0  0  0  0  0  0  0  0  0  0
   37.1260   28.9870   44.6090 F   0  0  0  0  0  0  0  0  0  0  0  0
   36.2940   27.1680   43.5440 F   0  0  0  0  0  0  0  0  0  0  0  0
   38.6780   26.1150   41.9520 O   0  0  0  0  0  0  0  0  0  0  0  0
   38.3630   25.1420   41.0190 C   0  0  0  0  0  0  0  0  0  0  0  0
   36.9920   24.9900   41.1690 C   0  0  0  0  0  0  0  0  0  0  0  0
   36.5690   23.6960   39.9240 S   0  0  0  0  0  0  0  0  0  0  0  0
   38.3670   23.5840   39.4070 C   0  0  0  0  0  0  0  0  0  0  0  0
   38.7870   24.3380   40.0930 N   0  0  0  0  0  0  0  0  0  0  0  0
   35.9150   25.2450   41.6730 H   0  0  0  0  0  0  0  0  0  0  0  0
   38.9800   22.7350   38.3910 N   0  0  0  0  0  0  0  0  0  0  0  0
   40.2690   22.8370   38.0310 C   0  0  0  0  0  0  0  0  0  0  0  0
   40.9730   23.5610   38.4640 H   0  0  0  0  0  0  0  0  0  0  0  0
   40.4740   21.9050   37.0830 N   0  0  0  0  0  0  0  0  0  0  0  0
   39.3190   21.2730   36.8960 C   0  0  0  0  0  0  0  0  0  0  0  0
   38.9890   20.2270   36.0290 C   0  0  0  0  0  0  0  0  0  0  0  0
   39.7490   19.8080   35.3660 H   0  0  0  0  0  0  0  0  0  0  0  0
   37.7260   19.7600   36.0360 N   0  0  0  0  0  0  0  0  0  0  0  0
   36.7720   20.2600   36.8440 C   0  0  0  0  0  0  0  0  0  0  0  0
   35.7780   19.8150   36.7760 H   0  0  0  0  0  0  0  0  0  0  0  0
   37.1020   21.2780   37.6840 N   0  0  0  0  0  0  0  0  0  0  0  0
   38.3410   21.7870   37.7250 C   0  0  0  0  0  0  0  0  0  0  0  0
  1  2  1  0  0  0  0
  2 26  1  0  0  0  0
  2  3  2  0  0  0  0
  3 22  1  0  0  0  0
  4  3  1  0  0  0  0
  5  4  2  0  0  0  0
  6  1  2  0  0  0  0
  6  5  1  0  0  0  0
  7  1  1  0  0  0  0
  8  9  1  0  0  0  0
  9  5  1  0  0  0  0
  9 10  2  0  0  0  0
 10 18  1  0  0  0  0
 11 12  1  0  0  0  0
 11 10  1  0  0  0  0
 12 19  1  0  0  0  0
 13 20  1  0  0  0  0
 13 12  1  0  0  0  0
 14 15  1  0  0  0  0
 14 13  2  0  0  0  0
 15 11  2  0  0  0  0
 16  8  2  0  0  0  0
 16 15  1  0  0  0  0
 17  8  1  0  0  0  0
 21 16  1  0  0  0  0
 22 23  1  0  0  0  0
 22 24  1  0  0  0  0
 25 22  1  0  0  0  0
 27 28  2  0  0  0  0
 27 26  1  0  0  0  0
 28 32  1  0  0  0  0
 29 28  1  0  0  0  0
 30 29  1  0  0  0  0
 30 31  2  0  0  0  0
 31 27  1  0  0  0  0
 33 30  1  0  0  0  0
 34 33  1  0  0  0  0
 34 35  1  0  0  0  0
 36 34  2  0  0  0  0
 37 36  1  0  0  0  0
 37 44  1  0  0  0  0
 38 40  1  0  0  0  0
 38 37  2  0  0  0  0
 39 38  1  0  0  0  0
 40 41  2  0  0  0  0
 41 43  1  0  0  0  0
 42 41  1  0  0  0  0
 43 44  2  0  0  0  0
 44 33  1  0  0  0  0
M  END
>  <minimizedAffinity>
-7.02454519

$$$$

 OpenBabel03242513103D

 44 49  0  0  0  0  0  0  0  0999 V2000
   36.8690   28.0340   40.0760 C   0  0  0  0  0  0  0  0  0  0  0  0
   36.8510   27.5430   41.3880 C   0  0  0  0  0  0  0  0  0  0  0  0
   37.1680   28.4320   42.4040 C   0  0  0  0  0  0  0  0  0  0  0  0
   37.4720   29.7170   42.0460 N   0  0  0  0  0  0  0  0  0  0  0  0
   37.4850   30.1720   40.7940 C   0  0  0  0  0  0  0  0  0  0  0  0
   37.1820   29.3270   39.7950 N   0  0  0  0  0  0  0  0  0  0  0  0
   36.6250   27.3470   39.2860 H   0  0  0  0  0  0  0  0  0  0  0  0
   36.9830   32.3690   39.8330 C   0  0  0  0  0  0  0  0  0  0  0  0
   37.8240   31.5540   40.5250 C   0  0  0  0  0  0  0  0  0  0  0  0
   39.0740   31.9970   41.0260 C   0  0  0  0  0  0  0  0  0  0  0  0
   39.4790   33.3050   40.8150 C   0  0  0  0  0  0  0  0  0  0  0  0
   40.5590   34.0640   41.1260 N   0  0  0  0  0  0  0  0  0  0  0  0
   40.3580   35.3110   40.6240 C   0  0  0  0  0  0  0  0  0  0  0  0
   39.1530   35.3130   40.0050 N   0  0  0  0  0  0  0  0  0  0  0  0
   38.5990   34.0930   40.1110 C   0  0  0  0  0  0  0  0  0  0  0  0
   37.3660   33.6900   39.6060 C   0  0  0  0  0  0  0  0  0  0  0  0
   36.0510   32.0050   39.4720 H   0  0  0  0  0  0  0  0  0  0  0  0
   39.7460   31.3410   41.5810 H   0  0  0  0  0  0  0  0  0  0  0  0
   41.3360   33.6180   41.6680 H   0  0  0  0  0  0  0  0  0  0  0  0
   41.1000   36.0970   40.7530 H   0  0  0  0  0  0  0  0  0  0  0  0
   36.7330   34.3740   39.0630 H   0  0  0  0  0  0  0  0  0  0  0  0
   37.1650   27.9760   43.8070 C   0  0  0  0  0  0  0  0  0  0  0  0
   38.2680   27.1360   44.0490 F   0  0  0  0  0  0  0  0  0  0  0  0
   37.2980   29.0430   44.6630 F   0  0  0  0  0  0  0  0  0  0  0  0
   36.0060   27.2910   44.0370 F   0  0  0  0  0  0  0  0  0  0  0  0
   36.5320   26.2440   41.6050 O   0  0  0  0  0  0  0  0  0  0  0  0
   37.0170   25.2260   40.8020 C   0  0  0  0  0  0  0  0  0  0  0  0
   38.1580   24.8080   41.4730 C   0  0  0  0  0  0  0  0  0  0  0  0
   38.8050   23.4490   40.4080 S   0  0  0  0  0  0  0  0  0  0  0  0
   37.3840   23.6910   39.2090 C   0  0  0  0  0  0  0  0  0  0  0  0
   36.8670   24.5160   39.7260 N   0  0  0  0  0  0  0  0  0  0  0  0
   38.9650   24.8480   42.3830 H   0  0  0  0  0  0  0  0  0  0  0  0
   37.0910   22.9730   37.9730 N   0  0  0  0  0  0  0  0  0  0  0  0
   35.9690   23.1630   37.2640 C   0  0  0  0  0  0  0  0  0  0  0  0
   35.1750   23.8690   37.5440 H   0  0  0  0  0  0  0  0  0  0  0  0
   36.0460   22.3410   36.2020 N   0  0  0  0  0  0  0  0  0  0  0  0
   37.1970   21.6830   36.2970 C   0  0  0  0  0  0  0  0  0  0  0  0
   37.7600   20.7160   35.4570 C   0  0  0  0  0  0  0  0  0  0  0  0
   37.2270   20.3970   34.5590 H   0  0  0  0  0  0  0  0  0  0  0  0
   38.9590   20.1990   35.7850 N   0  0  0  0  0  0  0  0  0  0  0  0
   39.6350   20.5760   36.8870 C   0  0  0  0  0  0  0  0  0  0  0  0
   40.6000   20.0990   37.0660 H   0  0  0  0  0  0  0  0  0  0  0  0
   39.0800   21.5170   37.6970 N   0  0  0  0  0  0  0  0  0  0  0  0
   37.8900   22.0700   37.4260 C   0  0  0  0  0  0  0  0  0  0  0  0
  1  2  1  0  0  0  0
  2 26  1  0  0  0  0
  2  3  2  0  0  0  0
  3 22  1  0  0  0  0
  4  3  1  0  0  0  0
  5  4  2  0  0  0  0
  6  1  2  0  0  0  0
  6  5  1  0  0  0  0
  7  1  1  0  0  0  0
  8  9  1  0  0  0  0
  9  5  1  0  0  0  0
  9 10  2  0  0  0  0
 10 18  1  0  0  0  0
 11 10  1  0  0  0  0
 11 12  1  0  0  0  0
 12 19  1  0  0  0  0
 13 20  1  0  0  0  0
 13 12  1  0  0  0  0
 14 15  1  0  0  0  0
 14 13  2  0  0  0  0
 15 11  2  0  0  0  0
 16  8  2  0  0  0  0
 16 15  1  0  0  0  0
 17  8  1  0  0  0  0
 21 16  1  0  0  0  0
 22 25  1  0  0  0  0
 22 23  1  0  0  0  0
 22 24  1  0  0  0  0
 27 28  2  0  0  0  0
 27 26  1  0  0  0  0
 28 32  1  0  0  0  0
 29 28  1  0  0  0  0
 30 31  2  0  0  0  0
 30 29  1  0  0  0  0
 31 27  1  0  0  0  0
 33 30  1  0  0  0  0
 34 35  1  0  0  0  0
 34 33  1  0  0  0  0
 36 37  1  0  0  0  0
 36 34  2  0  0  0  0
 37 44  1  0  0  0  0
 38 40  1  0  0  0  0
 38 37  2  0  0  0  0
 39 38  1  0  0  0  0
 40 41  2  0  0  0  0
 41 42  1  0  0  0  0
 41 43  1  0  0  0  0
 44 43  2  0  0  0  0
 44 33  1  0  0  0  0
M  END
>  <minimizedAffinity>
-7.00448751

$$$$

 OpenBabel03242513103D

 44 49  0  0  0  0  0  0  0  0999 V2000
   36.6240   27.0740   39.9240 C   0  0  0  0  0  0  0  0  0  0  0  0
   37.0080   27.5250   41.1940 C   0  0  0  0  0  0  0  0  0  0  0  0
   37.8000   26.6770   41.9560 C   0  0  0  0  0  0  0  0  0  0  0  0
   38.1420   25.4720   41.4080 N   0  0  0  0  0  0  0  0  0  0  0  0
   37.7700   25.0560   40.1980 C   0  0  0  0  0  0  0  0  0  0  0  0
   37.0030   25.8600   39.4440 N   0  0  0  0  0  0  0  0  0  0  0  0
   36.0100   27.7280   39.3310 H   0  0  0  0  0  0  0  0  0  0  0  0
   38.7880   23.6090   38.5020 C   0  0  0  0  0  0  0  0  0  0  0  0
   38.1900   23.7560   39.7150 C   0  0  0  0  0  0  0  0  0  0  0  0
   37.9390   22.6610   40.5790 C   0  0  0  0  0  0  0  0  0  0  0  0
   38.3060   21.3810   40.1970 C   0  0  0  0  0  0  0  0  0  0  0  0
   38.2350   20.1350   40.7290 N   0  0  0  0  0  0  0  0  0  0  0  0
   38.7840   19.2640   39.8410 C   0  0  0  0  0  0  0  0  0  0  0  0
   39.1910   19.9800   38.7660 N   0  0  0  0  0  0  0  0  0  0  0  0
   38.9080   21.2780   38.9650 C   0  0  0  0  0  0  0  0  0  0  0  0
   39.1680   22.3320   38.0930 C   0  0  0  0  0  0  0  0  0  0  0  0
   38.9620   24.4530   37.8780 H   0  0  0  0  0  0  0  0  0  0  0  0
   37.4590   22.7820   41.5520 H   0  0  0  0  0  0  0  0  0  0  0  0
   37.8010   20.0280   41.6760 H   0  0  0  0  0  0  0  0  0  0  0  0
   38.8370   18.1980   40.0560 H   0  0  0  0  0  0  0  0  0  0  0  0
   39.6460   22.1650   37.1400 H   0  0  0  0  0  0  0  0  0  0  0  0
   38.2380   27.0950   43.3010 C   0  0  0  0  0  0  0  0  0  0  0  0
   39.0720   28.2250   43.2140 F   0  0  0  0  0  0  0  0  0  0  0  0
   37.1600   27.4690   44.0670 F   0  0  0  0  0  0  0  0  0  0  0  0
   38.9240   26.0610   43.8730 F   0  0  0  0  0  0  0  0  0  0  0  0
   36.5970   28.7450   41.6170 O   0  0  0  0  0  0  0  0  0  0  0  0
   37.3050   29.8980   41.3250 C   0  0  0  0  0  0  0  0  0  0  0  0
   36.3460   30.7230   40.7540 C   0  0  0  0  0  0  0  0  0  0  0  0
   37.2850   32.2630   40.3670 S   0  0  0  0  0  0  0  0  0  0  0  0
   38.8500   31.5010   41.0620 C   0  0  0  0  0  0  0  0  0  0  0  0
   38.4440   30.5200   41.3570 N   0  0  0  0  0  0  0  0  0  0  0  0
   35.2220   30.9860   40.3690 H   0  0  0  0  0  0  0  0  0  0  0  0
   40.1870   32.0770   41.1620 N   0  0  0  0  0  0  0  0  0  0  0  0
   41.2020   31.4680   41.7940 C   0  0  0  0  0  0  0  0  0  0  0  0
   41.1210   30.4900   42.2890 H   0  0  0  0  0  0  0  0  0  0  0  0
   42.2650   32.2850   41.6820 N   0  0  0  0  0  0  0  0  0  0  0  0
   41.8700   33.3530   40.9950 C   0  0  0  0  0  0  0  0  0  0  0  0
   42.5800   34.4920   40.6050 C   0  0  0  0  0  0  0  0  0  0  0  0
   43.6340   34.5950   40.8700 H   0  0  0  0  0  0  0  0  0  0  0  0
   41.9350   35.4430   39.9030 N   0  0  0  0  0  0  0  0  0  0  0  0
   40.6360   35.3390   39.5640 C   0  0  0  0  0  0  0  0  0  0  0  0
   40.2030   36.1620   38.9940 H   0  0  0  0  0  0  0  0  0  0  0  0
   39.9530   34.2270   39.9480 N   0  0  0  0  0  0  0  0  0  0  0  0
   40.5380   33.2450   40.6470 C   0  0  0  0  0  0  0  0  0  0  0  0
  1  2  1  0  0  0  0
  2 26  1  0  0  0  0
  2  3  2  0  0  0  0
  3 22  1  0  0  0  0
  4  3  1  0  0  0  0
  5  4  2  0  0  0  0
  6  1  2  0  0  0  0
  6  5  1  0  0  0  0
  7  1  1  0  0  0  0
  8  9  1  0  0  0  0
  9  5  1  0  0  0  0
  9 10  2  0  0  0  0
 10 18  1  0  0  0  0
 11 10  1  0  0  0  0
 11 12  1  0  0  0  0
 12 19  1  0  0  0  0
 13 20  1  0  0  0  0
 13 12  1  0  0  0  0
 14 15  1  0  0  0  0
 14 13  2  0  0  0  0
 15 11  2  0  0  0  0
 16  8  2  0  0  0  0
 16 15  1  0  0  0  0
 17  8  1  0  0  0  0
 21 16  1  0  0  0  0
 22 25  1  0  0  0  0
 22 24  1  0  0  0  0
 23 22  1  0  0  0  0
 27 31  1  0  0  0  0
 27 26  1  0  0  0  0
 28 27  2  0  0  0  0
 29 28  1  0  0  0  0
 29 30  1  0  0  0  0
 30 33  1  0  0  0  0
 30 31  2  0  0  0  0
 32 28  1  0  0  0  0
 33 34  1  0  0  0  0
 34 35  1  0  0  0  0
 36 34  2  0  0  0  0
 37 36  1  0  0  0  0
 38 39  1  0  0  0  0
 38 37  2  0  0  0  0
 40 38  1  0  0  0  0
 41 40  2  0  0  0  0
 41 43  1  0  0  0  0
 42 41  1  0  0  0  0
 43 44  2  0  0  0  0
 44 37  1  0  0  0  0
 44 33  1  0  0  0  0
M  END
>  <minimizedAffinity>
-6.9796958

$$$$

 OpenBabel03242513103D

 44 49  0  0  0  0  0  0  0  0999 V2000
   40.2240   28.0460   40.3770 C   0  0  0  0  0  0  0  0  0  0  0  0
   39.7040   27.9770   41.6760 C   0  0  0  0  0  0  0  0  0  0  0  0
   38.3350   28.1500   41.8230 C   0  0  0  0  0  0  0  0  0  0  0  0
   37.6020   28.3730   40.6890 N   0  0  0  0  0  0  0  0  0  0  0  0
   38.1090   28.4360   39.4590 C   0  0  0  0  0  0  0  0  0  0  0  0
   39.4320   28.2720   39.2950 N   0  0  0  0  0  0  0  0  0  0  0  0
   41.2840   27.9130   40.2590 H   0  0  0  0  0  0  0  0  0  0  0  0
   35.9220   28.9680   38.4910 C   0  0  0  0  0  0  0  0  0  0  0  0
   37.2410   28.6790   38.3260 C   0  0  0  0  0  0  0  0  0  0  0  0
   37.8490   28.5980   37.0480 C   0  0  0  0  0  0  0  0  0  0  0  0
   37.0930   28.8160   35.9070 C   0  0  0  0  0  0  0  0  0  0  0  0
   37.3100   28.8250   34.5680 N   0  0  0  0  0  0  0  0  0  0  0  0
   36.1330   29.1150   33.9520 C   0  0  0  0  0  0  0  0  0  0  0  0
   35.1980   29.2830   34.9160 N   0  0  0  0  0  0  0  0  0  0  0  0
   35.7660   29.1050   36.1210 C   0  0  0  0  0  0  0  0  0  0  0  0
   35.1380   29.1920   37.3610 C   0  0  0  0  0  0  0  0  0  0  0  0
   35.4970   29.0220   39.4650 H   0  0  0  0  0  0  0  0  0  0  0  0
   38.9080   28.3670   36.9180 H   0  0  0  0  0  0  0  0  0  0  0  0
   38.2780   28.6230   34.2240 H   0  0  0  0  0  0  0  0  0  0  0  0
   36.0660   29.1760   32.8670 H   0  0  0  0  0  0  0  0  0  0  0  0
   34.0880   29.4240   37.4410 H   0  0  0  0  0  0  0  0  0  0  0  0
   37.7270   28.0870   43.1650 C   0  0  0  0  0  0  0  0  0  0  0  0
   38.2580   27.0050   43.8920 F   0  0  0  0  0  0  0  0  0  0  0  0
   38.0260   29.2190   43.8850 F   0  0  0  0  0  0  0  0  0  0  0  0
   36.3780   27.9260   43.0220 F   0  0  0  0  0  0  0  0  0  0  0  0
   40.5440   27.7500   42.7150 O   0  0  0  0  0  0  0  0  0  0  0  0
   41.5590   28.6310   43.0430 C   0  0  0  0  0  0  0  0  0  0  0  0
   42.3650   27.8860   43.8930 C   0  0  0  0  0  0  0  0  0  0  0  0
   43.7210   29.0570   44.3290 S   0  0  0  0  0  0  0  0  0  0  0  0
   42.9410   30.3840   43.2600 C   0  0  0  0  0  0  0  0  0  0  0  0
   42.0660   29.8180   42.9000 N   0  0  0  0  0  0  0  0  0  0  0  0
   42.6650   26.8800   44.5070 H   0  0  0  0  0  0  0  0  0  0  0  0
   43.3950   31.7470   43.0080 N   0  0  0  0  0  0  0  0  0  0  0  0
   42.8070   32.5640   42.1220 C   0  0  0  0  0  0  0  0  0  0  0  0
   41.9380   32.2850   41.5100 H   0  0  0  0  0  0  0  0  0  0  0  0
   43.4880   33.7230   42.1620 N   0  0  0  0  0  0  0  0  0  0  0  0
   44.4590   33.5780   43.0590 C   0  0  0  0  0  0  0  0  0  0  0  0
   45.4440   34.4770   43.4810 C   0  0  0  0  0  0  0  0  0  0  0  0
   45.4890   35.4790   43.0490 H   0  0  0  0  0  0  0  0  0  0  0  0
   46.3210   34.0750   44.4200 N   0  0  0  0  0  0  0  0  0  0  0  0
   46.2870   32.8450   44.9670 C   0  0  0  0  0  0  0  0  0  0  0  0
   47.0400   32.6140   45.7210 H   0  0  0  0  0  0  0  0  0  0  0  0
   45.3240   31.9780   44.5500 N   0  0  0  0  0  0  0  0  0  0  0  0
   44.4220   32.3170   43.6190 C   0  0  0  0  0  0  0  0  0  0  0  0
  1  2  1  0  0  0  0
  2  3  2  0  0  0  0
  2 26  1  0  0  0  0
  3 22  1  0  0  0  0
  4  3  1  0  0  0  0
  5  4  2  0  0  0  0
  6  5  1  0  0  0  0
  6  1  2  0  0  0  0
  7  1  1  0  0  0  0
  8 17  1  0  0  0  0
  9  8  1  0  0  0  0
  9  5  1  0  0  0  0
 10  9  2  0  0  0  0
 11 15  2  0  0  0  0
 11 10  1  0  0  0  0
 12 11  1  0  0  0  0
 13 12  1  0  0  0  0
 13 14  2  0  0  0  0
 14 15  1  0  0  0  0
 15 16  1  0  0  0  0
 16 21  1  0  0  0  0
 16  8  2  0  0  0  0
 18 10  1  0  0  0  0
 19 12  1  0  0  0  0
 20 13  1  0  0  0  0
 22 24  1  0  0  0  0
 22 23  1  0  0  0  0
 25 22  1  0  0  0  0
 26 27  1  0  0  0  0
 27 28  2  0  0  0  0
 28 29  1  0  0  0  0
 28 32  1  0  0  0  0
 30 29  1  0  0  0  0
 31 27  1  0  0  0  0
 31 30  2  0  0  0  0
 33 30  1  0  0  0  0
 33 44  1  0  0  0  0
 34 36  2  0  0  0  0
 34 33  1  0  0  0  0
 35 34  1  0  0  0  0
 36 37  1  0  0  0  0
 37 38  2  0  0  0  0
 37 44  1  0  0  0  0
 38 40  1  0  0  0  0
 39 38  1  0  0  0  0
 40 41  2  0  0  0  0
 41 42  1  0  0  0  0
 43 41  1  0  0  0  0
 44 43  2  0  0  0  0
M  END
>  <minimizedAffinity>
-6.80778122

$$$$
