
 OpenBabel03252503193D

 42 46  0  0  0  0  0  0  0  0999 V2000
   43.9570   34.4850   41.2240 C   0  0  0  0  0  0  0  0  0  0  0  0
   45.0300   33.7180   41.5880 C   0  0  0  0  0  0  0  0  0  0  0  0
   45.3160   34.0630   42.8620 N   0  0  0  0  0  0  0  0  0  0  0  0
   44.4550   34.9960   43.2560 C   0  0  0  0  0  0  0  0  0  0  0  0
   43.6070   35.2670   42.2500 N   0  0  0  0  0  0  0  0  0  0  0  0
   44.3410   35.6750   44.5000 N   0  0  0  0  0  0  0  0  0  0  0  0
   45.5470   32.9880   40.9870 H   0  0  0  0  0  0  0  0  0  0  0  0
   44.3370   35.0330   45.3470 H   0  0  0  0  0  0  0  0  0  0  0  0
   44.2730   36.7170   44.4940 H   0  0  0  0  0  0  0  0  0  0  0  0
   46.3610   33.5490   43.7140 C   0  0  0  0  0  0  0  0  0  0  0  0
   46.2820   32.4460   43.8350 H   0  0  0  0  0  0  0  0  0  0  0  0
   46.2940   33.9830   44.7230 H   0  0  0  0  0  0  0  0  0  0  0  0
   47.6180   33.8680   43.0570 N   0  0  0  0  0  0  0  0  0  0  0  0
   48.1040   35.0140   42.5460 C   0  0  0  0  0  0  0  0  0  0  0  0
   47.4780   35.8940   42.6120 H   0  0  0  0  0  0  0  0  0  0  0  0
   49.3320   34.8120   42.0340 N   0  0  0  0  0  0  0  0  0  0  0  0
   49.6710   33.5170   42.2040 C   0  0  0  0  0  0  0  0  0  0  0  0
   50.8030   32.8010   41.8650 C   0  0  0  0  0  0  0  0  0  0  0  0
   51.6260   33.2970   41.3630 H   0  0  0  0  0  0  0  0  0  0  0  0
   50.8240   31.4760   42.1890 N   0  0  0  0  0  0  0  0  0  0  0  0
   49.7480   30.9270   42.8200 C   0  0  0  0  0  0  0  0  0  0  0  0
   49.8150   29.8560   43.0570 H   0  0  0  0  0  0  0  0  0  0  0  0
   48.6370   31.6060   43.1590 N   0  0  0  0  0  0  0  0  0  0  0  0
   48.5870   32.9300   42.8480 C   0  0  0  0  0  0  0  0  0  0  0  0
   43.2490   34.4870   39.9070 C   0  0  0  0  0  0  0  0  0  0  0  0
   42.5660   35.4480   39.4460 O   0  0  0  0  0  0  0  0  0  0  0  0
   44.3330   33.2200   38.0980 C   0  0  0  0  0  0  0  0  0  0  0  0
   43.3190   33.3410   39.0700 C   0  0  0  0  0  0  0  0  0  0  0  0
   42.4480   32.2580   39.1030 C   0  0  0  0  0  0  0  0  0  0  0  0
   42.5510   31.2070   38.3010 N   0  0  0  0  0  0  0  0  0  0  0  0
   43.5580   31.1550   37.3800 C   0  0  0  0  0  0  0  0  0  0  0  0
   44.4340   32.1590   37.2900 N   0  0  0  0  0  0  0  0  0  0  0  0
   45.0380   34.0590   38.0470 H   0  0  0  0  0  0  0  0  0  0  0  0
   43.6750   30.3230   36.7140 H   0  0  0  0  0  0  0  0  0  0  0  0
   41.3830   32.2910   40.0550 C   0  0  0  0  0  0  0  0  0  0  0  0
   40.1250   32.7910   40.1010 C   0  0  0  0  0  0  0  0  0  0  0  0
   39.3330   32.6740   41.1410 C   0  0  0  0  0  0  0  0  0  0  0  0
   39.8520   32.0160   42.1870 C   0  0  0  0  0  0  0  0  0  0  0  0
   41.5270   31.5450   41.6720 S   0  0  0  0  0  0  0  0  0  0  0  0
   39.8410   33.3090   39.1610 H   0  0  0  0  0  0  0  0  0  0  0  0
   38.3230   33.0570   41.2200 H   0  0  0  0  0  0  0  0  0  0  0  0
   39.3420   31.7860   43.2210 H   0  0  0  0  0  0  0  0  0  0  0  0
  1  2  2  0  0  0  0
  1  5  1  0  0  0  0
  2  3  1  0  0  0  0
  3  4  1  0  0  0  0
  3 10  1  0  0  0  0
  4  6  1  0  0  0  0
  5  4  2  0  0  0  0
  6  8  1  0  0  0  0
  7  2  1  0  0  0  0
  9  6  1  0  0  0  0
 10 11  1  0  0  0  0
 10 12  1  0  0  0  0
 13 10  1  0  0  0  0
 14 15  1  0  0  0  0
 14 13  1  0  0  0  0
 16 17  1  0  0  0  0
 16 14  2  0  0  0  0
 17 24  1  0  0  0  0
 18 20  1  0  0  0  0
 18 17  2  0  0  0  0
 19 18  1  0  0  0  0
 20 21  2  0  0  0  0
 21 22  1  0  0  0  0
 21 23  1  0  0  0  0
 24 13  1  0  0  0  0
 24 23  2  0  0  0  0
 25  1  1  0  0  0  0
 26 25  2  0  0  0  0
 27 28  1  0  0  0  0
 28 29  2  0  0  0  0
 28 25  1  0  0  0  0
 29 35  1  0  0  0  0
 30 29  1  0  0  0  0
 31 30  2  0  0  0  0
 32 31  1  0  0  0  0
 32 27  2  0  0  0  0
 33 27  1  0  0  0  0
 34 31  1  0  0  0  0
 35 36  2  0  0  0  0
 35 39  1  0  0  0  0
 36 37  1  0  0  0  0
 37 41  1  0  0  0  0
 37 38  2  0  0  0  0
 38 42  1  0  0  0  0
 39 38  1  0  0  0  0
 40 36  1  0  0  0  0
M  END
>  <minimizedAffinity>
-5.346663

>  <minimizedRMSD>
7.80210352

$$$$
