
 OpenBabel03242511393D

 27 29  0  0  0  0  0  0  0  0999 V2000
   46.8870   33.3790   44.3930 C   0  0  0  0  0  0  0  0  0  0  0  0
   46.8220   32.4130   43.8690 H   0  0  0  0  0  0  0  0  0  0  0  0
   47.9580   33.6560   44.5260 H   0  0  0  0  0  0  0  0  0  0  0  0
   46.2310   33.2820   45.6900 N   0  0  0  0  0  0  0  0  0  0  0  0
   45.2220   34.0980   46.0520 C   0  0  0  0  0  0  0  0  0  0  0  0
   44.7740   34.9040   45.4590 H   0  0  0  0  0  0  0  0  0  0  0  0
   44.8020   33.7830   47.3100 N   0  0  0  0  0  0  0  0  0  0  0  0
   45.5610   32.7450   47.7590 C   0  0  0  0  0  0  0  0  0  0  0  0
   45.6430   31.9830   48.9100 C   0  0  0  0  0  0  0  0  0  0  0  0
   44.9310   32.2550   49.6780 H   0  0  0  0  0  0  0  0  0  0  0  0
   46.5640   30.9960   48.9900 N   0  0  0  0  0  0  0  0  0  0  0  0
   47.4030   30.7220   48.0010 C   0  0  0  0  0  0  0  0  0  0  0  0
   48.0960   29.9100   48.1800 H   0  0  0  0  0  0  0  0  0  0  0  0
   47.3510   31.4540   46.8520 N   0  0  0  0  0  0  0  0  0  0  0  0
   46.4420   32.4580   46.7220 C   0  0  0  0  0  0  0  0  0  0  0  0
   46.1680   34.4820   43.6220 C   0  0  0  0  0  0  0  0  0  0  0  0
   46.2810   35.4320   44.1410 H   0  0  0  0  0  0  0  0  0  0  0  0
   45.1190   34.1880   43.4660 H   0  0  0  0  0  0  0  0  0  0  0  0
   46.9980   33.8540   40.0580 C   0  0  0  0  0  0  0  0  0  0  0  0
   48.1640   34.6380   39.8940 C   0  0  0  0  0  0  0  0  0  0  0  0
   48.6110   35.3420   41.0010 C   0  0  0  0  0  0  0  0  0  0  0  0
   47.9240   35.2470   42.1630 N   0  0  0  0  0  0  0  0  0  0  0  0
   46.8040   34.4800   42.2790 C   0  0  0  0  0  0  0  0  0  0  0  0
   46.3500   33.7880   41.2280 N   0  0  0  0  0  0  0  0  0  0  0  0
   46.6210   33.2930   39.2190 H   0  0  0  0  0  0  0  0  0  0  0  0
   48.6570   34.6550   38.9100 H   0  0  0  0  0  0  0  0  0  0  0  0
   49.4870   35.9410   40.9070 H   0  0  0  0  0  0  0  0  0  0  0  0
  1  3  1  0  0  0  0
  1  4  1  0  0  0  0
  2  1  1  0  0  0  0
  4  5  1  0  0  0  0
  4 15  1  0  0  0  0
  5  7  2  0  0  0  0
  6  5  1  0  0  0  0
  7  8  1  0  0  0  0
  8  9  1  0  0  0  0
  9 11  2  0  0  0  0
  9 10  1  0  0  0  0
 12 13  1  0  0  0  0
 12 11  1  0  0  0  0
 14 12  2  0  0  0  0
 15 14  1  0  0  0  0
 15  8  2  0  0  0  0
 16 17  1  0  0  0  0
 16  1  1  0  0  0  0
 18 16  1  0  0  0  0
 19 24  1  0  0  0  0
 20 19  2  0  0  0  0
 20 21  1  0  0  0  0
 21 22  2  0  0  0  0
 22 23  1  0  0  0  0
 23 16  1  0  0  0  0
 24 23  2  0  0  0  0
 25 19  1  0  0  0  0
 26 20  1  0  0  0  0
 27 21  1  0  0  0  0
M  END
>  <minimizedAffinity>
-4.65448523

>  <minimizedRMSD>
3.83855724

$$$$
