
 OpenBabel03252509103D

 44 48  0  0  0  0  0  0  0  0999 V2000
   36.2340   27.3440   39.0930 C   0  0  0  0  0  0  0  0  0  0  0  0
   35.8940   28.2530   40.0500 C   0  0  0  0  0  0  0  0  0  0  0  0
   34.7840   29.0600   39.8670 C   0  0  0  0  0  0  0  0  0  0  0  0
   34.0260   28.9480   38.7270 C   0  0  0  0  0  0  0  0  0  0  0  0
   34.3410   28.0290   37.7280 C   0  0  0  0  0  0  0  0  0  0  0  0
   35.4660   27.2230   37.9310 C   0  0  0  0  0  0  0  0  0  0  0  0
   34.4780   29.7970   40.6000 H   0  0  0  0  0  0  0  0  0  0  0  0
   33.1490   29.5200   38.4800 H   0  0  0  0  0  0  0  0  0  0  0  0
   33.7970   27.8870   36.8210 H   0  0  0  0  0  0  0  0  0  0  0  0
   35.7260   26.4970   37.1560 H   0  0  0  0  0  0  0  0  0  0  0  0
   39.4690   30.8210   42.7510 Cl  0  0  0  0  0  0  0  0  0  0  0  0
   38.2360   29.6000   42.5460 C   0  0  0  0  0  0  0  0  0  0  0  0
   37.5750   29.4590   41.3690 C   0  0  0  0  0  0  0  0  0  0  0  0
   36.6280   28.4520   41.3020 C   0  0  0  0  0  0  0  0  0  0  0  0
   36.3630   27.6310   42.3710 C   0  0  0  0  0  0  0  0  0  0  0  0
   37.0340   27.7870   43.5370 C   0  0  0  0  0  0  0  0  0  0  0  0
   37.9790   28.7840   43.6200 C   0  0  0  0  0  0  0  0  0  0  0  0
   35.6020   26.8600   42.2420 H   0  0  0  0  0  0  0  0  0  0  0  0
   36.7810   27.1170   44.3300 H   0  0  0  0  0  0  0  0  0  0  0  0
   38.5000   28.8860   44.5650 H   0  0  0  0  0  0  0  0  0  0  0  0
   37.5370   32.3670   38.9660 C   0  0  0  0  0  0  0  0  0  0  0  0
   37.2180   31.5220   40.0310 C   0  0  0  0  0  0  0  0  0  0  0  0
   37.8970   30.3450   40.2660 C   0  0  0  0  0  0  0  0  0  0  0  0
   38.8930   30.0800   39.3780 N   0  0  0  0  0  0  0  0  0  0  0  0
   39.2060   30.8800   38.3590 C   0  0  0  0  0  0  0  0  0  0  0  0
   38.5290   32.0150   38.1570 N   0  0  0  0  0  0  0  0  0  0  0  0
   36.9190   33.2620   38.9000 H   0  0  0  0  0  0  0  0  0  0  0  0
   36.4200   31.7680   40.7140 H   0  0  0  0  0  0  0  0  0  0  0  0
   40.0180   30.5630   37.7200 H   0  0  0  0  0  0  0  0  0  0  0  0
   37.5510   26.3190   39.3000 S   0  0  0  0  0  0  0  0  0  0  0  0
   37.9800   26.2040   40.7450 O   0  0  0  0  0  0  0  0  0  0  0  0
   36.9570   24.8900   39.0050 O   0  0  0  0  0  0  0  0  0  0  0  0
   39.5840   28.4240   38.8520 H   0  0  0  0  0  0  0  0  0  0  0  0
   39.7250   27.4980   38.3330 N   0  0  0  0  0  0  0  0  0  0  0  0
   38.9720   26.3390   38.3410 C   0  0  0  0  0  0  0  0  0  0  0  0
   39.7220   25.6210   37.4860 N   0  0  0  0  0  0  0  0  0  0  0  0
   40.7800   26.2440   37.0210 C   0  0  0  0  0  0  0  0  0  0  0  0
   41.7220   25.7410   36.1260 C   0  0  0  0  0  0  0  0  0  0  0  0
   41.6550   24.7390   35.7200 H   0  0  0  0  0  0  0  0  0  0  0  0
   42.7430   26.5670   35.7780 N   0  0  0  0  0  0  0  0  0  0  0  0
   42.7880   27.8050   36.3060 C   0  0  0  0  0  0  0  0  0  0  0  0
   43.5970   28.4500   36.0260 H   0  0  0  0  0  0  0  0  0  0  0  0
   41.8470   28.2690   37.1820 N   0  0  0  0  0  0  0  0  0  0  0  0
   40.8180   27.5000   37.5610 C   0  0  0  0  0  0  0  0  0  0  0  0
  1 30  1  0  0  0  0
  1  2  1  0  0  0  0
  2 14  1  0  0  0  0
  3  2  2  0  0  0  0
  3  7  1  0  0  0  0
  4  3  1  0  0  0  0
  5  6  1  0  0  0  0
  5  4  2  0  0  0  0
  6  1  2  0  0  0  0
  8  4  1  0  0  0  0
  9  5  1  0  0  0  0
 10  6  1  0  0  0  0
 12 11  1  0  0  0  0
 12 17  1  0  0  0  0
 13 12  2  0  0  0  0
 14 13  1  0  0  0  0
 14 15  2  0  0  0  0
 15 16  1  0  0  0  0
 16 17  2  0  0  0  0
 16 19  1  0  0  0  0
 17 20  1  0  0  0  0
 18 15  1  0  0  0  0
 21 22  1  0  0  0  0
 22 23  2  0  0  0  0
 22 28  1  0  0  0  0
 23 13  1  0  0  0  0
 24 23  1  0  0  0  0
 25 24  2  0  0  0  0
 26 25  1  0  0  0  0
 26 21  2  0  0  0  0
 27 21  1  0  0  0  0
 29 25  1  0  0  0  0
 30 31  2  0  0  0  0
 32 30  2  0  0  0  0
 34 35  1  0  0  0  0
 34 33  1  0  0  0  0
 35 30  1  0  0  0  0
 36 35  2  0  0  0  0
 37 36  1  0  0  0  0
 37 44  1  0  0  0  0
 38 37  2  0  0  0  0
 39 38  1  0  0  0  0
 40 38  1  0  0  0  0
 40 41  2  0  0  0  0
 41 43  1  0  0  0  0
 42 41  1  0  0  0  0
 43 44  2  0  0  0  0
 44 34  1  0  0  0  0
M  END
>  <minimizedAffinity>
-6.29429722

$$$$

 OpenBabel03252509103D

 44 48  0  0  0  0  0  0  0  0999 V2000
   37.1190   26.0300   39.8520 C   0  0  0  0  0  0  0  0  0  0  0  0
   36.9980   26.7680   40.9910 C   0  0  0  0  0  0  0  0  0  0  0  0
   36.9100   26.1310   42.2170 C   0  0  0  0  0  0  0  0  0  0  0  0
   36.9440   24.7600   42.2890 C   0  0  0  0  0  0  0  0  0  0  0  0
   37.0690   23.9710   41.1470 C   0  0  0  0  0  0  0  0  0  0  0  0
   37.1560   24.6340   39.9190 C   0  0  0  0  0  0  0  0  0  0  0  0
   36.8110   26.6790   43.1470 H   0  0  0  0  0  0  0  0  0  0  0  0
   36.8830   24.1630   43.1820 H   0  0  0  0  0  0  0  0  0  0  0  0
   37.1030   22.9050   41.1310 H   0  0  0  0  0  0  0  0  0  0  0  0
   37.2540   24.0280   39.0140 H   0  0  0  0  0  0  0  0  0  0  0  0
   39.3670   31.2640   41.9080 Cl  0  0  0  0  0  0  0  0  0  0  0  0
   38.0060   30.2780   41.4330 C   0  0  0  0  0  0  0  0  0  0  0  0
   38.0940   28.9240   41.4030 C   0  0  0  0  0  0  0  0  0  0  0  0
   36.9560   28.2320   41.0280 C   0  0  0  0  0  0  0  0  0  0  0  0
   35.7890   28.8770   40.6990 C   0  0  0  0  0  0  0  0  0  0  0  0
   35.7200   30.2290   40.7350 C   0  0  0  0  0  0  0  0  0  0  0  0
   36.8430   30.9320   41.1050 C   0  0  0  0  0  0  0  0  0  0  0  0
   34.9330   28.2630   40.4130 H   0  0  0  0  0  0  0  0  0  0  0  0
   34.7840   30.6700   40.4670 H   0  0  0  0  0  0  0  0  0  0  0  0
   36.7600   32.0130   41.1250 H   0  0  0  0  0  0  0  0  0  0  0  0
   40.9080   27.4230   43.4180 C   0  0  0  0  0  0  0  0  0  0  0  0
   39.7000   28.0360   43.0770 C   0  0  0  0  0  0  0  0  0  0  0  0
   39.3460   28.2890   41.7690 C   0  0  0  0  0  0  0  0  0  0  0  0
   40.2670   27.8950   40.8480 N   0  0  0  0  0  0  0  0  0  0  0  0
   41.4230   27.3090   41.1630 C   0  0  0  0  0  0  0  0  0  0  0  0
   41.7370   27.0780   42.4410 N   0  0  0  0  0  0  0  0  0  0  0  0
   41.0570   27.2850   44.4880 H   0  0  0  0  0  0  0  0  0  0  0  0
   38.9960   28.3330   43.8380 H   0  0  0  0  0  0  0  0  0  0  0  0
   42.0740   27.0410   40.3430 H   0  0  0  0  0  0  0  0  0  0  0  0
   37.2710   26.7700   38.3500 S   0  0  0  0  0  0  0  0  0  0  0  0
   37.7050   25.8090   37.2670 O   0  0  0  0  0  0  0  0  0  0  0  0
   35.7840   27.0940   37.9450 O   0  0  0  0  0  0  0  0  0  0  0  0
   40.1400   27.4280   38.0260 H   0  0  0  0  0  0  0  0  0  0  0  0
   39.4480   28.2430   37.9690 N   0  0  0  0  0  0  0  0  0  0  0  0
   38.0690   28.2610   38.0670 C   0  0  0  0  0  0  0  0  0  0  0  0
   37.8860   29.5830   37.9030 N   0  0  0  0  0  0  0  0  0  0  0  0
   38.9870   30.2770   37.7310 C   0  0  0  0  0  0  0  0  0  0  0  0
   39.0880   31.6540   37.5420 C   0  0  0  0  0  0  0  0  0  0  0  0
   38.2190   32.2990   37.5190 H   0  0  0  0  0  0  0  0  0  0  0  0
   40.3380   32.1630   37.3830 N   0  0  0  0  0  0  0  0  0  0  0  0
   41.3920   31.3260   37.4180 C   0  0  0  0  0  0  0  0  0  0  0  0
   42.3740   31.7360   37.2930 H   0  0  0  0  0  0  0  0  0  0  0  0
   41.2580   29.9780   37.6060 N   0  0  0  0  0  0  0  0  0  0  0  0
   40.0530   29.4200   37.7680 C   0  0  0  0  0  0  0  0  0  0  0  0
  1  6  2  0  0  0  0
  1  2  1  0  0  0  0
  2 14  1  0  0  0  0
  2  3  2  0  0  0  0
  3  4  1  0  0  0  0
  3  7  1  0  0  0  0
  4  8  1  0  0  0  0
  5  4  2  0  0  0  0
  6  5  1  0  0  0  0
  9  5  1  0  0  0  0
 10  6  1  0  0  0  0
 12 11  1  0  0  0  0
 13 12  1  0  0  0  0
 13 23  1  0  0  0  0
 14 13  2  0  0  0  0
 15 16  2  0  0  0  0
 15 14  1  0  0  0  0
 16 17  1  0  0  0  0
 17 20  1  0  0  0  0
 17 12  2  0  0  0  0
 18 15  1  0  0  0  0
 19 16  1  0  0  0  0
 21 27  1  0  0  0  0
 22 21  1  0  0  0  0
 22 28  1  0  0  0  0
 23 22  2  0  0  0  0
 24 25  2  0  0  0  0
 24 23  1  0  0  0  0
 25 26  1  0  0  0  0
 26 21  2  0  0  0  0
 29 25  1  0  0  0  0
 30  1  1  0  0  0  0
 31 30  2  0  0  0  0
 32 30  2  0  0  0  0
 34 33  1  0  0  0  0
 34 35  1  0  0  0  0
 35 30  1  0  0  0  0
 36 35  2  0  0  0  0
 37 44  1  0  0  0  0
 37 36  1  0  0  0  0
 38 37  2  0  0  0  0
 39 38  1  0  0  0  0
 40 41  2  0  0  0  0
 40 38  1  0  0  0  0
 41 43  1  0  0  0  0
 42 41  1  0  0  0  0
 43 44  2  0  0  0  0
 44 34  1  0  0  0  0
M  END
>  <minimizedAffinity>
-6.24923563

$$$$

 OpenBabel03252509103D

 44 48  0  0  0  0  0  0  0  0999 V2000
   36.1870   27.2410   39.1660 C   0  0  0  0  0  0  0  0  0  0  0  0
   35.9140   28.2320   40.0600 C   0  0  0  0  0  0  0  0  0  0  0  0
   34.8670   29.1050   39.8200 C   0  0  0  0  0  0  0  0  0  0  0  0
   34.1030   28.9760   38.6860 C   0  0  0  0  0  0  0  0  0  0  0  0
   34.3500   27.9740   37.7500 C   0  0  0  0  0  0  0  0  0  0  0  0
   35.4110   27.1020   38.0100 C   0  0  0  0  0  0  0  0  0  0  0  0
   34.6160   29.9080   40.5030 H   0  0  0  0  0  0  0  0  0  0  0  0
   33.2710   29.5940   38.3990 H   0  0  0  0  0  0  0  0  0  0  0  0
   33.7970   27.8150   36.8500 H   0  0  0  0  0  0  0  0  0  0  0  0
   35.6180   26.3110   37.2840 H   0  0  0  0  0  0  0  0  0  0  0  0
   39.5370   30.8330   42.6630 Cl  0  0  0  0  0  0  0  0  0  0  0  0
   38.2910   29.6200   42.5010 C   0  0  0  0  0  0  0  0  0  0  0  0
   37.6180   29.4550   41.3330 C   0  0  0  0  0  0  0  0  0  0  0  0
   36.6600   28.4570   41.3010 C   0  0  0  0  0  0  0  0  0  0  0  0
   36.3950   27.6670   42.3930 C   0  0  0  0  0  0  0  0  0  0  0  0
   37.0770   27.8470   43.5500 C   0  0  0  0  0  0  0  0  0  0  0  0
   38.0330   28.8360   43.5980 C   0  0  0  0  0  0  0  0  0  0  0  0
   35.6250   26.9010   42.2910 H   0  0  0  0  0  0  0  0  0  0  0  0
   36.8240   27.2020   44.3630 H   0  0  0  0  0  0  0  0  0  0  0  0
   38.5630   28.9580   44.5360 H   0  0  0  0  0  0  0  0  0  0  0  0
   37.6600   32.3440   38.9080 C   0  0  0  0  0  0  0  0  0  0  0  0
   37.3410   31.5310   39.9990 C   0  0  0  0  0  0  0  0  0  0  0  0
   37.9400   30.3070   40.2040 C   0  0  0  0  0  0  0  0  0  0  0  0
   38.8590   29.9610   39.2620 N   0  0  0  0  0  0  0  0  0  0  0  0
   39.1700   30.7290   38.2170 C   0  0  0  0  0  0  0  0  0  0  0  0
   38.5710   31.9120   38.0460 N   0  0  0  0  0  0  0  0  0  0  0  0
   37.1100   33.2840   38.8710 H   0  0  0  0  0  0  0  0  0  0  0  0
   36.6070   31.8420   40.7250 H   0  0  0  0  0  0  0  0  0  0  0  0
   39.9160   30.3480   37.5350 H   0  0  0  0  0  0  0  0  0  0  0  0
   37.4240   26.1360   39.4450 S   0  0  0  0  0  0  0  0  0  0  0  0
   36.9720   24.9470   40.2620 O   0  0  0  0  0  0  0  0  0  0  0  0
   37.6790   25.5000   38.0270 O   0  0  0  0  0  0  0  0  0  0  0  0
   39.7660   27.1730   37.9590 H   0  0  0  0  0  0  0  0  0  0  0  0
   39.8960   27.0040   39.0090 N   0  0  0  0  0  0  0  0  0  0  0  0
   39.0060   26.5450   39.9620 C   0  0  0  0  0  0  0  0  0  0  0  0
   39.8300   26.5880   41.0250 N   0  0  0  0  0  0  0  0  0  0  0  0
   41.0460   27.0100   40.7650 C   0  0  0  0  0  0  0  0  0  0  0  0
   42.0960   27.1490   41.6710 C   0  0  0  0  0  0  0  0  0  0  0  0
   41.9870   26.9090   42.7220 H   0  0  0  0  0  0  0  0  0  0  0  0
   43.2770   27.6060   41.1790 N   0  0  0  0  0  0  0  0  0  0  0  0
   43.3680   27.8930   39.8670 C   0  0  0  0  0  0  0  0  0  0  0  0
   44.3050   28.2520   39.4870 H   0  0  0  0  0  0  0  0  0  0  0  0
   42.3190   27.7440   39.0030 N   0  0  0  0  0  0  0  0  0  0  0  0
   41.1320   27.2980   39.4300 C   0  0  0  0  0  0  0  0  0  0  0  0
  1 30  1  0  0  0  0
  1  2  1  0  0  0  0
  2 14  1  0  0  0  0
  3  2  2  0  0  0  0
  3  7  1  0  0  0  0
  4  3  1  0  0  0  0
  5  6  1  0  0  0  0
  5  4  2  0  0  0  0
  6  1  2  0  0  0  0
  8  4  1  0  0  0  0
  9  5  1  0  0  0  0
 10  6  1  0  0  0  0
 12 11  1  0  0  0  0
 12 17  1  0  0  0  0
 13 12  2  0  0  0  0
 14 13  1  0  0  0  0
 14 15  2  0  0  0  0
 15 16  1  0  0  0  0
 16 17  2  0  0  0  0
 16 19  1  0  0  0  0
 17 20  1  0  0  0  0
 18 15  1  0  0  0  0
 21 22  1  0  0  0  0
 22 23  2  0  0  0  0
 22 28  1  0  0  0  0
 23 13  1  0  0  0  0
 24 23  1  0  0  0  0
 25 24  2  0  0  0  0
 26 25  1  0  0  0  0
 26 21  2  0  0  0  0
 27 21  1  0  0  0  0
 29 25  1  0  0  0  0
 30 35  1  0  0  0  0
 30 31  2  0  0  0  0
 32 30  2  0  0  0  0
 33 34  1  0  0  0  0
 34 44  1  0  0  0  0
 34 35  1  0  0  0  0
 35 36  2  0  0  0  0
 37 36  1  0  0  0  0
 37 38  1  0  0  0  0
 38 39  1  0  0  0  0
 40 38  2  0  0  0  0
 41 40  1  0  0  0  0
 42 41  1  0  0  0  0
 43 44  1  0  0  0  0
 43 41  2  0  0  0  0
 44 37  2  0  0  0  0
M  END
>  <minimizedAffinity>
-6.21072769

$$$$

 OpenBabel03252509103D

 44 48  0  0  0  0  0  0  0  0999 V2000
   38.2630   26.6520   41.8740 C   0  0  0  0  0  0  0  0  0  0  0  0
   37.3810   26.6470   40.8350 C   0  0  0  0  0  0  0  0  0  0  0  0
   36.9490   25.4430   40.3060 C   0  0  0  0  0  0  0  0  0  0  0  0
   37.4060   24.2550   40.8230 C   0  0  0  0  0  0  0  0  0  0  0  0
   38.3070   24.2200   41.8860 C   0  0  0  0  0  0  0  0  0  0  0  0
   38.7300   25.4460   42.4060 C   0  0  0  0  0  0  0  0  0  0  0  0
   36.2500   25.3920   39.4790 H   0  0  0  0  0  0  0  0  0  0  0  0
   37.1410   23.2670   40.4920 H   0  0  0  0  0  0  0  0  0  0  0  0
   38.7000   23.3360   42.3360 H   0  0  0  0  0  0  0  0  0  0  0  0
   39.4370   25.4350   43.2400 H   0  0  0  0  0  0  0  0  0  0  0  0
   37.3760   30.0400   36.9430 Cl  0  0  0  0  0  0  0  0  0  0  0  0
   36.8030   29.3980   38.4630 C   0  0  0  0  0  0  0  0  0  0  0  0
   37.3390   28.2710   38.9970 C   0  0  0  0  0  0  0  0  0  0  0  0
   36.8280   27.8520   40.2120 C   0  0  0  0  0  0  0  0  0  0  0  0
   35.8240   28.5360   40.8540 C   0  0  0  0  0  0  0  0  0  0  0  0
   35.3020   29.6590   40.3050 C   0  0  0  0  0  0  0  0  0  0  0  0
   35.8000   30.0900   39.0960 C   0  0  0  0  0  0  0  0  0  0  0  0
   35.4730   28.1440   41.8090 H   0  0  0  0  0  0  0  0  0  0  0  0
   34.5240   30.1450   40.8530 H   0  0  0  0  0  0  0  0  0  0  0  0
   35.3630   30.9900   38.6800 H   0  0  0  0  0  0  0  0  0  0  0  0
   39.1990   26.0540   36.5770 C   0  0  0  0  0  0  0  0  0  0  0  0
   38.1660   26.7050   37.2550 C   0  0  0  0  0  0  0  0  0  0  0  0
   38.4040   27.5890   38.2860 C   0  0  0  0  0  0  0  0  0  0  0  0
   39.7190   27.7690   38.5840 N   0  0  0  0  0  0  0  0  0  0  0  0
   40.7130   27.1520   37.9430 C   0  0  0  0  0  0  0  0  0  0  0  0
   40.4490   26.3010   36.9470 N   0  0  0  0  0  0  0  0  0  0  0  0
   38.8660   25.3840   35.7850 H   0  0  0  0  0  0  0  0  0  0  0  0
   37.1350   26.5350   36.9870 H   0  0  0  0  0  0  0  0  0  0  0  0
   41.7180   27.3760   38.2700 H   0  0  0  0  0  0  0  0  0  0  0  0
   38.7760   28.0940   42.5690 S   0  0  0  0  0  0  0  0  0  0  0  0
   37.8650   28.5640   43.6790 O   0  0  0  0  0  0  0  0  0  0  0  0
   40.0820   27.6850   43.3490 O   0  0  0  0  0  0  0  0  0  0  0  0
   37.5760   30.7880   42.3010 H   0  0  0  0  0  0  0  0  0  0  0  0
   38.4850   30.6080   41.7640 N   0  0  0  0  0  0  0  0  0  0  0  0
   39.2810   29.4800   41.6950 C   0  0  0  0  0  0  0  0  0  0  0  0
   40.2220   29.9650   40.8660 N   0  0  0  0  0  0  0  0  0  0  0  0
   40.0350   31.2060   40.4810 C   0  0  0  0  0  0  0  0  0  0  0  0
   40.8480   31.9500   39.6280 C   0  0  0  0  0  0  0  0  0  0  0  0
   41.7510   31.5440   39.1910 H   0  0  0  0  0  0  0  0  0  0  0  0
   40.4590   33.2260   39.3640 N   0  0  0  0  0  0  0  0  0  0  0  0
   39.3290   33.6910   39.9300 C   0  0  0  0  0  0  0  0  0  0  0  0
   39.0290   34.6980   39.7150 H   0  0  0  0  0  0  0  0  0  0  0  0
   38.5530   32.9350   40.7620 N   0  0  0  0  0  0  0  0  0  0  0  0
   38.8860   31.6720   41.0580 C   0  0  0  0  0  0  0  0  0  0  0  0
  1  6  1  0  0  0  0
  1 30  1  0  0  0  0
  2  1  2  0  0  0  0
  3  4  2  0  0  0  0
  3  2  1  0  0  0  0
  4  5  1  0  0  0  0
  5  9  1  0  0  0  0
  5  6  2  0  0  0  0
  6 10  1  0  0  0  0
  7  3  1  0  0  0  0
  8  4  1  0  0  0  0
 11 12  1  0  0  0  0
 12 13  2  0  0  0  0
 12 17  1  0  0  0  0
 13 14  1  0  0  0  0
 14  2  1  0  0  0  0
 14 15  2  0  0  0  0
 15 18  1  0  0  0  0
 16 19  1  0  0  0  0
 16 15  1  0  0  0  0
 17 16  2  0  0  0  0
 20 17  1  0  0  0  0
 21 26  2  0  0  0  0
 21 22  1  0  0  0  0
 22 23  2  0  0  0  0
 23 24  1  0  0  0  0
 23 13  1  0  0  0  0
 25 29  1  0  0  0  0
 25 24  2  0  0  0  0
 26 25  1  0  0  0  0
 27 21  1  0  0  0  0
 28 22  1  0  0  0  0
 30 32  2  0  0  0  0
 30 31  2  0  0  0  0
 34 33  1  0  0  0  0
 35 34  1  0  0  0  0
 35 30  1  0  0  0  0
 36 35  2  0  0  0  0
 37 36  1  0  0  0  0
 37 44  1  0  0  0  0
 38 37  2  0  0  0  0
 39 38  1  0  0  0  0
 40 38  1  0  0  0  0
 40 41  2  0  0  0  0
 41 43  1  0  0  0  0
 42 41  1  0  0  0  0
 43 44  2  0  0  0  0
 44 34  1  0  0  0  0
M  END
>  <minimizedAffinity>
-6.19190598

$$$$

 OpenBabel03252509103D

 44 48  0  0  0  0  0  0  0  0999 V2000
   36.5370   26.2550   39.4040 C   0  0  0  0  0  0  0  0  0  0  0  0
   36.4050   27.4820   39.9810 C   0  0  0  0  0  0  0  0  0  0  0  0
   35.6710   28.4670   39.3420 C   0  0  0  0  0  0  0  0  0  0  0  0
   35.0760   28.2110   38.1310 C   0  0  0  0  0  0  0  0  0  0  0  0
   35.1860   26.9690   37.5100 C   0  0  0  0  0  0  0  0  0  0  0  0
   35.9320   25.9880   38.1710 C   0  0  0  0  0  0  0  0  0  0  0  0
   35.5420   29.4570   39.7640 H   0  0  0  0  0  0  0  0  0  0  0  0
   34.4870   28.8970   37.5480 H   0  0  0  0  0  0  0  0  0  0  0  0
   34.7500   26.7020   36.5740 H   0  0  0  0  0  0  0  0  0  0  0  0
   36.0280   25.0070   37.6970 H   0  0  0  0  0  0  0  0  0  0  0  0
   40.0890   29.9330   42.6430 Cl  0  0  0  0  0  0  0  0  0  0  0  0
   38.6450   28.9620   42.4960 C   0  0  0  0  0  0  0  0  0  0  0  0
   38.1300   28.6460   41.2800 C   0  0  0  0  0  0  0  0  0  0  0  0
   36.9930   27.8590   41.2690 C   0  0  0  0  0  0  0  0  0  0  0  0
   36.4040   27.4150   42.4280 C   0  0  0  0  0  0  0  0  0  0  0  0
   36.9320   27.7410   43.6320 C   0  0  0  0  0  0  0  0  0  0  0  0
   38.0640   28.5230   43.6610 C   0  0  0  0  0  0  0  0  0  0  0  0
   35.5080   26.7980   42.3390 H   0  0  0  0  0  0  0  0  0  0  0  0
   36.4280   27.3650   44.4960 H   0  0  0  0  0  0  0  0  0  0  0  0
   38.4650   28.7680   44.6370 H   0  0  0  0  0  0  0  0  0  0  0  0
   40.3520   28.8600   38.2390 C   0  0  0  0  0  0  0  0  0  0  0  0
   39.7200   28.3830   39.3900 C   0  0  0  0  0  0  0  0  0  0  0  0
   38.7930   29.1310   40.0840 C   0  0  0  0  0  0  0  0  0  0  0  0
   38.5500   30.3620   39.5570 N   0  0  0  0  0  0  0  0  0  0  0  0
   39.1480   30.8260   38.4590 C   0  0  0  0  0  0  0  0  0  0  0  0
   40.0420   30.0770   37.8090 N   0  0  0  0  0  0  0  0  0  0  0  0
   41.0620   28.1640   37.7930 H   0  0  0  0  0  0  0  0  0  0  0  0
   39.9400   27.4010   39.7760 H   0  0  0  0  0  0  0  0  0  0  0  0
   38.8720   31.8200   38.1370 H   0  0  0  0  0  0  0  0  0  0  0  0
   37.3850   25.0220   40.1700 S   0  0  0  0  0  0  0  0  0  0  0  0
   36.5720   24.3320   41.2410 O   0  0  0  0  0  0  0  0  0  0  0  0
   37.5050   23.9100   39.0610 O   0  0  0  0  0  0  0  0  0  0  0  0
   38.4640   25.4200   42.8990 H   0  0  0  0  0  0  0  0  0  0  0  0
   39.1780   25.3450   42.1040 N   0  0  0  0  0  0  0  0  0  0  0  0
   38.9950   25.1500   40.7480 C   0  0  0  0  0  0  0  0  0  0  0  0
   40.2890   25.1600   40.3800 N   0  0  0  0  0  0  0  0  0  0  0  0
   41.1410   25.3350   41.3630 C   0  0  0  0  0  0  0  0  0  0  0  0
   42.5310   25.3880   41.2670 C   0  0  0  0  0  0  0  0  0  0  0  0
   43.0490   25.2820   40.3220 H   0  0  0  0  0  0  0  0  0  0  0  0
   43.2210   25.5800   42.4220 N   0  0  0  0  0  0  0  0  0  0  0  0
   42.5370   25.7070   43.5750 C   0  0  0  0  0  0  0  0  0  0  0  0
   43.0900   25.8580   44.4810 H   0  0  0  0  0  0  0  0  0  0  0  0
   41.1730   25.6500   43.6350 N   0  0  0  0  0  0  0  0  0  0  0  0
   40.4400   25.4630   42.5310 C   0  0  0  0  0  0  0  0  0  0  0  0
  1  2  1  0  0  0  0
  1 30  1  0  0  0  0
  2 14  1  0  0  0  0
  3  7  1  0  0  0  0
  3  2  2  0  0  0  0
  4  3  1  0  0  0  0
  5  4  2  0  0  0  0
  5  6  1  0  0  0  0
  6  1  2  0  0  0  0
  8  4  1  0  0  0  0
  9  5  1  0  0  0  0
 10  6  1  0  0  0  0
 12 11  1  0  0  0  0
 12 17  1  0  0  0  0
 13 12  2  0  0  0  0
 14 13  1  0  0  0  0
 14 15  2  0  0  0  0
 15 16  1  0  0  0  0
 16 17  2  0  0  0  0
 16 19  1  0  0  0  0
 17 20  1  0  0  0  0
 18 15  1  0  0  0  0
 21 22  1  0  0  0  0
 22 28  1  0  0  0  0
 22 23  2  0  0  0  0
 23 13  1  0  0  0  0
 24 23  1  0  0  0  0
 25 24  2  0  0  0  0
 26 21  2  0  0  0  0
 26 25  1  0  0  0  0
 27 21  1  0  0  0  0
 29 25  1  0  0  0  0
 30 35  1  0  0  0  0
 30 31  2  0  0  0  0
 32 30  2  0  0  0  0
 34 44  1  0  0  0  0
 34 33  1  0  0  0  0
 35 34  1  0  0  0  0
 36 35  2  0  0  0  0
 36 37  1  0  0  0  0
 37 44  1  0  0  0  0
 38 37  2  0  0  0  0
 38 40  1  0  0  0  0
 39 38  1  0  0  0  0
 40 41  2  0  0  0  0
 41 43  1  0  0  0  0
 41 42  1  0  0  0  0
 44 43  2  0  0  0  0
M  END
>  <minimizedAffinity>
-6.19014263

$$$$

 OpenBabel03252509103D

 44 48  0  0  0  0  0  0  0  0999 V2000
   37.1780   30.6930   39.9890 C   0  0  0  0  0  0  0  0  0  0  0  0
   38.0790   30.7180   41.0110 C   0  0  0  0  0  0  0  0  0  0  0  0
   38.7680   31.8850   41.2920 C   0  0  0  0  0  0  0  0  0  0  0  0
   38.5460   33.0170   40.5460 C   0  0  0  0  0  0  0  0  0  0  0  0
   37.6320   33.0320   39.4950 C   0  0  0  0  0  0  0  0  0  0  0  0
   36.9470   31.8420   39.2270 C   0  0  0  0  0  0  0  0  0  0  0  0
   39.4940   31.9490   42.0940 H   0  0  0  0  0  0  0  0  0  0  0  0
   39.0220   33.9730   40.6740 H   0  0  0  0  0  0  0  0  0  0  0  0
   37.4100   33.8730   38.8770 H   0  0  0  0  0  0  0  0  0  0  0  0
   36.2260   31.8380   38.4050 H   0  0  0  0  0  0  0  0  0  0  0  0
   41.2170   26.8110   42.2600 Cl  0  0  0  0  0  0  0  0  0  0  0  0
   39.7920   27.8010   42.4580 C   0  0  0  0  0  0  0  0  0  0  0  0
   39.5520   28.8600   41.6430 C   0  0  0  0  0  0  0  0  0  0  0  0
   38.3880   29.5720   41.8710 C   0  0  0  0  0  0  0  0  0  0  0  0
   37.5120   29.2320   42.8720 C   0  0  0  0  0  0  0  0  0  0  0  0
   37.7690   28.1720   43.6750 C   0  0  0  0  0  0  0  0  0  0  0  0
   38.9220   27.4530   43.4620 C   0  0  0  0  0  0  0  0  0  0  0  0
   36.6150   29.8420   42.9910 H   0  0  0  0  0  0  0  0  0  0  0  0
   37.0480   27.9590   44.4360 H   0  0  0  0  0  0  0  0  0  0  0  0
   39.1020   26.6100   44.1190 H   0  0  0  0  0  0  0  0  0  0  0  0
   42.5280   30.2510   39.7870 C   0  0  0  0  0  0  0  0  0  0  0  0
   41.6190   29.9550   40.8060 C   0  0  0  0  0  0  0  0  0  0  0  0
   40.5030   29.1740   40.5930 C   0  0  0  0  0  0  0  0  0  0  0  0
   40.3650   28.7220   39.3170 N   0  0  0  0  0  0  0  0  0  0  0  0
   41.2260   28.9980   38.3380 C   0  0  0  0  0  0  0  0  0  0  0  0
   42.2990   29.7590   38.5760 N   0  0  0  0  0  0  0  0  0  0  0  0
   43.3630   30.8780   40.0970 H   0  0  0  0  0  0  0  0  0  0  0  0
   41.7650   30.3330   41.8050 H   0  0  0  0  0  0  0  0  0  0  0  0
   41.0100   28.5820   37.3650 H   0  0  0  0  0  0  0  0  0  0  0  0
   36.2930   29.3050   39.6450 S   0  0  0  0  0  0  0  0  0  0  0  0
   34.9980   29.2310   40.4220 O   0  0  0  0  0  0  0  0  0  0  0  0
   35.7950   29.5390   38.1700 O   0  0  0  0  0  0  0  0  0  0  0  0
   35.9220   26.9540   41.4070 H   0  0  0  0  0  0  0  0  0  0  0  0
   36.5780   26.8310   40.5690 N   0  0  0  0  0  0  0  0  0  0  0  0
   36.9420   27.7200   39.5750 C   0  0  0  0  0  0  0  0  0  0  0  0
   37.7630   26.9060   38.8870 N   0  0  0  0  0  0  0  0  0  0  0  0
   37.8870   25.6970   39.3840 C   0  0  0  0  0  0  0  0  0  0  0  0
   38.6690   24.6600   38.8780 C   0  0  0  0  0  0  0  0  0  0  0  0
   39.2690   24.7720   37.9840 H   0  0  0  0  0  0  0  0  0  0  0  0
   38.6460   23.4830   39.5580 N   0  0  0  0  0  0  0  0  0  0  0  0
   37.8850   23.3860   40.6650 C   0  0  0  0  0  0  0  0  0  0  0  0
   37.8730   22.4550   41.1960 H   0  0  0  0  0  0  0  0  0  0  0  0
   37.1290   24.4240   41.1360 N   0  0  0  0  0  0  0  0  0  0  0  0
   37.1120   25.6060   40.5070 C   0  0  0  0  0  0  0  0  0  0  0  0
  1  2  1  0  0  0  0
  2  3  2  0  0  0  0
  2 14  1  0  0  0  0
  3  7  1  0  0  0  0
  4  8  1  0  0  0  0
  4  3  1  0  0  0  0
  5  4  2  0  0  0  0
  6  5  1  0  0  0  0
  6  1  2  0  0  0  0
  9  5  1  0  0  0  0
 10  6  1  0  0  0  0
 11 12  1  0  0  0  0
 12 17  1  0  0  0  0
 13 14  1  0  0  0  0
 13 12  2  0  0  0  0
 14 15  2  0  0  0  0
 15 18  1  0  0  0  0
 15 16  1  0  0  0  0
 16 19  1  0  0  0  0
 17 16  2  0  0  0  0
 17 20  1  0  0  0  0
 21 27  1  0  0  0  0
 21 22  1  0  0  0  0
 22 28  1  0  0  0  0
 23 22  2  0  0  0  0
 23 13  1  0  0  0  0
 24 23  1  0  0  0  0
 25 26  1  0  0  0  0
 25 24  2  0  0  0  0
 26 21  2  0  0  0  0
 29 25  1  0  0  0  0
 30  1  1  0  0  0  0
 30 31  2  0  0  0  0
 32 30  2  0  0  0  0
 34 33  1  0  0  0  0
 35 30  1  0  0  0  0
 35 34  1  0  0  0  0
 36 37  1  0  0  0  0
 36 35  2  0  0  0  0
 37 44  1  0  0  0  0
 38 37  2  0  0  0  0
 38 40  1  0  0  0  0
 39 38  1  0  0  0  0
 40 41  2  0  0  0  0
 41 43  1  0  0  0  0
 41 42  1  0  0  0  0
 44 34  1  0  0  0  0
 44 43  2  0  0  0  0
M  END
>  <minimizedAffinity>
-6.03433895

$$$$

 OpenBabel03252509103D

 44 48  0  0  0  0  0  0  0  0999 V2000
   36.9430   29.1240   38.7440 C   0  0  0  0  0  0  0  0  0  0  0  0
   36.8680   29.3950   40.0770 C   0  0  0  0  0  0  0  0  0  0  0  0
   35.6380   29.3930   40.7100 C   0  0  0  0  0  0  0  0  0  0  0  0
   34.4940   29.1180   40.0020 C   0  0  0  0  0  0  0  0  0  0  0  0
   34.5300   28.8340   38.6380 C   0  0  0  0  0  0  0  0  0  0  0  0
   35.7830   28.8410   38.0160 C   0  0  0  0  0  0  0  0  0  0  0  0
   35.5320   29.6050   41.7680 H   0  0  0  0  0  0  0  0  0  0  0  0
   33.4900   29.0890   40.3880 H   0  0  0  0  0  0  0  0  0  0  0  0
   33.6830   28.6110   38.0280 H   0  0  0  0  0  0  0  0  0  0  0  0
   35.8280   28.6200   36.9460 H   0  0  0  0  0  0  0  0  0  0  0  0
   40.5390   27.7780   43.3300 Cl  0  0  0  0  0  0  0  0  0  0  0  0
   39.6940   28.9900   42.3970 C   0  0  0  0  0  0  0  0  0  0  0  0
   38.6340   28.6620   41.6140 C   0  0  0  0  0  0  0  0  0  0  0  0
   38.0230   29.6960   40.9270 C   0  0  0  0  0  0  0  0  0  0  0  0
   38.4620   30.9940   41.0240 C   0  0  0  0  0  0  0  0  0  0  0  0
   39.5210   31.3010   41.8110 C   0  0  0  0  0  0  0  0  0  0  0  0
   40.1400   30.2840   42.5020 C   0  0  0  0  0  0  0  0  0  0  0  0
   37.9290   31.7540   40.4520 H   0  0  0  0  0  0  0  0  0  0  0  0
   39.8140   32.3280   41.8440 H   0  0  0  0  0  0  0  0  0  0  0  0
   40.9850   30.5580   43.1230 H   0  0  0  0  0  0  0  0  0  0  0  0
   36.8600   25.4140   42.3450 C   0  0  0  0  0  0  0  0  0  0  0  0
   37.2690   26.7480   42.4160 C   0  0  0  0  0  0  0  0  0  0  0  0
   38.2020   27.2780   41.5510 C   0  0  0  0  0  0  0  0  0  0  0  0
   38.6870   26.3990   40.6330 N   0  0  0  0  0  0  0  0  0  0  0  0
   38.3030   25.1240   40.5570 C   0  0  0  0  0  0  0  0  0  0  0  0
   37.3960   24.6400   41.4100 N   0  0  0  0  0  0  0  0  0  0  0  0
   36.1180   25.1310   43.0900 H   0  0  0  0  0  0  0  0  0  0  0  0
   36.8600   27.4140   43.1590 H   0  0  0  0  0  0  0  0  0  0  0  0
   38.7590   24.5220   39.7840 H   0  0  0  0  0  0  0  0  0  0  0  0
   38.4240   29.0760   37.9490 S   0  0  0  0  0  0  0  0  0  0  0  0
   39.1530   27.7670   38.1490 O   0  0  0  0  0  0  0  0  0  0  0  0
   38.0270   29.0180   36.4270 O   0  0  0  0  0  0  0  0  0  0  0  0
   41.1940   29.1420   38.9970 H   0  0  0  0  0  0  0  0  0  0  0  0
   40.8210   30.0460   38.5590 N   0  0  0  0  0  0  0  0  0  0  0  0
   39.5970   30.3280   37.9830 C   0  0  0  0  0  0  0  0  0  0  0  0
   39.8300   31.6130   37.6620 N   0  0  0  0  0  0  0  0  0  0  0  0
   41.0210   32.0570   37.9920 C   0  0  0  0  0  0  0  0  0  0  0  0
   41.5240   33.3400   37.7820 C   0  0  0  0  0  0  0  0  0  0  0  0
   40.9420   34.1160   37.3010 H   0  0  0  0  0  0  0  0  0  0  0  0
   42.7920   33.5810   38.2080 N   0  0  0  0  0  0  0  0  0  0  0  0
   43.4800   32.5870   38.8000 C   0  0  0  0  0  0  0  0  0  0  0  0
   44.4790   32.7860   39.1340 H   0  0  0  0  0  0  0  0  0  0  0  0
   42.9570   31.3390   38.9920 N   0  0  0  0  0  0  0  0  0  0  0  0
   41.7140   31.0430   38.5940 C   0  0  0  0  0  0  0  0  0  0  0  0
  1  2  1  0  0  0  0
  2  3  2  0  0  0  0
  2 14  1  0  0  0  0
  3  7  1  0  0  0  0
  4  8  1  0  0  0  0
  4  3  1  0  0  0  0
  5  4  2  0  0  0  0
  6  5  1  0  0  0  0
  6  1  2  0  0  0  0
  9  5  1  0  0  0  0
 10  6  1  0  0  0  0
 12 17  1  0  0  0  0
 12 11  1  0  0  0  0
 13 12  2  0  0  0  0
 14 15  2  0  0  0  0
 14 13  1  0  0  0  0
 15 16  1  0  0  0  0
 16 19  1  0  0  0  0
 16 17  2  0  0  0  0
 17 20  1  0  0  0  0
 18 15  1  0  0  0  0
 21 22  1  0  0  0  0
 21 27  1  0  0  0  0
 22 28  1  0  0  0  0
 23 13  1  0  0  0  0
 23 22  2  0  0  0  0
 24 23  1  0  0  0  0
 25 24  2  0  0  0  0
 25 26  1  0  0  0  0
 26 21  2  0  0  0  0
 29 25  1  0  0  0  0
 30 35  1  0  0  0  0
 30 31  2  0  0  0  0
 30  1  1  0  0  0  0
 32 30  2  0  0  0  0
 34 44  1  0  0  0  0
 34 33  1  0  0  0  0
 35 34  1  0  0  0  0
 36 35  2  0  0  0  0
 36 37  1  0  0  0  0
 37 44  1  0  0  0  0
 38 37  2  0  0  0  0
 38 40  1  0  0  0  0
 39 38  1  0  0  0  0
 40 41  2  0  0  0  0
 41 43  1  0  0  0  0
 41 42  1  0  0  0  0
 44 43  2  0  0  0  0
M  END
>  <minimizedAffinity>
-5.98790407

$$$$

 OpenBabel03252509103D

 44 48  0  0  0  0  0  0  0  0999 V2000
   37.5360   28.0740   40.8010 C   0  0  0  0  0  0  0  0  0  0  0  0
   37.7050   29.2690   41.4340 C   0  0  0  0  0  0  0  0  0  0  0  0
   37.6480   29.3290   42.8150 C   0  0  0  0  0  0  0  0  0  0  0  0
   37.4220   28.1910   43.5500 C   0  0  0  0  0  0  0  0  0  0  0  0
   37.2470   26.9500   42.9390 C   0  0  0  0  0  0  0  0  0  0  0  0
   37.3080   26.9110   41.5430 C   0  0  0  0  0  0  0  0  0  0  0  0
   37.7750   30.2580   43.3590 H   0  0  0  0  0  0  0  0  0  0  0  0
   37.3570   28.1200   44.6210 H   0  0  0  0  0  0  0  0  0  0  0  0
   37.0700   26.0280   43.4470 H   0  0  0  0  0  0  0  0  0  0  0  0
   37.1720   25.9450   41.0490 H   0  0  0  0  0  0  0  0  0  0  0  0
   41.0190   32.9260   39.9150 Cl  0  0  0  0  0  0  0  0  0  0  0  0
   39.4340   32.2060   40.0480 C   0  0  0  0  0  0  0  0  0  0  0  0
   39.2510   31.0200   40.6830 C   0  0  0  0  0  0  0  0  0  0  0  0
   37.9550   30.5400   40.7500 C   0  0  0  0  0  0  0  0  0  0  0  0
   36.8980   31.2240   40.2010 C   0  0  0  0  0  0  0  0  0  0  0  0
   37.1000   32.4060   39.5710 C   0  0  0  0  0  0  0  0  0  0  0  0
   38.3830   32.8970   39.4970 C   0  0  0  0  0  0  0  0  0  0  0  0
   35.9050   30.7820   40.2930 H   0  0  0  0  0  0  0  0  0  0  0  0
   36.2370   32.8890   39.1650 H   0  0  0  0  0  0  0  0  0  0  0  0
   38.5160   33.8450   38.9870 H   0  0  0  0  0  0  0  0  0  0  0  0
   42.0070   29.9830   43.0420 C   0  0  0  0  0  0  0  0  0  0  0  0
   40.9020   30.6450   42.5010 C   0  0  0  0  0  0  0  0  0  0  0  0
   40.3980   30.3400   41.2550 C   0  0  0  0  0  0  0  0  0  0  0  0
   41.0650   29.3480   40.6030 N   0  0  0  0  0  0  0  0  0  0  0  0
   42.1200   28.7110   41.1100 C   0  0  0  0  0  0  0  0  0  0  0  0
   42.5850   29.0300   42.3220 N   0  0  0  0  0  0  0  0  0  0  0  0
   42.2960   30.3270   44.0350 H   0  0  0  0  0  0  0  0  0  0  0  0
   40.4010   31.4260   43.0510 H   0  0  0  0  0  0  0  0  0  0  0  0
   42.5660   27.9400   40.4980 H   0  0  0  0  0  0  0  0  0  0  0  0
   37.6410   27.9560   39.1270 S   0  0  0  0  0  0  0  0  0  0  0  0
   38.9270   28.5320   38.5800 O   0  0  0  0  0  0  0  0  0  0  0  0
   37.8240   26.4120   38.8750 O   0  0  0  0  0  0  0  0  0  0  0  0
   34.7640   28.5060   39.5600 H   0  0  0  0  0  0  0  0  0  0  0  0
   35.1190   28.5580   38.5510 N   0  0  0  0  0  0  0  0  0  0  0  0
   36.3870   28.3680   38.0330 C   0  0  0  0  0  0  0  0  0  0  0  0
   36.0960   28.5850   36.7380 N   0  0  0  0  0  0  0  0  0  0  0  0
   34.8360   28.8660   36.4940 C   0  0  0  0  0  0  0  0  0  0  0  0
   34.2630   29.1320   35.2520 C   0  0  0  0  0  0  0  0  0  0  0  0
   34.8420   29.1280   34.3370 H   0  0  0  0  0  0  0  0  0  0  0  0
   32.9310   29.4000   35.2330 N   0  0  0  0  0  0  0  0  0  0  0  0
   32.2500   29.3940   36.3950 C   0  0  0  0  0  0  0  0  0  0  0  0
   31.1990   29.6060   36.3710 H   0  0  0  0  0  0  0  0  0  0  0  0
   32.8420   29.1290   37.5980 N   0  0  0  0  0  0  0  0  0  0  0  0
   34.1500   28.8580   37.6780 C   0  0  0  0  0  0  0  0  0  0  0  0
  1  2  2  0  0  0  0
  1  6  1  0  0  0  0
  2  3  1  0  0  0  0
  3  7  1  0  0  0  0
  3  4  2  0  0  0  0
  4  8  1  0  0  0  0
  5  9  1  0  0  0  0
  5  4  1  0  0  0  0
  6  5  2  0  0  0  0
 10  6  1  0  0  0  0
 11 12  1  0  0  0  0
 12 13  1  0  0  0  0
 13 14  2  0  0  0  0
 13 23  1  0  0  0  0
 14  2  1  0  0  0  0
 15 18  1  0  0  0  0
 15 14  1  0  0  0  0
 16 15  2  0  0  0  0
 17 16  1  0  0  0  0
 17 12  2  0  0  0  0
 19 16  1  0  0  0  0
 20 17  1  0  0  0  0
 21 27  1  0  0  0  0
 22 21  1  0  0  0  0
 22 28  1  0  0  0  0
 23 22  2  0  0  0  0
 24 25  2  0  0  0  0
 24 23  1  0  0  0  0
 25 26  1  0  0  0  0
 26 21  2  0  0  0  0
 29 25  1  0  0  0  0
 30  1  1  0  0  0  0
 31 30  2  0  0  0  0
 32 30  2  0  0  0  0
 34 33  1  0  0  0  0
 35 34  1  0  0  0  0
 35 30  1  0  0  0  0
 36 35  2  0  0  0  0
 37 36  1  0  0  0  0
 37 44  1  0  0  0  0
 38 37  2  0  0  0  0
 39 38  1  0  0  0  0
 40 38  1  0  0  0  0
 40 41  2  0  0  0  0
 41 43  1  0  0  0  0
 42 41  1  0  0  0  0
 43 44  2  0  0  0  0
 44 34  1  0  0  0  0
M  END
>  <minimizedAffinity>
-5.98557615

$$$$

 OpenBabel03252509103D

 44 48  0  0  0  0  0  0  0  0999 V2000
   36.2980   26.8060   39.3320 C   0  0  0  0  0  0  0  0  0  0  0  0
   36.8740   26.2200   40.4190 C   0  0  0  0  0  0  0  0  0  0  0  0
   36.9620   24.8400   40.4900 C   0  0  0  0  0  0  0  0  0  0  0  0
   36.4720   24.0610   39.4700 C   0  0  0  0  0  0  0  0  0  0  0  0
   35.8780   24.6240   38.3420 C   0  0  0  0  0  0  0  0  0  0  0  0
   35.7990   26.0190   38.2900 C   0  0  0  0  0  0  0  0  0  0  0  0
   37.4110   24.3320   41.3360 H   0  0  0  0  0  0  0  0  0  0  0  0
   36.4860   22.9870   39.4200 H   0  0  0  0  0  0  0  0  0  0  0  0
   35.4790   24.0800   37.5150 H   0  0  0  0  0  0  0  0  0  0  0  0
   35.3350   26.4750   37.4110 H   0  0  0  0  0  0  0  0  0  0  0  0
   40.9850   28.0790   42.9310 Cl  0  0  0  0  0  0  0  0  0  0  0  0
   39.2740   27.8080   42.7110 C   0  0  0  0  0  0  0  0  0  0  0  0
   38.8020   27.1300   41.6330 C   0  0  0  0  0  0  0  0  0  0  0  0
   37.4320   26.9540   41.5580 C   0  0  0  0  0  0  0  0  0  0  0  0
   36.5820   27.4400   42.5210 C   0  0  0  0  0  0  0  0  0  0  0  0
   37.0720   28.1140   43.5900 C   0  0  0  0  0  0  0  0  0  0  0  0
   38.4330   28.2970   43.6800 C   0  0  0  0  0  0  0  0  0  0  0  0
   35.5130   27.2620   42.3930 H   0  0  0  0  0  0  0  0  0  0  0  0
   36.3600   28.4660   44.3040 H   0  0  0  0  0  0  0  0  0  0  0  0
   38.7970   28.8400   44.5440 H   0  0  0  0  0  0  0  0  0  0  0  0
   41.2840   24.9420   39.8210 C   0  0  0  0  0  0  0  0  0  0  0  0
   40.3820   25.4150   40.7780 C   0  0  0  0  0  0  0  0  0  0  0  0
   39.7400   26.6280   40.6470 C   0  0  0  0  0  0  0  0  0  0  0  0
   40.0570   27.3170   39.5170 N   0  0  0  0  0  0  0  0  0  0  0  0
   40.9150   26.8740   38.5980 C   0  0  0  0  0  0  0  0  0  0  0  0
   41.5230   25.6940   38.7540 N   0  0  0  0  0  0  0  0  0  0  0  0
   41.7170   23.9700   40.0530 H   0  0  0  0  0  0  0  0  0  0  0  0
   40.1580   24.8380   41.6600 H   0  0  0  0  0  0  0  0  0  0  0  0
   41.0870   27.5110   37.7420 H   0  0  0  0  0  0  0  0  0  0  0  0
   36.2110   28.4790   39.1930 S   0  0  0  0  0  0  0  0  0  0  0  0
   35.7660   28.9290   37.8190 O   0  0  0  0  0  0  0  0  0  0  0  0
   34.9790   28.8630   40.0940 O   0  0  0  0  0  0  0  0  0  0  0  0
   38.7420   29.3690   37.9380 H   0  0  0  0  0  0  0  0  0  0  0  0
   38.5100   29.7770   38.9010 N   0  0  0  0  0  0  0  0  0  0  0  0
   37.4200   29.5730   39.7260 C   0  0  0  0  0  0  0  0  0  0  0  0
   37.7910   30.3830   40.7330 N   0  0  0  0  0  0  0  0  0  0  0  0
   38.9390   30.9960   40.5560 C   0  0  0  0  0  0  0  0  0  0  0  0
   39.5580   31.8840   41.4340 C   0  0  0  0  0  0  0  0  0  0  0  0
   39.1190   32.1570   42.3850 H   0  0  0  0  0  0  0  0  0  0  0  0
   40.7520   32.4020   41.0430 N   0  0  0  0  0  0  0  0  0  0  0  0
   41.2630   32.0360   39.8520 C   0  0  0  0  0  0  0  0  0  0  0  0
   42.2060   32.4490   39.5530 H   0  0  0  0  0  0  0  0  0  0  0  0
   40.6300   31.1610   39.0140 N   0  0  0  0  0  0  0  0  0  0  0  0
   39.4520   30.6180   39.3450 C   0  0  0  0  0  0  0  0  0  0  0  0
  1  2  1  0  0  0  0
  2  3  2  0  0  0  0
  2 14  1  0  0  0  0
  3  7  1  0  0  0  0
  4  3  1  0  0  0  0
  5  4  2  0  0  0  0
  6  5  1  0  0  0  0
  6  1  2  0  0  0  0
  8  4  1  0  0  0  0
  9  5  1  0  0  0  0
 10  6  1  0  0  0  0
 12 11  1  0  0  0  0
 12 17  1  0  0  0  0
 13 12  2  0  0  0  0
 14 13  1  0  0  0  0
 14 15  2  0  0  0  0
 15 16  1  0  0  0  0
 16 17  2  0  0  0  0
 16 19  1  0  0  0  0
 17 20  1  0  0  0  0
 18 15  1  0  0  0  0
 21 27  1  0  0  0  0
 21 22  1  0  0  0  0
 22 28  1  0  0  0  0
 23 22  2  0  0  0  0
 23 13  1  0  0  0  0
 24 23  1  0  0  0  0
 25 26  1  0  0  0  0
 25 24  2  0  0  0  0
 26 21  2  0  0  0  0
 29 25  1  0  0  0  0
 30  1  1  0  0  0  0
 30 35  1  0  0  0  0
 30 32  2  0  0  0  0
 31 30  2  0  0  0  0
 33 34  1  0  0  0  0
 34 44  1  0  0  0  0
 34 35  1  0  0  0  0
 35 36  2  0  0  0  0
 37 36  1  0  0  0  0
 37 38  1  0  0  0  0
 38 39  1  0  0  0  0
 40 38  2  0  0  0  0
 41 40  1  0  0  0  0
 42 41  1  0  0  0  0
 43 44  1  0  0  0  0
 43 41  2  0  0  0  0
 44 37  2  0  0  0  0
M  END
>  <minimizedAffinity>
-5.96351004

$$$$
