
 OpenBabel03252500283D

 46 49  0  0  1  0  0  0  0  0999 V2000
   47.1680   32.9880   46.7530 O   0  0  0  0  0  0  0  0  0  0  0  0
   45.7130   32.6890   46.6430 P   0  0  1  0  0  0  0  0  0  0  0  0
   45.4720   31.4780   45.4840 O   0  0  0  0  0  0  0  0  0  0  0  0
   44.6620   31.6450   44.9240 H   0  0  0  0  0  0  0  0  0  0  0  0
   45.2140   32.1500   48.1190 O   0  0  0  0  0  0  0  0  0  0  0  0
   47.0600   30.6330   48.1550 C   0  0  2  0  0  0  0  0  0  0  0  0
   45.5990   30.8480   48.3020 C   0  0  2  0  0  0  0  0  0  0  0  0
   44.9560   29.9220   47.3980 C   0  0  0  0  0  0  0  0  0  0  0  0
   45.8430   28.8740   47.1220 O   0  0  0  0  0  0  0  0  0  0  0  0
   46.9210   29.0800   47.9100 C   0  0  0  0  0  0  0  0  0  0  0  0
   47.5200   30.8270   47.1710 H   0  0  0  0  0  0  0  0  0  0  0  0
   45.4440   30.6910   49.4110 H   0  0  0  0  0  0  0  0  0  0  0  0
   44.2600   29.3270   48.0900 H   0  0  0  0  0  0  0  0  0  0  0  0
   44.2180   30.1650   46.6640 H   0  0  0  0  0  0  0  0  0  0  0  0
   46.6900   28.7180   48.9540 H   0  0  0  0  0  0  0  0  0  0  0  0
   47.8760   28.6540   47.6140 H   0  0  0  0  0  0  0  0  0  0  0  0
   47.8160   30.8100   49.2540 O   0  0  0  0  0  0  0  0  0  0  0  0
   49.0160   31.3310   49.2710 C   0  0  0  0  0  0  0  0  0  0  0  0
   49.2060   32.3680   49.0850 H   0  0  0  0  0  0  0  0  0  0  0  0
   49.5430   30.8810   48.2820 H   0  0  0  0  0  0  0  0  0  0  0  0
   49.8400   30.5900   50.3200 C   0  0  0  0  0  0  0  0  0  0  0  0
   50.0390   29.5580   50.0350 H   0  0  0  0  0  0  0  0  0  0  0  0
   49.2180   30.5860   51.2590 H   0  0  0  0  0  0  0  0  0  0  0  0
   50.7550   31.1620   50.5820 H   0  0  0  0  0  0  0  0  0  0  0  0
   44.9720   34.1610   46.1910 O   0  0  0  0  0  0  0  0  0  0  0  0
   45.2490   36.4370   43.4460 C   0  0  0  0  0  0  0  0  0  0  0  0
   45.0130   35.6350   42.3030 C   0  0  0  0  0  0  0  0  0  0  0  0
   44.7520   34.2600   42.5360 C   0  0  0  0  0  0  0  0  0  0  0  0
   44.7450   33.8130   43.8070 N   0  0  0  0  0  0  0  0  0  0  0  0
   44.9760   34.6180   44.8630 C   0  0  0  0  0  0  0  0  0  0  0  0
   45.2240   35.9180   44.6640 N   0  0  0  0  0  0  0  0  0  0  0  0
   45.0170   35.9930   41.2820 H   0  0  0  0  0  0  0  0  0  0  0  0
   44.5640   33.6000   41.6980 H   0  0  0  0  0  0  0  0  0  0  0  0
   45.4970   37.7510   43.2040 O   0  0  0  0  0  0  0  0  0  0  0  0
   45.0560   40.3940   42.5940 H   0  0  0  0  0  0  0  0  0  0  0  0
   45.0670   40.0220   43.5700 N   0  0  0  0  0  0  0  0  0  0  0  0
   45.2600   38.7800   44.1050 C   0  0  0  0  0  0  0  0  0  0  0  0
   45.1660   38.8760   45.4450 N   0  0  0  0  0  0  0  0  0  0  0  0
   44.9160   40.1440   45.8070 C   0  0  0  0  0  0  0  0  0  0  0  0
   44.7380   40.7380   47.0470 C   0  0  0  0  0  0  0  0  0  0  0  0
   44.8000   40.1140   47.9150 H   0  0  0  0  0  0  0  0  0  0  0  0
   44.4950   42.0660   47.0880 N   0  0  0  0  0  0  0  0  0  0  0  0
   44.4330   42.7770   45.9260 C   0  0  0  0  0  0  0  0  0  0  0  0
   44.2360   43.8510   45.9850 H   0  0  0  0  0  0  0  0  0  0  0  0
   44.6110   42.1730   44.7380 N   0  0  0  0  0  0  0  0  0  0  0  0
   44.8560   40.8560   44.6050 C   0  0  0  0  0  0  0  0  0  0  0  0
  2  1  2  1  0  0  0
  2  5  1  0  0  0  0
  3  2  1  0  0  0  0
  4  3  1  0  0  0  0
  5  7  1  0  0  0  0
  6 11  1  6  0  0  0
  6  7  1  0  0  0  0
  6 17  1  0  0  0  0
  7 12  1  1  0  0  0
  8 13  1  0  0  0  0
  8  7  1  0  0  0  0
  9  8  1  0  0  0  0
  9 10  1  0  0  0  0
 10  6  1  0  0  0  0
 10 15  1  0  0  0  0
 14  8  1  0  0  0  0
 16 10  1  0  0  0  0
 17 18  1  0  0  0  0
 18 21  1  0  0  0  0
 19 18  1  0  0  0  0
 20 18  1  0  0  0  0
 21 24  1  0  0  0  0
 21 23  1  0  0  0  0
 22 21  1  0  0  0  0
 25  2  1  0  0  0  0
 26 31  1  0  0  0  0
 27 28  1  0  0  0  0
 27 26  2  0  0  0  0
 28 29  2  0  0  0  0
 29 30  1  0  0  0  0
 30 25  1  0  0  0  0
 31 30  2  0  0  0  0
 32 27  1  0  0  0  0
 33 28  1  0  0  0  0
 34 26  1  0  0  0  0
 34 37  1  0  0  0  0
 35 36  1  0  0  0  0
 36 37  1  0  0  0  0
 36 46  1  0  0  0  0
 37 38  2  0  0  0  0
 38 39  1  0  0  0  0
 39 40  1  0  0  0  0
 40 42  2  0  0  0  0
 40 41  1  0  0  0  0
 43 44  1  0  0  0  0
 43 42  1  0  0  0  0
 45 43  2  0  0  0  0
 46 45  1  0  0  0  0
 46 39  2  0  0  0  0
M  END
>  <minimizedAffinity>
-4.44227982

>  <minimizedRMSD>
0.620170891

$$$$
