
 OpenBabel03252505063D

 46 50  0  0  1  0  0  0  0  0999 V2000
   44.5720   35.5910   44.6090 C   0  0  0  0  0  0  0  0  0  0  0  0
   45.2280   35.6100   43.3590 C   0  0  0  0  0  0  0  0  0  0  0  0
   46.3150   34.6990   43.1830 C   0  0  0  0  0  0  0  0  0  0  0  0
   46.6660   33.8730   44.1930 N   0  0  0  0  0  0  0  0  0  0  0  0
   46.0030   33.8970   45.3730 C   0  0  0  0  0  0  0  0  0  0  0  0
   44.9550   34.7530   45.5870 N   0  0  0  0  0  0  0  0  0  0  0  0
   43.7580   36.2910   44.7080 H   0  0  0  0  0  0  0  0  0  0  0  0
   44.9780   36.2460   42.5440 H   0  0  0  0  0  0  0  0  0  0  0  0
   47.0130   34.6920   41.8940 C   0  0  0  0  0  0  0  0  0  0  0  0
   48.1850   35.3710   41.7970 C   0  0  0  0  0  0  0  0  0  0  0  0
   48.8130   35.3400   40.5520 C   0  0  0  0  0  0  0  0  0  0  0  0
   48.1910   34.6300   39.5480 C   0  0  0  0  0  0  0  0  0  0  0  0
   47.0130   33.9490   39.6520 C   0  0  0  0  0  0  0  0  0  0  0  0
   46.4270   34.0050   40.8950 N   0  0  0  0  0  0  0  0  0  0  0  0
   48.6040   35.9030   42.6370 H   0  0  0  0  0  0  0  0  0  0  0  0
   49.7550   35.8640   40.4070 H   0  0  0  0  0  0  0  0  0  0  0  0
   48.6700   34.5980   38.5740 H   0  0  0  0  0  0  0  0  0  0  0  0
   46.4150   33.2310   38.5780 N   0  0  0  0  0  0  0  0  0  0  0  0
   46.8900   33.1610   37.3180 C   0  0  0  0  0  0  0  0  0  0  0  0
   47.7850   33.6280   36.9170 H   0  0  0  0  0  0  0  0  0  0  0  0
   46.0980   32.4110   36.5600 N   0  0  0  0  0  0  0  0  0  0  0  0
   45.0670   31.9570   37.3000 C   0  0  0  0  0  0  0  0  0  0  0  0
   43.9420   31.1610   37.1120 C   0  0  0  0  0  0  0  0  0  0  0  0
   43.8230   30.7800   36.1120 H   0  0  0  0  0  0  0  0  0  0  0  0
   43.1050   30.9240   38.1430 N   0  0  0  0  0  0  0  0  0  0  0  0
   43.3360   31.4410   39.3500 C   0  0  0  0  0  0  0  0  0  0  0  0
   42.6450   31.2310   40.1570 H   0  0  0  0  0  0  0  0  0  0  0  0
   44.4250   32.2220   39.5640 N   0  0  0  0  0  0  0  0  0  0  0  0
   45.3000   32.4960   38.5690 C   0  0  0  0  0  0  0  0  0  0  0  0
   46.4340   32.9720   46.4510 C   0  0  2  0  0  0  0  0  0  0  0  0
   46.9560   31.7430   45.7590 C   0  0  0  0  0  0  0  0  0  0  0  0
   46.0810   30.5590   45.7740 C   0  0  0  0  0  0  0  0  0  0  0  0
   45.7790   30.2950   47.2430 C   0  0  0  0  0  0  0  0  0  0  0  0
   44.9930   31.3650   47.8550 C   0  0  0  0  0  0  0  0  0  0  0  0
   45.3750   32.7400   47.4090 C   0  0  0  0  0  0  0  0  0  0  0  0
   47.2780   33.4970   46.9610 H   0  0  0  0  0  0  0  0  0  0  0  0
   47.9200   31.4690   46.2360 H   0  0  0  0  0  0  0  0  0  0  0  0
   47.2330   31.9450   44.6880 H   0  0  0  0  0  0  0  0  0  0  0  0
   46.6610   29.6900   45.4340 H   0  0  0  0  0  0  0  0  0  0  0  0
   45.1690   30.7400   45.1940 H   0  0  0  0  0  0  0  0  0  0  0  0
   46.7300   30.0930   47.7540 H   0  0  0  0  0  0  0  0  0  0  0  0
   45.1300   29.4050   47.2460 H   0  0  0  0  0  0  0  0  0  0  0  0
   44.1860   31.3450   48.5730 H   0  0  0  0  0  0  0  0  0  0  0  0
   44.6850   33.8710   47.9310 N   0  0  0  0  0  0  0  0  0  0  0  0
   45.0410   34.4690   48.7110 H   0  0  0  0  0  0  0  0  0  0  0  0
   43.7710   34.2130   47.5950 H   0  0  0  0  0  0  0  0  0  0  0  0
  1  7  1  0  0  0  0
  1  6  1  0  0  0  0
  2  1  2  0  0  0  0
  3  2  1  0  0  0  0
  3  4  2  0  0  0  0
  4  5  1  0  0  0  0
  5  6  2  0  0  0  0
  5 30  1  0  0  0  0
  8  2  1  0  0  0  0
  9  3  1  0  0  0  0
 10  9  1  0  0  0  0
 10 15  1  0  0  0  0
 11 10  2  0  0  0  0
 12 13  2  0  0  0  0
 12 11  1  0  0  0  0
 13 14  1  0  0  0  0
 14  9  2  0  0  0  0
 16 11  1  0  0  0  0
 17 12  1  0  0  0  0
 18 13  1  0  0  0  0
 19 18  1  0  0  0  0
 20 19  1  0  0  0  0
 21 22  1  0  0  0  0
 21 19  2  0  0  0  0
 22 29  1  0  0  0  0
 23 22  2  0  0  0  0
 23 25  1  0  0  0  0
 24 23  1  0  0  0  0
 25 26  2  0  0  0  0
 26 28  1  0  0  0  0
 26 27  1  0  0  0  0
 29 18  1  0  0  0  0
 29 28  2  0  0  0  0
 30 36  1  1  0  0  0
 30 35  1  0  0  0  0
 31 32  1  0  0  0  0
 31 37  1  0  0  0  0
 31 30  1  0  0  0  0
 32 33  1  0  0  0  0
 33 42  1  0  0  0  0
 33 41  1  0  0  0  0
 33 34  1  0  0  0  0
 34 43  1  0  0  0  0
 35 34  2  0  0  0  0
 35 44  1  0  0  0  0
 38 31  1  0  0  0  0
 39 32  1  0  0  0  0
 40 32  1  0  0  0  0
 44 45  1  0  0  0  0
 46 44  1  0  0  0  0
M  END
>  <minimizedAffinity>
-7.92835999

>  <minimizedRMSD>
0.198466375

$$$$
