
 OpenBabel03252500203D

 23 25  0  0  0  0  0  0  0  0999 V2000
   37.6340   30.6700   40.6870 N   0  0  0  0  0  0  0  0  0  0  0  0
   36.3420   30.5430   40.3130 C   0  0  0  0  0  0  0  0  0  0  0  0
   35.8390   31.2000   39.6170 H   0  0  0  0  0  0  0  0  0  0  0  0
   35.7960   29.4870   40.9360 N   0  0  0  0  0  0  0  0  0  0  0  0
   36.7060   28.8930   41.7310 C   0  0  0  0  0  0  0  0  0  0  0  0
   36.6660   27.8000   42.5680 C   0  0  0  0  0  0  0  0  0  0  0  0
   35.7270   27.2980   42.6160 H   0  0  0  0  0  0  0  0  0  0  0  0
   37.7930   27.4530   43.2510 N   0  0  0  0  0  0  0  0  0  0  0  0
   38.9160   28.2030   43.0780 C   0  0  0  0  0  0  0  0  0  0  0  0
   39.8220   27.9180   43.6310 H   0  0  0  0  0  0  0  0  0  0  0  0
   38.9440   29.2720   42.2560 N   0  0  0  0  0  0  0  0  0  0  0  0
   37.8460   29.6590   41.5520 C   0  0  0  0  0  0  0  0  0  0  0  0
   40.1260   33.4520   40.3510 C   0  0  0  0  0  0  0  0  0  0  0  0
   39.2280   32.6260   41.0250 C   0  0  0  0  0  0  0  0  0  0  0  0
   38.5870   31.6450   40.2770 C   0  0  0  0  0  0  0  0  0  0  0  0
   38.8570   31.5330   38.9390 N   0  0  0  0  0  0  0  0  0  0  0  0
   39.7370   32.3610   38.3350 C   0  0  0  0  0  0  0  0  0  0  0  0
   40.3770   33.3300   39.0540 N   0  0  0  0  0  0  0  0  0  0  0  0
   40.0490   32.2820   36.9530 N   0  0  0  0  0  0  0  0  0  0  0  0
   40.5880   34.1920   40.9940 H   0  0  0  0  0  0  0  0  0  0  0  0
   38.9370   32.6130   42.0440 H   0  0  0  0  0  0  0  0  0  0  0  0
   40.7990   31.7680   36.4490 H   0  0  0  0  0  0  0  0  0  0  0  0
   39.2990   32.9030   36.5330 H   0  0  0  0  0  0  0  0  0  0  0  0
  1 12  1  0  0  0  0
  2  1  1  0  0  0  0
  2  4  2  0  0  0  0
  3  2  1  0  0  0  0
  4  5  1  0  0  0  0
  5  6  1  0  0  0  0
  6  7  1  0  0  0  0
  6  8  2  0  0  0  0
  9  8  1  0  0  0  0
  9 10  1  0  0  0  0
 11  9  2  0  0  0  0
 12  5  2  0  0  0  0
 12 11  1  0  0  0  0
 13 20  1  0  0  0  0
 13 14  1  0  0  0  0
 14 21  1  0  0  0  0
 15  1  1  0  0  0  0
 15 14  2  0  0  0  0
 16 15  1  0  0  0  0
 17 16  2  0  0  0  0
 17 18  1  0  0  0  0
 18 13  2  0  0  0  0
 19 17  1  0  0  0  0
 22 19  1  0  0  0  0
 23 19  1  0  0  0  0
M  END
>  <minimizedAffinity>
-4.83734179

$$$$

 OpenBabel03252500203D

 23 25  0  0  0  0  0  0  0  0999 V2000
   37.5910   29.0770   42.1500 N   0  0  0  0  0  0  0  0  0  0  0  0
   37.7320   28.8060   43.4650 C   0  0  0  0  0  0  0  0  0  0  0  0
   37.9300   29.5490   44.2250 H   0  0  0  0  0  0  0  0  0  0  0  0
   37.5870   27.4880   43.6710 N   0  0  0  0  0  0  0  0  0  0  0  0
   37.3480   26.8580   42.5050 C   0  0  0  0  0  0  0  0  0  0  0  0
   37.1310   25.5410   42.1640 C   0  0  0  0  0  0  0  0  0  0  0  0
   37.1510   24.8520   42.9770 H   0  0  0  0  0  0  0  0  0  0  0  0
   36.9150   25.2270   40.8560 N   0  0  0  0  0  0  0  0  0  0  0  0
   36.9230   26.2310   39.9360 C   0  0  0  0  0  0  0  0  0  0  0  0
   36.7470   25.9720   38.8820 H   0  0  0  0  0  0  0  0  0  0  0  0
   37.1370   27.5170   40.2800 N   0  0  0  0  0  0  0  0  0  0  0  0
   37.3570   27.8820   41.5730 C   0  0  0  0  0  0  0  0  0  0  0  0
   37.0590   32.2320   40.1940 C   0  0  0  0  0  0  0  0  0  0  0  0
   36.7050   30.9950   40.7300 C   0  0  0  0  0  0  0  0  0  0  0  0
   37.6660   30.3350   41.4870 C   0  0  0  0  0  0  0  0  0  0  0  0
   38.8940   30.9130   41.6710 N   0  0  0  0  0  0  0  0  0  0  0  0
   39.1860   32.1150   41.1290 C   0  0  0  0  0  0  0  0  0  0  0  0
   38.2530   32.7790   40.3820 N   0  0  0  0  0  0  0  0  0  0  0  0
   40.4420   32.7530   41.2930 N   0  0  0  0  0  0  0  0  0  0  0  0
   36.2640   32.6890   39.6170 H   0  0  0  0  0  0  0  0  0  0  0  0
   35.7990   30.4500   40.6600 H   0  0  0  0  0  0  0  0  0  0  0  0
   40.7740   33.4390   42.0000 H   0  0  0  0  0  0  0  0  0  0  0  0
   40.9920   32.3440   40.4840 H   0  0  0  0  0  0  0  0  0  0  0  0
  1  2  1  0  0  0  0
  2  4  2  0  0  0  0
  2  3  1  0  0  0  0
  5  4  1  0  0  0  0
  6  5  1  0  0  0  0
  6  7  1  0  0  0  0
  8  6  2  0  0  0  0
  9 11  2  0  0  0  0
  9  8  1  0  0  0  0
 10  9  1  0  0  0  0
 11 12  1  0  0  0  0
 12  1  1  0  0  0  0
 12  5  2  0  0  0  0
 13 18  2  0  0  0  0
 13 14  1  0  0  0  0
 14 15  2  0  0  0  0
 15 16  1  0  0  0  0
 15  1  1  0  0  0  0
 17 19  1  0  0  0  0
 17 16  2  0  0  0  0
 18 17  1  0  0  0  0
 19 22  1  0  0  0  0
 20 13  1  0  0  0  0
 21 14  1  0  0  0  0
 23 19  1  0  0  0  0
M  END
>  <minimizedAffinity>
-4.76656914

$$$$

 OpenBabel03252500203D

 23 25  0  0  0  0  0  0  0  0999 V2000
   37.4660   26.5300   41.3470 N   0  0  0  0  0  0  0  0  0  0  0  0
   37.1330   25.2400   41.5710 C   0  0  0  0  0  0  0  0  0  0  0  0
   36.2720   24.7470   41.1420 H   0  0  0  0  0  0  0  0  0  0  0  0
   38.0320   24.6820   42.3960 N   0  0  0  0  0  0  0  0  0  0  0  0
   38.9740   25.5810   42.7360 C   0  0  0  0  0  0  0  0  0  0  0  0
   40.0930   25.5260   43.5380 C   0  0  0  0  0  0  0  0  0  0  0  0
   40.2770   24.5830   44.0000 H   0  0  0  0  0  0  0  0  0  0  0  0
   40.8590   26.6450   43.6770 N   0  0  0  0  0  0  0  0  0  0  0  0
   40.4840   27.7760   43.0150 C   0  0  0  0  0  0  0  0  0  0  0  0
   41.1050   28.6750   43.1310 H   0  0  0  0  0  0  0  0  0  0  0  0
   39.3860   27.8180   42.2340 N   0  0  0  0  0  0  0  0  0  0  0  0
   38.5900   26.7280   42.0630 C   0  0  0  0  0  0  0  0  0  0  0  0
   35.7570   28.5230   38.6690 C   0  0  0  0  0  0  0  0  0  0  0  0
   36.4020   27.4110   39.2090 C   0  0  0  0  0  0  0  0  0  0  0  0
   36.7980   27.4940   40.5390 C   0  0  0  0  0  0  0  0  0  0  0  0
   36.5450   28.6380   41.2490 N   0  0  0  0  0  0  0  0  0  0  0  0
   35.9170   29.6880   40.6770 C   0  0  0  0  0  0  0  0  0  0  0  0
   35.5200   29.6250   39.3710 N   0  0  0  0  0  0  0  0  0  0  0  0
   35.6330   30.8920   41.3720 N   0  0  0  0  0  0  0  0  0  0  0  0
   35.4770   28.3900   37.6310 H   0  0  0  0  0  0  0  0  0  0  0  0
   36.6510   26.4810   38.7690 H   0  0  0  0  0  0  0  0  0  0  0  0
   34.7930   31.1920   41.9050 H   0  0  0  0  0  0  0  0  0  0  0  0
   36.5260   31.4410   41.2110 H   0  0  0  0  0  0  0  0  0  0  0  0
  1  2  1  0  0  0  0
  1 12  1  0  0  0  0
  2  4  2  0  0  0  0
  3  2  1  0  0  0  0
  4  5  1  0  0  0  0
  5  6  1  0  0  0  0
  6  8  2  0  0  0  0
  6  7  1  0  0  0  0
  9 10  1  0  0  0  0
  9  8  1  0  0  0  0
 11  9  2  0  0  0  0
 12 11  1  0  0  0  0
 12  5  2  0  0  0  0
 13 14  2  0  0  0  0
 13 18  1  0  0  0  0
 14 15  1  0  0  0  0
 15 16  2  0  0  0  0
 15  1  1  0  0  0  0
 17 16  1  0  0  0  0
 17 19  1  0  0  0  0
 18 17  2  0  0  0  0
 19 22  1  0  0  0  0
 20 13  1  0  0  0  0
 21 14  1  0  0  0  0
 23 19  1  0  0  0  0
M  END
>  <minimizedAffinity>
-4.70865059

$$$$

 OpenBabel03252500203D

 23 25  0  0  0  0  0  0  0  0999 V2000
   37.6660   30.5390   41.3190 N   0  0  0  0  0  0  0  0  0  0  0  0
   36.6700   31.2390   40.7350 C   0  0  0  0  0  0  0  0  0  0  0  0
   35.6410   30.9110   40.6820 H   0  0  0  0  0  0  0  0  0  0  0  0
   37.1570   32.3870   40.2400 N   0  0  0  0  0  0  0  0  0  0  0  0
   38.4780   32.4760   40.4830 C   0  0  0  0  0  0  0  0  0  0  0  0
   39.4360   33.4240   40.1950 C   0  0  0  0  0  0  0  0  0  0  0  0
   39.0830   34.2810   39.6680 H   0  0  0  0  0  0  0  0  0  0  0  0
   40.7210   33.2030   40.5910 N   0  0  0  0  0  0  0  0  0  0  0  0
   41.0070   32.0500   41.2580 C   0  0  0  0  0  0  0  0  0  0  0  0
   42.0450   31.8780   41.5760 H   0  0  0  0  0  0  0  0  0  0  0  0
   40.0620   31.1290   41.5340 N   0  0  0  0  0  0  0  0  0  0  0  0
   38.7650   31.3020   41.1600 C   0  0  0  0  0  0  0  0  0  0  0  0
   37.6680   27.6160   43.6670 C   0  0  0  0  0  0  0  0  0  0  0  0
   37.7940   28.9570   43.3090 C   0  0  0  0  0  0  0  0  0  0  0  0
   37.6030   29.2740   41.9690 C   0  0  0  0  0  0  0  0  0  0  0  0
   37.3060   28.2790   41.0750 N   0  0  0  0  0  0  0  0  0  0  0  0
   37.1960   26.9940   41.4760 C   0  0  0  0  0  0  0  0  0  0  0  0
   37.3790   26.6630   42.7890 N   0  0  0  0  0  0  0  0  0  0  0  0
   36.8900   25.9310   40.5880 N   0  0  0  0  0  0  0  0  0  0  0  0
   37.8290   27.4410   44.7240 H   0  0  0  0  0  0  0  0  0  0  0  0
   38.0170   29.8080   43.8990 H   0  0  0  0  0  0  0  0  0  0  0  0
   35.9810   25.5050   40.3170 H   0  0  0  0  0  0  0  0  0  0  0  0
   37.8560   25.6580   40.2470 H   0  0  0  0  0  0  0  0  0  0  0  0
  1 15  1  0  0  0  0
  2  1  1  0  0  0  0
  3  2  1  0  0  0  0
  4  5  1  0  0  0  0
  4  2  2  0  0  0  0
  5 12  1  0  0  0  0
  6  5  2  0  0  0  0
  6  8  1  0  0  0  0
  7  6  1  0  0  0  0
  8  9  2  0  0  0  0
  9 11  1  0  0  0  0
  9 10  1  0  0  0  0
 12  1  1  0  0  0  0
 12 11  2  0  0  0  0
 13 20  1  0  0  0  0
 14 13  1  0  0  0  0
 14 21  1  0  0  0  0
 15 14  2  0  0  0  0
 16 17  2  0  0  0  0
 16 15  1  0  0  0  0
 17 18  1  0  0  0  0
 18 13  2  0  0  0  0
 19 17  1  0  0  0  0
 22 19  1  0  0  0  0
 23 19  1  0  0  0  0
M  END
>  <minimizedAffinity>
-4.55348396

$$$$

 OpenBabel03252500203D

 23 25  0  0  0  0  0  0  0  0999 V2000
   38.7250   32.3180   39.8270 N   0  0  0  0  0  0  0  0  0  0  0  0
   38.8600   33.5360   40.3940 C   0  0  0  0  0  0  0  0  0  0  0  0
   38.2000   33.9340   41.1530 H   0  0  0  0  0  0  0  0  0  0  0  0
   39.9270   34.1600   39.8720 N   0  0  0  0  0  0  0  0  0  0  0  0
   40.5210   33.3750   38.9530 C   0  0  0  0  0  0  0  0  0  0  0  0
   41.6230   33.5310   38.1410 C   0  0  0  0  0  0  0  0  0  0  0  0
   42.1350   34.4610   38.2420 H   0  0  0  0  0  0  0  0  0  0  0  0
   41.9670   32.5180   37.2970 N   0  0  0  0  0  0  0  0  0  0  0  0
   41.2050   31.3890   37.2900 C   0  0  0  0  0  0  0  0  0  0  0  0
   41.4870   30.5750   36.6080 H   0  0  0  0  0  0  0  0  0  0  0  0
   40.1270   31.2480   38.0890 N   0  0  0  0  0  0  0  0  0  0  0  0
   39.7430   32.2300   38.9490 C   0  0  0  0  0  0  0  0  0  0  0  0
   35.8920   29.8620   39.7660 C   0  0  0  0  0  0  0  0  0  0  0  0
   36.7240   30.8540   39.2500 C   0  0  0  0  0  0  0  0  0  0  0  0
   37.7370   31.3240   40.0780 C   0  0  0  0  0  0  0  0  0  0  0  0
   37.8730   30.8060   41.3390 N   0  0  0  0  0  0  0  0  0  0  0  0
   37.0380   29.8450   41.7900 C   0  0  0  0  0  0  0  0  0  0  0  0
   36.0370   29.3700   40.9900 N   0  0  0  0  0  0  0  0  0  0  0  0
   37.1410   29.2790   43.0870 N   0  0  0  0  0  0  0  0  0  0  0  0
   35.1270   29.5420   39.0690 H   0  0  0  0  0  0  0  0  0  0  0  0
   36.7210   31.3290   38.3030 H   0  0  0  0  0  0  0  0  0  0  0  0
   37.6480   28.4380   43.4290 H   0  0  0  0  0  0  0  0  0  0  0  0
   36.5480   29.9490   43.6560 H   0  0  0  0  0  0  0  0  0  0  0  0
  1 15  1  0  0  0  0
  1  2  1  0  0  0  0
  2  3  1  0  0  0  0
  4  2  2  0  0  0  0
  5  4  1  0  0  0  0
  6  7  1  0  0  0  0
  6  5  2  0  0  0  0
  8  6  1  0  0  0  0
  9  8  2  0  0  0  0
  9 11  1  0  0  0  0
 10  9  1  0  0  0  0
 11 12  2  0  0  0  0
 12  5  1  0  0  0  0
 12  1  1  0  0  0  0
 13 18  1  0  0  0  0
 14 13  2  0  0  0  0
 14 15  1  0  0  0  0
 15 16  2  0  0  0  0
 16 17  1  0  0  0  0
 17 19  1  0  0  0  0
 18 17  2  0  0  0  0
 19 22  1  0  0  0  0
 19 23  1  0  0  0  0
 20 13  1  0  0  0  0
 21 14  1  0  0  0  0
M  END
>  <minimizedAffinity>
-4.55220222

$$$$

 OpenBabel03252500203D

 23 25  0  0  0  0  0  0  0  0999 V2000
   37.5030   29.1720   41.0370 N   0  0  0  0  0  0  0  0  0  0  0  0
   36.3580   28.6580   41.5360 C   0  0  0  0  0  0  0  0  0  0  0  0
   35.3710   28.8780   41.1540 H   0  0  0  0  0  0  0  0  0  0  0  0
   36.6420   27.8440   42.5640 N   0  0  0  0  0  0  0  0  0  0  0  0
   37.9720   27.7980   42.7690 C   0  0  0  0  0  0  0  0  0  0  0  0
   38.7710   27.1330   43.6730 C   0  0  0  0  0  0  0  0  0  0  0  0
   38.2530   26.5150   44.3700 H   0  0  0  0  0  0  0  0  0  0  0  0
   40.1210   27.3090   43.6110 N   0  0  0  0  0  0  0  0  0  0  0  0
   40.6270   28.1370   42.6550 C   0  0  0  0  0  0  0  0  0  0  0  0
   41.7160   28.2750   42.6100 H   0  0  0  0  0  0  0  0  0  0  0  0
   39.8350   28.7840   41.7760 N   0  0  0  0  0  0  0  0  0  0  0  0
   38.4810   28.6420   41.7960 C   0  0  0  0  0  0  0  0  0  0  0  0
   38.2230   30.9300   37.8040 C   0  0  0  0  0  0  0  0  0  0  0  0
   38.1710   29.8420   38.6740 C   0  0  0  0  0  0  0  0  0  0  0  0
   37.6730   30.0770   39.9510 C   0  0  0  0  0  0  0  0  0  0  0  0
   37.2630   31.3380   40.2940 N   0  0  0  0  0  0  0  0  0  0  0  0
   37.3350   32.3570   39.4110 C   0  0  0  0  0  0  0  0  0  0  0  0
   37.8210   32.1460   38.1520 N   0  0  0  0  0  0  0  0  0  0  0  0
   36.9220   33.6790   39.7210 N   0  0  0  0  0  0  0  0  0  0  0  0
   38.6200   30.6760   36.8280 H   0  0  0  0  0  0  0  0  0  0  0  0
   38.4540   28.8310   38.5280 H   0  0  0  0  0  0  0  0  0  0  0  0
   36.0100   34.1590   39.5910 H   0  0  0  0  0  0  0  0  0  0  0  0
   37.8090   34.0830   40.1380 H   0  0  0  0  0  0  0  0  0  0  0  0
  1  2  1  0  0  0  0
  1 12  1  0  0  0  0
  2  4  2  0  0  0  0
  3  2  1  0  0  0  0
  4  5  1  0  0  0  0
  5  6  1  0  0  0  0
  6  7  1  0  0  0  0
  8  6  2  0  0  0  0
  9  8  1  0  0  0  0
 10  9  1  0  0  0  0
 11 12  1  0  0  0  0
 11  9  2  0  0  0  0
 12  5  2  0  0  0  0
 13 18  2  0  0  0  0
 13 14  1  0  0  0  0
 14 15  2  0  0  0  0
 15 16  1  0  0  0  0
 15  1  1  0  0  0  0
 17 19  1  0  0  0  0
 17 16  2  0  0  0  0
 18 17  1  0  0  0  0
 19 23  1  0  0  0  0
 20 13  1  0  0  0  0
 21 14  1  0  0  0  0
 22 19  1  0  0  0  0
M  END
>  <minimizedAffinity>
-4.53201962

$$$$

 OpenBabel03252500203D

 23 25  0  0  0  0  0  0  0  0999 V2000
   38.2240   29.8390   40.2810 N   0  0  0  0  0  0  0  0  0  0  0  0
   38.5240   28.9110   39.3460 C   0  0  0  0  0  0  0  0  0  0  0  0
   38.7400   29.1340   38.3100 H   0  0  0  0  0  0  0  0  0  0  0  0
   38.5120   27.6910   39.9040 N   0  0  0  0  0  0  0  0  0  0  0  0
   38.2070   27.7800   41.2120 C   0  0  0  0  0  0  0  0  0  0  0  0
   38.0640   26.8500   42.2190 C   0  0  0  0  0  0  0  0  0  0  0  0
   38.2250   25.8370   41.9290 H   0  0  0  0  0  0  0  0  0  0  0  0
   37.7390   27.2810   43.4710 N   0  0  0  0  0  0  0  0  0  0  0  0
   37.5670   28.6160   43.6750 C   0  0  0  0  0  0  0  0  0  0  0  0
   37.3050   28.9580   44.6870 H   0  0  0  0  0  0  0  0  0  0  0  0
   37.7080   29.5170   42.6820 N   0  0  0  0  0  0  0  0  0  0  0  0
   38.0320   29.1380   41.4160 C   0  0  0  0  0  0  0  0  0  0  0  0
   37.2690   33.3980   39.5880 C   0  0  0  0  0  0  0  0  0  0  0  0
   37.0910   32.0160   39.6060 C   0  0  0  0  0  0  0  0  0  0  0  0
   38.1260   31.2520   40.1330 C   0  0  0  0  0  0  0  0  0  0  0  0
   39.2530   31.8730   40.6010 N   0  0  0  0  0  0  0  0  0  0  0  0
   39.3750   33.2180   40.5590 C   0  0  0  0  0  0  0  0  0  0  0  0
   38.3680   33.9850   40.0450 N   0  0  0  0  0  0  0  0  0  0  0  0
   40.5230   33.9050   41.0320 N   0  0  0  0  0  0  0  0  0  0  0  0
   36.4260   33.9300   39.1650 H   0  0  0  0  0  0  0  0  0  0  0  0
   36.2760   31.4240   39.2790 H   0  0  0  0  0  0  0  0  0  0  0  0
   40.7400   34.3150   41.9620 H   0  0  0  0  0  0  0  0  0  0  0  0
   41.1390   33.9020   40.1690 H   0  0  0  0  0  0  0  0  0  0  0  0
  1 12  1  0  0  0  0
  2  4  2  0  0  0  0
  2  1  1  0  0  0  0
  3  2  1  0  0  0  0
  4  5  1  0  0  0  0
  5 12  2  0  0  0  0
  5  6  1  0  0  0  0
  6  8  2  0  0  0  0
  7  6  1  0  0  0  0
  8  9  1  0  0  0  0
  9 10  1  0  0  0  0
 11  9  2  0  0  0  0
 12 11  1  0  0  0  0
 13 14  2  0  0  0  0
 13 18  1  0  0  0  0
 14 15  1  0  0  0  0
 15  1  1  0  0  0  0
 15 16  2  0  0  0  0
 17 16  1  0  0  0  0
 17 19  1  0  0  0  0
 18 17  2  0  0  0  0
 19 22  1  0  0  0  0
 20 13  1  0  0  0  0
 21 14  1  0  0  0  0
 23 19  1  0  0  0  0
M  END
>  <minimizedAffinity>
-4.51994705

$$$$

 OpenBabel03252500203D

 23 25  0  0  0  0  0  0  0  0999 V2000
   38.4540   29.9690   40.7960 N   0  0  0  0  0  0  0  0  0  0  0  0
   38.9740   30.7530   41.7660 C   0  0  0  0  0  0  0  0  0  0  0  0
   39.1520   31.8140   41.6650 H   0  0  0  0  0  0  0  0  0  0  0  0
   39.2290   30.0110   42.8540 N   0  0  0  0  0  0  0  0  0  0  0  0
   38.8850   28.7280   42.6350 C   0  0  0  0  0  0  0  0  0  0  0  0
   38.9390   27.5860   43.4030 C   0  0  0  0  0  0  0  0  0  0  0  0
   39.3320   27.7160   44.3860 H   0  0  0  0  0  0  0  0  0  0  0  0
   38.5000   26.4110   42.8680 N   0  0  0  0  0  0  0  0  0  0  0  0
   38.0260   26.4150   41.5910 C   0  0  0  0  0  0  0  0  0  0  0  0
   37.6730   25.4660   41.1650 H   0  0  0  0  0  0  0  0  0  0  0  0
   37.9780   27.5390   40.8480 N   0  0  0  0  0  0  0  0  0  0  0  0
   38.4040   28.7360   41.3370 C   0  0  0  0  0  0  0  0  0  0  0  0
   36.7180   30.5370   37.5210 C   0  0  0  0  0  0  0  0  0  0  0  0
   36.8550   30.0410   38.8170 C   0  0  0  0  0  0  0  0  0  0  0  0
   38.0390   30.3350   39.4840 C   0  0  0  0  0  0  0  0  0  0  0  0
   39.0000   31.0810   38.8560 N   0  0  0  0  0  0  0  0  0  0  0  0
   38.8160   31.5370   37.5980 C   0  0  0  0  0  0  0  0  0  0  0  0
   37.6590   31.2590   36.9270 N   0  0  0  0  0  0  0  0  0  0  0  0
   39.7830   32.3140   36.9090 N   0  0  0  0  0  0  0  0  0  0  0  0
   35.7740   30.2710   37.0620 H   0  0  0  0  0  0  0  0  0  0  0  0
   36.1920   29.4600   39.4040 H   0  0  0  0  0  0  0  0  0  0  0  0
   39.9080   33.3430   36.8360 H   0  0  0  0  0  0  0  0  0  0  0  0
   40.3790   31.5590   36.4620 H   0  0  0  0  0  0  0  0  0  0  0  0
  1 12  1  0  0  0  0
  1  2  1  0  0  0  0
  2  4  2  0  0  0  0
  3  2  1  0  0  0  0
  5  4  1  0  0  0  0
  5  6  1  0  0  0  0
  6  7  1  0  0  0  0
  8  6  2  0  0  0  0
  9  8  1  0  0  0  0
 10  9  1  0  0  0  0
 11 12  1  0  0  0  0
 11  9  2  0  0  0  0
 12  5  2  0  0  0  0
 13 14  1  0  0  0  0
 14 21  1  0  0  0  0
 14 15  2  0  0  0  0
 15  1  1  0  0  0  0
 16 15  1  0  0  0  0
 17 16  2  0  0  0  0
 18 13  2  0  0  0  0
 18 17  1  0  0  0  0
 19 17  1  0  0  0  0
 20 13  1  0  0  0  0
 22 19  1  0  0  0  0
 23 19  1  0  0  0  0
M  END
>  <minimizedAffinity>
-4.49588728

$$$$

 OpenBabel03252500203D

 23 25  0  0  0  0  0  0  0  0999 V2000
   39.9900   30.6170   39.3030 N   0  0  0  0  0  0  0  0  0  0  0  0
   40.3630   29.8750   38.2370 C   0  0  0  0  0  0  0  0  0  0  0  0
   40.1110   28.8330   38.0990 H   0  0  0  0  0  0  0  0  0  0  0  0
   41.0830   30.6310   37.3940 N   0  0  0  0  0  0  0  0  0  0  0  0
   41.2030   31.8820   37.8760 C   0  0  0  0  0  0  0  0  0  0  0  0
   41.8270   33.0210   37.4160 C   0  0  0  0  0  0  0  0  0  0  0  0
   42.3280   32.9190   36.4810 H   0  0  0  0  0  0  0  0  0  0  0  0
   41.7590   34.1570   38.1660 N   0  0  0  0  0  0  0  0  0  0  0  0
   41.0750   34.1190   39.3440 C   0  0  0  0  0  0  0  0  0  0  0  0
   41.0240   35.0380   39.9440 H   0  0  0  0  0  0  0  0  0  0  0  0
   40.4700   32.9980   39.7840 N   0  0  0  0  0  0  0  0  0  0  0  0
   40.5080   31.8390   39.0730 C   0  0  0  0  0  0  0  0  0  0  0  0
   38.6230   29.2470   42.5150 C   0  0  0  0  0  0  0  0  0  0  0  0
   39.5990   29.4820   41.5480 C   0  0  0  0  0  0  0  0  0  0  0  0
   39.2210   30.2240   40.4340 C   0  0  0  0  0  0  0  0  0  0  0  0
   37.9340   30.6820   40.3340 N   0  0  0  0  0  0  0  0  0  0  0  0
   37.0260   30.4250   41.3010 C   0  0  0  0  0  0  0  0  0  0  0  0
   37.3800   29.6980   42.4030 N   0  0  0  0  0  0  0  0  0  0  0  0
   35.6830   30.8790   41.2420 N   0  0  0  0  0  0  0  0  0  0  0  0
   38.9870   28.6650   43.3530 H   0  0  0  0  0  0  0  0  0  0  0  0
   40.6160   29.1860   41.5110 H   0  0  0  0  0  0  0  0  0  0  0  0
   35.2360   31.7430   41.6080 H   0  0  0  0  0  0  0  0  0  0  0  0
   35.2190   30.0900   40.7070 H   0  0  0  0  0  0  0  0  0  0  0  0
  1 15  1  0  0  0  0
  2  1  1  0  0  0  0
  3  2  1  0  0  0  0
  4  5  1  0  0  0  0
  4  2  2  0  0  0  0
  5 12  1  0  0  0  0
  6  5  2  0  0  0  0
  6  8  1  0  0  0  0
  7  6  1  0  0  0  0
  8  9  2  0  0  0  0
  9 11  1  0  0  0  0
  9 10  1  0  0  0  0
 12  1  1  0  0  0  0
 12 11  2  0  0  0  0
 13 20  1  0  0  0  0
 14 13  2  0  0  0  0
 15 14  1  0  0  0  0
 16 15  2  0  0  0  0
 16 17  1  0  0  0  0
 17 18  2  0  0  0  0
 18 13  1  0  0  0  0
 19 17  1  0  0  0  0
 19 22  1  0  0  0  0
 21 14  1  0  0  0  0
 23 19  1  0  0  0  0
M  END
>  <minimizedAffinity>
-4.44553614

$$$$
