
 OpenBabel03252502573D

 40 43  0  0  0  0  0  0  0  0999 V2000
   39.6910   27.8440   40.0420 Br  0  0  0  0  0  0  0  0  0  0  0  0
   38.5480   27.8550   41.5930 C   0  0  0  0  0  0  0  0  0  0  0  0
   38.5550   28.9990   42.3490 C   0  0  0  0  0  0  0  0  0  0  0  0
   37.7160   28.9770   43.4670 C   0  0  0  0  0  0  0  0  0  0  0  0
   36.9360   27.8910   43.7930 C   0  0  0  0  0  0  0  0  0  0  0  0
   36.9760   26.7790   42.9940 C   0  0  0  0  0  0  0  0  0  0  0  0
   37.7800   26.7400   41.8850 C   0  0  0  0  0  0  0  0  0  0  0  0
   37.6640   29.8390   44.1140 H   0  0  0  0  0  0  0  0  0  0  0  0
   36.2920   27.8920   44.6630 H   0  0  0  0  0  0  0  0  0  0  0  0
   36.3900   25.8920   43.1940 H   0  0  0  0  0  0  0  0  0  0  0  0
   39.3370   30.2060   42.1000 C   0  0  0  0  0  0  0  0  0  0  0  0
   39.6010   30.6710   43.0780 H   0  0  0  0  0  0  0  0  0  0  0  0
   40.2890   29.9010   41.6050 H   0  0  0  0  0  0  0  0  0  0  0  0
   36.9780   31.8630   39.7400 C   0  0  0  0  0  0  0  0  0  0  0  0
   37.4610   33.1730   39.7060 C   0  0  0  0  0  0  0  0  0  0  0  0
   38.5810   33.4610   40.4880 C   0  0  0  0  0  0  0  0  0  0  0  0
   39.1500   32.4840   41.2370 N   0  0  0  0  0  0  0  0  0  0  0  0
   38.6460   31.2110   41.2460 C   0  0  0  0  0  0  0  0  0  0  0  0
   37.5710   30.9490   40.4890 N   0  0  0  0  0  0  0  0  0  0  0  0
   36.1170   31.6170   39.1460 H   0  0  0  0  0  0  0  0  0  0  0  0
   36.9700   33.9120   39.0890 H   0  0  0  0  0  0  0  0  0  0  0  0
   38.9570   34.4750   40.4620 H   0  0  0  0  0  0  0  0  0  0  0  0
   37.8160   25.6050   41.0780 O   0  0  0  0  0  0  0  0  0  0  0  0
   39.9740   24.3160   40.4220 O   0  0  0  0  0  0  0  0  0  0  0  0
   38.8160   24.2640   41.4080 P   0  0  2  0  0  0  0  0  0  0  0  0
   37.9090   22.8760   41.1460 O   0  0  0  0  0  0  0  0  0  0  0  0
   37.7400   22.3760   41.9660 H   0  0  0  0  0  0  0  0  0  0  0  0
   39.4430   24.3080   42.9660 O   0  0  0  0  0  0  0  0  0  0  0  0
   42.0690   23.7870   42.3850 H   0  0  0  0  0  0  0  0  0  0  0  0
   41.7850   24.6260   42.9550 N   0  0  0  0  0  0  0  0  0  0  0  0
   40.5500   25.0550   43.3460 C   0  0  0  0  0  0  0  0  0  0  0  0
   40.7180   26.1820   44.0580 N   0  0  0  0  0  0  0  0  0  0  0  0
   42.0160   26.5020   44.1450 C   0  0  0  0  0  0  0  0  0  0  0  0
   42.7350   27.5200   44.7350 C   0  0  0  0  0  0  0  0  0  0  0  0
   42.1470   28.2500   45.2610 H   0  0  0  0  0  0  0  0  0  0  0  0
   44.0780   27.5770   44.6470 N   0  0  0  0  0  0  0  0  0  0  0  0
   44.7160   26.5900   43.9510 C   0  0  0  0  0  0  0  0  0  0  0  0
   45.7960   26.6930   43.9170 H   0  0  0  0  0  0  0  0  0  0  0  0
   44.0370   25.5780   43.3600 N   0  0  0  0  0  0  0  0  0  0  0  0
   42.6900   25.5000   43.4360 C   0  0  0  0  0  0  0  0  0  0  0  0
  1  2  1  0  0  0  0
  2  7  2  0  0  0  0
  2  3  1  0  0  0  0
  3  4  2  0  0  0  0
  4  5  1  0  0  0  0
  4  8  1  0  0  0  0
  5  9  1  0  0  0  0
  6 10  1  0  0  0  0
  6  5  2  0  0  0  0
  7  6  1  0  0  0  0
 11  3  1  0  0  0  0
 11 12  1  0  0  0  0
 13 11  1  0  0  0  0
 14 19  1  0  0  0  0
 15 14  2  0  0  0  0
 15 16  1  0  0  0  0
 16 17  2  0  0  0  0
 17 18  1  0  0  0  0
 18 11  1  0  0  0  0
 19 18  2  0  0  0  0
 20 14  1  0  0  0  0
 21 15  1  0  0  0  0
 22 16  1  0  0  0  0
 23 25  1  0  0  0  0
 23  7  1  0  0  0  0
 25 24  2  6  0  0  0
 25 28  1  0  0  0  0
 26 25  1  0  0  0  0
 26 27  1  0  0  0  0
 28 31  1  0  0  0  0
 29 30  1  0  0  0  0
 30 31  1  0  0  0  0
 30 40  1  0  0  0  0
 31 32  2  0  0  0  0
 32 33  1  0  0  0  0
 33 34  1  0  0  0  0
 34 35  1  0  0  0  0
 36 34  2  0  0  0  0
 37 36  1  0  0  0  0
 38 37  1  0  0  0  0
 39 40  1  0  0  0  0
 39 37  2  0  0  0  0
 40 33  2  0  0  0  0
M  END
>  <minimizedAffinity>
-6.51025295

$$$$

 OpenBabel03252502573D

 40 43  0  0  0  0  0  0  0  0999 V2000
   37.2860   25.4000   40.3480 Br  0  0  0  0  0  0  0  0  0  0  0  0
   37.5590   26.6570   41.7830 C   0  0  0  0  0  0  0  0  0  0  0  0
   38.4630   26.2940   42.7490 C   0  0  0  0  0  0  0  0  0  0  0  0
   38.6390   27.2250   43.7760 C   0  0  0  0  0  0  0  0  0  0  0  0
   37.9610   28.4210   43.8240 C   0  0  0  0  0  0  0  0  0  0  0  0
   37.0700   28.7220   42.8270 C   0  0  0  0  0  0  0  0  0  0  0  0
   36.8540   27.8490   41.7930 C   0  0  0  0  0  0  0  0  0  0  0  0
   39.3330   27.0160   44.5750 H   0  0  0  0  0  0  0  0  0  0  0  0
   38.1100   29.1310   44.6280 H   0  0  0  0  0  0  0  0  0  0  0  0
   36.5040   29.6430   42.8040 H   0  0  0  0  0  0  0  0  0  0  0  0
   39.2380   25.0580   42.8010 C   0  0  0  0  0  0  0  0  0  0  0  0
   39.1180   24.6020   43.8110 H   0  0  0  0  0  0  0  0  0  0  0  0
   38.8010   24.3500   42.0580 H   0  0  0  0  0  0  0  0  0  0  0  0
   42.9220   25.4870   43.1520 C   0  0  0  0  0  0  0  0  0  0  0  0
   43.3400   25.5700   41.8220 C   0  0  0  0  0  0  0  0  0  0  0  0
   42.3560   25.4790   40.8360 C   0  0  0  0  0  0  0  0  0  0  0  0
   41.0570   25.3160   41.1920 N   0  0  0  0  0  0  0  0  0  0  0  0
   40.6860   25.2380   42.5070 C   0  0  0  0  0  0  0  0  0  0  0  0
   41.6420   25.3280   43.4430 N   0  0  0  0  0  0  0  0  0  0  0  0
   43.6610   25.5550   43.9290 H   0  0  0  0  0  0  0  0  0  0  0  0
   44.3890   25.7020   41.5950 H   0  0  0  0  0  0  0  0  0  0  0  0
   42.6780   25.5440   39.8060 H   0  0  0  0  0  0  0  0  0  0  0  0
   35.9480   28.1610   40.7820 O   0  0  0  0  0  0  0  0  0  0  0  0
   35.0910   29.3350   38.6290 O   0  0  0  0  0  0  0  0  0  0  0  0
   36.2110   29.4130   39.6550 P   0  0  2  0  0  0  0  0  0  0  0  0
   37.6860   29.1240   38.9080 O   0  0  0  0  0  0  0  0  0  0  0  0
   38.3580   29.7970   39.1270 H   0  0  0  0  0  0  0  0  0  0  0  0
   36.1690   30.9330   40.3720 O   0  0  0  0  0  0  0  0  0  0  0  0
   36.0440   33.6440   40.0020 H   0  0  0  0  0  0  0  0  0  0  0  0
   36.9590   33.1510   40.1690 N   0  0  0  0  0  0  0  0  0  0  0  0
   37.2290   31.8290   40.3730 C   0  0  0  0  0  0  0  0  0  0  0  0
   38.5570   31.7060   40.5380 N   0  0  0  0  0  0  0  0  0  0  0  0
   39.1600   32.8990   40.4480 C   0  0  0  0  0  0  0  0  0  0  0  0
   40.4620   33.3450   40.5360 C   0  0  0  0  0  0  0  0  0  0  0  0
   41.1970   32.5820   40.7180 H   0  0  0  0  0  0  0  0  0  0  0  0
   40.7710   34.6500   40.3990 N   0  0  0  0  0  0  0  0  0  0  0  0
   39.7500   35.5270   40.1690 C   0  0  0  0  0  0  0  0  0  0  0  0
   40.0640   36.5620   40.0680 H   0  0  0  0  0  0  0  0  0  0  0  0
   38.4620   35.1190   40.0780 N   0  0  0  0  0  0  0  0  0  0  0  0
   38.1300   33.8160   40.2120 C   0  0  0  0  0  0  0  0  0  0  0  0
  1  2  1  0  0  0  0
  2  7  2  0  0  0  0
  2  3  1  0  0  0  0
  3 11  1  0  0  0  0
  3  4  2  0  0  0  0
  4  5  1  0  0  0  0
  4  8  1  0  0  0  0
  5  9  1  0  0  0  0
  6  5  2  0  0  0  0
  7  6  1  0  0  0  0
 10  6  1  0  0  0  0
 11 12  1  0  0  0  0
 13 11  1  0  0  0  0
 14 19  1  0  0  0  0
 14 20  1  0  0  0  0
 15 14  2  0  0  0  0
 16 17  2  0  0  0  0
 16 15  1  0  0  0  0
 17 18  1  0  0  0  0
 18 11  1  0  0  0  0
 18 19  2  0  0  0  0
 21 15  1  0  0  0  0
 22 16  1  0  0  0  0
 23  7  1  0  0  0  0
 25 24  2  6  0  0  0
 25 28  1  0  0  0  0
 25 23  1  0  0  0  0
 26 27  1  0  0  0  0
 26 25  1  0  0  0  0
 28 31  1  0  0  0  0
 29 30  1  0  0  0  0
 30 40  1  0  0  0  0
 30 31  1  0  0  0  0
 31 32  2  0  0  0  0
 33 34  1  0  0  0  0
 33 32  1  0  0  0  0
 34 35  1  0  0  0  0
 36 34  2  0  0  0  0
 37 36  1  0  0  0  0
 38 37  1  0  0  0  0
 39 37  2  0  0  0  0
 39 40  1  0  0  0  0
 40 33  2  0  0  0  0
M  END
>  <minimizedAffinity>
-6.49164534

$$$$

 OpenBabel03252502573D

 40 43  0  0  0  0  0  0  0  0999 V2000
   39.2740   27.6590   39.6410 Br  0  0  0  0  0  0  0  0  0  0  0  0
   38.3780   27.6740   41.3470 C   0  0  0  0  0  0  0  0  0  0  0  0
   39.1780   27.6060   42.4580 C   0  0  0  0  0  0  0  0  0  0  0  0
   38.5000   27.6190   43.6810 C   0  0  0  0  0  0  0  0  0  0  0  0
   37.1290   27.6930   43.7720 C   0  0  0  0  0  0  0  0  0  0  0  0
   36.3880   27.7580   42.6220 C   0  0  0  0  0  0  0  0  0  0  0  0
   36.9950   27.7490   41.3940 C   0  0  0  0  0  0  0  0  0  0  0  0
   39.0580   27.5690   44.6030 H   0  0  0  0  0  0  0  0  0  0  0  0
   36.6200   27.7010   44.7280 H   0  0  0  0  0  0  0  0  0  0  0  0
   35.3080   27.8170   42.6230 H   0  0  0  0  0  0  0  0  0  0  0  0
   40.6360   27.5260   42.4820 C   0  0  0  0  0  0  0  0  0  0  0  0
   40.9410   26.7600   43.2320 H   0  0  0  0  0  0  0  0  0  0  0  0
   40.9750   27.1700   41.4810 H   0  0  0  0  0  0  0  0  0  0  0  0
   41.4550   31.1520   42.7330 C   0  0  0  0  0  0  0  0  0  0  0  0
   42.6650   31.1360   43.4310 C   0  0  0  0  0  0  0  0  0  0  0  0
   43.1730   29.8900   43.7990 C   0  0  0  0  0  0  0  0  0  0  0  0
   42.4940   28.7610   43.4760 N   0  0  0  0  0  0  0  0  0  0  0  0
   41.3100   28.8170   42.7910 C   0  0  0  0  0  0  0  0  0  0  0  0
   40.8340   30.0210   42.4440 N   0  0  0  0  0  0  0  0  0  0  0  0
   41.0430   32.1000   42.4390 H   0  0  0  0  0  0  0  0  0  0  0  0
   43.1660   32.0670   43.6620 H   0  0  0  0  0  0  0  0  0  0  0  0
   44.1110   29.8760   44.3390 H   0  0  0  0  0  0  0  0  0  0  0  0
   36.2350   27.8140   40.2290 O   0  0  0  0  0  0  0  0  0  0  0  0
   34.1120   29.1530   39.5580 O   0  0  0  0  0  0  0  0  0  0  0  0
   35.6270   29.2780   39.6000 P   0  0  2  0  0  0  0  0  0  0  0  0
   36.2260   29.4500   38.0410 O   0  0  0  0  0  0  0  0  0  0  0  0
   36.8460   30.1980   37.9560 H   0  0  0  0  0  0  0  0  0  0  0  0
   36.0240   30.5970   40.5630 O   0  0  0  0  0  0  0  0  0  0  0  0
   36.0850   33.3270   40.7790 H   0  0  0  0  0  0  0  0  0  0  0  0
   36.9380   32.7760   40.5010 N   0  0  0  0  0  0  0  0  0  0  0  0
   37.1110   31.4320   40.3400 C   0  0  0  0  0  0  0  0  0  0  0  0
   38.3880   31.2280   39.9770 N   0  0  0  0  0  0  0  0  0  0  0  0
   39.0520   32.3880   39.8950 C   0  0  0  0  0  0  0  0  0  0  0  0
   40.3420   32.7570   39.5780 C   0  0  0  0  0  0  0  0  0  0  0  0
   41.0020   31.9450   39.3300 H   0  0  0  0  0  0  0  0  0  0  0  0
   40.7280   34.0480   39.5830 N   0  0  0  0  0  0  0  0  0  0  0  0
   39.7990   34.9910   39.9150 C   0  0  0  0  0  0  0  0  0  0  0  0
   40.1710   36.0110   39.9000 H   0  0  0  0  0  0  0  0  0  0  0  0
   38.5240   34.6600   40.2310 N   0  0  0  0  0  0  0  0  0  0  0  0
   38.1150   33.3730   40.2320 C   0  0  0  0  0  0  0  0  0  0  0  0
  1  2  1  0  0  0  0
  2  7  2  0  0  0  0
  2  3  1  0  0  0  0
  3 11  1  0  0  0  0
  3  4  2  0  0  0  0
  4  5  1  0  0  0  0
  4  8  1  0  0  0  0
  5  9  1  0  0  0  0
  6 10  1  0  0  0  0
  6  5  2  0  0  0  0
  7  6  1  0  0  0  0
 11 18  1  0  0  0  0
 11 12  1  0  0  0  0
 13 11  1  0  0  0  0
 14 15  1  0  0  0  0
 15 21  1  0  0  0  0
 15 16  2  0  0  0  0
 16 22  1  0  0  0  0
 17 16  1  0  0  0  0
 18 17  2  0  0  0  0
 19 14  2  0  0  0  0
 19 18  1  0  0  0  0
 20 14  1  0  0  0  0
 23  7  1  0  0  0  0
 25 24  2  6  0  0  0
 25 23  1  0  0  0  0
 25 28  1  0  0  0  0
 26 25  1  0  0  0  0
 27 26  1  0  0  0  0
 30 29  1  0  0  0  0
 31 30  1  0  0  0  0
 31 28  1  0  0  0  0
 32 31  2  0  0  0  0
 33 32  1  0  0  0  0
 33 40  1  0  0  0  0
 34 36  1  0  0  0  0
 34 33  2  0  0  0  0
 35 34  1  0  0  0  0
 36 37  2  0  0  0  0
 37 39  1  0  0  0  0
 38 37  1  0  0  0  0
 39 40  2  0  0  0  0
 40 30  1  0  0  0  0
M  END
>  <minimizedAffinity>
-6.43107605

$$$$

 OpenBabel03252502573D

 40 43  0  0  0  0  0  0  0  0999 V2000
   39.0670   29.5420   42.9690 Br  0  0  0  0  0  0  0  0  0  0  0  0
   37.5430   29.5710   41.7910 C   0  0  0  0  0  0  0  0  0  0  0  0
   36.7210   28.4740   41.8270 C   0  0  0  0  0  0  0  0  0  0  0  0
   35.6240   28.5250   40.9620 C   0  0  0  0  0  0  0  0  0  0  0  0
   35.3780   29.5930   40.1310 C   0  0  0  0  0  0  0  0  0  0  0  0
   36.2400   30.6590   40.1440 C   0  0  0  0  0  0  0  0  0  0  0  0
   37.3330   30.6670   40.9700 C   0  0  0  0  0  0  0  0  0  0  0  0
   34.9290   27.7000   40.9300 H   0  0  0  0  0  0  0  0  0  0  0  0
   34.5230   29.6160   39.4670 H   0  0  0  0  0  0  0  0  0  0  0  0
   36.1060   31.5290   39.5160 H   0  0  0  0  0  0  0  0  0  0  0  0
   36.8820   27.2890   42.6650 C   0  0  0  0  0  0  0  0  0  0  0  0
   37.5620   27.5390   43.5120 H   0  0  0  0  0  0  0  0  0  0  0  0
   35.8850   27.0380   43.0970 H   0  0  0  0  0  0  0  0  0  0  0  0
   37.3810   23.8320   41.3700 C   0  0  0  0  0  0  0  0  0  0  0  0
   38.4920   23.9830   40.5380 C   0  0  0  0  0  0  0  0  0  0  0  0
   39.0460   25.2600   40.4370 C   0  0  0  0  0  0  0  0  0  0  0  0
   38.5010   26.2890   41.1350 N   0  0  0  0  0  0  0  0  0  0  0  0
   37.4100   26.1010   41.9400 C   0  0  0  0  0  0  0  0  0  0  0  0
   36.8900   24.8690   42.0260 N   0  0  0  0  0  0  0  0  0  0  0  0
   36.9370   22.8580   41.4630 H   0  0  0  0  0  0  0  0  0  0  0  0
   38.8870   23.1280   40.0050 H   0  0  0  0  0  0  0  0  0  0  0  0
   39.9070   25.3790   39.7940 H   0  0  0  0  0  0  0  0  0  0  0  0
   38.2050   31.7540   40.9770 O   0  0  0  0  0  0  0  0  0  0  0  0
   39.4490   33.8160   40.0040 O   0  0  0  0  0  0  0  0  0  0  0  0
   38.2680   32.9000   39.7170 P   0  0  2  0  0  0  0  0  0  0  0  0
   36.8410   33.7830   39.7590 O   0  0  0  0  0  0  0  0  0  0  0  0
   36.2790   33.6280   38.9770 H   0  0  0  0  0  0  0  0  0  0  0  0
   38.5060   32.1820   38.2160 O   0  0  0  0  0  0  0  0  0  0  0  0
   39.1520   29.5650   37.7280 H   0  0  0  0  0  0  0  0  0  0  0  0
   39.8490   30.3420   37.5850 N   0  0  0  0  0  0  0  0  0  0  0  0
   39.7240   31.6880   37.7670 C   0  0  0  0  0  0  0  0  0  0  0  0
   40.9000   32.2530   37.4450 N   0  0  0  0  0  0  0  0  0  0  0  0
   41.7840   31.3240   37.0590 C   0  0  0  0  0  0  0  0  0  0  0  0
   43.0960   31.3390   36.6330 C   0  0  0  0  0  0  0  0  0  0  0  0
   43.5510   32.3120   36.5890 H   0  0  0  0  0  0  0  0  0  0  0  0
   43.7430   30.2050   36.3020 N   0  0  0  0  0  0  0  0  0  0  0  0
   43.0590   29.0270   36.4000 C   0  0  0  0  0  0  0  0  0  0  0  0
   43.6350   28.1500   36.1200 H   0  0  0  0  0  0  0  0  0  0  0  0
   41.7700   28.9800   36.8150 N   0  0  0  0  0  0  0  0  0  0  0  0
   41.1030   30.1050   37.1520 C   0  0  0  0  0  0  0  0  0  0  0  0
  2  3  1  0  0  0  0
  2  1  1  0  0  0  0
  3 11  1  0  0  0  0
  4  3  2  0  0  0  0
  5  6  2  0  0  0  0
  5  4  1  0  0  0  0
  6  7  1  0  0  0  0
  7 23  1  0  0  0  0
  7  2  2  0  0  0  0
  8  4  1  0  0  0  0
  9  5  1  0  0  0  0
 10  6  1  0  0  0  0
 11 13  1  0  0  0  0
 11 12  1  0  0  0  0
 14 20  1  0  0  0  0
 14 19  1  0  0  0  0
 15 14  2  0  0  0  0
 16 15  1  0  0  0  0
 16 17  2  0  0  0  0
 17 18  1  0  0  0  0
 18 19  2  0  0  0  0
 18 11  1  0  0  0  0
 21 15  1  0  0  0  0
 22 16  1  0  0  0  0
 25 26  1  0  0  0  0
 25 24  2  1  0  0  0
 25 23  1  0  0  0  0
 27 26  1  0  0  0  0
 28 25  1  0  0  0  0
 30 29  1  0  0  0  0
 30 31  1  0  0  0  0
 31 28  1  0  0  0  0
 32 31  2  0  0  0  0
 33 40  1  0  0  0  0
 33 32  1  0  0  0  0
 34 33  2  0  0  0  0
 35 34  1  0  0  0  0
 36 37  2  0  0  0  0
 36 34  1  0  0  0  0
 37 39  1  0  0  0  0
 38 37  1  0  0  0  0
 39 40  2  0  0  0  0
 40 30  1  0  0  0  0
M  END
>  <minimizedAffinity>
-6.32825565

$$$$

 OpenBabel03252502573D

 40 43  0  0  0  0  0  0  0  0999 V2000
   40.0430   29.3430   41.2680 Br  0  0  0  0  0  0  0  0  0  0  0  0
   38.1440   29.3390   40.9450 C   0  0  0  0  0  0  0  0  0  0  0  0
   37.4190   28.3570   41.5710 C   0  0  0  0  0  0  0  0  0  0  0  0
   36.0450   28.3800   41.3180 C   0  0  0  0  0  0  0  0  0  0  0  0
   35.4520   29.3160   40.5020 C   0  0  0  0  0  0  0  0  0  0  0  0
   36.2340   30.2710   39.9070 C   0  0  0  0  0  0  0  0  0  0  0  0
   37.5880   30.3000   40.1160 C   0  0  0  0  0  0  0  0  0  0  0  0
   35.4050   27.6400   41.7720 H   0  0  0  0  0  0  0  0  0  0  0  0
   34.3850   29.3190   40.3170 H   0  0  0  0  0  0  0  0  0  0  0  0
   35.8330   31.0350   39.2550 H   0  0  0  0  0  0  0  0  0  0  0  0
   37.9390   27.3170   42.4540 C   0  0  0  0  0  0  0  0  0  0  0  0
   38.9410   27.6300   42.8270 H   0  0  0  0  0  0  0  0  0  0  0  0
   37.2590   27.2460   43.3350 H   0  0  0  0  0  0  0  0  0  0  0  0
   37.2950   23.7950   41.4230 C   0  0  0  0  0  0  0  0  0  0  0  0
   38.3660   23.5350   40.5640 C   0  0  0  0  0  0  0  0  0  0  0  0
   39.2830   24.5670   40.3580 C   0  0  0  0  0  0  0  0  0  0  0  0
   39.1100   25.7590   40.9820 N   0  0  0  0  0  0  0  0  0  0  0  0
   38.0460   25.9760   41.8150 C   0  0  0  0  0  0  0  0  0  0  0  0
   37.1740   24.9760   42.0040 N   0  0  0  0  0  0  0  0  0  0  0  0
   36.5750   23.0160   41.5970 H   0  0  0  0  0  0  0  0  0  0  0  0
   38.4570   22.5660   40.0940 H   0  0  0  0  0  0  0  0  0  0  0  0
   40.1140   24.3670   39.6940 H   0  0  0  0  0  0  0  0  0  0  0  0
   38.3760   31.2740   39.5080 O   0  0  0  0  0  0  0  0  0  0  0  0
   38.9020   32.7460   41.5830 O   0  0  0  0  0  0  0  0  0  0  0  0
   38.5220   32.8610   40.1150 P   0  0  2  0  0  0  0  0  0  0  0  0
   37.0210   33.6000   39.9730 O   0  0  0  0  0  0  0  0  0  0  0  0
   37.0210   34.3320   39.3280 H   0  0  0  0  0  0  0  0  0  0  0  0
   39.7180   33.7360   39.3230 O   0  0  0  0  0  0  0  0  0  0  0  0
   40.2930   35.3670   41.4480 H   0  0  0  0  0  0  0  0  0  0  0  0
   41.0500   34.8560   40.9230 N   0  0  0  0  0  0  0  0  0  0  0  0
   40.9710   34.0100   39.8550 C   0  0  0  0  0  0  0  0  0  0  0  0
   42.2210   33.6180   39.5540 N   0  0  0  0  0  0  0  0  0  0  0  0
   43.1090   34.1780   40.3860 C   0  0  0  0  0  0  0  0  0  0  0  0
   44.4790   34.1280   40.5320 C   0  0  0  0  0  0  0  0  0  0  0  0
   44.9920   33.5010   39.8250 H   0  0  0  0  0  0  0  0  0  0  0  0
   45.1120   34.8240   41.4970 N   0  0  0  0  0  0  0  0  0  0  0  0
   44.3520   35.5880   42.3360 C   0  0  0  0  0  0  0  0  0  0  0  0
   44.9200   36.1240   43.0910 H   0  0  0  0  0  0  0  0  0  0  0  0
   43.0040   35.6570   42.2180 N   0  0  0  0  0  0  0  0  0  0  0  0
   42.3500   34.9680   41.2580 C   0  0  0  0  0  0  0  0  0  0  0  0
  2  1  1  0  0  0  0
  2  3  1  0  0  0  0
  3 11  1  0  0  0  0
  4  3  2  0  0  0  0
  4  8  1  0  0  0  0
  5  4  1  0  0  0  0
  6  7  1  0  0  0  0
  6  5  2  0  0  0  0
  7  2  2  0  0  0  0
  9  5  1  0  0  0  0
 10  6  1  0  0  0  0
 11 12  1  0  0  0  0
 11 13  1  0  0  0  0
 14 20  1  0  0  0  0
 14 19  1  0  0  0  0
 15 14  2  0  0  0  0
 16 15  1  0  0  0  0
 16 17  2  0  0  0  0
 17 18  1  0  0  0  0
 18 19  2  0  0  0  0
 18 11  1  0  0  0  0
 21 15  1  0  0  0  0
 22 16  1  0  0  0  0
 23 25  1  0  0  0  0
 23  7  1  0  0  0  0
 25 24  2  1  0  0  0
 26 25  1  0  0  0  0
 27 26  1  0  0  0  0
 28 31  1  0  0  0  0
 28 25  1  0  0  0  0
 30 40  1  0  0  0  0
 30 29  1  0  0  0  0
 31 30  1  0  0  0  0
 32 31  2  0  0  0  0
 32 33  1  0  0  0  0
 33 34  2  0  0  0  0
 33 40  1  0  0  0  0
 34 36  1  0  0  0  0
 35 34  1  0  0  0  0
 36 37  2  0  0  0  0
 37 38  1  0  0  0  0
 39 37  1  0  0  0  0
 40 39  2  0  0  0  0
M  END
>  <minimizedAffinity>
-6.28834248

$$$$

 OpenBabel03252502573D

 40 43  0  0  0  0  0  0  0  0999 V2000
   39.8110   29.5850   40.9150 Br  0  0  0  0  0  0  0  0  0  0  0  0
   37.9500   29.3440   40.4780 C   0  0  0  0  0  0  0  0  0  0  0  0
   37.1480   28.8480   41.4740 C   0  0  0  0  0  0  0  0  0  0  0  0
   35.8040   28.6840   41.1270 C   0  0  0  0  0  0  0  0  0  0  0  0
   35.3120   28.9950   39.8810 C   0  0  0  0  0  0  0  0  0  0  0  0
   36.1680   29.4870   38.9300 C   0  0  0  0  0  0  0  0  0  0  0  0
   37.4970   29.6690   39.2100 C   0  0  0  0  0  0  0  0  0  0  0  0
   35.1070   28.2990   41.8550 H   0  0  0  0  0  0  0  0  0  0  0  0
   34.2670   28.8620   39.6290 H   0  0  0  0  0  0  0  0  0  0  0  0
   35.8470   29.7500   37.9320 H   0  0  0  0  0  0  0  0  0  0  0  0
   37.5580   28.4860   42.8270 C   0  0  0  0  0  0  0  0  0  0  0  0
   38.2170   29.2900   43.2300 H   0  0  0  0  0  0  0  0  0  0  0  0
   36.6440   28.4500   43.4640 H   0  0  0  0  0  0  0  0  0  0  0  0
   39.9980   25.8000   43.6720 C   0  0  0  0  0  0  0  0  0  0  0  0
   39.4700   24.6960   42.9990 C   0  0  0  0  0  0  0  0  0  0  0  0
   38.2950   24.8930   42.2720 C   0  0  0  0  0  0  0  0  0  0  0  0
   37.7180   26.1200   42.2430 N   0  0  0  0  0  0  0  0  0  0  0  0
   38.2640   27.1780   42.9170 C   0  0  0  0  0  0  0  0  0  0  0  0
   39.3930   26.9730   43.6110 N   0  0  0  0  0  0  0  0  0  0  0  0
   40.9020   25.6720   44.2390 H   0  0  0  0  0  0  0  0  0  0  0  0
   39.9730   23.7400   43.0550 H   0  0  0  0  0  0  0  0  0  0  0  0
   37.8860   24.0390   41.7490 H   0  0  0  0  0  0  0  0  0  0  0  0
   38.3610   30.1690   38.2390 O   0  0  0  0  0  0  0  0  0  0  0  0
   37.5240   32.5720   38.7640 O   0  0  0  0  0  0  0  0  0  0  0  0
   38.6060   31.8380   37.9870 P   0  0  2  0  0  0  0  0  0  0  0  0
   38.4290   32.1370   36.3450 O   0  0  0  0  0  0  0  0  0  0  0  0
   39.2620   32.4120   35.9190 H   0  0  0  0  0  0  0  0  0  0  0  0
   40.1040   32.3520   38.5500 O   0  0  0  0  0  0  0  0  0  0  0  0
   40.5480   30.5190   36.5630 H   0  0  0  0  0  0  0  0  0  0  0  0
   41.3310   31.0970   36.9660 N   0  0  0  0  0  0  0  0  0  0  0  0
   41.3160   32.0480   37.9440 C   0  0  0  0  0  0  0  0  0  0  0  0
   42.5740   32.4940   38.0960 N   0  0  0  0  0  0  0  0  0  0  0  0
   43.4070   31.8690   37.2530 C   0  0  0  0  0  0  0  0  0  0  0  0
   44.7580   31.9300   36.9870 C   0  0  0  0  0  0  0  0  0  0  0  0
   45.3090   32.6380   37.5790 H   0  0  0  0  0  0  0  0  0  0  0  0
   45.3280   31.1490   36.0480 N   0  0  0  0  0  0  0  0  0  0  0  0
   44.5240   30.2870   35.3590 C   0  0  0  0  0  0  0  0  0  0  0  0
   45.0430   29.6870   34.6180 H   0  0  0  0  0  0  0  0  0  0  0  0
   43.1940   30.2040   35.5980 N   0  0  0  0  0  0  0  0  0  0  0  0
   42.6010   30.9770   36.5350 C   0  0  0  0  0  0  0  0  0  0  0  0
  2  1  1  0  0  0  0
  2  3  1  0  0  0  0
  3 11  1  0  0  0  0
  4  3  2  0  0  0  0
  4  8  1  0  0  0  0
  5  4  1  0  0  0  0
  6  7  1  0  0  0  0
  6  5  2  0  0  0  0
  7  2  2  0  0  0  0
  9  5  1  0  0  0  0
 10  6  1  0  0  0  0
 11 18  1  0  0  0  0
 11 12  1  0  0  0  0
 11 13  1  0  0  0  0
 14 20  1  0  0  0  0
 15 21  1  0  0  0  0
 15 14  2  0  0  0  0
 16 15  1  0  0  0  0
 17 16  2  0  0  0  0
 17 18  1  0  0  0  0
 18 19  2  0  0  0  0
 19 14  1  0  0  0  0
 22 16  1  0  0  0  0
 23  7  1  0  0  0  0
 25 23  1  0  0  0  0
 25 28  1  0  0  0  0
 25 24  2  1  0  0  0
 26 25  1  0  0  0  0
 27 26  1  0  0  0  0
 29 30  1  0  0  0  0
 30 31  1  0  0  0  0
 31 32  2  0  0  0  0
 31 28  1  0  0  0  0
 33 32  1  0  0  0  0
 34 33  1  0  0  0  0
 34 35  1  0  0  0  0
 36 34  2  0  0  0  0
 37 39  2  0  0  0  0
 37 36  1  0  0  0  0
 38 37  1  0  0  0  0
 39 40  1  0  0  0  0
 40 30  1  0  0  0  0
 40 33  2  0  0  0  0
M  END
>  <minimizedAffinity>
-6.27588558

$$$$

 OpenBabel03252502573D

 40 43  0  0  0  0  0  0  0  0999 V2000
   37.7080   26.3690   37.8680 Br  0  0  0  0  0  0  0  0  0  0  0  0
   37.4070   26.0600   39.7450 C   0  0  0  0  0  0  0  0  0  0  0  0
   37.3330   24.7500   40.1450 C   0  0  0  0  0  0  0  0  0  0  0  0
   37.1140   24.5570   41.5120 C   0  0  0  0  0  0  0  0  0  0  0  0
   36.9820   25.6000   42.4000 C   0  0  0  0  0  0  0  0  0  0  0  0
   37.0660   26.8860   41.9350 C   0  0  0  0  0  0  0  0  0  0  0  0
   37.2790   27.1390   40.6050 C   0  0  0  0  0  0  0  0  0  0  0  0
   37.0430   23.5560   41.9070 H   0  0  0  0  0  0  0  0  0  0  0  0
   36.8120   25.4320   43.4570 H   0  0  0  0  0  0  0  0  0  0  0  0
   36.9710   27.7500   42.5780 H   0  0  0  0  0  0  0  0  0  0  0  0
   37.4580   23.5690   39.2960 C   0  0  0  0  0  0  0  0  0  0  0  0
   37.8850   23.8770   38.3130 H   0  0  0  0  0  0  0  0  0  0  0  0
   38.1880   22.8780   39.7770 H   0  0  0  0  0  0  0  0  0  0  0  0
   34.9070   20.8920   38.8430 C   0  0  0  0  0  0  0  0  0  0  0  0
   33.7350   21.6270   38.6480 C   0  0  0  0  0  0  0  0  0  0  0  0
   33.8420   23.0180   38.6740 C   0  0  0  0  0  0  0  0  0  0  0  0
   35.0510   23.5980   38.8830 N   0  0  0  0  0  0  0  0  0  0  0  0
   36.1770   22.8440   39.0720 C   0  0  0  0  0  0  0  0  0  0  0  0
   36.0590   21.5090   39.0440 N   0  0  0  0  0  0  0  0  0  0  0  0
   34.8490   19.8190   38.8280 H   0  0  0  0  0  0  0  0  0  0  0  0
   32.7980   21.1130   38.4840 H   0  0  0  0  0  0  0  0  0  0  0  0
   32.9360   23.5890   38.5220 H   0  0  0  0  0  0  0  0  0  0  0  0
   37.3640   28.4480   40.1390 O   0  0  0  0  0  0  0  0  0  0  0  0
   36.9240   30.0870   42.1060 O   0  0  0  0  0  0  0  0  0  0  0  0
   36.3840   29.7100   40.7350 P   0  0  2  0  0  0  0  0  0  0  0  0
   34.8210   29.1140   40.8850 O   0  0  0  0  0  0  0  0  0  0  0  0
   34.1970   29.5330   40.2640 H   0  0  0  0  0  0  0  0  0  0  0  0
   36.4330   31.0710   39.7510 O   0  0  0  0  0  0  0  0  0  0  0  0
   36.3890   33.6600   40.6480 H   0  0  0  0  0  0  0  0  0  0  0  0
   37.2560   33.2360   40.2250 N   0  0  0  0  0  0  0  0  0  0  0  0
   37.4790   31.9850   39.7290 C   0  0  0  0  0  0  0  0  0  0  0  0
   38.7530   31.9370   39.3060 N   0  0  0  0  0  0  0  0  0  0  0  0
   39.3670   33.1100   39.5080 C   0  0  0  0  0  0  0  0  0  0  0  0
   40.6320   33.6060   39.2730 C   0  0  0  0  0  0  0  0  0  0  0  0
   41.3170   32.9140   38.8190 H   0  0  0  0  0  0  0  0  0  0  0  0
   40.9650   34.8710   39.5980 N   0  0  0  0  0  0  0  0  0  0  0  0
   40.0070   35.6570   40.1710 C   0  0  0  0  0  0  0  0  0  0  0  0
   40.3380   36.6640   40.4080 H   0  0  0  0  0  0  0  0  0  0  0  0
   38.7560   35.1990   40.4140 N   0  0  0  0  0  0  0  0  0  0  0  0
   38.4000   33.9350   40.0970 C   0  0  0  0  0  0  0  0  0  0  0  0
  1  2  1  0  0  0  0
  2  3  2  0  0  0  0
  2  7  1  0  0  0  0
  3  4  1  0  0  0  0
  4  8  1  0  0  0  0
  4  5  2  0  0  0  0
  5  9  1  0  0  0  0
  6  5  1  0  0  0  0
  6 10  1  0  0  0  0
  7  6  2  0  0  0  0
 11 13  1  0  0  0  0
 11  3  1  0  0  0  0
 12 11  1  0  0  0  0
 14 19  1  0  0  0  0
 15 16  1  0  0  0  0
 15 14  2  0  0  0  0
 16 17  2  0  0  0  0
 17 18  1  0  0  0  0
 18 11  1  0  0  0  0
 19 18  2  0  0  0  0
 20 14  1  0  0  0  0
 21 15  1  0  0  0  0
 22 16  1  0  0  0  0
 23  7  1  0  0  0  0
 23 25  1  0  0  0  0
 25 26  1  0  0  0  0
 25 24  2  1  0  0  0
 27 26  1  0  0  0  0
 28 25  1  0  0  0  0
 30 29  1  0  0  0  0
 31 28  1  0  0  0  0
 31 30  1  0  0  0  0
 32 33  1  0  0  0  0
 32 31  2  0  0  0  0
 33 40  1  0  0  0  0
 34 33  2  0  0  0  0
 34 36  1  0  0  0  0
 35 34  1  0  0  0  0
 36 37  2  0  0  0  0
 37 38  1  0  0  0  0
 37 39  1  0  0  0  0
 40 30  1  0  0  0  0
 40 39  2  0  0  0  0
M  END
>  <minimizedAffinity>
-6.15971136

$$$$

 OpenBabel03252502573D

 40 43  0  0  0  0  0  0  0  0999 V2000
   35.7330   28.8670   40.8540 Br  0  0  0  0  0  0  0  0  0  0  0  0
   37.3390   29.8120   41.3460 C   0  0  0  0  0  0  0  0  0  0  0  0
   37.9580   29.4040   42.4990 C   0  0  0  0  0  0  0  0  0  0  0  0
   39.1200   30.1070   42.8300 C   0  0  0  0  0  0  0  0  0  0  0  0
   39.6140   31.1350   42.0600 C   0  0  0  0  0  0  0  0  0  0  0  0
   38.9460   31.4930   40.9190 C   0  0  0  0  0  0  0  0  0  0  0  0
   37.8010   30.8420   40.5420 C   0  0  0  0  0  0  0  0  0  0  0  0
   39.6670   29.8480   43.7230 H   0  0  0  0  0  0  0  0  0  0  0  0
   40.5160   31.6700   42.3320 H   0  0  0  0  0  0  0  0  0  0  0  0
   39.2790   32.2920   40.2700 H   0  0  0  0  0  0  0  0  0  0  0  0
   37.5270   28.3310   43.3900 C   0  0  0  0  0  0  0  0  0  0  0  0
   37.6000   28.6880   44.4440 H   0  0  0  0  0  0  0  0  0  0  0  0
   36.4520   28.1230   43.1800 H   0  0  0  0  0  0  0  0  0  0  0  0
   40.1020   25.6630   43.7540 C   0  0  0  0  0  0  0  0  0  0  0  0
   39.6480   24.6870   42.8660 C   0  0  0  0  0  0  0  0  0  0  0  0
   38.4740   24.9610   42.1620 C   0  0  0  0  0  0  0  0  0  0  0  0
   37.8280   26.1370   42.3590 N   0  0  0  0  0  0  0  0  0  0  0  0
   38.3040   27.0700   43.2400 C   0  0  0  0  0  0  0  0  0  0  0  0
   39.4330   26.7930   43.9080 N   0  0  0  0  0  0  0  0  0  0  0  0
   41.0040   25.4750   44.3080 H   0  0  0  0  0  0  0  0  0  0  0  0
   40.2030   23.7660   42.7460 H   0  0  0  0  0  0  0  0  0  0  0  0
   38.1210   24.2060   41.4720 H   0  0  0  0  0  0  0  0  0  0  0  0
   37.1270   31.2100   39.3810 O   0  0  0  0  0  0  0  0  0  0  0  0
   37.5620   31.8360   36.8970 O   0  0  0  0  0  0  0  0  0  0  0  0
   37.5630   30.6380   37.8350 P   0  0  2  0  0  0  0  0  0  0  0  0
   36.3910   29.5380   37.3500 O   0  0  0  0  0  0  0  0  0  0  0  0
   36.7330   28.6270   37.2850 H   0  0  0  0  0  0  0  0  0  0  0  0
   39.0970   29.9520   37.8200 O   0  0  0  0  0  0  0  0  0  0  0  0
   39.6310   32.4090   36.7320 H   0  0  0  0  0  0  0  0  0  0  0  0
   40.3490   31.8880   37.3000 N   0  0  0  0  0  0  0  0  0  0  0  0
   40.2790   30.6740   37.9180 C   0  0  0  0  0  0  0  0  0  0  0  0
   41.4620   30.4530   38.5150 N   0  0  0  0  0  0  0  0  0  0  0  0
   42.2990   31.4790   38.3100 C   0  0  0  0  0  0  0  0  0  0  0  0
   43.5940   31.7750   38.6790 C   0  0  0  0  0  0  0  0  0  0  0  0
   44.0820   31.0250   39.2760 H   0  0  0  0  0  0  0  0  0  0  0  0
   44.1880   32.9260   38.3090 N   0  0  0  0  0  0  0  0  0  0  0  0
   43.4650   33.8020   37.5500 C   0  0  0  0  0  0  0  0  0  0  0  0
   43.9990   34.7100   37.2840 H   0  0  0  0  0  0  0  0  0  0  0  0
   42.1920   33.5400   37.1710 N   0  0  0  0  0  0  0  0  0  0  0  0
   41.5770   32.3920   37.5310 C   0  0  0  0  0  0  0  0  0  0  0  0
  1  2  1  0  0  0  0
  2  3  1  0  0  0  0
  3  4  2  0  0  0  0
  3 11  1  0  0  0  0
  4  8  1  0  0  0  0
  5  9  1  0  0  0  0
  5  4  1  0  0  0  0
  6  5  2  0  0  0  0
  7  6  1  0  0  0  0
  7  2  2  0  0  0  0
 10  6  1  0  0  0  0
 11 12  1  0  0  0  0
 13 11  1  0  0  0  0
 14 19  1  0  0  0  0
 14 20  1  0  0  0  0
 15 14  2  0  0  0  0
 16 17  2  0  0  0  0
 16 15  1  0  0  0  0
 17 18  1  0  0  0  0
 18 11  1  0  0  0  0
 18 19  2  0  0  0  0
 21 15  1  0  0  0  0
 22 16  1  0  0  0  0
 23  7  1  0  0  0  0
 25 24  2  6  0  0  0
 25 23  1  0  0  0  0
 26 25  1  0  0  0  0
 27 26  1  0  0  0  0
 28 25  1  0  0  0  0
 28 31  1  0  0  0  0
 29 30  1  0  0  0  0
 30 40  1  0  0  0  0
 30 31  1  0  0  0  0
 31 32  2  0  0  0  0
 33 32  1  0  0  0  0
 33 34  1  0  0  0  0
 34 35  1  0  0  0  0
 36 34  2  0  0  0  0
 37 36  1  0  0  0  0
 38 37  1  0  0  0  0
 39 40  1  0  0  0  0
 39 37  2  0  0  0  0
 40 33  2  0  0  0  0
M  END
>  <minimizedAffinity>
-6.08865499

$$$$

 OpenBabel03252502573D

 40 43  0  0  0  0  0  0  0  0999 V2000
   39.0640   27.6330   38.3510 Br  0  0  0  0  0  0  0  0  0  0  0  0
   37.6040   28.4900   39.2710 C   0  0  0  0  0  0  0  0  0  0  0  0
   36.9980   27.7660   40.2650 C   0  0  0  0  0  0  0  0  0  0  0  0
   35.9430   28.4130   40.9140 C   0  0  0  0  0  0  0  0  0  0  0  0
   35.5350   29.6860   40.5860 C   0  0  0  0  0  0  0  0  0  0  0  0
   36.1840   30.3560   39.5820 C   0  0  0  0  0  0  0  0  0  0  0  0
   37.2250   29.7730   38.9080 C   0  0  0  0  0  0  0  0  0  0  0  0
   35.4140   27.9110   41.7080 H   0  0  0  0  0  0  0  0  0  0  0  0
   34.7160   30.1730   41.1000 H   0  0  0  0  0  0  0  0  0  0  0  0
   35.9140   31.3570   39.2750 H   0  0  0  0  0  0  0  0  0  0  0  0
   37.3450   26.4150   40.6960 C   0  0  0  0  0  0  0  0  0  0  0  0
   36.4140   25.8900   41.0150 H   0  0  0  0  0  0  0  0  0  0  0  0
   37.7540   25.8680   39.8150 H   0  0  0  0  0  0  0  0  0  0  0  0
   39.7070   25.2290   43.3220 C   0  0  0  0  0  0  0  0  0  0  0  0
   40.1910   26.4270   43.8510 C   0  0  0  0  0  0  0  0  0  0  0  0
   39.7000   27.6120   43.3000 C   0  0  0  0  0  0  0  0  0  0  0  0
   38.7910   27.5630   42.2940 N   0  0  0  0  0  0  0  0  0  0  0  0
   38.3420   26.3680   41.8020 C   0  0  0  0  0  0  0  0  0  0  0  0
   38.8210   25.2390   42.3410 N   0  0  0  0  0  0  0  0  0  0  0  0
   40.0700   24.3030   43.7300 H   0  0  0  0  0  0  0  0  0  0  0  0
   40.9140   26.4080   44.6550 H   0  0  0  0  0  0  0  0  0  0  0  0
   40.0730   28.5420   43.7100 H   0  0  0  0  0  0  0  0  0  0  0  0
   37.8800   30.4590   37.8890 O   0  0  0  0  0  0  0  0  0  0  0  0
   38.3900   32.7420   39.0200 O   0  0  0  0  0  0  0  0  0  0  0  0
   39.0560   31.6580   38.1850 P   0  0  2  0  0  0  0  0  0  0  0  0
   39.5220   32.2910   36.7010 O   0  0  0  0  0  0  0  0  0  0  0  0
   40.4480   32.0820   36.4770 H   0  0  0  0  0  0  0  0  0  0  0  0
   40.3710   31.0600   39.0420 O   0  0  0  0  0  0  0  0  0  0  0  0
   40.5550   33.7920   39.1270 H   0  0  0  0  0  0  0  0  0  0  0  0
   41.1210   33.1800   39.7710 N   0  0  0  0  0  0  0  0  0  0  0  0
   41.1710   31.8210   39.8850 C   0  0  0  0  0  0  0  0  0  0  0  0
   42.0490   31.5270   40.8580 N   0  0  0  0  0  0  0  0  0  0  0  0
   42.5720   32.6430   41.3820 C   0  0  0  0  0  0  0  0  0  0  0  0
   43.4890   32.9230   42.3730 C   0  0  0  0  0  0  0  0  0  0  0  0
   43.9060   32.0630   42.8660 H   0  0  0  0  0  0  0  0  0  0  0  0
   43.8240   34.1900   42.6860 N   0  0  0  0  0  0  0  0  0  0  0  0
   43.2270   35.2000   41.9890 C   0  0  0  0  0  0  0  0  0  0  0  0
   43.5390   36.1960   42.2880 H   0  0  0  0  0  0  0  0  0  0  0  0
   42.3230   34.9570   41.0100 N   0  0  0  0  0  0  0  0  0  0  0  0
   41.9720   33.6950   40.6790 C   0  0  0  0  0  0  0  0  0  0  0  0
  1  2  1  0  0  0  0
  2  3  1  0  0  0  0
  3 11  1  0  0  0  0
  3  4  2  0  0  0  0
  4  8  1  0  0  0  0
  5  4  1  0  0  0  0
  5  9  1  0  0  0  0
  6  5  2  0  0  0  0
  7  2  2  0  0  0  0
  7  6  1  0  0  0  0
 10  6  1  0  0  0  0
 11 12  1  0  0  0  0
 11 18  1  0  0  0  0
 13 11  1  0  0  0  0
 14 20  1  0  0  0  0
 14 15  1  0  0  0  0
 15 21  1  0  0  0  0
 16 22  1  0  0  0  0
 16 15  2  0  0  0  0
 17 16  1  0  0  0  0
 18 17  2  0  0  0  0
 18 19  1  0  0  0  0
 19 14  2  0  0  0  0
 23 25  1  0  0  0  0
 23  7  1  0  0  0  0
 25 24  2  1  0  0  0
 25 28  1  0  0  0  0
 26 25  1  0  0  0  0
 27 26  1  0  0  0  0
 28 31  1  0  0  0  0
 29 30  1  0  0  0  0
 30 31  1  0  0  0  0
 30 40  1  0  0  0  0
 31 32  2  0  0  0  0
 32 33  1  0  0  0  0
 33 34  1  0  0  0  0
 34 36  2  0  0  0  0
 34 35  1  0  0  0  0
 37 38  1  0  0  0  0
 37 36  1  0  0  0  0
 39 37  2  0  0  0  0
 40 39  1  0  0  0  0
 40 33  2  0  0  0  0
M  END
>  <minimizedAffinity>
-5.98598194

$$$$
