
 OpenBabel03252500293D

 46 49  0  0  1  0  0  0  0  0999 V2000
   36.8740   29.0570   40.2170 O   0  0  0  0  0  0  0  0  0  0  0  0
   37.2590   30.2980   40.9440 P   0  0  1  0  0  0  0  0  0  0  0  0
   35.9190   31.3280   41.0540 O   0  0  0  0  0  0  0  0  0  0  0  0
   36.1650   32.2870   40.9230 H   0  0  0  0  0  0  0  0  0  0  0  0
   37.7380   29.8480   42.4560 O   0  0  0  0  0  0  0  0  0  0  0  0
   38.4670   27.7270   43.2790 C   0  0  2  0  0  0  0  0  0  0  0  0
   38.7050   28.8800   42.3770 C   0  0  2  0  0  0  0  0  0  0  0  0
   40.0340   29.3640   42.6740 C   0  0  0  0  0  0  0  0  0  0  0  0
   40.7630   28.3330   43.2800 O   0  0  0  0  0  0  0  0  0  0  0  0
   39.9680   27.2410   43.2400 C   0  0  0  0  0  0  0  0  0  0  0  0
   38.4690   27.9050   44.3680 H   0  0  0  0  0  0  0  0  0  0  0  0
   38.5280   28.4270   41.3560 H   0  0  0  0  0  0  0  0  0  0  0  0
   40.5600   29.3170   41.6550 H   0  0  0  0  0  0  0  0  0  0  0  0
   40.3030   30.3730   42.9030 H   0  0  0  0  0  0  0  0  0  0  0  0
   40.0200   26.7840   42.2100 H   0  0  0  0  0  0  0  0  0  0  0  0
   40.1310   26.4480   43.9660 H   0  0  0  0  0  0  0  0  0  0  0  0
   37.7000   26.7280   42.8030 O   0  0  0  0  0  0  0  0  0  0  0  0
   38.1460   25.6240   42.2600 C   0  0  0  0  0  0  0  0  0  0  0  0
   39.0820   25.1770   42.5290 H   0  0  0  0  0  0  0  0  0  0  0  0
   38.4310   25.9490   41.1320 H   0  0  0  0  0  0  0  0  0  0  0  0
   36.9490   24.7340   41.9420 C   0  0  0  0  0  0  0  0  0  0  0  0
   36.3260   25.1470   41.1500 H   0  0  0  0  0  0  0  0  0  0  0  0
   36.3370   24.6860   42.8870 H   0  0  0  0  0  0  0  0  0  0  0  0
   37.2710   23.6890   41.7540 H   0  0  0  0  0  0  0  0  0  0  0  0
   38.5250   30.9950   40.0300 O   0  0  0  0  0  0  0  0  0  0  0  0
   40.4080   34.0350   40.0290 C   0  0  0  0  0  0  0  0  0  0  0  0
   39.4270   35.0540   40.0940 C   0  0  0  0  0  0  0  0  0  0  0  0
   38.0730   34.6280   40.1390 C   0  0  0  0  0  0  0  0  0  0  0  0
   37.8140   33.3070   40.1170 N   0  0  0  0  0  0  0  0  0  0  0  0
   38.7850   32.3740   40.0540 C   0  0  0  0  0  0  0  0  0  0  0  0
   40.0680   32.7550   40.0100 N   0  0  0  0  0  0  0  0  0  0  0  0
   39.6330   36.1150   40.1130 H   0  0  0  0  0  0  0  0  0  0  0  0
   37.2810   35.3650   40.1910 H   0  0  0  0  0  0  0  0  0  0  0  0
   41.6980   34.4600   39.9860 O   0  0  0  0  0  0  0  0  0  0  0  0
   42.6100   32.2140   41.2810 H   0  0  0  0  0  0  0  0  0  0  0  0
   42.8930   33.1860   41.5420 N   0  0  0  0  0  0  0  0  0  0  0  0
   42.5800   34.4230   41.0560 C   0  0  0  0  0  0  0  0  0  0  0  0
   43.2440   35.3440   41.7810 N   0  0  0  0  0  0  0  0  0  0  0  0
   43.9850   34.7480   42.7280 C   0  0  0  0  0  0  0  0  0  0  0  0
   44.8290   35.2570   43.7050 C   0  0  0  0  0  0  0  0  0  0  0  0
   44.9490   36.3190   43.7590 H   0  0  0  0  0  0  0  0  0  0  0  0
   45.4480   34.3840   44.5290 N   0  0  0  0  0  0  0  0  0  0  0  0
   45.2320   33.0460   44.3810 C   0  0  0  0  0  0  0  0  0  0  0  0
   45.7450   32.3600   45.0590 H   0  0  0  0  0  0  0  0  0  0  0  0
   44.4070   32.5820   43.4240 N   0  0  0  0  0  0  0  0  0  0  0  0
   43.7500   33.3800   42.5610 C   0  0  0  0  0  0  0  0  0  0  0  0
  2  1  2  6  0  0  0
  2  3  1  0  0  0  0
  2  5  1  0  0  0  0
  4  3  1  0  0  0  0
  6 11  1  1  0  0  0
  7 12  1  6  0  0  0
  7  5  1  0  0  0  0
  7  8  1  0  0  0  0
  7  6  1  0  0  0  0
  8 14  1  0  0  0  0
  8  9  1  0  0  0  0
 10  6  1  0  0  0  0
 10  9  1  0  0  0  0
 10 16  1  0  0  0  0
 13  8  1  0  0  0  0
 15 10  1  0  0  0  0
 17  6  1  0  0  0  0
 18 19  1  0  0  0  0
 18 17  1  0  0  0  0
 20 18  1  0  0  0  0
 21 18  1  0  0  0  0
 21 23  1  0  0  0  0
 22 21  1  0  0  0  0
 24 21  1  0  0  0  0
 25 30  1  0  0  0  0
 25  2  1  0  0  0  0
 26 27  1  0  0  0  0
 27 32  1  0  0  0  0
 27 28  2  0  0  0  0
 28 33  1  0  0  0  0
 29 28  1  0  0  0  0
 30 29  2  0  0  0  0
 31 26  2  0  0  0  0
 31 30  1  0  0  0  0
 34 26  1  0  0  0  0
 34 37  1  0  0  0  0
 35 36  1  0  0  0  0
 36 46  1  0  0  0  0
 37 36  1  0  0  0  0
 37 38  2  0  0  0  0
 38 39  1  0  0  0  0
 39 40  1  0  0  0  0
 40 41  1  0  0  0  0
 40 42  2  0  0  0  0
 43 42  1  0  0  0  0
 43 44  1  0  0  0  0
 45 43  2  0  0  0  0
 46 39  2  0  0  0  0
 46 45  1  0  0  0  0
M  END
>  <minimizedAffinity>
-6.03473234

$$$$

 OpenBabel03252500293D

 46 49  0  0  1  0  0  0  0  0999 V2000
   37.1230   27.4030   42.2360 O   0  0  0  0  0  0  0  0  0  0  0  0
   37.9270   28.1980   43.2050 P   0  0  1  0  0  0  0  0  0  0  0  0
   36.8890   29.0920   44.2010 O   0  0  0  0  0  0  0  0  0  0  0  0
   37.2390   30.0090   44.3880 H   0  0  0  0  0  0  0  0  0  0  0  0
   38.7840   27.1260   44.1200 O   0  0  0  0  0  0  0  0  0  0  0  0
   39.7620   25.1640   43.1690 C   0  0  2  0  0  0  0  0  0  0  0  0
   39.8380   26.6270   43.4000 C   0  0  2  0  0  0  0  0  0  0  0  0
   41.1240   26.8790   44.0090 C   0  0  0  0  0  0  0  0  0  0  0  0
   41.9830   25.8160   43.7020 O   0  0  0  0  0  0  0  0  0  0  0  0
   41.3010   25.0200   42.8490 C   0  0  0  0  0  0  0  0  0  0  0  0
   39.8000   24.4940   44.0440 H   0  0  0  0  0  0  0  0  0  0  0  0
   39.6580   27.0440   42.3640 H   0  0  0  0  0  0  0  0  0  0  0  0
   41.6020   27.6440   43.2980 H   0  0  0  0  0  0  0  0  0  0  0  0
   41.3010   27.4260   44.9100 H   0  0  0  0  0  0  0  0  0  0  0  0
   41.3480   25.4640   41.8130 H   0  0  0  0  0  0  0  0  0  0  0  0
   41.5790   23.9720   42.7750 H   0  0  0  0  0  0  0  0  0  0  0  0
   39.0780   24.7520   42.0860 O   0  0  0  0  0  0  0  0  0  0  0  0
   38.0010   24.0100   42.1070 C   0  0  0  0  0  0  0  0  0  0  0  0
   37.4340   23.8270   42.9980 H   0  0  0  0  0  0  0  0  0  0  0  0
   38.4160   22.8880   41.9380 H   0  0  0  0  0  0  0  0  0  0  0  0
   37.2760   24.1840   40.7760 C   0  0  0  0  0  0  0  0  0  0  0  0
   37.8350   23.7590   39.9430 H   0  0  0  0  0  0  0  0  0  0  0  0
   37.1880   25.2950   40.6120 H   0  0  0  0  0  0  0  0  0  0  0  0
   36.2310   23.8180   40.8420 H   0  0  0  0  0  0  0  0  0  0  0  0
   38.9290   29.2080   42.2580 O   0  0  0  0  0  0  0  0  0  0  0  0
   38.8680   31.9470   39.9610 C   0  0  0  0  0  0  0  0  0  0  0  0
   37.5000   32.3030   39.8780 C   0  0  0  0  0  0  0  0  0  0  0  0
   36.5980   31.5390   40.6640 C   0  0  0  0  0  0  0  0  0  0  0  0
   37.0910   30.5440   41.4250 N   0  0  0  0  0  0  0  0  0  0  0  0
   38.4050   30.2430   41.4690 C   0  0  0  0  0  0  0  0  0  0  0  0
   39.2720   30.9520   40.7340 N   0  0  0  0  0  0  0  0  0  0  0  0
   37.1020   33.1030   39.2690 H   0  0  0  0  0  0  0  0  0  0  0  0
   35.5390   31.7690   40.6400 H   0  0  0  0  0  0  0  0  0  0  0  0
   39.7170   32.6880   39.2010 O   0  0  0  0  0  0  0  0  0  0  0  0
   40.3180   33.9740   41.5550 H   0  0  0  0  0  0  0  0  0  0  0  0
   41.0300   33.7420   40.8250 N   0  0  0  0  0  0  0  0  0  0  0  0
   40.9700   33.1240   39.6100 C   0  0  0  0  0  0  0  0  0  0  0  0
   42.2110   33.0920   39.0870 N   0  0  0  0  0  0  0  0  0  0  0  0
   43.0860   33.6720   39.9250 C   0  0  0  0  0  0  0  0  0  0  0  0
   44.4540   33.8820   39.8390 C   0  0  0  0  0  0  0  0  0  0  0  0
   44.9600   33.5360   38.9620 H   0  0  0  0  0  0  0  0  0  0  0  0
   45.0670   34.5070   40.8670 N   0  0  0  0  0  0  0  0  0  0  0  0
   44.3360   34.9110   41.9450 C   0  0  0  0  0  0  0  0  0  0  0  0
   44.8550   35.4150   42.7640 H   0  0  0  0  0  0  0  0  0  0  0  0
   43.0090   34.6930   41.9990 N   0  0  0  0  0  0  0  0  0  0  0  0
   42.3180   34.0770   41.0210 C   0  0  0  0  0  0  0  0  0  0  0  0
  2  1  2  6  0  0  0
  2  5  1  0  0  0  0
  2  3  1  0  0  0  0
  3  4  1  0  0  0  0
  6  7  1  0  0  0  0
  6 11  1  1  0  0  0
  7 12  1  6  0  0  0
  7  8  1  0  0  0  0
  7  5  1  0  0  0  0
  8 14  1  0  0  0  0
  9  8  1  0  0  0  0
 10  6  1  0  0  0  0
 10  9  1  0  0  0  0
 13  8  1  0  0  0  0
 15 10  1  0  0  0  0
 16 10  1  0  0  0  0
 17 18  1  0  0  0  0
 17  6  1  0  0  0  0
 18 19  1  0  0  0  0
 20 18  1  0  0  0  0
 21 24  1  0  0  0  0
 21 18  1  0  0  0  0
 22 21  1  0  0  0  0
 23 21  1  0  0  0  0
 25  2  1  0  0  0  0
 26 31  1  0  0  0  0
 27 26  2  0  0  0  0
 27 28  1  0  0  0  0
 28 29  2  0  0  0  0
 29 30  1  0  0  0  0
 30 25  1  0  0  0  0
 31 30  2  0  0  0  0
 32 27  1  0  0  0  0
 33 28  1  0  0  0  0
 34 37  1  0  0  0  0
 34 26  1  0  0  0  0
 36 46  1  0  0  0  0
 36 35  1  0  0  0  0
 37 36  1  0  0  0  0
 38 37  2  0  0  0  0
 38 39  1  0  0  0  0
 39 46  1  0  0  0  0
 40 39  2  0  0  0  0
 40 42  1  0  0  0  0
 41 40  1  0  0  0  0
 42 43  2  0  0  0  0
 43 45  1  0  0  0  0
 43 44  1  0  0  0  0
 46 45  2  0  0  0  0
M  END
>  <minimizedAffinity>
-5.89303207

$$$$

 OpenBabel03252500293D

 46 49  0  0  1  0  0  0  0  0999 V2000
   36.8170   28.2690   44.7210 O   0  0  0  0  0  0  0  0  0  0  0  0
   37.8310   27.9340   43.6840 P   0  0  1  0  0  0  0  0  0  0  0  0
   38.6170   29.3470   43.1830 O   0  0  0  0  0  0  0  0  0  0  0  0
   38.7880   29.3580   42.1990 H   0  0  0  0  0  0  0  0  0  0  0  0
   38.9200   26.9120   44.3820 O   0  0  0  0  0  0  0  0  0  0  0  0
   39.8230   24.9430   43.3730 C   0  0  2  0  0  0  0  0  0  0  0  0
   39.7850   26.4240   43.4370 C   0  0  2  0  0  0  0  0  0  0  0  0
   41.1500   26.8610   43.6220 C   0  0  0  0  0  0  0  0  0  0  0  0
   42.0100   25.8490   43.1780 O   0  0  0  0  0  0  0  0  0  0  0  0
   41.2180   24.8980   42.6360 C   0  0  0  0  0  0  0  0  0  0  0  0
   40.1830   24.3900   44.2580 H   0  0  0  0  0  0  0  0  0  0  0  0
   39.2750   26.6940   42.4640 H   0  0  0  0  0  0  0  0  0  0  0  0
   41.3160   27.5720   42.7360 H   0  0  0  0  0  0  0  0  0  0  0  0
   41.5040   27.5270   44.3790 H   0  0  0  0  0  0  0  0  0  0  0  0
   40.9210   25.2140   41.5940 H   0  0  0  0  0  0  0  0  0  0  0  0
   41.5880   23.8760   42.5820 H   0  0  0  0  0  0  0  0  0  0  0  0
   38.9190   24.3430   42.5770 O   0  0  0  0  0  0  0  0  0  0  0  0
   38.8800   24.4350   41.2720 C   0  0  0  0  0  0  0  0  0  0  0  0
   39.7590   24.4530   40.6600 H   0  0  0  0  0  0  0  0  0  0  0  0
   38.5090   25.5670   41.0710 H   0  0  0  0  0  0  0  0  0  0  0  0
   37.6360   23.7010   40.7810 C   0  0  0  0  0  0  0  0  0  0  0  0
   36.7160   24.2040   41.0770 H   0  0  0  0  0  0  0  0  0  0  0  0
   37.6590   22.6870   41.2710 H   0  0  0  0  0  0  0  0  0  0  0  0
   37.7000   23.4980   39.6920 H   0  0  0  0  0  0  0  0  0  0  0  0
   36.9610   27.2010   42.4080 O   0  0  0  0  0  0  0  0  0  0  0  0
   36.2910   29.9910   40.2740 C   0  0  0  0  0  0  0  0  0  0  0  0
   35.9540   29.4060   39.0300 C   0  0  0  0  0  0  0  0  0  0  0  0
   35.9720   27.9870   38.9700 C   0  0  0  0  0  0  0  0  0  0  0  0
   36.3010   27.3010   40.0820 N   0  0  0  0  0  0  0  0  0  0  0  0
   36.6160   27.9060   41.2450 C   0  0  0  0  0  0  0  0  0  0  0  0
   36.6050   29.2430   41.3210 N   0  0  0  0  0  0  0  0  0  0  0  0
   35.6880   29.9550   38.1370 H   0  0  0  0  0  0  0  0  0  0  0  0
   35.7210   27.4860   38.0430 H   0  0  0  0  0  0  0  0  0  0  0  0
   36.2700   31.3490   40.3120 O   0  0  0  0  0  0  0  0  0  0  0  0
   38.8130   30.6030   41.0410 H   0  0  0  0  0  0  0  0  0  0  0  0
   38.5620   31.5680   40.7300 N   0  0  0  0  0  0  0  0  0  0  0  0
   37.3980   32.1580   40.3300 C   0  0  0  0  0  0  0  0  0  0  0  0
   37.6540   33.4480   40.0380 N   0  0  0  0  0  0  0  0  0  0  0  0
   38.9530   33.7230   40.2340 C   0  0  0  0  0  0  0  0  0  0  0  0
   39.6910   34.8860   40.0750 C   0  0  0  0  0  0  0  0  0  0  0  0
   39.1780   35.7620   39.7340 H   0  0  0  0  0  0  0  0  0  0  0  0
   41.0110   34.8470   40.3590 N   0  0  0  0  0  0  0  0  0  0  0  0
   41.5750   33.6820   40.7880 C   0  0  0  0  0  0  0  0  0  0  0  0
   42.6440   33.6760   41.0120 H   0  0  0  0  0  0  0  0  0  0  0  0
   40.8330   32.5690   40.9330 N   0  0  0  0  0  0  0  0  0  0  0  0
   39.5130   32.5190   40.6720 C   0  0  0  0  0  0  0  0  0  0  0  0
  2  5  1  0  0  0  0
  2  1  2  1  0  0  0
  3  2  1  0  0  0  0
  4  3  1  0  0  0  0
  6  7  1  0  0  0  0
  6 11  1  1  0  0  0
  7 12  1  6  0  0  0
  7  8  1  0  0  0  0
  7  5  1  0  0  0  0
  8 14  1  0  0  0  0
  9  8  1  0  0  0  0
 10  9  1  0  0  0  0
 10  6  1  0  0  0  0
 13  8  1  0  0  0  0
 15 10  1  0  0  0  0
 16 10  1  0  0  0  0
 17  6  1  0  0  0  0
 18 17  1  0  0  0  0
 19 18  1  0  0  0  0
 20 18  1  0  0  0  0
 21 22  1  0  0  0  0
 21 23  1  0  0  0  0
 21 18  1  0  0  0  0
 24 21  1  0  0  0  0
 25  2  1  0  0  0  0
 26 34  1  0  0  0  0
 26 31  1  0  0  0  0
 27 26  2  0  0  0  0
 28 27  1  0  0  0  0
 28 29  2  0  0  0  0
 29 30  1  0  0  0  0
 30 31  2  0  0  0  0
 30 25  1  0  0  0  0
 32 27  1  0  0  0  0
 33 28  1  0  0  0  0
 34 37  1  0  0  0  0
 36 35  1  0  0  0  0
 37 36  1  0  0  0  0
 38 39  1  0  0  0  0
 38 37  2  0  0  0  0
 39 46  1  0  0  0  0
 40 39  2  0  0  0  0
 40 42  1  0  0  0  0
 41 40  1  0  0  0  0
 42 43  2  0  0  0  0
 43 45  1  0  0  0  0
 43 44  1  0  0  0  0
 46 36  1  0  0  0  0
 46 45  2  0  0  0  0
M  END
>  <minimizedAffinity>
-5.79862213

$$$$

 OpenBabel03252500293D

 46 49  0  0  1  0  0  0  0  0999 V2000
   37.4520   32.2990   38.3980 O   0  0  0  0  0  0  0  0  0  0  0  0
   38.5060   31.5580   37.6530 P   0  0  1  0  0  0  0  0  0  0  0  0
   38.8990   32.4020   36.2390 O   0  0  0  0  0  0  0  0  0  0  0  0
   39.0500   31.7930   35.4620 H   0  0  0  0  0  0  0  0  0  0  0  0
   39.8290   31.4760   38.6340 O   0  0  0  0  0  0  0  0  0  0  0  0
   39.8070   32.2260   40.9030 C   0  0  2  0  0  0  0  0  0  0  0  0
   39.4490   31.1770   39.9170 C   0  0  2  0  0  0  0  0  0  0  0  0
   40.0100   29.9410   40.4120 C   0  0  0  0  0  0  0  0  0  0  0  0
   40.2150   30.0610   41.7930 O   0  0  0  0  0  0  0  0  0  0  0  0
   39.6920   31.2570   42.1440 C   0  0  0  0  0  0  0  0  0  0  0  0
   40.8750   32.4430   41.0710 H   0  0  0  0  0  0  0  0  0  0  0  0
   38.3220   31.2610   39.8740 H   0  0  0  0  0  0  0  0  0  0  0  0
   39.0960   29.2490   40.4750 H   0  0  0  0  0  0  0  0  0  0  0  0
   40.6350   29.2660   39.8670 H   0  0  0  0  0  0  0  0  0  0  0  0
   38.5720   31.1570   42.2360 H   0  0  0  0  0  0  0  0  0  0  0  0
   40.0590   31.7450   43.0440 H   0  0  0  0  0  0  0  0  0  0  0  0
   38.9220   33.2240   41.0790 O   0  0  0  0  0  0  0  0  0  0  0  0
   39.0920   34.4630   40.6940 C   0  0  0  0  0  0  0  0  0  0  0  0
   38.6200   35.2960   41.1750 H   0  0  0  0  0  0  0  0  0  0  0  0
   38.5070   34.5230   39.6390 H   0  0  0  0  0  0  0  0  0  0  0  0
   40.5170   34.6060   40.1680 C   0  0  0  0  0  0  0  0  0  0  0  0
   40.6730   34.0510   39.2430 H   0  0  0  0  0  0  0  0  0  0  0  0
   41.1870   34.1690   40.9610 H   0  0  0  0  0  0  0  0  0  0  0  0
   40.8090   35.6740   40.0990 H   0  0  0  0  0  0  0  0  0  0  0  0
   37.8390   30.0210   37.3140 O   0  0  0  0  0  0  0  0  0  0  0  0
   35.6550   28.8220   39.8780 C   0  0  0  0  0  0  0  0  0  0  0  0
   34.4020   28.6860   39.2340 C   0  0  0  0  0  0  0  0  0  0  0  0
   34.3550   29.0330   37.8580 C   0  0  0  0  0  0  0  0  0  0  0  0
   35.4860   29.4610   37.2640 N   0  0  0  0  0  0  0  0  0  0  0  0
   36.6560   29.5740   37.9230 C   0  0  0  0  0  0  0  0  0  0  0  0
   36.7210   29.2520   39.2210 N   0  0  0  0  0  0  0  0  0  0  0  0
   33.4940   28.3410   39.7090 H   0  0  0  0  0  0  0  0  0  0  0  0
   33.4220   28.9470   37.3150 H   0  0  0  0  0  0  0  0  0  0  0  0
   35.6810   28.4860   41.1950 O   0  0  0  0  0  0  0  0  0  0  0  0
   36.6450   25.9960   40.5420 H   0  0  0  0  0  0  0  0  0  0  0  0
   37.0280   26.5770   41.3220 N   0  0  0  0  0  0  0  0  0  0  0  0
   36.7200   27.8110   41.8200 C   0  0  0  0  0  0  0  0  0  0  0  0
   37.5500   28.0730   42.8480 N   0  0  0  0  0  0  0  0  0  0  0  0
   38.3950   27.0470   43.0400 C   0  0  0  0  0  0  0  0  0  0  0  0
   39.4150   26.8430   43.9570 C   0  0  0  0  0  0  0  0  0  0  0  0
   39.6100   27.6180   44.6690 H   0  0  0  0  0  0  0  0  0  0  0  0
   40.1030   25.6820   43.8960 N   0  0  0  0  0  0  0  0  0  0  0  0
   39.7800   24.7550   42.9500 C   0  0  0  0  0  0  0  0  0  0  0  0
   40.3510   23.8230   42.9220 H   0  0  0  0  0  0  0  0  0  0  0  0
   38.7840   24.9810   42.0750 N   0  0  0  0  0  0  0  0  0  0  0  0
   38.0490   26.1090   42.0620 C   0  0  0  0  0  0  0  0  0  0  0  0
  2  1  2  1  0  0  0
  2  5  1  0  0  0  0
  3  2  1  0  0  0  0
  4  3  1  0  0  0  0
  5  7  1  0  0  0  0
  6 11  1  6  0  0  0
  6 17  1  0  0  0  0
  6 10  1  0  0  0  0
  7 12  1  1  0  0  0
  7  8  1  0  0  0  0
  7  6  1  0  0  0  0
  8 13  1  0  0  0  0
  8  9  1  0  0  0  0
  9 10  1  0  0  0  0
 10 15  1  0  0  0  0
 10 16  1  0  0  0  0
 14  8  1  0  0  0  0
 18 17  1  0  0  0  0
 18 19  1  0  0  0  0
 20 18  1  0  0  0  0
 21 18  1  0  0  0  0
 21 23  1  0  0  0  0
 22 21  1  0  0  0  0
 24 21  1  0  0  0  0
 25  2  1  0  0  0  0
 25 30  1  0  0  0  0
 26 34  1  0  0  0  0
 27 32  1  0  0  0  0
 27 26  1  0  0  0  0
 28 27  2  0  0  0  0
 29 28  1  0  0  0  0
 29 30  2  0  0  0  0
 30 31  1  0  0  0  0
 31 26  2  0  0  0  0
 33 28  1  0  0  0  0
 34 37  1  0  0  0  0
 35 36  1  0  0  0  0
 36 37  1  0  0  0  0
 36 46  1  0  0  0  0
 37 38  2  0  0  0  0
 38 39  1  0  0  0  0
 39 40  1  0  0  0  0
 40 41  1  0  0  0  0
 42 40  2  0  0  0  0
 43 42  1  0  0  0  0
 44 43  1  0  0  0  0
 45 43  2  0  0  0  0
 46 45  1  0  0  0  0
 46 39  2  0  0  0  0
M  END
>  <minimizedAffinity>
-5.73109627

$$$$

 OpenBabel03252500293D

 46 49  0  0  1  0  0  0  0  0999 V2000
   36.7580   28.1170   44.8050 O   0  0  0  0  0  0  0  0  0  0  0  0
   37.4880   28.1740   43.5080 P   0  0  1  0  0  0  0  0  0  0  0  0
   38.2990   29.6550   43.3800 O   0  0  0  0  0  0  0  0  0  0  0  0
   38.2580   30.0320   42.4560 H   0  0  0  0  0  0  0  0  0  0  0  0
   38.5830   26.9410   43.5110 O   0  0  0  0  0  0  0  0  0  0  0  0
   40.1380   26.9050   41.6970 C   0  0  2  0  0  0  0  0  0  0  0  0
   39.7970   27.3860   43.0590 C   0  0  2  0  0  0  0  0  0  0  0  0
   40.9030   27.0160   43.9120 C   0  0  0  0  0  0  0  0  0  0  0  0
   42.0400   26.8250   43.1170 O   0  0  0  0  0  0  0  0  0  0  0  0
   41.6830   27.1810   41.8640 C   0  0  0  0  0  0  0  0  0  0  0  0
   40.2670   25.8210   41.5430 H   0  0  0  0  0  0  0  0  0  0  0  0
   39.6160   28.4890   42.8860 H   0  0  0  0  0  0  0  0  0  0  0  0
   41.2270   28.0190   44.3660 H   0  0  0  0  0  0  0  0  0  0  0  0
   40.8380   26.4800   44.8350 H   0  0  0  0  0  0  0  0  0  0  0  0
   41.7110   28.3060   41.7770 H   0  0  0  0  0  0  0  0  0  0  0  0
   42.2360   26.7680   41.0240 H   0  0  0  0  0  0  0  0  0  0  0  0
   39.6980   27.6440   40.6620 O   0  0  0  0  0  0  0  0  0  0  0  0
   40.0870   28.8620   40.3820 C   0  0  0  0  0  0  0  0  0  0  0  0
   40.8430   29.3780   40.9400 H   0  0  0  0  0  0  0  0  0  0  0  0
   39.1450   29.5480   40.7000 H   0  0  0  0  0  0  0  0  0  0  0  0
   40.0040   29.0520   38.8710 C   0  0  0  0  0  0  0  0  0  0  0  0
   38.9750   29.0470   38.5100 H   0  0  0  0  0  0  0  0  0  0  0  0
   40.5430   28.1740   38.4160 H   0  0  0  0  0  0  0  0  0  0  0  0
   40.5820   29.9440   38.5510 H   0  0  0  0  0  0  0  0  0  0  0  0
   36.2940   27.9940   42.2980 O   0  0  0  0  0  0  0  0  0  0  0  0
   36.5100   30.8260   40.1250 C   0  0  0  0  0  0  0  0  0  0  0  0
   36.4280   30.2740   38.8230 C   0  0  0  0  0  0  0  0  0  0  0  0
   36.2930   28.8630   38.7400 C   0  0  0  0  0  0  0  0  0  0  0  0
   36.2520   28.1530   39.8830 N   0  0  0  0  0  0  0  0  0  0  0  0
   36.3340   28.7260   41.1010 C   0  0  0  0  0  0  0  0  0  0  0  0
   36.4630   30.0550   41.2010 N   0  0  0  0  0  0  0  0  0  0  0  0
   36.4600   30.8430   37.9040 H   0  0  0  0  0  0  0  0  0  0  0  0
   36.2250   28.3880   37.7690 H   0  0  0  0  0  0  0  0  0  0  0  0
   36.6400   32.1770   40.1860 O   0  0  0  0  0  0  0  0  0  0  0  0
   39.0660   31.1270   40.9370 H   0  0  0  0  0  0  0  0  0  0  0  0
   38.9310   32.1250   40.6570 N   0  0  0  0  0  0  0  0  0  0  0  0
   37.8490   32.8540   40.2550 C   0  0  0  0  0  0  0  0  0  0  0  0
   38.2540   34.1170   40.0140 N   0  0  0  0  0  0  0  0  0  0  0  0
   39.5710   34.2370   40.2450 C   0  0  0  0  0  0  0  0  0  0  0  0
   40.4360   35.3160   40.1430 C   0  0  0  0  0  0  0  0  0  0  0  0
   40.0320   36.2540   39.8230 H   0  0  0  0  0  0  0  0  0  0  0  0
   41.7370   35.1200   40.4520 N   0  0  0  0  0  0  0  0  0  0  0  0
   42.1570   33.8850   40.8500 C   0  0  0  0  0  0  0  0  0  0  0  0
   43.2140   33.7520   41.0940 H   0  0  0  0  0  0  0  0  0  0  0  0
   41.2930   32.8580   40.9400 N   0  0  0  0  0  0  0  0  0  0  0  0
   39.9820   32.9640   40.6510 C   0  0  0  0  0  0  0  0  0  0  0  0
  2  5  1  0  0  0  0
  2  1  2  1  0  0  0
  3  2  1  0  0  0  0
  4  3  1  0  0  0  0
  6 11  1  6  0  0  0
  6 10  1  0  0  0  0
  6  7  1  0  0  0  0
  7 12  1  6  0  0  0
  7  5  1  0  0  0  0
  7  8  1  0  0  0  0
  8 13  1  0  0  0  0
  8 14  1  0  0  0  0
  9  8  1  0  0  0  0
 10  9  1  0  0  0  0
 15 10  1  0  0  0  0
 16 10  1  0  0  0  0
 17  6  1  0  0  0  0
 18 17  1  0  0  0  0
 18 20  1  0  0  0  0
 18 19  1  0  0  0  0
 21 18  1  0  0  0  0
 22 21  1  0  0  0  0
 23 21  1  0  0  0  0
 24 21  1  0  0  0  0
 25  2  1  0  0  0  0
 26 34  1  0  0  0  0
 26 31  1  0  0  0  0
 27 26  2  0  0  0  0
 28 27  1  0  0  0  0
 28 29  2  0  0  0  0
 29 30  1  0  0  0  0
 30 31  2  0  0  0  0
 30 25  1  0  0  0  0
 32 27  1  0  0  0  0
 33 28  1  0  0  0  0
 34 37  1  0  0  0  0
 36 35  1  0  0  0  0
 37 36  1  0  0  0  0
 38 39  1  0  0  0  0
 38 37  2  0  0  0  0
 39 46  1  0  0  0  0
 40 39  2  0  0  0  0
 40 42  1  0  0  0  0
 41 40  1  0  0  0  0
 42 43  2  0  0  0  0
 43 45  1  0  0  0  0
 43 44  1  0  0  0  0
 46 36  1  0  0  0  0
 46 45  2  0  0  0  0
M  END
>  <minimizedAffinity>
-5.68449354

$$$$

 OpenBabel03252500293D

 46 49  0  0  1  0  0  0  0  0999 V2000
   37.1420   32.0810   39.0650 O   0  0  0  0  0  0  0  0  0  0  0  0
   37.3400   31.3020   40.3180 P   0  0  1  0  0  0  0  0  0  0  0  0
   35.8360   30.9710   41.0220 O   0  0  0  0  0  0  0  0  0  0  0  0
   35.8570   31.0490   42.0170 H   0  0  0  0  0  0  0  0  0  0  0  0
   38.0790   29.8880   39.8990 O   0  0  0  0  0  0  0  0  0  0  0  0
   37.1740   27.8190   40.6790 C   0  0  2  0  0  0  0  0  0  0  0  0
   37.1420   28.9130   39.6770 C   0  0  2  0  0  0  0  0  0  0  0  0
   37.2590   28.2840   38.3810 C   0  0  0  0  0  0  0  0  0  0  0  0
   36.8570   26.9470   38.4920 O   0  0  0  0  0  0  0  0  0  0  0  0
   36.4010   26.7980   39.7550 C   0  0  0  0  0  0  0  0  0  0  0  0
   38.0810   27.1950   40.7440 H   0  0  0  0  0  0  0  0  0  0  0  0
   36.1690   29.4350   39.9210 H   0  0  0  0  0  0  0  0  0  0  0  0
   36.3240   28.6570   37.8280 H   0  0  0  0  0  0  0  0  0  0  0  0
   37.9610   28.5380   37.6160 H   0  0  0  0  0  0  0  0  0  0  0  0
   35.3500   27.2050   39.8180 H   0  0  0  0  0  0  0  0  0  0  0  0
   36.4020   25.8060   40.1990 H   0  0  0  0  0  0  0  0  0  0  0  0
   36.4450   27.9940   41.7960 O   0  0  0  0  0  0  0  0  0  0  0  0
   36.8510   27.7390   43.0130 C   0  0  0  0  0  0  0  0  0  0  0  0
   36.9840   26.7440   43.3890 H   0  0  0  0  0  0  0  0  0  0  0  0
   35.9140   28.0570   43.7060 H   0  0  0  0  0  0  0  0  0  0  0  0
   37.8230   28.8380   43.4310 C   0  0  0  0  0  0  0  0  0  0  0  0
   37.3290   29.8030   43.5480 H   0  0  0  0  0  0  0  0  0  0  0  0
   38.5740   28.9240   42.5960 H   0  0  0  0  0  0  0  0  0  0  0  0
   38.4120   28.5300   44.3190 H   0  0  0  0  0  0  0  0  0  0  0  0
   38.3130   32.2840   41.3240 O   0  0  0  0  0  0  0  0  0  0  0  0
   41.2970   33.8400   40.1150 C   0  0  0  0  0  0  0  0  0  0  0  0
   40.8930   35.1550   39.7790 C   0  0  0  0  0  0  0  0  0  0  0  0
   39.5270   35.4740   39.9950 C   0  0  0  0  0  0  0  0  0  0  0  0
   38.7160   34.5220   40.4980 N   0  0  0  0  0  0  0  0  0  0  0  0
   39.1500   33.2820   40.8010 C   0  0  0  0  0  0  0  0  0  0  0  0
   40.4350   32.9620   40.6040 N   0  0  0  0  0  0  0  0  0  0  0  0
   41.5420   35.9210   39.3770 H   0  0  0  0  0  0  0  0  0  0  0  0
   39.1630   36.4660   39.7570 H   0  0  0  0  0  0  0  0  0  0  0  0
   42.6080   33.5530   39.9010 O   0  0  0  0  0  0  0  0  0  0  0  0
   41.1040   32.0180   38.1860 H   0  0  0  0  0  0  0  0  0  0  0  0
   42.1470   32.0730   38.1470 N   0  0  0  0  0  0  0  0  0  0  0  0
   43.0840   32.7490   38.8740 C   0  0  0  0  0  0  0  0  0  0  0  0
   44.3020   32.4470   38.3830 N   0  0  0  0  0  0  0  0  0  0  0  0
   44.1920   31.5930   37.3540 C   0  0  0  0  0  0  0  0  0  0  0  0
   45.1400   30.9990   36.5340 C   0  0  0  0  0  0  0  0  0  0  0  0
   46.1690   31.2300   36.7110 H   0  0  0  0  0  0  0  0  0  0  0  0
   44.7090   30.1650   35.5620 N   0  0  0  0  0  0  0  0  0  0  0  0
   43.3730   29.9330   35.4150 C   0  0  0  0  0  0  0  0  0  0  0  0
   43.0490   29.2550   34.6220 H   0  0  0  0  0  0  0  0  0  0  0  0
   42.4770   30.5240   36.2270 N   0  0  0  0  0  0  0  0  0  0  0  0
   42.8180   31.3680   37.2190 C   0  0  0  0  0  0  0  0  0  0  0  0
  2  1  2  6  0  0  0
  2  3  1  0  0  0  0
  2 25  1  0  0  0  0
  3  4  1  0  0  0  0
  5  2  1  0  0  0  0
  6 11  1  1  0  0  0
  6 17  1  0  0  0  0
  7  5  1  0  0  0  0
  7 12  1  1  0  0  0
  7  6  1  0  0  0  0
  8  9  1  0  0  0  0
  8  7  1  0  0  0  0
  9 10  1  0  0  0  0
 10 15  1  0  0  0  0
 10 16  1  0  0  0  0
 10  6  1  0  0  0  0
 13  8  1  0  0  0  0
 14  8  1  0  0  0  0
 17 18  1  0  0  0  0
 18 19  1  0  0  0  0
 18 21  1  0  0  0  0
 18 20  1  0  0  0  0
 21 22  1  0  0  0  0
 21 24  1  0  0  0  0
 23 21  1  0  0  0  0
 26 31  1  0  0  0  0
 27 28  1  0  0  0  0
 27 26  2  0  0  0  0
 28 29  2  0  0  0  0
 29 30  1  0  0  0  0
 30 25  1  0  0  0  0
 31 30  2  0  0  0  0
 32 27  1  0  0  0  0
 33 28  1  0  0  0  0
 34 26  1  0  0  0  0
 36 35  1  0  0  0  0
 36 37  1  0  0  0  0
 37 34  1  0  0  0  0
 38 37  2  0  0  0  0
 39 38  1  0  0  0  0
 40 41  1  0  0  0  0
 40 39  2  0  0  0  0
 42 40  1  0  0  0  0
 43 42  2  0  0  0  0
 43 45  1  0  0  0  0
 44 43  1  0  0  0  0
 45 46  2  0  0  0  0
 46 39  1  0  0  0  0
 46 36  1  0  0  0  0
M  END
>  <minimizedAffinity>
-5.65465641

$$$$

 OpenBabel03252500293D

 46 49  0  0  1  0  0  0  0  0999 V2000
   37.0950   28.9020   39.5440 O   0  0  0  0  0  0  0  0  0  0  0  0
   36.3670   29.9790   40.2700 P   0  0  1  0  0  0  0  0  0  0  0  0
   34.7260   29.5790   40.3800 O   0  0  0  0  0  0  0  0  0  0  0  0
   34.1320   30.3710   40.2490 H   0  0  0  0  0  0  0  0  0  0  0  0
   37.0180   30.0720   41.7820 O   0  0  0  0  0  0  0  0  0  0  0  0
   37.5530   28.0500   42.9380 C   0  0  2  0  0  0  0  0  0  0  0  0
   37.9540   29.0860   41.9550 C   0  0  2  0  0  0  0  0  0  0  0  0
   39.2420   29.5820   42.3860 C   0  0  0  0  0  0  0  0  0  0  0  0
   39.8450   28.6180   43.2040 O   0  0  0  0  0  0  0  0  0  0  0  0
   39.0290   27.5410   43.1740 C   0  0  0  0  0  0  0  0  0  0  0  0
   37.4060   28.3550   43.9880 H   0  0  0  0  0  0  0  0  0  0  0  0
   37.9110   28.5200   40.9770 H   0  0  0  0  0  0  0  0  0  0  0  0
   39.9070   29.4080   41.4660 H   0  0  0  0  0  0  0  0  0  0  0  0
   39.5080   30.6070   42.5350 H   0  0  0  0  0  0  0  0  0  0  0  0
   39.2120   26.9650   42.2200 H   0  0  0  0  0  0  0  0  0  0  0  0
   39.0610   26.8360   44.0010 H   0  0  0  0  0  0  0  0  0  0  0  0
   36.8310   27.0150   42.4720 O   0  0  0  0  0  0  0  0  0  0  0  0
   37.2590   26.1130   41.6270 C   0  0  0  0  0  0  0  0  0  0  0  0
   38.1750   26.2120   41.0790 H   0  0  0  0  0  0  0  0  0  0  0  0
   36.4950   26.2010   40.6950 H   0  0  0  0  0  0  0  0  0  0  0  0
   36.8320   24.7410   42.1380 C   0  0  0  0  0  0  0  0  0  0  0  0
   35.7520   24.6030   42.0980 H   0  0  0  0  0  0  0  0  0  0  0  0
   37.1560   24.6960   43.2160 H   0  0  0  0  0  0  0  0  0  0  0  0
   37.4020   23.9340   41.6320 H   0  0  0  0  0  0  0  0  0  0  0  0
   36.6170   31.4020   39.3550 O   0  0  0  0  0  0  0  0  0  0  0  0
   39.9600   32.5390   39.9180 C   0  0  0  0  0  0  0  0  0  0  0  0
   39.8200   33.9250   40.1680 C   0  0  0  0  0  0  0  0  0  0  0  0
   38.5000   34.4460   40.1320 C   0  0  0  0  0  0  0  0  0  0  0  0
   37.4830   33.6030   39.8670 N   0  0  0  0  0  0  0  0  0  0  0  0
   37.6690   32.2880   39.6340 C   0  0  0  0  0  0  0  0  0  0  0  0
   38.9070   31.7780   39.6630 N   0  0  0  0  0  0  0  0  0  0  0  0
   40.6350   34.6030   40.3830 H   0  0  0  0  0  0  0  0  0  0  0  0
   38.3340   35.5000   40.3170 H   0  0  0  0  0  0  0  0  0  0  0  0
   41.2310   32.0580   39.9560 O   0  0  0  0  0  0  0  0  0  0  0  0
   43.8170   32.7480   39.3300 H   0  0  0  0  0  0  0  0  0  0  0  0
   43.2290   32.1150   38.7410 N   0  0  0  0  0  0  0  0  0  0  0  0
   41.9530   31.6420   38.8470 C   0  0  0  0  0  0  0  0  0  0  0  0
   41.7060   30.8470   37.7870 N   0  0  0  0  0  0  0  0  0  0  0  0
   42.7840   30.7840   36.9890 C   0  0  0  0  0  0  0  0  0  0  0  0
   43.0210   30.1100   35.8010 C   0  0  0  0  0  0  0  0  0  0  0  0
   42.2310   29.5110   35.3980 H   0  0  0  0  0  0  0  0  0  0  0  0
   44.2340   30.2470   35.2220 N   0  0  0  0  0  0  0  0  0  0  0  0
   45.1790   31.0330   35.8130 C   0  0  0  0  0  0  0  0  0  0  0  0
   46.1520   31.1280   35.3250 H   0  0  0  0  0  0  0  0  0  0  0  0
   44.9190   31.6750   36.9660 N   0  0  0  0  0  0  0  0  0  0  0  0
   43.7390   31.5940   37.6110 C   0  0  0  0  0  0  0  0  0  0  0  0
  2  1  2  6  0  0  0
  2  3  1  0  0  0  0
  2  5  1  0  0  0  0
  4  3  1  0  0  0  0
  5  7  1  0  0  0  0
  6 10  1  0  0  0  0
  6 11  1  1  0  0  0
  7 12  1  6  0  0  0
  7  8  1  0  0  0  0
  7  6  1  0  0  0  0
  8 14  1  0  0  0  0
  8  9  1  0  0  0  0
 10  9  1  0  0  0  0
 10 16  1  0  0  0  0
 13  8  1  0  0  0  0
 15 10  1  0  0  0  0
 17  6  1  0  0  0  0
 18 21  1  0  0  0  0
 18 17  1  0  0  0  0
 19 18  1  0  0  0  0
 20 18  1  0  0  0  0
 21 23  1  0  0  0  0
 22 21  1  0  0  0  0
 24 21  1  0  0  0  0
 25 30  1  0  0  0  0
 25  2  1  0  0  0  0
 26 34  1  0  0  0  0
 26 27  1  0  0  0  0
 27 32  1  0  0  0  0
 28 27  2  0  0  0  0
 28 33  1  0  0  0  0
 29 28  1  0  0  0  0
 30 31  1  0  0  0  0
 30 29  2  0  0  0  0
 31 26  2  0  0  0  0
 36 37  1  0  0  0  0
 36 35  1  0  0  0  0
 37 34  1  0  0  0  0
 38 37  2  0  0  0  0
 39 46  1  0  0  0  0
 39 38  1  0  0  0  0
 40 39  2  0  0  0  0
 41 40  1  0  0  0  0
 42 40  1  0  0  0  0
 42 43  2  0  0  0  0
 43 45  1  0  0  0  0
 44 43  1  0  0  0  0
 45 46  2  0  0  0  0
 46 36  1  0  0  0  0
M  END
>  <minimizedAffinity>
-5.65116119

$$$$

 OpenBabel03252500293D

 46 49  0  0  1  0  0  0  0  0999 V2000
   39.2150   34.0890   40.7110 O   0  0  0  0  0  0  0  0  0  0  0  0
   38.3530   33.0340   40.1110 P   0  0  1  0  0  0  0  0  0  0  0  0
   36.8010   33.6570   39.8450 O   0  0  0  0  0  0  0  0  0  0  0  0
   36.0840   32.9940   40.0560 H   0  0  0  0  0  0  0  0  0  0  0  0
   39.0340   32.6110   38.6700 O   0  0  0  0  0  0  0  0  0  0  0  0
   41.3750   32.1820   38.4580 C   0  0  2  0  0  0  0  0  0  0  0  0
   40.0350   31.6970   38.8710 C   0  0  2  0  0  0  0  0  0  0  0  0
   39.8230   30.4450   38.1810 C   0  0  0  0  0  0  0  0  0  0  0  0
   41.0670   29.9160   37.8150 O   0  0  0  0  0  0  0  0  0  0  0  0
   41.9940   30.7330   38.3610 C   0  0  0  0  0  0  0  0  0  0  0  0
   41.5420   32.4110   37.3920 H   0  0  0  0  0  0  0  0  0  0  0  0
   40.1280   31.6650   39.9980 H   0  0  0  0  0  0  0  0  0  0  0  0
   39.6130   29.7100   39.0380 H   0  0  0  0  0  0  0  0  0  0  0  0
   38.9710   30.1860   37.5890 H   0  0  0  0  0  0  0  0  0  0  0  0
   42.1150   30.4770   39.4540 H   0  0  0  0  0  0  0  0  0  0  0  0
   42.9860   30.7710   37.9170 H   0  0  0  0  0  0  0  0  0  0  0  0
   42.0830   32.8700   39.3730 O   0  0  0  0  0  0  0  0  0  0  0  0
   42.4660   34.1150   39.2530 C   0  0  0  0  0  0  0  0  0  0  0  0
   43.1610   34.5810   39.9230 H   0  0  0  0  0  0  0  0  0  0  0  0
   41.4860   34.7530   39.5550 H   0  0  0  0  0  0  0  0  0  0  0  0
   42.5080   34.4590   37.7670 C   0  0  0  0  0  0  0  0  0  0  0  0
   41.5140   34.4770   37.3200 H   0  0  0  0  0  0  0  0  0  0  0  0
   43.1030   33.6390   37.2740 H   0  0  0  0  0  0  0  0  0  0  0  0
   43.0910   35.3860   37.5910 H   0  0  0  0  0  0  0  0  0  0  0  0
   38.3400   31.7500   41.2390 O   0  0  0  0  0  0  0  0  0  0  0  0
   36.9730   28.4810   41.7230 C   0  0  0  0  0  0  0  0  0  0  0  0
   35.7560   28.5010   41.0000 C   0  0  0  0  0  0  0  0  0  0  0  0
   35.4340   29.7120   40.3330 C   0  0  0  0  0  0  0  0  0  0  0  0
   36.2920   30.7460   40.4290 N   0  0  0  0  0  0  0  0  0  0  0  0
   37.4400   30.6780   41.1320 C   0  0  0  0  0  0  0  0  0  0  0  0
   37.7620   29.5440   41.7680 N   0  0  0  0  0  0  0  0  0  0  0  0
   35.0670   27.6710   40.9210 H   0  0  0  0  0  0  0  0  0  0  0  0
   34.5150   29.7830   39.7640 H   0  0  0  0  0  0  0  0  0  0  0  0
   37.2650   27.3140   42.3550 O   0  0  0  0  0  0  0  0  0  0  0  0
   39.0000   28.2830   44.2540 H   0  0  0  0  0  0  0  0  0  0  0  0
   39.2310   27.4920   43.6110 N   0  0  0  0  0  0  0  0  0  0  0  0
   38.5490   26.8540   42.6160 C   0  0  0  0  0  0  0  0  0  0  0  0
   39.3390   25.8870   42.1110 N   0  0  0  0  0  0  0  0  0  0  0  0
   40.5210   25.8700   42.7470 C   0  0  0  0  0  0  0  0  0  0  0  0
   41.6460   25.0740   42.5950 C   0  0  0  0  0  0  0  0  0  0  0  0
   41.6230   24.3130   41.8430 H   0  0  0  0  0  0  0  0  0  0  0  0
   42.7040   25.3050   43.4030 N   0  0  0  0  0  0  0  0  0  0  0  0
   42.6380   26.2990   44.3330 C   0  0  0  0  0  0  0  0  0  0  0  0
   43.5060   26.4670   44.9760 H   0  0  0  0  0  0  0  0  0  0  0  0
   41.5320   27.0560   44.4570 N   0  0  0  0  0  0  0  0  0  0  0  0
   40.4340   26.8940   43.6950 C   0  0  0  0  0  0  0  0  0  0  0  0
  2  1  2  1  0  0  0
  2 25  1  0  0  0  0
  3  4  1  0  0  0  0
  3  2  1  0  0  0  0
  5  7  1  0  0  0  0
  5  2  1  0  0  0  0
  6 11  1  6  0  0  0
  6  7  1  0  0  0  0
  6 17  1  0  0  0  0
  7 12  1  1  0  0  0
  8  7  1  0  0  0  0
  8 13  1  0  0  0  0
  9  8  1  0  0  0  0
  9 10  1  0  0  0  0
 10  6  1  0  0  0  0
 10 15  1  0  0  0  0
 14  8  1  0  0  0  0
 16 10  1  0  0  0  0
 18 17  1  0  0  0  0
 18 20  1  0  0  0  0
 18 19  1  0  0  0  0
 21 18  1  0  0  0  0
 22 21  1  0  0  0  0
 23 21  1  0  0  0  0
 24 21  1  0  0  0  0
 26 31  1  0  0  0  0
 26 34  1  0  0  0  0
 27 26  2  0  0  0  0
 28 29  2  0  0  0  0
 28 27  1  0  0  0  0
 29 30  1  0  0  0  0
 30 25  1  0  0  0  0
 30 31  2  0  0  0  0
 32 27  1  0  0  0  0
 33 28  1  0  0  0  0
 34 37  1  0  0  0  0
 36 46  1  0  0  0  0
 36 35  1  0  0  0  0
 37 36  1  0  0  0  0
 38 37  2  0  0  0  0
 38 39  1  0  0  0  0
 39 46  1  0  0  0  0
 40 39  2  0  0  0  0
 40 42  1  0  0  0  0
 41 40  1  0  0  0  0
 42 43  2  0  0  0  0
 43 45  1  0  0  0  0
 43 44  1  0  0  0  0
 46 45  2  0  0  0  0
M  END
>  <minimizedAffinity>
-5.60062599

$$$$

 OpenBabel03252500293D

 46 49  0  0  1  0  0  0  0  0999 V2000
   36.8800   30.3650   39.3160 O   0  0  0  0  0  0  0  0  0  0  0  0
   36.9660   30.4280   40.8010 P   0  0  1  0  0  0  0  0  0  0  0  0
   35.7430   31.4380   41.3950 O   0  0  0  0  0  0  0  0  0  0  0  0
   36.0560   32.0060   42.1550 H   0  0  0  0  0  0  0  0  0  0  0  0
   36.7410   28.8960   41.3660 O   0  0  0  0  0  0  0  0  0  0  0  0
   38.4600   27.2500   41.5860 C   0  0  2  0  0  0  0  0  0  0  0  0
   37.8330   28.4950   42.0920 C   0  0  2  0  0  0  0  0  0  0  0  0
   37.5450   28.2680   43.4900 C   0  0  0  0  0  0  0  0  0  0  0  0
   38.3730   27.2410   43.9590 O   0  0  0  0  0  0  0  0  0  0  0  0
   39.2090   26.9420   42.9410 C   0  0  0  0  0  0  0  0  0  0  0  0
   37.8680   26.3190   41.6090 H   0  0  0  0  0  0  0  0  0  0  0  0
   38.6090   29.2770   41.8370 H   0  0  0  0  0  0  0  0  0  0  0  0
   38.0970   29.1310   44.0110 H   0  0  0  0  0  0  0  0  0  0  0  0
   36.6040   28.4180   43.9750 H   0  0  0  0  0  0  0  0  0  0  0  0
   40.0390   27.7060   42.9060 H   0  0  0  0  0  0  0  0  0  0  0  0
   39.6640   25.9550   42.9090 H   0  0  0  0  0  0  0  0  0  0  0  0
   39.3910   27.3840   40.6230 O   0  0  0  0  0  0  0  0  0  0  0  0
   40.5140   28.0450   40.7440 C   0  0  0  0  0  0  0  0  0  0  0  0
   41.3620   27.6650   41.2770 H   0  0  0  0  0  0  0  0  0  0  0  0
   40.2390   28.9540   41.4890 H   0  0  0  0  0  0  0  0  0  0  0  0
   40.7270   28.8570   39.4700 C   0  0  0  0  0  0  0  0  0  0  0  0
   39.9950   29.6580   39.3630 H   0  0  0  0  0  0  0  0  0  0  0  0
   40.5890   28.1360   38.6140 H   0  0  0  0  0  0  0  0  0  0  0  0
   41.7780   29.2020   39.3900 H   0  0  0  0  0  0  0  0  0  0  0  0
   38.5240   31.0400   41.1490 O   0  0  0  0  0  0  0  0  0  0  0  0
   40.6950   33.6010   39.9190 C   0  0  0  0  0  0  0  0  0  0  0  0
   39.8710   34.7490   39.8390 C   0  0  0  0  0  0  0  0  0  0  0  0
   38.5170   34.5870   40.2370 C   0  0  0  0  0  0  0  0  0  0  0  0
   38.1120   33.3730   40.6570 N   0  0  0  0  0  0  0  0  0  0  0  0
   38.9370   32.3080   40.7140 C   0  0  0  0  0  0  0  0  0  0  0  0
   40.2170   32.4410   40.3430 N   0  0  0  0  0  0  0  0  0  0  0  0
   40.1950   35.7240   39.5040 H   0  0  0  0  0  0  0  0  0  0  0  0
   37.8420   35.4330   40.1970 H   0  0  0  0  0  0  0  0  0  0  0  0
   41.9870   33.7740   39.5340 O   0  0  0  0  0  0  0  0  0  0  0  0
   40.8890   31.7610   38.0180 H   0  0  0  0  0  0  0  0  0  0  0  0
   41.8930   32.0480   37.9580 N   0  0  0  0  0  0  0  0  0  0  0  0
   42.6440   32.9940   38.5930 C   0  0  0  0  0  0  0  0  0  0  0  0
   43.9030   32.9270   38.1170 N   0  0  0  0  0  0  0  0  0  0  0  0
   44.0000   31.9640   37.1870 C   0  0  0  0  0  0  0  0  0  0  0  0
   45.0660   31.5170   36.4210 C   0  0  0  0  0  0  0  0  0  0  0  0
   46.0140   31.9940   36.5550 H   0  0  0  0  0  0  0  0  0  0  0  0
   44.8450   30.5070   35.5510 N   0  0  0  0  0  0  0  0  0  0  0  0
   43.6000   29.9610   35.4520 C   0  0  0  0  0  0  0  0  0  0  0  0
   43.4470   29.1450   34.7410 H   0  0  0  0  0  0  0  0  0  0  0  0
   42.5850   30.4160   36.2090 N   0  0  0  0  0  0  0  0  0  0  0  0
   42.7150   31.4180   37.0990 C   0  0  0  0  0  0  0  0  0  0  0  0
  2  1  2  6  0  0  0
  2 25  1  0  0  0  0
  2  5  1  0  0  0  0
  2  3  1  0  0  0  0
  3  4  1  0  0  0  0
  5  7  1  0  0  0  0
  6 11  1  6  0  0  0
  6  7  1  0  0  0  0
  6 10  1  0  0  0  0
  7 12  1  6  0  0  0
  7  8  1  0  0  0  0
  8  9  1  0  0  0  0
  8 14  1  0  0  0  0
  8 13  1  0  0  0  0
 10  9  1  0  0  0  0
 15 10  1  0  0  0  0
 16 10  1  0  0  0  0
 17 18  1  0  0  0  0
 17  6  1  0  0  0  0
 18 19  1  0  0  0  0
 18 20  1  0  0  0  0
 21 18  1  0  0  0  0
 22 21  1  0  0  0  0
 23 21  1  0  0  0  0
 24 21  1  0  0  0  0
 26 31  1  0  0  0  0
 27 26  2  0  0  0  0
 27 28  1  0  0  0  0
 28 29  2  0  0  0  0
 29 30  1  0  0  0  0
 30 25  1  0  0  0  0
 31 30  2  0  0  0  0
 32 27  1  0  0  0  0
 33 28  1  0  0  0  0
 34 26  1  0  0  0  0
 36 35  1  0  0  0  0
 36 37  1  0  0  0  0
 37 34  1  0  0  0  0
 38 37  2  0  0  0  0
 39 38  1  0  0  0  0
 40 41  1  0  0  0  0
 40 39  2  0  0  0  0
 42 40  1  0  0  0  0
 43 42  2  0  0  0  0
 43 45  1  0  0  0  0
 44 43  1  0  0  0  0
 45 46  2  0  0  0  0
 46 39  1  0  0  0  0
 46 36  1  0  0  0  0
M  END
>  <minimizedAffinity>
-5.51012039

$$$$
