
 OpenBabel03252508253D

 44 49  0  0  1  0  0  0  0  0999 V2000
   48.0240   29.2560   47.7010 C   0  0  1  0  0  0  0  0  0  0  0  0
   47.2070   30.3700   48.2050 C   0  0  0  0  0  0  0  0  0  0  0  0
   48.0950   30.4620   46.9050 C   0  0  2  0  0  0  0  0  0  0  0  0
   47.2850   28.3900   47.5420 H   0  0  0  0  0  0  0  0  0  0  0  0
   46.1320   30.5000   48.0370 H   0  0  0  0  0  0  0  0  0  0  0  0
   47.6310   30.9090   49.0680 H   0  0  0  0  0  0  0  0  0  0  0  0
   48.7990   31.3290   47.1200 H   0  0  0  0  0  0  0  0  0  0  0  0
   47.4560   30.6610   45.6010 C   0  0  0  0  0  0  0  0  0  0  0  0
   46.2410   31.2170   45.3490 C   0  0  0  0  0  0  0  0  0  0  0  0
   45.6190   31.2750   44.1100 C   0  0  0  0  0  0  0  0  0  0  0  0
   46.3130   30.7070   43.0330 C   0  0  0  0  0  0  0  0  0  0  0  0
   47.5640   30.1310   43.2620 C   0  0  0  0  0  0  0  0  0  0  0  0
   48.2380   29.6400   42.1620 C   0  0  0  0  0  0  0  0  0  0  0  0
   49.5170   29.1230   42.3330 C   0  0  0  0  0  0  0  0  0  0  0  0
   50.1080   29.1020   43.5770 C   0  0  0  0  0  0  0  0  0  0  0  0
   49.3930   29.6030   44.6400 C   0  0  0  0  0  0  0  0  0  0  0  0
   48.1120   30.1200   44.5230 C   0  0  0  0  0  0  0  0  0  0  0  0
   45.7390   31.6450   46.2130 H   0  0  0  0  0  0  0  0  0  0  0  0
   44.6470   31.7360   43.9830 H   0  0  0  0  0  0  0  0  0  0  0  0
   45.8400   30.7400   42.0600 H   0  0  0  0  0  0  0  0  0  0  0  0
   47.7540   29.6700   41.1950 H   0  0  0  0  0  0  0  0  0  0  0  0
   49.9590   28.7580   41.3910 H   0  0  0  0  0  0  0  0  0  0  0  0
   51.0880   28.6730   43.5070 H   0  0  0  0  0  0  0  0  0  0  0  0
   50.0710   29.5570   45.4430 H   0  0  0  0  0  0  0  0  0  0  0  0
   51.3610   29.2480   49.2770 C   0  0  0  0  0  0  0  0  0  0  0  0
   51.4670   27.8950   49.7590 C   0  0  0  0  0  0  0  0  0  0  0  0
   50.3530   27.0210   49.5240 C   0  0  0  0  0  0  0  0  0  0  0  0
   49.2800   27.4860   48.8820 N   0  0  0  0  0  0  0  0  0  0  0  0
   49.2340   28.7940   48.4430 C   0  0  0  0  0  0  0  0  0  0  0  0
   50.2390   29.6410   48.6360 N   0  0  0  0  0  0  0  0  0  0  0  0
   52.2310   29.8420   49.4900 H   0  0  0  0  0  0  0  0  0  0  0  0
   52.3630   27.5750   50.2740 H   0  0  0  0  0  0  0  0  0  0  0  0
   50.4520   25.6810   49.9970 N   0  0  0  0  0  0  0  0  0  0  0  0
   49.6370   24.6330   49.7650 C   0  0  0  0  0  0  0  0  0  0  0  0
   48.7540   24.7290   49.1410 H   0  0  0  0  0  0  0  0  0  0  0  0
   50.0580   23.5210   50.3870 N   0  0  0  0  0  0  0  0  0  0  0  0
   51.1930   23.8480   51.0530 C   0  0  0  0  0  0  0  0  0  0  0  0
   52.0820   23.1670   51.8580 C   0  0  0  0  0  0  0  0  0  0  0  0
   51.8970   22.1030   52.0550 H   0  0  0  0  0  0  0  0  0  0  0  0
   53.1550   23.8070   52.3880 N   0  0  0  0  0  0  0  0  0  0  0  0
   53.3720   25.1220   52.1360 C   0  0  0  0  0  0  0  0  0  0  0  0
   54.2300   25.6350   52.5580 H   0  0  0  0  0  0  0  0  0  0  0  0
   52.5060   25.8110   51.3430 N   0  0  0  0  0  0  0  0  0  0  0  0
   51.4420   25.2040   50.8090 C   0  0  0  0  0  0  0  0  0  0  0  0
  1  4  1  6  0  0  0
  1  2  1  0  0  0  0
  1 29  1  0  0  0  0
  2  6  1  0  0  0  0
  3  7  1  1  0  0  0
  3  1  1  0  0  0  0
  3  2  1  0  0  0  0
  5  2  1  0  0  0  0
  8  3  1  0  0  0  0
  9  8  1  0  0  0  0
  9 18  1  0  0  0  0
 10  9  2  0  0  0  0
 11 12  2  0  0  0  0
 11 10  1  0  0  0  0
 12 17  1  0  0  0  0
 13 14  2  0  0  0  0
 13 12  1  0  0  0  0
 14 15  1  0  0  0  0
 15 16  2  0  0  0  0
 16 24  1  0  0  0  0
 17 16  1  0  0  0  0
 17  8  2  0  0  0  0
 19 10  1  0  0  0  0
 20 11  1  0  0  0  0
 21 13  1  0  0  0  0
 22 14  1  0  0  0  0
 23 15  1  0  0  0  0
 25 31  1  0  0  0  0
 25 26  1  0  0  0  0
 26 32  1  0  0  0  0
 27 26  2  0  0  0  0
 27 33  1  0  0  0  0
 28 27  1  0  0  0  0
 29 30  1  0  0  0  0
 29 28  2  0  0  0  0
 30 25  2  0  0  0  0
 33 44  1  0  0  0  0
 34 33  1  0  0  0  0
 34 36  2  0  0  0  0
 35 34  1  0  0  0  0
 36 37  1  0  0  0  0
 37 38  1  0  0  0  0
 38 39  1  0  0  0  0
 38 40  2  0  0  0  0
 41 40  1  0  0  0  0
 41 42  1  0  0  0  0
 43 41  2  0  0  0  0
 44 37  2  0  0  0  0
 44 43  1  0  0  0  0
M  END
>  <minimizedAffinity>
-3.87318134

>  <minimizedRMSD>
10.6547146

$$$$
