
 OpenBabel03252508173D

 50 55  0  0  1  0  0  0  0  0999 V2000
   46.8620   31.6220   48.2320 C   0  0  1  0  0  0  0  0  0  0  0  0
   46.5090   30.5490   49.2050 C   0  0  0  0  0  0  0  0  0  0  0  0
   47.7010   31.3670   49.4210 C   0  0  1  0  0  0  0  0  0  0  0  0
   46.0330   32.3900   48.2170 H   0  0  0  0  0  0  0  0  0  0  0  0
   46.7120   29.4830   48.9280 H   0  0  0  0  0  0  0  0  0  0  0  0
   45.6570   30.6220   49.8930 H   0  0  0  0  0  0  0  0  0  0  0  0
   47.6430   32.1170   50.2380 H   0  0  0  0  0  0  0  0  0  0  0  0
   49.0710   30.8070   49.2050 C   0  0  2  0  0  0  0  0  0  0  0  0
   49.5860   29.9560   50.3950 C   0  0  0  0  0  0  0  0  0  0  0  0
   50.1820   31.2740   50.1460 C   0  0  1  0  0  0  0  0  0  0  0  0
   49.3310   30.3050   48.2550 H   0  0  0  0  0  0  0  0  0  0  0  0
   48.9390   29.8820   51.2910 H   0  0  0  0  0  0  0  0  0  0  0  0
   50.2210   29.0940   50.2190 H   0  0  0  0  0  0  0  0  0  0  0  0
   49.9110   32.1670   50.7750 H   0  0  0  0  0  0  0  0  0  0  0  0
   51.4550   31.4400   49.4700 N   0  0  0  0  0  0  0  0  0  0  0  0
   52.3230   32.4250   49.7650 C   0  0  0  0  0  0  0  0  0  0  0  0
   52.2340   33.2110   50.5030 H   0  0  0  0  0  0  0  0  0  0  0  0
   53.4060   32.3120   48.9690 N   0  0  0  0  0  0  0  0  0  0  0  0
   53.1740   31.2440   48.1930 C   0  0  0  0  0  0  0  0  0  0  0  0
   53.9800   30.6940   47.1970 C   0  0  0  0  0  0  0  0  0  0  0  0
   54.9490   31.0820   46.9090 H   0  0  0  0  0  0  0  0  0  0  0  0
   53.5020   29.6050   46.5620 N   0  0  0  0  0  0  0  0  0  0  0  0
   52.3120   29.0730   46.8680 C   0  0  0  0  0  0  0  0  0  0  0  0
   51.9300   28.1990   46.3570 H   0  0  0  0  0  0  0  0  0  0  0  0
   51.5060   29.5800   47.8260 N   0  0  0  0  0  0  0  0  0  0  0  0
   51.9420   30.6630   48.4830 C   0  0  0  0  0  0  0  0  0  0  0  0
   47.2880   31.1290   46.8940 C   0  0  0  0  0  0  0  0  0  0  0  0
   46.6070   30.2680   46.6390 H   0  0  0  0  0  0  0  0  0  0  0  0
   48.3210   30.8630   46.7560 H   0  0  0  0  0  0  0  0  0  0  0  0
   46.1620   33.0600   46.1460 C   0  0  0  0  0  3  0  0  0  0  0  0
   46.9890   32.1550   45.8250 C   0  0  0  0  0  3  0  0  0  0  0  0
   44.5510   35.8660   44.3790 C   0  0  0  0  0  0  0  0  0  0  0  0
   45.1770   35.8560   43.1380 C   0  0  0  0  0  0  0  0  0  0  0  0
   46.1190   34.8980   42.9510 C   0  0  0  0  0  0  0  0  0  0  0  0
   46.4160   34.0100   43.9390 N   0  0  0  0  0  0  0  0  0  0  0  0
   45.7850   34.0510   45.1350 C   0  0  0  0  0  0  0  0  0  0  0  0
   44.8690   34.9820   45.3180 N   0  0  0  0  0  0  0  0  0  0  0  0
   43.7950   36.6130   44.5670 H   0  0  0  0  0  0  0  0  0  0  0  0
   44.9710   36.5360   42.3380 H   0  0  0  0  0  0  0  0  0  0  0  0
   46.8610   34.7630   41.7000 C   0  0  0  0  0  0  0  0  0  0  0  0
   48.0670   35.3630   41.4400 C   0  0  0  0  0  0  0  0  0  0  0  0
   48.7610   35.2300   40.2580 C   0  0  0  0  0  0  0  0  0  0  0  0
   48.2350   34.4450   39.2430 C   0  0  0  0  0  0  0  0  0  0  0  0
   47.0300   33.8230   39.4510 C   0  0  0  0  0  0  0  0  0  0  0  0
   46.3860   33.9980   40.6600 C   0  0  0  0  0  0  0  0  0  0  0  0
   48.5120   35.9920   42.2270 H   0  0  0  0  0  0  0  0  0  0  0  0
   49.7170   35.7220   40.0880 H   0  0  0  0  0  0  0  0  0  0  0  0
   48.7650   34.3340   38.3200 H   0  0  0  0  0  0  0  0  0  0  0  0
   46.5900   33.2070   38.6910 H   0  0  0  0  0  0  0  0  0  0  0  0
   45.4290   33.4790   40.7760 H   0  0  0  0  0  0  0  0  0  0  0  0
  1  4  1  1  0  0  0
  1  2  1  0  0  0  0
  1  3  1  0  0  0  0
  2  3  1  0  0  0  0
  2  6  1  0  0  0  0
  3  7  1  1  0  0  0
  5  2  1  0  0  0  0
  8 11  1  6  0  0  0
  8  3  1  0  0  0  0
  8 10  1  0  0  0  0
  8  9  1  0  0  0  0
  9 12  1  0  0  0  0
 10  9  1  0  0  0  0
 10 14  1  1  0  0  0
 13  9  1  0  0  0  0
 15 16  1  0  0  0  0
 15 10  1  0  0  0  0
 16 17  1  0  0  0  0
 18 16  2  0  0  0  0
 19 26  1  0  0  0  0
 19 18  1  0  0  0  0
 20 19  2  0  0  0  0
 21 20  1  0  0  0  0
 22 23  2  0  0  0  0
 22 20  1  0  0  0  0
 23 25  1  0  0  0  0
 24 23  1  0  0  0  0
 25 26  2  0  0  0  0
 26 15  1  0  0  0  0
 27  1  1  0  0  0  0
 28 27  1  0  0  0  0
 29 27  1  0  0  0  0
 31 30  2  0  0  0  0
 31 27  1  0  0  0  0
 32 38  1  0  0  0  0
 32 37  1  0  0  0  0
 33 32  2  0  0  0  0
 34 33  1  0  0  0  0
 34 35  2  0  0  0  0
 35 36  1  0  0  0  0
 36 37  2  0  0  0  0
 36 30  1  0  0  0  0
 39 33  1  0  0  0  0
 40 34  1  0  0  0  0
 41 40  1  0  0  0  0
 41 46  1  0  0  0  0
 42 41  2  0  0  0  0
 43 44  2  0  0  0  0
 43 42  1  0  0  0  0
 44 45  1  0  0  0  0
 45 50  1  0  0  0  0
 45 40  2  0  0  0  0
 47 42  1  0  0  0  0
 48 43  1  0  0  0  0
 49 44  1  0  0  0  0
M  END
>  <minimizedAffinity>
-6.55256081

>  <minimizedRMSD>
1.19872403

$$$$
