
 OpenBabel03242515413D

 39 43  0  0  0  0  0  0  0  0999 V2000
   36.5650   29.8210   39.3080 C   0  0  0  0  0  0  0  0  0  0  0  0
   37.5580   30.6890   39.7350 C   0  0  0  0  0  0  0  0  0  0  0  0
   38.2490   31.4090   38.7420 C   0  0  0  0  0  0  0  0  0  0  0  0
   37.9040   31.2110   37.4380 N   0  0  0  0  0  0  0  0  0  0  0  0
   36.9380   30.3610   37.0740 C   0  0  0  0  0  0  0  0  0  0  0  0
   36.2930   29.6880   38.0210 N   0  0  0  0  0  0  0  0  0  0  0  0
   37.8150   30.8300   40.7840 H   0  0  0  0  0  0  0  0  0  0  0  0
   39.2640   32.2970   39.1690 N   0  0  0  0  0  0  0  0  0  0  0  0
   39.1980   32.9330   40.3660 C   0  0  0  0  0  0  0  0  0  0  0  0
   38.3950   32.8420   41.1080 H   0  0  0  0  0  0  0  0  0  0  0  0
   40.2890   33.7300   40.5460 N   0  0  0  0  0  0  0  0  0  0  0  0
   41.0620   33.6120   39.4660 C   0  0  0  0  0  0  0  0  0  0  0  0
   42.2810   34.1610   39.0660 C   0  0  0  0  0  0  0  0  0  0  0  0
   42.7980   34.8580   39.7150 H   0  0  0  0  0  0  0  0  0  0  0  0
   42.7560   33.7810   37.8610 N   0  0  0  0  0  0  0  0  0  0  0  0
   42.1270   32.9170   37.0440 C   0  0  0  0  0  0  0  0  0  0  0  0
   42.6440   32.7130   36.1030 H   0  0  0  0  0  0  0  0  0  0  0  0
   40.9340   32.3680   37.4160 N   0  0  0  0  0  0  0  0  0  0  0  0
   40.4190   32.7260   38.6270 C   0  0  0  0  0  0  0  0  0  0  0  0
   35.7030   28.9160   40.6220 S   0  0  0  0  0  0  0  0  0  0  0  0
   37.2760   28.4470   42.7570 C   0  0  0  0  0  0  0  0  0  0  0  0
   36.8670   27.9060   41.5440 C   0  0  0  0  0  0  0  0  0  0  0  0
   37.3420   26.6950   41.1270 C   0  0  0  0  0  0  0  0  0  0  0  0
   38.2380   25.9660   41.8860 C   0  0  0  0  0  0  0  0  0  0  0  0
   38.6520   26.5130   43.1120 C   0  0  0  0  0  0  0  0  0  0  0  0
   38.1810   27.7400   43.5530 C   0  0  0  0  0  0  0  0  0  0  0  0
   39.5520   25.5840   43.6800 O   0  0  0  0  0  0  0  0  0  0  0  0
   39.9330   24.7180   42.6540 C   0  0  0  0  0  0  0  0  0  0  0  0
   38.8700   24.7330   41.7080 O   0  0  0  0  0  0  0  0  0  0  0  0
   36.9580   29.3940   43.1710 H   0  0  0  0  0  0  0  0  0  0  0  0
   36.9900   26.3140   40.1690 H   0  0  0  0  0  0  0  0  0  0  0  0
   38.5250   28.1270   44.5030 H   0  0  0  0  0  0  0  0  0  0  0  0
   40.8610   25.0190   42.1360 H   0  0  0  0  0  0  0  0  0  0  0  0
   40.0790   23.6760   43.0120 H   0  0  0  0  0  0  0  0  0  0  0  0
   36.5580   30.1300   35.7860 O   0  0  0  0  0  0  0  0  0  0  0  0
   36.9080   28.9220   35.1620 C   0  0  0  0  0  0  0  0  0  0  0  0
   38.0940   28.4230   35.6180 F   0  0  0  0  0  0  0  0  0  0  0  0
   35.8280   28.0640   35.3860 F   0  0  0  0  0  0  0  0  0  0  0  0
   37.0400   29.1840   33.7960 F   0  0  0  0  0  0  0  0  0  0  0  0
  1  2  1  0  0  0  0
  1 20  1  0  0  0  0
  2  7  1  0  0  0  0
  3  8  1  0  0  0  0
  3  2  2  0  0  0  0
  4  3  1  0  0  0  0
  5  4  2  0  0  0  0
  5  6  1  0  0  0  0
  6  1  2  0  0  0  0
  8  9  1  0  0  0  0
  9 11  2  0  0  0  0
  9 10  1  0  0  0  0
 12 11  1  0  0  0  0
 13 12  1  0  0  0  0
 13 14  1  0  0  0  0
 15 13  2  0  0  0  0
 16 18  2  0  0  0  0
 16 15  1  0  0  0  0
 17 16  1  0  0  0  0
 18 19  1  0  0  0  0
 19  8  1  0  0  0  0
 19 12  2  0  0  0  0
 20 22  1  0  0  0  0
 21 30  1  0  0  0  0
 21 26  1  0  0  0  0
 22 21  2  0  0  0  0
 23 22  1  0  0  0  0
 23 24  2  0  0  0  0
 24 25  1  0  0  0  0
 25 26  2  0  0  0  0
 25 27  1  0  0  0  0
 26 32  1  0  0  0  0
 28 34  1  0  0  0  0
 28 27  1  0  0  0  0
 29 24  1  0  0  0  0
 29 28  1  0  0  0  0
 31 23  1  0  0  0  0
 33 28  1  0  0  0  0
 35  5  1  0  0  0  0
 36 38  1  0  0  0  0
 36 37  1  0  0  0  0
 36 35  1  0  0  0  0
 39 36  1  0  0  0  0
M  END
>  <minimizedAffinity>
-6.58852816

$$$$

 OpenBabel03242515413D

 39 43  0  0  0  0  0  0  0  0999 V2000
   39.7140   30.7980   41.2250 C   0  0  0  0  0  0  0  0  0  0  0  0
   40.8910   31.5300   41.2680 C   0  0  0  0  0  0  0  0  0  0  0  0
   41.3630   32.0540   40.0500 C   0  0  0  0  0  0  0  0  0  0  0  0
   40.6450   31.8130   38.9170 N   0  0  0  0  0  0  0  0  0  0  0  0
   39.5150   31.0990   38.9250 C   0  0  0  0  0  0  0  0  0  0  0  0
   39.0790   30.6090   40.0800 N   0  0  0  0  0  0  0  0  0  0  0  0
   41.4470   31.7100   42.1880 H   0  0  0  0  0  0  0  0  0  0  0  0
   42.5620   32.8040   40.0860 N   0  0  0  0  0  0  0  0  0  0  0  0
   42.9160   33.5330   41.1750 C   0  0  0  0  0  0  0  0  0  0  0  0
   42.3480   33.6260   42.1090 H   0  0  0  0  0  0  0  0  0  0  0  0
   44.1080   34.1610   40.9640 N   0  0  0  0  0  0  0  0  0  0  0  0
   44.5260   33.8410   39.7400 C   0  0  0  0  0  0  0  0  0  0  0  0
   45.6440   34.1600   38.9690 C   0  0  0  0  0  0  0  0  0  0  0  0
   46.4080   34.8160   39.3710 H   0  0  0  0  0  0  0  0  0  0  0  0
   45.7110   33.6190   37.7350 N   0  0  0  0  0  0  0  0  0  0  0  0
   44.7720   32.8040   37.2210 C   0  0  0  0  0  0  0  0  0  0  0  0
   44.9750   32.4500   36.2060 H   0  0  0  0  0  0  0  0  0  0  0  0
   43.6700   32.4770   37.9580 N   0  0  0  0  0  0  0  0  0  0  0  0
   43.5650   33.0040   39.2110 C   0  0  0  0  0  0  0  0  0  0  0  0
   39.1440   30.1420   42.8170 S   0  0  0  0  0  0  0  0  0  0  0  0
   37.1890   28.3070   43.0650 C   0  0  0  0  0  0  0  0  0  0  0  0
   38.4880   28.4840   42.6040 C   0  0  0  0  0  0  0  0  0  0  0  0
   39.1730   27.4460   42.0380 C   0  0  0  0  0  0  0  0  0  0  0  0
   38.6090   26.1910   41.9020 C   0  0  0  0  0  0  0  0  0  0  0  0
   37.2950   26.0130   42.3690 C   0  0  0  0  0  0  0  0  0  0  0  0
   36.5840   27.0530   42.9450 C   0  0  0  0  0  0  0  0  0  0  0  0
   36.9620   24.6630   42.1150 O   0  0  0  0  0  0  0  0  0  0  0  0
   38.1610   23.9970   41.8600 C   0  0  0  0  0  0  0  0  0  0  0  0
   39.0670   24.9820   41.3770 O   0  0  0  0  0  0  0  0  0  0  0  0
   36.5680   29.0640   43.5250 H   0  0  0  0  0  0  0  0  0  0  0  0
   40.1880   27.6360   41.6920 H   0  0  0  0  0  0  0  0  0  0  0  0
   35.5740   26.8740   43.2930 H   0  0  0  0  0  0  0  0  0  0  0  0
   38.6080   23.5240   42.7520 H   0  0  0  0  0  0  0  0  0  0  0  0
   38.0500   23.2040   41.0890 H   0  0  0  0  0  0  0  0  0  0  0  0
   38.7630   30.8310   37.8200 O   0  0  0  0  0  0  0  0  0  0  0  0
   37.5580   31.5190   37.6110 C   0  0  0  0  0  0  0  0  0  0  0  0
   37.4040   31.9220   36.3160 F   0  0  0  0  0  0  0  0  0  0  0  0
   36.5550   30.6460   38.0380 F   0  0  0  0  0  0  0  0  0  0  0  0
   37.5850   32.6560   38.4220 F   0  0  0  0  0  0  0  0  0  0  0  0
  1  2  1  0  0  0  0
  1 20  1  0  0  0  0
  2  7  1  0  0  0  0
  3  8  1  0  0  0  0
  3  2  2  0  0  0  0
  4  5  2  0  0  0  0
  4  3  1  0  0  0  0
  5  6  1  0  0  0  0
  6  1  2  0  0  0  0
  8  9  1  0  0  0  0
  9 10  1  0  0  0  0
 11  9  2  0  0  0  0
 12 11  1  0  0  0  0
 13 14  1  0  0  0  0
 13 12  2  0  0  0  0
 15 13  1  0  0  0  0
 16 15  2  0  0  0  0
 16 18  1  0  0  0  0
 17 16  1  0  0  0  0
 18 19  2  0  0  0  0
 19 12  1  0  0  0  0
 19  8  1  0  0  0  0
 21 30  1  0  0  0  0
 22 20  1  0  0  0  0
 22 21  2  0  0  0  0
 23 22  1  0  0  0  0
 24 23  2  0  0  0  0
 24 25  1  0  0  0  0
 25 26  2  0  0  0  0
 26 21  1  0  0  0  0
 26 32  1  0  0  0  0
 27 25  1  0  0  0  0
 28 27  1  0  0  0  0
 28 33  1  0  0  0  0
 29 28  1  0  0  0  0
 29 24  1  0  0  0  0
 31 23  1  0  0  0  0
 34 28  1  0  0  0  0
 35  5  1  0  0  0  0
 36 35  1  0  0  0  0
 36 38  1  0  0  0  0
 36 39  1  0  0  0  0
 37 36  1  0  0  0  0
M  END
>  <minimizedAffinity>
-6.25669241

$$$$

 OpenBabel03242515413D

 39 43  0  0  0  0  0  0  0  0999 V2000
   39.0020   28.4470   42.7090 C   0  0  0  0  0  0  0  0  0  0  0  0
   40.1550   29.2170   42.7060 C   0  0  0  0  0  0  0  0  0  0  0  0
   40.0640   30.5020   42.1400 C   0  0  0  0  0  0  0  0  0  0  0  0
   38.8640   30.9070   41.6350 N   0  0  0  0  0  0  0  0  0  0  0  0
   37.7780   30.1270   41.6610 C   0  0  0  0  0  0  0  0  0  0  0  0
   37.8760   28.9160   42.1980 N   0  0  0  0  0  0  0  0  0  0  0  0
   41.1030   28.8710   43.1160 H   0  0  0  0  0  0  0  0  0  0  0  0
   41.2360   31.2950   42.1340 N   0  0  0  0  0  0  0  0  0  0  0  0
   42.1770   31.1850   43.1050 C   0  0  0  0  0  0  0  0  0  0  0  0
   42.1470   30.5070   43.9670 H   0  0  0  0  0  0  0  0  0  0  0  0
   43.2050   32.0510   42.8760 N   0  0  0  0  0  0  0  0  0  0  0  0
   42.9310   32.7220   41.7580 C   0  0  0  0  0  0  0  0  0  0  0  0
   43.5790   33.7160   41.0250 C   0  0  0  0  0  0  0  0  0  0  0  0
   44.5350   34.1000   41.3640 H   0  0  0  0  0  0  0  0  0  0  0  0
   42.9620   34.1540   39.9080 N   0  0  0  0  0  0  0  0  0  0  0  0
   41.7770   33.6890   39.4740 C   0  0  0  0  0  0  0  0  0  0  0  0
   41.4110   34.1480   38.5520 H   0  0  0  0  0  0  0  0  0  0  0  0
   41.1250   32.7150   40.1750 N   0  0  0  0  0  0  0  0  0  0  0  0
   41.7160   32.2460   41.3110 C   0  0  0  0  0  0  0  0  0  0  0  0
   39.1670   26.7980   43.4480 S   0  0  0  0  0  0  0  0  0  0  0  0
   37.1980   25.2950   42.3930 C   0  0  0  0  0  0  0  0  0  0  0  0
   38.5620   25.5480   42.3100 C   0  0  0  0  0  0  0  0  0  0  0  0
   39.3420   24.8710   41.4160 C   0  0  0  0  0  0  0  0  0  0  0  0
   38.8130   23.9180   40.5660 C   0  0  0  0  0  0  0  0  0  0  0  0
   37.4330   23.6630   40.6490 C   0  0  0  0  0  0  0  0  0  0  0  0
   36.6250   24.3390   41.5490 C   0  0  0  0  0  0  0  0  0  0  0  0
   37.1540   22.6650   39.6890 O   0  0  0  0  0  0  0  0  0  0  0  0
   38.3780   22.1000   39.3320 C   0  0  0  0  0  0  0  0  0  0  0  0
   39.3630   23.0970   39.5790 O   0  0  0  0  0  0  0  0  0  0  0  0
   36.5000   25.7770   43.0650 H   0  0  0  0  0  0  0  0  0  0  0  0
   40.4050   25.1060   41.3900 H   0  0  0  0  0  0  0  0  0  0  0  0
   35.5670   24.1130   41.5830 H   0  0  0  0  0  0  0  0  0  0  0  0
   38.6430   21.2010   39.9160 H   0  0  0  0  0  0  0  0  0  0  0  0
   38.4180   21.8170   38.2570 H   0  0  0  0  0  0  0  0  0  0  0  0
   36.5580   30.4860   41.1690 O   0  0  0  0  0  0  0  0  0  0  0  0
   36.2900   30.3450   39.7990 C   0  0  0  0  0  0  0  0  0  0  0  0
   37.1090   29.4340   39.1970 F   0  0  0  0  0  0  0  0  0  0  0  0
   34.9370   30.0040   39.7200 F   0  0  0  0  0  0  0  0  0  0  0  0
   36.5080   31.5900   39.2040 F   0  0  0  0  0  0  0  0  0  0  0  0
  1 20  1  0  0  0  0
  2  1  1  0  0  0  0
  2  7  1  0  0  0  0
  3  2  2  0  0  0  0
  4  5  2  0  0  0  0
  4  3  1  0  0  0  0
  5  6  1  0  0  0  0
  6  1  2  0  0  0  0
  8  3  1  0  0  0  0
  8  9  1  0  0  0  0
  9 10  1  0  0  0  0
 11  9  2  0  0  0  0
 12 11  1  0  0  0  0
 13 14  1  0  0  0  0
 13 12  2  0  0  0  0
 15 13  1  0  0  0  0
 16 15  2  0  0  0  0
 16 18  1  0  0  0  0
 17 16  1  0  0  0  0
 18 19  2  0  0  0  0
 19 12  1  0  0  0  0
 19  8  1  0  0  0  0
 21 30  1  0  0  0  0
 22 21  1  0  0  0  0
 22 20  1  0  0  0  0
 23 22  2  0  0  0  0
 24 25  2  0  0  0  0
 24 23  1  0  0  0  0
 25 26  1  0  0  0  0
 26 32  1  0  0  0  0
 26 21  2  0  0  0  0
 27 25  1  0  0  0  0
 28 29  1  0  0  0  0
 28 27  1  0  0  0  0
 28 33  1  0  0  0  0
 29 24  1  0  0  0  0
 31 23  1  0  0  0  0
 34 28  1  0  0  0  0
 35  5  1  0  0  0  0
 36 35  1  0  0  0  0
 37 36  1  0  0  0  0
 38 36  1  0  0  0  0
 39 36  1  0  0  0  0
M  END
>  <minimizedAffinity>
-6.19098616

$$$$

 OpenBabel03242515413D

 39 43  0  0  0  0  0  0  0  0999 V2000
   35.7950   28.3590   38.4160 C   0  0  0  0  0  0  0  0  0  0  0  0
   36.3400   27.3000   39.1250 C   0  0  0  0  0  0  0  0  0  0  0  0
   36.9360   27.5990   40.3650 C   0  0  0  0  0  0  0  0  0  0  0  0
   36.9420   28.8950   40.7870 N   0  0  0  0  0  0  0  0  0  0  0  0
   36.4040   29.8850   40.0670 C   0  0  0  0  0  0  0  0  0  0  0  0
   35.8440   29.5900   38.8990 N   0  0  0  0  0  0  0  0  0  0  0  0
   36.3210   26.2720   38.7660 H   0  0  0  0  0  0  0  0  0  0  0  0
   37.4930   26.5230   41.0950 N   0  0  0  0  0  0  0  0  0  0  0  0
   36.9840   25.2670   41.0160 C   0  0  0  0  0  0  0  0  0  0  0  0
   36.1260   24.9500   40.4110 H   0  0  0  0  0  0  0  0  0  0  0  0
   37.6920   24.4130   41.8090 N   0  0  0  0  0  0  0  0  0  0  0  0
   38.6580   25.1140   42.4010 C   0  0  0  0  0  0  0  0  0  0  0  0
   39.6800   24.8110   43.3020 C   0  0  0  0  0  0  0  0  0  0  0  0
   39.7980   23.7960   43.6630 H   0  0  0  0  0  0  0  0  0  0  0  0
   40.4840   25.8270   43.6800 N   0  0  0  0  0  0  0  0  0  0  0  0
   40.3510   27.0920   43.2410 C   0  0  0  0  0  0  0  0  0  0  0  0
   41.0830   27.7980   43.6420 H   0  0  0  0  0  0  0  0  0  0  0  0
   39.3580   27.4100   42.3590 N   0  0  0  0  0  0  0  0  0  0  0  0
   38.5240   26.4110   41.9520 C   0  0  0  0  0  0  0  0  0  0  0  0
   35.0380   27.9270   36.8250 S   0  0  0  0  0  0  0  0  0  0  0  0
   33.2920   29.2770   35.2830 C   0  0  0  0  0  0  0  0  0  0  0  0
   33.5220   28.8590   36.5890 C   0  0  0  0  0  0  0  0  0  0  0  0
   32.6330   29.1590   37.5810 C   0  0  0  0  0  0  0  0  0  0  0  0
   31.4810   29.8820   37.3320 C   0  0  0  0  0  0  0  0  0  0  0  0
   31.2490   30.3050   36.0120 C   0  0  0  0  0  0  0  0  0  0  0  0
   32.1380   30.0100   34.9910 C   0  0  0  0  0  0  0  0  0  0  0  0
   30.0260   31.0110   36.0300 O   0  0  0  0  0  0  0  0  0  0  0  0
   29.7550   31.3090   37.3650 C   0  0  0  0  0  0  0  0  0  0  0  0
   30.4270   30.3200   38.1360 O   0  0  0  0  0  0  0  0  0  0  0  0
   33.9320   29.0900   34.4320 H   0  0  0  0  0  0  0  0  0  0  0  0
   32.8590   28.8090   38.5880 H   0  0  0  0  0  0  0  0  0  0  0  0
   31.9230   30.3540   33.9870 H   0  0  0  0  0  0  0  0  0  0  0  0
   30.1170   32.3010   37.6840 H   0  0  0  0  0  0  0  0  0  0  0  0
   28.6680   31.2660   37.5970 H   0  0  0  0  0  0  0  0  0  0  0  0
   36.3860   31.1940   40.4460 O   0  0  0  0  0  0  0  0  0  0  0  0
   37.3280   32.0870   39.9120 C   0  0  0  0  0  0  0  0  0  0  0  0
   36.7710   32.9670   39.0290 F   0  0  0  0  0  0  0  0  0  0  0  0
   37.9120   32.7130   41.0170 F   0  0  0  0  0  0  0  0  0  0  0  0
   38.2810   31.3270   39.2300 F   0  0  0  0  0  0  0  0  0  0  0  0
  1  6  2  0  0  0  0
  1  2  1  0  0  0  0
  2  3  2  0  0  0  0
  3  4  1  0  0  0  0
  3  8  1  0  0  0  0
  5 35  1  0  0  0  0
  5  4  2  0  0  0  0
  6  5  1  0  0  0  0
  7  2  1  0  0  0  0
  8 19  1  0  0  0  0
  9  8  1  0  0  0  0
  9 11  2  0  0  0  0
 10  9  1  0  0  0  0
 11 12  1  0  0  0  0
 12 13  1  0  0  0  0
 13 14  1  0  0  0  0
 13 15  2  0  0  0  0
 16 17  1  0  0  0  0
 16 15  1  0  0  0  0
 18 16  2  0  0  0  0
 19 18  1  0  0  0  0
 19 12  2  0  0  0  0
 20  1  1  0  0  0  0
 21 22  1  0  0  0  0
 22 20  1  0  0  0  0
 22 23  2  0  0  0  0
 23 31  1  0  0  0  0
 24 23  1  0  0  0  0
 24 29  1  0  0  0  0
 25 27  1  0  0  0  0
 25 24  2  0  0  0  0
 26 21  2  0  0  0  0
 26 25  1  0  0  0  0
 27 28  1  0  0  0  0
 28 34  1  0  0  0  0
 28 33  1  0  0  0  0
 28 29  1  0  0  0  0
 30 21  1  0  0  0  0
 32 26  1  0  0  0  0
 36 35  1  0  0  0  0
 36 38  1  0  0  0  0
 37 36  1  0  0  0  0
 39 36  1  0  0  0  0
M  END
>  <minimizedAffinity>
-6.17618418

$$$$

 OpenBabel03242515413D

 39 43  0  0  0  0  0  0  0  0999 V2000
   38.3780   29.9710   41.7750 C   0  0  0  0  0  0  0  0  0  0  0  0
   39.5840   30.6500   41.6860 C   0  0  0  0  0  0  0  0  0  0  0  0
   39.7610   31.4950   40.5750 C   0  0  0  0  0  0  0  0  0  0  0  0
   38.7510   31.5950   39.6650 N   0  0  0  0  0  0  0  0  0  0  0  0
   37.6040   30.9190   39.7940 C   0  0  0  0  0  0  0  0  0  0  0  0
   37.4480   30.1240   40.8460 N   0  0  0  0  0  0  0  0  0  0  0  0
   40.3770   30.5530   42.4270 H   0  0  0  0  0  0  0  0  0  0  0  0
   40.9890   32.1920   40.4770 N   0  0  0  0  0  0  0  0  0  0  0  0
   41.6810   32.5760   41.5800 C   0  0  0  0  0  0  0  0  0  0  0  0
   41.3910   32.4030   42.6240 H   0  0  0  0  0  0  0  0  0  0  0  0
   42.8250   33.2270   41.2250 N   0  0  0  0  0  0  0  0  0  0  0  0
   42.8750   33.2660   39.8930 C   0  0  0  0  0  0  0  0  0  0  0  0
   43.7730   33.7820   38.9580 C   0  0  0  0  0  0  0  0  0  0  0  0
   44.6710   34.2880   39.2940 H   0  0  0  0  0  0  0  0  0  0  0  0
   43.4630   33.6160   37.6550 N   0  0  0  0  0  0  0  0  0  0  0  0
   42.3530   32.9900   37.2220 C   0  0  0  0  0  0  0  0  0  0  0  0
   42.2480   32.9390   36.1350 H   0  0  0  0  0  0  0  0  0  0  0  0
   41.4610   32.4770   38.1190 N   0  0  0  0  0  0  0  0  0  0  0  0
   41.7380   32.6250   39.4460 C   0  0  0  0  0  0  0  0  0  0  0  0
   38.1940   28.8930   43.2220 S   0  0  0  0  0  0  0  0  0  0  0  0
   39.2870   26.4330   43.1660 C   0  0  0  0  0  0  0  0  0  0  0  0
   38.2000   27.1710   42.7140 C   0  0  0  0  0  0  0  0  0  0  0  0
   37.2350   26.5860   41.9440 C   0  0  0  0  0  0  0  0  0  0  0  0
   37.2980   25.2520   41.5880 C   0  0  0  0  0  0  0  0  0  0  0  0
   38.3980   24.5060   42.0450 C   0  0  0  0  0  0  0  0  0  0  0  0
   39.3870   25.0810   42.8280 C   0  0  0  0  0  0  0  0  0  0  0  0
   38.2240   23.1950   41.5500 O   0  0  0  0  0  0  0  0  0  0  0  0
   37.2670   23.2730   40.5380 C   0  0  0  0  0  0  0  0  0  0  0  0
   36.4730   24.4170   40.8310 O   0  0  0  0  0  0  0  0  0  0  0  0
   40.0980   26.8040   43.7780 H   0  0  0  0  0  0  0  0  0  0  0  0
   36.4030   27.2070   41.6150 H   0  0  0  0  0  0  0  0  0  0  0  0
   40.2180   24.4720   43.1590 H   0  0  0  0  0  0  0  0  0  0  0  0
   37.6930   23.3990   39.5270 H   0  0  0  0  0  0  0  0  0  0  0  0
   36.6070   22.3790   40.5080 H   0  0  0  0  0  0  0  0  0  0  0  0
   36.5670   30.9850   38.9120 O   0  0  0  0  0  0  0  0  0  0  0  0
   36.5430   30.1320   37.7980 C   0  0  0  0  0  0  0  0  0  0  0  0
   37.3660   29.0530   37.9480 F   0  0  0  0  0  0  0  0  0  0  0  0
   35.2010   29.7810   37.6300 F   0  0  0  0  0  0  0  0  0  0  0  0
   36.9880   30.8730   36.7000 F   0  0  0  0  0  0  0  0  0  0  0  0
  1 20  1  0  0  0  0
  2  1  1  0  0  0  0
  2  7  1  0  0  0  0
  3  2  2  0  0  0  0
  4  5  2  0  0  0  0
  4  3  1  0  0  0  0
  5  6  1  0  0  0  0
  6  1  2  0  0  0  0
  8  3  1  0  0  0  0
  8  9  1  0  0  0  0
  9 10  1  0  0  0  0
 11  9  2  0  0  0  0
 12 11  1  0  0  0  0
 13 14  1  0  0  0  0
 13 12  2  0  0  0  0
 15 13  1  0  0  0  0
 16 15  2  0  0  0  0
 16 18  1  0  0  0  0
 17 16  1  0  0  0  0
 18 19  2  0  0  0  0
 19 12  1  0  0  0  0
 19  8  1  0  0  0  0
 21 30  1  0  0  0  0
 22 21  2  0  0  0  0
 22 20  1  0  0  0  0
 23 22  1  0  0  0  0
 24 23  2  0  0  0  0
 24 25  1  0  0  0  0
 25 26  2  0  0  0  0
 26 32  1  0  0  0  0
 26 21  1  0  0  0  0
 27 25  1  0  0  0  0
 28 29  1  0  0  0  0
 28 27  1  0  0  0  0
 29 24  1  0  0  0  0
 31 23  1  0  0  0  0
 33 28  1  0  0  0  0
 34 28  1  0  0  0  0
 35  5  1  0  0  0  0
 36 37  1  0  0  0  0
 36 35  1  0  0  0  0
 38 36  1  0  0  0  0
 39 36  1  0  0  0  0
M  END
>  <minimizedAffinity>
-6.1464448

$$$$

 OpenBabel03242515413D

 39 43  0  0  0  0  0  0  0  0999 V2000
   35.9280   28.5460   38.2760 C   0  0  0  0  0  0  0  0  0  0  0  0
   36.9400   29.4430   37.9680 C   0  0  0  0  0  0  0  0  0  0  0  0
   37.6460   30.0060   39.0480 C   0  0  0  0  0  0  0  0  0  0  0  0
   37.2980   29.6400   40.3140 N   0  0  0  0  0  0  0  0  0  0  0  0
   36.3130   28.7700   40.5620 C   0  0  0  0  0  0  0  0  0  0  0  0
   35.6530   28.2460   39.5350 N   0  0  0  0  0  0  0  0  0  0  0  0
   37.2000   29.7190   36.9470 H   0  0  0  0  0  0  0  0  0  0  0  0
   38.6810   30.9210   38.7420 N   0  0  0  0  0  0  0  0  0  0  0  0
   39.4060   30.8230   37.5990 C   0  0  0  0  0  0  0  0  0  0  0  0
   39.2870   30.0640   36.8160 H   0  0  0  0  0  0  0  0  0  0  0  0
   40.3380   31.8160   37.5360 N   0  0  0  0  0  0  0  0  0  0  0  0
   40.2170   32.5580   38.6370 C   0  0  0  0  0  0  0  0  0  0  0  0
   40.8680   33.6860   39.1370 C   0  0  0  0  0  0  0  0  0  0  0  0
   41.6740   34.1400   38.5720 H   0  0  0  0  0  0  0  0  0  0  0  0
   40.4430   34.1600   40.3270 N   0  0  0  0  0  0  0  0  0  0  0  0
   39.4440   33.6100   41.0410 C   0  0  0  0  0  0  0  0  0  0  0  0
   39.2220   34.1130   41.9860 H   0  0  0  0  0  0  0  0  0  0  0  0
   38.7940   32.5060   40.5700 N   0  0  0  0  0  0  0  0  0  0  0  0
   39.1930   31.9960   39.3700 C   0  0  0  0  0  0  0  0  0  0  0  0
   35.0460   27.8480   36.8540 S   0  0  0  0  0  0  0  0  0  0  0  0
   33.4010   29.1550   35.1700 C   0  0  0  0  0  0  0  0  0  0  0  0
   33.5720   28.8120   36.5060 C   0  0  0  0  0  0  0  0  0  0  0  0
   32.6620   29.2040   37.4460 C   0  0  0  0  0  0  0  0  0  0  0  0
   31.5450   29.9470   37.1120 C   0  0  0  0  0  0  0  0  0  0  0  0
   31.3720   30.2930   35.7610 C   0  0  0  0  0  0  0  0  0  0  0  0
   32.2840   29.9050   34.7920 C   0  0  0  0  0  0  0  0  0  0  0  0
   30.1740   31.0390   35.6910 O   0  0  0  0  0  0  0  0  0  0  0  0
   29.8690   31.4290   36.9950 C   0  0  0  0  0  0  0  0  0  0  0  0
   30.4800   30.4690   37.8490 O   0  0  0  0  0  0  0  0  0  0  0  0
   34.0630   28.8930   34.3560 H   0  0  0  0  0  0  0  0  0  0  0  0
   32.8410   28.9100   38.4790 H   0  0  0  0  0  0  0  0  0  0  0  0
   32.1150   30.1930   33.7620 H   0  0  0  0  0  0  0  0  0  0  0  0
   30.2560   32.4270   37.2650 H   0  0  0  0  0  0  0  0  0  0  0  0
   28.7740   31.4360   37.1900 H   0  0  0  0  0  0  0  0  0  0  0  0
   35.9280   28.3750   41.8080 O   0  0  0  0  0  0  0  0  0  0  0  0
   36.8550   27.7560   42.6610 C   0  0  0  0  0  0  0  0  0  0  0  0
   37.7730   27.0090   41.9810 F   0  0  0  0  0  0  0  0  0  0  0  0
   37.4300   28.7950   43.3970 F   0  0  0  0  0  0  0  0  0  0  0  0
   36.1380   26.9060   43.5060 F   0  0  0  0  0  0  0  0  0  0  0  0
  1  6  1  0  0  0  0
  2  1  2  0  0  0  0
  2  3  1  0  0  0  0
  3  4  2  0  0  0  0
  4  5  1  0  0  0  0
  5 35  1  0  0  0  0
  6  5  2  0  0  0  0
  7  2  1  0  0  0  0
  8  3  1  0  0  0  0
  8 19  1  0  0  0  0
  9  8  1  0  0  0  0
 10  9  1  0  0  0  0
 11  9  2  0  0  0  0
 11 12  1  0  0  0  0
 12 13  2  0  0  0  0
 12 19  1  0  0  0  0
 13 15  1  0  0  0  0
 14 13  1  0  0  0  0
 15 16  2  0  0  0  0
 16 17  1  0  0  0  0
 18 16  1  0  0  0  0
 19 18  2  0  0  0  0
 20  1  1  0  0  0  0
 21 22  1  0  0  0  0
 22 20  1  0  0  0  0
 22 23  2  0  0  0  0
 23 31  1  0  0  0  0
 24 23  1  0  0  0  0
 24 29  1  0  0  0  0
 25 24  2  0  0  0  0
 26 21  2  0  0  0  0
 26 25  1  0  0  0  0
 27 25  1  0  0  0  0
 27 28  1  0  0  0  0
 28 34  1  0  0  0  0
 28 33  1  0  0  0  0
 28 29  1  0  0  0  0
 30 21  1  0  0  0  0
 32 26  1  0  0  0  0
 35 36  1  0  0  0  0
 36 38  1  0  0  0  0
 36 39  1  0  0  0  0
 37 36  1  0  0  0  0
M  END
>  <minimizedAffinity>
-6.11644411

$$$$

 OpenBabel03242515413D

 39 43  0  0  0  0  0  0  0  0999 V2000
   37.0330   28.7910   42.0770 C   0  0  0  0  0  0  0  0  0  0  0  0
   36.5570   27.9340   41.0970 C   0  0  0  0  0  0  0  0  0  0  0  0
   36.1220   28.5190   39.8930 C   0  0  0  0  0  0  0  0  0  0  0  0
   36.1940   29.8740   39.7640 N   0  0  0  0  0  0  0  0  0  0  0  0
   36.6610   30.6610   40.7390 C   0  0  0  0  0  0  0  0  0  0  0  0
   37.0690   30.0980   41.8710 N   0  0  0  0  0  0  0  0  0  0  0  0
   36.5100   26.8530   41.2240 H   0  0  0  0  0  0  0  0  0  0  0  0
   35.6350   27.6500   38.8870 N   0  0  0  0  0  0  0  0  0  0  0  0
   36.1040   26.3840   38.7490 C   0  0  0  0  0  0  0  0  0  0  0  0
   36.8750   25.9050   39.3640 H   0  0  0  0  0  0  0  0  0  0  0  0
   35.4800   25.7530   37.7140 N   0  0  0  0  0  0  0  0  0  0  0  0
   34.6080   26.6080   37.1810 C   0  0  0  0  0  0  0  0  0  0  0  0
   33.6960   26.5520   36.1260 C   0  0  0  0  0  0  0  0  0  0  0  0
   33.6020   25.6440   35.5420 H   0  0  0  0  0  0  0  0  0  0  0  0
   32.9660   27.6620   35.8890 N   0  0  0  0  0  0  0  0  0  0  0  0
   33.0700   28.7960   36.6050 C   0  0  0  0  0  0  0  0  0  0  0  0
   32.4080   29.6050   36.2860 H   0  0  0  0  0  0  0  0  0  0  0  0
   33.9550   28.8730   37.6420 N   0  0  0  0  0  0  0  0  0  0  0  0
   34.7130   27.7720   37.9140 C   0  0  0  0  0  0  0  0  0  0  0  0
   37.5830   27.9950   43.6110 S   0  0  0  0  0  0  0  0  0  0  0  0
   39.0620   25.7820   43.2020 C   0  0  0  0  0  0  0  0  0  0  0  0
   39.1510   27.1620   43.3480 C   0  0  0  0  0  0  0  0  0  0  0  0
   40.3620   27.7900   43.2880 C   0  0  0  0  0  0  0  0  0  0  0  0
   41.5360   27.0890   43.0810 C   0  0  0  0  0  0  0  0  0  0  0  0
   41.4450   25.6940   42.9340 C   0  0  0  0  0  0  0  0  0  0  0  0
   40.2250   25.0380   42.9910 C   0  0  0  0  0  0  0  0  0  0  0  0
   42.7640   25.2270   42.7380 O   0  0  0  0  0  0  0  0  0  0  0  0
   43.6160   26.2590   43.1330 C   0  0  0  0  0  0  0  0  0  0  0  0
   42.8770   27.4650   42.9790 O   0  0  0  0  0  0  0  0  0  0  0  0
   38.1530   25.1960   43.2340 H   0  0  0  0  0  0  0  0  0  0  0  0
   40.3790   28.8720   43.4070 H   0  0  0  0  0  0  0  0  0  0  0  0
   40.1990   23.9620   42.8740 H   0  0  0  0  0  0  0  0  0  0  0  0
   43.9460   26.1890   44.1850 H   0  0  0  0  0  0  0  0  0  0  0  0
   44.5310   26.3180   42.5050 H   0  0  0  0  0  0  0  0  0  0  0  0
   36.7520   32.0180   40.6590 O   0  0  0  0  0  0  0  0  0  0  0  0
   37.5980   32.6050   39.7050 C   0  0  0  0  0  0  0  0  0  0  0  0
   37.0420   32.6310   38.4580 F   0  0  0  0  0  0  0  0  0  0  0  0
   37.8890   33.8780   40.2020 F   0  0  0  0  0  0  0  0  0  0  0  0
   38.7600   31.8320   39.6500 F   0  0  0  0  0  0  0  0  0  0  0  0
  1 20  1  0  0  0  0
  2  7  1  0  0  0  0
  2  1  2  0  0  0  0
  3  2  1  0  0  0  0
  4  3  2  0  0  0  0
  4  5  1  0  0  0  0
  5  6  2  0  0  0  0
  6  1  1  0  0  0  0
  8  3  1  0  0  0  0
  9  8  1  0  0  0  0
  9 10  1  0  0  0  0
 11  9  2  0  0  0  0
 12 11  1  0  0  0  0
 12 19  1  0  0  0  0
 13 12  2  0  0  0  0
 14 13  1  0  0  0  0
 15 13  1  0  0  0  0
 15 16  2  0  0  0  0
 16 18  1  0  0  0  0
 17 16  1  0  0  0  0
 18 19  2  0  0  0  0
 19  8  1  0  0  0  0
 21 30  1  0  0  0  0
 21 22  1  0  0  0  0
 22 20  1  0  0  0  0
 23 22  2  0  0  0  0
 23 31  1  0  0  0  0
 24 23  1  0  0  0  0
 25 26  1  0  0  0  0
 25 24  2  0  0  0  0
 26 21  2  0  0  0  0
 27 25  1  0  0  0  0
 27 28  1  0  0  0  0
 28 33  1  0  0  0  0
 29 24  1  0  0  0  0
 29 28  1  0  0  0  0
 32 26  1  0  0  0  0
 34 28  1  0  0  0  0
 35  5  1  0  0  0  0
 36 38  1  0  0  0  0
 36 35  1  0  0  0  0
 37 36  1  0  0  0  0
 39 36  1  0  0  0  0
M  END
>  <minimizedAffinity>
-6.08467388

$$$$

 OpenBabel03242515413D

 39 43  0  0  0  0  0  0  0  0999 V2000
   36.9960   28.0180   40.9810 C   0  0  0  0  0  0  0  0  0  0  0  0
   36.1720   28.3310   39.9110 C   0  0  0  0  0  0  0  0  0  0  0  0
   35.9760   27.3310   38.9410 C   0  0  0  0  0  0  0  0  0  0  0  0
   36.5990   26.1300   39.1090 N   0  0  0  0  0  0  0  0  0  0  0  0
   37.3860   25.8750   40.1590 C   0  0  0  0  0  0  0  0  0  0  0  0
   37.5640   26.8270   41.0680 N   0  0  0  0  0  0  0  0  0  0  0  0
   35.6850   29.2990   39.7980 H   0  0  0  0  0  0  0  0  0  0  0  0
   35.1350   27.6420   37.8460 N   0  0  0  0  0  0  0  0  0  0  0  0
   34.0950   28.5060   37.9680 C   0  0  0  0  0  0  0  0  0  0  0  0
   33.7940   29.0370   38.8790 H   0  0  0  0  0  0  0  0  0  0  0  0
   33.4410   28.6390   36.7780 N   0  0  0  0  0  0  0  0  0  0  0  0
   34.0570   27.8630   35.8870 C   0  0  0  0  0  0  0  0  0  0  0  0
   33.8650   27.5780   34.5340 C   0  0  0  0  0  0  0  0  0  0  0  0
   33.0510   28.0480   33.9930 H   0  0  0  0  0  0  0  0  0  0  0  0
   34.7270   26.7120   33.9630 N   0  0  0  0  0  0  0  0  0  0  0  0
   35.7420   26.1210   34.6190 C   0  0  0  0  0  0  0  0  0  0  0  0
   36.3500   25.4440   34.0130 H   0  0  0  0  0  0  0  0  0  0  0  0
   35.9490   26.3850   35.9430 N   0  0  0  0  0  0  0  0  0  0  0  0
   35.0980   27.2560   36.5570 C   0  0  0  0  0  0  0  0  0  0  0  0
   37.2210   29.3370   42.2050 S   0  0  0  0  0  0  0  0  0  0  0  0
   37.0650   31.5670   40.7040 C   0  0  0  0  0  0  0  0  0  0  0  0
   37.9520   30.7820   41.4300 C   0  0  0  0  0  0  0  0  0  0  0  0
   39.2720   31.1250   41.5180 C   0  0  0  0  0  0  0  0  0  0  0  0
   39.7730   32.2540   40.8960 C   0  0  0  0  0  0  0  0  0  0  0  0
   38.8740   33.0470   40.1620 C   0  0  0  0  0  0  0  0  0  0  0  0
   37.5320   32.7160   40.0620 C   0  0  0  0  0  0  0  0  0  0  0  0
   39.6290   34.1200   39.6370 O   0  0  0  0  0  0  0  0  0  0  0  0
   40.9710   33.7570   39.7470 C   0  0  0  0  0  0  0  0  0  0  0  0
   41.0440   32.8270   40.8220 O   0  0  0  0  0  0  0  0  0  0  0  0
   36.0070   31.3800   40.5760 H   0  0  0  0  0  0  0  0  0  0  0  0
   39.9270   30.4780   42.0990 H   0  0  0  0  0  0  0  0  0  0  0  0
   36.8740   33.3540   39.4860 H   0  0  0  0  0  0  0  0  0  0  0  0
   41.3790   33.2730   38.8430 H   0  0  0  0  0  0  0  0  0  0  0  0
   41.6270   34.6250   39.9800 H   0  0  0  0  0  0  0  0  0  0  0  0
   38.0310   24.6920   40.3710 O   0  0  0  0  0  0  0  0  0  0  0  0
   37.5050   23.7660   41.2850 C   0  0  0  0  0  0  0  0  0  0  0  0
   37.6580   22.4750   40.8670 F   0  0  0  0  0  0  0  0  0  0  0  0
   38.1530   24.0310   42.4940 F   0  0  0  0  0  0  0  0  0  0  0  0
   36.1390   24.0280   41.4030 F   0  0  0  0  0  0  0  0  0  0  0  0
  1  6  1  0  0  0  0
  1 20  1  0  0  0  0
  2  1  2  0  0  0  0
  3  4  2  0  0  0  0
  3  2  1  0  0  0  0
  4  5  1  0  0  0  0
  5 35  1  0  0  0  0
  5  6  2  0  0  0  0
  7  2  1  0  0  0  0
  8  9  1  0  0  0  0
  8  3  1  0  0  0  0
  9 10  1  0  0  0  0
 11  9  2  0  0  0  0
 12 19  1  0  0  0  0
 12 11  1  0  0  0  0
 13 12  2  0  0  0  0
 14 13  1  0  0  0  0
 15 13  1  0  0  0  0
 15 16  2  0  0  0  0
 16 18  1  0  0  0  0
 17 16  1  0  0  0  0
 18 19  2  0  0  0  0
 19  8  1  0  0  0  0
 21 22  1  0  0  0  0
 22 23  2  0  0  0  0
 22 20  1  0  0  0  0
 23 31  1  0  0  0  0
 24 23  1  0  0  0  0
 25 24  2  0  0  0  0
 26 25  1  0  0  0  0
 26 21  2  0  0  0  0
 27 28  1  0  0  0  0
 27 25  1  0  0  0  0
 28 34  1  0  0  0  0
 28 29  1  0  0  0  0
 29 24  1  0  0  0  0
 30 21  1  0  0  0  0
 32 26  1  0  0  0  0
 33 28  1  0  0  0  0
 35 36  1  0  0  0  0
 36 39  1  0  0  0  0
 36 38  1  0  0  0  0
 37 36  1  0  0  0  0
M  END
>  <minimizedAffinity>
-5.95309639

$$$$

 OpenBabel03242515413D

 39 43  0  0  0  0  0  0  0  0999 V2000
   37.3620   31.0750   39.5850 C   0  0  0  0  0  0  0  0  0  0  0  0
   38.0720   30.1390   40.3200 C   0  0  0  0  0  0  0  0  0  0  0  0
   37.7880   28.7830   40.0740 C   0  0  0  0  0  0  0  0  0  0  0  0
   36.8450   28.4750   39.1400 N   0  0  0  0  0  0  0  0  0  0  0  0
   36.1840   29.4140   38.4550 C   0  0  0  0  0  0  0  0  0  0  0  0
   36.4610   30.6910   38.6960 N   0  0  0  0  0  0  0  0  0  0  0  0
   38.8230   30.4110   41.0620 H   0  0  0  0  0  0  0  0  0  0  0  0
   38.5100   27.8210   40.8200 N   0  0  0  0  0  0  0  0  0  0  0  0
   39.7790   28.0520   41.2440 C   0  0  0  0  0  0  0  0  0  0  0  0
   40.3680   28.9600   41.0700 H   0  0  0  0  0  0  0  0  0  0  0  0
   40.2540   26.9790   41.9390 N   0  0  0  0  0  0  0  0  0  0  0  0
   39.2950   26.0540   41.9660 C   0  0  0  0  0  0  0  0  0  0  0  0
   39.1800   24.7750   42.5100 C   0  0  0  0  0  0  0  0  0  0  0  0
   40.0100   24.3440   43.0570 H   0  0  0  0  0  0  0  0  0  0  0  0
   38.0090   24.1320   42.3190 N   0  0  0  0  0  0  0  0  0  0  0  0
   36.9680   24.6520   41.6430 C   0  0  0  0  0  0  0  0  0  0  0  0
   36.0910   24.0040   41.5770 H   0  0  0  0  0  0  0  0  0  0  0  0
   37.0590   25.9030   41.1030 N   0  0  0  0  0  0  0  0  0  0  0  0
   38.2270   26.5860   41.2740 C   0  0  0  0  0  0  0  0  0  0  0  0
   37.7600   32.8100   39.9350 S   0  0  0  0  0  0  0  0  0  0  0  0
   40.1550   33.8600   40.5770 C   0  0  0  0  0  0  0  0  0  0  0  0
   39.4960   33.1250   39.5990 C   0  0  0  0  0  0  0  0  0  0  0  0
   40.1600   32.6980   38.4850 C   0  0  0  0  0  0  0  0  0  0  0  0
   41.5000   32.9750   38.2860 C   0  0  0  0  0  0  0  0  0  0  0  0
   42.1660   33.7180   39.2750 C   0  0  0  0  0  0  0  0  0  0  0  0
   41.5100   34.1600   40.4130 C   0  0  0  0  0  0  0  0  0  0  0  0
   43.5010   33.8600   38.8350 O   0  0  0  0  0  0  0  0  0  0  0  0
   43.5110   33.5400   37.4780 C   0  0  0  0  0  0  0  0  0  0  0  0
   42.4050   32.6710   37.2670 O   0  0  0  0  0  0  0  0  0  0  0  0
   39.7180   34.2400   41.4910 H   0  0  0  0  0  0  0  0  0  0  0  0
   39.5990   32.1260   37.7470 H   0  0  0  0  0  0  0  0  0  0  0  0
   42.0600   34.7300   41.1520 H   0  0  0  0  0  0  0  0  0  0  0  0
   43.3960   34.4130   36.8120 H   0  0  0  0  0  0  0  0  0  0  0  0
   44.4420   33.0150   37.1720 H   0  0  0  0  0  0  0  0  0  0  0  0
   35.2330   29.1570   37.5130 O   0  0  0  0  0  0  0  0  0  0  0  0
   33.9230   28.8470   37.9110 C   0  0  0  0  0  0  0  0  0  0  0  0
   33.6830   29.1700   39.2150 F   0  0  0  0  0  0  0  0  0  0  0  0
   33.0940   29.5270   37.0150 F   0  0  0  0  0  0  0  0  0  0  0  0
   33.7620   27.4670   37.7650 F   0  0  0  0  0  0  0  0  0  0  0  0
  1 20  1  0  0  0  0
  1  2  1  0  0  0  0
  2  7  1  0  0  0  0
  3  2  2  0  0  0  0
  3  8  1  0  0  0  0
  4  3  1  0  0  0  0
  5  6  1  0  0  0  0
  5  4  2  0  0  0  0
  6  1  2  0  0  0  0
  8  9  1  0  0  0  0
  8 19  1  0  0  0  0
  9 11  2  0  0  0  0
 10  9  1  0  0  0  0
 11 12  1  0  0  0  0
 12 13  1  0  0  0  0
 13 14  1  0  0  0  0
 15 13  2  0  0  0  0
 16 15  1  0  0  0  0
 17 16  1  0  0  0  0
 18 19  1  0  0  0  0
 18 16  2  0  0  0  0
 19 12  2  0  0  0  0
 21 30  1  0  0  0  0
 22 20  1  0  0  0  0
 22 21  2  0  0  0  0
 23 22  1  0  0  0  0
 24 23  2  0  0  0  0
 24 25  1  0  0  0  0
 25 26  2  0  0  0  0
 26 21  1  0  0  0  0
 26 32  1  0  0  0  0
 27 25  1  0  0  0  0
 28 27  1  0  0  0  0
 29 28  1  0  0  0  0
 29 24  1  0  0  0  0
 31 23  1  0  0  0  0
 33 28  1  0  0  0  0
 34 28  1  0  0  0  0
 35 36  1  0  0  0  0
 35  5  1  0  0  0  0
 36 37  1  0  0  0  0
 38 36  1  0  0  0  0
 39 36  1  0  0  0  0
M  END
>  <minimizedAffinity>
-5.9382

$$$$
