
 OpenBabel03252507383D

 41 46  0  0  0  0  0  0  0  0999 V2000
   45.4530   35.0220   43.7260 C   0  0  0  0  0  0  0  0  0  0  0  0
   46.1790   33.8840   44.1790 C   0  0  0  0  0  0  0  0  0  0  0  0
   45.9890   33.5180   45.5050 C   0  0  0  0  0  0  0  0  0  0  0  0
   45.1590   34.2250   46.2750 N   0  0  0  0  0  0  0  0  0  0  0  0
   44.4810   35.3040   45.8140 C   0  0  0  0  0  0  0  0  0  0  0  0
   44.6390   35.6830   44.5560 N   0  0  0  0  0  0  0  0  0  0  0  0
   46.8450   33.3090   43.5770 H   0  0  0  0  0  0  0  0  0  0  0  0
   43.8480   35.7740   46.5590 H   0  0  0  0  0  0  0  0  0  0  0  0
   47.0330   32.4890   47.4510 C   0  0  0  0  0  0  0  0  0  0  0  0
   46.6750   32.3640   46.1040 C   0  0  0  0  0  0  0  0  0  0  0  0
   46.9830   31.2100   45.4530 C   0  0  0  0  0  0  0  0  0  0  0  0
   47.6310   30.1560   46.0610 C   0  0  0  0  0  0  0  0  0  0  0  0
   48.0290   28.9450   45.6240 N   0  0  0  0  0  0  0  0  0  0  0  0
   48.6360   28.3000   46.6800 C   0  0  0  0  0  0  0  0  0  0  0  0
   48.5980   29.1200   47.7360 N   0  0  0  0  0  0  0  0  0  0  0  0
   47.9890   30.2610   47.3800 C   0  0  0  0  0  0  0  0  0  0  0  0
   47.6910   31.4210   48.0720 C   0  0  0  0  0  0  0  0  0  0  0  0
   46.8360   33.3630   48.0620 H   0  0  0  0  0  0  0  0  0  0  0  0
   46.6930   31.1320   44.3970 H   0  0  0  0  0  0  0  0  0  0  0  0
   47.8590   28.6470   44.6380 H   0  0  0  0  0  0  0  0  0  0  0  0
   49.0070   27.3070   46.4640 H   0  0  0  0  0  0  0  0  0  0  0  0
   47.9900   31.4670   49.1110 H   0  0  0  0  0  0  0  0  0  0  0  0
   45.6340   35.3990   42.4030 O   0  0  0  0  0  0  0  0  0  0  0  0
   45.1220   34.6520   41.3770 C   0  0  0  0  0  0  0  0  0  0  0  0
   43.7980   34.6110   41.6340 C   0  0  0  0  0  0  0  0  0  0  0  0
   43.1210   33.5700   40.2060 S   0  0  0  0  0  0  0  0  0  0  0  0
   44.8860   33.4010   39.5210 C   0  0  0  0  0  0  0  0  0  0  0  0
   45.4310   33.9860   40.2840 N   0  0  0  0  0  0  0  0  0  0  0  0
   42.8440   34.8720   42.2620 H   0  0  0  0  0  0  0  0  0  0  0  0
   45.4210   32.7130   38.3390 N   0  0  0  0  0  0  0  0  0  0  0  0
   44.7860   31.7150   37.7340 C   0  0  0  0  0  0  0  0  0  0  0  0
   43.8270   31.2670   37.9920 H   0  0  0  0  0  0  0  0  0  0  0  0
   45.5950   31.3730   36.7180 N   0  0  0  0  0  0  0  0  0  0  0  0
   46.6850   32.1500   36.7210 C   0  0  0  0  0  0  0  0  0  0  0  0
   47.8090   32.2130   35.9060 C   0  0  0  0  0  0  0  0  0  0  0  0
   47.9360   31.5470   35.0710 H   0  0  0  0  0  0  0  0  0  0  0  0
   48.7890   33.1070   36.1270 N   0  0  0  0  0  0  0  0  0  0  0  0
   48.6750   33.9690   37.1710 C   0  0  0  0  0  0  0  0  0  0  0  0
   49.4670   34.6980   37.3550 H   0  0  0  0  0  0  0  0  0  0  0  0
   47.5760   33.9170   37.9760 N   0  0  0  0  0  0  0  0  0  0  0  0
   46.5830   33.0320   37.7770 C   0  0  0  0  0  0  0  0  0  0  0  0
  1  2  2  0  0  0  0
  1  6  1  0  0  0  0
  2  3  1  0  0  0  0
  3 10  1  0  0  0  0
  3  4  2  0  0  0  0
  5  4  1  0  0  0  0
  5  8  1  0  0  0  0
  6  5  2  0  0  0  0
  7  2  1  0  0  0  0
  9 18  1  0  0  0  0
  9 17  1  0  0  0  0
 10  9  2  0  0  0  0
 11 12  2  0  0  0  0
 11 10  1  0  0  0  0
 12 16  1  0  0  0  0
 13 12  1  0  0  0  0
 13 14  1  0  0  0  0
 14 15  2  0  0  0  0
 16 15  1  0  0  0  0
 16 17  2  0  0  0  0
 17 22  1  0  0  0  0
 19 11  1  0  0  0  0
 20 13  1  0  0  0  0
 21 14  1  0  0  0  0
 23  1  1  0  0  0  0
 24 25  2  0  0  0  0
 24 23  1  0  0  0  0
 25 29  1  0  0  0  0
 26 25  1  0  0  0  0
 27 26  1  0  0  0  0
 27 28  2  0  0  0  0
 28 24  1  0  0  0  0
 30 27  1  0  0  0  0
 31 32  1  0  0  0  0
 31 30  1  0  0  0  0
 33 34  1  0  0  0  0
 33 31  2  0  0  0  0
 34 41  1  0  0  0  0
 35 37  1  0  0  0  0
 35 34  2  0  0  0  0
 36 35  1  0  0  0  0
 37 38  2  0  0  0  0
 38 39  1  0  0  0  0
 38 40  1  0  0  0  0
 41 40  2  0  0  0  0
 41 30  1  0  0  0  0
M  END
>  <minimizedAffinity>
-6.54809427

>  <minimizedRMSD>
5.00078154

$$$$
