
 OpenBabel03252502563D

 40 43  0  0  0  0  0  0  0  0999 V2000
   45.6020   29.8780   44.7260 Br  0  0  0  0  0  0  0  0  0  0  0  0
   45.6630   30.5010   46.5490 C   0  0  0  0  0  0  0  0  0  0  0  0
   46.3370   31.6740   46.7720 C   0  0  0  0  0  0  0  0  0  0  0  0
   46.3640   32.1000   48.1030 C   0  0  0  0  0  0  0  0  0  0  0  0
   45.7600   31.4000   49.1220 C   0  0  0  0  0  0  0  0  0  0  0  0
   45.1020   30.2340   48.8310 C   0  0  0  0  0  0  0  0  0  0  0  0
   45.0420   29.7650   47.5450 C   0  0  0  0  0  0  0  0  0  0  0  0
   46.8750   33.0140   48.3620 H   0  0  0  0  0  0  0  0  0  0  0  0
   45.7910   31.7450   50.1480 H   0  0  0  0  0  0  0  0  0  0  0  0
   44.6080   29.6360   49.5840 H   0  0  0  0  0  0  0  0  0  0  0  0
   47.0120   32.4970   45.7720 C   0  0  0  0  0  0  0  0  0  0  0  0
   47.9560   32.8940   46.2130 H   0  0  0  0  0  0  0  0  0  0  0  0
   47.2910   31.8380   44.9180 H   0  0  0  0  0  0  0  0  0  0  0  0
   44.5400   35.2710   45.5040 C   0  0  0  0  0  0  0  0  0  0  0  0
   44.7340   35.7180   44.1950 C   0  0  0  0  0  0  0  0  0  0  0  0
   45.7040   35.0630   43.4340 C   0  0  0  0  0  0  0  0  0  0  0  0
   46.4090   34.0380   43.9760 N   0  0  0  0  0  0  0  0  0  0  0  0
   46.1900   33.6300   45.2640 C   0  0  0  0  0  0  0  0  0  0  0  0
   45.2550   34.2680   45.9820 N   0  0  0  0  0  0  0  0  0  0  0  0
   43.7990   35.7600   46.1090 H   0  0  0  0  0  0  0  0  0  0  0  0
   44.1430   36.5390   43.8120 H   0  0  0  0  0  0  0  0  0  0  0  0
   45.8550   35.4070   42.4200 H   0  0  0  0  0  0  0  0  0  0  0  0
   44.3710   28.5790   47.2560 O   0  0  0  0  0  0  0  0  0  0  0  0
   44.0830   26.0020   47.1080 O   0  0  0  0  0  0  0  0  0  0  0  0
   44.8580   27.0650   47.8710 P   0  0  2  0  0  0  0  0  0  0  0  0
   44.4380   27.0170   49.4960 O   0  0  0  0  0  0  0  0  0  0  0  0
   45.2150   26.9970   50.0860 H   0  0  0  0  0  0  0  0  0  0  0  0
   46.5000   26.7870   47.6490 O   0  0  0  0  0  0  0  0  0  0  0  0
   49.0580   27.1450   48.5610 H   0  0  0  0  0  0  0  0  0  0  0  0
   48.5190   26.2630   48.7600 N   0  0  0  0  0  0  0  0  0  0  0  0
   47.2550   25.8970   48.4020 C   0  0  0  0  0  0  0  0  0  0  0  0
   47.0280   24.6710   48.9020 N   0  0  0  0  0  0  0  0  0  0  0  0
   48.0990   24.2260   49.5730 C   0  0  0  0  0  0  0  0  0  0  0  0
   48.4100   23.0740   50.2650 C   0  0  0  0  0  0  0  0  0  0  0  0
   47.6320   22.3340   50.2950 H   0  0  0  0  0  0  0  0  0  0  0  0
   49.6100   22.9090   50.8550 N   0  0  0  0  0  0  0  0  0  0  0  0
   50.5200   23.9220   50.7480 C   0  0  0  0  0  0  0  0  0  0  0  0
   51.4660   23.7270   51.2440 H   0  0  0  0  0  0  0  0  0  0  0  0
   50.2440   25.0640   50.0750 N   0  0  0  0  0  0  0  0  0  0  0  0
   49.0470   25.2510   49.4760 C   0  0  0  0  0  0  0  0  0  0  0  0
  1  2  1  0  0  0  0
  2  3  2  0  0  0  0
  2  7  1  0  0  0  0
  3  4  1  0  0  0  0
  4  8  1  0  0  0  0
  4  5  2  0  0  0  0
  5  9  1  0  0  0  0
  6  5  1  0  0  0  0
  6 10  1  0  0  0  0
  7  6  2  0  0  0  0
 11 12  1  0  0  0  0
 11  3  1  0  0  0  0
 13 11  1  0  0  0  0
 14 19  1  0  0  0  0
 14 20  1  0  0  0  0
 15 14  2  0  0  0  0
 16 17  2  0  0  0  0
 16 15  1  0  0  0  0
 17 18  1  0  0  0  0
 18 11  1  0  0  0  0
 18 19  2  0  0  0  0
 21 15  1  0  0  0  0
 22 16  1  0  0  0  0
 23  7  1  0  0  0  0
 23 25  1  0  0  0  0
 25 24  2  6  0  0  0
 25 26  1  0  0  0  0
 26 27  1  0  0  0  0
 28 25  1  0  0  0  0
 28 31  1  0  0  0  0
 29 30  1  0  0  0  0
 30 40  1  0  0  0  0
 31 30  1  0  0  0  0
 31 32  2  0  0  0  0
 32 33  1  0  0  0  0
 33 34  1  0  0  0  0
 34 35  1  0  0  0  0
 34 36  2  0  0  0  0
 37 36  1  0  0  0  0
 37 38  1  0  0  0  0
 39 37  2  0  0  0  0
 40 33  2  0  0  0  0
 40 39  1  0  0  0  0
M  END
>  <minimizedAffinity>
-5.94806862

>  <minimizedRMSD>
2.35961604

$$$$
