
 OpenBabel03252502003D

 37 41  0  0  0  0  0  0  0  0999 V2000
   47.6360   32.2370   48.1080 C   0  0  0  0  0  0  0  0  0  0  0  0
   47.2710   30.9080   48.1590 C   0  0  0  0  0  0  0  0  0  0  0  0
   46.3900   30.4920   47.2060 C   0  0  0  0  0  0  0  0  0  0  0  0
   45.9220   31.3480   46.2860 N   0  0  0  0  0  0  0  0  0  0  0  0
   46.2790   32.6340   46.2450 C   0  0  0  0  0  0  0  0  0  0  0  0
   47.1380   33.0390   47.1710 N   0  0  0  0  0  0  0  0  0  0  0  0
   48.3470   32.5700   48.8760 H   0  0  0  0  0  0  0  0  0  0  0  0
   45.9450   29.1710   47.1530 N   0  0  0  0  0  0  0  0  0  0  0  0
   44.7340   28.6650   46.8530 C   0  0  0  0  0  0  0  0  0  0  0  0
   43.8640   29.2520   46.5900 H   0  0  0  0  0  0  0  0  0  0  0  0
   44.7640   27.3210   46.9280 N   0  0  0  0  0  0  0  0  0  0  0  0
   46.0040   26.9380   47.2800 C   0  0  0  0  0  0  0  0  0  0  0  0
   46.5650   25.6940   47.4920 C   0  0  0  0  0  0  0  0  0  0  0  0
   45.9440   24.8090   47.3700 H   0  0  0  0  0  0  0  0  0  0  0  0
   47.8630   25.6670   47.8410 N   0  0  0  0  0  0  0  0  0  0  0  0
   48.6010   26.7900   47.9830 C   0  0  0  0  0  0  0  0  0  0  0  0
   49.6540   26.7000   48.2700 H   0  0  0  0  0  0  0  0  0  0  0  0
   48.0360   27.9820   47.7720 N   0  0  0  0  0  0  0  0  0  0  0  0
   46.7270   28.0820   47.4160 C   0  0  0  0  0  0  0  0  0  0  0  0
   45.8980   33.7290   45.3430 C   0  0  0  0  0  0  0  0  0  0  0  0
   44.9270   34.6280   45.6260 N   0  0  0  0  0  0  0  0  0  0  0  0
   44.5520   35.6320   44.8380 C   0  0  0  0  0  0  0  0  0  0  0  0
   45.1640   35.8070   43.6490 N   0  0  0  0  0  0  0  0  0  0  0  0
   46.1490   34.9770   43.2490 C   0  0  0  0  0  0  0  0  0  0  0  0
   46.7720   35.1620   42.0280 C   0  0  0  0  0  0  0  0  0  0  0  0
   47.7740   34.3230   41.6190 C   0  0  0  0  0  0  0  0  0  0  0  0
   48.1310   33.2980   42.4620 C   0  0  0  0  0  0  0  0  0  0  0  0
   47.4900   33.1470   43.6650 C   0  0  0  0  0  0  0  0  0  0  0  0
   46.4830   33.9570   44.1220 C   0  0  0  0  0  0  0  0  0  0  0  0
   43.7610   36.2930   45.1670 H   0  0  0  0  0  0  0  0  0  0  0  0
   46.4710   35.9790   41.3820 H   0  0  0  0  0  0  0  0  0  0  0  0
   48.2930   34.4230   40.6770 H   0  0  0  0  0  0  0  0  0  0  0  0
   48.9160   32.6070   42.1880 H   0  0  0  0  0  0  0  0  0  0  0  0
   47.8100   32.3160   44.3010 H   0  0  0  0  0  0  0  0  0  0  0  0
   47.7970   30.0570   49.1470 N   0  0  0  0  0  0  0  0  0  0  0  0
   47.2990   29.8660   50.0430 H   0  0  0  0  0  0  0  0  0  0  0  0
   48.7050   29.5240   49.1320 H   0  0  0  0  0  0  0  0  0  0  0  0
  1  2  1  0  0  0  0
  1  7  1  0  0  0  0
  2 35  1  0  0  0  0
  3  2  2  0  0  0  0
  4  3  1  0  0  0  0
  5  4  2  0  0  0  0
  5  6  1  0  0  0  0
  6  1  2  0  0  0  0
  8  3  1  0  0  0  0
  8 19  1  0  0  0  0
  9 11  2  0  0  0  0
  9  8  1  0  0  0  0
 10  9  1  0  0  0  0
 11 12  1  0  0  0  0
 12 19  2  0  0  0  0
 12 13  1  0  0  0  0
 13 15  2  0  0  0  0
 14 13  1  0  0  0  0
 15 16  1  0  0  0  0
 16 17  1  0  0  0  0
 18 16  2  0  0  0  0
 19 18  1  0  0  0  0
 20 21  1  0  0  0  0
 20  5  1  0  0  0  0
 22 30  1  0  0  0  0
 22 21  2  0  0  0  0
 23 22  1  0  0  0  0
 24 23  2  0  0  0  0
 24 29  1  0  0  0  0
 25 24  1  0  0  0  0
 26 25  2  0  0  0  0
 26 27  1  0  0  0  0
 27 28  2  0  0  0  0
 28 29  1  0  0  0  0
 28 34  1  0  0  0  0
 29 20  2  0  0  0  0
 31 25  1  0  0  0  0
 32 26  1  0  0  0  0
 33 27  1  0  0  0  0
 35 36  1  0  0  0  0
 37 35  1  0  0  0  0
M  END
>  <minimizedAffinity>
-6.80845404

>  <minimizedRMSD>
0.168193579

$$$$
