
 OpenBabel03252509083D

 44 48  0  0  0  0  0  0  0  0999 V2000
   47.7230   31.8260   38.9430 C   0  0  0  0  0  0  0  0  0  0  0  0
   47.2290   33.0960   38.9310 C   0  0  0  0  0  0  0  0  0  0  0  0
   47.8140   34.0530   38.1190 C   0  0  0  0  0  0  0  0  0  0  0  0
   48.8870   33.7280   37.3270 C   0  0  0  0  0  0  0  0  0  0  0  0
   49.4200   32.4400   37.3100 C   0  0  0  0  0  0  0  0  0  0  0  0
   48.8150   31.4880   38.1370 C   0  0  0  0  0  0  0  0  0  0  0  0
   47.4540   35.0750   38.0800 H   0  0  0  0  0  0  0  0  0  0  0  0
   49.4180   34.3860   36.6620 H   0  0  0  0  0  0  0  0  0  0  0  0
   50.2490   32.1190   36.7200 H   0  0  0  0  0  0  0  0  0  0  0  0
   49.2220   30.4730   38.1350 H   0  0  0  0  0  0  0  0  0  0  0  0
   45.4040   35.3180   43.2200 Cl  0  0  0  0  0  0  0  0  0  0  0  0
   45.2370   34.5530   41.6590 C   0  0  0  0  0  0  0  0  0  0  0  0
   46.3250   34.1590   40.9480 C   0  0  0  0  0  0  0  0  0  0  0  0
   46.0880   33.5480   39.7300 C   0  0  0  0  0  0  0  0  0  0  0  0
   44.8160   33.3470   39.2530 C   0  0  0  0  0  0  0  0  0  0  0  0
   43.7420   33.7460   39.9770 C   0  0  0  0  0  0  0  0  0  0  0  0
   43.9610   34.3560   41.1910 C   0  0  0  0  0  0  0  0  0  0  0  0
   44.7080   32.8580   38.2840 H   0  0  0  0  0  0  0  0  0  0  0  0
   42.7800   33.5610   39.5510 H   0  0  0  0  0  0  0  0  0  0  0  0
   43.0850   34.6650   41.7480 H   0  0  0  0  0  0  0  0  0  0  0  0
   49.5920   35.7910   41.9000 C   0  0  0  0  0  0  0  0  0  0  0  0
   48.3170   35.5840   41.3650 C   0  0  0  0  0  0  0  0  0  0  0  0
   47.6490   34.3860   41.4980 C   0  0  0  0  0  0  0  0  0  0  0  0
   48.3310   33.4310   42.1870 N   0  0  0  0  0  0  0  0  0  0  0  0
   49.5480   33.6180   42.7000 C   0  0  0  0  0  0  0  0  0  0  0  0
   50.1700   34.7920   42.5540 N   0  0  0  0  0  0  0  0  0  0  0  0
   50.0000   36.7850   41.7190 H   0  0  0  0  0  0  0  0  0  0  0  0
   47.8090   36.3680   40.8260 H   0  0  0  0  0  0  0  0  0  0  0  0
   49.9890   32.7840   43.2270 H   0  0  0  0  0  0  0  0  0  0  0  0
   47.0130   30.6270   39.8840 S   0  0  0  0  0  0  0  0  0  0  0  0
   45.5550   30.4100   39.5500 O   0  0  0  0  0  0  0  0  0  0  0  0
   47.6850   29.3010   39.3640 O   0  0  0  0  0  0  0  0  0  0  0  0
   45.2910   31.5630   42.1040 H   0  0  0  0  0  0  0  0  0  0  0  0
   46.1910   31.0470   42.3750 N   0  0  0  0  0  0  0  0  0  0  0  0
   47.1780   30.4880   41.5850 C   0  0  0  0  0  0  0  0  0  0  0  0
   47.9690   30.0290   42.5700 N   0  0  0  0  0  0  0  0  0  0  0  0
   47.5340   30.2680   43.7870 C   0  0  0  0  0  0  0  0  0  0  0  0
   48.1510   29.9060   44.9830 C   0  0  0  0  0  0  0  0  0  0  0  0
   49.0900   29.3690   45.0080 H   0  0  0  0  0  0  0  0  0  0  0  0
   47.5180   30.2600   46.1320 N   0  0  0  0  0  0  0  0  0  0  0  0
   46.3510   30.9280   46.0540 C   0  0  0  0  0  0  0  0  0  0  0  0
   45.8600   31.2020   46.9670 H   0  0  0  0  0  0  0  0  0  0  0  0
   45.7730   31.2670   44.8630 N   0  0  0  0  0  0  0  0  0  0  0  0
   46.3500   30.9460   43.7000 C   0  0  0  0  0  0  0  0  0  0  0  0
  1 30  1  0  0  0  0
  2  1  1  0  0  0  0
  2 14  1  0  0  0  0
  3  2  2  0  0  0  0
  4  3  1  0  0  0  0
  5  4  2  0  0  0  0
  5  6  1  0  0  0  0
  6  1  2  0  0  0  0
  7  3  1  0  0  0  0
  8  4  1  0  0  0  0
  9  5  1  0  0  0  0
 10  6  1  0  0  0  0
 12 11  1  0  0  0  0
 13 23  1  0  0  0  0
 13 12  2  0  0  0  0
 14 13  1  0  0  0  0
 15 14  2  0  0  0  0
 15 16  1  0  0  0  0
 16 17  2  0  0  0  0
 17 12  1  0  0  0  0
 17 20  1  0  0  0  0
 18 15  1  0  0  0  0
 19 16  1  0  0  0  0
 21 26  1  0  0  0  0
 22 23  1  0  0  0  0
 22 21  2  0  0  0  0
 23 24  2  0  0  0  0
 24 25  1  0  0  0  0
 25 29  1  0  0  0  0
 26 25  2  0  0  0  0
 27 21  1  0  0  0  0
 28 22  1  0  0  0  0
 30 35  1  0  0  0  0
 31 30  2  0  0  0  0
 32 30  2  0  0  0  0
 33 34  1  0  0  0  0
 34 44  1  0  0  0  0
 35 34  1  0  0  0  0
 35 36  2  0  0  0  0
 36 37  1  0  0  0  0
 37 38  1  0  0  0  0
 38 39  1  0  0  0  0
 38 40  2  0  0  0  0
 41 40  1  0  0  0  0
 41 42  1  0  0  0  0
 43 41  2  0  0  0  0
 44 37  2  0  0  0  0
 44 43  1  0  0  0  0
M  END
>  <minimizedAffinity>
-5.24632263

>  <minimizedRMSD>
2.07141566

$$$$
