
 OpenBabel03252502003D

 37 41  0  0  0  0  0  0  0  0999 V2000
   47.8190   32.0760   48.2560 C   0  0  0  0  0  0  0  0  0  0  0  0
   47.5790   30.7190   48.2270 C   0  0  0  0  0  0  0  0  0  0  0  0
   46.7330   30.2800   47.2520 C   0  0  0  0  0  0  0  0  0  0  0  0
   46.1810   31.1420   46.3860 N   0  0  0  0  0  0  0  0  0  0  0  0
   46.4180   32.4560   46.4220 C   0  0  0  0  0  0  0  0  0  0  0  0
   47.2420   32.8830   47.3700 N   0  0  0  0  0  0  0  0  0  0  0  0
   48.5010   32.4270   49.0420 H   0  0  0  0  0  0  0  0  0  0  0  0
   46.4120   28.9290   47.1210 N   0  0  0  0  0  0  0  0  0  0  0  0
   47.0720   27.8290   47.5310 C   0  0  0  0  0  0  0  0  0  0  0  0
   48.0150   27.8310   48.0610 H   0  0  0  0  0  0  0  0  0  0  0  0
   46.3840   26.7230   47.1840 N   0  0  0  0  0  0  0  0  0  0  0  0
   45.2640   27.0990   46.5410 C   0  0  0  0  0  0  0  0  0  0  0  0
   44.2280   26.3750   45.9860 C   0  0  0  0  0  0  0  0  0  0  0  0
   44.2570   25.2880   46.0400 H   0  0  0  0  0  0  0  0  0  0  0  0
   43.2400   27.0790   45.4060 N   0  0  0  0  0  0  0  0  0  0  0  0
   43.2410   28.4290   45.3570 C   0  0  0  0  0  0  0  0  0  0  0  0
   42.4070   28.9440   44.8700 H   0  0  0  0  0  0  0  0  0  0  0  0
   44.2560   29.1060   45.9030 N   0  0  0  0  0  0  0  0  0  0  0  0
   45.2870   28.4580   46.5050 C   0  0  0  0  0  0  0  0  0  0  0  0
   45.9320   33.5630   45.5880 C   0  0  0  0  0  0  0  0  0  0  0  0
   44.9780   34.4360   45.9860 N   0  0  0  0  0  0  0  0  0  0  0  0
   44.5090   35.4500   45.2620 C   0  0  0  0  0  0  0  0  0  0  0  0
   44.9980   35.6630   44.0230 N   0  0  0  0  0  0  0  0  0  0  0  0
   45.9530   34.8610   43.5100 C   0  0  0  0  0  0  0  0  0  0  0  0
   46.4510   35.0850   42.2380 C   0  0  0  0  0  0  0  0  0  0  0  0
   47.4220   34.2760   41.7140 C   0  0  0  0  0  0  0  0  0  0  0  0
   47.8780   33.2390   42.4930 C   0  0  0  0  0  0  0  0  0  0  0  0
   47.3610   33.0490   43.7490 C   0  0  0  0  0  0  0  0  0  0  0  0
   46.3890   33.8290   44.3210 C   0  0  0  0  0  0  0  0  0  0  0  0
   43.7430   36.0880   45.6820 H   0  0  0  0  0  0  0  0  0  0  0  0
   46.0730   35.9090   41.6450 H   0  0  0  0  0  0  0  0  0  0  0  0
   47.8440   34.4060   40.7280 H   0  0  0  0  0  0  0  0  0  0  0  0
   48.6440   32.5700   42.1280 H   0  0  0  0  0  0  0  0  0  0  0  0
   47.7570   32.2110   44.3300 H   0  0  0  0  0  0  0  0  0  0  0  0
   48.1870   29.8620   49.1620 N   0  0  0  0  0  0  0  0  0  0  0  0
   47.7160   29.5730   50.0460 H   0  0  0  0  0  0  0  0  0  0  0  0
   49.1410   29.4170   49.1140 H   0  0  0  0  0  0  0  0  0  0  0  0
  1  7  1  0  0  0  0
  2  1  1  0  0  0  0
  2 35  1  0  0  0  0
  3  2  2  0  0  0  0
  4  5  2  0  0  0  0
  4  3  1  0  0  0  0
  5  6  1  0  0  0  0
  6  1  2  0  0  0  0
  8  3  1  0  0  0  0
  8  9  1  0  0  0  0
  9 10  1  0  0  0  0
 11  9  2  0  0  0  0
 12 11  1  0  0  0  0
 13 14  1  0  0  0  0
 13 12  2  0  0  0  0
 15 13  1  0  0  0  0
 16 15  2  0  0  0  0
 16 18  1  0  0  0  0
 17 16  1  0  0  0  0
 18 19  2  0  0  0  0
 19 12  1  0  0  0  0
 19  8  1  0  0  0  0
 20 21  1  0  0  0  0
 20  5  1  0  0  0  0
 22 30  1  0  0  0  0
 22 21  2  0  0  0  0
 23 22  1  0  0  0  0
 24 23  2  0  0  0  0
 24 29  1  0  0  0  0
 25 24  1  0  0  0  0
 26 25  2  0  0  0  0
 26 27  1  0  0  0  0
 27 28  2  0  0  0  0
 28 29  1  0  0  0  0
 28 34  1  0  0  0  0
 29 20  2  0  0  0  0
 31 25  1  0  0  0  0
 32 26  1  0  0  0  0
 33 27  1  0  0  0  0
 35 36  1  0  0  0  0
 37 35  1  0  0  0  0
M  END
>  <minimizedAffinity>
-6.69693518

>  <minimizedRMSD>
0.538493037

$$$$
