
 OpenBabel03242510123D

 45 49  0  0  1  0  0  0  0  0999 V2000
   47.0380   33.0270   38.7440 N   0  0  0  0  0  0  0  0  0  0  0  0
   46.4260   33.3930   37.4740 C   0  0  0  0  0  0  0  0  0  0  0  0
   45.5060   32.2950   36.9690 C   0  0  0  0  0  0  0  0  0  0  0  0
   46.2370   31.0910   36.6770 N   0  0  0  0  0  0  0  0  0  0  0  0
   47.5140   31.1490   37.3600 C   0  0  0  0  0  0  0  0  0  0  0  0
   47.3070   31.5910   38.8080 C   0  0  1  0  0  0  0  0  0  0  0  0
   45.8220   34.2920   37.6770 H   0  0  0  0  0  0  0  0  0  0  0  0
   47.2020   33.6700   36.7410 H   0  0  0  0  0  0  0  0  0  0  0  0
   44.7830   32.1040   37.7850 H   0  0  0  0  0  0  0  0  0  0  0  0
   44.9820   32.7030   36.0960 H   0  0  0  0  0  0  0  0  0  0  0  0
   46.4560   31.0840   35.6430 H   0  0  0  0  0  0  0  0  0  0  0  0
   47.9010   30.1090   37.4070 H   0  0  0  0  0  0  0  0  0  0  0  0
   48.2350   31.8070   36.8400 H   0  0  0  0  0  0  0  0  0  0  0  0
   46.4320   31.0510   39.2030 H   0  0  0  0  0  0  0  0  0  0  0  0
   48.5310   31.2970   39.5340 N   0  0  0  0  0  0  0  0  0  0  0  0
   48.6280   30.8350   40.8140 C   0  0  0  0  0  0  0  0  0  0  0  0
   47.8010   30.6110   41.5010 H   0  0  0  0  0  0  0  0  0  0  0  0
   49.9050   30.6780   41.1550 N   0  0  0  0  0  0  0  0  0  0  0  0
   50.6920   31.0290   40.1150 C   0  0  0  0  0  0  0  0  0  0  0  0
   52.0620   31.0470   39.9630 C   0  0  0  0  0  0  0  0  0  0  0  0
   52.7330   30.7380   40.7710 H   0  0  0  0  0  0  0  0  0  0  0  0
   52.5080   31.4650   38.7660 N   0  0  0  0  0  0  0  0  0  0  0  0
   51.6740   31.8440   37.7740 C   0  0  0  0  0  0  0  0  0  0  0  0
   52.0530   32.1840   36.7980 H   0  0  0  0  0  0  0  0  0  0  0  0
   50.3400   31.8160   37.9510 N   0  0  0  0  0  0  0  0  0  0  0  0
   49.8050   31.4110   39.1190 C   0  0  0  0  0  0  0  0  0  0  0  0
   45.0810   32.9120   41.1940 Br  0  0  0  0  0  0  0  0  0  0  0  0
   46.6330   33.9860   40.9930 C   0  0  0  0  0  0  0  0  0  0  0  0
   47.0160   34.8410   41.9900 C   0  0  0  0  0  0  0  0  0  0  0  0
   48.1630   35.6450   41.8610 C   0  0  0  0  0  0  0  0  0  0  0  0
   48.8920   35.5480   40.7010 C   0  0  0  0  0  0  0  0  0  0  0  0
   48.4650   34.6730   39.7290 C   0  0  0  0  0  0  0  0  0  0  0  0
   47.3670   33.8940   39.8350 C   0  0  0  0  0  0  0  0  0  0  0  0
   48.4070   36.2890   42.6730 H   0  0  0  0  0  0  0  0  0  0  0  0
   49.7700   36.1640   40.6060 H   0  0  0  0  0  0  0  0  0  0  0  0
   49.0930   34.6450   38.8290 H   0  0  0  0  0  0  0  0  0  0  0  0
   45.6850   34.0340   45.3020 C   0  0  0  0  0  0  0  0  0  0  0  0
   44.7040   35.0220   45.5140 C   0  0  0  0  0  0  0  0  0  0  0  0
   44.5240   35.9520   44.5010 C   0  0  0  0  0  0  0  0  0  0  0  0
   45.2750   35.8740   43.3820 N   0  0  0  0  0  0  0  0  0  0  0  0
   46.2150   34.9110   43.2020 C   0  0  0  0  0  0  0  0  0  0  0  0
   46.4020   33.9950   44.1850 N   0  0  0  0  0  0  0  0  0  0  0  0
   45.9380   33.2390   46.0050 H   0  0  0  0  0  0  0  0  0  0  0  0
   44.2050   34.9330   46.4540 H   0  0  0  0  0  0  0  0  0  0  0  0
   43.7780   36.6810   44.6940 H   0  0  0  0  0  0  0  0  0  0  0  0
  1  6  1  0  0  0  0
  1 33  1  0  0  0  0
  2  7  1  0  0  0  0
  2  1  1  0  0  0  0
  3  2  1  0  0  0  0
  3  9  1  0  0  0  0
  4  3  1  0  0  0  0
  4  5  1  0  0  0  0
  5 12  1  0  0  0  0
  5  6  1  0  0  0  0
  6 14  1  1  0  0  0
  6 15  1  0  0  0  0
  8  2  1  0  0  0  0
 10  3  1  0  0  0  0
 11  4  1  0  0  0  0
 13  5  1  0  0  0  0
 15 16  1  0  0  0  0
 16 18  2  0  0  0  0
 16 17  1  0  0  0  0
 19 18  1  0  0  0  0
 20 19  1  0  0  0  0
 20 21  1  0  0  0  0
 22 20  2  0  0  0  0
 23 25  2  0  0  0  0
 23 22  1  0  0  0  0
 24 23  1  0  0  0  0
 25 26  1  0  0  0  0
 26 15  1  0  0  0  0
 26 19  2  0  0  0  0
 28 27  1  0  0  0  0
 28 29  1  0  0  0  0
 29 41  1  0  0  0  0
 30 29  2  0  0  0  0
 30 34  1  0  0  0  0
 31 30  1  0  0  0  0
 32 33  1  0  0  0  0
 32 31  2  0  0  0  0
 33 28  2  0  0  0  0
 35 31  1  0  0  0  0
 36 32  1  0  0  0  0
 37 38  1  0  0  0  0
 37 43  1  0  0  0  0
 38 44  1  0  0  0  0
 39 45  1  0  0  0  0
 39 38  2  0  0  0  0
 40 39  1  0  0  0  0
 41 40  2  0  0  0  0
 41 42  1  0  0  0  0
 42 37  2  0  0  0  0
M  END
>  <minimizedAffinity>
-6.29369974

>  <minimizedRMSD>
1.29244602

$$$$
