
 OpenBabel03252502003D

 37 41  0  0  0  0  0  0  0  0999 V2000
   47.0030   32.1670   47.8850 C   0  0  0  0  0  0  0  0  0  0  0  0
   47.0050   30.7980   47.7210 C   0  0  0  0  0  0  0  0  0  0  0  0
   46.7060   30.3440   46.4700 C   0  0  0  0  0  0  0  0  0  0  0  0
   46.4310   31.2040   45.4780 N   0  0  0  0  0  0  0  0  0  0  0  0
   46.4300   32.5280   45.6470 C   0  0  0  0  0  0  0  0  0  0  0  0
   46.7210   32.9700   46.8630 N   0  0  0  0  0  0  0  0  0  0  0  0
   47.2440   32.5310   48.8930 H   0  0  0  0  0  0  0  0  0  0  0  0
   46.6770   28.9810   46.1780 N   0  0  0  0  0  0  0  0  0  0  0  0
   47.2910   28.2800   45.2060 C   0  0  0  0  0  0  0  0  0  0  0  0
   47.9450   28.7020   44.4540 H   0  0  0  0  0  0  0  0  0  0  0  0
   46.9720   26.9750   45.3080 N   0  0  0  0  0  0  0  0  0  0  0  0
   46.1420   26.8150   46.3540 C   0  0  0  0  0  0  0  0  0  0  0  0
   45.5270   25.7010   46.8880 C   0  0  0  0  0  0  0  0  0  0  0  0
   45.7030   24.7320   46.4250 H   0  0  0  0  0  0  0  0  0  0  0  0
   44.7430   25.8980   47.9620 N   0  0  0  0  0  0  0  0  0  0  0  0
   44.5510   27.1200   48.5080 C   0  0  0  0  0  0  0  0  0  0  0  0
   43.9000   27.2130   49.3820 H   0  0  0  0  0  0  0  0  0  0  0  0
   45.1570   28.1830   47.9720 N   0  0  0  0  0  0  0  0  0  0  0  0
   45.9650   28.0550   46.8860 C   0  0  0  0  0  0  0  0  0  0  0  0
   46.1620   33.6350   44.7180 C   0  0  0  0  0  0  0  0  0  0  0  0
   45.0900   34.4540   44.8190 N   0  0  0  0  0  0  0  0  0  0  0  0
   44.8110   35.4640   44.0000 C   0  0  0  0  0  0  0  0  0  0  0  0
   45.6400   35.7320   42.9700 N   0  0  0  0  0  0  0  0  0  0  0  0
   46.7450   34.9880   42.7600 C   0  0  0  0  0  0  0  0  0  0  0  0
   47.5910   35.2680   41.7010 C   0  0  0  0  0  0  0  0  0  0  0  0
   48.7150   34.5160   41.4850 C   0  0  0  0  0  0  0  0  0  0  0  0
   48.9660   33.4810   42.3540 C   0  0  0  0  0  0  0  0  0  0  0  0
   48.1040   33.2340   43.3910 C   0  0  0  0  0  0  0  0  0  0  0  0
   46.9670   33.9550   43.6520 C   0  0  0  0  0  0  0  0  0  0  0  0
   43.9220   36.0560   44.1760 H   0  0  0  0  0  0  0  0  0  0  0  0
   47.3680   36.0900   41.0310 H   0  0  0  0  0  0  0  0  0  0  0  0
   49.4070   34.6920   40.6750 H   0  0  0  0  0  0  0  0  0  0  0  0
   49.8390   32.8560   42.2290 H   0  0  0  0  0  0  0  0  0  0  0  0
   48.3480   32.3990   44.0560 H   0  0  0  0  0  0  0  0  0  0  0  0
   47.3030   29.9460   48.7990 N   0  0  0  0  0  0  0  0  0  0  0  0
   46.5630   29.5220   49.3980 H   0  0  0  0  0  0  0  0  0  0  0  0
   48.2500   29.6320   49.1380 H   0  0  0  0  0  0  0  0  0  0  0  0
  1  7  1  0  0  0  0
  2  1  1  0  0  0  0
  2 35  1  0  0  0  0
  3  2  2  0  0  0  0
  4  5  2  0  0  0  0
  4  3  1  0  0  0  0
  5  6  1  0  0  0  0
  6  1  2  0  0  0  0
  8  3  1  0  0  0  0
  8 19  1  0  0  0  0
  9 11  2  0  0  0  0
  9  8  1  0  0  0  0
 10  9  1  0  0  0  0
 11 12  1  0  0  0  0
 12 19  2  0  0  0  0
 12 13  1  0  0  0  0
 13 15  2  0  0  0  0
 14 13  1  0  0  0  0
 15 16  1  0  0  0  0
 16 17  1  0  0  0  0
 18 16  2  0  0  0  0
 19 18  1  0  0  0  0
 20 21  1  0  0  0  0
 20  5  1  0  0  0  0
 22 30  1  0  0  0  0
 22 21  2  0  0  0  0
 23 22  1  0  0  0  0
 24 23  2  0  0  0  0
 24 29  1  0  0  0  0
 25 24  1  0  0  0  0
 26 25  2  0  0  0  0
 26 27  1  0  0  0  0
 27 28  2  0  0  0  0
 28 29  1  0  0  0  0
 28 34  1  0  0  0  0
 29 20  2  0  0  0  0
 31 25  1  0  0  0  0
 32 26  1  0  0  0  0
 33 27  1  0  0  0  0
 35 37  1  0  0  0  0
 35 36  1  0  0  0  0
M  END
>  <minimizedAffinity>
-6.44881058

>  <minimizedRMSD>
1.40215087

$$$$
