
 OpenBabel03252506343D

 36 39  0  0  1  0  0  0  0  0999 V2000
   44.4760   35.7420   44.9920 C   0  0  0  0  0  0  0  0  0  0  0  0
   45.1260   35.7230   43.7510 C   0  0  0  0  0  0  0  0  0  0  0  0
   46.0320   34.7430   43.4990 C   0  0  0  0  0  0  0  0  0  0  0  0
   46.2430   33.8380   44.4900 N   0  0  0  0  0  0  0  0  0  0  0  0
   45.6280   33.8580   45.6610 C   0  0  0  0  0  0  0  0  0  0  0  0
   44.7240   34.8120   45.9470 N   0  0  0  0  0  0  0  0  0  0  0  0
   45.9460   32.8580   46.6060 N   0  0  0  0  0  0  0  0  0  0  0  0
   45.1630   32.5620   47.8130 C   0  0  0  0  0  0  0  0  0  0  0  0
   46.2570   32.2520   48.8150 C   0  0  0  0  0  0  0  0  0  0  0  0
   47.5380   32.1020   48.0520 C   0  0  0  0  0  0  0  0  0  0  0  0
   47.0520   31.9270   46.6340 C   0  0  1  0  0  0  0  0  0  0  0  0
   43.7400   36.5330   45.2000 H   0  0  0  0  0  0  0  0  0  0  0  0
   46.5130   34.7510   42.5490 H   0  0  0  0  0  0  0  0  0  0  0  0
   44.4760   31.7140   47.6620 H   0  0  0  0  0  0  0  0  0  0  0  0
   44.5630   33.4520   48.0730 H   0  0  0  0  0  0  0  0  0  0  0  0
   45.9970   31.3060   49.3580 H   0  0  0  0  0  0  0  0  0  0  0  0
   46.3230   33.1190   49.5060 H   0  0  0  0  0  0  0  0  0  0  0  0
   48.2090   32.9790   48.1570 H   0  0  0  0  0  0  0  0  0  0  0  0
   48.0940   31.1750   48.3200 H   0  0  0  0  0  0  0  0  0  0  0  0
   47.7950   32.2390   45.8830 H   0  0  0  0  0  0  0  0  0  0  0  0
   44.7700   36.7690   42.8380 N   0  0  0  0  0  0  0  0  0  0  0  0
   44.3890   37.6750   43.1860 H   0  0  0  0  0  0  0  0  0  0  0  0
   44.8930   36.6220   41.8040 H   0  0  0  0  0  0  0  0  0  0  0  0
   46.5210   30.2190   46.4030 S   0  0  0  0  0  0  0  0  0  0  0  0
   47.0610   28.0730   44.3750 H   0  0  0  0  0  0  0  0  0  0  0  0
   46.3940   28.8170   44.0820 N   0  0  0  0  0  0  0  0  0  0  0  0
   45.9550   29.8970   44.7480 C   0  0  0  0  0  0  0  0  0  0  0  0
   45.0850   30.6010   43.9690 N   0  0  0  0  0  0  0  0  0  0  0  0
   44.9860   29.9300   42.7810 C   0  0  0  0  0  0  0  0  0  0  0  0
   44.3230   30.0570   41.5940 C   0  0  0  0  0  0  0  0  0  0  0  0
   43.6650   30.9340   41.5070 H   0  0  0  0  0  0  0  0  0  0  0  0
   44.4510   29.1850   40.5870 N   0  0  0  0  0  0  0  0  0  0  0  0
   45.2490   28.1170   40.6850 C   0  0  0  0  0  0  0  0  0  0  0  0
   45.2650   27.4880   39.8050 H   0  0  0  0  0  0  0  0  0  0  0  0
   45.9250   27.9390   41.8230 N   0  0  0  0  0  0  0  0  0  0  0  0
   45.8130   28.8130   42.8670 C   0  0  0  0  0  0  0  0  0  0  0  0
  1 12  1  0  0  0  0
  1  6  1  0  0  0  0
  2  1  2  0  0  0  0
  3  2  1  0  0  0  0
  3  4  2  0  0  0  0
  4  5  1  0  0  0  0
  5  6  2  0  0  0  0
  5  7  1  0  0  0  0
  7 11  1  0  0  0  0
  7  8  1  0  0  0  0
  8 15  1  0  0  0  0
  8  9  1  0  0  0  0
  9 16  1  0  0  0  0
  9 17  1  0  0  0  0
 10 18  1  0  0  0  0
 10 19  1  0  0  0  0
 10  9  1  0  0  0  0
 11 20  1  6  0  0  0
 11 10  1  0  0  0  0
 13  3  1  0  0  0  0
 14  8  1  0  0  0  0
 21 22  1  0  0  0  0
 21  2  1  0  0  0  0
 23 21  1  0  0  0  0
 24 11  1  0  0  0  0
 26 25  1  0  0  0  0
 26 27  1  0  0  0  0
 27 24  1  0  0  0  0
 28 27  2  0  0  0  0
 29 36  1  0  0  0  0
 29 28  1  0  0  0  0
 30 29  2  0  0  0  0
 31 30  1  0  0  0  0
 32 33  2  0  0  0  0
 32 30  1  0  0  0  0
 33 35  1  0  0  0  0
 34 33  1  0  0  0  0
 35 36  2  0  0  0  0
 36 26  1  0  0  0  0
M  END
>  <minimizedAffinity>
-4.84749651

>  <minimizedRMSD>
0.213314638

$$$$
