
 OpenBabel03242516413D

 35 37  0  0  0  0  0  0  0  0999 V2000
   49.1280   32.1320   42.3210 O   0  0  0  0  0  0  0  0  0  0  0  0
   49.1240   33.4530   42.7180 C   0  0  0  0  0  0  0  0  0  0  0  0
   49.2100   33.4980   43.8420 H   0  0  0  0  0  0  0  0  0  0  0  0
   50.0440   33.9670   42.3160 H   0  0  0  0  0  0  0  0  0  0  0  0
   47.8790   34.1480   42.2690 C   0  0  0  0  0  0  0  0  0  0  0  0
   47.4400   33.6480   41.3770 H   0  0  0  0  0  0  0  0  0  0  0  0
   48.1440   35.2000   42.0240 H   0  0  0  0  0  0  0  0  0  0  0  0
   44.8790   35.0760   44.3570 C   0  0  0  0  0  0  0  0  0  0  0  0
   45.8130   35.0240   43.2740 C   0  0  0  0  0  0  0  0  0  0  0  0
   46.9200   34.1930   43.3960 C   0  0  0  0  0  0  0  0  0  0  0  0
   47.0600   33.4820   44.5180 N   0  0  0  0  0  0  0  0  0  0  0  0
   46.1690   33.5420   45.5320 C   0  0  0  0  0  0  0  0  0  0  0  0
   45.0860   34.3270   45.4630 N   0  0  0  0  0  0  0  0  0  0  0  0
   43.7500   35.9050   44.2640 N   0  0  0  0  0  0  0  0  0  0  0  0
   45.5920   35.6440   42.4190 H   0  0  0  0  0  0  0  0  0  0  0  0
   46.3470   32.9370   46.4130 H   0  0  0  0  0  0  0  0  0  0  0  0
   43.3410   36.2740   45.1520 H   0  0  0  0  0  0  0  0  0  0  0  0
   43.2690   36.1980   43.3850 H   0  0  0  0  0  0  0  0  0  0  0  0
   50.3410   30.3720   40.8130 O   0  0  0  0  0  0  0  0  0  0  0  0
   50.2090   31.8450   41.0500 P   0  0  2  0  0  0  0  0  0  0  0  0
   51.6780   32.5600   41.4940 O   0  0  0  0  0  0  0  0  0  0  0  0
   51.7540   33.5030   41.1680 H   0  0  0  0  0  0  0  0  0  0  0  0
   49.6920   32.6740   39.6640 O   0  0  0  0  0  0  0  0  0  0  0  0
   48.3000   30.2220   39.2700 H   0  0  0  0  0  0  0  0  0  0  0  0
   47.9100   31.0750   38.8220 N   0  0  0  0  0  0  0  0  0  0  0  0
   48.5540   32.2410   38.9970 C   0  0  0  0  0  0  0  0  0  0  0  0
   47.8880   33.2240   38.3350 N   0  0  0  0  0  0  0  0  0  0  0  0
   46.8010   32.6900   37.7250 C   0  0  0  0  0  0  0  0  0  0  0  0
   45.7440   33.0820   36.9320 C   0  0  0  0  0  0  0  0  0  0  0  0
   45.7160   34.1410   36.6800 H   0  0  0  0  0  0  0  0  0  0  0  0
   44.8310   32.2030   36.5130 N   0  0  0  0  0  0  0  0  0  0  0  0
   44.8800   30.8950   36.8320 C   0  0  0  0  0  0  0  0  0  0  0  0
   44.1350   30.1950   36.4880 H   0  0  0  0  0  0  0  0  0  0  0  0
   45.9110   30.4850   37.6140 N   0  0  0  0  0  0  0  0  0  0  0  0
   46.8480   31.3450   38.0510 C   0  0  0  0  0  0  0  0  0  0  0  0
  1  2  1  0  0  0  0
  2  3  1  0  0  0  0
  4  2  1  0  0  0  0
  5  2  1  0  0  0  0
  5 10  1  0  0  0  0
  6  5  1  0  0  0  0
  7  5  1  0  0  0  0
  8 13  1  0  0  0  0
  9 10  1  0  0  0  0
  9  8  2  0  0  0  0
 10 11  2  0  0  0  0
 11 12  1  0  0  0  0
 12 16  1  0  0  0  0
 13 12  2  0  0  0  0
 14  8  1  0  0  0  0
 14 17  1  0  0  0  0
 15  9  1  0  0  0  0
 18 14  1  0  0  0  0
 20 19  2  6  0  0  0
 20 21  1  0  0  0  0
 20  1  1  0  0  0  0
 22 21  1  0  0  0  0
 23 20  1  0  0  0  0
 25 26  1  0  0  0  0
 25 24  1  0  0  0  0
 26 23  1  0  0  0  0
 27 26  2  0  0  0  0
 28 35  1  0  0  0  0
 28 27  1  0  0  0  0
 29 28  2  0  0  0  0
 30 29  1  0  0  0  0
 31 32  2  0  0  0  0
 31 29  1  0  0  0  0
 32 34  1  0  0  0  0
 33 32  1  0  0  0  0
 34 35  2  0  0  0  0
 35 25  1  0  0  0  0
M  END
>  <minimizedAffinity>
-4.55325842

>  <minimizedRMSD>
1.00054729

$$$$
