
 OpenBabel03242518233D

 35 38  0  0  0  0  0  0  0  0999 V2000
   42.6100   33.6560   39.2790 C   0  0  0  0  0  0  0  0  0  0  0  0
   42.0740   32.8650   40.2890 C   0  0  0  0  0  0  0  0  0  0  0  0
   42.9530   32.3340   41.2470 C   0  0  0  0  0  0  0  0  0  0  0  0
   44.2850   32.6070   41.1550 N   0  0  0  0  0  0  0  0  0  0  0  0
   44.7630   33.3810   40.1560 C   0  0  0  0  0  0  0  0  0  0  0  0
   43.9440   33.8950   39.2380 N   0  0  0  0  0  0  0  0  0  0  0  0
   42.1060   34.1400   38.4740 H   0  0  0  0  0  0  0  0  0  0  0  0
   42.5000   31.7200   42.0220 H   0  0  0  0  0  0  0  0  0  0  0  0
   46.1740   33.5750   40.1960 N   0  0  0  0  0  0  0  0  0  0  0  0
   46.8850   33.5370   39.0450 C   0  0  0  0  0  0  0  0  0  0  0  0
   46.6210   33.3800   38.0030 H   0  0  0  0  0  0  0  0  0  0  0  0
   48.1910   33.7430   39.3200 N   0  0  0  0  0  0  0  0  0  0  0  0
   48.3160   33.9120   40.6290 C   0  0  0  0  0  0  0  0  0  0  0  0
   49.2910   34.1520   41.5730 C   0  0  0  0  0  0  0  0  0  0  0  0
   50.3170   34.2450   41.1900 H   0  0  0  0  0  0  0  0  0  0  0  0
   49.0650   34.2750   42.8940 N   0  0  0  0  0  0  0  0  0  0  0  0
   47.7830   34.1550   43.3410 C   0  0  0  0  0  0  0  0  0  0  0  0
   47.6720   34.2620   44.3940 H   0  0  0  0  0  0  0  0  0  0  0  0
   46.7620   33.9190   42.4870 N   0  0  0  0  0  0  0  0  0  0  0  0
   47.0380   33.8030   41.1720 C   0  0  0  0  0  0  0  0  0  0  0  0
   40.6890   32.6490   40.2630 N   0  0  0  0  0  0  0  0  0  0  0  0
   40.1220   31.7740   41.2530 C   0  0  0  0  0  0  0  0  0  0  0  0
   38.6490   31.5760   41.1070 C   0  0  0  0  0  0  0  0  0  0  0  0
   37.9180   32.7590   40.8520 N   0  0  0  0  0  0  0  0  0  0  0  0
   38.5260   33.7510   40.0520 C   0  0  0  0  0  0  0  0  0  0  0  0
   39.7550   33.2090   39.3390 C   0  0  0  0  0  0  0  0  0  0  0  0
   40.4280   32.0510   42.2820 H   0  0  0  0  0  0  0  0  0  0  0  0
   40.6040   30.7690   41.0720 H   0  0  0  0  0  0  0  0  0  0  0  0
   38.2730   31.1230   42.0490 H   0  0  0  0  0  0  0  0  0  0  0  0
   38.4660   30.8090   40.3080 H   0  0  0  0  0  0  0  0  0  0  0  0
   37.0000   32.4540   40.4070 H   0  0  0  0  0  0  0  0  0  0  0  0
   38.8040   34.6170   40.7090 H   0  0  0  0  0  0  0  0  0  0  0  0
   37.8800   34.1860   39.2570 H   0  0  0  0  0  0  0  0  0  0  0  0
   39.3730   32.3660   38.7040 H   0  0  0  0  0  0  0  0  0  0  0  0
   40.1060   34.0090   38.6950 H   0  0  0  0  0  0  0  0  0  0  0  0
  1  2  1  0  0  0  0
  2  3  2  0  0  0  0
  3  8  1  0  0  0  0
  4  3  1  0  0  0  0
  5  9  1  0  0  0  0
  5  4  2  0  0  0  0
  6  1  2  0  0  0  0
  6  5  1  0  0  0  0
  7  1  1  0  0  0  0
  9 20  1  0  0  0  0
 10 12  2  0  0  0  0
 10  9  1  0  0  0  0
 11 10  1  0  0  0  0
 12 13  1  0  0  0  0
 13 20  2  0  0  0  0
 13 14  1  0  0  0  0
 14 16  2  0  0  0  0
 15 14  1  0  0  0  0
 16 17  1  0  0  0  0
 17 18  1  0  0  0  0
 19 17  2  0  0  0  0
 20 19  1  0  0  0  0
 21  2  1  0  0  0  0
 21 22  1  0  0  0  0
 22 27  1  0  0  0  0
 23 22  1  0  0  0  0
 23 29  1  0  0  0  0
 24 23  1  0  0  0  0
 25 32  1  0  0  0  0
 25 24  1  0  0  0  0
 26 25  1  0  0  0  0
 26 21  1  0  0  0  0
 28 22  1  0  0  0  0
 30 23  1  0  0  0  0
 31 24  1  0  0  0  0
 33 25  1  0  0  0  0
 34 26  1  0  0  0  0
 35 26  1  0  0  0  0
M  END
>  <minimizedAffinity>
-5.09633017

>  <minimizedRMSD>
6.45216751

$$$$
