
 OpenBabel03252500143D

 41 45  0  0  0  0  0  0  0  0999 V2000
   45.5750   32.4230   40.4440 Cl  0  0  0  0  0  0  0  0  0  0  0  0
   46.8690   33.5460   40.1360 C   0  0  0  0  0  0  0  0  0  0  0  0
   47.4180   34.2730   41.1630 C   0  0  0  0  0  0  0  0  0  0  0  0
   48.4540   35.1800   40.9530 C   0  0  0  0  0  0  0  0  0  0  0  0
   48.8950   35.3030   39.6530 C   0  0  0  0  0  0  0  0  0  0  0  0
   48.3450   34.5720   38.6160 C   0  0  0  0  0  0  0  0  0  0  0  0
   47.3530   33.7100   38.8450 C   0  0  0  0  0  0  0  0  0  0  0  0
   48.8660   35.7390   41.7820 H   0  0  0  0  0  0  0  0  0  0  0  0
   49.6960   36.0010   39.4800 H   0  0  0  0  0  0  0  0  0  0  0  0
   48.7100   34.6870   37.6060 H   0  0  0  0  0  0  0  0  0  0  0  0
   46.8630   32.8880   44.5340 C   0  0  0  0  0  0  0  0  0  0  0  0
   45.9260   33.7920   45.0810 C   0  0  0  0  0  0  0  0  0  0  0  0
   45.5010   34.8580   44.2890 C   0  0  0  0  0  0  0  0  0  0  0  0
   46.0090   34.9780   43.0240 N   0  0  0  0  0  0  0  0  0  0  0  0
   46.9040   34.0990   42.5270 C   0  0  0  0  0  0  0  0  0  0  0  0
   47.3200   33.0640   43.2870 N   0  0  0  0  0  0  0  0  0  0  0  0
   47.1650   32.0760   45.1800 H   0  0  0  0  0  0  0  0  0  0  0  0
   45.5300   33.6930   46.0750 H   0  0  0  0  0  0  0  0  0  0  0  0
   44.5150   35.8780   44.7610 C   0  0  0  0  0  0  0  0  0  0  0  0
   44.9760   37.1380   44.5390 F   0  0  0  0  0  0  0  0  0  0  0  0
   43.3370   35.6950   44.0630 F   0  0  0  0  0  0  0  0  0  0  0  0
   44.3050   35.6310   46.0950 F   0  0  0  0  0  0  0  0  0  0  0  0
   46.7460   32.9220   37.7840 C   0  0  0  0  0  0  0  0  0  0  0  0
   45.6690   33.3450   36.9940 C   0  0  0  0  0  0  0  0  0  0  0  0
   45.3430   32.3580   36.0900 C   0  0  0  0  0  0  0  0  0  0  0  0
   46.2540   31.3660   36.3780 C   0  0  0  0  0  0  0  0  0  0  0  0
   47.0550   31.7200   37.3640 O   0  0  0  0  0  0  0  0  0  0  0  0
   45.1310   34.3060   37.0490 H   0  0  0  0  0  0  0  0  0  0  0  0
   44.5840   32.3100   35.3260 H   0  0  0  0  0  0  0  0  0  0  0  0
   46.3580   30.1000   35.7230 N   0  0  0  0  0  0  0  0  0  0  0  0
   47.3780   29.2340   35.8740 C   0  0  0  0  0  0  0  0  0  0  0  0
   48.2720   29.3020   36.4770 H   0  0  0  0  0  0  0  0  0  0  0  0
   47.1350   28.1390   35.0960 N   0  0  0  0  0  0  0  0  0  0  0  0
   45.9630   28.3090   34.4530 C   0  0  0  0  0  0  0  0  0  0  0  0
   45.1570   27.6340   33.5590 C   0  0  0  0  0  0  0  0  0  0  0  0
   45.5220   26.6570   33.2340 H   0  0  0  0  0  0  0  0  0  0  0  0
   43.9890   28.1560   33.1200 N   0  0  0  0  0  0  0  0  0  0  0  0
   43.5600   29.3610   33.5340 C   0  0  0  0  0  0  0  0  0  0  0  0
   42.6390   29.8190   33.2140 H   0  0  0  0  0  0  0  0  0  0  0  0
   44.3220   30.0540   34.4110 N   0  0  0  0  0  0  0  0  0  0  0  0
   45.4860   29.5470   34.8570 C   0  0  0  0  0  0  0  0  0  0  0  0
  2  1  1  0  0  0  0
  2  3  1  0  0  0  0
  3 15  1  0  0  0  0
  4  3  2  0  0  0  0
  4  8  1  0  0  0  0
  5  4  1  0  0  0  0
  6  7  1  0  0  0  0
  6  5  2  0  0  0  0
  7  2  2  0  0  0  0
  9  5  1  0  0  0  0
 10  6  1  0  0  0  0
 11 12  1  0  0  0  0
 11 17  1  0  0  0  0
 12 18  1  0  0  0  0
 13 19  1  0  0  0  0
 13 12  2  0  0  0  0
 14 13  1  0  0  0  0
 15 14  2  0  0  0  0
 15 16  1  0  0  0  0
 16 11  2  0  0  0  0
 19 22  1  0  0  0  0
 20 19  1  0  0  0  0
 21 19  1  0  0  0  0
 23  7  1  0  0  0  0
 24 28  1  0  0  0  0
 24 23  2  0  0  0  0
 25 26  2  0  0  0  0
 25 24  1  0  0  0  0
 26 27  1  0  0  0  0
 27 23  1  0  0  0  0
 29 25  1  0  0  0  0
 30 31  1  0  0  0  0
 30 26  1  0  0  0  0
 31 32  1  0  0  0  0
 33 31  2  0  0  0  0
 34 41  1  0  0  0  0
 34 33  1  0  0  0  0
 35 34  2  0  0  0  0
 36 35  1  0  0  0  0
 37 38  2  0  0  0  0
 37 35  1  0  0  0  0
 38 40  1  0  0  0  0
 39 38  1  0  0  0  0
 40 41  2  0  0  0  0
 41 30  1  0  0  0  0
M  END
>  <minimizedAffinity>
-6.1049118

>  <minimizedRMSD>
0.53273344

$$$$
