
 OpenBabel03252503183D

 42 46  0  0  0  0  0  0  0  0999 V2000
   43.4860   34.6110   40.6280 C   0  0  0  0  0  0  0  0  0  0  0  0
   44.5490   33.8860   41.0910 C   0  0  0  0  0  0  0  0  0  0  0  0
   44.6950   34.2290   42.3890 N   0  0  0  0  0  0  0  0  0  0  0  0
   43.7610   35.1220   42.7020 C   0  0  0  0  0  0  0  0  0  0  0  0
   43.0050   35.3680   41.6190 N   0  0  0  0  0  0  0  0  0  0  0  0
   43.4980   35.7830   43.9330 N   0  0  0  0  0  0  0  0  0  0  0  0
   45.1530   33.1830   40.5390 H   0  0  0  0  0  0  0  0  0  0  0  0
   43.4380   35.1330   44.7710 H   0  0  0  0  0  0  0  0  0  0  0  0
   43.3870   36.8220   43.9260 H   0  0  0  0  0  0  0  0  0  0  0  0
   45.6720   33.7500   43.3350 C   0  0  0  0  0  0  0  0  0  0  0  0
   45.6330   32.6430   43.4370 H   0  0  0  0  0  0  0  0  0  0  0  0
   45.4850   34.1660   44.3370 H   0  0  0  0  0  0  0  0  0  0  0  0
   46.9720   34.1360   42.8120 N   0  0  0  0  0  0  0  0  0  0  0  0
   47.4450   35.3020   42.3370 C   0  0  0  0  0  0  0  0  0  0  0  0
   46.7660   36.1440   42.3210 H   0  0  0  0  0  0  0  0  0  0  0  0
   48.7290   35.1670   41.9620 N   0  0  0  0  0  0  0  0  0  0  0  0
   49.1230   33.8970   42.1890 C   0  0  0  0  0  0  0  0  0  0  0  0
   50.3220   33.2440   41.9850 C   0  0  0  0  0  0  0  0  0  0  0  0
   51.1650   33.7820   41.5650 H   0  0  0  0  0  0  0  0  0  0  0  0
   50.3840   31.9260   42.3310 N   0  0  0  0  0  0  0  0  0  0  0  0
   49.2800   31.3210   42.8520 C   0  0  0  0  0  0  0  0  0  0  0  0
   49.3820   30.2590   43.1140 H   0  0  0  0  0  0  0  0  0  0  0  0
   48.1020   31.9380   43.0580 N   0  0  0  0  0  0  0  0  0  0  0  0
   48.0100   33.2530   42.7240 C   0  0  0  0  0  0  0  0  0  0  0  0
   42.9110   34.5970   39.2480 C   0  0  0  0  0  0  0  0  0  0  0  0
   42.4070   35.5960   38.6560 O   0  0  0  0  0  0  0  0  0  0  0  0
   44.0610   32.9620   37.8130 C   0  0  0  0  0  0  0  0  0  0  0  0
   42.9060   33.3880   38.5010 C   0  0  0  0  0  0  0  0  0  0  0  0
   41.8250   32.5240   38.3620 C   0  0  0  0  0  0  0  0  0  0  0  0
   41.8670   31.4040   37.6530 N   0  0  0  0  0  0  0  0  0  0  0  0
   43.0190   31.0520   37.0110 C   0  0  0  0  0  0  0  0  0  0  0  0
   44.0990   31.8320   37.0990 N   0  0  0  0  0  0  0  0  0  0  0  0
   44.9320   33.6220   37.9030 H   0  0  0  0  0  0  0  0  0  0  0  0
   43.0920   30.1540   36.4280 H   0  0  0  0  0  0  0  0  0  0  0  0
   40.6080   32.8740   39.0220 C   0  0  0  0  0  0  0  0  0  0  0  0
   39.4890   33.5720   38.7080 C   0  0  0  0  0  0  0  0  0  0  0  0
   38.4840   33.7450   39.5340 C   0  0  0  0  0  0  0  0  0  0  0  0
   38.6280   33.1780   40.7400 C   0  0  0  0  0  0  0  0  0  0  0  0
   40.2520   32.3680   40.6980 S   0  0  0  0  0  0  0  0  0  0  0  0
   39.5210   33.9800   37.6760 H   0  0  0  0  0  0  0  0  0  0  0  0
   37.5740   34.2940   39.3260 H   0  0  0  0  0  0  0  0  0  0  0  0
   37.8720   33.1930   41.6400 H   0  0  0  0  0  0  0  0  0  0  0  0
  1  2  2  0  0  0  0
  1  5  1  0  0  0  0
  2  3  1  0  0  0  0
  3  4  1  0  0  0  0
  3 10  1  0  0  0  0
  4  6  1  0  0  0  0
  5  4  2  0  0  0  0
  6  8  1  0  0  0  0
  7  2  1  0  0  0  0
  9  6  1  0  0  0  0
 10 11  1  0  0  0  0
 10 12  1  0  0  0  0
 13 10  1  0  0  0  0
 14 13  1  0  0  0  0
 15 14  1  0  0  0  0
 16 17  1  0  0  0  0
 16 14  2  0  0  0  0
 17 24  1  0  0  0  0
 18 17  2  0  0  0  0
 18 20  1  0  0  0  0
 19 18  1  0  0  0  0
 20 21  2  0  0  0  0
 21 23  1  0  0  0  0
 21 22  1  0  0  0  0
 24 13  1  0  0  0  0
 24 23  2  0  0  0  0
 25  1  1  0  0  0  0
 26 25  2  0  0  0  0
 27 33  1  0  0  0  0
 27 28  1  0  0  0  0
 28 25  1  0  0  0  0
 29 28  2  0  0  0  0
 29 35  1  0  0  0  0
 30 29  1  0  0  0  0
 31 32  1  0  0  0  0
 31 30  2  0  0  0  0
 32 27  2  0  0  0  0
 34 31  1  0  0  0  0
 35 39  1  0  0  0  0
 36 35  2  0  0  0  0
 36 37  1  0  0  0  0
 37 38  2  0  0  0  0
 38 42  1  0  0  0  0
 39 38  1  0  0  0  0
 40 36  1  0  0  0  0
 41 37  1  0  0  0  0
M  END
>  <minimizedAffinity>
-5.92983294

>  <minimizedRMSD>
7.97788382

$$$$
