
 OpenBabel03242523543D

 48 52  0  0  1  0  0  0  0  0999 V2000
   42.6740   34.4800   38.8580 C   0  0  1  0  0  0  0  0  0  0  0  0
   42.9940   35.1890   40.1640 C   0  0  1  0  0  0  0  0  0  0  0  0
   41.7720   35.5470   40.7790 O   0  0  0  0  0  0  0  0  0  0  0  0
   40.7940   35.9210   39.8520 C   0  0  0  0  0  0  0  0  0  0  0  0
   40.3140   34.7380   39.0300 C   0  0  2  0  0  0  0  0  0  0  0  0
   41.4510   33.6630   39.1140 C   0  0  1  0  0  0  0  0  0  0  0  0
   43.5470   33.8310   38.5960 H   0  0  0  0  0  0  0  0  0  0  0  0
   43.6350   36.0760   40.0230 H   0  0  0  0  0  0  0  0  0  0  0  0
   39.9450   36.2690   40.4480 H   0  0  0  0  0  0  0  0  0  0  0  0
   41.1290   36.7600   39.2120 H   0  0  0  0  0  0  0  0  0  0  0  0
   39.3780   34.2930   39.4000 H   0  0  0  0  0  0  0  0  0  0  0  0
   41.3160   33.4660   40.2300 H   0  0  0  0  0  0  0  0  0  0  0  0
   42.4510   35.4090   37.8290 O   0  0  0  0  0  0  0  0  0  0  0  0
   42.5230   34.9130   36.9660 H   0  0  0  0  0  0  0  0  0  0  0  0
   40.2500   35.0960   37.6930 O   0  0  0  0  0  0  0  0  0  0  0  0
   39.6560   34.4620   37.2480 H   0  0  0  0  0  0  0  0  0  0  0  0
   43.5160   34.2030   41.0050 O   0  0  0  0  0  0  0  0  0  0  0  0
   44.6320   34.3260   41.7360 C   0  0  0  0  0  0  0  0  0  0  0  0
   45.8860   34.4500   41.1210 C   0  0  0  0  0  0  0  0  0  0  0  0
   47.0070   34.5740   41.9250 C   0  0  0  0  0  0  0  0  0  0  0  0
   46.8570   34.5740   43.3010 N   0  0  0  0  0  0  0  0  0  0  0  0
   45.6300   34.4530   43.8560 C   0  0  0  0  0  0  0  0  0  0  0  0
   44.5250   34.3300   43.0790 N   0  0  0  0  0  0  0  0  0  0  0  0
   45.9900   34.4480   40.0430 H   0  0  0  0  0  0  0  0  0  0  0  0
   45.5810   34.4590   44.9420 H   0  0  0  0  0  0  0  0  0  0  0  0
   48.3820   34.6990   41.3320 C   0  0  0  0  0  0  0  0  0  0  0  0
   49.0790   36.0440   41.5210 C   0  0  0  0  0  0  0  0  0  0  0  0
   49.5360   34.7300   42.1790 C   0  0  0  0  0  0  0  0  0  0  0  0
   48.3930   34.4020   40.2550 H   0  0  0  0  0  0  0  0  0  0  0  0
   48.6130   36.7440   42.2680 H   0  0  0  0  0  0  0  0  0  0  0  0
   49.6910   36.4580   40.7230 H   0  0  0  0  0  0  0  0  0  0  0  0
   50.5210   34.3770   41.8010 H   0  0  0  0  0  0  0  0  0  0  0  0
   49.4300   34.6080   43.2600 H   0  0  0  0  0  0  0  0  0  0  0  0
   41.1540   32.6940   38.2350 O   0  0  0  0  0  0  0  0  0  0  0  0
   40.2400   31.7220   38.2530 C   0  0  0  0  0  0  0  0  0  0  0  0
   39.2740   31.6490   37.3430 O   0  0  0  0  0  0  0  0  0  0  0  0
   41.7930   30.5260   40.4520 H   0  0  0  0  0  0  0  0  0  0  0  0
   40.8850   30.1940   40.1110 N   0  0  0  0  0  0  0  0  0  0  0  0
   40.0280   30.5390   39.1770 C   0  0  0  0  0  0  0  0  0  0  0  0
   38.9870   29.6510   39.2550 N   0  0  0  0  0  0  0  0  0  0  0  0
   39.2000   28.7700   40.2270 C   0  0  0  0  0  0  0  0  0  0  0  0
   38.3930   27.7240   40.6190 C   0  0  0  0  0  0  0  0  0  0  0  0
   37.4530   27.4880   40.1660 H   0  0  0  0  0  0  0  0  0  0  0  0
   38.8710   26.9780   41.6530 N   0  0  0  0  0  0  0  0  0  0  0  0
   40.0560   27.2740   42.2270 C   0  0  0  0  0  0  0  0  0  0  0  0
   40.4860   26.7180   43.0510 H   0  0  0  0  0  0  0  0  0  0  0  0
   40.7800   28.3120   41.7830 N   0  0  0  0  0  0  0  0  0  0  0  0
   40.4090   29.1030   40.7830 C   0  0  0  0  0  0  0  0  0  0  0  0
  1  7  1  6  0  0  0
  1  6  1  0  0  0  0
  1  2  1  0  0  0  0
  2  8  1  6  0  0  0
  2  3  1  0  0  0  0
  2 17  1  0  0  0  0
  4  9  1  0  0  0  0
  4  3  1  0  0  0  0
  5  6  1  0  0  0  0
  5 11  1  1  0  0  0
  5  4  1  0  0  0  0
  6 12  1  1  0  0  0
 10  4  1  0  0  0  0
 13  1  1  0  0  0  0
 14 13  1  0  0  0  0
 15  5  1  0  0  0  0
 16 15  1  0  0  0  0
 17 18  1  0  0  0  0
 18 23  1  0  0  0  0
 19 18  2  0  0  0  0
 19 20  1  0  0  0  0
 20 21  2  0  0  0  0
 21 22  1  0  0  0  0
 22 25  1  0  0  0  0
 23 22  2  0  0  0  0
 24 19  1  0  0  0  0
 26 27  1  0  0  0  0
 26 20  1  0  0  0  0
 26 28  1  0  0  0  0
 27 28  1  0  0  0  0
 27 30  1  0  0  0  0
 28 33  1  0  0  0  0
 29 26  1  0  0  0  0
 31 27  1  0  0  0  0
 32 28  1  0  0  0  0
 34 35  1  0  0  0  0
 34  6  1  0  0  0  0
 35 39  1  0  0  0  0
 36 35  2  0  0  0  0
 38 37  1  0  0  0  0
 38 48  1  0  0  0  0
 39 40  2  0  0  0  0
 39 38  1  0  0  0  0
 40 41  1  0  0  0  0
 41 42  2  0  0  0  0
 41 48  1  0  0  0  0
 42 44  1  0  0  0  0
 43 42  1  0  0  0  0
 44 45  2  0  0  0  0
 45 46  1  0  0  0  0
 47 45  1  0  0  0  0
 48 47  2  0  0  0  0
M  END
>  <minimizedAffinity>
-6.14403248

>  <minimizedRMSD>
1.80905592

$$$$
