
 OpenBabel03252506343D

 36 39  0  0  1  0  0  0  0  0999 V2000
   44.4750   35.7560   45.0030 C   0  0  0  0  0  0  0  0  0  0  0  0
   45.0980   35.6660   43.7520 C   0  0  0  0  0  0  0  0  0  0  0  0
   45.9480   34.6330   43.5140 C   0  0  0  0  0  0  0  0  0  0  0  0
   46.1330   33.7500   44.5300 N   0  0  0  0  0  0  0  0  0  0  0  0
   45.5430   33.8380   45.7100 C   0  0  0  0  0  0  0  0  0  0  0  0
   44.6950   34.8460   45.9830 N   0  0  0  0  0  0  0  0  0  0  0  0
   45.8290   32.8530   46.6810 N   0  0  0  0  0  0  0  0  0  0  0  0
   45.0570   32.6350   47.9120 C   0  0  0  0  0  0  0  0  0  0  0  0
   46.1530   32.3010   48.9020 C   0  0  0  0  0  0  0  0  0  0  0  0
   47.4100   32.0620   48.1210 C   0  0  0  0  0  0  0  0  0  0  0  0
   46.8870   31.8680   46.7190 C   0  0  1  0  0  0  0  0  0  0  0  0
   43.7840   36.5900   45.1990 H   0  0  0  0  0  0  0  0  0  0  0  0
   46.4100   34.5870   42.5560 H   0  0  0  0  0  0  0  0  0  0  0  0
   44.3250   31.8200   47.8010 H   0  0  0  0  0  0  0  0  0  0  0  0
   44.5080   33.5620   48.1540 H   0  0  0  0  0  0  0  0  0  0  0  0
   45.8570   31.3870   49.4800 H   0  0  0  0  0  0  0  0  0  0  0  0
   46.2770   33.1850   49.5640 H   0  0  0  0  0  0  0  0  0  0  0  0
   48.1270   32.9060   48.1860 H   0  0  0  0  0  0  0  0  0  0  0  0
   47.9230   31.1160   48.4090 H   0  0  0  0  0  0  0  0  0  0  0  0
   47.6300   32.1170   45.9450 H   0  0  0  0  0  0  0  0  0  0  0  0
   44.7780   36.6990   42.8120 N   0  0  0  0  0  0  0  0  0  0  0  0
   44.4500   37.6340   43.1380 H   0  0  0  0  0  0  0  0  0  0  0  0
   44.8720   36.5140   41.7810 H   0  0  0  0  0  0  0  0  0  0  0  0
   46.2650   30.1830   46.5530 S   0  0  0  0  0  0  0  0  0  0  0  0
   46.3010   31.6030   43.9090 H   0  0  0  0  0  0  0  0  0  0  0  0
   45.7340   30.7300   43.9490 N   0  0  0  0  0  0  0  0  0  0  0  0
   45.5180   29.8830   44.9680 C   0  0  0  0  0  0  0  0  0  0  0  0
   44.7020   28.8680   44.5630 N   0  0  0  0  0  0  0  0  0  0  0  0
   44.4060   29.1000   43.2470 C   0  0  0  0  0  0  0  0  0  0  0  0
   43.6760   28.5150   42.2520 C   0  0  0  0  0  0  0  0  0  0  0  0
   43.1520   27.5890   42.5270 H   0  0  0  0  0  0  0  0  0  0  0  0
   43.5900   29.0190   41.0160 N   0  0  0  0  0  0  0  0  0  0  0  0
   44.2240   30.1460   40.6730 C   0  0  0  0  0  0  0  0  0  0  0  0
   44.0760   30.4490   39.6470 H   0  0  0  0  0  0  0  0  0  0  0  0
   44.9540   30.7640   41.6070 N   0  0  0  0  0  0  0  0  0  0  0  0
   45.0590   30.2720   42.8760 C   0  0  0  0  0  0  0  0  0  0  0  0
  1 12  1  0  0  0  0
  1  6  1  0  0  0  0
  2  1  2  0  0  0  0
  3  2  1  0  0  0  0
  3  4  2  0  0  0  0
  4  5  1  0  0  0  0
  5  6  2  0  0  0  0
  5  7  1  0  0  0  0
  7 11  1  0  0  0  0
  7  8  1  0  0  0  0
  8 15  1  0  0  0  0
  8  9  1  0  0  0  0
  9 16  1  0  0  0  0
  9 17  1  0  0  0  0
 10 18  1  0  0  0  0
 10 19  1  0  0  0  0
 10  9  1  0  0  0  0
 11 20  1  6  0  0  0
 11 10  1  0  0  0  0
 13  3  1  0  0  0  0
 14  8  1  0  0  0  0
 21 22  1  0  0  0  0
 21  2  1  0  0  0  0
 23 21  1  0  0  0  0
 24 11  1  0  0  0  0
 25 26  1  0  0  0  0
 26 27  1  0  0  0  0
 27 24  1  0  0  0  0
 28 27  2  0  0  0  0
 29 28  1  0  0  0  0
 30 31  1  0  0  0  0
 30 29  2  0  0  0  0
 32 30  1  0  0  0  0
 33 32  2  0  0  0  0
 33 35  1  0  0  0  0
 34 33  1  0  0  0  0
 35 36  2  0  0  0  0
 36 29  1  0  0  0  0
 36 26  1  0  0  0  0
M  END
>  <minimizedAffinity>
-4.99998093

>  <minimizedRMSD>
0.307157636

$$$$
