
 OpenBabel03252507313D

 52 56  0  0  1  0  0  0  0  0999 V2000
   46.8770   32.8470   45.5040 C   0  0  0  0  0  0  0  0  0  0  0  0
   45.8610   33.6600   45.9800 C   0  0  0  0  0  0  0  0  0  0  0  0
   45.1400   34.4800   45.0810 C   0  0  0  0  0  0  0  0  0  0  0  0
   45.5170   34.4090   43.7420 N   0  0  0  0  0  0  0  0  0  0  0  0
   46.5090   33.6050   43.3480 C   0  0  0  0  0  0  0  0  0  0  0  0
   47.1770   32.8370   44.2100 N   0  0  0  0  0  0  0  0  0  0  0  0
   45.4390   33.8950   46.9350 H   0  0  0  0  0  0  0  0  0  0  0  0
   44.3420   35.1520   45.2600 H   0  0  0  0  0  0  0  0  0  0  0  0
   46.8710   33.5920   41.9270 C   0  0  0  0  0  0  0  0  0  0  0  0
   47.6180   34.6080   41.3760 C   0  0  0  0  0  0  0  0  0  0  0  0
   48.0080   34.6830   40.0560 C   0  0  0  0  0  0  0  0  0  0  0  0
   47.5850   33.6320   39.2840 C   0  0  0  0  0  0  0  0  0  0  0  0
   46.8260   32.5870   39.8150 C   0  0  0  0  0  0  0  0  0  0  0  0
   46.4750   32.5790   41.1390 N   0  0  0  0  0  0  0  0  0  0  0  0
   47.9160   35.4100   42.0580 H   0  0  0  0  0  0  0  0  0  0  0  0
   48.5910   35.4830   39.6420 H   0  0  0  0  0  0  0  0  0  0  0  0
   47.8210   33.5640   38.2310 H   0  0  0  0  0  0  0  0  0  0  0  0
   46.4150   31.5200   38.9640 N   0  0  0  0  0  0  0  0  0  0  0  0
   46.2690   30.1790   39.1630 C   0  0  0  0  0  0  0  0  0  0  0  0
   46.4820   29.7340   40.1270 H   0  0  0  0  0  0  0  0  0  0  0  0
   45.8460   29.6110   38.0140 N   0  0  0  0  0  0  0  0  0  0  0  0
   45.7160   30.5710   37.0690 C   0  0  0  0  0  0  0  0  0  0  0  0
   45.3200   30.5160   35.7410 C   0  0  0  0  0  0  0  0  0  0  0  0
   45.0420   29.5680   35.2830 H   0  0  0  0  0  0  0  0  0  0  0  0
   45.2730   31.6340   34.9960 N   0  0  0  0  0  0  0  0  0  0  0  0
   45.6310   32.7960   35.6150 C   0  0  0  0  0  0  0  0  0  0  0  0
   45.6310   33.7710   35.1050 H   0  0  0  0  0  0  0  0  0  0  0  0
   46.0210   32.8950   36.9020 N   0  0  0  0  0  0  0  0  0  0  0  0
   46.0760   31.7820   37.6680 C   0  0  0  0  0  0  0  0  0  0  0  0
   47.5690   32.0080   46.4620 C   0  0  2  0  0  0  0  0  0  0  0  0
   47.5250   30.5100   46.0490 C   0  0  0  0  0  0  0  0  0  0  0  0
   48.3820   29.7140   46.9740 C   0  0  0  0  0  0  0  0  0  0  0  0
   48.2440   30.0280   48.4250 C   0  0  0  0  0  0  0  0  0  0  0  0
   48.0620   31.4310   48.7170 C   0  0  0  0  0  0  0  0  0  0  0  0
   47.0290   32.1260   47.8020 C   0  0  2  0  0  0  0  0  0  0  0  0
   48.6530   32.2380   46.4030 H   0  0  0  0  0  0  0  0  0  0  0  0
   46.5110   30.1170   46.0300 H   0  0  0  0  0  0  0  0  0  0  0  0
   47.9270   30.4490   45.0190 H   0  0  0  0  0  0  0  0  0  0  0  0
   49.4050   29.7530   46.5520 H   0  0  0  0  0  0  0  0  0  0  0  0
   48.0850   28.6310   46.8530 H   0  0  0  0  0  0  0  0  0  0  0  0
   47.9180   29.2360   49.0970 H   0  0  0  0  0  0  0  0  0  0  0  0
   49.3600   29.9200   48.7380 H   0  0  0  0  0  0  0  0  0  0  0  0
   48.9500   32.1070   48.6700 H   0  0  0  0  0  0  0  0  0  0  0  0
   47.6660   31.5920   49.7570 H   0  0  0  0  0  0  0  0  0  0  0  0
   47.0060   33.1250   48.2390 H   0  0  0  0  0  0  0  0  0  0  0  0
   45.7600   31.4020   47.8950 N   0  0  0  0  0  0  0  0  0  0  0  0
   45.1320   30.7530   48.9720 C   0  0  0  0  0  0  0  0  0  0  0  0
   44.5160   31.3840   49.9060 O   0  0  0  0  0  0  0  0  0  0  0  0
   45.2240   29.3280   48.9450 N   0  0  0  0  0  0  0  0  0  0  0  0
   45.1380   31.2210   47.0200 H   0  0  0  0  0  0  0  0  0  0  0  0
   44.9850   28.6650   48.1870 H   0  0  0  0  0  0  0  0  0  0  0  0
   45.5800   28.8040   49.7810 H   0  0  0  0  0  0  0  0  0  0  0  0
  1  2  1  0  0  0  0
  1 30  1  0  0  0  0
  2  7  1  0  0  0  0
  3  8  1  0  0  0  0
  3  2  2  0  0  0  0
  4  3  1  0  0  0  0
  5  4  2  0  0  0  0
  5  6  1  0  0  0  0
  6  1  2  0  0  0  0
  9  5  1  0  0  0  0
 10  9  1  0  0  0  0
 10 15  1  0  0  0  0
 11 10  2  0  0  0  0
 12 13  2  0  0  0  0
 12 11  1  0  0  0  0
 13 14  1  0  0  0  0
 14  9  2  0  0  0  0
 16 11  1  0  0  0  0
 17 12  1  0  0  0  0
 18 19  1  0  0  0  0
 18 13  1  0  0  0  0
 19 20  1  0  0  0  0
 21 19  2  0  0  0  0
 22 29  1  0  0  0  0
 22 21  1  0  0  0  0
 23 22  2  0  0  0  0
 24 23  1  0  0  0  0
 25 26  2  0  0  0  0
 25 23  1  0  0  0  0
 26 28  1  0  0  0  0
 27 26  1  0  0  0  0
 28 29  2  0  0  0  0
 29 18  1  0  0  0  0
 30 36  1  1  0  0  0
 30 35  1  0  0  0  0
 31 30  1  0  0  0  0
 31 32  1  0  0  0  0
 32 33  1  0  0  0  0
 33 34  1  0  0  0  0
 33 42  1  0  0  0  0
 33 41  1  0  0  0  0
 34 44  1  0  0  0  0
 35 46  1  0  0  0  0
 35 45  1  1  0  0  0
 35 34  1  0  0  0  0
 37 31  1  0  0  0  0
 38 31  1  0  0  0  0
 39 32  1  0  0  0  0
 40 32  1  0  0  0  0
 43 34  1  0  0  0  0
 46 47  1  0  0  0  0
 47 48  2  0  0  0  0
 49 47  1  0  0  0  0
 49 52  1  0  0  0  0
 50 46  1  0  0  0  0
 51 49  1  0  0  0  0
M  END
>  <minimizedAffinity>
-6.1673069

>  <minimizedRMSD>
1.28928483

$$$$
