
 OpenBabel03242520203D

 38 41  0  0  0  0  0  0  0  0999 V2000
   35.3680   29.4610   40.2750 C   0  0  0  0  0  0  0  0  0  0  0  0
   34.5230   28.7440   40.1100 H   0  0  0  0  0  0  0  0  0  0  0  0
   35.0510   30.3970   40.7790 H   0  0  0  0  0  0  0  0  0  0  0  0
   37.7390   26.9890   41.8740 C   0  0  0  0  0  0  0  0  0  0  0  0
   36.7520   27.5260   41.0250 C   0  0  0  0  0  0  0  0  0  0  0  0
   36.3980   28.8590   41.1560 C   0  0  0  0  0  0  0  0  0  0  0  0
   37.0470   29.5810   42.1290 N   0  0  0  0  0  0  0  0  0  0  0  0
   37.9940   29.0170   42.9240 C   0  0  0  0  0  0  0  0  0  0  0  0
   38.3350   27.7360   42.7980 N   0  0  0  0  0  0  0  0  0  0  0  0
   36.2980   26.8760   40.2910 H   0  0  0  0  0  0  0  0  0  0  0  0
   38.5030   29.5800   43.6850 H   0  0  0  0  0  0  0  0  0  0  0  0
   38.1000   25.5550   41.7220 C   0  0  0  0  0  0  0  0  0  0  0  0
   36.9480   24.6040   42.1800 C   0  0  0  0  0  0  0  0  0  0  0  0
   37.4800   24.6590   40.8140 C   0  0  0  0  0  0  0  0  0  0  0  0
   39.0870   25.3300   42.1680 H   0  0  0  0  0  0  0  0  0  0  0  0
   37.2760   23.8450   42.9180 H   0  0  0  0  0  0  0  0  0  0  0  0
   35.9920   25.0680   42.4650 H   0  0  0  0  0  0  0  0  0  0  0  0
   38.0460   23.8080   40.3820 H   0  0  0  0  0  0  0  0  0  0  0  0
   36.7630   25.0810   40.0510 H   0  0  0  0  0  0  0  0  0  0  0  0
   35.9680   29.8500   38.9440 C   0  0  0  0  0  0  0  0  0  0  0  0
   36.1140   28.9380   38.3500 H   0  0  0  0  0  0  0  0  0  0  0  0
   35.1940   30.4390   38.3730 H   0  0  0  0  0  0  0  0  0  0  0  0
   37.7720   31.1250   37.8800 C   0  0  0  0  0  0  0  0  0  0  0  0
   37.3250   30.9840   36.7070 O   0  0  0  0  0  0  0  0  0  0  0  0
   37.1730   30.6350   39.0870 N   0  0  0  0  0  0  0  0  0  0  0  0
   37.5720   30.8270   40.0090 H   0  0  0  0  0  0  0  0  0  0  0  0
   39.8780   31.8650   36.1230 H   0  0  0  0  0  0  0  0  0  0  0  0
   39.9870   32.1620   37.1120 N   0  0  0  0  0  0  0  0  0  0  0  0
   39.0430   31.8680   38.0520 C   0  0  0  0  0  0  0  0  0  0  0  0
   39.5090   32.4030   39.2080 N   0  0  0  0  0  0  0  0  0  0  0  0
   40.6940   33.0080   39.0110 C   0  0  0  0  0  0  0  0  0  0  0  0
   41.5950   33.6940   39.8000 C   0  0  0  0  0  0  0  0  0  0  0  0
   41.3360   33.8020   40.8430 H   0  0  0  0  0  0  0  0  0  0  0  0
   42.7380   34.2120   39.3270 N   0  0  0  0  0  0  0  0  0  0  0  0
   43.0000   34.0400   38.0080 C   0  0  0  0  0  0  0  0  0  0  0  0
   43.8960   34.4130   37.5050 H   0  0  0  0  0  0  0  0  0  0  0  0
   42.1380   33.3700   37.1990 N   0  0  0  0  0  0  0  0  0  0  0  0
   40.9880   32.8500   37.6790 C   0  0  0  0  0  0  0  0  0  0  0  0
  1  3  1  0  0  0  0
  1  6  1  0  0  0  0
  2  1  1  0  0  0  0
  4  9  1  0  0  0  0
  5  6  1  0  0  0  0
  5  4  2  0  0  0  0
  6  7  2  0  0  0  0
  7  8  1  0  0  0  0
  8 11  1  0  0  0  0
  9  8  2  0  0  0  0
 10  5  1  0  0  0  0
 12  4  1  0  0  0  0
 12 15  1  0  0  0  0
 12 13  1  0  0  0  0
 13 17  1  0  0  0  0
 13 16  1  0  0  0  0
 14 12  1  0  0  0  0
 14 13  1  0  0  0  0
 18 14  1  0  0  0  0
 19 14  1  0  0  0  0
 20 25  1  0  0  0  0
 20  1  1  0  0  0  0
 21 20  1  0  0  0  0
 22 20  1  0  0  0  0
 23 29  1  0  0  0  0
 23 25  1  0  0  0  0
 24 23  2  0  0  0  0
 25 26  1  0  0  0  0
 27 28  1  0  0  0  0
 28 38  1  0  0  0  0
 28 29  1  0  0  0  0
 29 30  2  0  0  0  0
 31 30  1  0  0  0  0
 31 32  1  0  0  0  0
 32 33  1  0  0  0  0
 34 32  2  0  0  0  0
 35 34  1  0  0  0  0
 36 35  1  0  0  0  0
 37 38  1  0  0  0  0
 37 35  2  0  0  0  0
 38 31  2  0  0  0  0
M  END
>  <minimizedAffinity>
-5.72553682

$$$$

 OpenBabel03242520203D

 38 41  0  0  0  0  0  0  0  0999 V2000
   35.9760   29.8940   40.5560 C   0  0  0  0  0  0  0  0  0  0  0  0
   36.1270   29.6550   39.4720 H   0  0  0  0  0  0  0  0  0  0  0  0
   34.9230   29.7710   40.8850 H   0  0  0  0  0  0  0  0  0  0  0  0
   37.7200   26.8140   41.8820 C   0  0  0  0  0  0  0  0  0  0  0  0
   36.9510   27.6530   41.0530 C   0  0  0  0  0  0  0  0  0  0  0  0
   36.7740   28.9790   41.4080 C   0  0  0  0  0  0  0  0  0  0  0  0
   37.3730   29.3950   42.5740 N   0  0  0  0  0  0  0  0  0  0  0  0
   38.1060   28.5470   43.3410 C   0  0  0  0  0  0  0  0  0  0  0  0
   38.2780   27.2720   42.9990 N   0  0  0  0  0  0  0  0  0  0  0  0
   36.5200   27.2310   40.1570 H   0  0  0  0  0  0  0  0  0  0  0  0
   38.5760   28.8710   44.2530 H   0  0  0  0  0  0  0  0  0  0  0  0
   37.8940   25.3910   41.4860 C   0  0  0  0  0  0  0  0  0  0  0  0
   36.8090   24.4650   42.1250 C   0  0  0  0  0  0  0  0  0  0  0  0
   36.9830   24.6620   40.6820 C   0  0  0  0  0  0  0  0  0  0  0  0
   38.9350   25.0490   41.6310 H   0  0  0  0  0  0  0  0  0  0  0  0
   37.2400   23.5970   42.6640 H   0  0  0  0  0  0  0  0  0  0  0  0
   36.0040   24.9480   42.6990 H   0  0  0  0  0  0  0  0  0  0  0  0
   37.3370   23.8390   40.0270 H   0  0  0  0  0  0  0  0  0  0  0  0
   36.1390   25.2230   40.1830 H   0  0  0  0  0  0  0  0  0  0  0  0
   36.3590   31.3330   40.8150 C   0  0  0  0  0  0  0  0  0  0  0  0
   35.6390   31.9810   40.2980 H   0  0  0  0  0  0  0  0  0  0  0  0
   36.1960   31.5440   41.9100 H   0  0  0  0  0  0  0  0  0  0  0  0
   37.9960   32.8780   39.8420 C   0  0  0  0  0  0  0  0  0  0  0  0
   37.1570   33.7970   39.6230 O   0  0  0  0  0  0  0  0  0  0  0  0
   37.7330   31.6120   40.4610 N   0  0  0  0  0  0  0  0  0  0  0  0
   38.4740   30.9330   40.6470 H   0  0  0  0  0  0  0  0  0  0  0  0
   39.3950   32.6280   37.3820 H   0  0  0  0  0  0  0  0  0  0  0  0
   39.9580   32.9490   38.1940 N   0  0  0  0  0  0  0  0  0  0  0  0
   39.4000   33.1090   39.4290 C   0  0  0  0  0  0  0  0  0  0  0  0
   40.4120   33.5330   40.2270 N   0  0  0  0  0  0  0  0  0  0  0  0
   41.5580   33.6370   39.5310 C   0  0  0  0  0  0  0  0  0  0  0  0
   42.8560   34.0060   39.8180 C   0  0  0  0  0  0  0  0  0  0  0  0
   43.0600   34.2930   40.8390 H   0  0  0  0  0  0  0  0  0  0  0  0
   43.8350   34.0200   38.9000 N   0  0  0  0  0  0  0  0  0  0  0  0
   43.5090   33.6480   37.6380 C   0  0  0  0  0  0  0  0  0  0  0  0
   44.2150   33.6170   36.8040 H   0  0  0  0  0  0  0  0  0  0  0  0
   42.2420   33.2770   37.3160 N   0  0  0  0  0  0  0  0  0  0  0  0
   41.2600   33.2650   38.2430 C   0  0  0  0  0  0  0  0  0  0  0  0
  1 20  1  0  0  0  0
  1  3  1  0  0  0  0
  1  6  1  0  0  0  0
  2  1  1  0  0  0  0
  4  9  1  0  0  0  0
  5  6  1  0  0  0  0
  5  4  2  0  0  0  0
  6  7  2  0  0  0  0
  7  8  1  0  0  0  0
  8 11  1  0  0  0  0
  9  8  2  0  0  0  0
 10  5  1  0  0  0  0
 12 15  1  0  0  0  0
 12  4  1  0  0  0  0
 12 13  1  0  0  0  0
 13 16  1  0  0  0  0
 13 17  1  0  0  0  0
 14 12  1  0  0  0  0
 14 13  1  0  0  0  0
 18 14  1  0  0  0  0
 19 14  1  0  0  0  0
 20 22  1  0  0  0  0
 21 20  1  0  0  0  0
 23 25  1  0  0  0  0
 24 23  2  0  0  0  0
 25 26  1  0  0  0  0
 25 20  1  0  0  0  0
 27 28  1  0  0  0  0
 28 38  1  0  0  0  0
 28 29  1  0  0  0  0
 29 23  1  0  0  0  0
 29 30  2  0  0  0  0
 31 32  1  0  0  0  0
 31 30  1  0  0  0  0
 32 33  1  0  0  0  0
 34 32  2  0  0  0  0
 35 34  1  0  0  0  0
 36 35  1  0  0  0  0
 37 35  2  0  0  0  0
 37 38  1  0  0  0  0
 38 31  2  0  0  0  0
M  END
>  <minimizedAffinity>
-5.71309757

$$$$

 OpenBabel03242520203D

 38 41  0  0  0  0  0  0  0  0999 V2000
   36.9560   31.8080   40.3140 C   0  0  0  0  0  0  0  0  0  0  0  0
   35.8540   31.9430   40.1640 H   0  0  0  0  0  0  0  0  0  0  0  0
   37.3190   32.2410   41.2700 H   0  0  0  0  0  0  0  0  0  0  0  0
   37.3420   28.2390   41.4960 C   0  0  0  0  0  0  0  0  0  0  0  0
   37.0030   29.6060   41.4830 C   0  0  0  0  0  0  0  0  0  0  0  0
   37.3030   30.3670   40.3670 C   0  0  0  0  0  0  0  0  0  0  0  0
   37.9260   29.7230   39.3240 N   0  0  0  0  0  0  0  0  0  0  0  0
   38.2320   28.4000   39.3840 C   0  0  0  0  0  0  0  0  0  0  0  0
   37.9430   27.6670   40.4570 N   0  0  0  0  0  0  0  0  0  0  0  0
   36.5150   30.0210   42.3530 H   0  0  0  0  0  0  0  0  0  0  0  0
   38.7190   27.8950   38.5700 H   0  0  0  0  0  0  0  0  0  0  0  0
   37.0170   27.4400   42.7080 C   0  0  0  0  0  0  0  0  0  0  0  0
   38.2300   27.3320   43.6860 C   0  0  0  0  0  0  0  0  0  0  0  0
   36.9490   27.9620   44.0240 C   0  0  0  0  0  0  0  0  0  0  0  0
   36.5470   26.4720   42.4470 H   0  0  0  0  0  0  0  0  0  0  0  0
   38.4730   26.2880   43.9670 H   0  0  0  0  0  0  0  0  0  0  0  0
   39.1320   27.9130   43.4410 H   0  0  0  0  0  0  0  0  0  0  0  0
   36.2690   27.5140   44.7770 H   0  0  0  0  0  0  0  0  0  0  0  0
   37.0010   29.0810   44.1590 H   0  0  0  0  0  0  0  0  0  0  0  0
   37.7060   32.4970   39.1980 C   0  0  0  0  0  0  0  0  0  0  0  0
   37.5380   31.9350   38.2690 H   0  0  0  0  0  0  0  0  0  0  0  0
   37.2190   33.4970   39.0170 H   0  0  0  0  0  0  0  0  0  0  0  0
   39.4850   33.9530   40.0500 C   0  0  0  0  0  0  0  0  0  0  0  0
   38.7100   34.9090   40.3390 O   0  0  0  0  0  0  0  0  0  0  0  0
   39.1060   32.6830   39.5040 N   0  0  0  0  0  0  0  0  0  0  0  0
   39.7870   31.9390   39.3370 H   0  0  0  0  0  0  0  0  0  0  0  0
   41.0050   35.0660   42.1770 H   0  0  0  0  0  0  0  0  0  0  0  0
   41.5510   34.7000   41.3720 N   0  0  0  0  0  0  0  0  0  0  0  0
   40.9350   34.1410   40.2900 C   0  0  0  0  0  0  0  0  0  0  0  0
   41.9400   33.7810   39.4520 N   0  0  0  0  0  0  0  0  0  0  0  0
   43.1370   34.0970   39.9780 C   0  0  0  0  0  0  0  0  0  0  0  0
   44.4530   33.9690   39.5830 C   0  0  0  0  0  0  0  0  0  0  0  0
   44.6240   33.5080   38.6220 H   0  0  0  0  0  0  0  0  0  0  0  0
   45.4870   34.3840   40.3300 N   0  0  0  0  0  0  0  0  0  0  0  0
   45.2000   34.9540   41.5260 C   0  0  0  0  0  0  0  0  0  0  0  0
   45.9530   35.3320   42.2240 H   0  0  0  0  0  0  0  0  0  0  0  0
   43.9170   35.0990   41.9510 N   0  0  0  0  0  0  0  0  0  0  0  0
   42.8790   34.6790   41.1950 C   0  0  0  0  0  0  0  0  0  0  0  0
  1  6  1  0  0  0  0
  1  3  1  0  0  0  0
  2  1  1  0  0  0  0
  4 12  1  0  0  0  0
  5  4  1  0  0  0  0
  5 10  1  0  0  0  0
  6  5  2  0  0  0  0
  7  8  2  0  0  0  0
  7  6  1  0  0  0  0
  8  9  1  0  0  0  0
  9  4  2  0  0  0  0
 11  8  1  0  0  0  0
 12 13  1  0  0  0  0
 12 14  1  0  0  0  0
 13 16  1  0  0  0  0
 13 14  1  0  0  0  0
 14 19  1  0  0  0  0
 14 18  1  0  0  0  0
 15 12  1  0  0  0  0
 17 13  1  0  0  0  0
 20 25  1  0  0  0  0
 20  1  1  0  0  0  0
 21 20  1  0  0  0  0
 22 20  1  0  0  0  0
 23 29  1  0  0  0  0
 23 24  2  0  0  0  0
 25 23  1  0  0  0  0
 26 25  1  0  0  0  0
 28 27  1  0  0  0  0
 29 28  1  0  0  0  0
 30 31  1  0  0  0  0
 30 29  2  0  0  0  0
 31 38  1  0  0  0  0
 32 31  2  0  0  0  0
 32 34  1  0  0  0  0
 33 32  1  0  0  0  0
 34 35  2  0  0  0  0
 35 37  1  0  0  0  0
 35 36  1  0  0  0  0
 38 28  1  0  0  0  0
 38 37  2  0  0  0  0
M  END
>  <minimizedAffinity>
-5.70652723

$$$$

 OpenBabel03242520203D

 38 41  0  0  0  0  0  0  0  0999 V2000
   35.4980   29.1100   37.8610 C   0  0  0  0  0  0  0  0  0  0  0  0
   34.9420   28.1380   37.8260 H   0  0  0  0  0  0  0  0  0  0  0  0
   34.8800   29.9750   37.5410 H   0  0  0  0  0  0  0  0  0  0  0  0
   36.4840   28.7290   41.4900 C   0  0  0  0  0  0  0  0  0  0  0  0
   36.0640   28.4050   40.1850 C   0  0  0  0  0  0  0  0  0  0  0  0
   35.9300   29.4140   39.2470 C   0  0  0  0  0  0  0  0  0  0  0  0
   36.2200   30.6920   39.6630 N   0  0  0  0  0  0  0  0  0  0  0  0
   36.6210   30.9540   40.9350 C   0  0  0  0  0  0  0  0  0  0  0  0
   36.7520   29.9840   41.8370 N   0  0  0  0  0  0  0  0  0  0  0  0
   35.8600   27.3690   39.9550 H   0  0  0  0  0  0  0  0  0  0  0  0
   36.8490   31.9530   41.2620 H   0  0  0  0  0  0  0  0  0  0  0  0
   36.6160   27.6310   42.4850 C   0  0  0  0  0  0  0  0  0  0  0  0
   38.0960   27.4200   42.9370 C   0  0  0  0  0  0  0  0  0  0  0  0
   37.0050   27.8100   43.8360 C   0  0  0  0  0  0  0  0  0  0  0  0
   36.1000   26.7110   42.1520 H   0  0  0  0  0  0  0  0  0  0  0  0
   38.4380   26.3700   42.8350 H   0  0  0  0  0  0  0  0  0  0  0  0
   38.8460   28.1340   42.5660 H   0  0  0  0  0  0  0  0  0  0  0  0
   36.6390   27.1250   44.6280 H   0  0  0  0  0  0  0  0  0  0  0  0
   37.0850   28.8630   44.2350 H   0  0  0  0  0  0  0  0  0  0  0  0
   36.6890   29.0440   36.9340 C   0  0  0  0  0  0  0  0  0  0  0  0
   37.2020   28.0870   37.0960 H   0  0  0  0  0  0  0  0  0  0  0  0
   36.3030   28.9850   35.8760 H   0  0  0  0  0  0  0  0  0  0  0  0
   38.8610   29.9460   37.6300 C   0  0  0  0  0  0  0  0  0  0  0  0
   39.3380   28.8240   37.9640 O   0  0  0  0  0  0  0  0  0  0  0  0
   37.5620   30.1880   37.0720 N   0  0  0  0  0  0  0  0  0  0  0  0
   37.2600   31.1210   36.7850 H   0  0  0  0  0  0  0  0  0  0  0  0
   40.9930   31.1140   36.1600 H   0  0  0  0  0  0  0  0  0  0  0  0
   40.7190   31.6070   37.0330 N   0  0  0  0  0  0  0  0  0  0  0  0
   39.7090   31.1450   37.8240 C   0  0  0  0  0  0  0  0  0  0  0  0
   39.6310   32.0230   38.8550 N   0  0  0  0  0  0  0  0  0  0  0  0
   40.5490   32.9970   38.7240 C   0  0  0  0  0  0  0  0  0  0  0  0
   40.9130   34.1140   39.4480 C   0  0  0  0  0  0  0  0  0  0  0  0
   40.3570   34.3020   40.3540 H   0  0  0  0  0  0  0  0  0  0  0  0
   41.9000   34.9420   39.0720 N   0  0  0  0  0  0  0  0  0  0  0  0
   42.5570   34.6460   37.9240 C   0  0  0  0  0  0  0  0  0  0  0  0
   43.3770   35.2410   37.5130 H   0  0  0  0  0  0  0  0  0  0  0  0
   42.2280   33.5550   37.1830 N   0  0  0  0  0  0  0  0  0  0  0  0
   41.2340   32.7250   37.5650 C   0  0  0  0  0  0  0  0  0  0  0  0
  1  6  1  0  0  0  0
  2  1  1  0  0  0  0
  3  1  1  0  0  0  0
  4  9  1  0  0  0  0
  4 12  1  0  0  0  0
  5  4  2  0  0  0  0
  6  7  2  0  0  0  0
  6  5  1  0  0  0  0
  7  8  1  0  0  0  0
  8 11  1  0  0  0  0
  8  9  2  0  0  0  0
 10  5  1  0  0  0  0
 12 13  1  0  0  0  0
 12 14  1  0  0  0  0
 13 14  1  0  0  0  0
 14 19  1  0  0  0  0
 14 18  1  0  0  0  0
 15 12  1  0  0  0  0
 16 13  1  0  0  0  0
 17 13  1  0  0  0  0
 20 25  1  0  0  0  0
 20 21  1  0  0  0  0
 20  1  1  0  0  0  0
 22 20  1  0  0  0  0
 23 29  1  0  0  0  0
 23 24  2  0  0  0  0
 25 23  1  0  0  0  0
 26 25  1  0  0  0  0
 27 28  1  0  0  0  0
 28 38  1  0  0  0  0
 28 29  1  0  0  0  0
 29 30  2  0  0  0  0
 31 30  1  0  0  0  0
 31 32  1  0  0  0  0
 32 33  1  0  0  0  0
 34 32  2  0  0  0  0
 35 34  1  0  0  0  0
 36 35  1  0  0  0  0
 37 38  1  0  0  0  0
 37 35  2  0  0  0  0
 38 31  2  0  0  0  0
M  END
>  <minimizedAffinity>
-5.65072346

$$$$

 OpenBabel03242520203D

 38 41  0  0  0  0  0  0  0  0999 V2000
   39.0690   29.0770   42.8030 C   0  0  0  0  0  0  0  0  0  0  0  0
   39.7570   28.4540   42.1750 H   0  0  0  0  0  0  0  0  0  0  0  0
   39.6050   29.6860   43.5600 H   0  0  0  0  0  0  0  0  0  0  0  0
   38.2470   31.9800   40.5270 C   0  0  0  0  0  0  0  0  0  0  0  0
   38.9830   31.0840   41.3260 C   0  0  0  0  0  0  0  0  0  0  0  0
   38.3260   30.0440   41.9590 C   0  0  0  0  0  0  0  0  0  0  0  0
   36.9680   29.9560   41.7630 N   0  0  0  0  0  0  0  0  0  0  0  0
   36.3010   30.8460   40.9820 C   0  0  0  0  0  0  0  0  0  0  0  0
   36.9330   31.8460   40.3720 N   0  0  0  0  0  0  0  0  0  0  0  0
   40.0490   31.2380   41.4190 H   0  0  0  0  0  0  0  0  0  0  0  0
   35.2390   30.7790   40.8270 H   0  0  0  0  0  0  0  0  0  0  0  0
   38.9710   33.0940   39.8590 C   0  0  0  0  0  0  0  0  0  0  0  0
   38.9130   34.4170   40.6900 C   0  0  0  0  0  0  0  0  0  0  0  0
   40.1500   33.7020   40.3580 C   0  0  0  0  0  0  0  0  0  0  0  0
   38.6720   33.2020   38.8000 H   0  0  0  0  0  0  0  0  0  0  0  0
   38.5500   35.2850   40.1030 H   0  0  0  0  0  0  0  0  0  0  0  0
   38.4470   34.3700   41.6860 H   0  0  0  0  0  0  0  0  0  0  0  0
   40.8990   34.1400   39.6660 H   0  0  0  0  0  0  0  0  0  0  0  0
   40.6650   33.2270   41.2430 H   0  0  0  0  0  0  0  0  0  0  0  0
   38.1130   28.1760   43.5490 C   0  0  0  0  0  0  0  0  0  0  0  0
   38.5960   27.8530   44.4810 H   0  0  0  0  0  0  0  0  0  0  0  0
   37.2370   28.8010   43.8860 H   0  0  0  0  0  0  0  0  0  0  0  0
   38.4520   25.8890   42.7310 C   0  0  0  0  0  0  0  0  0  0  0  0
   39.5050   25.6920   43.4020 O   0  0  0  0  0  0  0  0  0  0  0  0
   37.6440   27.0740   42.7400 N   0  0  0  0  0  0  0  0  0  0  0  0
   36.7780   27.1440   42.2020 H   0  0  0  0  0  0  0  0  0  0  0  0
   39.4460   23.3090   42.0800 H   0  0  0  0  0  0  0  0  0  0  0  0
   38.5630   23.5870   41.6080 N   0  0  0  0  0  0  0  0  0  0  0  0
   37.9850   24.8010   41.8400 C   0  0  0  0  0  0  0  0  0  0  0  0
   36.8680   24.8190   41.0710 N   0  0  0  0  0  0  0  0  0  0  0  0
   36.7420   23.6700   40.3840 C   0  0  0  0  0  0  0  0  0  0  0  0
   35.8350   23.1530   39.4820 C   0  0  0  0  0  0  0  0  0  0  0  0
   34.9970   23.7850   39.2270 H   0  0  0  0  0  0  0  0  0  0  0  0
   35.9570   21.9350   38.9330 N   0  0  0  0  0  0  0  0  0  0  0  0
   37.0330   21.1950   39.2970 C   0  0  0  0  0  0  0  0  0  0  0  0
   37.2450   20.1900   38.9210 H   0  0  0  0  0  0  0  0  0  0  0  0
   37.9490   21.6680   40.1820 N   0  0  0  0  0  0  0  0  0  0  0  0
   37.8220   22.8950   40.7320 C   0  0  0  0  0  0  0  0  0  0  0  0
  1 20  1  0  0  0  0
  1  3  1  0  0  0  0
  2  1  1  0  0  0  0
  4  5  1  0  0  0  0
  5 10  1  0  0  0  0
  5  6  2  0  0  0  0
  6  1  1  0  0  0  0
  7  6  1  0  0  0  0
  8  7  2  0  0  0  0
  9  4  2  0  0  0  0
  9  8  1  0  0  0  0
 11  8  1  0  0  0  0
 12 14  1  0  0  0  0
 12  4  1  0  0  0  0
 12 13  1  0  0  0  0
 13 17  1  0  0  0  0
 14 13  1  0  0  0  0
 14 19  1  0  0  0  0
 15 12  1  0  0  0  0
 16 13  1  0  0  0  0
 18 14  1  0  0  0  0
 20 22  1  0  0  0  0
 20 21  1  0  0  0  0
 23 25  1  0  0  0  0
 23 24  2  0  0  0  0
 25 20  1  0  0  0  0
 26 25  1  0  0  0  0
 28 29  1  0  0  0  0
 28 27  1  0  0  0  0
 29 23  1  0  0  0  0
 30 29  2  0  0  0  0
 31 38  1  0  0  0  0
 31 30  1  0  0  0  0
 32 31  2  0  0  0  0
 33 32  1  0  0  0  0
 34 35  2  0  0  0  0
 34 32  1  0  0  0  0
 35 37  1  0  0  0  0
 36 35  1  0  0  0  0
 37 38  2  0  0  0  0
 38 28  1  0  0  0  0
M  END
>  <minimizedAffinity>
-5.32644367

$$$$

 OpenBabel03242520203D

 38 41  0  0  0  0  0  0  0  0999 V2000
   36.0680   29.4280   38.6190 C   0  0  0  0  0  0  0  0  0  0  0  0
   35.2550   28.9590   38.0070 H   0  0  0  0  0  0  0  0  0  0  0  0
   35.6790   30.0850   39.4250 H   0  0  0  0  0  0  0  0  0  0  0  0
   37.3900   27.0290   41.2220 C   0  0  0  0  0  0  0  0  0  0  0  0
   36.6070   28.0260   40.6090 C   0  0  0  0  0  0  0  0  0  0  0  0
   36.8750   28.3880   39.2990 C   0  0  0  0  0  0  0  0  0  0  0  0
   37.9120   27.7360   38.6750 N   0  0  0  0  0  0  0  0  0  0  0  0
   38.6390   26.7800   39.3100 C   0  0  0  0  0  0  0  0  0  0  0  0
   38.3810   26.4300   40.5680 N   0  0  0  0  0  0  0  0  0  0  0  0
   35.8140   28.4800   41.1840 H   0  0  0  0  0  0  0  0  0  0  0  0
   39.4500   26.2680   38.8230 H   0  0  0  0  0  0  0  0  0  0  0  0
   37.0890   26.6590   42.6310 C   0  0  0  0  0  0  0  0  0  0  0  0
   37.9900   27.4300   43.6480 C   0  0  0  0  0  0  0  0  0  0  0  0
   36.5280   27.5350   43.5930 C   0  0  0  0  0  0  0  0  0  0  0  0
   37.0710   25.5620   42.7720 H   0  0  0  0  0  0  0  0  0  0  0  0
   38.5130   26.7620   44.3620 H   0  0  0  0  0  0  0  0  0  0  0  0
   38.6580   28.2070   43.2460 H   0  0  0  0  0  0  0  0  0  0  0  0
   35.8910   27.1450   44.4130 H   0  0  0  0  0  0  0  0  0  0  0  0
   36.1460   28.5390   43.2440 H   0  0  0  0  0  0  0  0  0  0  0  0
   36.9410   30.2830   37.7290 C   0  0  0  0  0  0  0  0  0  0  0  0
   37.2080   29.6960   36.8400 H   0  0  0  0  0  0  0  0  0  0  0  0
   36.3110   31.1290   37.3330 H   0  0  0  0  0  0  0  0  0  0  0  0
   37.9880   32.1600   38.9090 C   0  0  0  0  0  0  0  0  0  0  0  0
   36.9750   32.9110   38.8330 O   0  0  0  0  0  0  0  0  0  0  0  0
   38.0900   30.8140   38.4260 N   0  0  0  0  0  0  0  0  0  0  0  0
   38.9320   30.2500   38.5640 H   0  0  0  0  0  0  0  0  0  0  0  0
   39.1230   34.7560   39.1190 H   0  0  0  0  0  0  0  0  0  0  0  0
   39.6480   33.9920   39.5880 N   0  0  0  0  0  0  0  0  0  0  0  0
   39.2040   32.7020   39.5600 C   0  0  0  0  0  0  0  0  0  0  0  0
   40.1220   31.9910   40.2620 N   0  0  0  0  0  0  0  0  0  0  0  0
   41.1020   32.7930   40.7150 C   0  0  0  0  0  0  0  0  0  0  0  0
   42.2520   32.6220   41.4580 C   0  0  0  0  0  0  0  0  0  0  0  0
   42.4700   31.6160   41.7840 H   0  0  0  0  0  0  0  0  0  0  0  0
   43.0760   33.6320   41.7770 N   0  0  0  0  0  0  0  0  0  0  0  0
   42.7430   34.8690   41.3360 C   0  0  0  0  0  0  0  0  0  0  0  0
   43.3310   35.7710   41.5290 H   0  0  0  0  0  0  0  0  0  0  0  0
   41.6190   35.0780   40.6010 N   0  0  0  0  0  0  0  0  0  0  0  0
   40.7920   34.0590   40.2830 C   0  0  0  0  0  0  0  0  0  0  0  0
  1  6  1  0  0  0  0
  1  3  1  0  0  0  0
  2  1  1  0  0  0  0
  4 12  1  0  0  0  0
  5 10  1  0  0  0  0
  5  4  1  0  0  0  0
  6  5  2  0  0  0  0
  7  6  1  0  0  0  0
  7  8  2  0  0  0  0
  8  9  1  0  0  0  0
  9  4  2  0  0  0  0
 11  8  1  0  0  0  0
 12 15  1  0  0  0  0
 12 14  1  0  0  0  0
 12 13  1  0  0  0  0
 13 16  1  0  0  0  0
 14 13  1  0  0  0  0
 14 18  1  0  0  0  0
 17 13  1  0  0  0  0
 19 14  1  0  0  0  0
 20 25  1  0  0  0  0
 20  1  1  0  0  0  0
 21 20  1  0  0  0  0
 22 20  1  0  0  0  0
 23 29  1  0  0  0  0
 24 23  2  0  0  0  0
 25 26  1  0  0  0  0
 25 23  1  0  0  0  0
 27 28  1  0  0  0  0
 28 38  1  0  0  0  0
 29 28  1  0  0  0  0
 29 30  2  0  0  0  0
 30 31  1  0  0  0  0
 31 32  1  0  0  0  0
 32 34  2  0  0  0  0
 32 33  1  0  0  0  0
 35 36  1  0  0  0  0
 35 34  1  0  0  0  0
 37 35  2  0  0  0  0
 38 37  1  0  0  0  0
 38 31  2  0  0  0  0
M  END
>  <minimizedAffinity>
-5.30423689

$$$$

 OpenBabel03242520203D

 38 41  0  0  0  0  0  0  0  0999 V2000
   36.4820   28.4750   41.5750 C   0  0  0  0  0  0  0  0  0  0  0  0
   36.2910   28.7320   40.5020 H   0  0  0  0  0  0  0  0  0  0  0  0
   35.5500   28.3540   42.1650 H   0  0  0  0  0  0  0  0  0  0  0  0
   38.8460   25.7510   42.7070 C   0  0  0  0  0  0  0  0  0  0  0  0
   38.1910   26.9960   42.6290 C   0  0  0  0  0  0  0  0  0  0  0  0
   37.1980   27.1810   41.6820 C   0  0  0  0  0  0  0  0  0  0  0  0
   36.9150   26.1140   40.8630 N   0  0  0  0  0  0  0  0  0  0  0  0
   37.5750   24.9320   40.9770 C   0  0  0  0  0  0  0  0  0  0  0  0
   38.5290   24.7530   41.8880 N   0  0  0  0  0  0  0  0  0  0  0  0
   38.4860   27.7740   43.3180 H   0  0  0  0  0  0  0  0  0  0  0  0
   37.3540   24.0960   40.3370 H   0  0  0  0  0  0  0  0  0  0  0  0
   39.9140   25.5750   43.7270 C   0  0  0  0  0  0  0  0  0  0  0  0
   41.3360   25.4940   43.0840 C   0  0  0  0  0  0  0  0  0  0  0  0
   40.9110   26.5370   44.0250 C   0  0  0  0  0  0  0  0  0  0  0  0
   39.6780   24.7530   44.4290 H   0  0  0  0  0  0  0  0  0  0  0  0
   41.9090   24.6000   43.4040 H   0  0  0  0  0  0  0  0  0  0  0  0
   41.4120   25.6660   42.0000 H   0  0  0  0  0  0  0  0  0  0  0  0
   41.3470   26.6050   45.0420 H   0  0  0  0  0  0  0  0  0  0  0  0
   40.8170   27.5650   43.5680 H   0  0  0  0  0  0  0  0  0  0  0  0
   37.2820   29.5810   42.2240 C   0  0  0  0  0  0  0  0  0  0  0  0
   36.5970   30.2030   42.8150 H   0  0  0  0  0  0  0  0  0  0  0  0
   37.9690   29.1120   42.9860 H   0  0  0  0  0  0  0  0  0  0  0  0
   39.2390   30.9840   41.7600 C   0  0  0  0  0  0  0  0  0  0  0  0
   39.7010   30.9130   42.9340 O   0  0  0  0  0  0  0  0  0  0  0  0
   38.0570   30.3390   41.2680 N   0  0  0  0  0  0  0  0  0  0  0  0
   37.7680   30.4070   40.2890 H   0  0  0  0  0  0  0  0  0  0  0  0
   40.4580   33.5490   41.8530 H   0  0  0  0  0  0  0  0  0  0  0  0
   40.5210   33.0490   40.9440 N   0  0  0  0  0  0  0  0  0  0  0  0
   39.9760   31.8100   40.7740 C   0  0  0  0  0  0  0  0  0  0  0  0
   40.2470   31.4720   39.4890 N   0  0  0  0  0  0  0  0  0  0  0  0
   40.9330   32.4510   38.8720 C   0  0  0  0  0  0  0  0  0  0  0  0
   41.4550   32.6460   37.6100 C   0  0  0  0  0  0  0  0  0  0  0  0
   41.3060   31.8460   36.8990 H   0  0  0  0  0  0  0  0  0  0  0  0
   42.1170   33.7560   37.2530 N   0  0  0  0  0  0  0  0  0  0  0  0
   42.2680   34.7200   38.1940 C   0  0  0  0  0  0  0  0  0  0  0  0
   42.7860   35.6680   38.0270 H   0  0  0  0  0  0  0  0  0  0  0  0
   41.7670   34.5660   39.4480 N   0  0  0  0  0  0  0  0  0  0  0  0
   41.1020   33.4460   39.8030 C   0  0  0  0  0  0  0  0  0  0  0  0
  1  6  1  0  0  0  0
  1  3  1  0  0  0  0
  1 20  1  0  0  0  0
  2  1  1  0  0  0  0
  4 12  1  0  0  0  0
  5  4  1  0  0  0  0
  5 10  1  0  0  0  0
  6  5  2  0  0  0  0
  7  8  2  0  0  0  0
  7  6  1  0  0  0  0
  8  9  1  0  0  0  0
  9  4  2  0  0  0  0
 11  8  1  0  0  0  0
 12 14  1  0  0  0  0
 12 15  1  0  0  0  0
 13 16  1  0  0  0  0
 13 12  1  0  0  0  0
 13 14  1  0  0  0  0
 14 18  1  0  0  0  0
 17 13  1  0  0  0  0
 19 14  1  0  0  0  0
 20 21  1  0  0  0  0
 20 22  1  0  0  0  0
 23 24  2  0  0  0  0
 25 23  1  0  0  0  0
 25 20  1  0  0  0  0
 26 25  1  0  0  0  0
 28 27  1  0  0  0  0
 29 28  1  0  0  0  0
 29 23  1  0  0  0  0
 30 29  2  0  0  0  0
 31 30  1  0  0  0  0
 31 38  1  0  0  0  0
 32 31  2  0  0  0  0
 33 32  1  0  0  0  0
 34 32  1  0  0  0  0
 34 35  2  0  0  0  0
 35 37  1  0  0  0  0
 36 35  1  0  0  0  0
 37 38  2  0  0  0  0
 38 28  1  0  0  0  0
M  END
>  <minimizedAffinity>
-5.29221821

$$$$

 OpenBabel03242520203D

 38 41  0  0  0  0  0  0  0  0999 V2000
   36.1950   26.9970   38.5340 C   0  0  0  0  0  0  0  0  0  0  0  0
   36.6550   26.7750   37.5370 H   0  0  0  0  0  0  0  0  0  0  0  0
   35.5220   26.1890   38.8900 H   0  0  0  0  0  0  0  0  0  0  0  0
   37.9540   27.1360   41.8760 C   0  0  0  0  0  0  0  0  0  0  0  0
   36.9320   27.0050   40.9160 C   0  0  0  0  0  0  0  0  0  0  0  0
   37.2440   27.1350   39.5730 C   0  0  0  0  0  0  0  0  0  0  0  0
   38.5580   27.3920   39.2620 N   0  0  0  0  0  0  0  0  0  0  0  0
   39.5090   27.5110   40.2260 C   0  0  0  0  0  0  0  0  0  0  0  0
   39.2110   27.3840   41.5170 N   0  0  0  0  0  0  0  0  0  0  0  0
   35.9290   26.8040   41.2610 H   0  0  0  0  0  0  0  0  0  0  0  0
   40.5370   27.7110   39.9850 H   0  0  0  0  0  0  0  0  0  0  0  0
   37.5990   26.9990   43.3130 C   0  0  0  0  0  0  0  0  0  0  0  0
   37.3820   28.3840   44.0030 C   0  0  0  0  0  0  0  0  0  0  0  0
   36.3450   27.3550   43.8710 C   0  0  0  0  0  0  0  0  0  0  0  0
   38.2940   26.3230   43.8460 H   0  0  0  0  0  0  0  0  0  0  0  0
   37.9830   28.5110   44.9260 H   0  0  0  0  0  0  0  0  0  0  0  0
   37.4170   29.2790   43.3630 H   0  0  0  0  0  0  0  0  0  0  0  0
   35.9480   26.8220   44.7590 H   0  0  0  0  0  0  0  0  0  0  0  0
   35.5040   27.6280   43.1690 H   0  0  0  0  0  0  0  0  0  0  0  0
   35.3690   28.2580   38.4390 C   0  0  0  0  0  0  0  0  0  0  0  0
   35.0400   28.3800   37.3990 H   0  0  0  0  0  0  0  0  0  0  0  0
   34.4170   28.0940   39.0210 H   0  0  0  0  0  0  0  0  0  0  0  0
   36.7150   30.2590   37.9950 C   0  0  0  0  0  0  0  0  0  0  0  0
   36.6970   30.1220   36.7390 O   0  0  0  0  0  0  0  0  0  0  0  0
   36.0640   29.4160   38.9550 N   0  0  0  0  0  0  0  0  0  0  0  0
   36.0860   29.6150   39.9580 H   0  0  0  0  0  0  0  0  0  0  0  0
   35.9800   32.6770   39.2940 H   0  0  0  0  0  0  0  0  0  0  0  0
   36.9990   32.5220   39.1650 N   0  0  0  0  0  0  0  0  0  0  0  0
   37.4780   31.3990   38.5570 C   0  0  0  0  0  0  0  0  0  0  0  0
   38.8270   31.5340   38.5650 N   0  0  0  0  0  0  0  0  0  0  0  0
   39.1890   32.6890   39.1510 C   0  0  0  0  0  0  0  0  0  0  0  0
   40.3820   33.3240   39.4280 C   0  0  0  0  0  0  0  0  0  0  0  0
   41.2820   32.8130   39.1190 H   0  0  0  0  0  0  0  0  0  0  0  0
   40.4540   34.5130   40.0460 N   0  0  0  0  0  0  0  0  0  0  0  0
   39.2860   35.0980   40.4070 C   0  0  0  0  0  0  0  0  0  0  0  0
   39.2120   36.0640   40.9150 H   0  0  0  0  0  0  0  0  0  0  0  0
   38.0910   34.5050   40.1510 N   0  0  0  0  0  0  0  0  0  0  0  0
   38.0220   33.3080   39.5290 C   0  0  0  0  0  0  0  0  0  0  0  0
  1  3  1  0  0  0  0
  1  6  1  0  0  0  0
  2  1  1  0  0  0  0
  4 12  1  0  0  0  0
  5 10  1  0  0  0  0
  5  4  2  0  0  0  0
  6  5  1  0  0  0  0
  7  6  2  0  0  0  0
  7  8  1  0  0  0  0
  8  9  2  0  0  0  0
  9  4  1  0  0  0  0
 11  8  1  0  0  0  0
 12 15  1  0  0  0  0
 12 14  1  0  0  0  0
 12 13  1  0  0  0  0
 13 16  1  0  0  0  0
 14 13  1  0  0  0  0
 14 18  1  0  0  0  0
 17 13  1  0  0  0  0
 19 14  1  0  0  0  0
 20  1  1  0  0  0  0
 20 25  1  0  0  0  0
 20 22  1  0  0  0  0
 21 20  1  0  0  0  0
 23 29  1  0  0  0  0
 23 25  1  0  0  0  0
 24 23  2  0  0  0  0
 25 26  1  0  0  0  0
 28 27  1  0  0  0  0
 28 38  1  0  0  0  0
 29 30  2  0  0  0  0
 29 28  1  0  0  0  0
 30 31  1  0  0  0  0
 31 32  2  0  0  0  0
 31 38  1  0  0  0  0
 32 34  1  0  0  0  0
 33 32  1  0  0  0  0
 34 35  2  0  0  0  0
 35 36  1  0  0  0  0
 37 35  1  0  0  0  0
 38 37  2  0  0  0  0
M  END
>  <minimizedAffinity>
-5.2637682

$$$$

 OpenBabel03242520203D

 38 41  0  0  0  0  0  0  0  0999 V2000
   37.7630   28.0160   43.6900 C   0  0  0  0  0  0  0  0  0  0  0  0
   37.1170   27.9110   44.5990 H   0  0  0  0  0  0  0  0  0  0  0  0
   38.6640   28.6390   43.8680 H   0  0  0  0  0  0  0  0  0  0  0  0
   38.0380   24.6460   42.0010 C   0  0  0  0  0  0  0  0  0  0  0  0
   37.5240   25.8950   42.4010 C   0  0  0  0  0  0  0  0  0  0  0  0
   38.2690   26.6920   43.2530 C   0  0  0  0  0  0  0  0  0  0  0  0
   39.4850   26.1980   43.6610 N   0  0  0  0  0  0  0  0  0  0  0  0
   39.9380   24.9860   43.2470 C   0  0  0  0  0  0  0  0  0  0  0  0
   39.2230   24.2190   42.4270 N   0  0  0  0  0  0  0  0  0  0  0  0
   36.5560   26.1940   42.0260 H   0  0  0  0  0  0  0  0  0  0  0  0
   40.8890   24.5980   43.5650 H   0  0  0  0  0  0  0  0  0  0  0  0
   37.2200   23.8010   41.0910 C   0  0  0  0  0  0  0  0  0  0  0  0
   37.6410   23.9670   39.5950 C   0  0  0  0  0  0  0  0  0  0  0  0
   37.7190   22.7060   40.3410 C   0  0  0  0  0  0  0  0  0  0  0  0
   36.1370   23.9230   41.2800 H   0  0  0  0  0  0  0  0  0  0  0  0
   36.7920   24.2130   38.9270 H   0  0  0  0  0  0  0  0  0  0  0  0
   38.5250   24.5880   39.3840 H   0  0  0  0  0  0  0  0  0  0  0  0
   37.0640   21.8470   40.0880 H   0  0  0  0  0  0  0  0  0  0  0  0
   38.7700   22.3510   40.5480 H   0  0  0  0  0  0  0  0  0  0  0  0
   36.9730   28.6760   42.5840 C   0  0  0  0  0  0  0  0  0  0  0  0
   36.8060   27.9370   41.7890 H   0  0  0  0  0  0  0  0  0  0  0  0
   35.9430   28.9040   42.9810 H   0  0  0  0  0  0  0  0  0  0  0  0
   38.4270   29.7790   40.9460 C   0  0  0  0  0  0  0  0  0  0  0  0
   38.6300   28.7350   40.2640 O   0  0  0  0  0  0  0  0  0  0  0  0
   37.5950   29.8910   42.1090 N   0  0  0  0  0  0  0  0  0  0  0  0
   37.4440   30.7830   42.5850 H   0  0  0  0  0  0  0  0  0  0  0  0
   38.1430   32.5180   41.6460 H   0  0  0  0  0  0  0  0  0  0  0  0
   38.8740   32.3040   40.9390 N   0  0  0  0  0  0  0  0  0  0  0  0
   39.1070   31.0260   40.5220 C   0  0  0  0  0  0  0  0  0  0  0  0
   40.1110   31.1230   39.6140 N   0  0  0  0  0  0  0  0  0  0  0  0
   40.4970   32.4030   39.4640 C   0  0  0  0  0  0  0  0  0  0  0  0
   41.4380   33.0660   38.7040 C   0  0  0  0  0  0  0  0  0  0  0  0
   42.0440   32.4580   38.0490 H   0  0  0  0  0  0  0  0  0  0  0  0
   41.6160   34.3950   38.7530 N   0  0  0  0  0  0  0  0  0  0  0  0
   40.8210   35.0980   39.5970 C   0  0  0  0  0  0  0  0  0  0  0  0
   40.8690   36.1830   39.7270 H   0  0  0  0  0  0  0  0  0  0  0  0
   39.8820   34.4810   40.3610 N   0  0  0  0  0  0  0  0  0  0  0  0
   39.7070   33.1430   40.3090 C   0  0  0  0  0  0  0  0  0  0  0  0
  1  3  1  0  0  0  0
  1  2  1  0  0  0  0
  4  5  2  0  0  0  0
  4  9  1  0  0  0  0
  5  6  1  0  0  0  0
  6  7  2  0  0  0  0
  6  1  1  0  0  0  0
  8 11  1  0  0  0  0
  8  7  1  0  0  0  0
  9  8  2  0  0  0  0
 10  5  1  0  0  0  0
 12 15  1  0  0  0  0
 12  4  1  0  0  0  0
 13 14  1  0  0  0  0
 13 12  1  0  0  0  0
 14 19  1  0  0  0  0
 14 12  1  0  0  0  0
 16 13  1  0  0  0  0
 17 13  1  0  0  0  0
 18 14  1  0  0  0  0
 20 22  1  0  0  0  0
 20  1  1  0  0  0  0
 21 20  1  0  0  0  0
 23 25  1  0  0  0  0
 24 23  2  0  0  0  0
 25 20  1  0  0  0  0
 25 26  1  0  0  0  0
 28 27  1  0  0  0  0
 29 28  1  0  0  0  0
 29 23  1  0  0  0  0
 30 29  2  0  0  0  0
 31 30  1  0  0  0  0
 31 38  1  0  0  0  0
 32 34  1  0  0  0  0
 32 31  2  0  0  0  0
 33 32  1  0  0  0  0
 34 35  2  0  0  0  0
 35 36  1  0  0  0  0
 35 37  1  0  0  0  0
 38 37  2  0  0  0  0
 38 28  1  0  0  0  0
M  END
>  <minimizedAffinity>
-5.23509073

$$$$
