
 OpenBabel03252508253D

 44 49  0  0  1  0  0  0  0  0999 V2000
   46.2160   31.0560   46.9760 C   0  0  1  0  0  0  0  0  0  0  0  0
   45.4890   31.0050   48.2540 C   0  0  0  0  0  0  0  0  0  0  0  0
   45.0840   30.1550   46.9880 C   0  0  2  0  0  0  0  0  0  0  0  0
   47.3000   30.7740   47.2360 H   0  0  0  0  0  0  0  0  0  0  0  0
   45.7800   30.4150   49.1300 H   0  0  0  0  0  0  0  0  0  0  0  0
   44.8190   31.8580   48.4450 H   0  0  0  0  0  0  0  0  0  0  0  0
   44.0120   30.4740   46.7810 H   0  0  0  0  0  0  0  0  0  0  0  0
   45.1590   28.6930   47.0410 C   0  0  0  0  0  0  0  0  0  0  0  0
   44.9890   27.8920   48.1260 C   0  0  0  0  0  0  0  0  0  0  0  0
   45.1910   26.5190   48.1600 C   0  0  0  0  0  0  0  0  0  0  0  0
   45.6060   25.9180   46.9630 C   0  0  0  0  0  0  0  0  0  0  0  0
   45.7850   26.7150   45.8320 C   0  0  0  0  0  0  0  0  0  0  0  0
   46.1340   26.0720   44.6610 C   0  0  0  0  0  0  0  0  0  0  0  0
   46.2530   26.8170   43.4940 C   0  0  0  0  0  0  0  0  0  0  0  0
   46.0250   28.1760   43.4990 C   0  0  0  0  0  0  0  0  0  0  0  0
   45.6820   28.7680   44.6920 C   0  0  0  0  0  0  0  0  0  0  0  0
   45.5590   28.0700   45.8840 C   0  0  0  0  0  0  0  0  0  0  0  0
   44.6680   28.4010   49.0320 H   0  0  0  0  0  0  0  0  0  0  0  0
   45.0350   25.9430   49.0630 H   0  0  0  0  0  0  0  0  0  0  0  0
   45.7710   24.8480   46.9730 H   0  0  0  0  0  0  0  0  0  0  0  0
   46.3050   25.0030   44.6820 H   0  0  0  0  0  0  0  0  0  0  0  0
   46.5370   26.2030   42.6230 H   0  0  0  0  0  0  0  0  0  0  0  0
   46.1620   28.5710   42.5120 H   0  0  0  0  0  0  0  0  0  0  0  0
   45.4810   29.7660   44.4290 H   0  0  0  0  0  0  0  0  0  0  0  0
   45.2560   34.3660   45.6570 C   0  0  0  0  0  0  0  0  0  0  0  0
   46.0830   34.4780   44.4820 C   0  0  0  0  0  0  0  0  0  0  0  0
   46.9670   33.3850   44.1910 C   0  0  0  0  0  0  0  0  0  0  0  0
   46.9910   32.3270   45.0040 N   0  0  0  0  0  0  0  0  0  0  0  0
   46.1750   32.2750   46.1160 C   0  0  0  0  0  0  0  0  0  0  0  0
   45.3400   33.2600   46.4280 N   0  0  0  0  0  0  0  0  0  0  0  0
   44.6230   35.2190   45.8100 H   0  0  0  0  0  0  0  0  0  0  0  0
   46.0200   35.3600   43.8610 H   0  0  0  0  0  0  0  0  0  0  0  0
   47.7860   33.4880   43.0300 N   0  0  0  0  0  0  0  0  0  0  0  0
   48.9440   34.1560   42.8610 C   0  0  0  0  0  0  0  0  0  0  0  0
   49.3940   34.7230   43.6680 H   0  0  0  0  0  0  0  0  0  0  0  0
   49.4260   34.0160   41.6160 N   0  0  0  0  0  0  0  0  0  0  0  0
   48.5540   33.2300   40.9410 C   0  0  0  0  0  0  0  0  0  0  0  0
   48.4820   32.7300   39.6560 C   0  0  0  0  0  0  0  0  0  0  0  0
   49.2860   32.9850   38.9530 H   0  0  0  0  0  0  0  0  0  0  0  0
   47.4410   31.9450   39.2830 N   0  0  0  0  0  0  0  0  0  0  0  0
   46.4550   31.6380   40.1610 C   0  0  0  0  0  0  0  0  0  0  0  0
   45.6210   31.0100   39.8660 H   0  0  0  0  0  0  0  0  0  0  0  0
   46.5070   32.1210   41.4350 N   0  0  0  0  0  0  0  0  0  0  0  0
   47.5220   32.8970   41.8260 C   0  0  0  0  0  0  0  0  0  0  0  0
  1  3  1  0  0  0  0
  1  4  1  1  0  0  0
  1  2  1  0  0  0  0
  2  6  1  0  0  0  0
  2  5  1  0  0  0  0
  3  7  1  6  0  0  0
  3  8  1  0  0  0  0
  3  2  1  0  0  0  0
  8  9  1  0  0  0  0
  9 10  2  0  0  0  0
  9 18  1  0  0  0  0
 10 19  1  0  0  0  0
 11 20  1  0  0  0  0
 11 10  1  0  0  0  0
 12 17  1  0  0  0  0
 12 11  2  0  0  0  0
 13 21  1  0  0  0  0
 13 12  1  0  0  0  0
 14 15  1  0  0  0  0
 14 13  2  0  0  0  0
 15 16  2  0  0  0  0
 16 17  1  0  0  0  0
 17  8  2  0  0  0  0
 22 14  1  0  0  0  0
 23 15  1  0  0  0  0
 24 16  1  0  0  0  0
 25 31  1  0  0  0  0
 25 30  1  0  0  0  0
 26 25  2  0  0  0  0
 27 26  1  0  0  0  0
 27 28  2  0  0  0  0
 28 29  1  0  0  0  0
 29 30  2  0  0  0  0
 29  1  1  0  0  0  0
 32 26  1  0  0  0  0
 33 27  1  0  0  0  0
 34 33  1  0  0  0  0
 34 35  1  0  0  0  0
 36 34  2  0  0  0  0
 37 36  1  0  0  0  0
 37 44  1  0  0  0  0
 38 37  2  0  0  0  0
 39 38  1  0  0  0  0
 40 38  1  0  0  0  0
 40 41  2  0  0  0  0
 41 43  1  0  0  0  0
 42 41  1  0  0  0  0
 43 44  2  0  0  0  0
 44 33  1  0  0  0  0
M  END
>  <minimizedAffinity>
-4.65975618

>  <minimizedRMSD>
2.18285847

$$$$
