
 OpenBabel03252508293D

 42 46  0  0  1  0  0  0  0  0999 V2000
   42.6450   33.0410   40.1610 N   0  0  0  0  0  0  0  0  0  0  0  0
   42.4180   34.0190   41.2310 C   0  0  2  0  0  0  0  0  0  0  0  0
   41.6580   35.2090   40.7630 C   0  0  0  0  0  0  0  0  0  0  0  0
   41.0700   35.0120   39.4520 N   0  0  0  0  0  0  0  0  0  0  0  0
   41.9670   34.5430   38.4610 C   0  0  0  0  0  0  0  0  0  0  0  0
   43.1740   33.8510   39.0390 C   0  0  2  0  0  0  0  0  0  0  0  0
   41.6950   32.6760   39.8840 H   0  0  0  0  0  0  0  0  0  0  0  0
   41.8960   33.5270   42.0650 H   0  0  0  0  0  0  0  0  0  0  0  0
   42.2400   36.1310   40.5870 H   0  0  0  0  0  0  0  0  0  0  0  0
   40.7810   35.4510   41.4330 H   0  0  0  0  0  0  0  0  0  0  0  0
   40.6450   35.9100   39.1430 H   0  0  0  0  0  0  0  0  0  0  0  0
   42.2540   35.2920   37.7160 H   0  0  0  0  0  0  0  0  0  0  0  0
   41.4200   33.7490   37.8750 H   0  0  0  0  0  0  0  0  0  0  0  0
   43.8060   34.6620   39.4710 H   0  0  0  0  0  0  0  0  0  0  0  0
   43.8980   33.0610   38.1030 N   0  0  0  0  0  0  0  0  0  0  0  0
   45.1820   33.3220   37.7180 C   0  0  0  0  0  0  0  0  0  0  0  0
   45.7830   34.1670   38.0880 H   0  0  0  0  0  0  0  0  0  0  0  0
   45.6200   32.4290   36.8340 N   0  0  0  0  0  0  0  0  0  0  0  0
   44.5960   31.5660   36.6410 C   0  0  0  0  0  0  0  0  0  0  0  0
   44.4960   30.4500   35.8320 C   0  0  0  0  0  0  0  0  0  0  0  0
   45.3590   30.1880   35.2370 H   0  0  0  0  0  0  0  0  0  0  0  0
   43.3360   29.7670   35.8400 N   0  0  0  0  0  0  0  0  0  0  0  0
   42.2840   30.1540   36.6170 C   0  0  0  0  0  0  0  0  0  0  0  0
   41.4060   29.5280   36.5380 H   0  0  0  0  0  0  0  0  0  0  0  0
   42.3950   31.2590   37.4100 N   0  0  0  0  0  0  0  0  0  0  0  0
   43.5280   31.9750   37.4420 C   0  0  0  0  0  0  0  0  0  0  0  0
   45.8650   34.6210   42.1230 C   0  0  0  0  0  0  0  0  0  0  0  0
   45.1760   35.6910   42.6960 C   0  0  0  0  0  0  0  0  0  0  0  0
   43.8220   35.5770   42.4330 C   0  0  0  0  0  0  0  0  0  0  0  0
   43.7180   34.4600   41.7160 N   0  0  0  0  0  0  0  0  0  0  0  0
   44.9070   33.9020   41.5350 N   0  0  0  0  0  0  0  0  0  0  0  0
   45.7650   36.4470   43.2530 H   0  0  0  0  0  0  0  0  0  0  0  0
   43.2870   36.4040   42.8840 H   0  0  0  0  0  0  0  0  0  0  0  0
   49.6000   35.0350   42.1160 C   0  0  0  0  0  0  0  0  0  0  0  0
   48.2270   35.4050   41.9910 C   0  0  0  0  0  0  0  0  0  0  0  0
   47.3110   34.4040   42.2090 C   0  0  0  0  0  0  0  0  0  0  0  0
   47.7310   33.1430   42.5250 N   0  0  0  0  0  0  0  0  0  0  0  0
   49.0470   32.8410   42.6330 C   0  0  0  0  0  0  0  0  0  0  0  0
   49.9530   33.7950   42.4250 N   0  0  0  0  0  0  0  0  0  0  0  0
   50.2670   35.8920   41.9260 H   0  0  0  0  0  0  0  0  0  0  0  0
   47.8960   36.4030   41.7410 H   0  0  0  0  0  0  0  0  0  0  0  0
   49.3140   31.8330   42.8840 H   0  0  0  0  0  0  0  0  0  0  0  0
  1  2  1  0  0  0  0
  2 30  1  0  0  0  0
  2  8  1  1  0  0  0
  3  2  1  0  0  0  0
  3 10  1  0  0  0  0
  4  3  1  0  0  0  0
  5  6  1  0  0  0  0
  5  4  1  0  0  0  0
  6 14  1  1  0  0  0
  6  1  1  0  0  0  0
  7  1  1  0  0  0  0
  9  3  1  0  0  0  0
 11  4  1  0  0  0  0
 12  5  1  0  0  0  0
 13  5  1  0  0  0  0
 15  6  1  0  0  0  0
 16 17  1  0  0  0  0
 16 15  1  0  0  0  0
 18 16  2  0  0  0  0
 19 18  1  0  0  0  0
 19 26  1  0  0  0  0
 20 22  1  0  0  0  0
 20 19  2  0  0  0  0
 21 20  1  0  0  0  0
 22 23  2  0  0  0  0
 23 25  1  0  0  0  0
 24 23  1  0  0  0  0
 25 26  2  0  0  0  0
 26 15  1  0  0  0  0
 27 36  1  0  0  0  0
 27 28  1  0  0  0  0
 28 32  1  0  0  0  0
 29 28  2  0  0  0  0
 29 33  1  0  0  0  0
 30 29  1  0  0  0  0
 31 30  1  0  0  0  0
 31 27  2  0  0  0  0
 34 39  1  0  0  0  0
 35 34  2  0  0  0  0
 35 36  1  0  0  0  0
 36 37  2  0  0  0  0
 37 38  1  0  0  0  0
 38 42  1  0  0  0  0
 39 38  2  0  0  0  0
 40 34  1  0  0  0  0
 41 35  1  0  0  0  0
M  END
>  <minimizedAffinity>
-5.16799402

>  <minimizedRMSD>
1.89271605

$$$$
