
 OpenBabel03252506343D

 36 39  0  0  1  0  0  0  0  0999 V2000
   44.4680   35.7360   44.9900 C   0  0  0  0  0  0  0  0  0  0  0  0
   45.1290   35.7320   43.7550 C   0  0  0  0  0  0  0  0  0  0  0  0
   46.0490   34.7650   43.5040 C   0  0  0  0  0  0  0  0  0  0  0  0
   46.2630   33.8570   44.4920 N   0  0  0  0  0  0  0  0  0  0  0  0
   45.6390   33.8630   45.6580 C   0  0  0  0  0  0  0  0  0  0  0  0
   44.7210   34.8040   45.9430 N   0  0  0  0  0  0  0  0  0  0  0  0
   45.9620   32.8620   46.6000 N   0  0  0  0  0  0  0  0  0  0  0  0
   45.1730   32.5500   47.8000 C   0  0  0  0  0  0  0  0  0  0  0  0
   46.2630   32.2480   48.8080 C   0  0  0  0  0  0  0  0  0  0  0  0
   47.5520   32.1190   48.0550 C   0  0  0  0  0  0  0  0  0  0  0  0
   47.0800   31.9450   46.6320 C   0  0  1  0  0  0  0  0  0  0  0  0
   43.7210   36.5160   45.1970 H   0  0  0  0  0  0  0  0  0  0  0  0
   46.5370   34.7850   42.5580 H   0  0  0  0  0  0  0  0  0  0  0  0
   44.4980   31.6940   47.6380 H   0  0  0  0  0  0  0  0  0  0  0  0
   44.5600   33.4300   48.0590 H   0  0  0  0  0  0  0  0  0  0  0  0
   46.0110   31.2960   49.3440 H   0  0  0  0  0  0  0  0  0  0  0  0
   46.3120   33.1120   49.5040 H   0  0  0  0  0  0  0  0  0  0  0  0
   48.2110   33.0030   48.1700 H   0  0  0  0  0  0  0  0  0  0  0  0
   48.1180   31.1970   48.3220 H   0  0  0  0  0  0  0  0  0  0  0  0
   47.8250   32.2700   45.8890 H   0  0  0  0  0  0  0  0  0  0  0  0
   44.7670   36.7780   42.8440 N   0  0  0  0  0  0  0  0  0  0  0  0
   44.3720   37.6780   43.1940 H   0  0  0  0  0  0  0  0  0  0  0  0
   44.9000   36.6390   41.8100 H   0  0  0  0  0  0  0  0  0  0  0  0
   46.5720   30.2320   46.3880 S   0  0  0  0  0  0  0  0  0  0  0  0
   43.9360   30.8900   45.1130 H   0  0  0  0  0  0  0  0  0  0  0  0
   44.6170   30.3830   44.5110 N   0  0  0  0  0  0  0  0  0  0  0  0
   45.8590   29.9520   44.7830 C   0  0  0  0  0  0  0  0  0  0  0  0
   46.3860   29.3320   43.6880 N   0  0  0  0  0  0  0  0  0  0  0  0
   45.4310   29.3850   42.7080 C   0  0  0  0  0  0  0  0  0  0  0  0
   45.2850   28.9810   41.4110 C   0  0  0  0  0  0  0  0  0  0  0  0
   46.1460   28.4560   40.9750 H   0  0  0  0  0  0  0  0  0  0  0  0
   44.1730   29.2000   40.6990 N   0  0  0  0  0  0  0  0  0  0  0  0
   43.1200   29.8360   41.2230 C   0  0  0  0  0  0  0  0  0  0  0  0
   42.2840   29.9510   40.5490 H   0  0  0  0  0  0  0  0  0  0  0  0
   43.2060   30.2550   42.4900 N   0  0  0  0  0  0  0  0  0  0  0  0
   44.3280   30.0470   43.2390 C   0  0  0  0  0  0  0  0  0  0  0  0
  1 12  1  0  0  0  0
  1  6  1  0  0  0  0
  2  1  2  0  0  0  0
  3  2  1  0  0  0  0
  3  4  2  0  0  0  0
  4  5  1  0  0  0  0
  5  6  2  0  0  0  0
  5  7  1  0  0  0  0
  7 11  1  0  0  0  0
  7  8  1  0  0  0  0
  8 15  1  0  0  0  0
  8  9  1  0  0  0  0
  9 16  1  0  0  0  0
  9 17  1  0  0  0  0
 10 18  1  0  0  0  0
 10 19  1  0  0  0  0
 10  9  1  0  0  0  0
 11 20  1  6  0  0  0
 11 10  1  0  0  0  0
 13  3  1  0  0  0  0
 14  8  1  0  0  0  0
 21 22  1  0  0  0  0
 21  2  1  0  0  0  0
 23 21  1  0  0  0  0
 24 11  1  0  0  0  0
 26 27  1  0  0  0  0
 26 25  1  0  0  0  0
 27 24  1  0  0  0  0
 28 27  2  0  0  0  0
 29 36  1  0  0  0  0
 29 28  1  0  0  0  0
 30 29  2  0  0  0  0
 31 30  1  0  0  0  0
 32 33  2  0  0  0  0
 32 30  1  0  0  0  0
 33 35  1  0  0  0  0
 34 33  1  0  0  0  0
 35 36  2  0  0  0  0
 36 26  1  0  0  0  0
M  END
>  <minimizedAffinity>
-5.20494032

>  <minimizedRMSD>
0.066966258

$$$$
