
 OpenBabel03252507433D

 34 37  0  0  0  0  0  0  0  0999 V2000
   44.5000   34.7010   41.3670 C   0  0  0  0  0  0  0  0  0  0  0  0
   43.5070   35.5240   41.9810 C   0  0  0  0  0  0  0  0  0  0  0  0
   41.9620   35.0180   41.0930 S   0  0  0  0  0  0  0  0  0  0  0  0
   42.9350   33.7900   40.0580 C   0  0  0  0  0  0  0  0  0  0  0  0
   43.9960   33.9190   40.4410 N   0  0  0  0  0  0  0  0  0  0  0  0
   43.6770   36.2510   42.7690 H   0  0  0  0  0  0  0  0  0  0  0  0
   42.4140   32.9030   39.0200 N   0  0  0  0  0  0  0  0  0  0  0  0
   41.1210   32.6890   38.8300 C   0  0  0  0  0  0  0  0  0  0  0  0
   40.2480   33.0650   39.3240 H   0  0  0  0  0  0  0  0  0  0  0  0
   41.0250   31.8280   37.8010 N   0  0  0  0  0  0  0  0  0  0  0  0
   42.2590   31.5280   37.3790 C   0  0  0  0  0  0  0  0  0  0  0  0
   42.7930   30.7200   36.3820 C   0  0  0  0  0  0  0  0  0  0  0  0
   42.0910   30.1690   35.7580 H   0  0  0  0  0  0  0  0  0  0  0  0
   44.1030   30.5840   36.1510 N   0  0  0  0  0  0  0  0  0  0  0  0
   44.9560   31.2720   36.9320 C   0  0  0  0  0  0  0  0  0  0  0  0
   46.0350   31.1790   36.7660 H   0  0  0  0  0  0  0  0  0  0  0  0
   44.4810   32.0750   37.9220 N   0  0  0  0  0  0  0  0  0  0  0  0
   43.1740   32.2100   38.1500 C   0  0  0  0  0  0  0  0  0  0  0  0
   45.9240   34.7960   41.8010 C   0  0  0  0  0  0  0  0  0  0  0  0
   46.1480   35.8990   41.8940 H   0  0  0  0  0  0  0  0  0  0  0  0
   46.0920   34.3890   42.8210 H   0  0  0  0  0  0  0  0  0  0  0  0
   46.9090   34.2810   40.7950 C   0  0  0  0  0  0  0  0  0  0  0  0
   47.0310   35.1180   40.0440 H   0  0  0  0  0  0  0  0  0  0  0  0
   46.5590   33.4320   40.2190 H   0  0  0  0  0  0  0  0  0  0  0  0
   48.2600   34.0730   41.3500 C   0  0  0  0  0  0  0  0  0  0  0  0
   48.8930   32.8660   41.0470 C   0  0  0  0  0  0  0  0  0  0  0  0
   50.1590   32.6130   41.5390 C   0  0  0  0  0  0  0  0  0  0  0  0
   50.7480   33.5700   42.3100 N   0  0  0  0  0  0  0  0  0  0  0  0
   50.1120   34.7240   42.5850 C   0  0  0  0  0  0  0  0  0  0  0  0
   48.8900   34.9620   42.1080 N   0  0  0  0  0  0  0  0  0  0  0  0
   50.6190   31.6690   41.2840 H   0  0  0  0  0  0  0  0  0  0  0  0
   50.6630   35.4380   43.2150 H   0  0  0  0  0  0  0  0  0  0  0  0
   48.0630   31.6410   40.0210 S   0  0  0  0  0  0  0  0  0  0  0  0
   48.0460   30.4330   40.7210 H   0  0  0  0  0  0  0  0  0  0  0  0
  1 19  1  0  0  0  0
  1  2  2  0  0  0  0
  2  6  1  0  0  0  0
  3  2  1  0  0  0  0
  4  5  2  0  0  0  0
  4  3  1  0  0  0  0
  5  1  1  0  0  0  0
  7  4  1  0  0  0  0
  8  7  1  0  0  0  0
  8  9  1  0  0  0  0
 10  8  2  0  0  0  0
 11 10  1  0  0  0  0
 11 18  1  0  0  0  0
 12 11  2  0  0  0  0
 13 12  1  0  0  0  0
 14 12  1  0  0  0  0
 14 15  2  0  0  0  0
 15 17  1  0  0  0  0
 16 15  1  0  0  0  0
 17 18  2  0  0  0  0
 18  7  1  0  0  0  0
 19 20  1  0  0  0  0
 19 21  1  0  0  0  0
 22 25  1  0  0  0  0
 22 19  1  0  0  0  0
 23 22  1  0  0  0  0
 24 22  1  0  0  0  0
 25 30  1  0  0  0  0
 26 25  2  0  0  0  0
 26 27  1  0  0  0  0
 27 28  2  0  0  0  0
 28 29  1  0  0  0  0
 29 32  1  0  0  0  0
 30 29  2  0  0  0  0
 31 27  1  0  0  0  0
 33 34  1  0  0  0  0
 33 26  1  0  0  0  0
M  END
>  <minimizedAffinity>
-4.7869873

>  <minimizedRMSD>
0.921513677

$$$$
