
 OpenBabel03252503013D

 33 35  0  0  0  0  0  0  0  0999 V2000
   37.3570   32.5550   39.8630 S   0  0  0  0  0  0  0  0  0  0  0  0
   37.7690   31.3470   38.7000 N   0  0  0  0  0  0  0  0  0  0  0  0
   38.7480   31.0560   38.7750 H   0  0  0  0  0  0  0  0  0  0  0  0
   36.8350   30.2290   38.7480 C   0  0  0  0  0  0  0  0  0  0  0  0
   35.9630   30.4370   39.3930 H   0  0  0  0  0  0  0  0  0  0  0  0
   36.4370   30.0260   37.7170 H   0  0  0  0  0  0  0  0  0  0  0  0
   37.7710   28.7710   39.2420 S   0  0  0  0  0  0  0  0  0  0  0  0
   36.7840   27.6580   41.5770 C   0  0  0  0  0  0  0  0  0  0  0  0
   37.6560   28.5870   41.0330 C   0  0  0  0  0  0  0  0  0  0  0  0
   38.4580   29.3900   41.8640 C   0  0  0  0  0  0  0  0  0  0  0  0
   38.3180   29.1950   43.2120 N   0  0  0  0  0  0  0  0  0  0  0  0
   37.4570   28.2810   43.6800 C   0  0  0  0  0  0  0  0  0  0  0  0
   36.6770   27.4980   42.9290 N   0  0  0  0  0  0  0  0  0  0  0  0
   36.1560   27.0270   40.9590 H   0  0  0  0  0  0  0  0  0  0  0  0
   39.1220   30.0980   41.4150 H   0  0  0  0  0  0  0  0  0  0  0  0
   37.5070   28.2950   44.7740 H   0  0  0  0  0  0  0  0  0  0  0  0
   36.8860   33.8080   39.2300 O   0  0  0  0  0  0  0  0  0  0  0  0
   35.9620   33.9100   38.8990 H   0  0  0  0  0  0  0  0  0  0  0  0
   36.2530   31.9260   40.7150 O   0  0  0  0  0  0  0  0  0  0  0  0
   35.4910   31.4330   40.3060 H   0  0  0  0  0  0  0  0  0  0  0  0
   38.6340   32.7740   40.9020 O   0  0  0  0  0  0  0  0  0  0  0  0
   41.2170   33.0970   42.0590 H   0  0  0  0  0  0  0  0  0  0  0  0
   41.1420   33.2270   41.0320 N   0  0  0  0  0  0  0  0  0  0  0  0
   39.9230   33.0750   40.4870 C   0  0  0  0  0  0  0  0  0  0  0  0
   40.0210   33.2810   39.1480 N   0  0  0  0  0  0  0  0  0  0  0  0
   41.2920   33.5650   38.8290 C   0  0  0  0  0  0  0  0  0  0  0  0
   42.0240   33.8590   37.7020 C   0  0  0  0  0  0  0  0  0  0  0  0
   41.4960   33.8930   36.7620 H   0  0  0  0  0  0  0  0  0  0  0  0
   43.3350   34.0950   37.7830 N   0  0  0  0  0  0  0  0  0  0  0  0
   43.9840   34.0510   38.9690 C   0  0  0  0  0  0  0  0  0  0  0  0
   45.0400   34.2360   39.0630 H   0  0  0  0  0  0  0  0  0  0  0  0
   43.2870   33.7600   40.1050 N   0  0  0  0  0  0  0  0  0  0  0  0
   41.9560   33.5220   40.0180 C   0  0  0  0  0  0  0  0  0  0  0  0
  1 19  1  0  0  0  0
  1 21  1  0  0  0  0
  2  4  1  0  0  0  0
  2  3  1  0  0  0  0
  2  1  1  0  0  0  0
  4  7  1  0  0  0  0
  4  5  1  0  0  0  0
  6  4  1  0  0  0  0
  7  9  1  0  0  0  0
  8 13  1  0  0  0  0
  9  8  2  0  0  0  0
  9 10  1  0  0  0  0
 10 11  2  0  0  0  0
 11 12  1  0  0  0  0
 12 16  1  0  0  0  0
 13 12  2  0  0  0  0
 14  8  1  0  0  0  0
 15 10  1  0  0  0  0
 17  1  1  0  0  0  0
 18 17  1  0  0  0  0
 20 19  1  0  0  0  0
 23 22  1  0  0  0  0
 24 21  1  0  0  0  0
 24 23  1  0  0  0  0
 25 24  2  0  0  0  0
 26 25  1  0  0  0  0
 26 33  1  0  0  0  0
 27 29  1  0  0  0  0
 27 26  2  0  0  0  0
 28 27  1  0  0  0  0
 29 30  2  0  0  0  0
 30 31  1  0  0  0  0
 30 32  1  0  0  0  0
 33 32  2  0  0  0  0
 33 23  1  0  0  0  0
M  END
>  <minimizedAffinity>
-5.37610483

$$$$

 OpenBabel03252503013D

 33 35  0  0  0  0  0  0  0  0999 V2000
   36.9190   30.8830   40.8500 S   0  0  0  0  0  0  0  0  0  0  0  0
   37.4500   32.5070   40.6020 N   0  0  0  0  0  0  0  0  0  0  0  0
   36.8020   33.1910   41.0030 H   0  0  0  0  0  0  0  0  0  0  0  0
   38.8230   32.6880   41.0570 C   0  0  0  0  0  0  0  0  0  0  0  0
   38.8770   32.9980   42.1160 H   0  0  0  0  0  0  0  0  0  0  0  0
   39.3790   31.7160   40.9730 H   0  0  0  0  0  0  0  0  0  0  0  0
   39.6150   33.8410   39.9220 S   0  0  0  0  0  0  0  0  0  0  0  0
   40.2540   31.5730   38.4690 C   0  0  0  0  0  0  0  0  0  0  0  0
   40.5610   32.9030   38.7060 C   0  0  0  0  0  0  0  0  0  0  0  0
   41.6060   33.5330   38.0060 C   0  0  0  0  0  0  0  0  0  0  0  0
   42.2800   32.7600   37.1000 N   0  0  0  0  0  0  0  0  0  0  0  0
   41.9370   31.4780   36.9130 C   0  0  0  0  0  0  0  0  0  0  0  0
   40.9540   30.8400   37.5540 N   0  0  0  0  0  0  0  0  0  0  0  0
   39.4540   31.0640   38.9940 H   0  0  0  0  0  0  0  0  0  0  0  0
   41.8200   34.5620   38.2120 H   0  0  0  0  0  0  0  0  0  0  0  0
   42.6020   31.0560   36.1510 H   0  0  0  0  0  0  0  0  0  0  0  0
   35.4530   30.7960   41.0500 O   0  0  0  0  0  0  0  0  0  0  0  0
   34.8210   30.8140   40.2930 H   0  0  0  0  0  0  0  0  0  0  0  0
   37.3410   30.1310   39.5870 O   0  0  0  0  0  0  0  0  0  0  0  0
   37.1930   30.5060   38.6770 H   0  0  0  0  0  0  0  0  0  0  0  0
   37.8000   30.1980   42.0780 O   0  0  0  0  0  0  0  0  0  0  0  0
   36.8150   27.7590   40.9850 H   0  0  0  0  0  0  0  0  0  0  0  0
   37.6040   27.6890   41.6560 N   0  0  0  0  0  0  0  0  0  0  0  0
   38.0670   28.8400   42.1710 C   0  0  0  0  0  0  0  0  0  0  0  0
   39.0880   28.5520   43.0200 N   0  0  0  0  0  0  0  0  0  0  0  0
   39.2830   27.2260   43.0540 C   0  0  0  0  0  0  0  0  0  0  0  0
   40.1180   26.3280   43.6790 C   0  0  0  0  0  0  0  0  0  0  0  0
   40.8570   26.7270   44.3560 H   0  0  0  0  0  0  0  0  0  0  0  0
   40.0050   25.0180   43.4510 N   0  0  0  0  0  0  0  0  0  0  0  0
   39.0720   24.5320   42.6000 C   0  0  0  0  0  0  0  0  0  0  0  0
   38.9590   23.4810   42.3970 H   0  0  0  0  0  0  0  0  0  0  0  0
   38.2300   25.3960   41.9630 N   0  0  0  0  0  0  0  0  0  0  0  0
   38.3490   26.7250   42.1990 C   0  0  0  0  0  0  0  0  0  0  0  0
  1 17  1  0  0  0  0
  1 21  1  0  0  0  0
  2  1  1  0  0  0  0
  2  3  1  0  0  0  0
  2  4  1  0  0  0  0
  4  5  1  0  0  0  0
  6  4  1  0  0  0  0
  7  4  1  0  0  0  0
  8  9  1  0  0  0  0
  8 14  1  0  0  0  0
  9  7  1  0  0  0  0
 10 15  1  0  0  0  0
 10  9  2  0  0  0  0
 11 10  1  0  0  0  0
 12 11  2  0  0  0  0
 12 13  1  0  0  0  0
 13  8  2  0  0  0  0
 16 12  1  0  0  0  0
 18 17  1  0  0  0  0
 19  1  1  0  0  0  0
 20 19  1  0  0  0  0
 21 24  1  0  0  0  0
 22 23  1  0  0  0  0
 23 24  1  0  0  0  0
 23 33  1  0  0  0  0
 24 25  2  0  0  0  0
 25 26  1  0  0  0  0
 26 27  1  0  0  0  0
 27 28  1  0  0  0  0
 29 27  2  0  0  0  0
 30 29  1  0  0  0  0
 31 30  1  0  0  0  0
 32 33  1  0  0  0  0
 32 30  2  0  0  0  0
 33 26  2  0  0  0  0
M  END
>  <minimizedAffinity>
-5.24533749

$$$$

 OpenBabel03252503013D

 33 35  0  0  0  0  0  0  0  0999 V2000
   36.3290   30.2820   40.9890 S   0  0  0  0  0  0  0  0  0  0  0  0
   37.2430   29.6820   39.6540 N   0  0  0  0  0  0  0  0  0  0  0  0
   36.6700   29.1310   39.0090 H   0  0  0  0  0  0  0  0  0  0  0  0
   37.9760   30.7550   38.9920 C   0  0  0  0  0  0  0  0  0  0  0  0
   38.0690   30.5890   37.9040 H   0  0  0  0  0  0  0  0  0  0  0  0
   37.4280   31.7260   39.1280 H   0  0  0  0  0  0  0  0  0  0  0  0
   39.5570   30.9240   39.8380 S   0  0  0  0  0  0  0  0  0  0  0  0
   41.2550   31.5790   37.7520 C   0  0  0  0  0  0  0  0  0  0  0  0
   40.6090   32.0390   38.8870 C   0  0  0  0  0  0  0  0  0  0  0  0
   40.7630   33.3730   39.3090 C   0  0  0  0  0  0  0  0  0  0  0  0
   41.5750   34.1610   38.5380 N   0  0  0  0  0  0  0  0  0  0  0  0
   42.1740   33.6590   37.4500 C   0  0  0  0  0  0  0  0  0  0  0  0
   42.0570   32.4020   37.0140 N   0  0  0  0  0  0  0  0  0  0  0  0
   41.1530   30.5570   37.4060 H   0  0  0  0  0  0  0  0  0  0  0  0
   40.2510   33.6990   40.1900 H   0  0  0  0  0  0  0  0  0  0  0  0
   42.7700   34.4560   36.9920 H   0  0  0  0  0  0  0  0  0  0  0  0
   36.0910   31.7410   40.8970 O   0  0  0  0  0  0  0  0  0  0  0  0
   35.3780   32.1190   40.3290 H   0  0  0  0  0  0  0  0  0  0  0  0
   35.0090   29.5110   40.9440 O   0  0  0  0  0  0  0  0  0  0  0  0
   34.5070   29.3770   40.0950 H   0  0  0  0  0  0  0  0  0  0  0  0
   37.0560   29.8150   42.4070 O   0  0  0  0  0  0  0  0  0  0  0  0
   39.4370   28.8070   43.6020 H   0  0  0  0  0  0  0  0  0  0  0  0
   38.8100   28.1170   43.1480 N   0  0  0  0  0  0  0  0  0  0  0  0
   37.6870   28.5920   42.5840 C   0  0  0  0  0  0  0  0  0  0  0  0
   37.0010   27.5520   42.0440 N   0  0  0  0  0  0  0  0  0  0  0  0
   37.6740   26.4120   42.2560 C   0  0  0  0  0  0  0  0  0  0  0  0
   37.5320   25.0710   41.9810 C   0  0  0  0  0  0  0  0  0  0  0  0
   36.6510   24.7670   41.4390 H   0  0  0  0  0  0  0  0  0  0  0  0
   38.4570   24.1920   42.3720 N   0  0  0  0  0  0  0  0  0  0  0  0
   39.5580   24.5880   43.0520 C   0  0  0  0  0  0  0  0  0  0  0  0
   40.3200   23.9020   43.3800 H   0  0  0  0  0  0  0  0  0  0  0  0
   39.7290   25.9110   43.3420 N   0  0  0  0  0  0  0  0  0  0  0  0
   38.7870   26.7990   42.9410 C   0  0  0  0  0  0  0  0  0  0  0  0
  1 21  1  0  0  0  0
  2  1  1  0  0  0  0
  3  2  1  0  0  0  0
  4  6  1  0  0  0  0
  4  2  1  0  0  0  0
  4  7  1  0  0  0  0
  5  4  1  0  0  0  0
  8  9  1  0  0  0  0
  9 10  2  0  0  0  0
  9  7  1  0  0  0  0
 10 15  1  0  0  0  0
 11 10  1  0  0  0  0
 12 11  2  0  0  0  0
 13 12  1  0  0  0  0
 13  8  2  0  0  0  0
 14  8  1  0  0  0  0
 16 12  1  0  0  0  0
 17  1  1  0  0  0  0
 18 17  1  0  0  0  0
 19  1  1  0  0  0  0
 20 19  1  0  0  0  0
 21 24  1  0  0  0  0
 23 22  1  0  0  0  0
 24 23  1  0  0  0  0
 25 26  1  0  0  0  0
 25 24  2  0  0  0  0
 26 33  1  0  0  0  0
 27 26  2  0  0  0  0
 27 29  1  0  0  0  0
 28 27  1  0  0  0  0
 29 30  2  0  0  0  0
 30 32  1  0  0  0  0
 30 31  1  0  0  0  0
 33 23  1  0  0  0  0
 33 32  2  0  0  0  0
M  END
>  <minimizedAffinity>
-5.22631168

$$$$

 OpenBabel03252503013D

 33 35  0  0  0  0  0  0  0  0999 V2000
   36.3700   30.2230   41.0340 S   0  0  0  0  0  0  0  0  0  0  0  0
   37.2420   29.7460   39.6230 N   0  0  0  0  0  0  0  0  0  0  0  0
   37.3130   28.7280   39.5380 H   0  0  0  0  0  0  0  0  0  0  0  0
   36.7000   30.3820   38.4280 C   0  0  0  0  0  0  0  0  0  0  0  0
   36.1860   29.6620   37.7660 H   0  0  0  0  0  0  0  0  0  0  0  0
   35.9390   31.1530   38.7230 H   0  0  0  0  0  0  0  0  0  0  0  0
   38.0530   31.2620   37.6300 S   0  0  0  0  0  0  0  0  0  0  0  0
   40.3770   31.1120   39.1270 C   0  0  0  0  0  0  0  0  0  0  0  0
   39.2100   31.8210   38.8960 C   0  0  0  0  0  0  0  0  0  0  0  0
   38.9160   32.9780   39.6410 C   0  0  0  0  0  0  0  0  0  0  0  0
   39.8390   33.3420   40.5840 N   0  0  0  0  0  0  0  0  0  0  0  0
   40.9500   32.6150   40.7620 C   0  0  0  0  0  0  0  0  0  0  0  0
   41.2700   31.5120   40.0790 N   0  0  0  0  0  0  0  0  0  0  0  0
   40.6280   30.2180   38.5670 H   0  0  0  0  0  0  0  0  0  0  0  0
   38.0060   33.5050   39.4400 H   0  0  0  0  0  0  0  0  0  0  0  0
   41.5390   33.0840   41.5580 H   0  0  0  0  0  0  0  0  0  0  0  0
   35.9910   31.6550   41.0040 O   0  0  0  0  0  0  0  0  0  0  0  0
   35.2080   31.9770   40.4960 H   0  0  0  0  0  0  0  0  0  0  0  0
   35.1280   29.3310   41.0540 O   0  0  0  0  0  0  0  0  0  0  0  0
   34.5830   29.1700   40.2360 H   0  0  0  0  0  0  0  0  0  0  0  0
   37.2340   29.7930   42.3850 O   0  0  0  0  0  0  0  0  0  0  0  0
   39.5120   28.6780   43.6820 H   0  0  0  0  0  0  0  0  0  0  0  0
   38.8890   28.0200   43.1770 N   0  0  0  0  0  0  0  0  0  0  0  0
   37.8150   28.5460   42.5640 C   0  0  0  0  0  0  0  0  0  0  0  0
   37.1270   27.5420   41.9620 N   0  0  0  0  0  0  0  0  0  0  0  0
   37.7500   26.3760   42.1810 C   0  0  0  0  0  0  0  0  0  0  0  0
   37.5800   25.0480   41.8640 C   0  0  0  0  0  0  0  0  0  0  0  0
   36.7210   24.7860   41.2670 H   0  0  0  0  0  0  0  0  0  0  0  0
   38.4530   24.1290   42.2830 N   0  0  0  0  0  0  0  0  0  0  0  0
   39.5270   24.4710   43.0310 C   0  0  0  0  0  0  0  0  0  0  0  0
   40.2460   23.7520   43.3820 H   0  0  0  0  0  0  0  0  0  0  0  0
   39.7240   25.7800   43.3640 N   0  0  0  0  0  0  0  0  0  0  0  0
   38.8350   26.7090   42.9350 C   0  0  0  0  0  0  0  0  0  0  0  0
  1 19  1  0  0  0  0
  1 21  1  0  0  0  0
  2  1  1  0  0  0  0
  3  2  1  0  0  0  0
  4  6  1  0  0  0  0
  4  2  1  0  0  0  0
  5  4  1  0  0  0  0
  7  4  1  0  0  0  0
  7  9  1  0  0  0  0
  8 13  1  0  0  0  0
  9  8  2  0  0  0  0
  9 10  1  0  0  0  0
 10 11  2  0  0  0  0
 11 12  1  0  0  0  0
 12 16  1  0  0  0  0
 13 12  2  0  0  0  0
 14  8  1  0  0  0  0
 15 10  1  0  0  0  0
 17  1  1  0  0  0  0
 18 17  1  0  0  0  0
 20 19  1  0  0  0  0
 21 24  1  0  0  0  0
 23 22  1  0  0  0  0
 24 23  1  0  0  0  0
 25 26  1  0  0  0  0
 25 24  2  0  0  0  0
 26 33  1  0  0  0  0
 27 26  2  0  0  0  0
 27 29  1  0  0  0  0
 28 27  1  0  0  0  0
 29 30  2  0  0  0  0
 30 32  1  0  0  0  0
 30 31  1  0  0  0  0
 33 23  1  0  0  0  0
 33 32  2  0  0  0  0
M  END
>  <minimizedAffinity>
-5.21644402

$$$$

 OpenBabel03252503013D

 33 35  0  0  0  0  0  0  0  0999 V2000
   36.6910   30.8760   40.2650 S   0  0  0  0  0  0  0  0  0  0  0  0
   37.8340   29.7870   40.9640 N   0  0  0  0  0  0  0  0  0  0  0  0
   38.7660   30.2040   41.0440 H   0  0  0  0  0  0  0  0  0  0  0  0
   37.3410   29.2430   42.2240 C   0  0  0  0  0  0  0  0  0  0  0  0
   38.0240   29.4520   43.0660 H   0  0  0  0  0  0  0  0  0  0  0  0
   36.3540   29.7140   42.4780 H   0  0  0  0  0  0  0  0  0  0  0  0
   37.0290   27.4880   41.9620 S   0  0  0  0  0  0  0  0  0  0  0  0
   39.4860   27.2040   43.2060 C   0  0  0  0  0  0  0  0  0  0  0  0
   38.4420   26.5480   42.5760 C   0  0  0  0  0  0  0  0  0  0  0  0
   38.4690   25.1520   42.4080 C   0  0  0  0  0  0  0  0  0  0  0  0
   39.5720   24.5050   42.8990 N   0  0  0  0  0  0  0  0  0  0  0  0
   40.5510   25.1940   43.4990 C   0  0  0  0  0  0  0  0  0  0  0  0
   40.5670   26.5180   43.6800 N   0  0  0  0  0  0  0  0  0  0  0  0
   39.4890   28.2790   43.3480 H   0  0  0  0  0  0  0  0  0  0  0  0
   37.6480   24.6730   41.9170 H   0  0  0  0  0  0  0  0  0  0  0  0
   41.3260   24.4840   43.8100 H   0  0  0  0  0  0  0  0  0  0  0  0
   36.3470   30.5110   38.8710 O   0  0  0  0  0  0  0  0  0  0  0  0
   35.6930   29.8010   38.6640 H   0  0  0  0  0  0  0  0  0  0  0  0
   35.4610   30.7950   41.1690 O   0  0  0  0  0  0  0  0  0  0  0  0
   35.0980   29.9240   41.4860 H   0  0  0  0  0  0  0  0  0  0  0  0
   37.2470   32.4320   40.4260 O   0  0  0  0  0  0  0  0  0  0  0  0
   38.5570   33.8780   38.3500 H   0  0  0  0  0  0  0  0  0  0  0  0
   39.1520   33.5130   39.1170 N   0  0  0  0  0  0  0  0  0  0  0  0
   38.5340   32.8300   40.0960 C   0  0  0  0  0  0  0  0  0  0  0  0
   39.4660   32.4350   41.0010 N   0  0  0  0  0  0  0  0  0  0  0  0
   40.6780   32.8570   40.6120 C   0  0  0  0  0  0  0  0  0  0  0  0
   41.9770   32.7930   41.0600 C   0  0  0  0  0  0  0  0  0  0  0  0
   42.1590   32.2680   41.9840 H   0  0  0  0  0  0  0  0  0  0  0  0
   42.9660   33.3610   40.3660 N   0  0  0  0  0  0  0  0  0  0  0  0
   42.7240   34.0160   39.2070 C   0  0  0  0  0  0  0  0  0  0  0  0
   43.5010   34.4830   38.6280 H   0  0  0  0  0  0  0  0  0  0  0  0
   41.4460   34.0980   38.7370 N   0  0  0  0  0  0  0  0  0  0  0  0
   40.4460   33.5190   39.4450 C   0  0  0  0  0  0  0  0  0  0  0  0
  1 21  1  0  0  0  0
  1  2  1  0  0  0  0
  1 19  1  0  0  0  0
  2  3  1  0  0  0  0
  2  4  1  0  0  0  0
  4  6  1  0  0  0  0
  4  5  1  0  0  0  0
  7  4  1  0  0  0  0
  7  9  1  0  0  0  0
  8 14  1  0  0  0  0
  8 13  1  0  0  0  0
  9  8  2  0  0  0  0
 10  9  1  0  0  0  0
 10 11  2  0  0  0  0
 11 12  1  0  0  0  0
 12 13  2  0  0  0  0
 12 16  1  0  0  0  0
 15 10  1  0  0  0  0
 17  1  1  0  0  0  0
 18 17  1  0  0  0  0
 19 20  1  0  0  0  0
 22 23  1  0  0  0  0
 23 33  1  0  0  0  0
 23 24  1  0  0  0  0
 24 21  1  0  0  0  0
 24 25  2  0  0  0  0
 26 25  1  0  0  0  0
 26 27  1  0  0  0  0
 27 28  1  0  0  0  0
 29 27  2  0  0  0  0
 30 29  1  0  0  0  0
 31 30  1  0  0  0  0
 32 30  2  0  0  0  0
 32 33  1  0  0  0  0
 33 26  2  0  0  0  0
M  END
>  <minimizedAffinity>
-5.18257904

$$$$

 OpenBabel03252503013D

 33 35  0  0  0  0  0  0  0  0999 V2000
   37.7100   33.1440   39.9280 S   0  0  0  0  0  0  0  0  0  0  0  0
   38.7580   32.4540   38.7430 N   0  0  0  0  0  0  0  0  0  0  0  0
   39.5470   31.9560   39.1670 H   0  0  0  0  0  0  0  0  0  0  0  0
   38.0140   31.6380   37.7910 C   0  0  0  0  0  0  0  0  0  0  0  0
   36.9510   31.5300   38.0730 H   0  0  0  0  0  0  0  0  0  0  0  0
   38.0360   32.1240   36.7790 H   0  0  0  0  0  0  0  0  0  0  0  0
   38.8860   30.0690   37.6350 S   0  0  0  0  0  0  0  0  0  0  0  0
   38.5490   27.7250   39.0690 C   0  0  0  0  0  0  0  0  0  0  0  0
   37.9120   28.7800   38.4370 C   0  0  0  0  0  0  0  0  0  0  0  0
   36.5070   28.8590   38.4150 C   0  0  0  0  0  0  0  0  0  0  0  0
   35.8340   27.8460   39.0440 N   0  0  0  0  0  0  0  0  0  0  0  0
   36.5060   26.8510   39.6380 C   0  0  0  0  0  0  0  0  0  0  0  0
   37.8360   26.7360   39.6840 N   0  0  0  0  0  0  0  0  0  0  0  0
   39.6290   27.6410   39.1000 H   0  0  0  0  0  0  0  0  0  0  0  0
   36.0430   29.6860   37.9190 H   0  0  0  0  0  0  0  0  0  0  0  0
   35.7760   26.1590   40.0720 H   0  0  0  0  0  0  0  0  0  0  0  0
   38.4580   33.7990   41.0260 O   0  0  0  0  0  0  0  0  0  0  0  0
   38.8350   34.7060   40.9320 H   0  0  0  0  0  0  0  0  0  0  0  0
   36.8620   34.1610   39.1640 O   0  0  0  0  0  0  0  0  0  0  0  0
   37.2640   34.7970   38.5120 H   0  0  0  0  0  0  0  0  0  0  0  0
   36.6370   31.9900   40.4510 O   0  0  0  0  0  0  0  0  0  0  0  0
   35.3680   29.8030   41.7620 H   0  0  0  0  0  0  0  0  0  0  0  0
   36.4030   29.8490   41.8190 N   0  0  0  0  0  0  0  0  0  0  0  0
   37.0010   30.8810   41.2010 C   0  0  0  0  0  0  0  0  0  0  0  0
   38.3420   30.7750   41.3830 N   0  0  0  0  0  0  0  0  0  0  0  0
   38.6110   29.6830   42.1140 C   0  0  0  0  0  0  0  0  0  0  0  0
   39.7140   29.0380   42.6240 C   0  0  0  0  0  0  0  0  0  0  0  0
   40.6800   29.4730   42.4240 H   0  0  0  0  0  0  0  0  0  0  0  0
   39.5790   27.9190   43.3400 N   0  0  0  0  0  0  0  0  0  0  0  0
   38.3600   27.3840   43.5830 C   0  0  0  0  0  0  0  0  0  0  0  0
   38.2220   26.4840   44.1560 H   0  0  0  0  0  0  0  0  0  0  0  0
   37.2470   28.0000   43.0900 N   0  0  0  0  0  0  0  0  0  0  0  0
   37.3890   29.1360   42.3650 C   0  0  0  0  0  0  0  0  0  0  0  0
  1 21  1  0  0  0  0
  1 17  1  0  0  0  0
  2  3  1  0  0  0  0
  2  1  1  0  0  0  0
  4  5  1  0  0  0  0
  4  2  1  0  0  0  0
  6  4  1  0  0  0  0
  7  4  1  0  0  0  0
  7  9  1  0  0  0  0
  8 14  1  0  0  0  0
  8 13  1  0  0  0  0
  9  8  2  0  0  0  0
 10  9  1  0  0  0  0
 10 11  2  0  0  0  0
 11 12  1  0  0  0  0
 12 13  2  0  0  0  0
 12 16  1  0  0  0  0
 15 10  1  0  0  0  0
 18 17  1  0  0  0  0
 19  1  1  0  0  0  0
 20 19  1  0  0  0  0
 21 24  1  0  0  0  0
 22 23  1  0  0  0  0
 23 33  1  0  0  0  0
 24 25  2  0  0  0  0
 24 23  1  0  0  0  0
 25 26  1  0  0  0  0
 26 33  2  0  0  0  0
 26 27  1  0  0  0  0
 27 29  2  0  0  0  0
 28 27  1  0  0  0  0
 29 30  1  0  0  0  0
 30 31  1  0  0  0  0
 32 30  2  0  0  0  0
 33 32  1  0  0  0  0
M  END
>  <minimizedAffinity>
-5.14300585

$$$$

 OpenBabel03252503013D

 33 35  0  0  0  0  0  0  0  0999 V2000
   37.7830   33.1460   39.9240 S   0  0  0  0  0  0  0  0  0  0  0  0
   38.8940   32.5270   38.7560 N   0  0  0  0  0  0  0  0  0  0  0  0
   38.5360   32.6080   37.8000 H   0  0  0  0  0  0  0  0  0  0  0  0
   40.2170   33.1180   38.9220 C   0  0  0  0  0  0  0  0  0  0  0  0
   40.5030   33.7530   38.0650 H   0  0  0  0  0  0  0  0  0  0  0  0
   40.2250   33.7750   39.8320 H   0  0  0  0  0  0  0  0  0  0  0  0
   41.3680   31.7700   39.2410 S   0  0  0  0  0  0  0  0  0  0  0  0
   42.7380   31.1290   41.5600 C   0  0  0  0  0  0  0  0  0  0  0  0
   42.3130   32.1530   40.7300 C   0  0  0  0  0  0  0  0  0  0  0  0
   42.6120   33.4930   41.0340 C   0  0  0  0  0  0  0  0  0  0  0  0
   43.3320   33.7080   42.1790 N   0  0  0  0  0  0  0  0  0  0  0  0
   43.7150   32.6760   42.9430 C   0  0  0  0  0  0  0  0  0  0  0  0
   43.4540   31.3900   42.6930 N   0  0  0  0  0  0  0  0  0  0  0  0
   42.5210   30.0880   41.3480 H   0  0  0  0  0  0  0  0  0  0  0  0
   42.2700   34.2620   40.3730 H   0  0  0  0  0  0  0  0  0  0  0  0
   44.2720   33.0750   43.7980 H   0  0  0  0  0  0  0  0  0  0  0  0
   38.4700   33.7890   41.0680 O   0  0  0  0  0  0  0  0  0  0  0  0
   38.8210   34.7100   41.0160 H   0  0  0  0  0  0  0  0  0  0  0  0
   36.9300   34.1610   39.1610 O   0  0  0  0  0  0  0  0  0  0  0  0
   37.3350   34.8290   38.5440 H   0  0  0  0  0  0  0  0  0  0  0  0
   36.7300   31.9430   40.3710 O   0  0  0  0  0  0  0  0  0  0  0  0
   35.4520   29.8400   41.8060 H   0  0  0  0  0  0  0  0  0  0  0  0
   36.4900   29.8570   41.8200 N   0  0  0  0  0  0  0  0  0  0  0  0
   37.0920   30.8490   41.1430 C   0  0  0  0  0  0  0  0  0  0  0  0
   38.4360   30.7070   41.2750 N   0  0  0  0  0  0  0  0  0  0  0  0
   38.7030   29.6330   42.0310 C   0  0  0  0  0  0  0  0  0  0  0  0
   39.8060   28.9710   42.5190 C   0  0  0  0  0  0  0  0  0  0  0  0
   40.7750   29.3690   42.2650 H   0  0  0  0  0  0  0  0  0  0  0  0
   39.6680   27.8800   43.2760 N   0  0  0  0  0  0  0  0  0  0  0  0
   38.4450   27.3920   43.5860 C   0  0  0  0  0  0  0  0  0  0  0  0
   38.3040   26.5150   44.1940 H   0  0  0  0  0  0  0  0  0  0  0  0
   37.3300   28.0250   43.1180 N   0  0  0  0  0  0  0  0  0  0  0  0
   37.4760   29.1310   42.3490 C   0  0  0  0  0  0  0  0  0  0  0  0
  1 21  1  0  0  0  0
  1 17  1  0  0  0  0
  2  4  1  0  0  0  0
  2  1  1  0  0  0  0
  3  2  1  0  0  0  0
  4  7  1  0  0  0  0
  4  6  1  0  0  0  0
  5  4  1  0  0  0  0
  7  9  1  0  0  0  0
  8 13  1  0  0  0  0
  9 10  1  0  0  0  0
  9  8  2  0  0  0  0
 10 11  2  0  0  0  0
 11 12  1  0  0  0  0
 12 16  1  0  0  0  0
 13 12  2  0  0  0  0
 14  8  1  0  0  0  0
 15 10  1  0  0  0  0
 18 17  1  0  0  0  0
 19  1  1  0  0  0  0
 20 19  1  0  0  0  0
 21 24  1  0  0  0  0
 22 23  1  0  0  0  0
 23 33  1  0  0  0  0
 24 25  2  0  0  0  0
 24 23  1  0  0  0  0
 25 26  1  0  0  0  0
 26 33  2  0  0  0  0
 26 27  1  0  0  0  0
 27 29  2  0  0  0  0
 28 27  1  0  0  0  0
 29 30  1  0  0  0  0
 30 31  1  0  0  0  0
 32 30  2  0  0  0  0
 33 32  1  0  0  0  0
M  END
>  <minimizedAffinity>
-5.10698271

$$$$

 OpenBabel03252503013D

 33 35  0  0  0  0  0  0  0  0999 V2000
   37.5620   32.9980   39.7210 S   0  0  0  0  0  0  0  0  0  0  0  0
   38.7070   33.4360   40.9360 N   0  0  0  0  0  0  0  0  0  0  0  0
   38.8750   32.6760   41.6010 H   0  0  0  0  0  0  0  0  0  0  0  0
   39.9340   33.9570   40.3420 C   0  0  0  0  0  0  0  0  0  0  0  0
   39.8190   34.1730   39.2660 H   0  0  0  0  0  0  0  0  0  0  0  0
   40.2140   34.9230   40.8420 H   0  0  0  0  0  0  0  0  0  0  0  0
   41.2470   32.7800   40.7100 S   0  0  0  0  0  0  0  0  0  0  0  0
   41.9490   30.5830   39.1770 C   0  0  0  0  0  0  0  0  0  0  0  0
   41.7290   31.9510   39.1810 C   0  0  0  0  0  0  0  0  0  0  0  0
   41.8760   32.7040   38.0020 C   0  0  0  0  0  0  0  0  0  0  0  0
   42.2430   32.0080   36.8820 N   0  0  0  0  0  0  0  0  0  0  0  0
   42.4430   30.6850   36.9390 C   0  0  0  0  0  0  0  0  0  0  0  0
   42.3140   29.9310   38.0350 N   0  0  0  0  0  0  0  0  0  0  0  0
   41.8420   29.9800   40.0720 H   0  0  0  0  0  0  0  0  0  0  0  0
   41.6990   33.7590   38.0370 H   0  0  0  0  0  0  0  0  0  0  0  0
   42.7270   30.3400   35.9390 H   0  0  0  0  0  0  0  0  0  0  0  0
   36.7730   34.1590   39.2470 O   0  0  0  0  0  0  0  0  0  0  0  0
   37.1300   34.7960   38.5840 H   0  0  0  0  0  0  0  0  0  0  0  0
   38.3970   32.4060   38.5840 O   0  0  0  0  0  0  0  0  0  0  0  0
   39.2310   32.8430   38.2620 H   0  0  0  0  0  0  0  0  0  0  0  0
   36.6290   31.7410   40.2740 O   0  0  0  0  0  0  0  0  0  0  0  0
   35.6580   30.1060   42.3950 H   0  0  0  0  0  0  0  0  0  0  0  0
   36.6440   29.9650   42.1060 N   0  0  0  0  0  0  0  0  0  0  0  0
   37.1020   30.7370   41.1060 C   0  0  0  0  0  0  0  0  0  0  0  0
   38.4000   30.4120   40.8700 N   0  0  0  0  0  0  0  0  0  0  0  0
   38.7800   29.4390   41.7110 C   0  0  0  0  0  0  0  0  0  0  0  0
   39.9080   28.7000   41.9790 C   0  0  0  0  0  0  0  0  0  0  0  0
   40.7860   28.9000   41.3850 H   0  0  0  0  0  0  0  0  0  0  0  0
   39.9050   27.7740   42.9400 N   0  0  0  0  0  0  0  0  0  0  0  0
   38.7960   27.5330   43.6780 C   0  0  0  0  0  0  0  0  0  0  0  0
   38.7650   26.7930   44.4590 H   0  0  0  0  0  0  0  0  0  0  0  0
   37.6600   28.2490   43.4360 N   0  0  0  0  0  0  0  0  0  0  0  0
   37.6700   29.1880   42.4590 C   0  0  0  0  0  0  0  0  0  0  0  0
  1 21  1  0  0  0  0
  1  2  1  0  0  0  0
  2  3  1  0  0  0  0
  4  7  1  0  0  0  0
  4  6  1  0  0  0  0
  4  2  1  0  0  0  0
  5  4  1  0  0  0  0
  8  9  1  0  0  0  0
  8 14  1  0  0  0  0
  9  7  1  0  0  0  0
 10 15  1  0  0  0  0
 10  9  2  0  0  0  0
 11 12  2  0  0  0  0
 11 10  1  0  0  0  0
 12 13  1  0  0  0  0
 13  8  2  0  0  0  0
 16 12  1  0  0  0  0
 17  1  1  0  0  0  0
 18 17  1  0  0  0  0
 19  1  1  0  0  0  0
 20 19  1  0  0  0  0
 21 24  1  0  0  0  0
 23 22  1  0  0  0  0
 23 33  1  0  0  0  0
 24 23  1  0  0  0  0
 25 24  2  0  0  0  0
 25 26  1  0  0  0  0
 26 27  2  0  0  0  0
 26 33  1  0  0  0  0
 27 29  1  0  0  0  0
 28 27  1  0  0  0  0
 29 30  2  0  0  0  0
 30 31  1  0  0  0  0
 32 30  1  0  0  0  0
 33 32  2  0  0  0  0
M  END
>  <minimizedAffinity>
-5.0181036

$$$$

 OpenBabel03252503013D

 33 35  0  0  0  0  0  0  0  0999 V2000
   36.8780   30.2850   41.1540 S   0  0  0  0  0  0  0  0  0  0  0  0
   36.8230   29.0700   42.3790 N   0  0  0  0  0  0  0  0  0  0  0  0
   36.4450   28.1850   42.0290 H   0  0  0  0  0  0  0  0  0  0  0  0
   38.1180   28.9200   43.0310 C   0  0  0  0  0  0  0  0  0  0  0  0
   38.5900   29.8920   43.2560 H   0  0  0  0  0  0  0  0  0  0  0  0
   37.9870   28.3860   44.0110 H   0  0  0  0  0  0  0  0  0  0  0  0
   39.1230   27.8510   41.9860 S   0  0  0  0  0  0  0  0  0  0  0  0
   37.7110   25.4950   42.3310 C   0  0  0  0  0  0  0  0  0  0  0  0
   38.1110   26.4650   41.4280 C   0  0  0  0  0  0  0  0  0  0  0  0
   37.7350   26.3840   40.0750 C   0  0  0  0  0  0  0  0  0  0  0  0
   36.9680   25.3050   39.7240 N   0  0  0  0  0  0  0  0  0  0  0  0
   36.6120   24.3980   40.6430 C   0  0  0  0  0  0  0  0  0  0  0  0
   36.9460   24.4350   41.9360 N   0  0  0  0  0  0  0  0  0  0  0  0
   37.9870   25.5350   43.3790 H   0  0  0  0  0  0  0  0  0  0  0  0
   38.0600   27.1490   39.4000 H   0  0  0  0  0  0  0  0  0  0  0  0
   36.0070   23.6310   40.1470 H   0  0  0  0  0  0  0  0  0  0  0  0
   36.8710   29.7080   39.7900 O   0  0  0  0  0  0  0  0  0  0  0  0
   36.0390   29.4050   39.3550 H   0  0  0  0  0  0  0  0  0  0  0  0
   35.6330   31.1420   41.3890 O   0  0  0  0  0  0  0  0  0  0  0  0
   34.7410   30.7360   41.5640 H   0  0  0  0  0  0  0  0  0  0  0  0
   38.1620   31.2970   41.4420 O   0  0  0  0  0  0  0  0  0  0  0  0
   38.4650   31.0680   38.6190 H   0  0  0  0  0  0  0  0  0  0  0  0
   39.1670   31.6420   39.1220 N   0  0  0  0  0  0  0  0  0  0  0  0
   39.0240   31.7500   40.4540 C   0  0  0  0  0  0  0  0  0  0  0  0
   40.0260   32.5320   40.9330 N   0  0  0  0  0  0  0  0  0  0  0  0
   40.8110   32.9270   39.9210 C   0  0  0  0  0  0  0  0  0  0  0  0
   41.9390   33.6940   39.7380 C   0  0  0  0  0  0  0  0  0  0  0  0
   42.3810   34.1430   40.6130 H   0  0  0  0  0  0  0  0  0  0  0  0
   42.4560   33.8660   38.5200 N   0  0  0  0  0  0  0  0  0  0  0  0
   41.8910   33.2960   37.4310 C   0  0  0  0  0  0  0  0  0  0  0  0
   42.2870   33.4190   36.4370 H   0  0  0  0  0  0  0  0  0  0  0  0
   40.7720   32.5300   37.5780 N   0  0  0  0  0  0  0  0  0  0  0  0
   40.2510   32.3580   38.8170 C   0  0  0  0  0  0  0  0  0  0  0  0
  1 19  1  0  0  0  0
  1 21  1  0  0  0  0
  1  2  1  0  0  0  0
  2  4  1  0  0  0  0
  3  2  1  0  0  0  0
  4  5  1  0  0  0  0
  4  6  1  0  0  0  0
  7  4  1  0  0  0  0
  8 14  1  0  0  0  0
  9  7  1  0  0  0  0
  9  8  2  0  0  0  0
 10  9  1  0  0  0  0
 11 10  2  0  0  0  0
 11 12  1  0  0  0  0
 12 13  2  0  0  0  0
 13  8  1  0  0  0  0
 15 10  1  0  0  0  0
 16 12  1  0  0  0  0
 17  1  1  0  0  0  0
 18 17  1  0  0  0  0
 19 20  1  0  0  0  0
 22 23  1  0  0  0  0
 23 24  1  0  0  0  0
 24 25  2  0  0  0  0
 24 21  1  0  0  0  0
 26 25  1  0  0  0  0
 27 26  1  0  0  0  0
 27 28  1  0  0  0  0
 29 27  2  0  0  0  0
 30 32  2  0  0  0  0
 30 29  1  0  0  0  0
 31 30  1  0  0  0  0
 32 33  1  0  0  0  0
 33 23  1  0  0  0  0
 33 26  2  0  0  0  0
M  END
>  <minimizedAffinity>
-4.96108913

$$$$
