
 OpenBabel03252507433D

 34 37  0  0  0  0  0  0  0  0999 V2000
   44.3060   34.6260   41.0920 C   0  0  0  0  0  0  0  0  0  0  0  0
   43.2980   35.5360   41.5330 C   0  0  0  0  0  0  0  0  0  0  0  0
   41.8170   34.9960   40.5600 S   0  0  0  0  0  0  0  0  0  0  0  0
   42.8260   33.6430   39.7360 C   0  0  0  0  0  0  0  0  0  0  0  0
   43.8530   33.7750   40.2010 N   0  0  0  0  0  0  0  0  0  0  0  0
   43.4280   36.3290   42.2630 H   0  0  0  0  0  0  0  0  0  0  0  0
   42.3620   32.6780   38.7430 N   0  0  0  0  0  0  0  0  0  0  0  0
   41.1030   32.2750   38.6530 C   0  0  0  0  0  0  0  0  0  0  0  0
   40.2250   32.5270   39.2140 H   0  0  0  0  0  0  0  0  0  0  0  0
   41.0550   31.3970   37.6360 N   0  0  0  0  0  0  0  0  0  0  0  0
   42.2840   31.2740   37.1200 C   0  0  0  0  0  0  0  0  0  0  0  0
   42.8520   30.5400   36.0860 C   0  0  0  0  0  0  0  0  0  0  0  0
   42.1920   29.8860   35.5180 H   0  0  0  0  0  0  0  0  0  0  0  0
   44.1470   30.5910   35.7550 N   0  0  0  0  0  0  0  0  0  0  0  0
   44.9480   31.4040   36.4670 C   0  0  0  0  0  0  0  0  0  0  0  0
   46.0120   31.4680   36.2190 H   0  0  0  0  0  0  0  0  0  0  0  0
   44.4370   32.1450   37.4890 N   0  0  0  0  0  0  0  0  0  0  0  0
   43.1460   32.0920   37.8180 C   0  0  0  0  0  0  0  0  0  0  0  0
   45.6890   34.7160   41.6420 C   0  0  0  0  0  0  0  0  0  0  0  0
   45.8900   35.8160   41.8020 H   0  0  0  0  0  0  0  0  0  0  0  0
   45.7820   34.2650   42.6540 H   0  0  0  0  0  0  0  0  0  0  0  0
   46.7590   34.2580   40.6970 C   0  0  0  0  0  0  0  0  0  0  0  0
   46.8420   35.0780   39.9230 H   0  0  0  0  0  0  0  0  0  0  0  0
   46.5100   33.3640   40.1370 H   0  0  0  0  0  0  0  0  0  0  0  0
   48.0970   34.1870   41.3140 C   0  0  0  0  0  0  0  0  0  0  0  0
   48.7940   32.9830   41.1870 C   0  0  0  0  0  0  0  0  0  0  0  0
   50.0500   32.8560   41.7440 C   0  0  0  0  0  0  0  0  0  0  0  0
   50.5680   33.9300   42.4060 N   0  0  0  0  0  0  0  0  0  0  0  0
   49.8720   35.0770   42.5120 C   0  0  0  0  0  0  0  0  0  0  0  0
   48.6590   35.1930   41.9720 N   0  0  0  0  0  0  0  0  0  0  0  0
   50.5610   31.9110   41.6250 H   0  0  0  0  0  0  0  0  0  0  0  0
   50.3680   35.8900   43.0630 H   0  0  0  0  0  0  0  0  0  0  0  0
   48.0560   31.6010   40.2990 S   0  0  0  0  0  0  0  0  0  0  0  0
   48.0670   30.4900   41.1460 H   0  0  0  0  0  0  0  0  0  0  0  0
  1  2  2  0  0  0  0
  1 19  1  0  0  0  0
  2  6  1  0  0  0  0
  3  2  1  0  0  0  0
  4  5  2  0  0  0  0
  4  3  1  0  0  0  0
  5  1  1  0  0  0  0
  7  4  1  0  0  0  0
  8  7  1  0  0  0  0
  8  9  1  0  0  0  0
 10  8  2  0  0  0  0
 11 10  1  0  0  0  0
 11 18  1  0  0  0  0
 12 11  2  0  0  0  0
 13 12  1  0  0  0  0
 14 12  1  0  0  0  0
 14 15  2  0  0  0  0
 15 17  1  0  0  0  0
 16 15  1  0  0  0  0
 17 18  2  0  0  0  0
 18  7  1  0  0  0  0
 19 20  1  0  0  0  0
 19 21  1  0  0  0  0
 22 25  1  0  0  0  0
 22 19  1  0  0  0  0
 23 22  1  0  0  0  0
 24 22  1  0  0  0  0
 25 30  1  0  0  0  0
 26 25  2  0  0  0  0
 26 27  1  0  0  0  0
 27 28  2  0  0  0  0
 28 29  1  0  0  0  0
 29 32  1  0  0  0  0
 30 29  2  0  0  0  0
 31 27  1  0  0  0  0
 33 34  1  0  0  0  0
 33 26  1  0  0  0  0
M  END
>  <minimizedAffinity>
-4.82660866

>  <minimizedRMSD>
1.01411521

$$$$
