
 OpenBabel03252505063D

 46 50  0  0  1  0  0  0  0  0999 V2000
   44.5710   35.5900   44.6010 C   0  0  0  0  0  0  0  0  0  0  0  0
   45.2260   35.6040   43.3490 C   0  0  0  0  0  0  0  0  0  0  0  0
   46.3110   34.6900   43.1750 C   0  0  0  0  0  0  0  0  0  0  0  0
   46.6620   33.8680   44.1880 N   0  0  0  0  0  0  0  0  0  0  0  0
   46.0000   33.8960   45.3690 C   0  0  0  0  0  0  0  0  0  0  0  0
   44.9540   34.7550   45.5810 N   0  0  0  0  0  0  0  0  0  0  0  0
   43.7580   36.2910   44.6980 H   0  0  0  0  0  0  0  0  0  0  0  0
   44.9750   36.2370   42.5330 H   0  0  0  0  0  0  0  0  0  0  0  0
   47.0080   34.6780   41.8860 C   0  0  0  0  0  0  0  0  0  0  0  0
   48.1870   35.3450   41.7890 C   0  0  0  0  0  0  0  0  0  0  0  0
   48.8130   35.3090   40.5430 C   0  0  0  0  0  0  0  0  0  0  0  0
   48.1830   34.6070   39.5380 C   0  0  0  0  0  0  0  0  0  0  0  0
   46.9980   33.9390   39.6430 C   0  0  0  0  0  0  0  0  0  0  0  0
   46.4130   33.9990   40.8860 N   0  0  0  0  0  0  0  0  0  0  0  0
   48.6120   35.8710   42.6290 H   0  0  0  0  0  0  0  0  0  0  0  0
   49.7600   35.8230   40.3980 H   0  0  0  0  0  0  0  0  0  0  0  0
   48.6600   34.5720   38.5640 H   0  0  0  0  0  0  0  0  0  0  0  0
   46.3910   33.2280   38.5680 N   0  0  0  0  0  0  0  0  0  0  0  0
   46.6870   33.3750   37.2610 C   0  0  0  0  0  0  0  0  0  0  0  0
   47.4190   34.0420   36.8160 H   0  0  0  0  0  0  0  0  0  0  0  0
   45.9430   32.5660   36.5180 N   0  0  0  0  0  0  0  0  0  0  0  0
   45.1230   31.8510   37.3150 C   0  0  0  0  0  0  0  0  0  0  0  0
   44.1420   30.8760   37.1670 C   0  0  0  0  0  0  0  0  0  0  0  0
   43.9530   30.5790   36.1490 H   0  0  0  0  0  0  0  0  0  0  0  0
   43.5160   30.3810   38.2550 N   0  0  0  0  0  0  0  0  0  0  0  0
   43.8190   30.8120   39.4790 C   0  0  0  0  0  0  0  0  0  0  0  0
   43.2980   30.3950   40.3320 H   0  0  0  0  0  0  0  0  0  0  0  0
   44.7720   31.7620   39.6550 N   0  0  0  0  0  0  0  0  0  0  0  0
   45.4350   32.2960   38.6030 C   0  0  0  0  0  0  0  0  0  0  0  0
   46.4310   32.9740   46.4490 C   0  0  2  0  0  0  0  0  0  0  0  0
   46.9540   31.7440   45.7610 C   0  0  0  0  0  0  0  0  0  0  0  0
   46.0790   30.5600   45.7790 C   0  0  0  0  0  0  0  0  0  0  0  0
   45.7760   30.3000   47.2480 C   0  0  0  0  0  0  0  0  0  0  0  0
   44.9900   31.3710   47.8570 C   0  0  0  0  0  0  0  0  0  0  0  0
   45.3720   32.7450   47.4070 C   0  0  0  0  0  0  0  0  0  0  0  0
   47.2750   33.5010   46.9580 H   0  0  0  0  0  0  0  0  0  0  0  0
   47.9170   31.4710   46.2390 H   0  0  0  0  0  0  0  0  0  0  0  0
   47.2310   31.9430   44.6890 H   0  0  0  0  0  0  0  0  0  0  0  0
   46.6600   29.6890   45.4410 H   0  0  0  0  0  0  0  0  0  0  0  0
   45.1670   30.7390   45.1980 H   0  0  0  0  0  0  0  0  0  0  0  0
   46.7280   30.0990   47.7600 H   0  0  0  0  0  0  0  0  0  0  0  0
   45.1280   29.4090   47.2540 H   0  0  0  0  0  0  0  0  0  0  0  0
   44.1820   31.3520   48.5750 H   0  0  0  0  0  0  0  0  0  0  0  0
   44.6820   33.8770   47.9260 N   0  0  0  0  0  0  0  0  0  0  0  0
   45.0370   34.4780   48.7050 H   0  0  0  0  0  0  0  0  0  0  0  0
   43.7670   34.2180   47.5880 H   0  0  0  0  0  0  0  0  0  0  0  0
  1  7  1  0  0  0  0
  1  6  1  0  0  0  0
  2  1  2  0  0  0  0
  3  2  1  0  0  0  0
  3  4  2  0  0  0  0
  4  5  1  0  0  0  0
  5  6  2  0  0  0  0
  5 30  1  0  0  0  0
  8  2  1  0  0  0  0
  9  3  1  0  0  0  0
 10  9  1  0  0  0  0
 10 15  1  0  0  0  0
 11 10  2  0  0  0  0
 12 13  2  0  0  0  0
 12 11  1  0  0  0  0
 13 14  1  0  0  0  0
 14  9  2  0  0  0  0
 16 11  1  0  0  0  0
 17 12  1  0  0  0  0
 18 29  1  0  0  0  0
 18 13  1  0  0  0  0
 19 18  1  0  0  0  0
 20 19  1  0  0  0  0
 21 19  2  0  0  0  0
 21 22  1  0  0  0  0
 22 29  1  0  0  0  0
 23 22  2  0  0  0  0
 23 25  1  0  0  0  0
 24 23  1  0  0  0  0
 25 26  2  0  0  0  0
 26 28  1  0  0  0  0
 26 27  1  0  0  0  0
 29 28  2  0  0  0  0
 30 36  1  1  0  0  0
 30 35  1  0  0  0  0
 31 32  1  0  0  0  0
 31 37  1  0  0  0  0
 31 30  1  0  0  0  0
 32 33  1  0  0  0  0
 33 42  1  0  0  0  0
 33 41  1  0  0  0  0
 33 34  1  0  0  0  0
 34 43  1  0  0  0  0
 35 34  2  0  0  0  0
 35 44  1  0  0  0  0
 38 31  1  0  0  0  0
 39 32  1  0  0  0  0
 40 32  1  0  0  0  0
 44 45  1  0  0  0  0
 46 44  1  0  0  0  0
M  END
>  <minimizedAffinity>
-7.87936497

>  <minimizedRMSD>
0.214972228

$$$$
