
 OpenBabel03252503023D

 36 38  0  0  0  0  0  0  0  0999 V2000
   41.3860   31.8970   41.1290 C   0  0  0  0  0  0  0  0  0  0  0  0
   42.5780   32.5110   40.7730 C   0  0  0  0  0  0  0  0  0  0  0  0
   43.0150   32.5500   39.4400 C   0  0  0  0  0  0  0  0  0  0  0  0
   42.1950   31.9490   38.5460 N   0  0  0  0  0  0  0  0  0  0  0  0
   41.0530   31.3640   38.9020 C   0  0  0  0  0  0  0  0  0  0  0  0
   40.6310   31.3220   40.1590 N   0  0  0  0  0  0  0  0  0  0  0  0
   41.0700   31.8840   42.1820 H   0  0  0  0  0  0  0  0  0  0  0  0
   43.9490   33.0370   39.2060 H   0  0  0  0  0  0  0  0  0  0  0  0
   40.2770   30.7660   37.8560 N   0  0  0  0  0  0  0  0  0  0  0  0
   40.3150   29.5520   37.2760 C   0  0  0  0  0  0  0  0  0  0  0  0
   41.0400   28.8170   37.5960 H   0  0  0  0  0  0  0  0  0  0  0  0
   39.3520   29.4910   36.3250 N   0  0  0  0  0  0  0  0  0  0  0  0
   38.7110   30.6950   36.3240 C   0  0  0  0  0  0  0  0  0  0  0  0
   37.6490   31.1320   35.5300 C   0  0  0  0  0  0  0  0  0  0  0  0
   37.1940   30.5030   34.7780 H   0  0  0  0  0  0  0  0  0  0  0  0
   37.1910   32.3990   35.7350 N   0  0  0  0  0  0  0  0  0  0  0  0
   37.7590   33.1890   36.6800 C   0  0  0  0  0  0  0  0  0  0  0  0
   37.4680   34.1950   36.9130 H   0  0  0  0  0  0  0  0  0  0  0  0
   38.7970   32.7690   37.4580 N   0  0  0  0  0  0  0  0  0  0  0  0
   39.2900   31.5160   37.2930 C   0  0  0  0  0  0  0  0  0  0  0  0
   43.5870   33.2790   42.0640 S   0  0  0  0  0  0  0  0  0  0  0  0
   43.5680   35.0670   41.8480 C   0  0  0  0  0  0  0  0  0  0  0  0
   44.5510   35.3840   41.4330 H   0  0  0  0  0  0  0  0  0  0  0  0
   42.7810   35.3140   41.1290 H   0  0  0  0  0  0  0  0  0  0  0  0
   43.3410   35.6360   43.1620 N   0  0  0  0  0  0  0  0  0  0  0  0
   42.7060   36.4570   43.1680 H   0  0  0  0  0  0  0  0  0  0  0  0
   44.7900   35.9450   44.0210 S   0  0  0  0  0  0  0  0  0  0  0  0
   45.9870   35.4450   43.2790 O   0  0  0  0  0  0  0  0  0  0  0  0
   46.5680   36.0330   42.7180 H   0  0  0  0  0  0  0  0  0  0  0  0
   44.8640   37.4430   44.1930 O   0  0  0  0  0  0  0  0  0  0  0  0
   44.3700   37.9290   44.8890 H   0  0  0  0  0  0  0  0  0  0  0  0
   44.6980   35.2740   45.5540 O   0  0  0  0  0  0  0  0  0  0  0  0
   45.3950   34.0890   45.6580 C   0  0  0  0  0  0  0  0  0  0  0  0
   46.1920   34.0360   44.8710 H   0  0  0  0  0  0  0  0  0  0  0  0
   45.9730   34.1680   46.6250 H   0  0  0  0  0  0  0  0  0  0  0  0
   44.7670   33.1840   45.6700 H   0  0  0  0  0  0  0  0  0  0  0  0
  1  7  1  0  0  0  0
  2  1  1  0  0  0  0
  2 21  1  0  0  0  0
  3  2  2  0  0  0  0
  4  5  2  0  0  0  0
  4  3  1  0  0  0  0
  5  6  1  0  0  0  0
  6  1  2  0  0  0  0
  8  3  1  0  0  0  0
  9  5  1  0  0  0  0
 10 11  1  0  0  0  0
 10  9  1  0  0  0  0
 12 10  2  0  0  0  0
 13 12  1  0  0  0  0
 13 20  1  0  0  0  0
 14 16  1  0  0  0  0
 14 13  2  0  0  0  0
 15 14  1  0  0  0  0
 16 17  2  0  0  0  0
 17 18  1  0  0  0  0
 17 19  1  0  0  0  0
 20 19  2  0  0  0  0
 20  9  1  0  0  0  0
 22 21  1  0  0  0  0
 22 25  1  0  0  0  0
 23 22  1  0  0  0  0
 24 22  1  0  0  0  0
 25 26  1  0  0  0  0
 25 27  1  0  0  0  0
 27 30  1  0  0  0  0
 27 32  1  0  0  0  0
 28 27  1  0  0  0  0
 29 28  1  0  0  0  0
 30 31  1  0  0  0  0
 32 33  1  0  0  0  0
 33 36  1  0  0  0  0
 33 35  1  0  0  0  0
 34 33  1  0  0  0  0
M  END
>  <minimizedAffinity>
-3.72852421

>  <minimizedRMSD>
4.09956408

$$$$
