
 OpenBabel03252507473D

 40 43  0  0  0  0  0  0  0  0999 V2000
   37.1280   30.9660   39.1020 C   0  0  0  0  0  0  0  0  0  0  0  0
   36.4360   29.7800   39.2550 C   0  0  0  0  0  0  0  0  0  0  0  0
   36.1360   28.9410   38.1870 C   0  0  0  0  0  0  0  0  0  0  0  0
   36.5810   29.3770   36.9530 N   0  0  0  0  0  0  0  0  0  0  0  0
   37.2530   30.5350   36.8350 C   0  0  0  0  0  0  0  0  0  0  0  0
   37.5160   31.3050   37.8880 N   0  0  0  0  0  0  0  0  0  0  0  0
   35.5970   28.0350   38.3580 H   0  0  0  0  0  0  0  0  0  0  0  0
   37.5440   30.7590   35.8140 H   0  0  0  0  0  0  0  0  0  0  0  0
   37.3680   31.7430   40.3260 C   0  0  0  0  0  0  0  0  0  0  0  0
   36.6360   31.5140   41.1450 H   0  0  0  0  0  0  0  0  0  0  0  0
   38.3690   31.5410   40.7610 H   0  0  0  0  0  0  0  0  0  0  0  0
   37.3340   33.2320   40.0830 C   0  0  0  0  0  0  0  0  0  0  0  0
   36.8000   33.6980   40.9370 H   0  0  0  0  0  0  0  0  0  0  0  0
   36.7050   33.4910   39.1860 H   0  0  0  0  0  0  0  0  0  0  0  0
   38.6720   33.8650   40.0230 C   0  0  0  0  0  0  0  0  0  0  0  0
   38.8440   35.1890   40.5120 C   0  0  0  0  0  0  0  0  0  0  0  0
   40.6260   35.5150   40.2270 S   0  0  0  0  0  0  0  0  0  0  0  0
   40.8410   33.7720   39.4800 C   0  0  0  0  0  0  0  0  0  0  0  0
   39.7830   33.3560   39.5600 N   0  0  0  0  0  0  0  0  0  0  0  0
   38.0950   35.8390   40.9460 H   0  0  0  0  0  0  0  0  0  0  0  0
   42.0580   33.3050   39.0100 O   0  0  0  0  0  0  0  0  0  0  0  0
   43.2040   31.8640   37.1040 O   0  0  0  0  0  0  0  0  0  0  0  0
   42.2150   32.9880   37.3540 P   0  0  0  0  0  0  0  0  0  0  0  0
   40.6910   32.5220   36.7740 O   0  0  0  0  0  0  0  0  0  0  0  0
   40.3110   31.9070   37.4540 H   0  0  0  0  0  0  0  0  0  0  0  0
   42.6800   34.4160   36.5490 O   0  0  0  0  0  0  0  0  0  0  0  0
   43.6480   34.5950   36.7490 H   0  0  0  0  0  0  0  0  0  0  0  0
   35.8520   29.2680   40.8980 S   0  0  0  0  0  0  0  0  0  0  0  0
   36.4410   26.2290   40.4610 H   0  0  0  0  0  0  0  0  0  0  0  0
   37.0250   26.6890   41.1950 N   0  0  0  0  0  0  0  0  0  0  0  0
   36.9250   27.9880   41.5310 C   0  0  0  0  0  0  0  0  0  0  0  0
   37.8070   28.2740   42.5030 N   0  0  0  0  0  0  0  0  0  0  0  0
   38.5040   27.1670   42.8230 C   0  0  0  0  0  0  0  0  0  0  0  0
   39.5110   26.8700   43.7210 C   0  0  0  0  0  0  0  0  0  0  0  0
   39.8460   27.7160   44.3380 H   0  0  0  0  0  0  0  0  0  0  0  0
   40.0140   25.6080   43.7960 N   0  0  0  0  0  0  0  0  0  0  0  0
   39.4890   24.6760   42.9620 C   0  0  0  0  0  0  0  0  0  0  0  0
   39.9500   23.6930   43.0890 H   0  0  0  0  0  0  0  0  0  0  0  0
   38.4990   24.9210   42.0610 N   0  0  0  0  0  0  0  0  0  0  0  0
   37.9960   26.1840   41.9870 C   0  0  0  0  0  0  0  0  0  0  0  0
  1  2  1  0  0  0  0
  1  9  1  0  0  0  0
  2 28  1  0  0  0  0
  3  7  1  0  0  0  0
  3  2  2  0  0  0  0
  4  3  1  0  0  0  0
  5  4  2  0  0  0  0
  5  6  1  0  0  0  0
  6  1  2  0  0  0  0
  8  5  1  0  0  0  0
  9 11  1  0  0  0  0
  9 10  1  0  0  0  0
 12  9  1  0  0  0  0
 12 13  1  0  0  0  0
 14 12  1  0  0  0  0
 15 12  1  0  0  0  0
 15 16  2  0  0  0  0
 16 20  1  0  0  0  0
 17 16  1  0  0  0  0
 18 19  2  0  0  0  0
 18 17  1  0  0  0  0
 19 15  1  0  0  0  0
 21 18  1  0  0  0  0
 22 23  2  0  0  0  0
 23 21  1  0  0  0  0
 24 23  1  0  0  0  0
 24 25  1  0  0  0  0
 26 27  1  0  0  0  0
 26 23  1  0  0  0  0
 28 31  1  0  0  0  0
 29 30  1  0  0  0  0
 30 31  1  0  0  0  0
 30 40  1  0  0  0  0
 31 32  2  0  0  0  0
 32 33  1  0  0  0  0
 33 34  1  0  0  0  0
 34 36  2  0  0  0  0
 34 35  1  0  0  0  0
 37 38  1  0  0  0  0
 37 36  1  0  0  0  0
 39 37  2  0  0  0  0
 40 39  1  0  0  0  0
 40 33  2  0  0  0  0
M  END
>  <minimizedAffinity>
-6.78985643

$$$$

 OpenBabel03252507473D

 40 43  0  0  0  0  0  0  0  0999 V2000
   36.7500   28.9690   41.7270 C   0  0  0  0  0  0  0  0  0  0  0  0
   37.5370   29.9500   41.1550 C   0  0  0  0  0  0  0  0  0  0  0  0
   37.2000   30.5880   39.9680 C   0  0  0  0  0  0  0  0  0  0  0  0
   36.0140   30.1710   39.3920 N   0  0  0  0  0  0  0  0  0  0  0  0
   35.2680   29.2140   39.9720 C   0  0  0  0  0  0  0  0  0  0  0  0
   35.6350   28.6320   41.1110 N   0  0  0  0  0  0  0  0  0  0  0  0
   37.8420   31.3400   39.5660 H   0  0  0  0  0  0  0  0  0  0  0  0
   34.3650   28.9810   39.4180 H   0  0  0  0  0  0  0  0  0  0  0  0
   37.2420   28.3890   42.9850 C   0  0  0  0  0  0  0  0  0  0  0  0
   38.3610   28.4070   43.0720 H   0  0  0  0  0  0  0  0  0  0  0  0
   36.8690   28.9390   43.8740 H   0  0  0  0  0  0  0  0  0  0  0  0
   36.7890   26.9630   43.1820 C   0  0  0  0  0  0  0  0  0  0  0  0
   35.7840   26.8650   42.7220 H   0  0  0  0  0  0  0  0  0  0  0  0
   36.6220   26.7270   44.2690 H   0  0  0  0  0  0  0  0  0  0  0  0
   37.6560   25.9570   42.5230 C   0  0  0  0  0  0  0  0  0  0  0  0
   37.0640   24.8570   41.8450 C   0  0  0  0  0  0  0  0  0  0  0  0
   38.5100   23.9230   41.2140 S   0  0  0  0  0  0  0  0  0  0  0  0
   39.6940   25.2040   41.9900 C   0  0  0  0  0  0  0  0  0  0  0  0
   38.9610   25.9320   42.4710 N   0  0  0  0  0  0  0  0  0  0  0  0
   36.0100   24.6350   41.7350 H   0  0  0  0  0  0  0  0  0  0  0  0
   41.0720   25.1050   41.8880 O   0  0  0  0  0  0  0  0  0  0  0  0
   42.6430   27.1040   42.6350 O   0  0  0  0  0  0  0  0  0  0  0  0
   42.0220   25.8010   43.1040 P   0  0  0  0  0  0  0  0  0  0  0  0
   41.0110   26.1170   44.4280 O   0  0  0  0  0  0  0  0  0  0  0  0
   40.1720   26.4930   44.0540 H   0  0  0  0  0  0  0  0  0  0  0  0
   43.2130   24.6850   43.5950 O   0  0  0  0  0  0  0  0  0  0  0  0
   43.9180   24.6350   42.8810 H   0  0  0  0  0  0  0  0  0  0  0  0
   39.1000   30.4420   41.9440 S   0  0  0  0  0  0  0  0  0  0  0  0
   38.7380   33.5450   42.0400 H   0  0  0  0  0  0  0  0  0  0  0  0
   39.4300   33.2060   41.3370 N   0  0  0  0  0  0  0  0  0  0  0  0
   39.7280   31.9080   41.1410 C   0  0  0  0  0  0  0  0  0  0  0  0
   40.6520   31.7960   40.1710 N   0  0  0  0  0  0  0  0  0  0  0  0
   40.9760   33.0190   39.7120 C   0  0  0  0  0  0  0  0  0  0  0  0
   41.8410   33.5060   38.7500 C   0  0  0  0  0  0  0  0  0  0  0  0
   42.4150   32.7380   38.2110 H   0  0  0  0  0  0  0  0  0  0  0  0
   41.9350   34.8440   38.5250 N   0  0  0  0  0  0  0  0  0  0  0  0
   41.1560   35.6610   39.2770 C   0  0  0  0  0  0  0  0  0  0  0  0
   41.2950   36.7160   39.0310 H   0  0  0  0  0  0  0  0  0  0  0  0
   40.2910   35.2290   40.2350 N   0  0  0  0  0  0  0  0  0  0  0  0
   40.1970   33.8890   40.4590 C   0  0  0  0  0  0  0  0  0  0  0  0
  1  9  1  0  0  0  0
  2  1  1  0  0  0  0
  2 28  1  0  0  0  0
  3  2  2  0  0  0  0
  4  3  1  0  0  0  0
  4  5  2  0  0  0  0
  5  6  1  0  0  0  0
  6  1  2  0  0  0  0
  7  3  1  0  0  0  0
  8  5  1  0  0  0  0
  9 10  1  0  0  0  0
  9 12  1  0  0  0  0
  9 11  1  0  0  0  0
 12 14  1  0  0  0  0
 13 12  1  0  0  0  0
 15 12  1  0  0  0  0
 16 15  2  0  0  0  0
 17 16  1  0  0  0  0
 17 18  1  0  0  0  0
 18 19  2  0  0  0  0
 19 15  1  0  0  0  0
 20 16  1  0  0  0  0
 21 18  1  0  0  0  0
 21 23  1  0  0  0  0
 22 23  2  0  0  0  0
 23 26  1  0  0  0  0
 23 24  1  0  0  0  0
 25 24  1  0  0  0  0
 27 26  1  0  0  0  0
 30 29  1  0  0  0  0
 31 30  1  0  0  0  0
 31 28  1  0  0  0  0
 32 31  2  0  0  0  0
 33 32  1  0  0  0  0
 33 40  1  0  0  0  0
 34 33  2  0  0  0  0
 35 34  1  0  0  0  0
 36 34  1  0  0  0  0
 36 37  2  0  0  0  0
 37 39  1  0  0  0  0
 38 37  1  0  0  0  0
 39 40  2  0  0  0  0
 40 30  1  0  0  0  0
M  END
>  <minimizedAffinity>
-6.26126337

$$$$

 OpenBabel03252507473D

 40 43  0  0  0  0  0  0  0  0999 V2000
   36.7680   27.3250   41.2310 C   0  0  0  0  0  0  0  0  0  0  0  0
   36.2840   27.9710   40.1090 C   0  0  0  0  0  0  0  0  0  0  0  0
   36.3950   27.4410   38.8300 C   0  0  0  0  0  0  0  0  0  0  0  0
   37.0250   26.2130   38.7530 N   0  0  0  0  0  0  0  0  0  0  0  0
   37.4850   25.6070   39.8620 C   0  0  0  0  0  0  0  0  0  0  0  0
   37.3550   26.1560   41.0680 N   0  0  0  0  0  0  0  0  0  0  0  0
   36.0060   27.9810   37.9940 H   0  0  0  0  0  0  0  0  0  0  0  0
   37.9580   24.6510   39.6630 H   0  0  0  0  0  0  0  0  0  0  0  0
   36.5740   28.0140   42.5150 C   0  0  0  0  0  0  0  0  0  0  0  0
   36.5230   29.1300   42.4140 H   0  0  0  0  0  0  0  0  0  0  0  0
   35.6260   27.7190   43.0100 H   0  0  0  0  0  0  0  0  0  0  0  0
   37.6600   27.6930   43.5130 C   0  0  0  0  0  0  0  0  0  0  0  0
   37.7590   26.5890   43.5550 H   0  0  0  0  0  0  0  0  0  0  0  0
   37.3610   27.9850   44.5580 H   0  0  0  0  0  0  0  0  0  0  0  0
   38.9930   28.2250   43.1480 C   0  0  0  0  0  0  0  0  0  0  0  0
   39.1290   29.5950   42.7900 C   0  0  0  0  0  0  0  0  0  0  0  0
   40.9200   29.7620   42.4350 S   0  0  0  0  0  0  0  0  0  0  0  0
   41.1870   27.9150   42.8370 C   0  0  0  0  0  0  0  0  0  0  0  0
   40.1310   27.5830   43.1040 N   0  0  0  0  0  0  0  0  0  0  0  0
   38.3520   30.3480   42.7430 H   0  0  0  0  0  0  0  0  0  0  0  0
   42.4310   27.3080   42.7670 O   0  0  0  0  0  0  0  0  0  0  0  0
   43.4730   25.5470   41.0830 O   0  0  0  0  0  0  0  0  0  0  0  0
   42.5130   25.6980   42.2500 P   0  0  0  0  0  0  0  0  0  0  0  0
   43.0750   24.7670   43.5500 O   0  0  0  0  0  0  0  0  0  0  0  0
   43.8110   25.2870   43.9660 H   0  0  0  0  0  0  0  0  0  0  0  0
   40.9490   25.1580   41.8410 O   0  0  0  0  0  0  0  0  0  0  0  0
   40.6860   25.5730   40.9650 H   0  0  0  0  0  0  0  0  0  0  0  0
   35.4860   29.5970   40.2660 S   0  0  0  0  0  0  0  0  0  0  0  0
   35.8920   32.5910   41.0670 H   0  0  0  0  0  0  0  0  0  0  0  0
   36.7050   32.1530   40.5800 N   0  0  0  0  0  0  0  0  0  0  0  0
   36.7270   30.8760   40.1550 C   0  0  0  0  0  0  0  0  0  0  0  0
   37.9070   30.6140   39.5690 N   0  0  0  0  0  0  0  0  0  0  0  0
   38.6820   31.7140   39.5970 C   0  0  0  0  0  0  0  0  0  0  0  0
   39.9550   32.0270   39.1600 C   0  0  0  0  0  0  0  0  0  0  0  0
   40.4900   31.2040   38.6650 H   0  0  0  0  0  0  0  0  0  0  0  0
   40.4590   33.2760   39.3520 N   0  0  0  0  0  0  0  0  0  0  0  0
   39.6680   34.1800   39.9810 C   0  0  0  0  0  0  0  0  0  0  0  0
   40.1500   35.1540   40.0930 H   0  0  0  0  0  0  0  0  0  0  0  0
   38.4100   33.9180   40.4300 N   0  0  0  0  0  0  0  0  0  0  0  0
   37.9050   32.6680   40.2380 C   0  0  0  0  0  0  0  0  0  0  0  0
  1  9  1  0  0  0  0
  2 28  1  0  0  0  0
  2  1  2  0  0  0  0
  3  2  1  0  0  0  0
  4  3  2  0  0  0  0
  4  5  1  0  0  0  0
  5  6  2  0  0  0  0
  6  1  1  0  0  0  0
  7  3  1  0  0  0  0
  8  5  1  0  0  0  0
  9 11  1  0  0  0  0
  9 12  1  0  0  0  0
 10  9  1  0  0  0  0
 12 13  1  0  0  0  0
 12 14  1  0  0  0  0
 15 12  1  0  0  0  0
 16 15  2  0  0  0  0
 17 16  1  0  0  0  0
 17 18  1  0  0  0  0
 18 19  2  0  0  0  0
 19 15  1  0  0  0  0
 20 16  1  0  0  0  0
 21 18  1  0  0  0  0
 22 23  2  0  0  0  0
 23 21  1  0  0  0  0
 23 24  1  0  0  0  0
 24 25  1  0  0  0  0
 26 23  1  0  0  0  0
 27 26  1  0  0  0  0
 30 29  1  0  0  0  0
 31 28  1  0  0  0  0
 31 30  1  0  0  0  0
 32 33  1  0  0  0  0
 32 31  2  0  0  0  0
 33 40  1  0  0  0  0
 34 36  1  0  0  0  0
 34 33  2  0  0  0  0
 35 34  1  0  0  0  0
 36 37  2  0  0  0  0
 37 38  1  0  0  0  0
 37 39  1  0  0  0  0
 40 39  2  0  0  0  0
 40 30  1  0  0  0  0
M  END
>  <minimizedAffinity>
-5.96592236

$$$$

 OpenBabel03252507473D

 40 43  0  0  0  0  0  0  0  0999 V2000
   37.0590   30.8370   39.7070 C   0  0  0  0  0  0  0  0  0  0  0  0
   37.3970   29.7050   38.9900 C   0  0  0  0  0  0  0  0  0  0  0  0
   37.3640   28.4290   39.5400 C   0  0  0  0  0  0  0  0  0  0  0  0
   36.9670   28.3680   40.8620 N   0  0  0  0  0  0  0  0  0  0  0  0
   36.6430   29.4860   41.5350 C   0  0  0  0  0  0  0  0  0  0  0  0
   36.6900   30.6880   40.9640 N   0  0  0  0  0  0  0  0  0  0  0  0
   37.6360   27.5860   38.9440 H   0  0  0  0  0  0  0  0  0  0  0  0
   36.3500   29.2980   42.5620 H   0  0  0  0  0  0  0  0  0  0  0  0
   37.1430   32.1150   38.9850 C   0  0  0  0  0  0  0  0  0  0  0  0
   37.9890   32.1520   38.2490 H   0  0  0  0  0  0  0  0  0  0  0  0
   36.2280   32.3220   38.3920 H   0  0  0  0  0  0  0  0  0  0  0  0
   37.2900   33.2950   39.9140 C   0  0  0  0  0  0  0  0  0  0  0  0
   37.0560   32.9440   40.9410 H   0  0  0  0  0  0  0  0  0  0  0  0
   36.5150   34.0850   39.7070 H   0  0  0  0  0  0  0  0  0  0  0  0
   38.6590   33.8600   39.9610 C   0  0  0  0  0  0  0  0  0  0  0  0
   38.8780   35.1190   40.5860 C   0  0  0  0  0  0  0  0  0  0  0  0
   40.6820   35.3770   40.3920 S   0  0  0  0  0  0  0  0  0  0  0  0
   40.8390   33.7070   39.4800 C   0  0  0  0  0  0  0  0  0  0  0  0
   39.7600   33.3410   39.4850 N   0  0  0  0  0  0  0  0  0  0  0  0
   38.1450   35.7610   41.0590 H   0  0  0  0  0  0  0  0  0  0  0  0
   42.0480   33.2260   39.0050 O   0  0  0  0  0  0  0  0  0  0  0  0
   43.1860   31.8290   37.0610 O   0  0  0  0  0  0  0  0  0  0  0  0
   42.2110   32.9580   37.3410 P   0  0  0  0  0  0  0  0  0  0  0  0
   40.6850   32.5300   36.7380 O   0  0  0  0  0  0  0  0  0  0  0  0
   40.2920   31.9000   37.3960 H   0  0  0  0  0  0  0  0  0  0  0  0
   42.7000   34.4040   36.5840 O   0  0  0  0  0  0  0  0  0  0  0  0
   43.6690   34.5640   36.7940 H   0  0  0  0  0  0  0  0  0  0  0  0
   37.9360   29.8470   37.2600 S   0  0  0  0  0  0  0  0  0  0  0  0
   37.9980   27.7060   34.9830 H   0  0  0  0  0  0  0  0  0  0  0  0
   37.0440   28.0280   35.2570 N   0  0  0  0  0  0  0  0  0  0  0  0
   36.8050   28.9430   36.2140 C   0  0  0  0  0  0  0  0  0  0  0  0
   35.4810   29.1430   36.3310 N   0  0  0  0  0  0  0  0  0  0  0  0
   34.8270   28.3630   35.4510 C   0  0  0  0  0  0  0  0  0  0  0  0
   33.4990   28.1500   35.1290 C   0  0  0  0  0  0  0  0  0  0  0  0
   32.7810   28.7460   35.7100 H   0  0  0  0  0  0  0  0  0  0  0  0
   33.1630   27.2610   34.1560 N   0  0  0  0  0  0  0  0  0  0  0  0
   34.1720   26.6050   33.5320 C   0  0  0  0  0  0  0  0  0  0  0  0
   33.8120   25.9120   32.7680 H   0  0  0  0  0  0  0  0  0  0  0  0
   35.4920   26.7790   33.8150 N   0  0  0  0  0  0  0  0  0  0  0  0
   35.8290   27.6710   34.7880 C   0  0  0  0  0  0  0  0  0  0  0  0
  1  6  1  0  0  0  0
  2  3  1  0  0  0  0
  2  1  2  0  0  0  0
  3  4  2  0  0  0  0
  4  5  1  0  0  0  0
  5  8  1  0  0  0  0
  6  5  2  0  0  0  0
  7  3  1  0  0  0  0
  9  1  1  0  0  0  0
  9 12  1  0  0  0  0
 10  9  1  0  0  0  0
 11  9  1  0  0  0  0
 12 15  1  0  0  0  0
 12 13  1  0  0  0  0
 14 12  1  0  0  0  0
 15 16  2  0  0  0  0
 16 20  1  0  0  0  0
 17 16  1  0  0  0  0
 18 19  2  0  0  0  0
 18 17  1  0  0  0  0
 19 15  1  0  0  0  0
 21 18  1  0  0  0  0
 22 23  2  0  0  0  0
 23 21  1  0  0  0  0
 24 23  1  0  0  0  0
 24 25  1  0  0  0  0
 26 27  1  0  0  0  0
 26 23  1  0  0  0  0
 28  2  1  0  0  0  0
 29 30  1  0  0  0  0
 30 31  1  0  0  0  0
 31 32  2  0  0  0  0
 31 28  1  0  0  0  0
 33 32  1  0  0  0  0
 34 33  1  0  0  0  0
 34 35  1  0  0  0  0
 36 34  2  0  0  0  0
 37 39  2  0  0  0  0
 37 36  1  0  0  0  0
 38 37  1  0  0  0  0
 39 40  1  0  0  0  0
 40 30  1  0  0  0  0
 40 33  2  0  0  0  0
M  END
>  <minimizedAffinity>
-5.95713425

$$$$

 OpenBabel03252507473D

 40 43  0  0  0  0  0  0  0  0999 V2000
   37.2000   31.3490   39.1300 C   0  0  0  0  0  0  0  0  0  0  0  0
   36.8280   30.0540   39.4330 C   0  0  0  0  0  0  0  0  0  0  0  0
   36.6970   29.0640   38.4670 C   0  0  0  0  0  0  0  0  0  0  0  0
   36.9660   29.4650   37.1720 N   0  0  0  0  0  0  0  0  0  0  0  0
   37.3270   30.7330   36.9070 C   0  0  0  0  0  0  0  0  0  0  0  0
   37.4390   31.6470   37.8680 N   0  0  0  0  0  0  0  0  0  0  0  0
   36.4060   28.0770   38.7530 H   0  0  0  0  0  0  0  0  0  0  0  0
   37.5080   30.9150   35.8530 H   0  0  0  0  0  0  0  0  0  0  0  0
   37.2960   32.2820   40.2620 C   0  0  0  0  0  0  0  0  0  0  0  0
   36.3820   32.2820   40.9130 H   0  0  0  0  0  0  0  0  0  0  0  0
   38.1400   32.0340   40.9390 H   0  0  0  0  0  0  0  0  0  0  0  0
   37.5450   33.7040   39.8210 C   0  0  0  0  0  0  0  0  0  0  0  0
   36.8680   34.3590   40.4080 H   0  0  0  0  0  0  0  0  0  0  0  0
   37.2320   33.8670   38.7530 H   0  0  0  0  0  0  0  0  0  0  0  0
   38.9240   34.1830   40.0750 C   0  0  0  0  0  0  0  0  0  0  0  0
   39.1660   35.5760   40.2270 C   0  0  0  0  0  0  0  0  0  0  0  0
   40.9750   35.6600   40.5160 S   0  0  0  0  0  0  0  0  0  0  0  0
   41.1000   33.7600   40.3800 C   0  0  0  0  0  0  0  0  0  0  0  0
   40.0150   33.4720   40.1870 N   0  0  0  0  0  0  0  0  0  0  0  0
   38.4460   36.3830   40.1800 H   0  0  0  0  0  0  0  0  0  0  0  0
   42.2990   33.0790   40.5120 O   0  0  0  0  0  0  0  0  0  0  0  0
   43.5000   31.0480   41.7200 O   0  0  0  0  0  0  0  0  0  0  0  0
   42.5980   32.2470   41.9550 P   0  0  0  0  0  0  0  0  0  0  0  0
   43.3730   33.3190   43.0160 O   0  0  0  0  0  0  0  0  0  0  0  0
   44.0430   33.8100   42.4740 H   0  0  0  0  0  0  0  0  0  0  0  0
   41.1150   31.7800   42.6540 O   0  0  0  0  0  0  0  0  0  0  0  0
   40.7400   31.0120   42.1260 H   0  0  0  0  0  0  0  0  0  0  0  0
   36.4620   29.5870   41.1520 S   0  0  0  0  0  0  0  0  0  0  0  0
   39.4740   30.3660   41.4540 H   0  0  0  0  0  0  0  0  0  0  0  0
   39.1990   29.4820   41.9370 N   0  0  0  0  0  0  0  0  0  0  0  0
   37.9510   28.9770   41.9260 C   0  0  0  0  0  0  0  0  0  0  0  0
   37.9180   27.8360   42.6340 N   0  0  0  0  0  0  0  0  0  0  0  0
   39.1440   27.5700   43.1220 C   0  0  0  0  0  0  0  0  0  0  0  0
   39.6920   26.5660   43.8980 C   0  0  0  0  0  0  0  0  0  0  0  0
   38.9870   25.7810   44.2060 H   0  0  0  0  0  0  0  0  0  0  0  0
   41.0120   26.5950   44.2260 N   0  0  0  0  0  0  0  0  0  0  0  0
   41.7480   27.6370   43.7650 C   0  0  0  0  0  0  0  0  0  0  0  0
   42.7940   27.5810   44.0750 H   0  0  0  0  0  0  0  0  0  0  0  0
   41.2530   28.6480   43.0000 N   0  0  0  0  0  0  0  0  0  0  0  0
   39.9320   28.6180   42.6720 C   0  0  0  0  0  0  0  0  0  0  0  0
  1  2  1  0  0  0  0
  1  9  1  0  0  0  0
  2 28  1  0  0  0  0
  3  7  1  0  0  0  0
  3  2  2  0  0  0  0
  4  3  1  0  0  0  0
  5  4  2  0  0  0  0
  5  6  1  0  0  0  0
  6  1  2  0  0  0  0
  8  5  1  0  0  0  0
  9 10  1  0  0  0  0
  9 11  1  0  0  0  0
 12 15  1  0  0  0  0
 12  9  1  0  0  0  0
 12 13  1  0  0  0  0
 14 12  1  0  0  0  0
 15 19  1  0  0  0  0
 15 16  2  0  0  0  0
 16 17  1  0  0  0  0
 18 21  1  0  0  0  0
 18 17  1  0  0  0  0
 19 18  2  0  0  0  0
 20 16  1  0  0  0  0
 21 23  1  0  0  0  0
 22 23  2  0  0  0  0
 23 26  1  0  0  0  0
 23 24  1  0  0  0  0
 25 24  1  0  0  0  0
 27 26  1  0  0  0  0
 28 31  1  0  0  0  0
 29 30  1  0  0  0  0
 30 40  1  0  0  0  0
 31 30  1  0  0  0  0
 31 32  2  0  0  0  0
 32 33  1  0  0  0  0
 33 34  1  0  0  0  0
 34 35  1  0  0  0  0
 34 36  2  0  0  0  0
 37 38  1  0  0  0  0
 37 36  1  0  0  0  0
 39 37  2  0  0  0  0
 40 39  1  0  0  0  0
 40 33  2  0  0  0  0
M  END
>  <minimizedAffinity>
-5.92320824

$$$$

 OpenBabel03252507473D

 40 43  0  0  0  0  0  0  0  0999 V2000
   38.4130   28.2560   42.1580 C   0  0  0  0  0  0  0  0  0  0  0  0
   37.3360   27.7840   41.4320 C   0  0  0  0  0  0  0  0  0  0  0  0
   37.2970   26.5030   40.8940 C   0  0  0  0  0  0  0  0  0  0  0  0
   38.4150   25.7270   41.1360 N   0  0  0  0  0  0  0  0  0  0  0  0
   39.4470   26.2140   41.8470 C   0  0  0  0  0  0  0  0  0  0  0  0
   39.4390   27.4490   42.3420 N   0  0  0  0  0  0  0  0  0  0  0  0
   36.4410   26.1850   40.3390 H   0  0  0  0  0  0  0  0  0  0  0  0
   40.2600   25.5040   41.9630 H   0  0  0  0  0  0  0  0  0  0  0  0
   38.3050   29.6320   42.6630 C   0  0  0  0  0  0  0  0  0  0  0  0
   37.4160   30.1830   42.2580 H   0  0  0  0  0  0  0  0  0  0  0  0
   38.1940   29.6660   43.7670 H   0  0  0  0  0  0  0  0  0  0  0  0
   39.5330   30.4570   42.3620 C   0  0  0  0  0  0  0  0  0  0  0  0
   40.3120   29.7670   41.9760 H   0  0  0  0  0  0  0  0  0  0  0  0
   39.9830   30.8880   43.2990 H   0  0  0  0  0  0  0  0  0  0  0  0
   39.3260   31.4900   41.3200 C   0  0  0  0  0  0  0  0  0  0  0  0
   38.0040   31.8710   40.9610 C   0  0  0  0  0  0  0  0  0  0  0  0
   38.2690   33.1430   39.6680 S   0  0  0  0  0  0  0  0  0  0  0  0
   40.1600   32.9410   39.8340 C   0  0  0  0  0  0  0  0  0  0  0  0
   40.2350   32.1410   40.6420 N   0  0  0  0  0  0  0  0  0  0  0  0
   37.0730   31.4920   41.3630 H   0  0  0  0  0  0  0  0  0  0  0  0
   41.0590   33.6730   39.0760 O   0  0  0  0  0  0  0  0  0  0  0  0
   42.5620   31.8360   37.8970 O   0  0  0  0  0  0  0  0  0  0  0  0
   41.6260   33.0010   37.6290 P   0  0  0  0  0  0  0  0  0  0  0  0
   40.2830   32.4400   36.7600 O   0  0  0  0  0  0  0  0  0  0  0  0
   39.6920   31.9940   37.4210 H   0  0  0  0  0  0  0  0  0  0  0  0
   42.3910   34.2140   36.7080 O   0  0  0  0  0  0  0  0  0  0  0  0
   43.2820   34.4180   37.1250 H   0  0  0  0  0  0  0  0  0  0  0  0
   35.9020   28.8560   41.1240 S   0  0  0  0  0  0  0  0  0  0  0  0
   33.6690   28.3080   39.0060 H   0  0  0  0  0  0  0  0  0  0  0  0
   34.5590   28.6920   38.6160 N   0  0  0  0  0  0  0  0  0  0  0  0
   35.6370   28.9930   39.3630 C   0  0  0  0  0  0  0  0  0  0  0  0
   36.6180   29.4640   38.5740 N   0  0  0  0  0  0  0  0  0  0  0  0
   36.2010   29.4790   37.2940 C   0  0  0  0  0  0  0  0  0  0  0  0
   36.7610   29.8500   36.0860 C   0  0  0  0  0  0  0  0  0  0  0  0
   37.7930   30.2250   36.1490 H   0  0  0  0  0  0  0  0  0  0  0  0
   36.0460   29.7370   34.9340 N   0  0  0  0  0  0  0  0  0  0  0  0
   34.7820   29.2540   35.0270 C   0  0  0  0  0  0  0  0  0  0  0  0
   34.2820   29.1970   34.0570 H   0  0  0  0  0  0  0  0  0  0  0  0
   34.1880   28.8770   36.1930 N   0  0  0  0  0  0  0  0  0  0  0  0
   34.9040   28.9900   37.3450 C   0  0  0  0  0  0  0  0  0  0  0  0
  1  6  1  0  0  0  0
  1  9  1  0  0  0  0
  2  1  2  0  0  0  0
  3  4  2  0  0  0  0
  3  2  1  0  0  0  0
  4  5  1  0  0  0  0
  5  8  1  0  0  0  0
  5  6  2  0  0  0  0
  7  3  1  0  0  0  0
  9 11  1  0  0  0  0
 10  9  1  0  0  0  0
 12  9  1  0  0  0  0
 12 14  1  0  0  0  0
 13 12  1  0  0  0  0
 15 12  1  0  0  0  0
 16 15  2  0  0  0  0
 16 20  1  0  0  0  0
 17 18  1  0  0  0  0
 17 16  1  0  0  0  0
 18 19  2  0  0  0  0
 19 15  1  0  0  0  0
 21 18  1  0  0  0  0
 23 22  2  0  0  0  0
 23 21  1  0  0  0  0
 24 25  1  0  0  0  0
 24 23  1  0  0  0  0
 26 27  1  0  0  0  0
 26 23  1  0  0  0  0
 28  2  1  0  0  0  0
 30 29  1  0  0  0  0
 30 31  1  0  0  0  0
 31 28  1  0  0  0  0
 32 31  2  0  0  0  0
 33 40  1  0  0  0  0
 33 32  1  0  0  0  0
 34 35  1  0  0  0  0
 34 33  2  0  0  0  0
 36 37  2  0  0  0  0
 36 34  1  0  0  0  0
 37 39  1  0  0  0  0
 38 37  1  0  0  0  0
 39 40  2  0  0  0  0
 40 30  1  0  0  0  0
M  END
>  <minimizedAffinity>
-5.92290831

$$$$

 OpenBabel03252507473D

 40 43  0  0  0  0  0  0  0  0999 V2000
   36.5280   30.5660   39.1260 C   0  0  0  0  0  0  0  0  0  0  0  0
   37.1930   31.6810   38.6520 C   0  0  0  0  0  0  0  0  0  0  0  0
   37.6340   31.7910   37.3390 C   0  0  0  0  0  0  0  0  0  0  0  0
   37.3610   30.7030   36.5320 N   0  0  0  0  0  0  0  0  0  0  0  0
   36.7120   29.6320   37.0200 C   0  0  0  0  0  0  0  0  0  0  0  0
   36.3090   29.5720   38.2880 N   0  0  0  0  0  0  0  0  0  0  0  0
   38.1440   32.6750   37.0210 H   0  0  0  0  0  0  0  0  0  0  0  0
   36.5620   28.8490   36.2840 H   0  0  0  0  0  0  0  0  0  0  0  0
   36.1240   30.5990   40.5390 C   0  0  0  0  0  0  0  0  0  0  0  0
   36.8990   31.0570   41.2090 H   0  0  0  0  0  0  0  0  0  0  0  0
   35.2050   31.2000   40.6980 H   0  0  0  0  0  0  0  0  0  0  0  0
   35.8020   29.2280   41.0810 C   0  0  0  0  0  0  0  0  0  0  0  0
   35.4640   28.6030   40.2280 H   0  0  0  0  0  0  0  0  0  0  0  0
   34.9160   29.2540   41.7740 H   0  0  0  0  0  0  0  0  0  0  0  0
   36.9590   28.5290   41.6870 C   0  0  0  0  0  0  0  0  0  0  0  0
   37.5360   29.0350   42.8840 C   0  0  0  0  0  0  0  0  0  0  0  0
   38.8980   27.8560   43.2250 S   0  0  0  0  0  0  0  0  0  0  0  0
   38.4490   26.8600   41.6600 C   0  0  0  0  0  0  0  0  0  0  0  0
   37.5640   27.4530   41.2570 N   0  0  0  0  0  0  0  0  0  0  0  0
   37.2340   29.9080   43.4480 H   0  0  0  0  0  0  0  0  0  0  0  0
   39.1420   25.7240   41.2730 O   0  0  0  0  0  0  0  0  0  0  0  0
   37.1960   24.2880   42.3580 O   0  0  0  0  0  0  0  0  0  0  0  0
   38.6350   24.2260   41.8770 P   0  0  0  0  0  0  0  0  0  0  0  0
   38.7470   23.0980   40.6170 O   0  0  0  0  0  0  0  0  0  0  0  0
   38.3960   23.5510   39.8070 H   0  0  0  0  0  0  0  0  0  0  0  0
   39.6860   23.7390   43.1270 O   0  0  0  0  0  0  0  0  0  0  0  0
   39.4920   24.2910   43.9430 H   0  0  0  0  0  0  0  0  0  0  0  0
   37.5470   33.0740   39.7650 S   0  0  0  0  0  0  0  0  0  0  0  0
   39.8850   34.6070   38.3660 H   0  0  0  0  0  0  0  0  0  0  0  0
   40.1710   34.0140   39.1760 N   0  0  0  0  0  0  0  0  0  0  0  0
   39.3160   33.2780   39.9080 C   0  0  0  0  0  0  0  0  0  0  0  0
   39.9870   32.6290   40.8740 N   0  0  0  0  0  0  0  0  0  0  0  0
   41.2970   32.9280   40.7930 C   0  0  0  0  0  0  0  0  0  0  0  0
   42.4290   32.5690   41.5010 C   0  0  0  0  0  0  0  0  0  0  0  0
   42.2530   31.8730   42.3350 H   0  0  0  0  0  0  0  0  0  0  0  0
   43.6450   33.0660   41.1500 N   0  0  0  0  0  0  0  0  0  0  0  0
   43.6920   33.9160   40.0940 C   0  0  0  0  0  0  0  0  0  0  0  0
   44.7050   34.2660   39.8820 H   0  0  0  0  0  0  0  0  0  0  0  0
   42.6060   34.2990   39.3680 N   0  0  0  0  0  0  0  0  0  0  0  0
   41.3890   33.8000   39.7200 C   0  0  0  0  0  0  0  0  0  0  0  0
  1  9  1  0  0  0  0
  2  1  1  0  0  0  0
  2 28  1  0  0  0  0
  3  2  2  0  0  0  0
  4  5  2  0  0  0  0
  4  3  1  0  0  0  0
  5  6  1  0  0  0  0
  6  1  2  0  0  0  0
  7  3  1  0  0  0  0
  8  5  1  0  0  0  0
  9 11  1  0  0  0  0
  9 12  1  0  0  0  0
  9 10  1  0  0  0  0
 12 15  1  0  0  0  0
 12 14  1  0  0  0  0
 13 12  1  0  0  0  0
 15 16  2  0  0  0  0
 16 17  1  0  0  0  0
 16 20  1  0  0  0  0
 18 17  1  0  0  0  0
 19 18  2  0  0  0  0
 19 15  1  0  0  0  0
 21 18  1  0  0  0  0
 21 23  1  0  0  0  0
 23 22  2  0  0  0  0
 23 26  1  0  0  0  0
 24 23  1  0  0  0  0
 25 24  1  0  0  0  0
 26 27  1  0  0  0  0
 28 31  1  0  0  0  0
 29 30  1  0  0  0  0
 30 40  1  0  0  0  0
 30 31  1  0  0  0  0
 31 32  2  0  0  0  0
 33 32  1  0  0  0  0
 33 34  1  0  0  0  0
 34 35  1  0  0  0  0
 36 34  2  0  0  0  0
 37 36  1  0  0  0  0
 38 37  1  0  0  0  0
 39 40  1  0  0  0  0
 39 37  2  0  0  0  0
 40 33  2  0  0  0  0
M  END
>  <minimizedAffinity>
-5.88655376

$$$$

 OpenBabel03252507473D

 40 43  0  0  0  0  0  0  0  0999 V2000
   37.6690   28.2090   40.6360 C   0  0  0  0  0  0  0  0  0  0  0  0
   37.1050   29.2360   39.9020 C   0  0  0  0  0  0  0  0  0  0  0  0
   37.0440   29.2220   38.5140 C   0  0  0  0  0  0  0  0  0  0  0  0
   37.5880   28.1030   37.9110 N   0  0  0  0  0  0  0  0  0  0  0  0
   38.1290   27.1200   38.6510 C   0  0  0  0  0  0  0  0  0  0  0  0
   38.1650   27.1790   39.9800 N   0  0  0  0  0  0  0  0  0  0  0  0
   36.5980   30.0410   37.9930 H   0  0  0  0  0  0  0  0  0  0  0  0
   38.5200   26.3010   38.0550 H   0  0  0  0  0  0  0  0  0  0  0  0
   37.6580   28.3700   42.0970 C   0  0  0  0  0  0  0  0  0  0  0  0
   38.2980   29.2200   42.4530 H   0  0  0  0  0  0  0  0  0  0  0  0
   36.6420   28.5820   42.4870 H   0  0  0  0  0  0  0  0  0  0  0  0
   38.1090   27.1240   42.8190 C   0  0  0  0  0  0  0  0  0  0  0  0
   38.0000   26.2720   42.1160 H   0  0  0  0  0  0  0  0  0  0  0  0
   37.4210   26.8680   43.6730 H   0  0  0  0  0  0  0  0  0  0  0  0
   39.5290   27.1480   43.2390 C   0  0  0  0  0  0  0  0  0  0  0  0
   40.1050   25.9940   43.8380 C   0  0  0  0  0  0  0  0  0  0  0  0
   41.8330   26.5080   44.1680 S   0  0  0  0  0  0  0  0  0  0  0  0
   41.4780   28.2310   43.4280 C   0  0  0  0  0  0  0  0  0  0  0  0
   40.3820   28.1330   43.1340 N   0  0  0  0  0  0  0  0  0  0  0  0
   39.6260   25.0450   44.0430 H   0  0  0  0  0  0  0  0  0  0  0  0
   42.4410   29.2250   43.3510 O   0  0  0  0  0  0  0  0  0  0  0  0
   42.4360   30.7970   41.2180 O   0  0  0  0  0  0  0  0  0  0  0  0
   42.0100   30.7150   42.6730 P   0  0  0  0  0  0  0  0  0  0  0  0
   40.3220   30.8500   42.7610 O   0  0  0  0  0  0  0  0  0  0  0  0
   39.9580   29.9630   42.5050 H   0  0  0  0  0  0  0  0  0  0  0  0
   42.6970   31.9730   43.5940 O   0  0  0  0  0  0  0  0  0  0  0  0
   43.6820   32.0110   43.3990 H   0  0  0  0  0  0  0  0  0  0  0  0
   36.4260   30.6950   40.7470 S   0  0  0  0  0  0  0  0  0  0  0  0
   36.2970   33.8100   40.5230 H   0  0  0  0  0  0  0  0  0  0  0  0
   37.2520   33.4030   40.4250 N   0  0  0  0  0  0  0  0  0  0  0  0
   37.5180   32.0850   40.4900 C   0  0  0  0  0  0  0  0  0  0  0  0
   38.8360   31.8790   40.3260 N   0  0  0  0  0  0  0  0  0  0  0  0
   39.4590   33.0590   40.1490 C   0  0  0  0  0  0  0  0  0  0  0  0
   40.7680   33.4530   39.9410 C   0  0  0  0  0  0  0  0  0  0  0  0
   41.4990   32.6320   39.9040 H   0  0  0  0  0  0  0  0  0  0  0  0
   41.0730   34.7700   39.7970 N   0  0  0  0  0  0  0  0  0  0  0  0
   40.0530   35.6600   39.8670 C   0  0  0  0  0  0  0  0  0  0  0  0
   40.3870   36.6930   39.7420 H   0  0  0  0  0  0  0  0  0  0  0  0
   38.7500   35.3210   40.0720 N   0  0  0  0  0  0  0  0  0  0  0  0
   38.4450   34.0010   40.2150 C   0  0  0  0  0  0  0  0  0  0  0  0
  1  9  1  0  0  0  0
  2  1  2  0  0  0  0
  2 28  1  0  0  0  0
  3  2  1  0  0  0  0
  4  3  2  0  0  0  0
  4  5  1  0  0  0  0
  5  6  2  0  0  0  0
  6  1  1  0  0  0  0
  7  3  1  0  0  0  0
  8  5  1  0  0  0  0
  9 10  1  0  0  0  0
  9 11  1  0  0  0  0
  9 12  1  0  0  0  0
 12 15  1  0  0  0  0
 12 14  1  0  0  0  0
 13 12  1  0  0  0  0
 15 16  2  0  0  0  0
 16 20  1  0  0  0  0
 16 17  1  0  0  0  0
 18 17  1  0  0  0  0
 19 15  1  0  0  0  0
 19 18  2  0  0  0  0
 21 18  1  0  0  0  0
 22 23  2  0  0  0  0
 23 24  1  0  0  0  0
 23 21  1  0  0  0  0
 23 26  1  0  0  0  0
 25 24  1  0  0  0  0
 27 26  1  0  0  0  0
 30 31  1  0  0  0  0
 30 29  1  0  0  0  0
 31 28  1  0  0  0  0
 32 31  2  0  0  0  0
 33 40  1  0  0  0  0
 33 32  1  0  0  0  0
 34 33  2  0  0  0  0
 35 34  1  0  0  0  0
 36 37  2  0  0  0  0
 36 34  1  0  0  0  0
 37 39  1  0  0  0  0
 38 37  1  0  0  0  0
 39 40  2  0  0  0  0
 40 30  1  0  0  0  0
M  END
>  <minimizedAffinity>
-5.87386417

$$$$

 OpenBabel03252507473D

 40 43  0  0  0  0  0  0  0  0999 V2000
   36.5560   30.3060   38.6070 C   0  0  0  0  0  0  0  0  0  0  0  0
   36.3500   30.2730   39.9730 C   0  0  0  0  0  0  0  0  0  0  0  0
   36.7160   31.3180   40.8130 C   0  0  0  0  0  0  0  0  0  0  0  0
   37.3060   32.4000   40.1860 N   0  0  0  0  0  0  0  0  0  0  0  0
   37.4930   32.4030   38.8550 C   0  0  0  0  0  0  0  0  0  0  0  0
   37.1240   31.3770   38.0910 N   0  0  0  0  0  0  0  0  0  0  0  0
   36.5360   31.2440   41.8630 H   0  0  0  0  0  0  0  0  0  0  0  0
   37.9650   33.3100   38.4910 H   0  0  0  0  0  0  0  0  0  0  0  0
   36.1130   29.1240   37.8520 C   0  0  0  0  0  0  0  0  0  0  0  0
   36.9530   28.4290   37.5870 H   0  0  0  0  0  0  0  0  0  0  0  0
   35.3910   28.5080   38.4260 H   0  0  0  0  0  0  0  0  0  0  0  0
   35.3980   29.4880   36.5750 C   0  0  0  0  0  0  0  0  0  0  0  0
   36.0470   29.1810   35.7290 H   0  0  0  0  0  0  0  0  0  0  0  0
   35.2990   30.6030   36.4580 H   0  0  0  0  0  0  0  0  0  0  0  0
   34.1020   28.7950   36.3880 C   0  0  0  0  0  0  0  0  0  0  0  0
   34.0830   27.4690   35.8750 C   0  0  0  0  0  0  0  0  0  0  0  0
   32.2960   27.0590   35.8320 S   0  0  0  0  0  0  0  0  0  0  0  0
   31.8690   28.7850   36.5280 C   0  0  0  0  0  0  0  0  0  0  0  0
   32.9030   29.2490   36.6410 N   0  0  0  0  0  0  0  0  0  0  0  0
   34.9280   26.8580   35.5840 H   0  0  0  0  0  0  0  0  0  0  0  0
   30.5660   29.1910   36.7700 O   0  0  0  0  0  0  0  0  0  0  0  0
   30.3380   31.6360   37.7680 O   0  0  0  0  0  0  0  0  0  0  0  0
   30.2640   30.1610   38.1240 P   0  0  0  0  0  0  0  0  0  0  0  0
   28.6990   29.8060   38.6730 O   0  0  0  0  0  0  0  0  0  0  0  0
   28.1300   29.7370   37.8630 H   0  0  0  0  0  0  0  0  0  0  0  0
   31.3680   29.7640   39.3590 O   0  0  0  0  0  0  0  0  0  0  0  0
   32.2680   30.1400   39.1170 H   0  0  0  0  0  0  0  0  0  0  0  0
   35.5920   28.8140   40.7480 S   0  0  0  0  0  0  0  0  0  0  0  0
   37.8100   29.2310   42.9100 H   0  0  0  0  0  0  0  0  0  0  0  0
   37.7420   28.2600   42.5340 N   0  0  0  0  0  0  0  0  0  0  0  0
   36.8530   27.8780   41.5980 C   0  0  0  0  0  0  0  0  0  0  0  0
   37.0160   26.5720   41.3240 N   0  0  0  0  0  0  0  0  0  0  0  0
   38.0160   26.0740   42.0750 C   0  0  0  0  0  0  0  0  0  0  0  0
   38.6090   24.8330   42.2170 C   0  0  0  0  0  0  0  0  0  0  0  0
   38.1890   24.0430   41.5770 H   0  0  0  0  0  0  0  0  0  0  0  0
   39.6320   24.6580   43.0950 N   0  0  0  0  0  0  0  0  0  0  0  0
   40.0330   25.7370   43.8120 C   0  0  0  0  0  0  0  0  0  0  0  0
   40.8580   25.5070   44.4910 H   0  0  0  0  0  0  0  0  0  0  0  0
   39.4800   26.9770   43.7080 N   0  0  0  0  0  0  0  0  0  0  0  0
   38.4560   27.1520   42.8280 C   0  0  0  0  0  0  0  0  0  0  0  0
  1  2  1  0  0  0  0
  2 28  1  0  0  0  0
  2  3  2  0  0  0  0
  3  7  1  0  0  0  0
  4  3  1  0  0  0  0
  5  4  2  0  0  0  0
  6  1  2  0  0  0  0
  6  5  1  0  0  0  0
  8  5  1  0  0  0  0
  9 11  1  0  0  0  0
  9  1  1  0  0  0  0
 10  9  1  0  0  0  0
 12  9  1  0  0  0  0
 13 12  1  0  0  0  0
 14 12  1  0  0  0  0
 15 12  1  0  0  0  0
 15 19  1  0  0  0  0
 16 15  2  0  0  0  0
 17 16  1  0  0  0  0
 17 18  1  0  0  0  0
 18 19  2  0  0  0  0
 18 21  1  0  0  0  0
 20 16  1  0  0  0  0
 21 23  1  0  0  0  0
 22 23  2  0  0  0  0
 23 24  1  0  0  0  0
 23 26  1  0  0  0  0
 25 24  1  0  0  0  0
 27 26  1  0  0  0  0
 28 31  1  0  0  0  0
 30 40  1  0  0  0  0
 30 29  1  0  0  0  0
 31 30  1  0  0  0  0
 32 31  2  0  0  0  0
 32 33  1  0  0  0  0
 33 34  2  0  0  0  0
 33 40  1  0  0  0  0
 34 36  1  0  0  0  0
 35 34  1  0  0  0  0
 36 37  2  0  0  0  0
 37 38  1  0  0  0  0
 39 37  1  0  0  0  0
 40 39  2  0  0  0  0
M  END
>  <minimizedAffinity>
-5.77167654

$$$$
