
 OpenBabel03252503463D

 47 51  0  0  1  0  0  0  0  0999 V2000
   45.9530   35.5770   42.7350 C   0  0  0  0  0  0  0  0  0  0  0  0
   46.9510   35.4850   42.2530 H   0  0  0  0  0  0  0  0  0  0  0  0
   45.8760   36.6500   43.0180 H   0  0  0  0  0  0  0  0  0  0  0  0
   44.9040   35.1930   41.7810 C   0  0  0  0  0  0  0  0  0  0  0  0
   43.6050   35.6490   41.8040 C   0  0  0  0  0  0  0  0  0  0  0  0
   42.6590   35.2510   40.8920 C   0  0  0  0  0  0  0  0  0  0  0  0
   43.0250   34.3620   39.9160 C   0  0  0  0  0  0  0  0  0  0  0  0
   44.3340   33.8850   39.8690 C   0  0  0  0  0  0  0  0  0  0  0  0
   45.2840   34.2990   40.8030 C   0  0  0  0  0  0  0  0  0  0  0  0
   43.4060   36.3480   42.6110 H   0  0  0  0  0  0  0  0  0  0  0  0
   41.6590   35.6550   40.9760 H   0  0  0  0  0  0  0  0  0  0  0  0
   42.2380   34.0890   39.2300 H   0  0  0  0  0  0  0  0  0  0  0  0
   44.4510   33.1910   39.0360 H   0  0  0  0  0  0  0  0  0  0  0  0
   46.5170   33.6660   40.4920 N   0  0  0  0  0  0  0  0  0  0  0  0
   47.6090   34.1740   39.8470 C   0  0  0  0  0  0  0  0  0  0  0  0
   47.7060   35.1710   39.4620 H   0  0  0  0  0  0  0  0  0  0  0  0
   48.5850   33.2860   39.7300 N   0  0  0  0  0  0  0  0  0  0  0  0
   48.1350   32.1590   40.3100 C   0  0  0  0  0  0  0  0  0  0  0  0
   48.6430   30.8930   40.5240 C   0  0  0  0  0  0  0  0  0  0  0  0
   49.6430   30.6630   40.1730 H   0  0  0  0  0  0  0  0  0  0  0  0
   47.9400   29.9340   41.1550 N   0  0  0  0  0  0  0  0  0  0  0  0
   46.6930   30.1730   41.6110 C   0  0  0  0  0  0  0  0  0  0  0  0
   46.2160   29.3460   42.0980 H   0  0  0  0  0  0  0  0  0  0  0  0
   46.1630   31.4130   41.4150 N   0  0  0  0  0  0  0  0  0  0  0  0
   46.8420   32.3730   40.7940 C   0  0  0  0  0  0  0  0  0  0  0  0
   45.0080   34.8860   44.9130 C   0  0  0  0  0  0  0  0  0  0  0  0
   45.9310   34.7010   43.8890 C   0  0  0  0  0  0  0  0  0  0  0  0
   46.8250   33.6400   44.0320 C   0  0  0  0  0  0  0  0  0  0  0  0
   46.7930   32.8270   45.1120 N   0  0  0  0  0  0  0  0  0  0  0  0
   45.8750   33.0410   46.0880 C   0  0  0  0  0  0  0  0  0  0  0  0
   44.9820   34.0660   45.9970 N   0  0  0  0  0  0  0  0  0  0  0  0
   44.3240   35.7110   44.7900 H   0  0  0  0  0  0  0  0  0  0  0  0
   47.5880   33.3960   43.3420 H   0  0  0  0  0  0  0  0  0  0  0  0
   47.3200   31.8100   47.6950 C   0  0  2  0  0  0  0  0  0  0  0  0
   45.8690   32.1380   47.2360 C   0  0  1  0  0  0  0  0  0  0  0  0
   45.3960   32.6550   48.3940 O   0  0  0  0  0  0  0  0  0  0  0  0
   45.7740   31.8240   49.4090 C   0  0  0  0  0  0  0  0  0  0  0  0
   46.9390   30.9870   48.9310 C   0  0  2  0  0  0  0  0  0  0  0  0
   47.8410   31.2080   46.9310 H   0  0  0  0  0  0  0  0  0  0  0  0
   45.3820   31.1560   47.0300 H   0  0  0  0  0  0  0  0  0  0  0  0
   44.9180   31.2090   49.7530 H   0  0  0  0  0  0  0  0  0  0  0  0
   46.0720   32.4400   50.2830 H   0  0  0  0  0  0  0  0  0  0  0  0
   46.5640   30.0000   48.6560 H   0  0  0  0  0  0  0  0  0  0  0  0
   47.9430   32.9250   48.1120 O   0  0  0  0  0  0  0  0  0  0  0  0
   48.7680   33.1680   47.6400 H   0  0  0  0  0  0  0  0  0  0  0  0
   47.9590   30.8850   49.8360 O   0  0  0  0  0  0  0  0  0  0  0  0
   47.5690   30.7070   50.7380 H   0  0  0  0  0  0  0  0  0  0  0  0
  1  3  1  0  0  0  0
  1 27  1  0  0  0  0
  2  1  1  0  0  0  0
  4  5  1  0  0  0  0
  4  1  1  0  0  0  0
  5 10  1  0  0  0  0
  6 11  1  0  0  0  0
  6  5  2  0  0  0  0
  7  6  1  0  0  0  0
  8  7  2  0  0  0  0
  8  9  1  0  0  0  0
  9  4  2  0  0  0  0
 12  7  1  0  0  0  0
 13  8  1  0  0  0  0
 14 25  1  0  0  0  0
 14  9  1  0  0  0  0
 15 14  1  0  0  0  0
 16 15  1  0  0  0  0
 17 15  2  0  0  0  0
 17 18  1  0  0  0  0
 18 19  2  0  0  0  0
 18 25  1  0  0  0  0
 19 21  1  0  0  0  0
 20 19  1  0  0  0  0
 21 22  2  0  0  0  0
 22 23  1  0  0  0  0
 24 22  1  0  0  0  0
 25 24  2  0  0  0  0
 26 31  1  0  0  0  0
 27 28  1  0  0  0  0
 27 26  2  0  0  0  0
 28 29  2  0  0  0  0
 29 30  1  0  0  0  0
 30 35  1  0  0  0  0
 31 30  2  0  0  0  0
 32 26  1  0  0  0  0
 33 28  1  0  0  0  0
 34 39  1  6  0  0  0
 34 44  1  0  0  0  0
 34 38  1  0  0  0  0
 35 40  1  6  0  0  0
 35 34  1  0  0  0  0
 35 36  1  0  0  0  0
 36 37  1  0  0  0  0
 37 41  1  0  0  0  0
 37 42  1  0  0  0  0
 38 43  1  6  0  0  0
 38 37  1  0  0  0  0
 38 46  1  0  0  0  0
 45 44  1  0  0  0  0
 46 47  1  0  0  0  0
M  END
>  <minimizedAffinity>
-7.00917244

>  <minimizedRMSD>
0.898504078

$$$$
