
 OpenBabel03252507313D

 52 56  0  0  1  0  0  0  0  0999 V2000
   46.9440   32.8070   45.5160 C   0  0  0  0  0  0  0  0  0  0  0  0
   45.8610   33.4880   46.0480 C   0  0  0  0  0  0  0  0  0  0  0  0
   45.1650   34.4290   45.2530 C   0  0  0  0  0  0  0  0  0  0  0  0
   45.6340   34.6070   43.9540 N   0  0  0  0  0  0  0  0  0  0  0  0
   46.6860   33.9180   43.5020 C   0  0  0  0  0  0  0  0  0  0  0  0
   47.3300   33.0340   44.2660 N   0  0  0  0  0  0  0  0  0  0  0  0
   45.3660   33.5380   46.9950 H   0  0  0  0  0  0  0  0  0  0  0  0
   44.3270   35.0320   45.4860 H   0  0  0  0  0  0  0  0  0  0  0  0
   47.1430   34.1670   42.1310 C   0  0  0  0  0  0  0  0  0  0  0  0
   48.2090   35.0010   41.8790 C   0  0  0  0  0  0  0  0  0  0  0  0
   48.7110   35.2950   40.6300 C   0  0  0  0  0  0  0  0  0  0  0  0
   48.0520   34.6760   39.5980 C   0  0  0  0  0  0  0  0  0  0  0  0
   46.9680   33.8250   39.8240 C   0  0  0  0  0  0  0  0  0  0  0  0
   46.5230   33.5790   41.0950 N   0  0  0  0  0  0  0  0  0  0  0  0
   48.6820   35.4560   42.7550 H   0  0  0  0  0  0  0  0  0  0  0  0
   49.5440   35.9470   40.4500 H   0  0  0  0  0  0  0  0  0  0  0  0
   48.3420   34.8180   38.5660 H   0  0  0  0  0  0  0  0  0  0  0  0
   46.3210   33.2100   38.7130 N   0  0  0  0  0  0  0  0  0  0  0  0
   45.0670   32.7070   38.5330 C   0  0  0  0  0  0  0  0  0  0  0  0
   44.3380   32.7330   39.3330 H   0  0  0  0  0  0  0  0  0  0  0  0
   44.9640   32.2300   37.2730 N   0  0  0  0  0  0  0  0  0  0  0  0
   46.1420   32.4180   36.6350 C   0  0  0  0  0  0  0  0  0  0  0  0
   46.5570   32.1100   35.3460 C   0  0  0  0  0  0  0  0  0  0  0  0
   45.8780   31.6260   34.6450 H   0  0  0  0  0  0  0  0  0  0  0  0
   47.8050   32.4050   34.9420 N   0  0  0  0  0  0  0  0  0  0  0  0
   48.6160   33.0100   35.8580 C   0  0  0  0  0  0  0  0  0  0  0  0
   49.6560   33.2970   35.6390 H   0  0  0  0  0  0  0  0  0  0  0  0
   48.2560   33.3260   37.1170 N   0  0  0  0  0  0  0  0  0  0  0  0
   47.0050   33.0380   37.5450 C   0  0  0  0  0  0  0  0  0  0  0  0
   47.6070   31.8360   46.3630 C   0  0  2  0  0  0  0  0  0  0  0  0
   47.4090   30.3860   45.8400 C   0  0  0  0  0  0  0  0  0  0  0  0
   48.2390   29.4470   46.6470 C   0  0  0  0  0  0  0  0  0  0  0  0
   48.2060   29.6520   48.1240 C   0  0  0  0  0  0  0  0  0  0  0  0
   48.1660   31.0360   48.5330 C   0  0  0  0  0  0  0  0  0  0  0  0
   47.1520   31.8900   47.7380 C   0  0  2  0  0  0  0  0  0  0  0  0
   48.7030   31.9780   46.2570 H   0  0  0  0  0  0  0  0  0  0  0  0
   46.3640   30.0830   45.8510 H   0  0  0  0  0  0  0  0  0  0  0  0
   47.7480   30.3770   44.7850 H   0  0  0  0  0  0  0  0  0  0  0  0
   49.2370   29.4340   46.1690 H   0  0  0  0  0  0  0  0  0  0  0  0
   47.8400   28.4070   46.4620 H   0  0  0  0  0  0  0  0  0  0  0  0
   47.8470   28.8380   48.7510 H   0  0  0  0  0  0  0  0  0  0  0  0
   49.3230   29.4240   48.3600 H   0  0  0  0  0  0  0  0  0  0  0  0
   49.1070   31.6370   48.4860 H   0  0  0  0  0  0  0  0  0  0  0  0
   47.8410   31.1440   49.6050 H   0  0  0  0  0  0  0  0  0  0  0  0
   47.2410   32.8470   48.2510 H   0  0  0  0  0  0  0  0  0  0  0  0
   45.8300   31.2700   47.8510 N   0  0  0  0  0  0  0  0  0  0  0  0
   45.1540   30.7040   48.9450 C   0  0  0  0  0  0  0  0  0  0  0  0
   44.5910   31.4080   49.8600 O   0  0  0  0  0  0  0  0  0  0  0  0
   45.1340   29.2760   48.9600 N   0  0  0  0  0  0  0  0  0  0  0  0
   45.1950   31.1130   46.9810 H   0  0  0  0  0  0  0  0  0  0  0  0
   44.8430   28.6120   48.2210 H   0  0  0  0  0  0  0  0  0  0  0  0
   45.4490   28.7500   49.8110 H   0  0  0  0  0  0  0  0  0  0  0  0
  1  2  1  0  0  0  0
  1 30  1  0  0  0  0
  2  7  1  0  0  0  0
  3  8  1  0  0  0  0
  3  2  2  0  0  0  0
  4  3  1  0  0  0  0
  5  4  2  0  0  0  0
  5  6  1  0  0  0  0
  6  1  2  0  0  0  0
  9  5  1  0  0  0  0
 10  9  1  0  0  0  0
 10 15  1  0  0  0  0
 11 10  2  0  0  0  0
 12 13  2  0  0  0  0
 12 11  1  0  0  0  0
 13 14  1  0  0  0  0
 14  9  2  0  0  0  0
 16 11  1  0  0  0  0
 17 12  1  0  0  0  0
 18 13  1  0  0  0  0
 19 18  1  0  0  0  0
 19 20  1  0  0  0  0
 21 19  2  0  0  0  0
 22 21  1  0  0  0  0
 22 29  1  0  0  0  0
 23 22  2  0  0  0  0
 24 23  1  0  0  0  0
 25 23  1  0  0  0  0
 25 26  2  0  0  0  0
 26 28  1  0  0  0  0
 27 26  1  0  0  0  0
 28 29  2  0  0  0  0
 29 18  1  0  0  0  0
 30 36  1  6  0  0  0
 30 35  1  0  0  0  0
 31 37  1  0  0  0  0
 31 30  1  0  0  0  0
 31 32  1  0  0  0  0
 32 33  1  0  0  0  0
 33 42  1  0  0  0  0
 33 34  1  0  0  0  0
 33 41  1  0  0  0  0
 34 44  1  0  0  0  0
 35 46  1  0  0  0  0
 35 45  1  1  0  0  0
 35 34  1  0  0  0  0
 38 31  1  0  0  0  0
 39 32  1  0  0  0  0
 40 32  1  0  0  0  0
 43 34  1  0  0  0  0
 46 47  1  0  0  0  0
 47 49  1  0  0  0  0
 47 48  2  0  0  0  0
 49 52  1  0  0  0  0
 50 46  1  0  0  0  0
 51 49  1  0  0  0  0
M  END
>  <minimizedAffinity>
-7.36927414

>  <minimizedRMSD>
0.33474195

$$$$
