
 OpenBabel03252500113D

 34 37  0  0  0  0  0  0  0  0999 V2000
   40.5150   29.9160   40.5350 Cl  0  0  0  0  0  0  0  0  0  0  0  0
   39.3640   31.1970   40.3630 C   0  0  0  0  0  0  0  0  0  0  0  0
   38.0160   30.9190   40.2300 C   0  0  0  0  0  0  0  0  0  0  0  0
   37.0630   31.9140   40.0900 C   0  0  0  0  0  0  0  0  0  0  0  0
   37.5280   33.2150   40.0890 C   0  0  0  0  0  0  0  0  0  0  0  0
   38.8670   33.5050   40.2210 C   0  0  0  0  0  0  0  0  0  0  0  0
   39.7700   32.5170   40.3560 C   0  0  0  0  0  0  0  0  0  0  0  0
   36.0180   31.7260   39.9860 H   0  0  0  0  0  0  0  0  0  0  0  0
   36.8420   34.0370   39.9850 H   0  0  0  0  0  0  0  0  0  0  0  0
   39.2710   34.5140   40.2260 H   0  0  0  0  0  0  0  0  0  0  0  0
   41.1830   32.7630   40.4970 N   0  0  0  0  0  0  0  0  0  0  0  0
   42.0340   32.7020   41.5400 C   0  0  0  0  0  0  0  0  0  0  0  0
   41.6680   32.4150   42.5320 H   0  0  0  0  0  0  0  0  0  0  0  0
   43.2640   33.0390   41.0990 N   0  0  0  0  0  0  0  0  0  0  0  0
   43.1790   33.3110   39.7780 C   0  0  0  0  0  0  0  0  0  0  0  0
   44.1560   33.6970   38.8830 C   0  0  0  0  0  0  0  0  0  0  0  0
   45.2070   33.8400   39.1700 H   0  0  0  0  0  0  0  0  0  0  0  0
   43.7980   33.9090   37.5870 N   0  0  0  0  0  0  0  0  0  0  0  0
   42.5130   33.7430   37.1950 C   0  0  0  0  0  0  0  0  0  0  0  0
   42.1330   33.8870   36.1930 H   0  0  0  0  0  0  0  0  0  0  0  0
   41.5610   33.3650   38.0710 N   0  0  0  0  0  0  0  0  0  0  0  0
   41.8620   33.1400   39.3760 C   0  0  0  0  0  0  0  0  0  0  0  0
   36.8970   27.5910   39.1050 C   0  0  0  0  0  0  0  0  0  0  0  0
   36.7630   26.8880   40.3130 C   0  0  0  0  0  0  0  0  0  0  0  0
   37.0580   27.5640   41.4930 C   0  0  0  0  0  0  0  0  0  0  0  0
   37.4590   28.8600   41.4380 N   0  0  0  0  0  0  0  0  0  0  0  0
   37.5770   29.5140   40.2380 C   0  0  0  0  0  0  0  0  0  0  0  0
   37.2970   28.8770   39.0920 N   0  0  0  0  0  0  0  0  0  0  0  0
   36.6700   27.0760   38.1810 H   0  0  0  0  0  0  0  0  0  0  0  0
   36.4510   25.8720   40.3810 H   0  0  0  0  0  0  0  0  0  0  0  0
   36.9530   26.9150   42.8520 C   0  0  0  0  0  0  0  0  0  0  0  0
   35.9170   27.4530   43.5650 F   0  0  0  0  0  0  0  0  0  0  0  0
   36.7180   25.5650   42.6710 F   0  0  0  0  0  0  0  0  0  0  0  0
   38.1620   27.0980   43.4760 F   0  0  0  0  0  0  0  0  0  0  0  0
  2  1  1  0  0  0  0
  3 27  1  0  0  0  0
  3  2  2  0  0  0  0
  4  3  1  0  0  0  0
  5  4  2  0  0  0  0
  5  6  1  0  0  0  0
  6 10  1  0  0  0  0
  6  7  2  0  0  0  0
  7  2  1  0  0  0  0
  7 11  1  0  0  0  0
  8  4  1  0  0  0  0
  9  5  1  0  0  0  0
 11 12  1  0  0  0  0
 12 13  1  0  0  0  0
 14 12  2  0  0  0  0
 15 14  1  0  0  0  0
 16 17  1  0  0  0  0
 16 15  2  0  0  0  0
 18 16  1  0  0  0  0
 19 18  2  0  0  0  0
 19 21  1  0  0  0  0
 20 19  1  0  0  0  0
 21 22  2  0  0  0  0
 22 15  1  0  0  0  0
 22 11  1  0  0  0  0
 23 24  1  0  0  0  0
 24 30  1  0  0  0  0
 24 25  2  0  0  0  0
 25 31  1  0  0  0  0
 26 25  1  0  0  0  0
 27 26  2  0  0  0  0
 28 23  2  0  0  0  0
 28 27  1  0  0  0  0
 29 23  1  0  0  0  0
 31 34  1  0  0  0  0
 31 32  1  0  0  0  0
 33 31  1  0  0  0  0
M  END
>  <minimizedAffinity>
-6.25799036

$$$$

 OpenBabel03252500113D

 34 37  0  0  0  0  0  0  0  0999 V2000
   40.3080   30.4290   41.0940 Cl  0  0  0  0  0  0  0  0  0  0  0  0
   38.9970   30.6970   39.9970 C   0  0  0  0  0  0  0  0  0  0  0  0
   37.7960   30.0320   40.1590 C   0  0  0  0  0  0  0  0  0  0  0  0
   36.7230   30.2190   39.3030 C   0  0  0  0  0  0  0  0  0  0  0  0
   36.9120   31.1130   38.2660 C   0  0  0  0  0  0  0  0  0  0  0  0
   38.1020   31.7810   38.0950 C   0  0  0  0  0  0  0  0  0  0  0  0
   39.1270   31.5800   38.9430 C   0  0  0  0  0  0  0  0  0  0  0  0
   35.7860   29.7190   39.4060 H   0  0  0  0  0  0  0  0  0  0  0  0
   36.1190   31.3060   37.5650 H   0  0  0  0  0  0  0  0  0  0  0  0
   38.2890   32.4910   37.2930 H   0  0  0  0  0  0  0  0  0  0  0  0
   40.3950   32.2520   38.8100 N   0  0  0  0  0  0  0  0  0  0  0  0
   40.9070   33.3770   39.3450 C   0  0  0  0  0  0  0  0  0  0  0  0
   40.3080   33.9780   40.0390 H   0  0  0  0  0  0  0  0  0  0  0  0
   42.1600   33.5380   38.8680 N   0  0  0  0  0  0  0  0  0  0  0  0
   42.4280   32.5090   38.0340 C   0  0  0  0  0  0  0  0  0  0  0  0
   43.5660   32.2260   37.3050 C   0  0  0  0  0  0  0  0  0  0  0  0
   44.4610   32.8630   37.3240 H   0  0  0  0  0  0  0  0  0  0  0  0
   43.5760   31.1070   36.5310 N   0  0  0  0  0  0  0  0  0  0  0  0
   42.4920   30.2970   36.4810 C   0  0  0  0  0  0  0  0  0  0  0  0
   42.4050   29.3910   35.8990 H   0  0  0  0  0  0  0  0  0  0  0  0
   41.3820   30.5760   37.1940 N   0  0  0  0  0  0  0  0  0  0  0  0
   41.3170   31.6790   37.9840 C   0  0  0  0  0  0  0  0  0  0  0  0
   37.5160   28.6660   43.5710 C   0  0  0  0  0  0  0  0  0  0  0  0
   37.3760   27.2880   43.3390 C   0  0  0  0  0  0  0  0  0  0  0  0
   37.3800   26.8480   42.0190 C   0  0  0  0  0  0  0  0  0  0  0  0
   37.5160   27.7530   41.0150 N   0  0  0  0  0  0  0  0  0  0  0  0
   37.6510   29.0920   41.2810 C   0  0  0  0  0  0  0  0  0  0  0  0
   37.6490   29.5310   42.5480 N   0  0  0  0  0  0  0  0  0  0  0  0
   37.5150   29.0190   44.5940 H   0  0  0  0  0  0  0  0  0  0  0  0
   37.2670   26.5610   44.1100 H   0  0  0  0  0  0  0  0  0  0  0  0
   37.2360   25.3930   41.6440 C   0  0  0  0  0  0  0  0  0  0  0  0
   36.6800   25.2680   40.4010 F   0  0  0  0  0  0  0  0  0  0  0  0
   38.4950   24.8230   41.6310 F   0  0  0  0  0  0  0  0  0  0  0  0
   36.4680   24.8050   42.6180 F   0  0  0  0  0  0  0  0  0  0  0  0
  2  3  1  0  0  0  0
  2  1  1  0  0  0  0
  3 27  1  0  0  0  0
  4  8  1  0  0  0  0
  4  3  2  0  0  0  0
  5  4  1  0  0  0  0
  6  5  2  0  0  0  0
  6  7  1  0  0  0  0
  7  2  2  0  0  0  0
  9  5  1  0  0  0  0
 10  6  1  0  0  0  0
 11  7  1  0  0  0  0
 11 12  1  0  0  0  0
 12 13  1  0  0  0  0
 14 12  2  0  0  0  0
 15 14  1  0  0  0  0
 16 17  1  0  0  0  0
 16 15  2  0  0  0  0
 18 16  1  0  0  0  0
 19 18  2  0  0  0  0
 19 21  1  0  0  0  0
 20 19  1  0  0  0  0
 21 22  2  0  0  0  0
 22 15  1  0  0  0  0
 22 11  1  0  0  0  0
 23 29  1  0  0  0  0
 24 23  1  0  0  0  0
 24 30  1  0  0  0  0
 25 24  2  0  0  0  0
 26 27  2  0  0  0  0
 26 25  1  0  0  0  0
 27 28  1  0  0  0  0
 28 23  2  0  0  0  0
 31 25  1  0  0  0  0
 31 34  1  0  0  0  0
 32 31  1  0  0  0  0
 33 31  1  0  0  0  0
M  END
>  <minimizedAffinity>
-6.07354498

$$$$

 OpenBabel03252500113D

 34 37  0  0  0  0  0  0  0  0999 V2000
   40.4410   30.1870   41.4560 Cl  0  0  0  0  0  0  0  0  0  0  0  0
   39.0990   31.0360   40.7690 C   0  0  0  0  0  0  0  0  0  0  0  0
   37.8120   30.5540   40.9120 C   0  0  0  0  0  0  0  0  0  0  0  0
   36.7110   31.2030   40.3790 C   0  0  0  0  0  0  0  0  0  0  0  0
   36.9640   32.3730   39.6860 C   0  0  0  0  0  0  0  0  0  0  0  0
   38.2400   32.8640   39.5370 C   0  0  0  0  0  0  0  0  0  0  0  0
   39.2900   32.2110   40.0670 C   0  0  0  0  0  0  0  0  0  0  0  0
   35.7090   30.8520   40.4750 H   0  0  0  0  0  0  0  0  0  0  0  0
   36.1540   32.9280   39.2460 H   0  0  0  0  0  0  0  0  0  0  0  0
   38.4790   33.7790   39.0010 H   0  0  0  0  0  0  0  0  0  0  0  0
   40.6470   32.6790   39.9410 N   0  0  0  0  0  0  0  0  0  0  0  0
   41.4130   33.5080   40.6770 C   0  0  0  0  0  0  0  0  0  0  0  0
   41.0060   33.9760   41.5810 H   0  0  0  0  0  0  0  0  0  0  0  0
   42.6250   33.5940   40.0890 N   0  0  0  0  0  0  0  0  0  0  0  0
   42.6140   32.8160   38.9840 C   0  0  0  0  0  0  0  0  0  0  0  0
   43.6060   32.5720   38.0560 C   0  0  0  0  0  0  0  0  0  0  0  0
   44.6050   33.0250   38.1170 H   0  0  0  0  0  0  0  0  0  0  0  0
   43.3300   31.7330   37.0210 N   0  0  0  0  0  0  0  0  0  0  0  0
   42.1100   31.1570   36.9110 C   0  0  0  0  0  0  0  0  0  0  0  0
   41.7980   30.4800   36.1290 H   0  0  0  0  0  0  0  0  0  0  0  0
   41.1440   31.3960   37.8200 N   0  0  0  0  0  0  0  0  0  0  0  0
   41.3630   32.2240   38.8730 C   0  0  0  0  0  0  0  0  0  0  0  0
   37.3620   28.1590   43.6790 C   0  0  0  0  0  0  0  0  0  0  0  0
   37.2070   26.9360   43.0040 C   0  0  0  0  0  0  0  0  0  0  0  0
   37.2590   26.9520   41.6140 C   0  0  0  0  0  0  0  0  0  0  0  0
   37.4540   28.1290   40.9660 N   0  0  0  0  0  0  0  0  0  0  0  0
   37.6020   29.3040   41.6600 C   0  0  0  0  0  0  0  0  0  0  0  0
   37.5540   29.3060   43.0000 N   0  0  0  0  0  0  0  0  0  0  0  0
   37.3240   28.1590   44.7600 H   0  0  0  0  0  0  0  0  0  0  0  0
   37.0520   26.0020   43.4910 H   0  0  0  0  0  0  0  0  0  0  0  0
   37.1050   25.7030   40.7790 C   0  0  0  0  0  0  0  0  0  0  0  0
   38.3220   25.2680   40.3330 F   0  0  0  0  0  0  0  0  0  0  0  0
   36.5380   24.7210   41.5690 F   0  0  0  0  0  0  0  0  0  0  0  0
   36.2570   26.0180   39.7450 F   0  0  0  0  0  0  0  0  0  0  0  0
  2  3  1  0  0  0  0
  2  1  1  0  0  0  0
  3 27  1  0  0  0  0
  4  8  1  0  0  0  0
  4  3  2  0  0  0  0
  5  4  1  0  0  0  0
  6  5  2  0  0  0  0
  6  7  1  0  0  0  0
  7  2  2  0  0  0  0
  9  5  1  0  0  0  0
 10  6  1  0  0  0  0
 11  7  1  0  0  0  0
 11 12  1  0  0  0  0
 12 13  1  0  0  0  0
 14 12  2  0  0  0  0
 15 14  1  0  0  0  0
 16 17  1  0  0  0  0
 16 15  2  0  0  0  0
 18 16  1  0  0  0  0
 19 18  2  0  0  0  0
 19 21  1  0  0  0  0
 20 19  1  0  0  0  0
 21 22  2  0  0  0  0
 22 15  1  0  0  0  0
 22 11  1  0  0  0  0
 23 29  1  0  0  0  0
 24 30  1  0  0  0  0
 24 23  1  0  0  0  0
 25 24  2  0  0  0  0
 26 25  1  0  0  0  0
 26 27  2  0  0  0  0
 27 28  1  0  0  0  0
 28 23  2  0  0  0  0
 31 33  1  0  0  0  0
 31 25  1  0  0  0  0
 32 31  1  0  0  0  0
 34 31  1  0  0  0  0
M  END
>  <minimizedAffinity>
-6.00654268

$$$$

 OpenBabel03252500113D

 34 37  0  0  0  0  0  0  0  0999 V2000
   40.2220   29.0580   39.9690 Cl  0  0  0  0  0  0  0  0  0  0  0  0
   38.7370   29.8460   40.3800 C   0  0  0  0  0  0  0  0  0  0  0  0
   37.8690   29.2820   41.2960 C   0  0  0  0  0  0  0  0  0  0  0  0
   36.6720   29.8800   41.6520 C   0  0  0  0  0  0  0  0  0  0  0  0
   36.3820   31.0850   41.0400 C   0  0  0  0  0  0  0  0  0  0  0  0
   37.2370   31.6580   40.1270 C   0  0  0  0  0  0  0  0  0  0  0  0
   38.3940   31.0530   39.8010 C   0  0  0  0  0  0  0  0  0  0  0  0
   35.9860   29.4660   42.3550 H   0  0  0  0  0  0  0  0  0  0  0  0
   35.4680   31.6040   41.2710 H   0  0  0  0  0  0  0  0  0  0  0  0
   37.0440   32.6030   39.6250 H   0  0  0  0  0  0  0  0  0  0  0  0
   39.3260   31.6070   38.8520 N   0  0  0  0  0  0  0  0  0  0  0  0
   39.4740   31.4810   37.5190 C   0  0  0  0  0  0  0  0  0  0  0  0
   38.7920   30.8430   36.9470 H   0  0  0  0  0  0  0  0  0  0  0  0
   40.5290   32.2350   37.1410 N   0  0  0  0  0  0  0  0  0  0  0  0
   41.0370   32.8320   38.2410 C   0  0  0  0  0  0  0  0  0  0  0  0
   42.1080   33.6930   38.3740 C   0  0  0  0  0  0  0  0  0  0  0  0
   42.7220   34.0170   37.5230 H   0  0  0  0  0  0  0  0  0  0  0  0
   42.4130   34.1570   39.6160 N   0  0  0  0  0  0  0  0  0  0  0  0
   41.6800   33.7800   40.6890 C   0  0  0  0  0  0  0  0  0  0  0  0
   41.8440   34.0940   41.7110 H   0  0  0  0  0  0  0  0  0  0  0  0
   40.6340   32.9400   40.5570 N   0  0  0  0  0  0  0  0  0  0  0  0
   40.2840   32.4450   39.3410 C   0  0  0  0  0  0  0  0  0  0  0  0
   39.2880   26.7820   43.6050 C   0  0  0  0  0  0  0  0  0  0  0  0
   38.8750   25.5670   43.0330 C   0  0  0  0  0  0  0  0  0  0  0  0
   38.1190   25.6230   41.8660 C   0  0  0  0  0  0  0  0  0  0  0  0
   37.8090   26.8310   41.3290 N   0  0  0  0  0  0  0  0  0  0  0  0
   38.2310   27.9970   41.9160 C   0  0  0  0  0  0  0  0  0  0  0  0
   38.9600   27.9600   43.0410 N   0  0  0  0  0  0  0  0  0  0  0  0
   39.8770   26.7500   44.5120 H   0  0  0  0  0  0  0  0  0  0  0  0
   39.1050   24.6090   43.4360 H   0  0  0  0  0  0  0  0  0  0  0  0
   37.6170   24.3870   41.1590 C   0  0  0  0  0  0  0  0  0  0  0  0
   38.4210   23.3150   41.4340 F   0  0  0  0  0  0  0  0  0  0  0  0
   36.3390   24.1170   41.6120 F   0  0  0  0  0  0  0  0  0  0  0  0
   37.5840   24.6800   39.8180 F   0  0  0  0  0  0  0  0  0  0  0  0
  1  2  1  0  0  0  0
  2  3  1  0  0  0  0
  3  4  2  0  0  0  0
  3 27  1  0  0  0  0
  4  8  1  0  0  0  0
  5  9  1  0  0  0  0
  5  4  1  0  0  0  0
  6  5  2  0  0  0  0
  7  6  1  0  0  0  0
  7  2  2  0  0  0  0
 10  6  1  0  0  0  0
 11 22  1  0  0  0  0
 11  7  1  0  0  0  0
 12 11  1  0  0  0  0
 13 12  1  0  0  0  0
 14 12  2  0  0  0  0
 14 15  1  0  0  0  0
 15 16  2  0  0  0  0
 15 22  1  0  0  0  0
 16 18  1  0  0  0  0
 17 16  1  0  0  0  0
 18 19  2  0  0  0  0
 19 20  1  0  0  0  0
 21 19  1  0  0  0  0
 22 21  2  0  0  0  0
 23 29  1  0  0  0  0
 24 30  1  0  0  0  0
 24 23  2  0  0  0  0
 25 24  1  0  0  0  0
 26 25  2  0  0  0  0
 26 27  1  0  0  0  0
 27 28  2  0  0  0  0
 28 23  1  0  0  0  0
 31 32  1  0  0  0  0
 31 33  1  0  0  0  0
 31 25  1  0  0  0  0
 34 31  1  0  0  0  0
M  END
>  <minimizedAffinity>
-5.86628151

$$$$

 OpenBabel03252500113D

 34 37  0  0  0  0  0  0  0  0999 V2000
   37.6550   28.2480   39.2370 Cl  0  0  0  0  0  0  0  0  0  0  0  0
   37.6940   28.0590   40.9560 C   0  0  0  0  0  0  0  0  0  0  0  0
   37.7770   26.8020   41.5250 C   0  0  0  0  0  0  0  0  0  0  0  0
   37.8110   26.6080   42.8960 C   0  0  0  0  0  0  0  0  0  0  0  0
   37.7560   27.7450   43.6800 C   0  0  0  0  0  0  0  0  0  0  0  0
   37.6730   29.0020   43.1260 C   0  0  0  0  0  0  0  0  0  0  0  0
   37.6420   29.1590   41.7900 C   0  0  0  0  0  0  0  0  0  0  0  0
   37.8760   25.6500   43.3600 H   0  0  0  0  0  0  0  0  0  0  0  0
   37.7780   27.6660   44.7520 H   0  0  0  0  0  0  0  0  0  0  0  0
   37.6280   29.9190   43.7080 H   0  0  0  0  0  0  0  0  0  0  0  0
   37.5550   30.4510   41.1570 N   0  0  0  0  0  0  0  0  0  0  0  0
   36.5380   31.1530   40.6210 C   0  0  0  0  0  0  0  0  0  0  0  0
   35.5240   30.7360   40.6160 H   0  0  0  0  0  0  0  0  0  0  0  0
   37.0310   32.3230   40.1610 N   0  0  0  0  0  0  0  0  0  0  0  0
   38.3580   32.3490   40.4130 C   0  0  0  0  0  0  0  0  0  0  0  0
   39.2980   33.3220   40.1380 C   0  0  0  0  0  0  0  0  0  0  0  0
   39.0490   34.2680   39.6380 H   0  0  0  0  0  0  0  0  0  0  0  0
   40.5880   33.0950   40.5030 N   0  0  0  0  0  0  0  0  0  0  0  0
   40.9340   31.9410   41.1210 C   0  0  0  0  0  0  0  0  0  0  0  0
   41.9280   31.6710   41.4480 H   0  0  0  0  0  0  0  0  0  0  0  0
   40.0140   30.9940   41.3900 N   0  0  0  0  0  0  0  0  0  0  0  0
   38.7110   31.1670   41.0470 C   0  0  0  0  0  0  0  0  0  0  0  0
   39.0530   24.0890   39.3800 C   0  0  0  0  0  0  0  0  0  0  0  0
   37.8780   23.4240   38.9950 C   0  0  0  0  0  0  0  0  0  0  0  0
   36.6670   23.9150   39.4750 C   0  0  0  0  0  0  0  0  0  0  0  0
   36.6640   25.0020   40.2880 N   0  0  0  0  0  0  0  0  0  0  0  0
   37.8340   25.6260   40.6420 C   0  0  0  0  0  0  0  0  0  0  0  0
   39.0080   25.1660   40.1880 N   0  0  0  0  0  0  0  0  0  0  0  0
   40.0000   23.7170   39.0120 H   0  0  0  0  0  0  0  0  0  0  0  0
   37.8560   22.5700   38.3590 H   0  0  0  0  0  0  0  0  0  0  0  0
   35.3390   23.2850   39.1320 C   0  0  0  0  0  0  0  0  0  0  0  0
   34.5340   23.2260   40.2360 F   0  0  0  0  0  0  0  0  0  0  0  0
   34.7250   24.0660   38.1710 F   0  0  0  0  0  0  0  0  0  0  0  0
   35.6080   22.0400   38.6190 F   0  0  0  0  0  0  0  0  0  0  0  0
  1  2  1  0  0  0  0
  2  3  2  0  0  0  0
  2  7  1  0  0  0  0
  3  4  1  0  0  0  0
  4  8  1  0  0  0  0
  4  5  2  0  0  0  0
  5  9  1  0  0  0  0
  6  5  1  0  0  0  0
  6 10  1  0  0  0  0
  7  6  2  0  0  0  0
 11  7  1  0  0  0  0
 12 11  1  0  0  0  0
 13 12  1  0  0  0  0
 14 15  1  0  0  0  0
 14 12  2  0  0  0  0
 15 22  1  0  0  0  0
 16 15  2  0  0  0  0
 16 18  1  0  0  0  0
 17 16  1  0  0  0  0
 18 19  2  0  0  0  0
 19 21  1  0  0  0  0
 19 20  1  0  0  0  0
 22 11  1  0  0  0  0
 22 21  2  0  0  0  0
 23 28  1  0  0  0  0
 24 23  2  0  0  0  0
 24 25  1  0  0  0  0
 25 26  2  0  0  0  0
 26 27  1  0  0  0  0
 27  3  1  0  0  0  0
 28 27  2  0  0  0  0
 29 23  1  0  0  0  0
 30 24  1  0  0  0  0
 31 25  1  0  0  0  0
 31 32  1  0  0  0  0
 33 31  1  0  0  0  0
 34 31  1  0  0  0  0
M  END
>  <minimizedAffinity>
-5.78666353

$$$$

 OpenBabel03252500113D

 34 37  0  0  0  0  0  0  0  0999 V2000
   39.7630   29.4570   40.5340 Cl  0  0  0  0  0  0  0  0  0  0  0  0
   38.4390   29.6620   39.4390 C   0  0  0  0  0  0  0  0  0  0  0  0
   37.7510   28.5660   38.9520 C   0  0  0  0  0  0  0  0  0  0  0  0
   36.6870   28.6870   38.0740 C   0  0  0  0  0  0  0  0  0  0  0  0
   36.3400   29.9720   37.7020 C   0  0  0  0  0  0  0  0  0  0  0  0
   37.0170   31.0710   38.1790 C   0  0  0  0  0  0  0  0  0  0  0  0
   38.0470   30.9220   39.0320 C   0  0  0  0  0  0  0  0  0  0  0  0
   36.1390   27.8590   37.6850 H   0  0  0  0  0  0  0  0  0  0  0  0
   35.5230   30.1380   37.0230 H   0  0  0  0  0  0  0  0  0  0  0  0
   36.7740   32.0960   37.9110 H   0  0  0  0  0  0  0  0  0  0  0  0
   38.7900   32.0370   39.5620 N   0  0  0  0  0  0  0  0  0  0  0  0
   38.6380   32.8190   40.6480 C   0  0  0  0  0  0  0  0  0  0  0  0
   37.8000   32.6500   41.3350 H   0  0  0  0  0  0  0  0  0  0  0  0
   39.6390   33.7250   40.6580 N   0  0  0  0  0  0  0  0  0  0  0  0
   40.4170   33.5050   39.5750 C   0  0  0  0  0  0  0  0  0  0  0  0
   41.5540   34.1610   39.1470 C   0  0  0  0  0  0  0  0  0  0  0  0
   41.9920   35.0110   39.6880 H   0  0  0  0  0  0  0  0  0  0  0  0
   42.1550   33.7320   38.0050 N   0  0  0  0  0  0  0  0  0  0  0  0
   41.6440   32.6880   37.3100 C   0  0  0  0  0  0  0  0  0  0  0  0
   42.0490   32.2770   36.3960 H   0  0  0  0  0  0  0  0  0  0  0  0
   40.5350   32.0490   37.7310 N   0  0  0  0  0  0  0  0  0  0  0  0
   39.8930   32.4340   38.8650 C   0  0  0  0  0  0  0  0  0  0  0  0
   39.5500   25.3560   39.1730 C   0  0  0  0  0  0  0  0  0  0  0  0
   38.8930   24.7080   40.2320 C   0  0  0  0  0  0  0  0  0  0  0  0
   37.8440   25.3800   40.8520 C   0  0  0  0  0  0  0  0  0  0  0  0
   37.4980   26.6200   40.4210 N   0  0  0  0  0  0  0  0  0  0  0  0
   38.1640   27.2210   39.3830 C   0  0  0  0  0  0  0  0  0  0  0  0
   39.1770   26.5870   38.7740 N   0  0  0  0  0  0  0  0  0  0  0  0
   40.3670   24.8430   38.6830 H   0  0  0  0  0  0  0  0  0  0  0  0
   39.1470   23.7370   40.5870 H   0  0  0  0  0  0  0  0  0  0  0  0
   37.0620   24.7880   42.0000 C   0  0  0  0  0  0  0  0  0  0  0  0
   36.0400   24.0070   41.5360 F   0  0  0  0  0  0  0  0  0  0  0  0
   37.9200   24.0040   42.7500 F   0  0  0  0  0  0  0  0  0  0  0  0
   36.6090   25.8390   42.7580 F   0  0  0  0  0  0  0  0  0  0  0  0
  2  1  1  0  0  0  0
  3 27  1  0  0  0  0
  3  2  2  0  0  0  0
  4  3  1  0  0  0  0
  5  4  2  0  0  0  0
  5  6  1  0  0  0  0
  6  7  2  0  0  0  0
  7  2  1  0  0  0  0
  7 11  1  0  0  0  0
  8  4  1  0  0  0  0
  9  5  1  0  0  0  0
 10  6  1  0  0  0  0
 11 12  1  0  0  0  0
 12 14  2  0  0  0  0
 12 13  1  0  0  0  0
 15 14  1  0  0  0  0
 16 15  1  0  0  0  0
 16 17  1  0  0  0  0
 18 16  2  0  0  0  0
 19 21  2  0  0  0  0
 19 18  1  0  0  0  0
 20 19  1  0  0  0  0
 21 22  1  0  0  0  0
 22 11  1  0  0  0  0
 22 15  2  0  0  0  0
 23 24  1  0  0  0  0
 24 30  1  0  0  0  0
 24 25  2  0  0  0  0
 25 31  1  0  0  0  0
 26 25  1  0  0  0  0
 27 26  2  0  0  0  0
 28 23  2  0  0  0  0
 28 27  1  0  0  0  0
 29 23  1  0  0  0  0
 31 33  1  0  0  0  0
 31 34  1  0  0  0  0
 32 31  1  0  0  0  0
M  END
>  <minimizedAffinity>
-5.78541279

$$$$

 OpenBabel03252500113D

 34 37  0  0  0  0  0  0  0  0999 V2000
   39.0430   28.3820   39.6950 Cl  0  0  0  0  0  0  0  0  0  0  0  0
   38.2830   28.1960   41.2390 C   0  0  0  0  0  0  0  0  0  0  0  0
   37.4420   27.1270   41.4860 C   0  0  0  0  0  0  0  0  0  0  0  0
   36.8140   26.9420   42.7070 C   0  0  0  0  0  0  0  0  0  0  0  0
   37.0710   27.8890   43.6800 C   0  0  0  0  0  0  0  0  0  0  0  0
   37.9060   28.9580   43.4470 C   0  0  0  0  0  0  0  0  0  0  0  0
   38.5020   29.1110   42.2500 C   0  0  0  0  0  0  0  0  0  0  0  0
   36.1620   26.1260   42.9230 H   0  0  0  0  0  0  0  0  0  0  0  0
   36.6170   27.8060   44.6510 H   0  0  0  0  0  0  0  0  0  0  0  0
   38.1330   29.7220   44.1850 H   0  0  0  0  0  0  0  0  0  0  0  0
   39.3850   30.2100   41.9510 N   0  0  0  0  0  0  0  0  0  0  0  0
   40.6870   30.4480   42.2050 C   0  0  0  0  0  0  0  0  0  0  0  0
   41.2850   29.7090   42.7500 H   0  0  0  0  0  0  0  0  0  0  0  0
   41.0020   31.6550   41.6890 N   0  0  0  0  0  0  0  0  0  0  0  0
   39.8940   32.1690   41.1130 C   0  0  0  0  0  0  0  0  0  0  0  0
   39.7060   33.3690   40.4550 C   0  0  0  0  0  0  0  0  0  0  0  0
   40.5090   34.1060   40.3160 H   0  0  0  0  0  0  0  0  0  0  0  0
   38.4700   33.6480   39.9600 N   0  0  0  0  0  0  0  0  0  0  0  0
   37.4550   32.7650   40.1120 C   0  0  0  0  0  0  0  0  0  0  0  0
   36.4430   32.8960   39.7550 H   0  0  0  0  0  0  0  0  0  0  0  0
   37.6410   31.5940   40.7530 N   0  0  0  0  0  0  0  0  0  0  0  0
   38.8540   31.2640   41.2680 C   0  0  0  0  0  0  0  0  0  0  0  0
   36.0510   25.4660   38.5030 C   0  0  0  0  0  0  0  0  0  0  0  0
   36.8060   24.2850   38.4290 C   0  0  0  0  0  0  0  0  0  0  0  0
   37.7790   24.0750   39.4020 C   0  0  0  0  0  0  0  0  0  0  0  0
   37.9630   25.0060   40.3730 N   0  0  0  0  0  0  0  0  0  0  0  0
   37.2050   26.1490   40.4130 C   0  0  0  0  0  0  0  0  0  0  0  0
   36.2630   26.3650   39.4830 N   0  0  0  0  0  0  0  0  0  0  0  0
   35.2910   25.6400   37.7520 H   0  0  0  0  0  0  0  0  0  0  0  0
   36.6800   23.5420   37.6770 H   0  0  0  0  0  0  0  0  0  0  0  0
   38.6540   22.8450   39.4280 C   0  0  0  0  0  0  0  0  0  0  0  0
   38.2450   21.9430   38.4850 F   0  0  0  0  0  0  0  0  0  0  0  0
   39.9510   23.2300   39.1470 F   0  0  0  0  0  0  0  0  0  0  0  0
   38.5850   22.3330   40.7000 F   0  0  0  0  0  0  0  0  0  0  0  0
  1  2  1  0  0  0  0
  2  3  2  0  0  0  0
  2  7  1  0  0  0  0
  3  4  1  0  0  0  0
  4  8  1  0  0  0  0
  4  5  2  0  0  0  0
  5  9  1  0  0  0  0
  6  5  1  0  0  0  0
  6 10  1  0  0  0  0
  7  6  2  0  0  0  0
 11 12  1  0  0  0  0
 11  7  1  0  0  0  0
 12 13  1  0  0  0  0
 14 12  2  0  0  0  0
 15 22  1  0  0  0  0
 15 14  1  0  0  0  0
 16 15  2  0  0  0  0
 17 16  1  0  0  0  0
 18 19  2  0  0  0  0
 18 16  1  0  0  0  0
 19 21  1  0  0  0  0
 20 19  1  0  0  0  0
 21 22  2  0  0  0  0
 22 11  1  0  0  0  0
 23 28  1  0  0  0  0
 24 23  2  0  0  0  0
 24 25  1  0  0  0  0
 25 31  1  0  0  0  0
 25 26  2  0  0  0  0
 26 27  1  0  0  0  0
 27  3  1  0  0  0  0
 28 27  2  0  0  0  0
 29 23  1  0  0  0  0
 30 24  1  0  0  0  0
 31 34  1  0  0  0  0
 32 31  1  0  0  0  0
 33 31  1  0  0  0  0
M  END
>  <minimizedAffinity>
-5.78073454

$$$$

 OpenBabel03252500113D

 34 37  0  0  0  0  0  0  0  0999 V2000
   39.2770   28.1090   39.8660 Cl  0  0  0  0  0  0  0  0  0  0  0  0
   38.3830   27.9880   41.3430 C   0  0  0  0  0  0  0  0  0  0  0  0
   37.5870   26.8870   41.5970 C   0  0  0  0  0  0  0  0  0  0  0  0
   36.8570   26.7520   42.7660 C   0  0  0  0  0  0  0  0  0  0  0  0
   36.9610   27.7850   43.6790 C   0  0  0  0  0  0  0  0  0  0  0  0
   37.7500   28.8870   43.4380 C   0  0  0  0  0  0  0  0  0  0  0  0
   38.4490   28.9890   42.2930 C   0  0  0  0  0  0  0  0  0  0  0  0
   36.2360   25.9130   42.9860 H   0  0  0  0  0  0  0  0  0  0  0  0
   36.4210   27.7440   44.6080 H   0  0  0  0  0  0  0  0  0  0  0  0
   37.8580   29.7170   44.1300 H   0  0  0  0  0  0  0  0  0  0  0  0
   39.2890   30.1200   41.9880 N   0  0  0  0  0  0  0  0  0  0  0  0
   40.5780   30.4130   42.2510 C   0  0  0  0  0  0  0  0  0  0  0  0
   41.2000   29.7050   42.8100 H   0  0  0  0  0  0  0  0  0  0  0  0
   40.8490   31.6260   41.7230 N   0  0  0  0  0  0  0  0  0  0  0  0
   39.7260   32.0880   41.1310 C   0  0  0  0  0  0  0  0  0  0  0  0
   39.4960   33.2710   40.4570 C   0  0  0  0  0  0  0  0  0  0  0  0
   40.2700   34.0380   40.3160 H   0  0  0  0  0  0  0  0  0  0  0  0
   38.2550   33.4930   39.9470 N   0  0  0  0  0  0  0  0  0  0  0  0
   37.2740   32.5720   40.1010 C   0  0  0  0  0  0  0  0  0  0  0  0
   36.2620   32.6580   39.7330 H   0  0  0  0  0  0  0  0  0  0  0  0
   37.5020   31.4180   40.7580 N   0  0  0  0  0  0  0  0  0  0  0  0
   38.7220   31.1430   41.2880 C   0  0  0  0  0  0  0  0  0  0  0  0
   38.3320   23.8380   39.6630 C   0  0  0  0  0  0  0  0  0  0  0  0
   37.3270   23.8440   38.6810 C   0  0  0  0  0  0  0  0  0  0  0  0
   36.4110   24.8920   38.6980 C   0  0  0  0  0  0  0  0  0  0  0  0
   36.5170   25.8570   39.6470 N   0  0  0  0  0  0  0  0  0  0  0  0
   37.5140   25.8170   40.5890 C   0  0  0  0  0  0  0  0  0  0  0  0
   38.4040   24.8150   40.5870 N   0  0  0  0  0  0  0  0  0  0  0  0
   39.0510   23.0290   39.6600 H   0  0  0  0  0  0  0  0  0  0  0  0
   37.2240   23.0980   37.9290 H   0  0  0  0  0  0  0  0  0  0  0  0
   35.2870   25.0060   37.6970 C   0  0  0  0  0  0  0  0  0  0  0  0
   34.2480   24.1870   38.0420 F   0  0  0  0  0  0  0  0  0  0  0  0
   34.8430   26.3160   37.6920 F   0  0  0  0  0  0  0  0  0  0  0  0
   35.8130   24.6880   36.4690 F   0  0  0  0  0  0  0  0  0  0  0  0
  1  2  1  0  0  0  0
  2  3  2  0  0  0  0
  2  7  1  0  0  0  0
  3  4  1  0  0  0  0
  4  8  1  0  0  0  0
  4  5  2  0  0  0  0
  5  9  1  0  0  0  0
  6  5  1  0  0  0  0
  6 10  1  0  0  0  0
  7  6  2  0  0  0  0
 11 12  1  0  0  0  0
 11  7  1  0  0  0  0
 12 13  1  0  0  0  0
 14 12  2  0  0  0  0
 15 22  1  0  0  0  0
 15 14  1  0  0  0  0
 16 15  2  0  0  0  0
 17 16  1  0  0  0  0
 18 19  2  0  0  0  0
 18 16  1  0  0  0  0
 19 21  1  0  0  0  0
 20 19  1  0  0  0  0
 21 22  2  0  0  0  0
 22 11  1  0  0  0  0
 23 28  1  0  0  0  0
 24 25  1  0  0  0  0
 24 23  2  0  0  0  0
 25 26  2  0  0  0  0
 26 27  1  0  0  0  0
 27  3  1  0  0  0  0
 28 27  2  0  0  0  0
 29 23  1  0  0  0  0
 30 24  1  0  0  0  0
 31 32  1  0  0  0  0
 31 25  1  0  0  0  0
 33 31  1  0  0  0  0
 34 31  1  0  0  0  0
M  END
>  <minimizedAffinity>
-5.63736486

$$$$

 OpenBabel03252500113D

 34 37  0  0  0  0  0  0  0  0999 V2000
   39.4190   27.5650   40.1280 Cl  0  0  0  0  0  0  0  0  0  0  0  0
   38.3560   27.5000   41.4930 C   0  0  0  0  0  0  0  0  0  0  0  0
   38.0870   28.6370   42.2300 C   0  0  0  0  0  0  0  0  0  0  0  0
   37.2420   28.6280   43.3280 C   0  0  0  0  0  0  0  0  0  0  0  0
   36.6750   27.4110   43.6570 C   0  0  0  0  0  0  0  0  0  0  0  0
   36.9350   26.2720   42.9310 C   0  0  0  0  0  0  0  0  0  0  0  0
   37.7600   26.3120   41.8680 C   0  0  0  0  0  0  0  0  0  0  0  0
   37.0170   29.4910   43.9130 H   0  0  0  0  0  0  0  0  0  0  0  0
   36.0090   27.3330   44.4980 H   0  0  0  0  0  0  0  0  0  0  0  0
   36.5090   25.2980   43.1570 H   0  0  0  0  0  0  0  0  0  0  0  0
   38.0670   25.1500   41.0730 N   0  0  0  0  0  0  0  0  0  0  0  0
   38.9920   24.1750   41.1770 C   0  0  0  0  0  0  0  0  0  0  0  0
   39.7070   24.1820   42.0070 H   0  0  0  0  0  0  0  0  0  0  0  0
   38.8240   23.3250   40.1420 N   0  0  0  0  0  0  0  0  0  0  0  0
   37.7930   23.7720   39.3920 C   0  0  0  0  0  0  0  0  0  0  0  0
   37.2390   23.2520   38.2390 C   0  0  0  0  0  0  0  0  0  0  0  0
   37.6090   22.3360   37.7590 H   0  0  0  0  0  0  0  0  0  0  0  0
   36.1880   23.9080   37.6750 N   0  0  0  0  0  0  0  0  0  0  0  0
   35.7050   25.0410   38.2370 C   0  0  0  0  0  0  0  0  0  0  0  0
   34.8780   25.6290   37.8650 H   0  0  0  0  0  0  0  0  0  0  0  0
   36.2470   25.5450   39.3630 N   0  0  0  0  0  0  0  0  0  0  0  0
   37.2970   24.9320   39.9690 C   0  0  0  0  0  0  0  0  0  0  0  0
   40.4470   31.4620   42.0250 C   0  0  0  0  0  0  0  0  0  0  0  0
   39.8550   32.2860   41.0540 C   0  0  0  0  0  0  0  0  0  0  0  0
   38.6580   31.8620   40.4860 C   0  0  0  0  0  0  0  0  0  0  0  0
   38.1110   30.6840   40.8810 N   0  0  0  0  0  0  0  0  0  0  0  0
   38.7190   29.9060   41.8340 C   0  0  0  0  0  0  0  0  0  0  0  0
   39.8730   30.3000   42.3920 N   0  0  0  0  0  0  0  0  0  0  0  0
   41.3780   31.7810   42.4750 H   0  0  0  0  0  0  0  0  0  0  0  0
   40.2660   33.2130   40.7280 H   0  0  0  0  0  0  0  0  0  0  0  0
   37.9280   32.6610   39.4320 C   0  0  0  0  0  0  0  0  0  0  0  0
   38.3300   32.2880   38.1800 F   0  0  0  0  0  0  0  0  0  0  0  0
   36.5740   32.4130   39.5610 F   0  0  0  0  0  0  0  0  0  0  0  0
   38.1850   33.9850   39.6870 F   0  0  0  0  0  0  0  0  0  0  0  0
  1  2  1  0  0  0  0
  2  7  2  0  0  0  0
  2  3  1  0  0  0  0
  3  4  2  0  0  0  0
  4  5  1  0  0  0  0
  4  8  1  0  0  0  0
  5  9  1  0  0  0  0
  6 10  1  0  0  0  0
  6  5  2  0  0  0  0
  7  6  1  0  0  0  0
 11 12  1  0  0  0  0
 11  7  1  0  0  0  0
 12 13  1  0  0  0  0
 14 12  2  0  0  0  0
 15 22  1  0  0  0  0
 15 14  1  0  0  0  0
 16 15  2  0  0  0  0
 17 16  1  0  0  0  0
 18 19  2  0  0  0  0
 18 16  1  0  0  0  0
 19 21  1  0  0  0  0
 20 19  1  0  0  0  0
 21 22  2  0  0  0  0
 22 11  1  0  0  0  0
 23 28  1  0  0  0  0
 23 29  1  0  0  0  0
 24 23  2  0  0  0  0
 25 26  2  0  0  0  0
 25 24  1  0  0  0  0
 26 27  1  0  0  0  0
 27  3  1  0  0  0  0
 27 28  2  0  0  0  0
 30 24  1  0  0  0  0
 31 33  1  0  0  0  0
 31 34  1  0  0  0  0
 31 25  1  0  0  0  0
 32 31  1  0  0  0  0
M  END
>  <minimizedAffinity>
-5.62292051

$$$$
