
 OpenBabel03242514313D

 41 45  0  0  0  0  0  0  0  0999 V2000
   41.4250   32.0330   40.7420 Cl  0  0  0  0  0  0  0  0  0  0  0  0
   40.6230   33.5900   40.6200 C   0  0  0  0  0  0  0  0  0  0  0  0
   39.2860   33.6320   40.4000 C   0  0  0  0  0  0  0  0  0  0  0  0
   38.7750   34.9040   40.2060 C   0  0  0  0  0  0  0  0  0  0  0  0
   39.5000   36.0720   40.2250 C   0  0  0  0  0  0  0  0  0  0  0  0
   40.8600   35.9860   40.4570 C   0  0  0  0  0  0  0  0  0  0  0  0
   41.4150   34.7290   40.6550 C   0  0  0  0  0  0  0  0  0  0  0  0
   37.6820   34.8980   40.0250 H   0  0  0  0  0  0  0  0  0  0  0  0
   38.9030   36.9360   40.0520 H   0  0  0  0  0  0  0  0  0  0  0  0
   41.3910   36.9270   40.4660 H   0  0  0  0  0  0  0  0  0  0  0  0
   42.8110   34.6790   40.8890 N   0  0  0  0  0  0  0  0  0  0  0  0
   43.7870   34.0470   40.2220 C   0  0  0  0  0  0  0  0  0  0  0  0
   43.6430   33.4370   39.3430 H   0  0  0  0  0  0  0  0  0  0  0  0
   44.9980   34.2520   40.7730 N   0  0  0  0  0  0  0  0  0  0  0  0
   44.8020   35.0560   41.8490 C   0  0  0  0  0  0  0  0  0  0  0  0
   45.7340   35.5480   42.7370 C   0  0  0  0  0  0  0  0  0  0  0  0
   46.7880   35.2950   42.6150 H   0  0  0  0  0  0  0  0  0  0  0  0
   45.2680   36.3400   43.7380 N   0  0  0  0  0  0  0  0  0  0  0  0
   43.9440   36.5980   43.8080 C   0  0  0  0  0  0  0  0  0  0  0  0
   43.6890   37.2380   44.6430 H   0  0  0  0  0  0  0  0  0  0  0  0
   43.0590   36.1010   42.9230 N   0  0  0  0  0  0  0  0  0  0  0  0
   43.4490   35.3090   41.9050 C   0  0  0  0  0  0  0  0  0  0  0  0
   36.4550   31.2590   39.8680 C   0  0  0  0  0  0  0  0  0  0  0  0
   37.2250   32.4300   39.8000 C   0  0  0  0  0  0  0  0  0  0  0  0
   38.4800   32.4420   40.3970 C   0  0  0  0  0  0  0  0  0  0  0  0
   38.8900   31.3090   41.0080 N   0  0  0  0  0  0  0  0  0  0  0  0
   38.1520   30.1890   41.0660 C   0  0  0  0  0  0  0  0  0  0  0  0
   36.9280   30.1600   40.4980 N   0  0  0  0  0  0  0  0  0  0  0  0
   35.4660   31.1030   39.4590 H   0  0  0  0  0  0  0  0  0  0  0  0
   36.6770   33.1100   39.2330 H   0  0  0  0  0  0  0  0  0  0  0  0
   39.9940   28.4740   39.3310 Cl  0  0  0  0  0  0  0  0  0  0  0  0
   39.5130   28.1170   40.9740 C   0  0  0  0  0  0  0  0  0  0  0  0
   38.6660   28.9780   41.6720 C   0  0  0  0  0  0  0  0  0  0  0  0
   38.3660   28.6070   42.9390 C   0  0  0  0  0  0  0  0  0  0  0  0
   38.8450   27.4530   43.5460 C   0  0  0  0  0  0  0  0  0  0  0  0
   39.6740   26.6260   42.8360 C   0  0  0  0  0  0  0  0  0  0  0  0
   40.2060   25.2070   43.7160 Cl  0  0  0  0  0  0  0  0  0  0  0  0
   40.0080   26.9530   41.5570 C   0  0  0  0  0  0  0  0  0  0  0  0
   37.7090   29.2650   43.4950 H   0  0  0  0  0  0  0  0  0  0  0  0
   38.5190   27.2790   44.5780 H   0  0  0  0  0  0  0  0  0  0  0  0
   40.6590   26.2730   41.0420 H   0  0  0  0  0  0  0  0  0  0  0  0
  2  7  1  0  0  0  0
  2  1  1  0  0  0  0
  3  2  2  0  0  0  0
  4  5  2  0  0  0  0
  4  3  1  0  0  0  0
  5  6  1  0  0  0  0
  6 10  1  0  0  0  0
  6  7  2  0  0  0  0
  7 11  1  0  0  0  0
  8  4  1  0  0  0  0
  9  5  1  0  0  0  0
 11 22  1  0  0  0  0
 12 14  2  0  0  0  0
 12 11  1  0  0  0  0
 13 12  1  0  0  0  0
 14 15  1  0  0  0  0
 15 22  2  0  0  0  0
 15 16  1  0  0  0  0
 16 18  2  0  0  0  0
 17 16  1  0  0  0  0
 18 19  1  0  0  0  0
 19 20  1  0  0  0  0
 21 19  2  0  0  0  0
 22 21  1  0  0  0  0
 23 28  1  0  0  0  0
 24 23  2  0  0  0  0
 24 25  1  0  0  0  0
 25  3  1  0  0  0  0
 25 26  2  0  0  0  0
 26 27  1  0  0  0  0
 27 33  1  0  0  0  0
 28 27  2  0  0  0  0
 29 23  1  0  0  0  0
 30 24  1  0  0  0  0
 31 32  1  0  0  0  0
 32 38  2  0  0  0  0
 32 33  1  0  0  0  0
 33 34  2  0  0  0  0
 34 39  1  0  0  0  0
 34 35  1  0  0  0  0
 35 40  1  0  0  0  0
 36 35  2  0  0  0  0
 36 37  1  0  0  0  0
 38 36  1  0  0  0  0
 41 38  1  0  0  0  0
M  END
>  <minimizedAffinity>
-7.88249588

$$$$

 OpenBabel03242514313D

 41 45  0  0  0  0  0  0  0  0999 V2000
   40.1770   28.8930   39.9620 Cl  0  0  0  0  0  0  0  0  0  0  0  0
   38.5620   29.5430   40.1880 C   0  0  0  0  0  0  0  0  0  0  0  0
   38.3470   30.8670   39.9880 C   0  0  0  0  0  0  0  0  0  0  0  0
   37.0690   31.2960   40.3040 C   0  0  0  0  0  0  0  0  0  0  0  0
   36.0510   30.5040   40.7810 C   0  0  0  0  0  0  0  0  0  0  0  0
   36.3100   29.1580   40.9660 C   0  0  0  0  0  0  0  0  0  0  0  0
   37.5800   28.6860   40.6630 C   0  0  0  0  0  0  0  0  0  0  0  0
   36.9330   32.3810   40.1330 H   0  0  0  0  0  0  0  0  0  0  0  0
   35.1500   31.0420   40.9570 H   0  0  0  0  0  0  0  0  0  0  0  0
   35.4830   28.5720   41.3390 H   0  0  0  0  0  0  0  0  0  0  0  0
   37.8100   27.3030   40.8660 N   0  0  0  0  0  0  0  0  0  0  0  0
   37.4030   26.2370   40.1650 C   0  0  0  0  0  0  0  0  0  0  0  0
   36.7930   26.2760   39.2750 H   0  0  0  0  0  0  0  0  0  0  0  0
   37.8390   25.0790   40.6950 N   0  0  0  0  0  0  0  0  0  0  0  0
   38.5660   25.4060   41.7930 C   0  0  0  0  0  0  0  0  0  0  0  0
   39.2210   24.5710   42.6720 C   0  0  0  0  0  0  0  0  0  0  0  0
   39.1900   23.4920   42.5230 H   0  0  0  0  0  0  0  0  0  0  0  0
   39.8830   25.1620   43.7010 N   0  0  0  0  0  0  0  0  0  0  0  0
   39.8660   26.5090   43.8050 C   0  0  0  0  0  0  0  0  0  0  0  0
   40.4250   26.8670   44.6600 H   0  0  0  0  0  0  0  0  0  0  0  0
   39.2160   27.2970   42.9270 N   0  0  0  0  0  0  0  0  0  0  0  0
   38.5380   26.7810   41.8840 C   0  0  0  0  0  0  0  0  0  0  0  0
   40.6670   32.6170   37.6470 C   0  0  0  0  0  0  0  0  0  0  0  0
   39.6230   31.7970   38.1030 C   0  0  0  0  0  0  0  0  0  0  0  0
   39.3700   31.7320   39.4670 C   0  0  0  0  0  0  0  0  0  0  0  0
   40.1470   32.4780   40.2810 N   0  0  0  0  0  0  0  0  0  0  0  0
   41.1410   33.2660   39.8410 C   0  0  0  0  0  0  0  0  0  0  0  0
   41.4070   33.3370   38.5200 N   0  0  0  0  0  0  0  0  0  0  0  0
   40.9830   32.7640   36.6230 H   0  0  0  0  0  0  0  0  0  0  0  0
   39.1770   31.3910   37.2540 H   0  0  0  0  0  0  0  0  0  0  0  0
   40.1310   36.1240   40.2330 Cl  0  0  0  0  0  0  0  0  0  0  0  0
   41.5350   35.4210   41.0030 C   0  0  0  0  0  0  0  0  0  0  0  0
   41.9010   34.1000   40.7500 C   0  0  0  0  0  0  0  0  0  0  0  0
   42.9990   33.6590   41.4060 C   0  0  0  0  0  0  0  0  0  0  0  0
   43.7460   34.4350   42.2830 C   0  0  0  0  0  0  0  0  0  0  0  0
   43.3640   35.7300   42.5120 C   0  0  0  0  0  0  0  0  0  0  0  0
   44.3890   36.5980   43.6370 Cl  0  0  0  0  0  0  0  0  0  0  0  0
   42.2650   36.2240   41.8770 C   0  0  0  0  0  0  0  0  0  0  0  0
   43.2980   32.6330   41.2200 H   0  0  0  0  0  0  0  0  0  0  0  0
   44.6120   33.9460   42.7440 H   0  0  0  0  0  0  0  0  0  0  0  0
   42.0060   37.2440   42.0890 H   0  0  0  0  0  0  0  0  0  0  0  0
  1  2  1  0  0  0  0
  2  7  1  0  0  0  0
  3  2  2  0  0  0  0
  3  4  1  0  0  0  0
  4  5  2  0  0  0  0
  5  9  1  0  0  0  0
  5  6  1  0  0  0  0
  6 10  1  0  0  0  0
  7 11  1  0  0  0  0
  7  6  2  0  0  0  0
  8  4  1  0  0  0  0
 11 22  1  0  0  0  0
 12 14  2  0  0  0  0
 12 11  1  0  0  0  0
 13 12  1  0  0  0  0
 14 15  1  0  0  0  0
 15 22  2  0  0  0  0
 15 16  1  0  0  0  0
 16 18  2  0  0  0  0
 17 16  1  0  0  0  0
 18 19  1  0  0  0  0
 19 20  1  0  0  0  0
 21 19  2  0  0  0  0
 22 21  1  0  0  0  0
 23 24  2  0  0  0  0
 23 28  1  0  0  0  0
 24 25  1  0  0  0  0
 25  3  1  0  0  0  0
 25 26  2  0  0  0  0
 27 26  1  0  0  0  0
 27 33  1  0  0  0  0
 28 27  2  0  0  0  0
 29 23  1  0  0  0  0
 30 24  1  0  0  0  0
 31 32  1  0  0  0  0
 32 38  1  0  0  0  0
 33 32  2  0  0  0  0
 33 34  1  0  0  0  0
 34 35  2  0  0  0  0
 35 36  1  0  0  0  0
 35 40  1  0  0  0  0
 36 37  1  0  0  0  0
 38 41  1  0  0  0  0
 38 36  2  0  0  0  0
 39 34  1  0  0  0  0
M  END
>  <minimizedAffinity>
-7.2861228

$$$$

 OpenBabel03242514313D

 41 45  0  0  0  0  0  0  0  0999 V2000
   39.5130   32.7490   41.1970 Cl  0  0  0  0  0  0  0  0  0  0  0  0
   40.2500   32.8920   39.6100 C   0  0  0  0  0  0  0  0  0  0  0  0
   39.9500   31.9780   38.6540 C   0  0  0  0  0  0  0  0  0  0  0  0
   40.6710   32.1160   37.4800 C   0  0  0  0  0  0  0  0  0  0  0  0
   41.6240   33.0760   37.2310 C   0  0  0  0  0  0  0  0  0  0  0  0
   41.8960   33.9920   38.2300 C   0  0  0  0  0  0  0  0  0  0  0  0
   41.1970   33.8900   39.4250 C   0  0  0  0  0  0  0  0  0  0  0  0
   40.4030   31.3500   36.7270 H   0  0  0  0  0  0  0  0  0  0  0  0
   42.0530   32.9950   36.2610 H   0  0  0  0  0  0  0  0  0  0  0  0
   42.6480   34.7300   37.9910 H   0  0  0  0  0  0  0  0  0  0  0  0
   41.5030   34.8440   40.4260 N   0  0  0  0  0  0  0  0  0  0  0  0
   40.8520   35.9510   40.8060 C   0  0  0  0  0  0  0  0  0  0  0  0
   39.9290   36.3070   40.3740 H   0  0  0  0  0  0  0  0  0  0  0  0
   41.4800   36.5950   41.8070 N   0  0  0  0  0  0  0  0  0  0  0  0
   42.5930   35.8730   42.0930 C   0  0  0  0  0  0  0  0  0  0  0  0
   43.5600   36.1220   43.0420 C   0  0  0  0  0  0  0  0  0  0  0  0
   43.4810   37.0010   43.6830 H   0  0  0  0  0  0  0  0  0  0  0  0
   44.5840   35.2310   43.1240 N   0  0  0  0  0  0  0  0  0  0  0  0
   44.5970   34.1700   42.2870 C   0  0  0  0  0  0  0  0  0  0  0  0
   45.4560   33.5300   42.4410 H   0  0  0  0  0  0  0  0  0  0  0  0
   43.6350   33.9560   41.3690 N   0  0  0  0  0  0  0  0  0  0  0  0
   42.5910   34.7970   41.2330 C   0  0  0  0  0  0  0  0  0  0  0  0
   36.7330   30.0910   38.5150 C   0  0  0  0  0  0  0  0  0  0  0  0
   37.7000   31.0720   38.2460 C   0  0  0  0  0  0  0  0  0  0  0  0
   38.9440   30.9720   38.8560 C   0  0  0  0  0  0  0  0  0  0  0  0
   39.1520   29.9180   39.6760 N   0  0  0  0  0  0  0  0  0  0  0  0
   38.2270   28.9780   39.9260 C   0  0  0  0  0  0  0  0  0  0  0  0
   37.0100   29.0630   39.3480 N   0  0  0  0  0  0  0  0  0  0  0  0
   35.7270   30.0400   38.1210 H   0  0  0  0  0  0  0  0  0  0  0  0
   37.2750   31.7200   37.5500 H   0  0  0  0  0  0  0  0  0  0  0  0
   38.1500   29.4310   42.9470 Cl  0  0  0  0  0  0  0  0  0  0  0  0
   38.5210   27.9200   42.1490 C   0  0  0  0  0  0  0  0  0  0  0  0
   38.5240   27.8300   40.7580 C   0  0  0  0  0  0  0  0  0  0  0  0
   38.8170   26.6110   40.2480 C   0  0  0  0  0  0  0  0  0  0  0  0
   39.1050   25.4930   41.0210 C   0  0  0  0  0  0  0  0  0  0  0  0
   39.0950   25.6100   42.3850 C   0  0  0  0  0  0  0  0  0  0  0  0
   39.4730   24.1290   43.2410 Cl  0  0  0  0  0  0  0  0  0  0  0  0
   38.8060   26.8160   42.9500 C   0  0  0  0  0  0  0  0  0  0  0  0
   38.8240   26.5240   39.1670 H   0  0  0  0  0  0  0  0  0  0  0  0
   39.3240   24.5690   40.4730 H   0  0  0  0  0  0  0  0  0  0  0  0
   38.8110   26.8580   44.0220 H   0  0  0  0  0  0  0  0  0  0  0  0
  2  1  1  0  0  0  0
  3 25  1  0  0  0  0
  3  2  2  0  0  0  0
  4  3  1  0  0  0  0
  5  4  2  0  0  0  0
  5  6  1  0  0  0  0
  6  7  2  0  0  0  0
  7  2  1  0  0  0  0
  7 11  1  0  0  0  0
  8  4  1  0  0  0  0
  9  5  1  0  0  0  0
 10  6  1  0  0  0  0
 11 12  1  0  0  0  0
 11 22  1  0  0  0  0
 12 14  2  0  0  0  0
 13 12  1  0  0  0  0
 14 15  1  0  0  0  0
 15 16  1  0  0  0  0
 16 18  2  0  0  0  0
 16 17  1  0  0  0  0
 19 20  1  0  0  0  0
 19 18  1  0  0  0  0
 21 19  2  0  0  0  0
 22 21  1  0  0  0  0
 22 15  2  0  0  0  0
 23 28  1  0  0  0  0
 24 23  2  0  0  0  0
 24 25  1  0  0  0  0
 25 26  2  0  0  0  0
 26 27  1  0  0  0  0
 27 33  1  0  0  0  0
 28 27  2  0  0  0  0
 29 23  1  0  0  0  0
 30 24  1  0  0  0  0
 32 31  1  0  0  0  0
 32 38  1  0  0  0  0
 33 32  2  0  0  0  0
 34 33  1  0  0  0  0
 34 35  2  0  0  0  0
 35 36  1  0  0  0  0
 36 38  2  0  0  0  0
 36 37  1  0  0  0  0
 38 41  1  0  0  0  0
 39 34  1  0  0  0  0
 40 35  1  0  0  0  0
M  END
>  <minimizedAffinity>
-7.13360834

$$$$

 OpenBabel03242514313D

 41 45  0  0  0  0  0  0  0  0999 V2000
   41.0110   31.3210   38.9730 Cl  0  0  0  0  0  0  0  0  0  0  0  0
   40.1160   32.7220   39.5370 C   0  0  0  0  0  0  0  0  0  0  0  0
   38.7750   32.6250   39.7150 C   0  0  0  0  0  0  0  0  0  0  0  0
   38.1520   33.8140   40.0490 C   0  0  0  0  0  0  0  0  0  0  0  0
   38.7740   35.0300   40.2090 C   0  0  0  0  0  0  0  0  0  0  0  0
   40.1440   35.0860   40.0240 C   0  0  0  0  0  0  0  0  0  0  0  0
   40.8090   33.9150   39.6850 C   0  0  0  0  0  0  0  0  0  0  0  0
   37.0590   33.6960   40.1810 H   0  0  0  0  0  0  0  0  0  0  0  0
   38.1010   35.8120   40.4670 H   0  0  0  0  0  0  0  0  0  0  0  0
   40.5920   36.0590   40.1620 H   0  0  0  0  0  0  0  0  0  0  0  0
   42.2100   34.0100   39.5010 N   0  0  0  0  0  0  0  0  0  0  0  0
   42.9370   34.1600   38.3860 C   0  0  0  0  0  0  0  0  0  0  0  0
   42.5330   34.2370   37.3880 H   0  0  0  0  0  0  0  0  0  0  0  0
   44.2580   34.2060   38.6390 N   0  0  0  0  0  0  0  0  0  0  0  0
   44.3990   34.0790   39.9830 C   0  0  0  0  0  0  0  0  0  0  0  0
   45.5570   34.0680   40.7300 C   0  0  0  0  0  0  0  0  0  0  0  0
   46.5230   34.1690   40.2370 H   0  0  0  0  0  0  0  0  0  0  0  0
   45.4170   33.9260   42.0750 N   0  0  0  0  0  0  0  0  0  0  0  0
   44.1760   33.8070   42.5970 C   0  0  0  0  0  0  0  0  0  0  0  0
   44.1870   33.7000   43.6740 H   0  0  0  0  0  0  0  0  0  0  0  0
   43.0640   33.8230   41.8370 N   0  0  0  0  0  0  0  0  0  0  0  0
   43.1270   33.9600   40.4990 C   0  0  0  0  0  0  0  0  0  0  0  0
   36.2980   30.0220   38.7050 C   0  0  0  0  0  0  0  0  0  0  0  0
   36.9720   31.2520   38.7580 C   0  0  0  0  0  0  0  0  0  0  0  0
   38.0820   31.3720   39.5850 C   0  0  0  0  0  0  0  0  0  0  0  0
   38.4540   30.2820   40.2900 N   0  0  0  0  0  0  0  0  0  0  0  0
   37.8110   29.1050   40.2320 C   0  0  0  0  0  0  0  0  0  0  0  0
   36.7260   28.9710   39.4400 N   0  0  0  0  0  0  0  0  0  0  0  0
   35.4230   29.7820   38.1160 H   0  0  0  0  0  0  0  0  0  0  0  0
   36.4920   31.8800   38.0800 H   0  0  0  0  0  0  0  0  0  0  0  0
   37.5330   29.1860   43.2740 Cl  0  0  0  0  0  0  0  0  0  0  0  0
   38.2190   27.8720   42.3450 C   0  0  0  0  0  0  0  0  0  0  0  0
   38.2920   27.9450   40.9550 C   0  0  0  0  0  0  0  0  0  0  0  0
   38.8330   26.8690   40.3370 C   0  0  0  0  0  0  0  0  0  0  0  0
   39.3010   25.7440   41.0040 C   0  0  0  0  0  0  0  0  0  0  0  0
   39.2180   25.7000   42.3700 C   0  0  0  0  0  0  0  0  0  0  0  0
   39.8420   24.2270   43.0860 Cl  0  0  0  0  0  0  0  0  0  0  0  0
   38.6800   26.7570   43.0400 C   0  0  0  0  0  0  0  0  0  0  0  0
   38.8980   26.9100   39.2560 H   0  0  0  0  0  0  0  0  0  0  0  0
   39.7150   24.9470   40.3750 H   0  0  0  0  0  0  0  0  0  0  0  0
   38.6370   26.6760   44.1100 H   0  0  0  0  0  0  0  0  0  0  0  0
  1  2  1  0  0  0  0
  2  7  2  0  0  0  0
  2  3  1  0  0  0  0
  3  4  2  0  0  0  0
  4  8  1  0  0  0  0
  4  5  1  0  0  0  0
  5  9  1  0  0  0  0
  6 10  1  0  0  0  0
  6  5  2  0  0  0  0
  7  6  1  0  0  0  0
 11  7  1  0  0  0  0
 11 22  1  0  0  0  0
 12 14  2  0  0  0  0
 12 11  1  0  0  0  0
 13 12  1  0  0  0  0
 14 15  1  0  0  0  0
 15 22  2  0  0  0  0
 15 16  1  0  0  0  0
 16 18  2  0  0  0  0
 17 16  1  0  0  0  0
 18 19  1  0  0  0  0
 19 20  1  0  0  0  0
 21 19  2  0  0  0  0
 22 21  1  0  0  0  0
 23 24  2  0  0  0  0
 23 28  1  0  0  0  0
 24 25  1  0  0  0  0
 25  3  1  0  0  0  0
 25 26  2  0  0  0  0
 27 26  1  0  0  0  0
 27 33  1  0  0  0  0
 28 27  2  0  0  0  0
 29 23  1  0  0  0  0
 30 24  1  0  0  0  0
 32 38  1  0  0  0  0
 32 31  1  0  0  0  0
 33 32  2  0  0  0  0
 34 33  1  0  0  0  0
 34 35  2  0  0  0  0
 35 36  1  0  0  0  0
 36 38  2  0  0  0  0
 36 37  1  0  0  0  0
 38 41  1  0  0  0  0
 39 34  1  0  0  0  0
 40 35  1  0  0  0  0
M  END
>  <minimizedAffinity>
-7.02932024

$$$$

 OpenBabel03242514313D

 41 45  0  0  0  0  0  0  0  0999 V2000
   39.6110   31.2590   42.0190 Cl  0  0  0  0  0  0  0  0  0  0  0  0
   38.3800   31.0600   40.7840 C   0  0  0  0  0  0  0  0  0  0  0  0
   37.7150   29.8820   40.6940 C   0  0  0  0  0  0  0  0  0  0  0  0
   36.8510   29.7900   39.6160 C   0  0  0  0  0  0  0  0  0  0  0  0
   36.6300   30.7710   38.6780 C   0  0  0  0  0  0  0  0  0  0  0  0
   37.3240   31.9600   38.8080 C   0  0  0  0  0  0  0  0  0  0  0  0
   38.2040   32.0940   39.8740 C   0  0  0  0  0  0  0  0  0  0  0  0
   36.3300   28.8140   39.5730 H   0  0  0  0  0  0  0  0  0  0  0  0
   35.9230   30.4870   37.9350 H   0  0  0  0  0  0  0  0  0  0  0  0
   37.1190   32.7040   38.0520 H   0  0  0  0  0  0  0  0  0  0  0  0
   38.8990   33.3240   39.9760 N   0  0  0  0  0  0  0  0  0  0  0  0
   38.6460   34.4120   40.7150 C   0  0  0  0  0  0  0  0  0  0  0  0
   37.8130   34.5210   41.3930 H   0  0  0  0  0  0  0  0  0  0  0  0
   39.5570   35.3840   40.5220 N   0  0  0  0  0  0  0  0  0  0  0  0
   40.4460   34.9060   39.6150 C   0  0  0  0  0  0  0  0  0  0  0  0
   41.5610   35.5260   39.0930 C   0  0  0  0  0  0  0  0  0  0  0  0
   41.8200   36.5360   39.4100 H   0  0  0  0  0  0  0  0  0  0  0  0
   42.2900   34.8180   38.1900 N   0  0  0  0  0  0  0  0  0  0  0  0
   41.8900   33.5700   37.8590 C   0  0  0  0  0  0  0  0  0  0  0  0
   42.5450   33.1030   37.1340 H   0  0  0  0  0  0  0  0  0  0  0  0
   40.7950   32.9930   38.3890 N   0  0  0  0  0  0  0  0  0  0  0  0
   40.0260   33.6350   39.2890 C   0  0  0  0  0  0  0  0  0  0  0  0
   37.0430   27.3610   43.3620 C   0  0  0  0  0  0  0  0  0  0  0  0
   36.8130   28.3470   42.3900 C   0  0  0  0  0  0  0  0  0  0  0  0
   37.8900   28.8360   41.6640 C   0  0  0  0  0  0  0  0  0  0  0  0
   39.1100   28.3210   41.9350 N   0  0  0  0  0  0  0  0  0  0  0  0
   39.3250   27.3740   42.8610 C   0  0  0  0  0  0  0  0  0  0  0  0
   38.2920   26.8920   43.5830 N   0  0  0  0  0  0  0  0  0  0  0  0
   36.3090   26.8930   44.0040 H   0  0  0  0  0  0  0  0  0  0  0  0
   35.7830   28.5070   42.3730 H   0  0  0  0  0  0  0  0  0  0  0  0
   40.2020   25.2230   40.8740 Cl  0  0  0  0  0  0  0  0  0  0  0  0
   41.1450   25.8150   42.2230 C   0  0  0  0  0  0  0  0  0  0  0  0
   40.6420   26.8040   43.0660 C   0  0  0  0  0  0  0  0  0  0  0  0
   41.4610   27.1920   44.0720 C   0  0  0  0  0  0  0  0  0  0  0  0
   42.7260   26.6650   44.2910 C   0  0  0  0  0  0  0  0  0  0  0  0
   43.1950   25.6920   43.4480 C   0  0  0  0  0  0  0  0  0  0  0  0
   44.8040   25.1140   43.8340 Cl  0  0  0  0  0  0  0  0  0  0  0  0
   42.4110   25.2680   42.4180 C   0  0  0  0  0  0  0  0  0  0  0  0
   41.0840   27.9610   44.7370 H   0  0  0  0  0  0  0  0  0  0  0  0
   43.2790   27.0730   45.1450 H   0  0  0  0  0  0  0  0  0  0  0  0
   42.8220   24.5040   41.7850 H   0  0  0  0  0  0  0  0  0  0  0  0
  2  1  1  0  0  0  0
  3  2  1  0  0  0  0
  3 25  1  0  0  0  0
  4  3  2  0  0  0  0
  5  6  2  0  0  0  0
  5  4  1  0  0  0  0
  6  7  1  0  0  0  0
  7 11  1  0  0  0  0
  7  2  2  0  0  0  0
  8  4  1  0  0  0  0
  9  5  1  0  0  0  0
 10  6  1  0  0  0  0
 11 12  1  0  0  0  0
 12 13  1  0  0  0  0
 14 12  2  0  0  0  0
 15 14  1  0  0  0  0
 16 17  1  0  0  0  0
 16 15  2  0  0  0  0
 18 16  1  0  0  0  0
 19 18  2  0  0  0  0
 19 21  1  0  0  0  0
 20 19  1  0  0  0  0
 21 22  2  0  0  0  0
 22 15  1  0  0  0  0
 22 11  1  0  0  0  0
 23 28  1  0  0  0  0
 23 29  1  0  0  0  0
 24 23  2  0  0  0  0
 25 26  2  0  0  0  0
 25 24  1  0  0  0  0
 26 27  1  0  0  0  0
 27 33  1  0  0  0  0
 27 28  2  0  0  0  0
 30 24  1  0  0  0  0
 31 32  1  0  0  0  0
 32 38  2  0  0  0  0
 32 33  1  0  0  0  0
 33 34  2  0  0  0  0
 34 35  1  0  0  0  0
 34 39  1  0  0  0  0
 35 40  1  0  0  0  0
 36 37  1  0  0  0  0
 36 35  2  0  0  0  0
 38 36  1  0  0  0  0
 41 38  1  0  0  0  0
M  END
>  <minimizedAffinity>
-7.01558733

$$$$

 OpenBabel03242514313D

 41 45  0  0  0  0  0  0  0  0999 V2000
   39.8700   28.7360   40.1180 Cl  0  0  0  0  0  0  0  0  0  0  0  0
   38.2540   29.4090   40.2480 C   0  0  0  0  0  0  0  0  0  0  0  0
   38.0530   30.7150   39.9440 C   0  0  0  0  0  0  0  0  0  0  0  0
   36.7690   31.1720   40.1900 C   0  0  0  0  0  0  0  0  0  0  0  0
   35.7330   30.4210   40.6950 C   0  0  0  0  0  0  0  0  0  0  0  0
   35.9780   29.0920   40.9860 C   0  0  0  0  0  0  0  0  0  0  0  0
   37.2530   28.5930   40.7570 C   0  0  0  0  0  0  0  0  0  0  0  0
   36.6450   32.2420   39.9350 H   0  0  0  0  0  0  0  0  0  0  0  0
   34.8310   30.9750   40.8030 H   0  0  0  0  0  0  0  0  0  0  0  0
   35.1360   28.5390   41.3770 H   0  0  0  0  0  0  0  0  0  0  0  0
   37.4690   27.2280   41.0690 N   0  0  0  0  0  0  0  0  0  0  0  0
   38.0590   26.6560   42.1260 C   0  0  0  0  0  0  0  0  0  0  0  0
   38.4920   27.1900   42.9590 H   0  0  0  0  0  0  0  0  0  0  0  0
   38.0630   25.3120   42.0450 N   0  0  0  0  0  0  0  0  0  0  0  0
   37.4450   24.9940   40.8790 C   0  0  0  0  0  0  0  0  0  0  0  0
   37.2000   23.7470   40.3470 C   0  0  0  0  0  0  0  0  0  0  0  0
   37.5210   22.8540   40.8840 H   0  0  0  0  0  0  0  0  0  0  0  0
   36.5550   23.7060   39.1510 N   0  0  0  0  0  0  0  0  0  0  0  0
   36.1960   24.8670   38.5600 C   0  0  0  0  0  0  0  0  0  0  0  0
   35.6900   24.7130   37.6160 H   0  0  0  0  0  0  0  0  0  0  0  0
   36.4500   26.0710   39.1080 N   0  0  0  0  0  0  0  0  0  0  0  0
   37.0840   26.1870   40.2910 C   0  0  0  0  0  0  0  0  0  0  0  0
   40.4380   32.2900   37.5450 C   0  0  0  0  0  0  0  0  0  0  0  0
   39.3760   31.5110   38.0300 C   0  0  0  0  0  0  0  0  0  0  0  0
   39.0960   31.5340   39.3900 C   0  0  0  0  0  0  0  0  0  0  0  0
   39.8670   32.3210   40.1720 N   0  0  0  0  0  0  0  0  0  0  0  0
   40.8780   33.0700   39.7030 C   0  0  0  0  0  0  0  0  0  0  0  0
   41.1710   33.0540   38.3860 N   0  0  0  0  0  0  0  0  0  0  0  0
   40.7750   32.3690   36.5200 H   0  0  0  0  0  0  0  0  0  0  0  0
   38.9410   31.0570   37.1990 H   0  0  0  0  0  0  0  0  0  0  0  0
   39.8440   35.9340   39.9650 Cl  0  0  0  0  0  0  0  0  0  0  0  0
   41.2540   35.2780   40.7660 C   0  0  0  0  0  0  0  0  0  0  0  0
   41.6310   33.9500   40.5730 C   0  0  0  0  0  0  0  0  0  0  0  0
   42.7330   33.5480   41.2490 C   0  0  0  0  0  0  0  0  0  0  0  0
   43.4730   34.3700   42.0890 C   0  0  0  0  0  0  0  0  0  0  0  0
   43.0800   35.6700   42.2590 C   0  0  0  0  0  0  0  0  0  0  0  0
   44.0980   36.5970   43.3440 Cl  0  0  0  0  0  0  0  0  0  0  0  0
   41.9770   36.1260   41.6030 C   0  0  0  0  0  0  0  0  0  0  0  0
   43.0400   32.5180   41.1090 H   0  0  0  0  0  0  0  0  0  0  0  0
   44.3440   33.9090   42.5710 H   0  0  0  0  0  0  0  0  0  0  0  0
   41.7090   37.1520   41.7680 H   0  0  0  0  0  0  0  0  0  0  0  0
  1  2  1  0  0  0  0
  2  7  1  0  0  0  0
  3  4  1  0  0  0  0
  3  2  2  0  0  0  0
  4  5  2  0  0  0  0
  5  9  1  0  0  0  0
  5  6  1  0  0  0  0
  6 10  1  0  0  0  0
  7  6  2  0  0  0  0
  7 11  1  0  0  0  0
  8  4  1  0  0  0  0
 11 12  1  0  0  0  0
 12 13  1  0  0  0  0
 14 12  2  0  0  0  0
 15 14  1  0  0  0  0
 16 15  1  0  0  0  0
 16 17  1  0  0  0  0
 18 16  2  0  0  0  0
 19 21  2  0  0  0  0
 19 18  1  0  0  0  0
 20 19  1  0  0  0  0
 21 22  1  0  0  0  0
 22 15  2  0  0  0  0
 22 11  1  0  0  0  0
 23 24  2  0  0  0  0
 23 28  1  0  0  0  0
 24 25  1  0  0  0  0
 25  3  1  0  0  0  0
 25 26  2  0  0  0  0
 27 26  1  0  0  0  0
 27 33  1  0  0  0  0
 28 27  2  0  0  0  0
 29 23  1  0  0  0  0
 30 24  1  0  0  0  0
 31 32  1  0  0  0  0
 32 38  1  0  0  0  0
 33 32  2  0  0  0  0
 33 34  1  0  0  0  0
 34 35  2  0  0  0  0
 35 36  1  0  0  0  0
 35 40  1  0  0  0  0
 36 37  1  0  0  0  0
 38 41  1  0  0  0  0
 38 36  2  0  0  0  0
 39 34  1  0  0  0  0
M  END
>  <minimizedAffinity>
-6.965693

$$$$

 OpenBabel03242514313D

 41 45  0  0  0  0  0  0  0  0999 V2000
   40.1290   31.4140   41.7890 Cl  0  0  0  0  0  0  0  0  0  0  0  0
   40.1530   31.8100   40.0790 C   0  0  0  0  0  0  0  0  0  0  0  0
   39.1820   31.3190   39.2710 C   0  0  0  0  0  0  0  0  0  0  0  0
   39.3590   31.5950   37.9260 C   0  0  0  0  0  0  0  0  0  0  0  0
   40.4030   32.3060   37.3830 C   0  0  0  0  0  0  0  0  0  0  0  0
   41.3700   32.7950   38.2420 C   0  0  0  0  0  0  0  0  0  0  0  0
   41.2330   32.5380   39.6000 C   0  0  0  0  0  0  0  0  0  0  0  0
   38.5500   31.1740   37.2980 H   0  0  0  0  0  0  0  0  0  0  0  0
   40.3390   32.3990   36.3250 H   0  0  0  0  0  0  0  0  0  0  0  0
   42.1700   33.3500   37.7740 H   0  0  0  0  0  0  0  0  0  0  0  0
   42.2420   33.0530   40.4500 N   0  0  0  0  0  0  0  0  0  0  0  0
   43.3970   32.5130   40.8620 C   0  0  0  0  0  0  0  0  0  0  0  0
   43.7560   31.5330   40.5860 H   0  0  0  0  0  0  0  0  0  0  0  0
   44.0840   33.3350   41.6770 N   0  0  0  0  0  0  0  0  0  0  0  0
   43.3420   34.4640   41.8020 C   0  0  0  0  0  0  0  0  0  0  0  0
   43.6190   35.6000   42.5300 C   0  0  0  0  0  0  0  0  0  0  0  0
   44.5420   35.6650   43.1070 H   0  0  0  0  0  0  0  0  0  0  0  0
   42.6980   36.5980   42.4840 N   0  0  0  0  0  0  0  0  0  0  0  0
   41.5820   36.4270   41.7410 C   0  0  0  0  0  0  0  0  0  0  0  0
   40.9220   37.2850   41.7790 H   0  0  0  0  0  0  0  0  0  0  0  0
   41.3420   35.3030   41.0390 N   0  0  0  0  0  0  0  0  0  0  0  0
   42.2100   34.2730   41.0390 C   0  0  0  0  0  0  0  0  0  0  0  0
   35.8520   30.5050   40.7460 C   0  0  0  0  0  0  0  0  0  0  0  0
   36.9040   31.2530   40.1950 C   0  0  0  0  0  0  0  0  0  0  0  0
   38.0570   30.5920   39.7920 C   0  0  0  0  0  0  0  0  0  0  0  0
   38.0920   29.2510   39.9490 N   0  0  0  0  0  0  0  0  0  0  0  0
   37.0820   28.5380   40.4700 C   0  0  0  0  0  0  0  0  0  0  0  0
   35.9570   29.1640   40.8750 N   0  0  0  0  0  0  0  0  0  0  0  0
   34.9030   30.8790   41.1060 H   0  0  0  0  0  0  0  0  0  0  0  0
   36.5730   32.2410   40.1560 H   0  0  0  0  0  0  0  0  0  0  0  0
   37.8240   27.3600   43.1910 Cl  0  0  0  0  0  0  0  0  0  0  0  0
   37.4730   26.4450   41.7420 C   0  0  0  0  0  0  0  0  0  0  0  0
   37.1420   27.0920   40.5530 C   0  0  0  0  0  0  0  0  0  0  0  0
   36.8820   26.2860   39.4970 C   0  0  0  0  0  0  0  0  0  0  0  0
   36.9310   24.8990   39.5470 C   0  0  0  0  0  0  0  0  0  0  0  0
   37.2600   24.2890   40.7290 C   0  0  0  0  0  0  0  0  0  0  0  0
   37.2850   22.5390   40.6570 Cl  0  0  0  0  0  0  0  0  0  0  0  0
   37.5290   25.0550   41.8220 C   0  0  0  0  0  0  0  0  0  0  0  0
   36.6230   26.7740   38.5640 H   0  0  0  0  0  0  0  0  0  0  0  0
   36.6960   24.3730   38.6140 H   0  0  0  0  0  0  0  0  0  0  0  0
   37.7830   24.5320   42.7250 H   0  0  0  0  0  0  0  0  0  0  0  0
  2  1  1  0  0  0  0
  3 25  1  0  0  0  0
  3  2  2  0  0  0  0
  4  3  1  0  0  0  0
  5  4  2  0  0  0  0
  5  6  1  0  0  0  0
  6  7  2  0  0  0  0
  7  2  1  0  0  0  0
  7 11  1  0  0  0  0
  8  4  1  0  0  0  0
  9  5  1  0  0  0  0
 10  6  1  0  0  0  0
 11 12  1  0  0  0  0
 11 22  1  0  0  0  0
 12 14  2  0  0  0  0
 13 12  1  0  0  0  0
 14 15  1  0  0  0  0
 15 16  1  0  0  0  0
 16 17  1  0  0  0  0
 18 16  2  0  0  0  0
 19 20  1  0  0  0  0
 19 18  1  0  0  0  0
 21 22  1  0  0  0  0
 21 19  2  0  0  0  0
 22 15  2  0  0  0  0
 23 28  1  0  0  0  0
 23 29  1  0  0  0  0
 24 23  2  0  0  0  0
 25 26  2  0  0  0  0
 25 24  1  0  0  0  0
 26 27  1  0  0  0  0
 27 33  1  0  0  0  0
 27 28  2  0  0  0  0
 30 24  1  0  0  0  0
 32 38  1  0  0  0  0
 32 31  1  0  0  0  0
 33 32  2  0  0  0  0
 34 35  2  0  0  0  0
 34 33  1  0  0  0  0
 35 36  1  0  0  0  0
 36 38  2  0  0  0  0
 37 36  1  0  0  0  0
 38 41  1  0  0  0  0
 39 34  1  0  0  0  0
 40 35  1  0  0  0  0
M  END
>  <minimizedAffinity>
-6.93349409

$$$$

 OpenBabel03242514313D

 41 45  0  0  0  0  0  0  0  0999 V2000
   36.9930   30.2400   37.1720 Cl  0  0  0  0  0  0  0  0  0  0  0  0
   36.7450   29.7230   38.8320 C   0  0  0  0  0  0  0  0  0  0  0  0
   35.6410   29.0000   39.1440 C   0  0  0  0  0  0  0  0  0  0  0  0
   35.4840   28.7440   40.4950 C   0  0  0  0  0  0  0  0  0  0  0  0
   36.3360   29.1530   41.4940 C   0  0  0  0  0  0  0  0  0  0  0  0
   37.4530   29.8840   41.1340 C   0  0  0  0  0  0  0  0  0  0  0  0
   37.6490   30.1650   39.7880 C   0  0  0  0  0  0  0  0  0  0  0  0
   34.5700   28.1570   40.7100 H   0  0  0  0  0  0  0  0  0  0  0  0
   36.0210   28.8440   42.4620 H   0  0  0  0  0  0  0  0  0  0  0  0
   38.0970   30.1820   41.9490 H   0  0  0  0  0  0  0  0  0  0  0  0
   38.8020   30.9170   39.4560 N   0  0  0  0  0  0  0  0  0  0  0  0
   39.9570   30.5420   38.8900 C   0  0  0  0  0  0  0  0  0  0  0  0
   40.1980   29.5360   38.5800 H   0  0  0  0  0  0  0  0  0  0  0  0
   40.8120   31.5710   38.7430 N   0  0  0  0  0  0  0  0  0  0  0  0
   40.1850   32.6690   39.2360 C   0  0  0  0  0  0  0  0  0  0  0  0
   40.6470   33.9650   39.3090 C   0  0  0  0  0  0  0  0  0  0  0  0
   41.6430   34.2080   38.9390 H   0  0  0  0  0  0  0  0  0  0  0  0
   39.8090   34.8850   39.8540 N   0  0  0  0  0  0  0  0  0  0  0  0
   38.5910   34.4890   40.2860 C   0  0  0  0  0  0  0  0  0  0  0  0
   38.0120   35.3040   40.7000 H   0  0  0  0  0  0  0  0  0  0  0  0
   38.1690   33.2120   40.2000 N   0  0  0  0  0  0  0  0  0  0  0  0
   38.9470   32.2480   39.6710 C   0  0  0  0  0  0  0  0  0  0  0  0
   33.8910   26.8030   36.6860 C   0  0  0  0  0  0  0  0  0  0  0  0
   34.7620   27.2040   37.7110 C   0  0  0  0  0  0  0  0  0  0  0  0
   34.7340   28.5270   38.1330 C   0  0  0  0  0  0  0  0  0  0  0  0
   33.8550   29.3560   37.5290 N   0  0  0  0  0  0  0  0  0  0  0  0
   33.0200   28.9670   36.5530 C   0  0  0  0  0  0  0  0  0  0  0  0
   33.0370   27.6870   36.1240 N   0  0  0  0  0  0  0  0  0  0  0  0
   33.8030   25.8160   36.2530 H   0  0  0  0  0  0  0  0  0  0  0  0
   35.2770   26.3500   38.0100 H   0  0  0  0  0  0  0  0  0  0  0  0
   30.8400   29.9790   38.4410 Cl  0  0  0  0  0  0  0  0  0  0  0  0
   31.0060   30.4010   36.7520 C   0  0  0  0  0  0  0  0  0  0  0  0
   32.0460   29.8780   35.9860 C   0  0  0  0  0  0  0  0  0  0  0  0
   32.0830   30.2790   34.6930 C   0  0  0  0  0  0  0  0  0  0  0  0
   31.1650   31.1500   34.1230 C   0  0  0  0  0  0  0  0  0  0  0  0
   30.1530   31.6480   34.8990 C   0  0  0  0  0  0  0  0  0  0  0  0
   29.0650   32.7360   34.0590 Cl  0  0  0  0  0  0  0  0  0  0  0  0
   30.0710   31.2780   36.2070 C   0  0  0  0  0  0  0  0  0  0  0  0
   32.8860   29.8800   34.0830 H   0  0  0  0  0  0  0  0  0  0  0  0
   31.3170   31.3880   33.0630 H   0  0  0  0  0  0  0  0  0  0  0  0
   29.2600   31.6940   36.7740 H   0  0  0  0  0  0  0  0  0  0  0  0
  1  2  1  0  0  0  0
  2  3  2  0  0  0  0
  2  7  1  0  0  0  0
  3  4  1  0  0  0  0
  4  8  1  0  0  0  0
  4  5  2  0  0  0  0
  5  9  1  0  0  0  0
  6  5  1  0  0  0  0
  6 10  1  0  0  0  0
  7  6  2  0  0  0  0
 11 22  1  0  0  0  0
 11  7  1  0  0  0  0
 12 11  1  0  0  0  0
 13 12  1  0  0  0  0
 14 12  2  0  0  0  0
 14 15  1  0  0  0  0
 15 16  2  0  0  0  0
 15 22  1  0  0  0  0
 16 18  1  0  0  0  0
 17 16  1  0  0  0  0
 18 19  2  0  0  0  0
 19 20  1  0  0  0  0
 21 19  1  0  0  0  0
 22 21  2  0  0  0  0
 23 24  1  0  0  0  0
 24 30  1  0  0  0  0
 24 25  2  0  0  0  0
 25  3  1  0  0  0  0
 26 25  1  0  0  0  0
 27 26  2  0  0  0  0
 28 27  1  0  0  0  0
 28 23  2  0  0  0  0
 29 23  1  0  0  0  0
 32 31  1  0  0  0  0
 33 27  1  0  0  0  0
 33 32  2  0  0  0  0
 34 33  1  0  0  0  0
 35 34  2  0  0  0  0
 35 36  1  0  0  0  0
 36 38  2  0  0  0  0
 37 36  1  0  0  0  0
 38 32  1  0  0  0  0
 38 41  1  0  0  0  0
 39 34  1  0  0  0  0
 40 35  1  0  0  0  0
M  END
>  <minimizedAffinity>
-6.89313173

$$$$

 OpenBabel03242514313D

 41 45  0  0  0  0  0  0  0  0999 V2000
   39.7210   30.0880   40.9750 Cl  0  0  0  0  0  0  0  0  0  0  0  0
   38.5620   30.3590   39.6840 C   0  0  0  0  0  0  0  0  0  0  0  0
   37.5160   29.5080   39.5420 C   0  0  0  0  0  0  0  0  0  0  0  0
   36.7300   29.7440   38.4270 C   0  0  0  0  0  0  0  0  0  0  0  0
   36.9290   30.7400   37.5000 C   0  0  0  0  0  0  0  0  0  0  0  0
   38.0050   31.5900   37.6840 C   0  0  0  0  0  0  0  0  0  0  0  0
   38.8210   31.3870   38.7890 C   0  0  0  0  0  0  0  0  0  0  0  0
   35.8900   29.0270   38.3430 H   0  0  0  0  0  0  0  0  0  0  0  0
   36.2030   30.7370   36.7230 H   0  0  0  0  0  0  0  0  0  0  0  0
   38.1220   32.3590   36.9350 H   0  0  0  0  0  0  0  0  0  0  0  0
   39.9130   32.2760   38.9450 N   0  0  0  0  0  0  0  0  0  0  0  0
   41.1790   32.1880   38.5140 C   0  0  0  0  0  0  0  0  0  0  0  0
   41.5840   31.3670   37.9430 H   0  0  0  0  0  0  0  0  0  0  0  0
   41.9170   33.2540   38.8760 N   0  0  0  0  0  0  0  0  0  0  0  0
   41.0930   34.0760   39.5750 C   0  0  0  0  0  0  0  0  0  0  0  0
   41.3790   35.2920   40.1540 C   0  0  0  0  0  0  0  0  0  0  0  0
   42.3840   35.7080   40.0780 H   0  0  0  0  0  0  0  0  0  0  0  0
   40.3620   35.9170   40.8040 N   0  0  0  0  0  0  0  0  0  0  0  0
   39.1480   35.3240   40.8460 C   0  0  0  0  0  0  0  0  0  0  0  0
   38.4170   35.9100   41.3870 H   0  0  0  0  0  0  0  0  0  0  0  0
   38.9010   34.1320   40.2680 N   0  0  0  0  0  0  0  0  0  0  0  0
   39.8620   33.4570   39.6070 C   0  0  0  0  0  0  0  0  0  0  0  0
   36.7230   27.7200   42.7210 C   0  0  0  0  0  0  0  0  0  0  0  0
   36.9230   28.7710   41.8130 C   0  0  0  0  0  0  0  0  0  0  0  0
   37.2500   28.4670   40.4980 C   0  0  0  0  0  0  0  0  0  0  0  0
   37.3490   27.1610   40.1660 N   0  0  0  0  0  0  0  0  0  0  0  0
   37.1500   26.1580   41.0360 C   0  0  0  0  0  0  0  0  0  0  0  0
   36.8390   26.4340   42.3200 N   0  0  0  0  0  0  0  0  0  0  0  0
   36.4700   27.8020   43.7690 H   0  0  0  0  0  0  0  0  0  0  0  0
   36.7330   29.6520   42.3360 H   0  0  0  0  0  0  0  0  0  0  0  0
   39.7110   24.6260   41.6940 Cl  0  0  0  0  0  0  0  0  0  0  0  0
   38.3180   23.9780   40.8580 C   0  0  0  0  0  0  0  0  0  0  0  0
   37.1990   24.7730   40.6140 C   0  0  0  0  0  0  0  0  0  0  0  0
   36.1770   24.1660   39.9680 C   0  0  0  0  0  0  0  0  0  0  0  0
   36.1960   22.8410   39.5530 C   0  0  0  0  0  0  0  0  0  0  0  0
   37.3080   22.0830   39.8050 C   0  0  0  0  0  0  0  0  0  0  0  0
   37.2030   20.4310   39.2320 Cl  0  0  0  0  0  0  0  0  0  0  0  0
   38.3650   22.6450   40.4540 C   0  0  0  0  0  0  0  0  0  0  0  0
   35.2990   24.7720   39.7700 H   0  0  0  0  0  0  0  0  0  0  0  0
   35.2960   22.4820   39.0390 H   0  0  0  0  0  0  0  0  0  0  0  0
   39.2140   22.0120   40.6280 H   0  0  0  0  0  0  0  0  0  0  0  0
  2  1  1  0  0  0  0
  3  2  1  0  0  0  0
  3 25  1  0  0  0  0
  4  3  2  0  0  0  0
  5  6  2  0  0  0  0
  5  4  1  0  0  0  0
  6  7  1  0  0  0  0
  7 11  1  0  0  0  0
  7  2  2  0  0  0  0
  8  4  1  0  0  0  0
  9  5  1  0  0  0  0
 10  6  1  0  0  0  0
 11 22  1  0  0  0  0
 12 14  2  0  0  0  0
 12 11  1  0  0  0  0
 13 12  1  0  0  0  0
 14 15  1  0  0  0  0
 15 22  2  0  0  0  0
 15 16  1  0  0  0  0
 16 18  2  0  0  0  0
 17 16  1  0  0  0  0
 18 19  1  0  0  0  0
 19 20  1  0  0  0  0
 21 19  2  0  0  0  0
 22 21  1  0  0  0  0
 23 29  1  0  0  0  0
 24 30  1  0  0  0  0
 24 23  2  0  0  0  0
 25 24  1  0  0  0  0
 26 25  2  0  0  0  0
 26 27  1  0  0  0  0
 27 28  2  0  0  0  0
 28 23  1  0  0  0  0
 32 31  1  0  0  0  0
 33 32  1  0  0  0  0
 33 27  1  0  0  0  0
 34 33  2  0  0  0  0
 35 36  2  0  0  0  0
 35 34  1  0  0  0  0
 36 38  1  0  0  0  0
 37 36  1  0  0  0  0
 38 41  1  0  0  0  0
 38 32  2  0  0  0  0
 39 34  1  0  0  0  0
 40 35  1  0  0  0  0
M  END
>  <minimizedAffinity>
-6.79630041

$$$$
