
 OpenBabel03252509083D

 44 48  0  0  0  0  0  0  0  0999 V2000
   47.4900   31.7230   39.2550 C   0  0  0  0  0  0  0  0  0  0  0  0
   47.0630   33.0140   39.1610 C   0  0  0  0  0  0  0  0  0  0  0  0
   47.6830   33.8800   38.2770 C   0  0  0  0  0  0  0  0  0  0  0  0
   48.7250   33.4440   37.4950 C   0  0  0  0  0  0  0  0  0  0  0  0
   49.1890   32.1310   37.5630 C   0  0  0  0  0  0  0  0  0  0  0  0
   48.5500   31.2720   38.4620 C   0  0  0  0  0  0  0  0  0  0  0  0
   47.3770   34.9140   38.1700 H   0  0  0  0  0  0  0  0  0  0  0  0
   49.2780   34.0260   36.7790 H   0  0  0  0  0  0  0  0  0  0  0  0
   49.9910   31.7260   36.9860 H   0  0  0  0  0  0  0  0  0  0  0  0
   48.9020   30.2390   38.5260 H   0  0  0  0  0  0  0  0  0  0  0  0
   45.4270   35.6250   43.3050 Cl  0  0  0  0  0  0  0  0  0  0  0  0
   45.1950   34.7620   41.8040 C   0  0  0  0  0  0  0  0  0  0  0  0
   46.2490   34.2630   41.1090 C   0  0  0  0  0  0  0  0  0  0  0  0
   45.9600   33.5800   39.9410 C   0  0  0  0  0  0  0  0  0  0  0  0
   44.6710   33.4130   39.4960 C   0  0  0  0  0  0  0  0  0  0  0  0
   43.6320   33.9190   40.2040 C   0  0  0  0  0  0  0  0  0  0  0  0
   43.9030   34.5990   41.3680 C   0  0  0  0  0  0  0  0  0  0  0  0
   44.5220   32.8640   38.5660 H   0  0  0  0  0  0  0  0  0  0  0  0
   42.6540   33.7550   39.8050 H   0  0  0  0  0  0  0  0  0  0  0  0
   43.0530   34.9930   41.9140 H   0  0  0  0  0  0  0  0  0  0  0  0
   49.6030   35.7900   41.9150 C   0  0  0  0  0  0  0  0  0  0  0  0
   48.3110   35.6140   41.4140 C   0  0  0  0  0  0  0  0  0  0  0  0
   47.5920   34.4570   41.6240 C   0  0  0  0  0  0  0  0  0  0  0  0
   48.2420   33.5110   42.3540 N   0  0  0  0  0  0  0  0  0  0  0  0
   49.4750   33.6690   42.8370 C   0  0  0  0  0  0  0  0  0  0  0  0
   50.1470   34.8030   42.6150 N   0  0  0  0  0  0  0  0  0  0  0  0
   50.0530   36.7530   41.6720 H   0  0  0  0  0  0  0  0  0  0  0  0
   47.8290   36.3890   40.8400 H   0  0  0  0  0  0  0  0  0  0  0  0
   49.8880   32.8470   43.4020 H   0  0  0  0  0  0  0  0  0  0  0  0
   46.7340   30.6320   40.2870 S   0  0  0  0  0  0  0  0  0  0  0  0
   45.2540   30.4960   40.0100 O   0  0  0  0  0  0  0  0  0  0  0  0
   47.2980   29.2360   39.8280 O   0  0  0  0  0  0  0  0  0  0  0  0
   45.2140   31.8980   42.4920 H   0  0  0  0  0  0  0  0  0  0  0  0
   46.0590   31.2980   42.7680 N   0  0  0  0  0  0  0  0  0  0  0  0
   46.9460   30.5810   41.9880 C   0  0  0  0  0  0  0  0  0  0  0  0
   47.7150   30.0940   42.9770 N   0  0  0  0  0  0  0  0  0  0  0  0
   47.3560   30.4570   44.1870 C   0  0  0  0  0  0  0  0  0  0  0  0
   47.9720   30.1020   45.3860 C   0  0  0  0  0  0  0  0  0  0  0  0
   48.8450   29.4620   45.4190 H   0  0  0  0  0  0  0  0  0  0  0  0
   47.4270   30.5980   46.5280 N   0  0  0  0  0  0  0  0  0  0  0  0
   46.3420   31.3900   46.4410 C   0  0  0  0  0  0  0  0  0  0  0  0
   45.9190   31.7760   47.3480 H   0  0  0  0  0  0  0  0  0  0  0  0
   45.7620   31.7200   45.2490 N   0  0  0  0  0  0  0  0  0  0  0  0
   46.2540   31.2630   44.0920 C   0  0  0  0  0  0  0  0  0  0  0  0
  1 30  1  0  0  0  0
  2  1  1  0  0  0  0
  2 14  1  0  0  0  0
  3  2  2  0  0  0  0
  4  5  2  0  0  0  0
  4  3  1  0  0  0  0
  5  6  1  0  0  0  0
  6 10  1  0  0  0  0
  6  1  2  0  0  0  0
  7  3  1  0  0  0  0
  8  4  1  0  0  0  0
  9  5  1  0  0  0  0
 12 11  1  0  0  0  0
 13 23  1  0  0  0  0
 13 12  2  0  0  0  0
 14 13  1  0  0  0  0
 15 14  2  0  0  0  0
 15 16  1  0  0  0  0
 16 17  2  0  0  0  0
 17 12  1  0  0  0  0
 17 20  1  0  0  0  0
 18 15  1  0  0  0  0
 19 16  1  0  0  0  0
 21 26  1  0  0  0  0
 22 23  1  0  0  0  0
 22 21  2  0  0  0  0
 23 24  2  0  0  0  0
 24 25  1  0  0  0  0
 25 29  1  0  0  0  0
 26 25  2  0  0  0  0
 27 21  1  0  0  0  0
 28 22  1  0  0  0  0
 30 35  1  0  0  0  0
 31 30  2  0  0  0  0
 32 30  2  0  0  0  0
 33 34  1  0  0  0  0
 34 44  1  0  0  0  0
 35 34  1  0  0  0  0
 35 36  2  0  0  0  0
 36 37  1  0  0  0  0
 37 38  1  0  0  0  0
 38 39  1  0  0  0  0
 38 40  2  0  0  0  0
 41 40  1  0  0  0  0
 41 42  1  0  0  0  0
 43 41  2  0  0  0  0
 44 37  2  0  0  0  0
 44 43  1  0  0  0  0
M  END
>  <minimizedAffinity>
-5.28569508

>  <minimizedRMSD>
2.05876184

$$$$
