
 OpenBabel03252507323D

 52 56  0  0  1  0  0  0  0  0999 V2000
   46.9630   32.7810   45.5460 C   0  0  0  0  0  0  0  0  0  0  0  0
   45.8760   33.4570   46.0770 C   0  0  0  0  0  0  0  0  0  0  0  0
   45.1880   34.4070   45.2870 C   0  0  0  0  0  0  0  0  0  0  0  0
   45.6690   34.6000   43.9940 N   0  0  0  0  0  0  0  0  0  0  0  0
   46.7250   33.9160   43.5430 C   0  0  0  0  0  0  0  0  0  0  0  0
   47.3610   33.0230   44.3020 N   0  0  0  0  0  0  0  0  0  0  0  0
   45.3730   33.4950   47.0200 H   0  0  0  0  0  0  0  0  0  0  0  0
   44.3480   35.0080   45.5200 H   0  0  0  0  0  0  0  0  0  0  0  0
   47.1940   34.1820   42.1800 C   0  0  0  0  0  0  0  0  0  0  0  0
   48.1830   35.1070   41.9370 C   0  0  0  0  0  0  0  0  0  0  0  0
   48.6900   35.4230   40.6950 C   0  0  0  0  0  0  0  0  0  0  0  0
   48.1200   34.7250   39.6610 C   0  0  0  0  0  0  0  0  0  0  0  0
   47.1150   33.7810   39.8760 C   0  0  0  0  0  0  0  0  0  0  0  0
   46.6610   33.5180   41.1410 N   0  0  0  0  0  0  0  0  0  0  0  0
   48.5870   35.6210   42.8150 H   0  0  0  0  0  0  0  0  0  0  0  0
   49.4620   36.1480   40.5230 H   0  0  0  0  0  0  0  0  0  0  0  0
   48.4240   34.8750   38.6340 H   0  0  0  0  0  0  0  0  0  0  0  0
   46.5600   33.0860   38.7630 N   0  0  0  0  0  0  0  0  0  0  0  0
   47.1060   32.5760   37.6230 C   0  0  0  0  0  0  0  0  0  0  0  0
   48.1670   32.6640   37.4270 H   0  0  0  0  0  0  0  0  0  0  0  0
   46.1270   32.0050   36.8860 N   0  0  0  0  0  0  0  0  0  0  0  0
   44.9500   32.1410   37.5400 C   0  0  0  0  0  0  0  0  0  0  0  0
   43.6620   31.7370   37.2210 C   0  0  0  0  0  0  0  0  0  0  0  0
   43.4600   31.2050   36.2920 H   0  0  0  0  0  0  0  0  0  0  0  0
   42.6380   31.9970   38.0530 N   0  0  0  0  0  0  0  0  0  0  0  0
   42.9430   32.6660   39.2030 C   0  0  0  0  0  0  0  0  0  0  0  0
   42.1870   32.9330   39.9590 H   0  0  0  0  0  0  0  0  0  0  0  0
   44.1780   33.0760   39.5530 N   0  0  0  0  0  0  0  0  0  0  0  0
   45.2200   32.8250   38.7300 C   0  0  0  0  0  0  0  0  0  0  0  0
   47.6190   31.8000   46.3880 C   0  0  2  0  0  0  0  0  0  0  0  0
   47.4130   30.3550   45.8530 C   0  0  0  0  0  0  0  0  0  0  0  0
   48.2350   29.4060   46.6560 C   0  0  0  0  0  0  0  0  0  0  0  0
   48.2000   29.6000   48.1340 C   0  0  0  0  0  0  0  0  0  0  0  0
   48.1680   30.9810   48.5530 C   0  0  0  0  0  0  0  0  0  0  0  0
   47.1610   31.8470   47.7620 C   0  0  2  0  0  0  0  0  0  0  0  0
   48.7160   31.9360   46.2850 H   0  0  0  0  0  0  0  0  0  0  0  0
   46.3660   30.0590   45.8600 H   0  0  0  0  0  0  0  0  0  0  0  0
   47.7540   30.3520   44.8000 H   0  0  0  0  0  0  0  0  0  0  0  0
   49.2350   29.3890   46.1800 H   0  0  0  0  0  0  0  0  0  0  0  0
   47.8300   28.3700   46.4620 H   0  0  0  0  0  0  0  0  0  0  0  0
   47.8350   28.7840   48.7550 H   0  0  0  0  0  0  0  0  0  0  0  0
   49.3150   29.3630   48.3710 H   0  0  0  0  0  0  0  0  0  0  0  0
   49.1130   31.5760   48.5130 H   0  0  0  0  0  0  0  0  0  0  0  0
   47.8420   31.0840   49.6250 H   0  0  0  0  0  0  0  0  0  0  0  0
   47.2550   32.8000   48.2820 H   0  0  0  0  0  0  0  0  0  0  0  0
   45.8350   31.2350   47.8680 N   0  0  0  0  0  0  0  0  0  0  0  0
   45.1480   30.6770   48.9590 C   0  0  0  0  0  0  0  0  0  0  0  0
   44.5830   31.3870   49.8670 O   0  0  0  0  0  0  0  0  0  0  0  0
   45.1210   29.2480   48.9790 N   0  0  0  0  0  0  0  0  0  0  0  0
   45.2060   31.0780   46.9940 H   0  0  0  0  0  0  0  0  0  0  0  0
   44.8310   28.5830   48.2400 H   0  0  0  0  0  0  0  0  0  0  0  0
   45.4270   28.7240   49.8340 H   0  0  0  0  0  0  0  0  0  0  0  0
  1  2  1  0  0  0  0
  1 30  1  0  0  0  0
  2  7  1  0  0  0  0
  3  8  1  0  0  0  0
  3  2  2  0  0  0  0
  4  3  1  0  0  0  0
  5  4  2  0  0  0  0
  5  6  1  0  0  0  0
  6  1  2  0  0  0  0
  9  5  1  0  0  0  0
 10  9  1  0  0  0  0
 10 15  1  0  0  0  0
 11 10  2  0  0  0  0
 12 13  2  0  0  0  0
 12 11  1  0  0  0  0
 13 14  1  0  0  0  0
 14  9  2  0  0  0  0
 16 11  1  0  0  0  0
 17 12  1  0  0  0  0
 18 13  1  0  0  0  0
 19 18  1  0  0  0  0
 20 19  1  0  0  0  0
 21 22  1  0  0  0  0
 21 19  2  0  0  0  0
 22 29  1  0  0  0  0
 23 22  2  0  0  0  0
 23 25  1  0  0  0  0
 24 23  1  0  0  0  0
 25 26  2  0  0  0  0
 26 28  1  0  0  0  0
 26 27  1  0  0  0  0
 29 18  1  0  0  0  0
 29 28  2  0  0  0  0
 30 36  1  6  0  0  0
 30 35  1  0  0  0  0
 31 37  1  0  0  0  0
 31 30  1  0  0  0  0
 31 32  1  0  0  0  0
 32 33  1  0  0  0  0
 33 42  1  0  0  0  0
 33 34  1  0  0  0  0
 33 41  1  0  0  0  0
 34 44  1  0  0  0  0
 35 46  1  0  0  0  0
 35 45  1  1  0  0  0
 35 34  1  0  0  0  0
 38 31  1  0  0  0  0
 39 32  1  0  0  0  0
 40 32  1  0  0  0  0
 43 34  1  0  0  0  0
 46 47  1  0  0  0  0
 47 49  1  0  0  0  0
 47 48  2  0  0  0  0
 49 52  1  0  0  0  0
 50 46  1  0  0  0  0
 51 49  1  0  0  0  0
M  END
>  <minimizedAffinity>
-6.99063444

>  <minimizedRMSD>
0.182425082

$$$$
