
 OpenBabel03252503463D

 47 51  0  0  1  0  0  0  0  0999 V2000
   46.4440   35.0410   42.3010 C   0  0  0  0  0  0  0  0  0  0  0  0
   47.3650   34.7110   41.7730 H   0  0  0  0  0  0  0  0  0  0  0  0
   46.6080   36.1220   42.5020 H   0  0  0  0  0  0  0  0  0  0  0  0
   45.2730   34.8220   41.4400 C   0  0  0  0  0  0  0  0  0  0  0  0
   44.0970   35.5340   41.5050 C   0  0  0  0  0  0  0  0  0  0  0  0
   43.0280   35.2840   40.6810 C   0  0  0  0  0  0  0  0  0  0  0  0
   43.1380   34.2820   39.7540 C   0  0  0  0  0  0  0  0  0  0  0  0
   44.3180   33.5460   39.6660 C   0  0  0  0  0  0  0  0  0  0  0  0
   45.3960   33.8130   40.5110 C   0  0  0  0  0  0  0  0  0  0  0  0
   44.1000   36.3070   42.2690 H   0  0  0  0  0  0  0  0  0  0  0  0
   42.1370   35.8880   40.7940 H   0  0  0  0  0  0  0  0  0  0  0  0
   42.2650   34.1340   39.1360 H   0  0  0  0  0  0  0  0  0  0  0  0
   44.2340   32.7930   38.8800 H   0  0  0  0  0  0  0  0  0  0  0  0
   46.4520   32.9230   40.1760 N   0  0  0  0  0  0  0  0  0  0  0  0
   46.7690   31.7150   40.7270 C   0  0  0  0  0  0  0  0  0  0  0  0
   46.2480   31.2330   41.5320 H   0  0  0  0  0  0  0  0  0  0  0  0
   47.8300   31.1620   40.1570 N   0  0  0  0  0  0  0  0  0  0  0  0
   48.2320   32.0200   39.2030 C   0  0  0  0  0  0  0  0  0  0  0  0
   49.2480   32.0500   38.2690 C   0  0  0  0  0  0  0  0  0  0  0  0
   49.9400   31.2160   38.2250 H   0  0  0  0  0  0  0  0  0  0  0  0
   49.4090   33.0750   37.4140 N   0  0  0  0  0  0  0  0  0  0  0  0
   48.5730   34.1330   37.4320 C   0  0  0  0  0  0  0  0  0  0  0  0
   48.7850   34.8990   36.7120 H   0  0  0  0  0  0  0  0  0  0  0  0
   47.5570   34.1360   38.3430 N   0  0  0  0  0  0  0  0  0  0  0  0
   47.3820   33.1320   39.1960 C   0  0  0  0  0  0  0  0  0  0  0  0
   45.3540   34.5680   44.4700 C   0  0  0  0  0  0  0  0  0  0  0  0
   46.3250   34.2670   43.5210 C   0  0  0  0  0  0  0  0  0  0  0  0
   47.1690   33.1930   43.8030 C   0  0  0  0  0  0  0  0  0  0  0  0
   47.0470   32.4770   44.9430 N   0  0  0  0  0  0  0  0  0  0  0  0
   46.0850   32.8020   45.8420 C   0  0  0  0  0  0  0  0  0  0  0  0
   45.2370   33.8440   45.6140 N   0  0  0  0  0  0  0  0  0  0  0  0
   44.7090   35.4010   44.2390 H   0  0  0  0  0  0  0  0  0  0  0  0
   47.9600   32.8670   43.1820 H   0  0  0  0  0  0  0  0  0  0  0  0
   47.3900   31.7030   47.6510 C   0  0  2  0  0  0  0  0  0  0  0  0
   45.9810   32.0010   47.0590 C   0  0  1  0  0  0  0  0  0  0  0  0
   45.4310   32.6180   48.1300 O   0  0  0  0  0  0  0  0  0  0  0  0
   45.7210   31.8740   49.2370 C   0  0  0  0  0  0  0  0  0  0  0  0
   46.9070   30.9910   48.9210 C   0  0  2  0  0  0  0  0  0  0  0  0
   47.9580   31.0340   46.9830 H   0  0  0  0  0  0  0  0  0  0  0  0
   45.4980   31.0080   46.9000 H   0  0  0  0  0  0  0  0  0  0  0  0
   44.8340   31.2970   49.5670 H   0  0  0  0  0  0  0  0  0  0  0  0
   45.9620   32.5610   50.0760 H   0  0  0  0  0  0  0  0  0  0  0  0
   46.5400   29.9870   48.7030 H   0  0  0  0  0  0  0  0  0  0  0  0
   47.9950   32.8450   48.0190 O   0  0  0  0  0  0  0  0  0  0  0  0
   48.8560   33.0410   47.5910 H   0  0  0  0  0  0  0  0  0  0  0  0
   47.8560   30.9600   49.9060 O   0  0  0  0  0  0  0  0  0  0  0  0
   47.3970   30.8620   50.7870 H   0  0  0  0  0  0  0  0  0  0  0  0
  1  3  1  0  0  0  0
  1 27  1  0  0  0  0
  2  1  1  0  0  0  0
  4  5  1  0  0  0  0
  4  1  1  0  0  0  0
  5 10  1  0  0  0  0
  6 11  1  0  0  0  0
  6  5  2  0  0  0  0
  7  6  1  0  0  0  0
  8  7  2  0  0  0  0
  8  9  1  0  0  0  0
  9  4  2  0  0  0  0
 12  7  1  0  0  0  0
 13  8  1  0  0  0  0
 14  9  1  0  0  0  0
 14 15  1  0  0  0  0
 15 16  1  0  0  0  0
 17 15  2  0  0  0  0
 18 17  1  0  0  0  0
 19 18  2  0  0  0  0
 20 19  1  0  0  0  0
 21 22  2  0  0  0  0
 21 19  1  0  0  0  0
 22 24  1  0  0  0  0
 23 22  1  0  0  0  0
 24 25  2  0  0  0  0
 25 18  1  0  0  0  0
 25 14  1  0  0  0  0
 26 31  1  0  0  0  0
 27 28  1  0  0  0  0
 27 26  2  0  0  0  0
 28 29  2  0  0  0  0
 29 30  1  0  0  0  0
 30 35  1  0  0  0  0
 31 30  2  0  0  0  0
 32 26  1  0  0  0  0
 33 28  1  0  0  0  0
 34 39  1  6  0  0  0
 34 44  1  0  0  0  0
 34 38  1  0  0  0  0
 35 40  1  6  0  0  0
 35 34  1  0  0  0  0
 35 36  1  0  0  0  0
 36 37  1  0  0  0  0
 37 41  1  0  0  0  0
 37 42  1  0  0  0  0
 38 43  1  6  0  0  0
 38 37  1  0  0  0  0
 38 46  1  0  0  0  0
 45 44  1  0  0  0  0
 46 47  1  0  0  0  0
M  END
>  <minimizedAffinity>
-7.04085541

>  <minimizedRMSD>
0.709186018

$$$$
