
 OpenBabel03252508173D

 50 55  0  0  1  0  0  0  0  0999 V2000
   46.3960   31.7420   48.2940 C   0  0  1  0  0  0  0  0  0  0  0  0
   45.7820   30.9370   49.3890 C   0  0  0  0  0  0  0  0  0  0  0  0
   47.2170   31.2180   49.4050 C   0  0  1  0  0  0  0  0  0  0  0  0
   45.9390   32.7760   48.3010 H   0  0  0  0  0  0  0  0  0  0  0  0
   45.5130   29.8690   49.1850 H   0  0  0  0  0  0  0  0  0  0  0  0
   45.1250   31.3700   50.1550 H   0  0  0  0  0  0  0  0  0  0  0  0
   47.5650   31.9580   50.1550 H   0  0  0  0  0  0  0  0  0  0  0  0
   48.2160   30.1500   49.0940 C   0  0  2  0  0  0  0  0  0  0  0  0
   49.4190   30.1230   50.0720 C   0  0  0  0  0  0  0  0  0  0  0  0
   49.6250   30.5930   48.6980 C   0  0  1  0  0  0  0  0  0  0  0  0
   47.8880   29.1140   48.8860 H   0  0  0  0  0  0  0  0  0  0  0  0
   49.4560   30.9020   50.8590 H   0  0  0  0  0  0  0  0  0  0  0  0
   49.8870   29.1820   50.3400 H   0  0  0  0  0  0  0  0  0  0  0  0
   49.7150   31.6900   48.4620 H   0  0  0  0  0  0  0  0  0  0  0  0
   50.2060   29.7560   47.6660 N   0  0  0  0  0  0  0  0  0  0  0  0
   49.4860   29.2040   46.6720 C   0  0  0  0  0  0  0  0  0  0  0  0
   48.4240   29.2790   46.4800 H   0  0  0  0  0  0  0  0  0  0  0  0
   50.3080   28.4870   45.8770 N   0  0  0  0  0  0  0  0  0  0  0  0
   51.5310   28.6200   46.4110 C   0  0  0  0  0  0  0  0  0  0  0  0
   52.7380   28.0770   45.9740 C   0  0  0  0  0  0  0  0  0  0  0  0
   52.8480   27.4450   45.1010 H   0  0  0  0  0  0  0  0  0  0  0  0
   53.8340   28.3700   46.7040 N   0  0  0  0  0  0  0  0  0  0  0  0
   53.7720   29.1440   47.7940 C   0  0  0  0  0  0  0  0  0  0  0  0
   54.6530   29.3780   48.3770 H   0  0  0  0  0  0  0  0  0  0  0  0
   52.6200   29.6850   48.2440 N   0  0  0  0  0  0  0  0  0  0  0  0
   51.5060   29.4200   47.5500 C   0  0  0  0  0  0  0  0  0  0  0  0
   46.4130   31.0710   46.9660 C   0  0  0  0  0  0  0  0  0  0  0  0
   45.4890   30.4280   46.9210 H   0  0  0  0  0  0  0  0  0  0  0  0
   47.2900   30.5130   46.6920 H   0  0  0  0  0  0  0  0  0  0  0  0
   45.8340   33.2300   46.2190 C   0  0  0  0  0  3  0  0  0  0  0  0
   46.2090   32.0760   45.8560 C   0  0  0  0  0  3  0  0  0  0  0  0
   44.4910   36.1250   44.3740 C   0  0  0  0  0  0  0  0  0  0  0  0
   45.1490   36.0510   43.1520 C   0  0  0  0  0  0  0  0  0  0  0  0
   46.0210   35.0220   43.0030 C   0  0  0  0  0  0  0  0  0  0  0  0
   46.2210   34.1270   44.0090 N   0  0  0  0  0  0  0  0  0  0  0  0
   45.5610   34.2330   45.1860 C   0  0  0  0  0  0  0  0  0  0  0  0
   44.7140   35.2330   45.3310 N   0  0  0  0  0  0  0  0  0  0  0  0
   43.7900   36.9310   44.5310 H   0  0  0  0  0  0  0  0  0  0  0  0
   45.0180   36.7340   42.3380 H   0  0  0  0  0  0  0  0  0  0  0  0
   46.7850   34.8130   41.7750 C   0  0  0  0  0  0  0  0  0  0  0  0
   48.0170   35.3620   41.5220 C   0  0  0  0  0  0  0  0  0  0  0  0
   48.7320   35.1600   40.3620 C   0  0  0  0  0  0  0  0  0  0  0  0
   48.2010   34.3550   39.3660 C   0  0  0  0  0  0  0  0  0  0  0  0
   46.9700   33.7830   39.5680 C   0  0  0  0  0  0  0  0  0  0  0  0
   46.3070   34.0260   40.7540 C   0  0  0  0  0  0  0  0  0  0  0  0
   48.4660   36.0050   42.2950 H   0  0  0  0  0  0  0  0  0  0  0  0
   49.7080   35.6120   40.1970 H   0  0  0  0  0  0  0  0  0  0  0  0
   48.7470   34.1910   38.4600 H   0  0  0  0  0  0  0  0  0  0  0  0
   46.5260   33.1550   38.8220 H   0  0  0  0  0  0  0  0  0  0  0  0
   45.3290   33.5450   40.8670 H   0  0  0  0  0  0  0  0  0  0  0  0
  1  4  1  1  0  0  0
  1  2  1  0  0  0  0
  1  3  1  0  0  0  0
  2  3  1  0  0  0  0
  2  6  1  0  0  0  0
  3  7  1  1  0  0  0
  5  2  1  0  0  0  0
  8 11  1  6  0  0  0
  8  3  1  0  0  0  0
  8  9  1  0  0  0  0
  9 13  1  0  0  0  0
  9 12  1  0  0  0  0
 10 14  1  6  0  0  0
 10  8  1  0  0  0  0
 10  9  1  0  0  0  0
 15 10  1  0  0  0  0
 16 15  1  0  0  0  0
 17 16  1  0  0  0  0
 18 19  1  0  0  0  0
 18 16  2  0  0  0  0
 19 26  1  0  0  0  0
 20 19  2  0  0  0  0
 20 22  1  0  0  0  0
 21 20  1  0  0  0  0
 22 23  2  0  0  0  0
 23 25  1  0  0  0  0
 23 24  1  0  0  0  0
 26 15  1  0  0  0  0
 26 25  2  0  0  0  0
 27  1  1  0  0  0  0
 28 27  1  0  0  0  0
 29 27  1  0  0  0  0
 31 30  2  0  0  0  0
 31 27  1  0  0  0  0
 32 38  1  0  0  0  0
 32 37  1  0  0  0  0
 33 32  2  0  0  0  0
 34 33  1  0  0  0  0
 34 35  2  0  0  0  0
 35 36  1  0  0  0  0
 36 37  2  0  0  0  0
 36 30  1  0  0  0  0
 39 33  1  0  0  0  0
 40 34  1  0  0  0  0
 41 40  1  0  0  0  0
 41 46  1  0  0  0  0
 42 41  2  0  0  0  0
 43 44  2  0  0  0  0
 43 42  1  0  0  0  0
 44 45  1  0  0  0  0
 45 50  1  0  0  0  0
 45 40  2  0  0  0  0
 47 42  1  0  0  0  0
 48 43  1  0  0  0  0
 49 44  1  0  0  0  0
M  END
>  <minimizedAffinity>
-6.24985838

>  <minimizedRMSD>
1.54669213

$$$$
