
 OpenBabel03242519013D

 42 46  0  0  1  0  0  0  0  0999 V2000
   35.8860   30.1820   39.8440 C   0  0  1  0  0  0  0  0  0  0  0  0
   34.8420   29.1860   39.4220 C   0  0  0  0  0  0  0  0  0  0  0  0
   35.4210   29.0090   40.6710 C   0  0  1  0  0  0  0  0  0  0  0  0
   35.5530   31.1920   40.1630 H   0  0  0  0  0  0  0  0  0  0  0  0
   33.7910   29.6050   39.3610 H   0  0  0  0  0  0  0  0  0  0  0  0
   35.0510   28.6420   38.4770 H   0  0  0  0  0  0  0  0  0  0  0  0
   35.0000   29.3880   41.6290 H   0  0  0  0  0  0  0  0  0  0  0  0
   37.1820   30.2020   39.1680 C   0  0  0  0  0  0  0  0  0  0  0  0
   37.2810   29.4850   37.9660 C   0  0  0  0  0  0  0  0  0  0  0  0
   38.5320   29.5210   37.3240 C   0  0  0  0  0  0  0  0  0  0  0  0
   39.5360   30.2360   37.9070 N   0  0  0  0  0  0  0  0  0  0  0  0
   39.3800   30.9190   39.0910 C   0  0  0  0  0  0  0  0  0  0  0  0
   38.1830   30.9070   39.7380 N   0  0  0  0  0  0  0  0  0  0  0  0
   36.4390   28.9370   37.6250 H   0  0  0  0  0  0  0  0  0  0  0  0
   38.6510   28.9930   36.4120 H   0  0  0  0  0  0  0  0  0  0  0  0
   40.4850   31.6390   39.6300 N   0  0  0  0  0  0  0  0  0  0  0  0
   40.8600   31.6010   40.9210 C   0  0  0  0  0  0  0  0  0  0  0  0
   40.3700   31.0260   41.6850 H   0  0  0  0  0  0  0  0  0  0  0  0
   41.9400   32.3990   41.0830 N   0  0  0  0  0  0  0  0  0  0  0  0
   42.2040   32.9160   39.8540 C   0  0  0  0  0  0  0  0  0  0  0  0
   43.2400   33.8000   39.5390 C   0  0  0  0  0  0  0  0  0  0  0  0
   43.9350   34.1480   40.2930 H   0  0  0  0  0  0  0  0  0  0  0  0
   43.2790   34.1610   38.2430 N   0  0  0  0  0  0  0  0  0  0  0  0
   42.3980   33.7100   37.3310 C   0  0  0  0  0  0  0  0  0  0  0  0
   42.4730   34.0320   36.2970 H   0  0  0  0  0  0  0  0  0  0  0  0
   41.3980   32.8530   37.6500 N   0  0  0  0  0  0  0  0  0  0  0  0
   41.2950   32.4480   38.9270 C   0  0  0  0  0  0  0  0  0  0  0  0
   36.2640   27.8130   40.9360 C   0  0  0  0  0  0  0  0  0  0  0  0
   36.4020   26.7800   40.0400 C   0  0  0  0  0  0  0  0  0  0  0  0
   37.1280   25.6410   40.2570 C   0  0  0  0  0  0  0  0  0  0  0  0
   37.7720   25.5190   41.4650 C   0  0  0  0  0  0  0  0  0  0  0  0
   37.6580   26.5410   42.4020 C   0  0  0  0  0  0  0  0  0  0  0  0
   36.9130   27.6500   42.1170 C   0  0  0  0  0  0  0  0  0  0  0  0
   35.8950   26.8620   39.0710 H   0  0  0  0  0  0  0  0  0  0  0  0
   37.1800   24.8790   39.4900 H   0  0  0  0  0  0  0  0  0  0  0  0
   38.3410   24.5870   41.5860 H   0  0  0  0  0  0  0  0  0  0  0  0
   38.2240   26.2800   43.2880 H   0  0  0  0  0  0  0  0  0  0  0  0
   38.1800   29.3000   43.3140 C   0  0  0  0  0  0  0  0  0  0  0  0
   38.8300   29.0510   42.2970 O   0  0  0  0  0  0  0  0  0  0  0  0
   36.9790   28.5060   43.2750 N   0  0  0  0  0  0  0  0  0  0  0  0
   38.2820   29.9340   44.1830 H   0  0  0  0  0  0  0  0  0  0  0  0
   36.1910   28.4910   43.9690 H   0  0  0  0  0  0  0  0  0  0  0  0
  1  4  1  1  0  0  0
  1  3  1  0  0  0  0
  2  1  1  0  0  0  0
  2  3  1  0  0  0  0
  3 28  1  0  0  0  0
  3  7  1  1  0  0  0
  5  2  1  0  0  0  0
  6  2  1  0  0  0  0
  8 13  1  0  0  0  0
  8  1  1  0  0  0  0
  9  8  2  0  0  0  0
 10 11  2  0  0  0  0
 10  9  1  0  0  0  0
 11 12  1  0  0  0  0
 12 16  1  0  0  0  0
 12 13  2  0  0  0  0
 14  9  1  0  0  0  0
 15 10  1  0  0  0  0
 16 17  1  0  0  0  0
 17 19  2  0  0  0  0
 17 18  1  0  0  0  0
 20 19  1  0  0  0  0
 21 20  1  0  0  0  0
 21 22  1  0  0  0  0
 23 21  2  0  0  0  0
 24 26  2  0  0  0  0
 24 23  1  0  0  0  0
 25 24  1  0  0  0  0
 26 27  1  0  0  0  0
 27 16  1  0  0  0  0
 27 20  2  0  0  0  0
 28 33  1  0  0  0  0
 29 30  1  0  0  0  0
 29 28  2  0  0  0  0
 30 31  2  0  0  0  0
 31 36  1  0  0  0  0
 31 32  1  0  0  0  0
 32 37  1  0  0  0  0
 33 32  2  0  0  0  0
 33 40  1  0  0  0  0
 34 29  1  0  0  0  0
 35 30  1  0  0  0  0
 38 41  1  0  0  0  0
 39 38  2  0  0  0  0
 40 38  1  0  0  0  0
 40 42  1  0  0  0  0
M  END
>  <minimizedAffinity>
-6.36244678

$$$$

 OpenBabel03242519013D

 42 46  0  0  1  0  0  0  0  0999 V2000
   35.8380   30.2270   40.0820 C   0  0  1  0  0  0  0  0  0  0  0  0
   34.8900   29.2830   39.3990 C   0  0  0  0  0  0  0  0  0  0  0  0
   35.3630   28.9130   40.6500 C   0  0  1  0  0  0  0  0  0  0  0  0
   35.4260   31.1540   40.5340 H   0  0  0  0  0  0  0  0  0  0  0  0
   33.8280   29.6680   39.3070 H   0  0  0  0  0  0  0  0  0  0  0  0
   35.2100   28.9190   38.4000 H   0  0  0  0  0  0  0  0  0  0  0  0
   34.8370   29.1050   41.6130 H   0  0  0  0  0  0  0  0  0  0  0  0
   37.1860   30.4110   39.5490 C   0  0  0  0  0  0  0  0  0  0  0  0
   37.3730   30.1310   38.1870 C   0  0  0  0  0  0  0  0  0  0  0  0
   38.6740   30.3210   37.6870 C   0  0  0  0  0  0  0  0  0  0  0  0
   39.6390   30.7520   38.5480 N   0  0  0  0  0  0  0  0  0  0  0  0
   39.3970   31.0080   39.8780 C   0  0  0  0  0  0  0  0  0  0  0  0
   38.1490   30.8370   40.3940 N   0  0  0  0  0  0  0  0  0  0  0  0
   36.5520   29.7690   37.6210 H   0  0  0  0  0  0  0  0  0  0  0  0
   38.8590   30.1220   36.6620 H   0  0  0  0  0  0  0  0  0  0  0  0
   40.4660   31.4540   40.7070 N   0  0  0  0  0  0  0  0  0  0  0  0
   40.7300   30.9710   41.9340 C   0  0  0  0  0  0  0  0  0  0  0  0
   40.1660   30.1980   42.4220 H   0  0  0  0  0  0  0  0  0  0  0  0
   41.8080   31.6170   42.4330 N   0  0  0  0  0  0  0  0  0  0  0  0
   42.1850   32.5010   41.4720 C   0  0  0  0  0  0  0  0  0  0  0  0
   43.2610   33.3900   41.5490 C   0  0  0  0  0  0  0  0  0  0  0  0
   43.8970   33.4340   42.4240 H   0  0  0  0  0  0  0  0  0  0  0  0
   43.4170   34.1600   40.4560 N   0  0  0  0  0  0  0  0  0  0  0  0
   42.6080   34.0810   39.3830 C   0  0  0  0  0  0  0  0  0  0  0  0
   42.7770   34.7250   38.5260 H   0  0  0  0  0  0  0  0  0  0  0  0
   41.5680   33.2140   39.3220 N   0  0  0  0  0  0  0  0  0  0  0  0
   41.3500   32.4120   40.3780 C   0  0  0  0  0  0  0  0  0  0  0  0
   36.2390   27.7200   40.7900 C   0  0  0  0  0  0  0  0  0  0  0  0
   36.5720   26.9070   39.7330 C   0  0  0  0  0  0  0  0  0  0  0  0
   37.3370   25.7770   39.8210 C   0  0  0  0  0  0  0  0  0  0  0  0
   37.8110   25.4230   41.0620 C   0  0  0  0  0  0  0  0  0  0  0  0
   37.4950   26.2190   42.1600 C   0  0  0  0  0  0  0  0  0  0  0  0
   36.7240   27.3340   41.9980 C   0  0  0  0  0  0  0  0  0  0  0  0
   36.2040   27.1740   38.7360 H   0  0  0  0  0  0  0  0  0  0  0  0
   37.5490   25.1970   38.9310 H   0  0  0  0  0  0  0  0  0  0  0  0
   38.4190   24.5090   41.0760 H   0  0  0  0  0  0  0  0  0  0  0  0
   37.9460   25.7960   43.0490 H   0  0  0  0  0  0  0  0  0  0  0  0
   37.6860   28.7500   43.6800 C   0  0  0  0  0  0  0  0  0  0  0  0
   38.4850   28.7540   42.7410 O   0  0  0  0  0  0  0  0  0  0  0  0
   36.5670   27.9260   43.3030 N   0  0  0  0  0  0  0  0  0  0  0  0
   37.6200   29.1880   44.6650 H   0  0  0  0  0  0  0  0  0  0  0  0
   35.6960   27.7260   43.8540 H   0  0  0  0  0  0  0  0  0  0  0  0
  1  4  1  1  0  0  0
  1  3  1  0  0  0  0
  2  1  1  0  0  0  0
  2  3  1  0  0  0  0
  3 28  1  0  0  0  0
  3  7  1  1  0  0  0
  5  2  1  0  0  0  0
  6  2  1  0  0  0  0
  8  1  1  0  0  0  0
  8 13  1  0  0  0  0
  9  8  2  0  0  0  0
 10  9  1  0  0  0  0
 10 11  2  0  0  0  0
 11 12  1  0  0  0  0
 12 13  2  0  0  0  0
 12 16  1  0  0  0  0
 14  9  1  0  0  0  0
 15 10  1  0  0  0  0
 16 17  1  0  0  0  0
 17 18  1  0  0  0  0
 17 19  2  0  0  0  0
 20 21  1  0  0  0  0
 20 19  1  0  0  0  0
 21 22  1  0  0  0  0
 23 21  2  0  0  0  0
 24 23  1  0  0  0  0
 25 24  1  0  0  0  0
 26 24  2  0  0  0  0
 26 27  1  0  0  0  0
 27 16  1  0  0  0  0
 27 20  2  0  0  0  0
 28 33  1  0  0  0  0
 29 30  1  0  0  0  0
 29 28  2  0  0  0  0
 30 31  2  0  0  0  0
 31 36  1  0  0  0  0
 31 32  1  0  0  0  0
 32 37  1  0  0  0  0
 33 32  2  0  0  0  0
 33 40  1  0  0  0  0
 34 29  1  0  0  0  0
 35 30  1  0  0  0  0
 38 41  1  0  0  0  0
 39 38  2  0  0  0  0
 40 38  1  0  0  0  0
 40 42  1  0  0  0  0
M  END
>  <minimizedAffinity>
-6.31377649

$$$$

 OpenBabel03242519013D

 42 46  0  0  1  0  0  0  0  0999 V2000
   36.7640   25.3110   42.5230 C   0  0  1  0  0  0  0  0  0  0  0  0
   36.8520   24.4280   41.3100 C   0  0  0  0  0  0  0  0  0  0  0  0
   37.8450   24.2900   42.2700 C   0  0  1  0  0  0  0  0  0  0  0  0
   36.0070   25.0670   43.2980 H   0  0  0  0  0  0  0  0  0  0  0  0
   36.0420   23.6390   41.2430 H   0  0  0  0  0  0  0  0  0  0  0  0
   36.8990   24.9560   40.3340 H   0  0  0  0  0  0  0  0  0  0  0  0
   37.8350   23.5410   43.0940 H   0  0  0  0  0  0  0  0  0  0  0  0
   36.9940   26.7480   42.3910 C   0  0  0  0  0  0  0  0  0  0  0  0
   37.3670   27.4390   43.5530 C   0  0  0  0  0  0  0  0  0  0  0  0
   37.5930   28.8200   43.4080 C   0  0  0  0  0  0  0  0  0  0  0  0
   37.4330   29.3730   42.1720 N   0  0  0  0  0  0  0  0  0  0  0  0
   37.0620   28.6430   41.0670 C   0  0  0  0  0  0  0  0  0  0  0  0
   36.8380   27.3050   41.1720 N   0  0  0  0  0  0  0  0  0  0  0  0
   37.4280   26.9070   44.4690 H   0  0  0  0  0  0  0  0  0  0  0  0
   37.8790   29.3810   44.2610 H   0  0  0  0  0  0  0  0  0  0  0  0
   36.9160   29.3040   39.8130 N   0  0  0  0  0  0  0  0  0  0  0  0
   35.8810   29.1240   38.9740 C   0  0  0  0  0  0  0  0  0  0  0  0
   35.0530   28.4640   39.1560 H   0  0  0  0  0  0  0  0  0  0  0  0
   36.0640   29.9030   37.8840 N   0  0  0  0  0  0  0  0  0  0  0  0
   37.2370   30.5570   38.0920 C   0  0  0  0  0  0  0  0  0  0  0  0
   37.8310   31.4770   37.2220 C   0  0  0  0  0  0  0  0  0  0  0  0
   37.3710   31.7410   36.2790 H   0  0  0  0  0  0  0  0  0  0  0  0
   38.9970   31.9810   37.6690 N   0  0  0  0  0  0  0  0  0  0  0  0
   39.5420   31.6310   38.8480 C   0  0  0  0  0  0  0  0  0  0  0  0
   40.4850   32.0670   39.1620 H   0  0  0  0  0  0  0  0  0  0  0  0
   38.9560   30.7380   39.6810 N   0  0  0  0  0  0  0  0  0  0  0  0
   37.7880   30.1910   39.3030 C   0  0  0  0  0  0  0  0  0  0  0  0
   39.2490   24.6520   41.9430 C   0  0  0  0  0  0  0  0  0  0  0  0
   40.2560   24.6670   42.8790 C   0  0  0  0  0  0  0  0  0  0  0  0
   41.5510   25.0350   42.6370 C   0  0  0  0  0  0  0  0  0  0  0  0
   41.8730   25.4210   41.3570 C   0  0  0  0  0  0  0  0  0  0  0  0
   40.8830   25.4220   40.3790 C   0  0  0  0  0  0  0  0  0  0  0  0
   39.6100   25.0430   40.6940 C   0  0  0  0  0  0  0  0  0  0  0  0
   40.0170   24.3610   43.9040 H   0  0  0  0  0  0  0  0  0  0  0  0
   42.2780   25.0150   43.4380 H   0  0  0  0  0  0  0  0  0  0  0  0
   42.9250   25.7060   41.2170 H   0  0  0  0  0  0  0  0  0  0  0  0
   41.3090   25.7510   39.4390 H   0  0  0  0  0  0  0  0  0  0  0  0
   38.9220   24.0000   38.6460 C   0  0  0  0  0  0  0  0  0  0  0  0
   39.6400   23.1770   39.2160 O   0  0  0  0  0  0  0  0  0  0  0  0
   38.8280   25.1630   39.4890 N   0  0  0  0  0  0  0  0  0  0  0  0
   38.3730   24.0620   37.7170 H   0  0  0  0  0  0  0  0  0  0  0  0
   38.2760   26.0410   39.3220 H   0  0  0  0  0  0  0  0  0  0  0  0
  1  4  1  1  0  0  0
  2  3  1  0  0  0  0
  2  1  1  0  0  0  0
  3  1  1  0  0  0  0
  3  7  1  1  0  0  0
  5  2  1  0  0  0  0
  6  2  1  0  0  0  0
  8  1  1  0  0  0  0
  8  9  1  0  0  0  0
  9 14  1  0  0  0  0
 10  9  2  0  0  0  0
 10 15  1  0  0  0  0
 11 10  1  0  0  0  0
 12 13  1  0  0  0  0
 12 11  2  0  0  0  0
 13  8  2  0  0  0  0
 16 12  1  0  0  0  0
 17 18  1  0  0  0  0
 17 16  1  0  0  0  0
 19 20  1  0  0  0  0
 19 17  2  0  0  0  0
 20 27  1  0  0  0  0
 21 23  1  0  0  0  0
 21 20  2  0  0  0  0
 22 21  1  0  0  0  0
 23 24  2  0  0  0  0
 24 25  1  0  0  0  0
 24 26  1  0  0  0  0
 27 26  2  0  0  0  0
 27 16  1  0  0  0  0
 28  3  1  0  0  0  0
 28 29  1  0  0  0  0
 29 34  1  0  0  0  0
 30 29  2  0  0  0  0
 30 35  1  0  0  0  0
 31 30  1  0  0  0  0
 32 33  1  0  0  0  0
 32 31  2  0  0  0  0
 33 28  2  0  0  0  0
 36 31  1  0  0  0  0
 37 32  1  0  0  0  0
 38 39  2  0  0  0  0
 38 40  1  0  0  0  0
 40 33  1  0  0  0  0
 41 38  1  0  0  0  0
 42 40  1  0  0  0  0
M  END
>  <minimizedAffinity>
-6.28971815

$$$$

 OpenBabel03242519013D

 42 46  0  0  1  0  0  0  0  0999 V2000
   36.8880   25.0120   42.3120 C   0  0  1  0  0  0  0  0  0  0  0  0
   36.6400   24.1960   41.0740 C   0  0  0  0  0  0  0  0  0  0  0  0
   37.8840   24.0730   41.6780 C   0  0  1  0  0  0  0  0  0  0  0  0
   36.4160   24.6840   43.2620 H   0  0  0  0  0  0  0  0  0  0  0  0
   35.8840   23.3620   41.2050 H   0  0  0  0  0  0  0  0  0  0  0  0
   36.3630   24.7720   40.1660 H   0  0  0  0  0  0  0  0  0  0  0  0
   38.1600   23.2870   42.4160 H   0  0  0  0  0  0  0  0  0  0  0  0
   37.0030   26.4650   42.2100 C   0  0  0  0  0  0  0  0  0  0  0  0
   37.2570   27.1650   43.3990 C   0  0  0  0  0  0  0  0  0  0  0  0
   37.3730   28.5630   43.2820 C   0  0  0  0  0  0  0  0  0  0  0  0
   37.2310   29.1210   42.0470 N   0  0  0  0  0  0  0  0  0  0  0  0
   36.9790   28.3810   40.9150 C   0  0  0  0  0  0  0  0  0  0  0  0
   36.8630   27.0280   40.9910 N   0  0  0  0  0  0  0  0  0  0  0  0
   37.3160   26.6250   44.3100 H   0  0  0  0  0  0  0  0  0  0  0  0
   37.5670   29.1310   44.1570 H   0  0  0  0  0  0  0  0  0  0  0  0
   36.8420   29.0490   39.6640 N   0  0  0  0  0  0  0  0  0  0  0  0
   35.8700   28.7970   38.7690 C   0  0  0  0  0  0  0  0  0  0  0  0
   35.0920   28.0670   38.9000 H   0  0  0  0  0  0  0  0  0  0  0  0
   36.0420   29.6060   37.7000 N   0  0  0  0  0  0  0  0  0  0  0  0
   37.1440   30.3530   37.9770 C   0  0  0  0  0  0  0  0  0  0  0  0
   37.7020   31.3330   37.1510 C   0  0  0  0  0  0  0  0  0  0  0  0
   37.2700   31.5740   36.1880 H   0  0  0  0  0  0  0  0  0  0  0  0
   38.7970   31.9250   37.6640 N   0  0  0  0  0  0  0  0  0  0  0  0
   39.3090   31.6020   38.8650 C   0  0  0  0  0  0  0  0  0  0  0  0
   40.1940   32.1100   39.2330 H   0  0  0  0  0  0  0  0  0  0  0  0
   38.7580   30.6490   39.6560 N   0  0  0  0  0  0  0  0  0  0  0  0
   37.6610   30.0130   39.2100 C   0  0  0  0  0  0  0  0  0  0  0  0
   39.1040   24.5370   40.9660 C   0  0  0  0  0  0  0  0  0  0  0  0
   39.1500   24.7320   39.6060 C   0  0  0  0  0  0  0  0  0  0  0  0
   40.2590   25.1150   38.9030 C   0  0  0  0  0  0  0  0  0  0  0  0
   41.4200   25.3220   39.6090 C   0  0  0  0  0  0  0  0  0  0  0  0
   41.4170   25.1350   40.9880 C   0  0  0  0  0  0  0  0  0  0  0  0
   40.2720   24.7500   41.6250 C   0  0  0  0  0  0  0  0  0  0  0  0
   38.2330   24.5720   39.0270 H   0  0  0  0  0  0  0  0  0  0  0  0
   40.2000   25.2440   37.8300 H   0  0  0  0  0  0  0  0  0  0  0  0
   42.2780   25.6290   38.9970 H   0  0  0  0  0  0  0  0  0  0  0  0
   42.4060   25.3400   41.3790 H   0  0  0  0  0  0  0  0  0  0  0  0
   40.7200   25.9070   43.6790 C   0  0  0  0  0  0  0  0  0  0  0  0
   40.4780   26.7830   42.8470 O   0  0  0  0  0  0  0  0  0  0  0  0
   40.5920   24.6300   43.0250 N   0  0  0  0  0  0  0  0  0  0  0  0
   40.9890   25.8600   44.7240 H   0  0  0  0  0  0  0  0  0  0  0  0
   40.7040   23.6740   43.4450 H   0  0  0  0  0  0  0  0  0  0  0  0
  1  4  1  1  0  0  0
  2  5  1  0  0  0  0
  2  3  1  0  0  0  0
  2  1  1  0  0  0  0
  3  1  1  0  0  0  0
  3  7  1  1  0  0  0
  6  2  1  0  0  0  0
  8  1  1  0  0  0  0
  8  9  1  0  0  0  0
  9 14  1  0  0  0  0
 10  9  2  0  0  0  0
 10 15  1  0  0  0  0
 11 10  1  0  0  0  0
 12 13  1  0  0  0  0
 12 11  2  0  0  0  0
 13  8  2  0  0  0  0
 16 12  1  0  0  0  0
 17 18  1  0  0  0  0
 17 16  1  0  0  0  0
 19 20  1  0  0  0  0
 19 17  2  0  0  0  0
 20 27  1  0  0  0  0
 21 23  1  0  0  0  0
 21 20  2  0  0  0  0
 22 21  1  0  0  0  0
 23 24  2  0  0  0  0
 24 25  1  0  0  0  0
 24 26  1  0  0  0  0
 27 26  2  0  0  0  0
 27 16  1  0  0  0  0
 28 33  1  0  0  0  0
 28  3  1  0  0  0  0
 29 28  2  0  0  0  0
 30 29  1  0  0  0  0
 30 31  2  0  0  0  0
 31 32  1  0  0  0  0
 32 37  1  0  0  0  0
 32 33  2  0  0  0  0
 33 40  1  0  0  0  0
 34 29  1  0  0  0  0
 35 30  1  0  0  0  0
 36 31  1  0  0  0  0
 38 41  1  0  0  0  0
 39 38  2  0  0  0  0
 40 42  1  0  0  0  0
 40 38  1  0  0  0  0
M  END
>  <minimizedAffinity>
-6.13481617

$$$$

 OpenBabel03242519013D

 42 46  0  0  1  0  0  0  0  0999 V2000
   37.8930   27.7560   43.6350 C   0  0  1  0  0  0  0  0  0  0  0  0
   36.5470   28.0740   43.0480 C   0  0  0  0  0  0  0  0  0  0  0  0
   36.9860   26.7610   42.9540 C   0  0  1  0  0  0  0  0  0  0  0  0
   37.9830   27.6860   44.7400 H   0  0  0  0  0  0  0  0  0  0  0  0
   35.7500   28.3310   43.8110 H   0  0  0  0  0  0  0  0  0  0  0  0
   36.5380   28.8610   42.2640 H   0  0  0  0  0  0  0  0  0  0  0  0
   36.7340   25.9510   43.6740 H   0  0  0  0  0  0  0  0  0  0  0  0
   39.1010   28.2800   43.0020 C   0  0  0  0  0  0  0  0  0  0  0  0
   40.3200   27.6990   43.3840 C   0  0  0  0  0  0  0  0  0  0  0  0
   41.4730   28.2090   42.7590 C   0  0  0  0  0  0  0  0  0  0  0  0
   41.3230   29.2110   41.8480 N   0  0  0  0  0  0  0  0  0  0  0  0
   40.0990   29.7430   41.5140 C   0  0  0  0  0  0  0  0  0  0  0  0
   38.9640   29.2730   42.0980 N   0  0  0  0  0  0  0  0  0  0  0  0
   40.3170   26.9450   44.1310 H   0  0  0  0  0  0  0  0  0  0  0  0
   42.4160   27.7970   43.0180 H   0  0  0  0  0  0  0  0  0  0  0  0
   40.0350   30.7920   40.5510 N   0  0  0  0  0  0  0  0  0  0  0  0
   39.3040   31.9120   40.6930 C   0  0  0  0  0  0  0  0  0  0  0  0
   38.6900   32.1380   41.5450 H   0  0  0  0  0  0  0  0  0  0  0  0
   39.4750   32.6840   39.5960 N   0  0  0  0  0  0  0  0  0  0  0  0
   40.3290   31.9980   38.7920 C   0  0  0  0  0  0  0  0  0  0  0  0
   40.7950   32.4150   37.5420 C   0  0  0  0  0  0  0  0  0  0  0  0
   40.4890   33.3600   37.1110 H   0  0  0  0  0  0  0  0  0  0  0  0
   41.6350   31.5450   36.9510 N   0  0  0  0  0  0  0  0  0  0  0  0
   41.9950   30.3780   37.5140 C   0  0  0  0  0  0  0  0  0  0  0  0
   42.6760   29.7110   36.9950 H   0  0  0  0  0  0  0  0  0  0  0  0
   41.5360   29.9850   38.7270 N   0  0  0  0  0  0  0  0  0  0  0  0
   40.6920   30.8030   39.3780 C   0  0  0  0  0  0  0  0  0  0  0  0
   37.2790   26.1700   41.6210 C   0  0  0  0  0  0  0  0  0  0  0  0
   36.9670   26.7960   40.4380 C   0  0  0  0  0  0  0  0  0  0  0  0
   37.1760   26.2730   39.1920 C   0  0  0  0  0  0  0  0  0  0  0  0
   37.7430   25.0230   39.1130 C   0  0  0  0  0  0  0  0  0  0  0  0
   38.0740   24.3540   40.2870 C   0  0  0  0  0  0  0  0  0  0  0  0
   37.8350   24.9370   41.4990 C   0  0  0  0  0  0  0  0  0  0  0  0
   36.5140   27.7940   40.4820 H   0  0  0  0  0  0  0  0  0  0  0  0
   36.8970   26.8410   38.3130 H   0  0  0  0  0  0  0  0  0  0  0  0
   37.8900   24.6520   38.0900 H   0  0  0  0  0  0  0  0  0  0  0  0
   38.5070   23.3920   40.0420 H   0  0  0  0  0  0  0  0  0  0  0  0
   39.6880   24.0550   42.7420 C   0  0  0  0  0  0  0  0  0  0  0  0
   40.1570   24.9370   42.0220 O   0  0  0  0  0  0  0  0  0  0  0  0
   38.2680   24.0020   42.5060 N   0  0  0  0  0  0  0  0  0  0  0  0
   40.0570   23.3460   43.4700 H   0  0  0  0  0  0  0  0  0  0  0  0
   37.5570   23.3820   42.9700 H   0  0  0  0  0  0  0  0  0  0  0  0
  1  4  1  1  0  0  0
  2  1  1  0  0  0  0
  2  5  1  0  0  0  0
  3  2  1  0  0  0  0
  3  1  1  0  0  0  0
  3  7  1  1  0  0  0
  6  2  1  0  0  0  0
  8  9  1  0  0  0  0
  8  1  1  0  0  0  0
  9 14  1  0  0  0  0
 10 15  1  0  0  0  0
 10  9  2  0  0  0  0
 11 10  1  0  0  0  0
 12 11  2  0  0  0  0
 12 13  1  0  0  0  0
 13  8  2  0  0  0  0
 16 17  1  0  0  0  0
 16 12  1  0  0  0  0
 17 18  1  0  0  0  0
 19 17  2  0  0  0  0
 20 27  1  0  0  0  0
 20 19  1  0  0  0  0
 21 20  2  0  0  0  0
 22 21  1  0  0  0  0
 23 24  2  0  0  0  0
 23 21  1  0  0  0  0
 24 26  1  0  0  0  0
 25 24  1  0  0  0  0
 26 27  2  0  0  0  0
 27 16  1  0  0  0  0
 28  3  1  0  0  0  0
 29 34  1  0  0  0  0
 29 28  2  0  0  0  0
 30 29  1  0  0  0  0
 31 30  2  0  0  0  0
 31 32  1  0  0  0  0
 32 33  2  0  0  0  0
 33 28  1  0  0  0  0
 33 40  1  0  0  0  0
 35 30  1  0  0  0  0
 36 31  1  0  0  0  0
 37 32  1  0  0  0  0
 38 41  1  0  0  0  0
 39 38  2  0  0  0  0
 40 38  1  0  0  0  0
 40 42  1  0  0  0  0
M  END
>  <minimizedAffinity>
-6.09383011

$$$$

 OpenBabel03242519013D

 42 46  0  0  1  0  0  0  0  0999 V2000
   36.4140   28.5340   38.9820 C   0  0  1  0  0  0  0  0  0  0  0  0
   37.3600   27.4050   38.6870 C   0  0  0  0  0  0  0  0  0  0  0  0
   36.5810   27.2990   39.8300 C   0  0  1  0  0  0  0  0  0  0  0  0
   35.4850   28.6140   38.3790 H   0  0  0  0  0  0  0  0  0  0  0  0
   37.0850   26.7860   37.7780 H   0  0  0  0  0  0  0  0  0  0  0  0
   38.4310   27.6850   38.6000 H   0  0  0  0  0  0  0  0  0  0  0  0
   35.6050   26.7670   39.8900 H   0  0  0  0  0  0  0  0  0  0  0  0
   36.9430   29.8370   39.3780 C   0  0  0  0  0  0  0  0  0  0  0  0
   36.1870   30.5740   40.3030 C   0  0  0  0  0  0  0  0  0  0  0  0
   36.7150   31.8220   40.6800 C   0  0  0  0  0  0  0  0  0  0  0  0
   37.8970   32.2170   40.1280 N   0  0  0  0  0  0  0  0  0  0  0  0
   38.5940   31.4500   39.2230 C   0  0  0  0  0  0  0  0  0  0  0  0
   38.1140   30.2370   38.8370 N   0  0  0  0  0  0  0  0  0  0  0  0
   35.2620   30.1790   40.6390 H   0  0  0  0  0  0  0  0  0  0  0  0
   36.1760   32.4120   41.3780 H   0  0  0  0  0  0  0  0  0  0  0  0
   39.8220   31.9420   38.6950 N   0  0  0  0  0  0  0  0  0  0  0  0
   40.1610   31.9030   37.3930 C   0  0  0  0  0  0  0  0  0  0  0  0
   39.5440   31.4990   36.6130 H   0  0  0  0  0  0  0  0  0  0  0  0
   41.3890   32.4510   37.2470 N   0  0  0  0  0  0  0  0  0  0  0  0
   41.7780   32.8210   38.4960 C   0  0  0  0  0  0  0  0  0  0  0  0
   42.9890   33.4340   38.8320 C   0  0  0  0  0  0  0  0  0  0  0  0
   43.7330   33.6660   38.0810 H   0  0  0  0  0  0  0  0  0  0  0  0
   43.1260   33.6950   40.1460 N   0  0  0  0  0  0  0  0  0  0  0  0
   42.1820   33.3930   41.0550 C   0  0  0  0  0  0  0  0  0  0  0  0
   42.3420   33.6250   42.1030 H   0  0  0  0  0  0  0  0  0  0  0  0
   41.0120   32.7980   40.7150 N   0  0  0  0  0  0  0  0  0  0  0  0
   40.8030   32.5060   39.4210 C   0  0  0  0  0  0  0  0  0  0  0  0
   37.2240   27.3110   41.1710 C   0  0  0  0  0  0  0  0  0  0  0  0
   36.5780   27.7310   42.3090 C   0  0  0  0  0  0  0  0  0  0  0  0
   37.1400   27.8020   43.5530 C   0  0  0  0  0  0  0  0  0  0  0  0
   38.4560   27.4220   43.6790 C   0  0  0  0  0  0  0  0  0  0  0  0
   39.1480   26.9900   42.5520 C   0  0  0  0  0  0  0  0  0  0  0  0
   38.5220   26.9470   41.3390 C   0  0  0  0  0  0  0  0  0  0  0  0
   35.5280   28.0370   42.2270 H   0  0  0  0  0  0  0  0  0  0  0  0
   36.5520   28.1470   44.3940 H   0  0  0  0  0  0  0  0  0  0  0  0
   38.8570   27.4970   44.6990 H   0  0  0  0  0  0  0  0  0  0  0  0
   40.1620   26.7330   42.8310 H   0  0  0  0  0  0  0  0  0  0  0  0
   39.5370   25.0410   40.2940 C   0  0  0  0  0  0  0  0  0  0  0  0
   38.6810   24.5890   41.0560 O   0  0  0  0  0  0  0  0  0  0  0  0
   39.4930   26.4770   40.3840 N   0  0  0  0  0  0  0  0  0  0  0  0
   40.2750   24.6470   39.6090 H   0  0  0  0  0  0  0  0  0  0  0  0
   40.0680   27.1770   39.8510 H   0  0  0  0  0  0  0  0  0  0  0  0
  1  4  1  6  0  0  0
  1  8  1  0  0  0  0
  1  3  1  0  0  0  0
  2  1  1  0  0  0  0
  2  3  1  0  0  0  0
  3  7  1  6  0  0  0
  3 28  1  0  0  0  0
  5  2  1  0  0  0  0
  6  2  1  0  0  0  0
  8  9  1  0  0  0  0
  9 14  1  0  0  0  0
  9 10  2  0  0  0  0
 10 15  1  0  0  0  0
 11 10  1  0  0  0  0
 12 11  2  0  0  0  0
 13 12  1  0  0  0  0
 13  8  2  0  0  0  0
 16 12  1  0  0  0  0
 16 27  1  0  0  0  0
 17 16  1  0  0  0  0
 18 17  1  0  0  0  0
 19 17  2  0  0  0  0
 19 20  1  0  0  0  0
 20 21  2  0  0  0  0
 20 27  1  0  0  0  0
 21 23  1  0  0  0  0
 22 21  1  0  0  0  0
 23 24  2  0  0  0  0
 24 25  1  0  0  0  0
 26 24  1  0  0  0  0
 27 26  2  0  0  0  0
 28 33  2  0  0  0  0
 28 29  1  0  0  0  0
 29 30  2  0  0  0  0
 30 31  1  0  0  0  0
 30 35  1  0  0  0  0
 31 36  1  0  0  0  0
 32 37  1  0  0  0  0
 32 31  2  0  0  0  0
 33 32  1  0  0  0  0
 34 29  1  0  0  0  0
 38 40  1  0  0  0  0
 38 39  2  0  0  0  0
 40 33  1  0  0  0  0
 41 38  1  0  0  0  0
 42 40  1  0  0  0  0
M  END
>  <minimizedAffinity>
-6.09135294

$$$$

 OpenBabel03242519013D

 42 46  0  0  1  0  0  0  0  0999 V2000
   38.4670   27.5680   43.5860 C   0  0  1  0  0  0  0  0  0  0  0  0
   37.5030   28.7200   43.6300 C   0  0  0  0  0  0  0  0  0  0  0  0
   37.0420   27.5260   43.0940 C   0  0  1  0  0  0  0  0  0  0  0  0
   38.6930   27.0340   44.5330 H   0  0  0  0  0  0  0  0  0  0  0  0
   37.1710   29.0160   44.6730 H   0  0  0  0  0  0  0  0  0  0  0  0
   37.8280   29.6390   43.0990 H   0  0  0  0  0  0  0  0  0  0  0  0
   36.4870   26.7440   43.6610 H   0  0  0  0  0  0  0  0  0  0  0  0
   39.6110   27.6160   42.6780 C   0  0  0  0  0  0  0  0  0  0  0  0
   40.3780   26.4470   42.5640 C   0  0  0  0  0  0  0  0  0  0  0  0
   41.4710   26.5070   41.6790 C   0  0  0  0  0  0  0  0  0  0  0  0
   41.6990   27.6740   41.0130 N   0  0  0  0  0  0  0  0  0  0  0  0
   40.9100   28.7910   41.1680 C   0  0  0  0  0  0  0  0  0  0  0  0
   39.8450   28.7680   42.0140 N   0  0  0  0  0  0  0  0  0  0  0  0
   40.1240   25.6060   43.1590 H   0  0  0  0  0  0  0  0  0  0  0  0
   42.0770   25.6450   41.5620 H   0  0  0  0  0  0  0  0  0  0  0  0
   41.2230   29.9710   40.4330 N   0  0  0  0  0  0  0  0  0  0  0  0
   41.2490   31.2090   40.9570 C   0  0  0  0  0  0  0  0  0  0  0  0
   41.0390   31.4440   41.9830 H   0  0  0  0  0  0  0  0  0  0  0  0
   41.5810   32.0870   39.9820 N   0  0  0  0  0  0  0  0  0  0  0  0
   41.7530   31.3410   38.8590 C   0  0  0  0  0  0  0  0  0  0  0  0
   42.1050   31.8270   37.5960 C   0  0  0  0  0  0  0  0  0  0  0  0
   42.2720   32.8820   37.4220 H   0  0  0  0  0  0  0  0  0  0  0  0
   42.2110   30.8740   36.6510 N   0  0  0  0  0  0  0  0  0  0  0  0
   41.9970   29.5690   36.9000 C   0  0  0  0  0  0  0  0  0  0  0  0
   42.0950   28.8400   36.1020 H   0  0  0  0  0  0  0  0  0  0  0  0
   41.6560   29.1120   38.1290 N   0  0  0  0  0  0  0  0  0  0  0  0
   41.5310   30.0060   39.1240 C   0  0  0  0  0  0  0  0  0  0  0  0
   36.6770   27.4490   41.6540 C   0  0  0  0  0  0  0  0  0  0  0  0
   36.9310   26.3460   40.8750 C   0  0  0  0  0  0  0  0  0  0  0  0
   36.6550   26.2460   39.5390 C   0  0  0  0  0  0  0  0  0  0  0  0
   36.0780   27.3330   38.9260 C   0  0  0  0  0  0  0  0  0  0  0  0
   35.8060   28.4710   39.6780 C   0  0  0  0  0  0  0  0  0  0  0  0
   36.1100   28.5010   41.0090 C   0  0  0  0  0  0  0  0  0  0  0  0
   37.3890   25.4700   41.3480 H   0  0  0  0  0  0  0  0  0  0  0  0
   36.8900   25.3340   39.0050 H   0  0  0  0  0  0  0  0  0  0  0  0
   35.8770   27.1990   37.8550 H   0  0  0  0  0  0  0  0  0  0  0  0
   35.3570   29.2230   39.0410 H   0  0  0  0  0  0  0  0  0  0  0  0
   36.6630   30.8330   41.1320 C   0  0  0  0  0  0  0  0  0  0  0  0
   37.5480   30.3140   40.4500 O   0  0  0  0  0  0  0  0  0  0  0  0
   35.7260   29.8010   41.4970 N   0  0  0  0  0  0  0  0  0  0  0  0
   36.4260   31.8190   41.5050 H   0  0  0  0  0  0  0  0  0  0  0  0
   34.8400   29.8990   42.0540 H   0  0  0  0  0  0  0  0  0  0  0  0
  1  2  1  0  0  0  0
  1  4  1  1  0  0  0
  2  5  1  0  0  0  0
  3  1  1  0  0  0  0
  3  2  1  0  0  0  0
  3  7  1  1  0  0  0
  6  2  1  0  0  0  0
  8  1  1  0  0  0  0
  9  8  1  0  0  0  0
  9 14  1  0  0  0  0
 10  9  2  0  0  0  0
 11 12  2  0  0  0  0
 11 10  1  0  0  0  0
 12 13  1  0  0  0  0
 13  8  2  0  0  0  0
 15 10  1  0  0  0  0
 16 17  1  0  0  0  0
 16 12  1  0  0  0  0
 17 18  1  0  0  0  0
 19 17  2  0  0  0  0
 20 27  1  0  0  0  0
 20 19  1  0  0  0  0
 21 20  2  0  0  0  0
 22 21  1  0  0  0  0
 23 24  2  0  0  0  0
 23 21  1  0  0  0  0
 24 26  1  0  0  0  0
 25 24  1  0  0  0  0
 26 27  2  0  0  0  0
 27 16  1  0  0  0  0
 28  3  1  0  0  0  0
 29 34  1  0  0  0  0
 29 28  2  0  0  0  0
 30 29  1  0  0  0  0
 31 30  2  0  0  0  0
 31 32  1  0  0  0  0
 32 33  2  0  0  0  0
 33 40  1  0  0  0  0
 33 28  1  0  0  0  0
 35 30  1  0  0  0  0
 36 31  1  0  0  0  0
 37 32  1  0  0  0  0
 38 40  1  0  0  0  0
 38 41  1  0  0  0  0
 39 38  2  0  0  0  0
 40 42  1  0  0  0  0
M  END
>  <minimizedAffinity>
-6.05155182

$$$$

 OpenBabel03242519013D

 42 46  0  0  1  0  0  0  0  0999 V2000
   37.4260   25.8950   38.8850 C   0  0  1  0  0  0  0  0  0  0  0  0
   38.8020   25.4790   39.3230 C   0  0  0  0  0  0  0  0  0  0  0  0
   37.7830   25.3920   40.2620 C   0  0  1  0  0  0  0  0  0  0  0  0
   36.8520   25.2090   38.2280 H   0  0  0  0  0  0  0  0  0  0  0  0
   39.1810   24.5270   38.8390 H   0  0  0  0  0  0  0  0  0  0  0  0
   39.5920   26.2530   39.2260 H   0  0  0  0  0  0  0  0  0  0  0  0
   37.1900   24.4750   40.4770 H   0  0  0  0  0  0  0  0  0  0  0  0
   37.1490   27.3030   38.6110 C   0  0  0  0  0  0  0  0  0  0  0  0
   35.8160   27.6450   38.3350 C   0  0  0  0  0  0  0  0  0  0  0  0
   35.5650   29.0060   38.0810 C   0  0  0  0  0  0  0  0  0  0  0  0
   36.6150   29.8740   38.1200 N   0  0  0  0  0  0  0  0  0  0  0  0
   37.9040   29.4790   38.3940 C   0  0  0  0  0  0  0  0  0  0  0  0
   38.1820   28.1710   38.6460 N   0  0  0  0  0  0  0  0  0  0  0  0
   35.0860   26.8760   38.3000 H   0  0  0  0  0  0  0  0  0  0  0  0
   34.5700   29.3080   37.8700 H   0  0  0  0  0  0  0  0  0  0  0  0
   38.9420   30.4550   38.4110 N   0  0  0  0  0  0  0  0  0  0  0  0
   40.1410   30.3010   37.8210 C   0  0  0  0  0  0  0  0  0  0  0  0
   40.4460   29.4290   37.2740 H   0  0  0  0  0  0  0  0  0  0  0  0
   40.8770   31.4150   38.0360 N   0  0  0  0  0  0  0  0  0  0  0  0
   40.0880   32.2420   38.7700 C   0  0  0  0  0  0  0  0  0  0  0  0
   40.4340   33.5170   39.2290 C   0  0  0  0  0  0  0  0  0  0  0  0
   41.4040   33.9500   39.0170 H   0  0  0  0  0  0  0  0  0  0  0  0
   39.4670   34.1280   39.9380 N   0  0  0  0  0  0  0  0  0  0  0  0
   38.2710   33.5620   40.1830 C   0  0  0  0  0  0  0  0  0  0  0  0
   37.5240   34.0970   40.7610 H   0  0  0  0  0  0  0  0  0  0  0  0
   37.9480   32.3250   39.7330 N   0  0  0  0  0  0  0  0  0  0  0  0
   38.8650   31.6530   39.0170 C   0  0  0  0  0  0  0  0  0  0  0  0
   37.8080   26.2620   41.4680 C   0  0  0  0  0  0  0  0  0  0  0  0
   36.6920   26.8970   41.9570 C   0  0  0  0  0  0  0  0  0  0  0  0
   36.6730   27.7400   43.0340 C   0  0  0  0  0  0  0  0  0  0  0  0
   37.8650   27.9720   43.6800 C   0  0  0  0  0  0  0  0  0  0  0  0
   39.0200   27.3500   43.2160 C   0  0  0  0  0  0  0  0  0  0  0  0
   38.9630   26.5210   42.1320 C   0  0  0  0  0  0  0  0  0  0  0  0
   35.7330   26.7220   41.4550 H   0  0  0  0  0  0  0  0  0  0  0  0
   35.7440   28.1960   43.3480 H   0  0  0  0  0  0  0  0  0  0  0  0
   37.7940   28.6550   44.5370 H   0  0  0  0  0  0  0  0  0  0  0  0
   39.8580   27.6430   43.8360 H   0  0  0  0  0  0  0  0  0  0  0  0
   40.6090   24.8440   42.6210 C   0  0  0  0  0  0  0  0  0  0  0  0
   39.5970   24.5100   43.2390 O   0  0  0  0  0  0  0  0  0  0  0  0
   40.3050   26.0500   41.8950 N   0  0  0  0  0  0  0  0  0  0  0  0
   41.6160   24.4750   42.4930 H   0  0  0  0  0  0  0  0  0  0  0  0
   40.9300   26.5900   41.2470 H   0  0  0  0  0  0  0  0  0  0  0  0
  1  4  1  6  0  0  0
  1  2  1  0  0  0  0
  1  3  1  0  0  0  0
  2  3  1  0  0  0  0
  3  7  1  1  0  0  0
  3 28  1  0  0  0  0
  5  2  1  0  0  0  0
  6  2  1  0  0  0  0
  8 13  1  0  0  0  0
  8  1  1  0  0  0  0
  9  8  2  0  0  0  0
 10 11  2  0  0  0  0
 10  9  1  0  0  0  0
 11 12  1  0  0  0  0
 12 16  1  0  0  0  0
 12 13  2  0  0  0  0
 14  9  1  0  0  0  0
 15 10  1  0  0  0  0
 16 27  1  0  0  0  0
 17 19  2  0  0  0  0
 17 16  1  0  0  0  0
 18 17  1  0  0  0  0
 19 20  1  0  0  0  0
 20 27  2  0  0  0  0
 20 21  1  0  0  0  0
 21 23  2  0  0  0  0
 22 21  1  0  0  0  0
 23 24  1  0  0  0  0
 24 25  1  0  0  0  0
 26 24  2  0  0  0  0
 27 26  1  0  0  0  0
 28 29  2  0  0  0  0
 28 33  1  0  0  0  0
 29 30  1  0  0  0  0
 30 35  1  0  0  0  0
 30 31  2  0  0  0  0
 31 36  1  0  0  0  0
 32 31  1  0  0  0  0
 32 37  1  0  0  0  0
 33 32  2  0  0  0  0
 34 29  1  0  0  0  0
 38 39  2  0  0  0  0
 40 33  1  0  0  0  0
 40 38  1  0  0  0  0
 41 38  1  0  0  0  0
 42 40  1  0  0  0  0
M  END
>  <minimizedAffinity>
-5.98499298

$$$$

 OpenBabel03242519013D

 42 46  0  0  1  0  0  0  0  0999 V2000
   36.3570   28.0990   42.4250 C   0  0  1  0  0  0  0  0  0  0  0  0
   36.5380   27.2860   43.6760 C   0  0  0  0  0  0  0  0  0  0  0  0
   37.3700   28.3840   43.5060 C   0  0  1  0  0  0  0  0  0  0  0  0
   35.4810   28.7780   42.3600 H   0  0  0  0  0  0  0  0  0  0  0  0
   35.6800   27.3590   44.4120 H   0  0  0  0  0  0  0  0  0  0  0  0
   36.7680   26.2110   43.5210 H   0  0  0  0  0  0  0  0  0  0  0  0
   37.1800   29.3990   43.9210 H   0  0  0  0  0  0  0  0  0  0  0  0
   36.7280   27.5300   41.1310 C   0  0  0  0  0  0  0  0  0  0  0  0
   37.1470   26.1910   41.1250 C   0  0  0  0  0  0  0  0  0  0  0  0
   37.4920   25.6550   39.8710 C   0  0  0  0  0  0  0  0  0  0  0  0
   37.3970   26.4620   38.7760 N   0  0  0  0  0  0  0  0  0  0  0  0
   36.9810   27.7720   38.8450 C   0  0  0  0  0  0  0  0  0  0  0  0
   36.6380   28.3210   40.0410 N   0  0  0  0  0  0  0  0  0  0  0  0
   37.2130   25.6700   42.0470 H   0  0  0  0  0  0  0  0  0  0  0  0
   37.8130   24.6460   39.8200 H   0  0  0  0  0  0  0  0  0  0  0  0
   36.9140   28.5440   37.6490 N   0  0  0  0  0  0  0  0  0  0  0  0
   37.3780   29.8010   37.5280 C   0  0  0  0  0  0  0  0  0  0  0  0
   37.8490   30.3580   38.3170 H   0  0  0  0  0  0  0  0  0  0  0  0
   37.1500   30.2280   36.2660 N   0  0  0  0  0  0  0  0  0  0  0  0
   36.5370   29.1940   35.6310 C   0  0  0  0  0  0  0  0  0  0  0  0
   36.1130   29.1820   34.2990 C   0  0  0  0  0  0  0  0  0  0  0  0
   36.2530   30.0390   33.6530 H   0  0  0  0  0  0  0  0  0  0  0  0
   35.5320   28.0290   33.9190 N   0  0  0  0  0  0  0  0  0  0  0  0
   35.3740   26.9800   34.7470 C   0  0  0  0  0  0  0  0  0  0  0  0
   34.8980   26.0720   34.3900 H   0  0  0  0  0  0  0  0  0  0  0  0
   35.7900   27.0060   36.0360 N   0  0  0  0  0  0  0  0  0  0  0  0
   36.3800   28.1250   36.4890 C   0  0  0  0  0  0  0  0  0  0  0  0
   38.8330   28.1860   43.3260 C   0  0  0  0  0  0  0  0  0  0  0  0
   39.4820   27.0280   43.6800 C   0  0  0  0  0  0  0  0  0  0  0  0
   40.8290   26.8160   43.5740 C   0  0  0  0  0  0  0  0  0  0  0  0
   41.5970   27.8420   43.0740 C   0  0  0  0  0  0  0  0  0  0  0  0
   40.9790   29.0330   42.7040 C   0  0  0  0  0  0  0  0  0  0  0  0
   39.6270   29.1740   42.8390 C   0  0  0  0  0  0  0  0  0  0  0  0
   38.8850   26.1990   44.0790 H   0  0  0  0  0  0  0  0  0  0  0  0
   41.2530   25.8680   43.8790 H   0  0  0  0  0  0  0  0  0  0  0  0
   42.6700   27.6190   43.0100 H   0  0  0  0  0  0  0  0  0  0  0  0
   41.7270   29.7250   42.3360 H   0  0  0  0  0  0  0  0  0  0  0  0
   39.3200   30.6290   40.9570 C   0  0  0  0  0  0  0  0  0  0  0  0
   39.5860   29.5230   40.4850 O   0  0  0  0  0  0  0  0  0  0  0  0
   39.2990   30.5040   42.3910 N   0  0  0  0  0  0  0  0  0  0  0  0
   39.1080   31.6200   40.5810 H   0  0  0  0  0  0  0  0  0  0  0  0
   39.0810   31.2450   43.1030 H   0  0  0  0  0  0  0  0  0  0  0  0
  1  4  1  6  0  0  0
  1  3  1  0  0  0  0
  1  2  1  0  0  0  0
  2  5  1  0  0  0  0
  3  2  1  0  0  0  0
  3  7  1  1  0  0  0
  6  2  1  0  0  0  0
  8  1  1  0  0  0  0
  9  8  1  0  0  0  0
  9 14  1  0  0  0  0
 10  9  2  0  0  0  0
 11 12  2  0  0  0  0
 11 10  1  0  0  0  0
 12 13  1  0  0  0  0
 13  8  2  0  0  0  0
 15 10  1  0  0  0  0
 16 12  1  0  0  0  0
 17 16  1  0  0  0  0
 17 18  1  0  0  0  0
 19 17  2  0  0  0  0
 20 19  1  0  0  0  0
 20 27  1  0  0  0  0
 21 20  2  0  0  0  0
 22 21  1  0  0  0  0
 23 21  1  0  0  0  0
 23 24  2  0  0  0  0
 24 26  1  0  0  0  0
 25 24  1  0  0  0  0
 26 27  2  0  0  0  0
 27 16  1  0  0  0  0
 28  3  1  0  0  0  0
 28 29  1  0  0  0  0
 29 34  1  0  0  0  0
 30 29  2  0  0  0  0
 30 35  1  0  0  0  0
 31 30  1  0  0  0  0
 32 33  1  0  0  0  0
 32 31  2  0  0  0  0
 33 28  2  0  0  0  0
 36 31  1  0  0  0  0
 37 32  1  0  0  0  0
 38 40  1  0  0  0  0
 39 38  2  0  0  0  0
 40 33  1  0  0  0  0
 40 42  1  0  0  0  0
 41 38  1  0  0  0  0
M  END
>  <minimizedAffinity>
-5.98221016

$$$$
