
 OpenBabel03252508253D

 44 49  0  0  1  0  0  0  0  0999 V2000
   46.5150   32.4220   46.0600 C   0  0  1  0  0  0  0  0  0  0  0  0
   46.8840   32.6830   47.4600 C   0  0  0  0  0  0  0  0  0  0  0  0
   45.5290   31.9990   47.0310 C   0  0  2  0  0  0  0  0  0  0  0  0
   47.3660   31.7720   45.6420 H   0  0  0  0  0  0  0  0  0  0  0  0
   47.5400   32.0570   48.0750 H   0  0  0  0  0  0  0  0  0  0  0  0
   46.7650   33.7290   47.7880 H   0  0  0  0  0  0  0  0  0  0  0  0
   44.7310   32.6810   47.4700 H   0  0  0  0  0  0  0  0  0  0  0  0
   45.2580   30.6140   47.4230 C   0  0  0  0  0  0  0  0  0  0  0  0
   45.1230   30.1190   48.6820 C   0  0  0  0  0  0  0  0  0  0  0  0
   44.9900   28.7780   49.0160 C   0  0  0  0  0  0  0  0  0  0  0  0
   44.9990   27.8650   47.9530 C   0  0  0  0  0  0  0  0  0  0  0  0
   45.1340   28.3440   46.6490 C   0  0  0  0  0  0  0  0  0  0  0  0
   45.0750   27.4140   45.6300 C   0  0  0  0  0  0  0  0  0  0  0  0
   45.1330   27.8550   44.3140 C   0  0  0  0  0  0  0  0  0  0  0  0
   45.2450   29.1970   44.0240 C   0  0  0  0  0  0  0  0  0  0  0  0
   45.3010   30.0820   45.0750 C   0  0  0  0  0  0  0  0  0  0  0  0
   45.2560   29.6910   46.4050 C   0  0  0  0  0  0  0  0  0  0  0  0
   45.1220   30.8630   49.4750 H   0  0  0  0  0  0  0  0  0  0  0  0
   44.8850   28.4560   50.0440 H   0  0  0  0  0  0  0  0  0  0  0  0
   44.9000   26.8140   48.1960 H   0  0  0  0  0  0  0  0  0  0  0  0
   44.9840   26.3660   45.8830 H   0  0  0  0  0  0  0  0  0  0  0  0
   45.0790   27.0290   43.5840 H   0  0  0  0  0  0  0  0  0  0  0  0
   45.2710   29.3390   42.9610 H   0  0  0  0  0  0  0  0  0  0  0  0
   45.2980   31.0250   44.6110 H   0  0  0  0  0  0  0  0  0  0  0  0
   44.8410   35.3560   44.5740 C   0  0  0  0  0  0  0  0  0  0  0  0
   45.5960   35.5570   43.3640 C   0  0  0  0  0  0  0  0  0  0  0  0
   46.6840   34.6580   43.1080 C   0  0  0  0  0  0  0  0  0  0  0  0
   46.9530   33.6880   43.9840 N   0  0  0  0  0  0  0  0  0  0  0  0
   46.1940   33.5430   45.1280 C   0  0  0  0  0  0  0  0  0  0  0  0
   45.1770   34.3490   45.4100 N   0  0  0  0  0  0  0  0  0  0  0  0
   44.0440   36.0660   44.6980 H   0  0  0  0  0  0  0  0  0  0  0  0
   45.3310   36.3610   42.6910 H   0  0  0  0  0  0  0  0  0  0  0  0
   47.4350   34.8500   41.9120 N   0  0  0  0  0  0  0  0  0  0  0  0
   48.5170   35.6240   41.7010 C   0  0  0  0  0  0  0  0  0  0  0  0
   48.9500   36.2210   42.4950 H   0  0  0  0  0  0  0  0  0  0  0  0
   48.9490   35.5450   40.4320 N   0  0  0  0  0  0  0  0  0  0  0  0
   48.1230   34.6890   39.7850 C   0  0  0  0  0  0  0  0  0  0  0  0
   48.0370   34.1990   38.4980 C   0  0  0  0  0  0  0  0  0  0  0  0
   48.7790   34.5360   37.7630 H   0  0  0  0  0  0  0  0  0  0  0  0
   47.0570   33.3240   38.1610 N   0  0  0  0  0  0  0  0  0  0  0  0
   46.1450   32.9160   39.0790 C   0  0  0  0  0  0  0  0  0  0  0  0
   45.3600   32.2160   38.8130 H   0  0  0  0  0  0  0  0  0  0  0  0
   46.2130   33.3870   40.3560 N   0  0  0  0  0  0  0  0  0  0  0  0
   47.1700   34.2500   40.7120 C   0  0  0  0  0  0  0  0  0  0  0  0
  1  4  1  6  0  0  0
  1  3  1  0  0  0  0
  1  2  1  0  0  0  0
  2  6  1  0  0  0  0
  2  5  1  0  0  0  0
  3  8  1  0  0  0  0
  3  2  1  0  0  0  0
  3  7  1  1  0  0  0
  8  9  1  0  0  0  0
  9 10  2  0  0  0  0
  9 18  1  0  0  0  0
 10 19  1  0  0  0  0
 11 20  1  0  0  0  0
 11 10  1  0  0  0  0
 12 11  2  0  0  0  0
 13 21  1  0  0  0  0
 13 12  1  0  0  0  0
 14 13  2  0  0  0  0
 15 14  1  0  0  0  0
 15 16  2  0  0  0  0
 16 17  1  0  0  0  0
 17 12  1  0  0  0  0
 17  8  2  0  0  0  0
 22 14  1  0  0  0  0
 23 15  1  0  0  0  0
 24 16  1  0  0  0  0
 25 31  1  0  0  0  0
 25 30  1  0  0  0  0
 26 25  2  0  0  0  0
 27 26  1  0  0  0  0
 27 28  2  0  0  0  0
 28 29  1  0  0  0  0
 29 30  2  0  0  0  0
 29  1  1  0  0  0  0
 32 26  1  0  0  0  0
 33 27  1  0  0  0  0
 34 33  1  0  0  0  0
 34 35  1  0  0  0  0
 36 34  2  0  0  0  0
 37 36  1  0  0  0  0
 37 44  1  0  0  0  0
 38 37  2  0  0  0  0
 39 38  1  0  0  0  0
 40 38  1  0  0  0  0
 40 41  2  0  0  0  0
 41 43  1  0  0  0  0
 42 41  1  0  0  0  0
 43 44  2  0  0  0  0
 44 33  1  0  0  0  0
M  END
>  <minimizedAffinity>
-6.23727894

>  <minimizedRMSD>
0.627600193

$$$$
