
 OpenBabel03252508173D

 50 55  0  0  1  0  0  0  0  0999 V2000
   47.0410   31.7240   48.2820 C   0  0  1  0  0  0  0  0  0  0  0  0
   46.3810   30.8000   49.2490 C   0  0  0  0  0  0  0  0  0  0  0  0
   47.7720   31.2010   49.4550 C   0  0  1  0  0  0  0  0  0  0  0  0
   46.4920   32.7120   48.2890 H   0  0  0  0  0  0  0  0  0  0  0  0
   46.2380   29.7280   48.9570 H   0  0  0  0  0  0  0  0  0  0  0  0
   45.6030   31.1250   49.9510 H   0  0  0  0  0  0  0  0  0  0  0  0
   47.9600   31.9190   50.2800 H   0  0  0  0  0  0  0  0  0  0  0  0
   48.8950   30.2450   49.2100 C   0  0  2  0  0  0  0  0  0  0  0  0
   49.7730   29.9880   50.4630 C   0  0  0  0  0  0  0  0  0  0  0  0
   50.3210   30.7780   49.3540 C   0  0  1  0  0  0  0  0  0  0  0  0
   48.7180   29.2900   48.6830 H   0  0  0  0  0  0  0  0  0  0  0  0
   49.5300   30.5540   51.3830 H   0  0  0  0  0  0  0  0  0  0  0  0
   50.2170   29.0130   50.6310 H   0  0  0  0  0  0  0  0  0  0  0  0
   50.3920   31.9000   49.4140 H   0  0  0  0  0  0  0  0  0  0  0  0
   51.2300   30.2190   48.3720 N   0  0  0  0  0  0  0  0  0  0  0  0
   52.5250   30.5770   48.2780 C   0  0  0  0  0  0  0  0  0  0  0  0
   53.0770   31.2910   48.8750 H   0  0  0  0  0  0  0  0  0  0  0  0
   53.1020   29.8850   47.2730 N   0  0  0  0  0  0  0  0  0  0  0  0
   52.1330   29.1090   46.7670 C   0  0  0  0  0  0  0  0  0  0  0  0
   52.2020   28.2010   45.7130 C   0  0  0  0  0  0  0  0  0  0  0  0
   53.0960   27.9960   45.1360 H   0  0  0  0  0  0  0  0  0  0  0  0
   51.0660   27.5420   45.4030 N   0  0  0  0  0  0  0  0  0  0  0  0
   49.9250   27.7450   46.0740 C   0  0  0  0  0  0  0  0  0  0  0  0
   49.0160   27.2160   45.8230 H   0  0  0  0  0  0  0  0  0  0  0  0
   49.8240   28.6180   47.1000 N   0  0  0  0  0  0  0  0  0  0  0  0
   50.9280   29.2940   47.4400 C   0  0  0  0  0  0  0  0  0  0  0  0
   47.2740   31.1440   46.9310 C   0  0  0  0  0  0  0  0  0  0  0  0
   46.4910   30.3470   46.7850 H   0  0  0  0  0  0  0  0  0  0  0  0
   48.2570   30.7700   46.7030 H   0  0  0  0  0  0  0  0  0  0  0  0
   46.1640   33.0810   46.1770 C   0  0  0  0  0  3  0  0  0  0  0  0
   46.9670   32.1560   45.8530 C   0  0  0  0  0  3  0  0  0  0  0  0
   44.5310   35.8610   44.3900 C   0  0  0  0  0  0  0  0  0  0  0  0
   45.1560   35.8450   43.1480 C   0  0  0  0  0  0  0  0  0  0  0  0
   46.1040   34.8920   42.9680 C   0  0  0  0  0  0  0  0  0  0  0  0
   46.4080   34.0140   43.9620 N   0  0  0  0  0  0  0  0  0  0  0  0
   45.7780   34.0610   45.1590 C   0  0  0  0  0  0  0  0  0  0  0  0
   44.8560   34.9870   45.3350 N   0  0  0  0  0  0  0  0  0  0  0  0
   43.7710   36.6050   44.5720 H   0  0  0  0  0  0  0  0  0  0  0  0
   44.9440   36.5170   42.3430 H   0  0  0  0  0  0  0  0  0  0  0  0
   46.8460   34.7520   41.7160 C   0  0  0  0  0  0  0  0  0  0  0  0
   48.0540   35.3470   41.4560 C   0  0  0  0  0  0  0  0  0  0  0  0
   48.7480   35.2090   40.2740 C   0  0  0  0  0  0  0  0  0  0  0  0
   48.2180   34.4240   39.2610 C   0  0  0  0  0  0  0  0  0  0  0  0
   47.0110   33.8060   39.4700 C   0  0  0  0  0  0  0  0  0  0  0  0
   46.3680   33.9860   40.6780 C   0  0  0  0  0  0  0  0  0  0  0  0
   48.5010   35.9760   42.2410 H   0  0  0  0  0  0  0  0  0  0  0  0
   49.7050   35.6970   40.1030 H   0  0  0  0  0  0  0  0  0  0  0  0
   48.7480   34.3090   38.3380 H   0  0  0  0  0  0  0  0  0  0  0  0
   46.5680   33.1910   38.7120 H   0  0  0  0  0  0  0  0  0  0  0  0
   45.4090   33.4710   40.7950 H   0  0  0  0  0  0  0  0  0  0  0  0
  1  4  1  1  0  0  0
  1  2  1  0  0  0  0
  1  3  1  0  0  0  0
  2  3  1  0  0  0  0
  2  6  1  0  0  0  0
  3  7  1  1  0  0  0
  5  2  1  0  0  0  0
  8 11  1  6  0  0  0
  8 10  1  0  0  0  0
  8  3  1  0  0  0  0
  8  9  1  0  0  0  0
  9 13  1  0  0  0  0
  9 12  1  0  0  0  0
 10 14  1  1  0  0  0
 10  9  1  0  0  0  0
 15 10  1  0  0  0  0
 16 15  1  0  0  0  0
 16 17  1  0  0  0  0
 18 16  2  0  0  0  0
 19 18  1  0  0  0  0
 19 26  1  0  0  0  0
 20 19  2  0  0  0  0
 21 20  1  0  0  0  0
 22 20  1  0  0  0  0
 22 23  2  0  0  0  0
 23 25  1  0  0  0  0
 24 23  1  0  0  0  0
 25 26  2  0  0  0  0
 26 15  1  0  0  0  0
 27  1  1  0  0  0  0
 28 27  1  0  0  0  0
 29 27  1  0  0  0  0
 31 30  2  0  0  0  0
 31 27  1  0  0  0  0
 32 38  1  0  0  0  0
 32 37  1  0  0  0  0
 33 32  2  0  0  0  0
 34 33  1  0  0  0  0
 34 35  2  0  0  0  0
 35 36  1  0  0  0  0
 36 37  2  0  0  0  0
 36 30  1  0  0  0  0
 39 33  1  0  0  0  0
 40 34  1  0  0  0  0
 41 40  1  0  0  0  0
 41 46  1  0  0  0  0
 42 41  2  0  0  0  0
 43 44  2  0  0  0  0
 43 42  1  0  0  0  0
 44 45  1  0  0  0  0
 45 50  1  0  0  0  0
 45 40  2  0  0  0  0
 47 42  1  0  0  0  0
 48 43  1  0  0  0  0
 49 44  1  0  0  0  0
M  END
>  <minimizedAffinity>
-6.35706854

>  <minimizedRMSD>
1.04869962

$$$$
