
 OpenBabel03252506353D

 36 39  0  0  1  0  0  0  0  0999 V2000
   44.4820   35.7450   44.9970 C   0  0  0  0  0  0  0  0  0  0  0  0
   45.1190   35.6890   43.7510 C   0  0  0  0  0  0  0  0  0  0  0  0
   45.9970   34.6820   43.5060 C   0  0  0  0  0  0  0  0  0  0  0  0
   46.1950   33.7890   44.5100 N   0  0  0  0  0  0  0  0  0  0  0  0
   45.5930   33.8440   45.6870 C   0  0  0  0  0  0  0  0  0  0  0  0
   44.7170   34.8260   45.9660 N   0  0  0  0  0  0  0  0  0  0  0  0
   45.8950   32.8520   46.6450 N   0  0  0  0  0  0  0  0  0  0  0  0
   45.1170   32.5970   47.8660 C   0  0  0  0  0  0  0  0  0  0  0  0
   46.2130   32.2760   48.8610 C   0  0  0  0  0  0  0  0  0  0  0  0
   47.4820   32.0800   48.0880 C   0  0  0  0  0  0  0  0  0  0  0  0
   46.9770   31.8940   46.6790 C   0  0  1  0  0  0  0  0  0  0  0  0
   43.7690   36.5590   45.2000 H   0  0  0  0  0  0  0  0  0  0  0  0
   46.4690   34.6620   42.5520 H   0  0  0  0  0  0  0  0  0  0  0  0
   44.4070   31.7640   47.7350 H   0  0  0  0  0  0  0  0  0  0  0  0
   44.5430   33.5060   48.1150 H   0  0  0  0  0  0  0  0  0  0  0  0
   45.9340   31.3460   49.4230 H   0  0  0  0  0  0  0  0  0  0  0  0
   46.3080   33.1520   49.5370 H   0  0  0  0  0  0  0  0  0  0  0  0
   48.1760   32.9410   48.1720 H   0  0  0  0  0  0  0  0  0  0  0  0
   48.0170   31.1440   48.3670 H   0  0  0  0  0  0  0  0  0  0  0  0
   47.7200   32.1740   45.9150 H   0  0  0  0  0  0  0  0  0  0  0  0
   44.7810   36.7280   42.8230 N   0  0  0  0  0  0  0  0  0  0  0  0
   44.4270   37.6500   43.1600 H   0  0  0  0  0  0  0  0  0  0  0  0
   44.8890   36.5610   41.7910 H   0  0  0  0  0  0  0  0  0  0  0  0
   46.4000   30.1960   46.4820 S   0  0  0  0  0  0  0  0  0  0  0  0
   45.4760   31.9420   44.2220 H   0  0  0  0  0  0  0  0  0  0  0  0
   45.3950   30.9170   44.0660 N   0  0  0  0  0  0  0  0  0  0  0  0
   45.7150   29.8900   44.8700 C   0  0  0  0  0  0  0  0  0  0  0  0
   45.4350   28.7080   44.2480 N   0  0  0  0  0  0  0  0  0  0  0  0
   44.9230   29.0210   43.0180 C   0  0  0  0  0  0  0  0  0  0  0  0
   44.4530   28.3630   41.9180 C   0  0  0  0  0  0  0  0  0  0  0  0
   44.4600   27.2660   41.9790 H   0  0  0  0  0  0  0  0  0  0  0  0
   44.0060   28.9940   40.8250 N   0  0  0  0  0  0  0  0  0  0  0  0
   43.9940   30.3280   40.7430 C   0  0  0  0  0  0  0  0  0  0  0  0
   43.6100   30.7160   39.8100 H   0  0  0  0  0  0  0  0  0  0  0  0
   44.4430   31.0260   41.7910 N   0  0  0  0  0  0  0  0  0  0  0  0
   44.9040   30.4090   42.9180 C   0  0  0  0  0  0  0  0  0  0  0  0
  1 12  1  0  0  0  0
  1  6  1  0  0  0  0
  2  1  2  0  0  0  0
  3  2  1  0  0  0  0
  3  4  2  0  0  0  0
  4  5  1  0  0  0  0
  5  6  2  0  0  0  0
  5  7  1  0  0  0  0
  7 11  1  0  0  0  0
  7  8  1  0  0  0  0
  8 15  1  0  0  0  0
  8  9  1  0  0  0  0
  9 16  1  0  0  0  0
  9 17  1  0  0  0  0
 10 18  1  0  0  0  0
 10 19  1  0  0  0  0
 10  9  1  0  0  0  0
 11 20  1  6  0  0  0
 11 10  1  0  0  0  0
 13  3  1  0  0  0  0
 14  8  1  0  0  0  0
 21 22  1  0  0  0  0
 21  2  1  0  0  0  0
 23 21  1  0  0  0  0
 24 11  1  0  0  0  0
 26 25  1  0  0  0  0
 26 27  1  0  0  0  0
 27 24  1  0  0  0  0
 28 27  2  0  0  0  0
 29 28  1  0  0  0  0
 30 31  1  0  0  0  0
 30 29  2  0  0  0  0
 32 30  1  0  0  0  0
 33 32  2  0  0  0  0
 33 35  1  0  0  0  0
 34 33  1  0  0  0  0
 35 36  2  0  0  0  0
 36 29  1  0  0  0  0
 36 26  1  0  0  0  0
M  END
>  <minimizedAffinity>
-5.04378366

>  <minimizedRMSD>
0.107049525

$$$$
