
 OpenBabel03252505073D

 46 50  0  0  1  0  0  0  0  0999 V2000
   44.6150   35.5250   44.5290 C   0  0  0  0  0  0  0  0  0  0  0  0
   45.3000   35.5010   43.2950 C   0  0  0  0  0  0  0  0  0  0  0  0
   46.3910   34.5850   43.1760 C   0  0  0  0  0  0  0  0  0  0  0  0
   46.7180   33.7950   44.2230 N   0  0  0  0  0  0  0  0  0  0  0  0
   46.0270   33.8590   45.3850 C   0  0  0  0  0  0  0  0  0  0  0  0
   44.9750   34.7210   45.5440 N   0  0  0  0  0  0  0  0  0  0  0  0
   43.7980   36.2270   44.5850 H   0  0  0  0  0  0  0  0  0  0  0  0
   45.0690   36.1070   42.4520 H   0  0  0  0  0  0  0  0  0  0  0  0
   47.1200   34.5340   41.9050 C   0  0  0  0  0  0  0  0  0  0  0  0
   48.1090   35.4400   41.6980 C   0  0  0  0  0  0  0  0  0  0  0  0
   48.7730   35.3570   40.4740 C   0  0  0  0  0  0  0  0  0  0  0  0
   48.3660   34.3720   39.6000 C   0  0  0  0  0  0  0  0  0  0  0  0
   47.3710   33.4640   39.8160 C   0  0  0  0  0  0  0  0  0  0  0  0
   46.7420   33.5800   41.0320 N   0  0  0  0  0  0  0  0  0  0  0  0
   48.3640   36.1820   42.4390 H   0  0  0  0  0  0  0  0  0  0  0  0
   49.5750   36.0540   40.2450 H   0  0  0  0  0  0  0  0  0  0  0  0
   48.8750   34.2970   38.6440 H   0  0  0  0  0  0  0  0  0  0  0  0
   46.9930   32.4640   38.8740 N   0  0  0  0  0  0  0  0  0  0  0  0
   46.2710   31.3590   39.1480 C   0  0  0  0  0  0  0  0  0  0  0  0
   45.8670   31.0490   40.1070 H   0  0  0  0  0  0  0  0  0  0  0  0
   46.0910   30.6330   38.0510 N   0  0  0  0  0  0  0  0  0  0  0  0
   46.6910   31.2400   37.0080 C   0  0  0  0  0  0  0  0  0  0  0  0
   46.8640   31.0080   35.6480 C   0  0  0  0  0  0  0  0  0  0  0  0
   46.4080   30.1020   35.2840 H   0  0  0  0  0  0  0  0  0  0  0  0
   47.5600   31.8880   34.8970 N   0  0  0  0  0  0  0  0  0  0  0  0
   48.0900   32.9850   35.4380 C   0  0  0  0  0  0  0  0  0  0  0  0
   48.6420   33.6710   34.8090 H   0  0  0  0  0  0  0  0  0  0  0  0
   47.9370   33.2390   36.7620 N   0  0  0  0  0  0  0  0  0  0  0  0
   47.2500   32.3940   37.5650 C   0  0  0  0  0  0  0  0  0  0  0  0
   46.4330   32.9720   46.5040 C   0  0  2  0  0  0  0  0  0  0  0  0
   46.9740   31.7220   45.8680 C   0  0  0  0  0  0  0  0  0  0  0  0
   46.1010   30.5370   45.9010 C   0  0  0  0  0  0  0  0  0  0  0  0
   45.7620   30.3230   47.3700 C   0  0  0  0  0  0  0  0  0  0  0  0
   44.9600   31.4110   47.9260 C   0  0  0  0  0  0  0  0  0  0  0  0
   45.3500   32.7710   47.4430 C   0  0  0  0  0  0  0  0  0  0  0  0
   47.2630   33.5170   47.0170 H   0  0  0  0  0  0  0  0  0  0  0  0
   47.9260   31.4670   46.3780 H   0  0  0  0  0  0  0  0  0  0  0  0
   47.2780   31.8890   44.7980 H   0  0  0  0  0  0  0  0  0  0  0  0
   46.6910   29.6580   45.6060 H   0  0  0  0  0  0  0  0  0  0  0  0
   45.2040   30.6960   45.2930 H   0  0  0  0  0  0  0  0  0  0  0  0
   46.7010   30.1410   47.9120 H   0  0  0  0  0  0  0  0  0  0  0  0
   45.1160   29.4310   47.3880 H   0  0  0  0  0  0  0  0  0  0  0  0
   44.1340   31.4120   48.6240 H   0  0  0  0  0  0  0  0  0  0  0  0
   44.6460   33.9170   47.9080 N   0  0  0  0  0  0  0  0  0  0  0  0
   44.9810   34.5420   48.6760 H   0  0  0  0  0  0  0  0  0  0  0  0
   43.7390   34.2450   47.5380 H   0  0  0  0  0  0  0  0  0  0  0  0
  1  7  1  0  0  0  0
  1  6  1  0  0  0  0
  2  1  2  0  0  0  0
  3  2  1  0  0  0  0
  3  4  2  0  0  0  0
  4  5  1  0  0  0  0
  5  6  2  0  0  0  0
  5 30  1  0  0  0  0
  8  2  1  0  0  0  0
  9  3  1  0  0  0  0
 10  9  1  0  0  0  0
 10 15  1  0  0  0  0
 11 10  2  0  0  0  0
 12 13  2  0  0  0  0
 12 11  1  0  0  0  0
 13 14  1  0  0  0  0
 14  9  2  0  0  0  0
 16 11  1  0  0  0  0
 17 12  1  0  0  0  0
 18 19  1  0  0  0  0
 18 13  1  0  0  0  0
 19 20  1  0  0  0  0
 21 19  2  0  0  0  0
 22 29  1  0  0  0  0
 22 21  1  0  0  0  0
 23 22  2  0  0  0  0
 24 23  1  0  0  0  0
 25 26  2  0  0  0  0
 25 23  1  0  0  0  0
 26 28  1  0  0  0  0
 27 26  1  0  0  0  0
 28 29  2  0  0  0  0
 29 18  1  0  0  0  0
 30 36  1  1  0  0  0
 30 35  1  0  0  0  0
 31 32  1  0  0  0  0
 31 37  1  0  0  0  0
 31 30  1  0  0  0  0
 32 33  1  0  0  0  0
 33 42  1  0  0  0  0
 33 41  1  0  0  0  0
 33 34  1  0  0  0  0
 34 43  1  0  0  0  0
 35 44  1  0  0  0  0
 35 34  2  0  0  0  0
 38 31  1  0  0  0  0
 39 32  1  0  0  0  0
 40 32  1  0  0  0  0
 44 45  1  0  0  0  0
 46 44  1  0  0  0  0
M  END
>  <minimizedAffinity>
-7.74503469

>  <minimizedRMSD>
0.636363089

$$$$
