
 OpenBabel03252508293D

 42 46  0  0  1  0  0  0  0  0999 V2000
   41.8280   33.2320   39.9320 N   0  0  0  0  0  0  0  0  0  0  0  0
   41.7160   34.1860   41.0410 C   0  0  2  0  0  0  0  0  0  0  0  0
   41.4620   35.5750   40.5750 C   0  0  0  0  0  0  0  0  0  0  0  0
   41.0990   35.6320   39.1710 N   0  0  0  0  0  0  0  0  0  0  0  0
   41.9780   34.9410   38.3010 C   0  0  0  0  0  0  0  0  0  0  0  0
   42.7820   33.8750   38.9990 C   0  0  2  0  0  0  0  0  0  0  0  0
   40.8810   33.2030   39.4670 H   0  0  0  0  0  0  0  0  0  0  0  0
   40.9210   33.8520   41.7250 H   0  0  0  0  0  0  0  0  0  0  0  0
   42.3220   36.2680   40.5890 H   0  0  0  0  0  0  0  0  0  0  0  0
   40.5930   36.0570   41.1110 H   0  0  0  0  0  0  0  0  0  0  0  0
   41.0390   36.6310   38.8880 H   0  0  0  0  0  0  0  0  0  0  0  0
   42.6160   35.5890   37.6910 H   0  0  0  0  0  0  0  0  0  0  0  0
   41.3330   34.3900   37.5560 H   0  0  0  0  0  0  0  0  0  0  0  0
   43.5400   34.4210   39.6060 H   0  0  0  0  0  0  0  0  0  0  0  0
   43.3900   32.9340   38.1210 N   0  0  0  0  0  0  0  0  0  0  0  0
   44.7010   32.9800   37.7440 C   0  0  0  0  0  0  0  0  0  0  0  0
   45.4180   33.7450   38.0790 H   0  0  0  0  0  0  0  0  0  0  0  0
   45.0090   31.9820   36.9190 N   0  0  0  0  0  0  0  0  0  0  0  0
   43.8710   31.2700   36.7570 C   0  0  0  0  0  0  0  0  0  0  0  0
   43.6140   30.1360   36.0100 C   0  0  0  0  0  0  0  0  0  0  0  0
   44.4340   29.7150   35.4460 H   0  0  0  0  0  0  0  0  0  0  0  0
   42.3640   29.6340   36.0340 N   0  0  0  0  0  0  0  0  0  0  0  0
   41.3740   30.2180   36.7700 C   0  0  0  0  0  0  0  0  0  0  0  0
   40.4140   29.7240   36.7100 H   0  0  0  0  0  0  0  0  0  0  0  0
   41.6420   31.3370   37.5030 N   0  0  0  0  0  0  0  0  0  0  0  0
   42.8680   31.8780   37.5140 C   0  0  0  0  0  0  0  0  0  0  0  0
   44.7820   33.5140   42.8270 C   0  0  0  0  0  0  0  0  0  0  0  0
   44.7390   34.9070   42.7410 C   0  0  0  0  0  0  0  0  0  0  0  0
   43.5920   35.3040   42.0760 C   0  0  0  0  0  0  0  0  0  0  0  0
   42.9740   34.1650   41.7750 N   0  0  0  0  0  0  0  0  0  0  0  0
   43.6650   33.1210   42.2130 N   0  0  0  0  0  0  0  0  0  0  0  0
   45.5760   35.4790   43.1870 H   0  0  0  0  0  0  0  0  0  0  0  0
   43.5560   36.3860   42.0160 H   0  0  0  0  0  0  0  0  0  0  0  0
   47.8710   31.5050   43.5650 C   0  0  0  0  0  0  0  0  0  0  0  0
   46.9200   32.2340   42.7890 C   0  0  0  0  0  0  0  0  0  0  0  0
   45.8430   32.7410   43.4760 C   0  0  0  0  0  0  0  0  0  0  0  0
   45.7270   32.5370   44.8220 N   0  0  0  0  0  0  0  0  0  0  0  0
   46.6570   31.8380   45.5160 C   0  0  0  0  0  0  0  0  0  0  0  0
   47.7090   31.3380   44.8700 N   0  0  0  0  0  0  0  0  0  0  0  0
   48.7010   31.1340   42.9410 H   0  0  0  0  0  0  0  0  0  0  0  0
   47.0130   32.3950   41.7240 H   0  0  0  0  0  0  0  0  0  0  0  0
   46.5110   31.7130   46.5700 H   0  0  0  0  0  0  0  0  0  0  0  0
  1  2  1  0  0  0  0
  2  8  1  1  0  0  0
  2 30  1  0  0  0  0
  3  9  1  0  0  0  0
  3  2  1  0  0  0  0
  3 10  1  0  0  0  0
  4  3  1  0  0  0  0
  5  6  1  0  0  0  0
  5  4  1  0  0  0  0
  6 14  1  1  0  0  0
  6  1  1  0  0  0  0
  7  1  1  0  0  0  0
 11  4  1  0  0  0  0
 12  5  1  0  0  0  0
 13  5  1  0  0  0  0
 15  6  1  0  0  0  0
 16 17  1  0  0  0  0
 16 15  1  0  0  0  0
 18 16  2  0  0  0  0
 19 18  1  0  0  0  0
 19 26  1  0  0  0  0
 20 22  1  0  0  0  0
 20 19  2  0  0  0  0
 21 20  1  0  0  0  0
 22 23  2  0  0  0  0
 23 25  1  0  0  0  0
 24 23  1  0  0  0  0
 25 26  2  0  0  0  0
 26 15  1  0  0  0  0
 27 36  1  0  0  0  0
 28 27  1  0  0  0  0
 28 32  1  0  0  0  0
 29 28  2  0  0  0  0
 30 29  1  0  0  0  0
 30 31  1  0  0  0  0
 31 27  2  0  0  0  0
 33 29  1  0  0  0  0
 34 39  1  0  0  0  0
 35 36  1  0  0  0  0
 35 34  2  0  0  0  0
 36 37  2  0  0  0  0
 37 38  1  0  0  0  0
 38 42  1  0  0  0  0
 39 38  2  0  0  0  0
 40 34  1  0  0  0  0
 41 35  1  0  0  0  0
M  END
>  <minimizedAffinity>
-4.46721983

>  <minimizedRMSD>
3.11215544

$$$$
