
 OpenBabel03252509003D

 48 51  0  0  1  0  0  0  0  0999 V2000
   46.9060   34.2890   43.3100 N   0  0  0  0  0  0  0  0  0  0  0  0
   46.4680   35.5110   42.7320 C   0  0  0  0  0  0  0  0  0  0  0  0
   44.9910   35.8060   42.9060 C   0  0  0  0  0  0  0  0  0  0  0  0
   44.4070   35.3110   44.1970 C   0  0  0  0  0  0  0  0  0  0  0  0
   45.4530   34.6760   45.0830 C   0  0  0  0  0  0  0  0  0  0  0  0
   46.0880   33.5690   44.1670 C   0  0  2  0  0  0  0  0  0  0  0  0
   47.0050   36.3320   43.2800 H   0  0  0  0  0  0  0  0  0  0  0  0
   46.7070   35.6530   41.6770 H   0  0  0  0  0  0  0  0  0  0  0  0
   44.4610   35.2720   42.0850 H   0  0  0  0  0  0  0  0  0  0  0  0
   44.8470   36.8890   42.7320 H   0  0  0  0  0  0  0  0  0  0  0  0
   43.5580   34.6330   44.0900 H   0  0  0  0  0  0  0  0  0  0  0  0
   44.0230   36.2130   44.7530 H   0  0  0  0  0  0  0  0  0  0  0  0
   46.2290   35.4050   45.3670 H   0  0  0  0  0  0  0  0  0  0  0  0
   44.9470   34.1770   45.9240 H   0  0  0  0  0  0  0  0  0  0  0  0
   45.2270   33.0220   43.7400 H   0  0  0  0  0  0  0  0  0  0  0  0
   47.8770   33.5800   42.5250 C   0  0  0  0  0  0  0  0  0  0  0  0
   48.5710   34.3040   42.0760 H   0  0  0  0  0  0  0  0  0  0  0  0
   48.4750   32.9240   43.1790 H   0  0  0  0  0  0  0  0  0  0  0  0
   47.1500   32.7460   41.5070 C   0  0  0  0  0  0  0  0  0  0  0  0
   46.0970   33.0830   41.4000 H   0  0  0  0  0  0  0  0  0  0  0  0
   47.1310   31.6710   41.7410 H   0  0  0  0  0  0  0  0  0  0  0  0
   49.2220   32.1690   38.4200 C   0  0  0  0  0  0  0  0  0  0  0  0
   48.6170   31.9850   39.6780 C   0  0  0  0  0  0  0  0  0  0  0  0
   47.7830   32.9530   40.1750 C   0  0  0  0  0  0  0  0  0  0  0  0
   47.5830   34.0470   39.4220 N   0  0  0  0  0  0  0  0  0  0  0  0
   48.1600   34.2210   38.2240 C   0  0  0  0  0  0  0  0  0  0  0  0
   48.9860   33.2810   37.7110 N   0  0  0  0  0  0  0  0  0  0  0  0
   49.8760   31.3830   38.0560 H   0  0  0  0  0  0  0  0  0  0  0  0
   48.8400   31.0690   40.2100 H   0  0  0  0  0  0  0  0  0  0  0  0
   47.8820   35.1620   37.7620 H   0  0  0  0  0  0  0  0  0  0  0  0
   46.8280   32.8360   45.0890 O   0  0  0  0  0  0  0  0  0  0  0  0
   45.3610   30.8350   44.1340 O   0  0  0  0  0  0  0  0  0  0  0  0
   46.2300   31.2790   45.3100 P   0  0  2  0  0  0  0  0  0  0  0  0
   45.1570   31.3670   46.6400 O   0  0  0  0  0  0  0  0  0  0  0  0
   45.7110   31.6400   47.4270 H   0  0  0  0  0  0  0  0  0  0  0  0
   47.4140   30.1810   45.6910 O   0  0  0  0  0  0  0  0  0  0  0  0
   48.1240   31.0800   43.2020 H   0  0  0  0  0  0  0  0  0  0  0  0
   48.7520   30.4680   43.7780 N   0  0  0  0  0  0  0  0  0  0  0  0
   48.5880   29.9240   45.0160 C   0  0  0  0  0  0  0  0  0  0  0  0
   49.7010   29.2030   45.3200 N   0  0  0  0  0  0  0  0  0  0  0  0
   50.5830   29.2770   44.2850 C   0  0  0  0  0  0  0  0  0  0  0  0
   51.8390   28.7300   44.1000 C   0  0  0  0  0  0  0  0  0  0  0  0
   52.2140   28.1260   44.9160 H   0  0  0  0  0  0  0  0  0  0  0  0
   52.4610   29.0020   42.9370 N   0  0  0  0  0  0  0  0  0  0  0  0
   51.8560   29.7760   42.0190 C   0  0  0  0  0  0  0  0  0  0  0  0
   52.3590   29.9950   41.0800 H   0  0  0  0  0  0  0  0  0  0  0  0
   50.6220   30.3220   42.1830 N   0  0  0  0  0  0  0  0  0  0  0  0
   49.9610   30.0700   43.3450 C   0  0  0  0  0  0  0  0  0  0  0  0
  1  6  1  0  0  0  0
  2  3  1  0  0  0  0
  2  7  1  0  0  0  0
  2  1  1  0  0  0  0
  3  4  1  0  0  0  0
  4 12  1  0  0  0  0
  4  5  1  0  0  0  0
  5 13  1  0  0  0  0
  5 14  1  0  0  0  0
  6 15  1  6  0  0  0
  6  5  1  0  0  0  0
  6 31  1  0  0  0  0
  8  2  1  0  0  0  0
  9  3  1  0  0  0  0
 10  3  1  0  0  0  0
 11  4  1  0  0  0  0
 16 18  1  0  0  0  0
 16  1  1  0  0  0  0
 17 16  1  0  0  0  0
 19 21  1  0  0  0  0
 19 16  1  0  0  0  0
 20 19  1  0  0  0  0
 22 23  1  0  0  0  0
 23 24  2  0  0  0  0
 23 29  1  0  0  0  0
 24 19  1  0  0  0  0
 25 24  1  0  0  0  0
 26 25  2  0  0  0  0
 27 26  1  0  0  0  0
 27 22  2  0  0  0  0
 28 22  1  0  0  0  0
 30 26  1  0  0  0  0
 31 33  1  0  0  0  0
 33 32  2  6  0  0  0
 33 36  1  0  0  0  0
 33 34  1  0  0  0  0
 34 35  1  0  0  0  0
 37 38  1  0  0  0  0
 38 39  1  0  0  0  0
 39 40  2  0  0  0  0
 39 36  1  0  0  0  0
 41 40  1  0  0  0  0
 42 41  1  0  0  0  0
 42 43  1  0  0  0  0
 44 42  2  0  0  0  0
 45 47  2  0  0  0  0
 45 44  1  0  0  0  0
 46 45  1  0  0  0  0
 47 48  1  0  0  0  0
 48 38  1  0  0  0  0
 48 41  2  0  0  0  0
M  END
>  <minimizedAffinity>
-4.14935637

>  <minimizedRMSD>
1.01464748

$$$$
