
 OpenBabel03242515443D

 41 45  0  0  0  0  0  0  0  0999 V2000
   36.4940   30.2970   39.1180 C   0  0  0  0  0  0  0  0  0  0  0  0
   37.3870   31.2090   38.6790 C   0  0  0  0  0  0  0  0  0  0  0  0
   37.6330   31.2210   37.2840 C   0  0  0  0  0  0  0  0  0  0  0  0
   36.9880   30.3470   36.4750 N   0  0  0  0  0  0  0  0  0  0  0  0
   36.1090   29.4560   36.9640 C   0  0  0  0  0  0  0  0  0  0  0  0
   35.9050   29.4760   38.2570 N   0  0  0  0  0  0  0  0  0  0  0  0
   38.2220   32.1600   39.2600 N   0  0  0  0  0  0  0  0  0  0  0  0
   37.5620   33.2930   39.6470 C   0  0  0  0  0  0  0  0  0  0  0  0
   36.5570   33.7310   39.6430 H   0  0  0  0  0  0  0  0  0  0  0  0
   38.4440   34.1600   40.2270 N   0  0  0  0  0  0  0  0  0  0  0  0
   39.6660   33.6040   40.2200 C   0  0  0  0  0  0  0  0  0  0  0  0
   40.9910   33.8390   40.6000 C   0  0  0  0  0  0  0  0  0  0  0  0
   41.1300   34.8180   41.0800 H   0  0  0  0  0  0  0  0  0  0  0  0
   41.9670   32.9580   40.3940 N   0  0  0  0  0  0  0  0  0  0  0  0
   41.7410   31.7760   39.8030 C   0  0  0  0  0  0  0  0  0  0  0  0
   42.5370   31.0670   39.6400 H   0  0  0  0  0  0  0  0  0  0  0  0
   40.4670   31.4790   39.4050 N   0  0  0  0  0  0  0  0  0  0  0  0
   39.4860   32.3810   39.6210 C   0  0  0  0  0  0  0  0  0  0  0  0
   38.5430   32.1510   36.6870 N   0  0  0  0  0  0  0  0  0  0  0  0
   38.2850   32.6550   35.8200 H   0  0  0  0  0  0  0  0  0  0  0  0
   39.4980   32.3460   37.1080 H   0  0  0  0  0  0  0  0  0  0  0  0
   36.1950   30.3220   40.9020 S   0  0  0  0  0  0  0  0  0  0  0  0
   36.5650   28.0720   42.2800 C   0  0  0  0  0  0  0  0  0  0  0  0
   37.2590   29.1580   41.7280 C   0  0  0  0  0  0  0  0  0  0  0  0
   38.6350   29.2500   41.8230 C   0  0  0  0  0  0  0  0  0  0  0  0
   39.3590   28.2720   42.4640 C   0  0  0  0  0  0  0  0  0  0  0  0
   38.6840   27.1920   43.0140 C   0  0  0  0  0  0  0  0  0  0  0  0
   37.3030   27.0700   42.9370 C   0  0  0  0  0  0  0  0  0  0  0  0
   39.6460   26.3410   43.6060 O   0  0  0  0  0  0  0  0  0  0  0  0
   40.8260   27.0660   43.6720 C   0  0  0  0  0  0  0  0  0  0  0  0
   40.7120   28.0930   42.7090 O   0  0  0  0  0  0  0  0  0  0  0  0
   35.5010   27.9420   42.2430 H   0  0  0  0  0  0  0  0  0  0  0  0
   39.0940   30.1190   41.3730 H   0  0  0  0  0  0  0  0  0  0  0  0
   36.7650   26.2340   43.3610 H   0  0  0  0  0  0  0  0  0  0  0  0
   40.9080   27.4830   44.6970 H   0  0  0  0  0  0  0  0  0  0  0  0
   41.7020   26.4240   43.4370 H   0  0  0  0  0  0  0  0  0  0  0  0
   35.4110   28.5290   36.2290 O   0  0  0  0  0  0  0  0  0  0  0  0
   34.2000   28.9370   35.6320 C   0  0  0  0  0  0  0  0  0  0  0  0
   33.3440   29.5190   36.5160 F   0  0  0  0  0  0  0  0  0  0  0  0
   34.5470   29.8010   34.5810 F   0  0  0  0  0  0  0  0  0  0  0  0
   33.5890   27.7910   35.1190 F   0  0  0  0  0  0  0  0  0  0  0  0
  1 22  1  0  0  0  0
  2  1  1  0  0  0  0
  2  7  1  0  0  0  0
  3  2  2  0  0  0  0
  4  5  2  0  0  0  0
  4  3  1  0  0  0  0
  5  6  1  0  0  0  0
  6  1  2  0  0  0  0
  7 18  1  0  0  0  0
  7  8  1  0  0  0  0
  8 10  2  0  0  0  0
  9  8  1  0  0  0  0
 11 10  1  0  0  0  0
 11 12  1  0  0  0  0
 12 13  1  0  0  0  0
 14 12  2  0  0  0  0
 15 14  1  0  0  0  0
 16 15  1  0  0  0  0
 17 18  1  0  0  0  0
 17 15  2  0  0  0  0
 18 11  2  0  0  0  0
 19 21  1  0  0  0  0
 19  3  1  0  0  0  0
 20 19  1  0  0  0  0
 22 24  1  0  0  0  0
 23 28  1  0  0  0  0
 24 25  1  0  0  0  0
 24 23  2  0  0  0  0
 25 26  2  0  0  0  0
 26 31  1  0  0  0  0
 26 27  1  0  0  0  0
 27 29  1  0  0  0  0
 28 27  2  0  0  0  0
 28 34  1  0  0  0  0
 29 30  1  0  0  0  0
 30 35  1  0  0  0  0
 31 30  1  0  0  0  0
 32 23  1  0  0  0  0
 33 25  1  0  0  0  0
 36 30  1  0  0  0  0
 37  5  1  0  0  0  0
 38 37  1  0  0  0  0
 38 39  1  0  0  0  0
 40 38  1  0  0  0  0
 41 38  1  0  0  0  0
M  END
>  <minimizedAffinity>
-6.86785221

$$$$

 OpenBabel03242515443D

 41 45  0  0  0  0  0  0  0  0999 V2000
   35.8860   29.2870   39.3420 C   0  0  0  0  0  0  0  0  0  0  0  0
   36.9230   29.9520   38.7920 C   0  0  0  0  0  0  0  0  0  0  0  0
   36.9780   29.9640   37.3770 C   0  0  0  0  0  0  0  0  0  0  0  0
   36.0240   29.3270   36.6570 N   0  0  0  0  0  0  0  0  0  0  0  0
   35.0120   28.6760   37.2550 C   0  0  0  0  0  0  0  0  0  0  0  0
   34.9920   28.6890   38.5640 N   0  0  0  0  0  0  0  0  0  0  0  0
   38.0500   30.6240   39.2610 N   0  0  0  0  0  0  0  0  0  0  0  0
   39.1510   29.8210   39.3680 C   0  0  0  0  0  0  0  0  0  0  0  0
   39.4580   28.7790   39.2150 H   0  0  0  0  0  0  0  0  0  0  0  0
   40.2130   30.5580   39.8080 N   0  0  0  0  0  0  0  0  0  0  0  0
   39.8140   31.8270   39.9890 C   0  0  0  0  0  0  0  0  0  0  0  0
   40.2730   33.0860   40.3890 C   0  0  0  0  0  0  0  0  0  0  0  0
   41.3380   33.0830   40.6650 H   0  0  0  0  0  0  0  0  0  0  0  0
   39.4900   34.1610   40.4250 N   0  0  0  0  0  0  0  0  0  0  0  0
   38.1970   34.1080   40.0780 C   0  0  0  0  0  0  0  0  0  0  0  0
   37.5680   34.9830   40.1100 H   0  0  0  0  0  0  0  0  0  0  0  0
   37.6790   32.9070   39.6760 N   0  0  0  0  0  0  0  0  0  0  0  0
   38.4850   31.8250   39.6420 C   0  0  0  0  0  0  0  0  0  0  0  0
   38.0150   30.6490   36.6680 N   0  0  0  0  0  0  0  0  0  0  0  0
   37.7890   31.2430   35.8500 H   0  0  0  0  0  0  0  0  0  0  0  0
   39.0350   30.5680   36.9540 H   0  0  0  0  0  0  0  0  0  0  0  0
   35.8410   29.3070   41.1510 S   0  0  0  0  0  0  0  0  0  0  0  0
   37.9190   28.7100   42.7070 C   0  0  0  0  0  0  0  0  0  0  0  0
   37.0040   28.1340   41.8160 C   0  0  0  0  0  0  0  0  0  0  0  0
   37.0310   26.7800   41.5380 C   0  0  0  0  0  0  0  0  0  0  0  0
   37.9610   25.9620   42.1350 C   0  0  0  0  0  0  0  0  0  0  0  0
   38.8720   26.5190   43.0200 C   0  0  0  0  0  0  0  0  0  0  0  0
   38.8730   27.8750   43.3200 C   0  0  0  0  0  0  0  0  0  0  0  0
   39.7070   25.4780   43.4900 O   0  0  0  0  0  0  0  0  0  0  0  0
   39.4860   24.3910   42.6580 C   0  0  0  0  0  0  0  0  0  0  0  0
   38.2250   24.6020   42.0590 O   0  0  0  0  0  0  0  0  0  0  0  0
   37.9530   29.7510   42.9640 H   0  0  0  0  0  0  0  0  0  0  0  0
   36.2930   26.4150   40.8380 H   0  0  0  0  0  0  0  0  0  0  0  0
   39.5770   28.3220   44.0070 H   0  0  0  0  0  0  0  0  0  0  0  0
   40.2950   24.3800   41.8980 H   0  0  0  0  0  0  0  0  0  0  0  0
   39.4760   23.4430   43.2350 H   0  0  0  0  0  0  0  0  0  0  0  0
   34.0020   27.9990   36.6150 O   0  0  0  0  0  0  0  0  0  0  0  0
   32.9530   28.7550   36.0540 C   0  0  0  0  0  0  0  0  0  0  0  0
   32.5830   29.8080   36.8350 F   0  0  0  0  0  0  0  0  0  0  0  0
   33.3930   29.1650   34.7850 F   0  0  0  0  0  0  0  0  0  0  0  0
   31.8560   27.9010   35.9210 F   0  0  0  0  0  0  0  0  0  0  0  0
  1 22  1  0  0  0  0
  2  7  1  0  0  0  0
  2  1  1  0  0  0  0
  3  2  2  0  0  0  0
  4  5  2  0  0  0  0
  4  3  1  0  0  0  0
  5  6  1  0  0  0  0
  6  1  2  0  0  0  0
  7  8  1  0  0  0  0
  7 18  1  0  0  0  0
  8 10  2  0  0  0  0
  9  8  1  0  0  0  0
 10 11  1  0  0  0  0
 11 12  1  0  0  0  0
 12 14  2  0  0  0  0
 12 13  1  0  0  0  0
 15 16  1  0  0  0  0
 15 14  1  0  0  0  0
 17 15  2  0  0  0  0
 18 17  1  0  0  0  0
 18 11  2  0  0  0  0
 19 21  1  0  0  0  0
 19  3  1  0  0  0  0
 20 19  1  0  0  0  0
 22 24  1  0  0  0  0
 23 32  1  0  0  0  0
 23 28  1  0  0  0  0
 24 23  2  0  0  0  0
 25 24  1  0  0  0  0
 25 26  2  0  0  0  0
 26 27  1  0  0  0  0
 27 28  2  0  0  0  0
 27 29  1  0  0  0  0
 28 34  1  0  0  0  0
 30 36  1  0  0  0  0
 30 29  1  0  0  0  0
 31 26  1  0  0  0  0
 31 30  1  0  0  0  0
 33 25  1  0  0  0  0
 35 30  1  0  0  0  0
 37  5  1  0  0  0  0
 38 37  1  0  0  0  0
 38 39  1  0  0  0  0
 40 38  1  0  0  0  0
 41 38  1  0  0  0  0
M  END
>  <minimizedAffinity>
-6.14060354

$$$$

 OpenBabel03242515443D

 41 45  0  0  0  0  0  0  0  0999 V2000
   38.3900   28.2060   39.5060 C   0  0  0  0  0  0  0  0  0  0  0  0
   38.3150   29.1870   40.4300 C   0  0  0  0  0  0  0  0  0  0  0  0
   38.2270   28.7680   41.7800 C   0  0  0  0  0  0  0  0  0  0  0  0
   38.2180   27.4480   42.0800 N   0  0  0  0  0  0  0  0  0  0  0  0
   38.2920   26.5100   41.1210 C   0  0  0  0  0  0  0  0  0  0  0  0
   38.3750   26.9340   39.8850 N   0  0  0  0  0  0  0  0  0  0  0  0
   38.2420   30.5780   40.4170 N   0  0  0  0  0  0  0  0  0  0  0  0
   36.9610   31.0510   40.3620 C   0  0  0  0  0  0  0  0  0  0  0  0
   35.9260   30.6900   40.3110 H   0  0  0  0  0  0  0  0  0  0  0  0
   36.9770   32.4160   40.3780 N   0  0  0  0  0  0  0  0  0  0  0  0
   38.2510   32.8340   40.4420 C   0  0  0  0  0  0  0  0  0  0  0  0
   39.0360   33.9900   40.4910 C   0  0  0  0  0  0  0  0  0  0  0  0
   38.4370   34.9130   40.4740 H   0  0  0  0  0  0  0  0  0  0  0  0
   40.3640   33.9580   40.5540 N   0  0  0  0  0  0  0  0  0  0  0  0
   41.0450   32.8030   40.5730 C   0  0  0  0  0  0  0  0  0  0  0  0
   42.1220   32.7840   40.6230 H   0  0  0  0  0  0  0  0  0  0  0  0
   40.3410   31.6310   40.5260 N   0  0  0  0  0  0  0  0  0  0  0  0
   38.9930   31.6790   40.4640 C   0  0  0  0  0  0  0  0  0  0  0  0
   38.1620   29.7070   42.8590 N   0  0  0  0  0  0  0  0  0  0  0  0
   38.7390   29.5730   43.7080 H   0  0  0  0  0  0  0  0  0  0  0  0
   37.5250   30.5570   42.8220 H   0  0  0  0  0  0  0  0  0  0  0  0
   38.5160   28.7800   37.7960 S   0  0  0  0  0  0  0  0  0  0  0  0
   36.9400   28.9220   35.6530 C   0  0  0  0  0  0  0  0  0  0  0  0
   36.9010   28.8890   37.0540 C   0  0  0  0  0  0  0  0  0  0  0  0
   35.7000   28.9140   37.7370 C   0  0  0  0  0  0  0  0  0  0  0  0
   34.5080   28.9710   37.0550 C   0  0  0  0  0  0  0  0  0  0  0  0
   34.5310   29.0030   35.6680 C   0  0  0  0  0  0  0  0  0  0  0  0
   35.7200   28.9800   34.9510 C   0  0  0  0  0  0  0  0  0  0  0  0
   33.1920   29.0580   35.2170 O   0  0  0  0  0  0  0  0  0  0  0  0
   32.4160   29.3670   36.3230 C   0  0  0  0  0  0  0  0  0  0  0  0
   33.1800   29.0040   37.4550 O   0  0  0  0  0  0  0  0  0  0  0  0
   37.8350   28.9060   35.0630 H   0  0  0  0  0  0  0  0  0  0  0  0
   35.7570   28.8880   38.8160 H   0  0  0  0  0  0  0  0  0  0  0  0
   35.7530   29.0050   33.8710 H   0  0  0  0  0  0  0  0  0  0  0  0
   32.2210   30.4590   36.3040 H   0  0  0  0  0  0  0  0  0  0  0  0
   31.4630   28.7970   36.3140 H   0  0  0  0  0  0  0  0  0  0  0  0
   38.2850   25.1510   41.3230 O   0  0  0  0  0  0  0  0  0  0  0  0
   37.0380   24.4950   41.3590 C   0  0  0  0  0  0  0  0  0  0  0  0
   37.1380   23.1550   41.1340 F   0  0  0  0  0  0  0  0  0  0  0  0
   36.4740   24.7820   42.6120 F   0  0  0  0  0  0  0  0  0  0  0  0
   36.2520   25.0510   40.3480 F   0  0  0  0  0  0  0  0  0  0  0  0
  1  6  2  0  0  0  0
  1  2  1  0  0  0  0
  2  3  2  0  0  0  0
  3  4  1  0  0  0  0
  3 19  1  0  0  0  0
  5 37  1  0  0  0  0
  5  4  2  0  0  0  0
  6  5  1  0  0  0  0
  7  2  1  0  0  0  0
  7 18  1  0  0  0  0
  8 10  2  0  0  0  0
  8  7  1  0  0  0  0
  9  8  1  0  0  0  0
 10 11  1  0  0  0  0
 11 18  2  0  0  0  0
 11 12  1  0  0  0  0
 12 14  2  0  0  0  0
 13 12  1  0  0  0  0
 14 15  1  0  0  0  0
 15 16  1  0  0  0  0
 17 15  2  0  0  0  0
 18 17  1  0  0  0  0
 19 20  1  0  0  0  0
 21 19  1  0  0  0  0
 22  1  1  0  0  0  0
 23 24  1  0  0  0  0
 24 25  2  0  0  0  0
 24 22  1  0  0  0  0
 25 33  1  0  0  0  0
 26 31  1  0  0  0  0
 26 25  1  0  0  0  0
 27 26  2  0  0  0  0
 28 23  2  0  0  0  0
 28 27  1  0  0  0  0
 29 27  1  0  0  0  0
 29 30  1  0  0  0  0
 30 31  1  0  0  0  0
 32 23  1  0  0  0  0
 34 28  1  0  0  0  0
 35 30  1  0  0  0  0
 36 30  1  0  0  0  0
 37 38  1  0  0  0  0
 38 40  1  0  0  0  0
 39 38  1  0  0  0  0
 41 38  1  0  0  0  0
M  END
>  <minimizedAffinity>
-6.03841972

$$$$

 OpenBabel03242515443D

 41 45  0  0  0  0  0  0  0  0999 V2000
   38.2450   30.9410   41.2480 C   0  0  0  0  0  0  0  0  0  0  0  0
   38.6530   29.8040   41.8500 C   0  0  0  0  0  0  0  0  0  0  0  0
   40.0190   29.7460   42.2160 C   0  0  0  0  0  0  0  0  0  0  0  0
   40.8360   30.7950   41.9540 N   0  0  0  0  0  0  0  0  0  0  0  0
   40.3800   31.9050   41.3490 C   0  0  0  0  0  0  0  0  0  0  0  0
   39.1110   31.9240   41.0280 N   0  0  0  0  0  0  0  0  0  0  0  0
   38.0780   28.5790   42.1810 N   0  0  0  0  0  0  0  0  0  0  0  0
   37.3420   28.6220   43.3320 C   0  0  0  0  0  0  0  0  0  0  0  0
   37.0490   29.3210   44.1240 H   0  0  0  0  0  0  0  0  0  0  0  0
   36.7960   27.3930   43.5710 N   0  0  0  0  0  0  0  0  0  0  0  0
   37.1680   26.5560   42.5910 C   0  0  0  0  0  0  0  0  0  0  0  0
   37.0330   25.2350   42.1520 C   0  0  0  0  0  0  0  0  0  0  0  0
   36.4050   24.6270   42.8190 H   0  0  0  0  0  0  0  0  0  0  0  0
   37.6100   24.7810   41.0420 N   0  0  0  0  0  0  0  0  0  0  0  0
   38.3670   25.5670   40.2650 C   0  0  0  0  0  0  0  0  0  0  0  0
   38.8320   25.1920   39.3670 H   0  0  0  0  0  0  0  0  0  0  0  0
   38.5430   26.8730   40.6330 N   0  0  0  0  0  0  0  0  0  0  0  0
   37.9510   27.3200   41.7600 C   0  0  0  0  0  0  0  0  0  0  0  0
   40.5760   28.6060   42.8780 N   0  0  0  0  0  0  0  0  0  0  0  0
   41.2060   28.7250   43.6920 H   0  0  0  0  0  0  0  0  0  0  0  0
   40.3640   27.6160   42.5570 H   0  0  0  0  0  0  0  0  0  0  0  0
   36.4910   30.9830   40.8090 S   0  0  0  0  0  0  0  0  0  0  0  0
   35.3980   28.9400   39.4940 C   0  0  0  0  0  0  0  0  0  0  0  0
   36.2020   30.0730   39.3060 C   0  0  0  0  0  0  0  0  0  0  0  0
   36.6740   30.4150   38.0530 C   0  0  0  0  0  0  0  0  0  0  0  0
   36.3630   29.6490   36.9550 C   0  0  0  0  0  0  0  0  0  0  0  0
   35.5660   28.5260   37.1260 C   0  0  0  0  0  0  0  0  0  0  0  0
   35.0780   28.1540   38.3720 C   0  0  0  0  0  0  0  0  0  0  0  0
   35.3960   27.9220   35.8590 O   0  0  0  0  0  0  0  0  0  0  0  0
   36.3290   28.5050   35.0160 C   0  0  0  0  0  0  0  0  0  0  0  0
   36.6770   29.7400   35.6070 O   0  0  0  0  0  0  0  0  0  0  0  0
   35.0020   28.6190   40.4380 H   0  0  0  0  0  0  0  0  0  0  0  0
   37.2890   31.3020   37.9940 H   0  0  0  0  0  0  0  0  0  0  0  0
   34.4560   27.2810   38.5200 H   0  0  0  0  0  0  0  0  0  0  0  0
   37.2050   27.8260   34.9620 H   0  0  0  0  0  0  0  0  0  0  0  0
   35.9020   28.6780   34.0060 H   0  0  0  0  0  0  0  0  0  0  0  0
   41.1260   33.0150   41.0380 O   0  0  0  0  0  0  0  0  0  0  0  0
   41.5330   33.1830   39.6980 C   0  0  0  0  0  0  0  0  0  0  0  0
   41.5070   32.0210   38.9880 F   0  0  0  0  0  0  0  0  0  0  0  0
   40.6890   34.1610   39.1470 F   0  0  0  0  0  0  0  0  0  0  0  0
   42.8480   33.6520   39.7230 F   0  0  0  0  0  0  0  0  0  0  0  0
  1  2  1  0  0  0  0
  2  7  1  0  0  0  0
  2  3  2  0  0  0  0
  3 19  1  0  0  0  0
  4  3  1  0  0  0  0
  5  4  2  0  0  0  0
  6  1  2  0  0  0  0
  6  5  1  0  0  0  0
  7  8  1  0  0  0  0
  8 10  2  0  0  0  0
  8  9  1  0  0  0  0
 11 10  1  0  0  0  0
 12 11  1  0  0  0  0
 12 13  1  0  0  0  0
 14 12  2  0  0  0  0
 15 17  2  0  0  0  0
 15 14  1  0  0  0  0
 16 15  1  0  0  0  0
 17 18  1  0  0  0  0
 18  7  1  0  0  0  0
 18 11  2  0  0  0  0
 19 20  1  0  0  0  0
 21 19  1  0  0  0  0
 22  1  1  0  0  0  0
 23 32  1  0  0  0  0
 24 23  1  0  0  0  0
 24 22  1  0  0  0  0
 25 24  2  0  0  0  0
 26 27  2  0  0  0  0
 26 25  1  0  0  0  0
 27 28  1  0  0  0  0
 28 34  1  0  0  0  0
 28 23  2  0  0  0  0
 29 27  1  0  0  0  0
 30 31  1  0  0  0  0
 30 29  1  0  0  0  0
 31 26  1  0  0  0  0
 33 25  1  0  0  0  0
 35 30  1  0  0  0  0
 36 30  1  0  0  0  0
 37  5  1  0  0  0  0
 38 41  1  0  0  0  0
 38 37  1  0  0  0  0
 39 38  1  0  0  0  0
 40 38  1  0  0  0  0
M  END
>  <minimizedAffinity>
-5.99862576

$$$$

 OpenBabel03242515443D

 41 45  0  0  0  0  0  0  0  0999 V2000
   37.7250   30.4820   39.5860 C   0  0  0  0  0  0  0  0  0  0  0  0
   38.6560   31.2640   38.9980 C   0  0  0  0  0  0  0  0  0  0  0  0
   38.5110   31.4660   37.6040 C   0  0  0  0  0  0  0  0  0  0  0  0
   37.4830   30.8850   36.9390 N   0  0  0  0  0  0  0  0  0  0  0  0
   36.5850   30.1130   37.5720 C   0  0  0  0  0  0  0  0  0  0  0  0
   36.7490   29.9510   38.8610 N   0  0  0  0  0  0  0  0  0  0  0  0
   39.8170   31.9200   39.3980 N   0  0  0  0  0  0  0  0  0  0  0  0
   39.5740   33.1000   40.0450 C   0  0  0  0  0  0  0  0  0  0  0  0
   38.7390   33.7380   40.3590 H   0  0  0  0  0  0  0  0  0  0  0  0
   40.7590   33.6650   40.4240 N   0  0  0  0  0  0  0  0  0  0  0  0
   41.7640   32.8680   40.0310 C   0  0  0  0  0  0  0  0  0  0  0  0
   43.1590   32.7570   40.0420 C   0  0  0  0  0  0  0  0  0  0  0  0
   43.6490   33.6040   40.5420 H   0  0  0  0  0  0  0  0  0  0  0  0
   43.8040   31.7270   39.5010 N   0  0  0  0  0  0  0  0  0  0  0  0
   43.1540   30.7190   38.9020 C   0  0  0  0  0  0  0  0  0  0  0  0
   43.6850   29.8880   38.4650 H   0  0  0  0  0  0  0  0  0  0  0  0
   41.7880   30.7620   38.8530 N   0  0  0  0  0  0  0  0  0  0  0  0
   41.1460   31.8110   39.4070 C   0  0  0  0  0  0  0  0  0  0  0  0
   39.4170   32.2880   36.8620 N   0  0  0  0  0  0  0  0  0  0  0  0
   39.0620   32.9740   36.1730 H   0  0  0  0  0  0  0  0  0  0  0  0
   40.4690   32.2180   36.9940 H   0  0  0  0  0  0  0  0  0  0  0  0
   37.9350   30.2600   41.3690 S   0  0  0  0  0  0  0  0  0  0  0  0
   39.1370   28.3030   42.7190 C   0  0  0  0  0  0  0  0  0  0  0  0
   38.1390   28.5360   41.7630 C   0  0  0  0  0  0  0  0  0  0  0  0
   37.4000   27.4950   41.2320 C   0  0  0  0  0  0  0  0  0  0  0  0
   37.6270   26.2000   41.6330 C   0  0  0  0  0  0  0  0  0  0  0  0
   38.6110   25.9550   42.5800 C   0  0  0  0  0  0  0  0  0  0  0  0
   39.3720   26.9770   43.1310 C   0  0  0  0  0  0  0  0  0  0  0  0
   38.6430   24.5610   42.8160 O   0  0  0  0  0  0  0  0  0  0  0  0
   37.9060   23.9720   41.8000 C   0  0  0  0  0  0  0  0  0  0  0  0
   37.0590   24.9810   41.2910 O   0  0  0  0  0  0  0  0  0  0  0  0
   39.7460   29.0630   43.1680 H   0  0  0  0  0  0  0  0  0  0  0  0
   36.6510   27.7590   40.4990 H   0  0  0  0  0  0  0  0  0  0  0  0
   40.1420   26.8010   43.8700 H   0  0  0  0  0  0  0  0  0  0  0  0
   38.6210   23.6210   41.0270 H   0  0  0  0  0  0  0  0  0  0  0  0
   37.2970   23.1280   42.1860 H   0  0  0  0  0  0  0  0  0  0  0  0
   35.5150   29.4800   36.9870 O   0  0  0  0  0  0  0  0  0  0  0  0
   35.6150   28.0930   36.7570 C   0  0  0  0  0  0  0  0  0  0  0  0
   36.8970   27.6810   36.5520 F   0  0  0  0  0  0  0  0  0  0  0  0
   35.0250   27.4630   37.8650 F   0  0  0  0  0  0  0  0  0  0  0  0
   34.8750   27.8130   35.6060 F   0  0  0  0  0  0  0  0  0  0  0  0
  1 22  1  0  0  0  0
  2  7  1  0  0  0  0
  2  1  1  0  0  0  0
  3  2  2  0  0  0  0
  4  5  2  0  0  0  0
  4  3  1  0  0  0  0
  5  6  1  0  0  0  0
  6  1  2  0  0  0  0
  7 18  1  0  0  0  0
  7  8  1  0  0  0  0
  8  9  1  0  0  0  0
  8 10  2  0  0  0  0
 11 12  1  0  0  0  0
 11 10  1  0  0  0  0
 12 13  1  0  0  0  0
 14 12  2  0  0  0  0
 15 14  1  0  0  0  0
 16 15  1  0  0  0  0
 17 15  2  0  0  0  0
 17 18  1  0  0  0  0
 18 11  2  0  0  0  0
 19 21  1  0  0  0  0
 19  3  1  0  0  0  0
 20 19  1  0  0  0  0
 22 24  1  0  0  0  0
 23 28  1  0  0  0  0
 23 32  1  0  0  0  0
 24 23  2  0  0  0  0
 25 26  2  0  0  0  0
 25 24  1  0  0  0  0
 26 27  1  0  0  0  0
 27 29  1  0  0  0  0
 27 28  2  0  0  0  0
 28 34  1  0  0  0  0
 30 36  1  0  0  0  0
 30 29  1  0  0  0  0
 31 26  1  0  0  0  0
 31 30  1  0  0  0  0
 33 25  1  0  0  0  0
 35 30  1  0  0  0  0
 37  5  1  0  0  0  0
 38 37  1  0  0  0  0
 38 40  1  0  0  0  0
 39 38  1  0  0  0  0
 41 38  1  0  0  0  0
M  END
>  <minimizedAffinity>
-5.99106789

$$$$

 OpenBabel03242515443D

 41 45  0  0  0  0  0  0  0  0999 V2000
   36.6390   29.8470   39.3900 C   0  0  0  0  0  0  0  0  0  0  0  0
   36.9160   28.6330   39.9120 C   0  0  0  0  0  0  0  0  0  0  0  0
   36.6430   27.5190   39.0820 C   0  0  0  0  0  0  0  0  0  0  0  0
   36.1300   27.7070   37.8420 N   0  0  0  0  0  0  0  0  0  0  0  0
   35.8690   28.9380   37.3710 C   0  0  0  0  0  0  0  0  0  0  0  0
   36.1370   29.9440   38.1650 N   0  0  0  0  0  0  0  0  0  0  0  0
   37.3730   28.1440   41.1330 N   0  0  0  0  0  0  0  0  0  0  0  0
   36.4120   28.1400   42.1060 C   0  0  0  0  0  0  0  0  0  0  0  0
   35.3620   28.4160   42.2610 H   0  0  0  0  0  0  0  0  0  0  0  0
   36.9330   27.6260   43.2600 N   0  0  0  0  0  0  0  0  0  0  0  0
   38.2160   27.2960   43.0470 C   0  0  0  0  0  0  0  0  0  0  0  0
   39.3400   26.7560   43.6790 C   0  0  0  0  0  0  0  0  0  0  0  0
   39.1520   26.4900   44.7300 H   0  0  0  0  0  0  0  0  0  0  0  0
   40.5050   26.5870   43.0590 N   0  0  0  0  0  0  0  0  0  0  0  0
   40.6800   26.9290   41.7750 C   0  0  0  0  0  0  0  0  0  0  0  0
   41.6280   26.7900   41.2790 H   0  0  0  0  0  0  0  0  0  0  0  0
   39.6220   27.4650   41.0930 N   0  0  0  0  0  0  0  0  0  0  0  0
   38.4460   27.6290   41.7340 C   0  0  0  0  0  0  0  0  0  0  0  0
   36.9090   26.1780   39.5060 N   0  0  0  0  0  0  0  0  0  0  0  0
   37.3720   25.5060   38.8690 H   0  0  0  0  0  0  0  0  0  0  0  0
   36.6400   25.8360   40.4760 H   0  0  0  0  0  0  0  0  0  0  0  0
   37.0150   31.2450   40.4740 S   0  0  0  0  0  0  0  0  0  0  0  0
   39.0020   32.9720   40.8840 C   0  0  0  0  0  0  0  0  0  0  0  0
   38.4980   32.0700   39.9350 C   0  0  0  0  0  0  0  0  0  0  0  0
   39.1430   31.8630   38.7310 C   0  0  0  0  0  0  0  0  0  0  0  0
   40.3030   32.5400   38.4330 C   0  0  0  0  0  0  0  0  0  0  0  0
   40.8140   33.4340   39.3630 C   0  0  0  0  0  0  0  0  0  0  0  0
   40.1890   33.6660   40.5810 C   0  0  0  0  0  0  0  0  0  0  0  0
   41.9970   33.9880   38.8210 O   0  0  0  0  0  0  0  0  0  0  0  0
   42.0060   33.6570   37.4750 C   0  0  0  0  0  0  0  0  0  0  0  0
   41.1530   32.5390   37.3380 O   0  0  0  0  0  0  0  0  0  0  0  0
   38.5500   33.1780   41.8340 H   0  0  0  0  0  0  0  0  0  0  0  0
   38.6880   31.1540   38.0540 H   0  0  0  0  0  0  0  0  0  0  0  0
   40.5760   34.3590   41.3150 H   0  0  0  0  0  0  0  0  0  0  0  0
   41.6170   34.5300   36.9110 H   0  0  0  0  0  0  0  0  0  0  0  0
   43.0300   33.3940   37.1360 H   0  0  0  0  0  0  0  0  0  0  0  0
   35.3470   29.2310   36.1350 O   0  0  0  0  0  0  0  0  0  0  0  0
   36.2430   29.3720   35.0560 C   0  0  0  0  0  0  0  0  0  0  0  0
   37.4310   28.7410   35.2690 F   0  0  0  0  0  0  0  0  0  0  0  0
   35.5770   28.8810   33.9210 F   0  0  0  0  0  0  0  0  0  0  0  0
   36.4930   30.7370   34.9040 F   0  0  0  0  0  0  0  0  0  0  0  0
  1  2  1  0  0  0  0
  1 22  1  0  0  0  0
  2  7  1  0  0  0  0
  3 19  1  0  0  0  0
  3  2  2  0  0  0  0
  4  3  1  0  0  0  0
  5  4  2  0  0  0  0
  5  6  1  0  0  0  0
  6  1  2  0  0  0  0
  7 18  1  0  0  0  0
  7  8  1  0  0  0  0
  8  9  1  0  0  0  0
  8 10  2  0  0  0  0
 11 10  1  0  0  0  0
 11 12  1  0  0  0  0
 12 13  1  0  0  0  0
 14 12  2  0  0  0  0
 15 14  1  0  0  0  0
 16 15  1  0  0  0  0
 17 18  1  0  0  0  0
 17 15  2  0  0  0  0
 18 11  2  0  0  0  0
 19 21  1  0  0  0  0
 20 19  1  0  0  0  0
 23 32  1  0  0  0  0
 24 22  1  0  0  0  0
 24 23  2  0  0  0  0
 25 24  1  0  0  0  0
 26 25  2  0  0  0  0
 26 27  1  0  0  0  0
 27 28  2  0  0  0  0
 28 23  1  0  0  0  0
 28 34  1  0  0  0  0
 29 27  1  0  0  0  0
 30 29  1  0  0  0  0
 31 30  1  0  0  0  0
 31 26  1  0  0  0  0
 33 25  1  0  0  0  0
 35 30  1  0  0  0  0
 36 30  1  0  0  0  0
 37  5  1  0  0  0  0
 38 39  1  0  0  0  0
 38 37  1  0  0  0  0
 40 38  1  0  0  0  0
 41 38  1  0  0  0  0
M  END
>  <minimizedAffinity>
-5.89599514

$$$$

 OpenBabel03242515443D

 41 45  0  0  0  0  0  0  0  0999 V2000
   37.4420   29.4490   41.0040 C   0  0  0  0  0  0  0  0  0  0  0  0
   38.7050   29.9160   40.9060 C   0  0  0  0  0  0  0  0  0  0  0  0
   39.7080   29.1410   41.5360 C   0  0  0  0  0  0  0  0  0  0  0  0
   39.3740   28.0030   42.1910 N   0  0  0  0  0  0  0  0  0  0  0  0
   38.1000   27.5830   42.2610 C   0  0  0  0  0  0  0  0  0  0  0  0
   37.2000   28.3230   41.6650 N   0  0  0  0  0  0  0  0  0  0  0  0
   39.3210   31.0450   40.3710 N   0  0  0  0  0  0  0  0  0  0  0  0
   39.1550   32.1650   41.1380 C   0  0  0  0  0  0  0  0  0  0  0  0
   38.6700   32.4920   42.0650 H   0  0  0  0  0  0  0  0  0  0  0  0
   39.8070   33.2150   40.5590 N   0  0  0  0  0  0  0  0  0  0  0  0
   40.3920   32.7920   39.4270 C   0  0  0  0  0  0  0  0  0  0  0  0
   41.1790   33.2290   38.3570 C   0  0  0  0  0  0  0  0  0  0  0  0
   41.4340   34.2960   38.4240 H   0  0  0  0  0  0  0  0  0  0  0  0
   41.5680   32.4230   37.3720 N   0  0  0  0  0  0  0  0  0  0  0  0
   41.2270   31.1270   37.3410 C   0  0  0  0  0  0  0  0  0  0  0  0
   41.5460   30.4800   36.5390 H   0  0  0  0  0  0  0  0  0  0  0  0
   40.4570   30.6310   38.3560 N   0  0  0  0  0  0  0  0  0  0  0  0
   40.0710   31.4590   39.3490 C   0  0  0  0  0  0  0  0  0  0  0  0
   41.0890   29.5140   41.4910 N   0  0  0  0  0  0  0  0  0  0  0  0
   41.8190   28.8080   41.2870 H   0  0  0  0  0  0  0  0  0  0  0  0
   41.4030   30.5140   41.6660 H   0  0  0  0  0  0  0  0  0  0  0  0
   36.1910   30.4580   40.1750 S   0  0  0  0  0  0  0  0  0  0  0  0
   36.9010   30.3380   37.6100 C   0  0  0  0  0  0  0  0  0  0  0  0
   35.9280   29.8820   38.5110 C   0  0  0  0  0  0  0  0  0  0  0  0
   34.9050   29.0490   38.0980 C   0  0  0  0  0  0  0  0  0  0  0  0
   34.8170   28.6450   36.7870 C   0  0  0  0  0  0  0  0  0  0  0  0
   35.7740   29.0870   35.8850 C   0  0  0  0  0  0  0  0  0  0  0  0
   36.8140   29.9260   36.2660 C   0  0  0  0  0  0  0  0  0  0  0  0
   35.4620   28.5340   34.6210 O   0  0  0  0  0  0  0  0  0  0  0  0
   34.1730   28.0320   34.7180 C   0  0  0  0  0  0  0  0  0  0  0  0
   33.9310   27.8320   36.0950 O   0  0  0  0  0  0  0  0  0  0  0  0
   37.7170   30.9840   37.8640 H   0  0  0  0  0  0  0  0  0  0  0  0
   34.1940   28.7450   38.8530 H   0  0  0  0  0  0  0  0  0  0  0  0
   37.5660   30.2780   35.5740 H   0  0  0  0  0  0  0  0  0  0  0  0
   33.4830   28.7920   34.2960 H   0  0  0  0  0  0  0  0  0  0  0  0
   34.0790   27.0690   34.1750 H   0  0  0  0  0  0  0  0  0  0  0  0
   37.6610   26.4500   42.9030 O   0  0  0  0  0  0  0  0  0  0  0  0
   37.7210   25.2290   42.2010 C   0  0  0  0  0  0  0  0  0  0  0  0
   37.8920   25.3970   40.8610 F   0  0  0  0  0  0  0  0  0  0  0  0
   38.7650   24.4890   42.7810 F   0  0  0  0  0  0  0  0  0  0  0  0
   36.5060   24.5740   42.4100 F   0  0  0  0  0  0  0  0  0  0  0  0
  1  6  1  0  0  0  0
  2  1  2  0  0  0  0
  2  3  1  0  0  0  0
  3  4  2  0  0  0  0
  4  5  1  0  0  0  0
  5 37  1  0  0  0  0
  6  5  2  0  0  0  0
  7  2  1  0  0  0  0
  7  8  1  0  0  0  0
  8  9  1  0  0  0  0
 10  8  2  0  0  0  0
 11 10  1  0  0  0  0
 12 13  1  0  0  0  0
 12 11  2  0  0  0  0
 14 12  1  0  0  0  0
 15 14  2  0  0  0  0
 15 17  1  0  0  0  0
 16 15  1  0  0  0  0
 17 18  2  0  0  0  0
 18 11  1  0  0  0  0
 18  7  1  0  0  0  0
 19  3  1  0  0  0  0
 19 21  1  0  0  0  0
 20 19  1  0  0  0  0
 22  1  1  0  0  0  0
 23 32  1  0  0  0  0
 23 24  1  0  0  0  0
 24 22  1  0  0  0  0
 25 24  2  0  0  0  0
 25 33  1  0  0  0  0
 26 25  1  0  0  0  0
 27 28  1  0  0  0  0
 27 26  2  0  0  0  0
 28 23  2  0  0  0  0
 29 30  1  0  0  0  0
 29 27  1  0  0  0  0
 30 31  1  0  0  0  0
 31 26  1  0  0  0  0
 34 28  1  0  0  0  0
 35 30  1  0  0  0  0
 36 30  1  0  0  0  0
 38 41  1  0  0  0  0
 38 40  1  0  0  0  0
 38 37  1  0  0  0  0
 39 38  1  0  0  0  0
M  END
>  <minimizedAffinity>
-5.87947655

$$$$

 OpenBabel03242515443D

 41 45  0  0  0  0  0  0  0  0999 V2000
   38.3680   27.5460   40.4490 C   0  0  0  0  0  0  0  0  0  0  0  0
   38.3780   28.5420   41.3600 C   0  0  0  0  0  0  0  0  0  0  0  0
   37.7870   28.2490   42.6130 C   0  0  0  0  0  0  0  0  0  0  0  0
   37.2500   27.0260   42.8380 N   0  0  0  0  0  0  0  0  0  0  0  0
   37.2630   26.0690   41.8950 C   0  0  0  0  0  0  0  0  0  0  0  0
   37.8210   26.3750   40.7510 N   0  0  0  0  0  0  0  0  0  0  0  0
   38.7860   29.8730   41.3910 N   0  0  0  0  0  0  0  0  0  0  0  0
   39.9580   30.0630   42.0690 C   0  0  0  0  0  0  0  0  0  0  0  0
   40.7120   29.4990   42.6310 H   0  0  0  0  0  0  0  0  0  0  0  0
   40.2990   31.3850   42.0310 N   0  0  0  0  0  0  0  0  0  0  0  0
   39.3640   32.0540   41.3390 C   0  0  0  0  0  0  0  0  0  0  0  0
   39.0200   33.3340   40.8930 C   0  0  0  0  0  0  0  0  0  0  0  0
   39.7500   34.1000   41.1940 H   0  0  0  0  0  0  0  0  0  0  0  0
   37.9240   33.5790   40.1790 N   0  0  0  0  0  0  0  0  0  0  0  0
   37.0680   32.6060   39.8400 C   0  0  0  0  0  0  0  0  0  0  0  0
   36.1800   32.8120   39.2620 H   0  0  0  0  0  0  0  0  0  0  0  0
   37.3400   31.3280   40.2430 N   0  0  0  0  0  0  0  0  0  0  0  0
   38.4560   31.0930   40.9640 C   0  0  0  0  0  0  0  0  0  0  0  0
   37.7480   29.2090   43.6730 N   0  0  0  0  0  0  0  0  0  0  0  0
   37.9890   28.9340   44.6420 H   0  0  0  0  0  0  0  0  0  0  0  0
   37.4730   30.2210   43.5000 H   0  0  0  0  0  0  0  0  0  0  0  0
   39.1460   27.9540   38.8680 S   0  0  0  0  0  0  0  0  0  0  0  0
   36.6590   28.6480   38.2130 C   0  0  0  0  0  0  0  0  0  0  0  0
   37.9110   28.3610   37.6520 C   0  0  0  0  0  0  0  0  0  0  0  0
   38.1150   28.4280   36.2860 C   0  0  0  0  0  0  0  0  0  0  0  0
   37.0900   28.7820   35.4420 C   0  0  0  0  0  0  0  0  0  0  0  0
   35.8450   29.0700   35.9840 C   0  0  0  0  0  0  0  0  0  0  0  0
   35.6070   29.0110   37.3510 C   0  0  0  0  0  0  0  0  0  0  0  0
   34.9780   29.4030   34.9180 O   0  0  0  0  0  0  0  0  0  0  0  0
   35.6200   29.0140   33.7520 C   0  0  0  0  0  0  0  0  0  0  0  0
   36.9950   28.9350   34.0670 O   0  0  0  0  0  0  0  0  0  0  0  0
   36.4340   28.6130   39.2610 H   0  0  0  0  0  0  0  0  0  0  0  0
   39.1090   28.1900   35.9340 H   0  0  0  0  0  0  0  0  0  0  0  0
   34.6430   29.2330   37.7870 H   0  0  0  0  0  0  0  0  0  0  0  0
   35.2180   28.0220   33.4610 H   0  0  0  0  0  0  0  0  0  0  0  0
   35.4610   29.7560   32.9420 H   0  0  0  0  0  0  0  0  0  0  0  0
   36.7430   24.8040   42.0250 O   0  0  0  0  0  0  0  0  0  0  0  0
   36.3820   24.1150   40.8500 C   0  0  0  0  0  0  0  0  0  0  0  0
   36.1940   24.9440   39.7860 F   0  0  0  0  0  0  0  0  0  0  0  0
   37.3960   23.1720   40.6160 F   0  0  0  0  0  0  0  0  0  0  0  0
   35.1770   23.4580   41.1110 F   0  0  0  0  0  0  0  0  0  0  0  0
  1  6  2  0  0  0  0
  1  2  1  0  0  0  0
  2  7  1  0  0  0  0
  2  3  2  0  0  0  0
  3  4  1  0  0  0  0
  3 19  1  0  0  0  0
  5 37  1  0  0  0  0
  5  4  2  0  0  0  0
  6  5  1  0  0  0  0
  7  8  1  0  0  0  0
  8  9  1  0  0  0  0
 10  8  2  0  0  0  0
 11 10  1  0  0  0  0
 12 13  1  0  0  0  0
 12 11  2  0  0  0  0
 14 12  1  0  0  0  0
 15 14  2  0  0  0  0
 15 17  1  0  0  0  0
 16 15  1  0  0  0  0
 17 18  2  0  0  0  0
 18 11  1  0  0  0  0
 18  7  1  0  0  0  0
 19 20  1  0  0  0  0
 21 19  1  0  0  0  0
 22  1  1  0  0  0  0
 23 32  1  0  0  0  0
 24 23  1  0  0  0  0
 24 22  1  0  0  0  0
 25 24  2  0  0  0  0
 26 27  2  0  0  0  0
 26 25  1  0  0  0  0
 27 28  1  0  0  0  0
 28 34  1  0  0  0  0
 28 23  2  0  0  0  0
 29 27  1  0  0  0  0
 30 31  1  0  0  0  0
 30 29  1  0  0  0  0
 31 26  1  0  0  0  0
 33 25  1  0  0  0  0
 35 30  1  0  0  0  0
 36 30  1  0  0  0  0
 38 41  1  0  0  0  0
 38 37  1  0  0  0  0
 39 38  1  0  0  0  0
 40 38  1  0  0  0  0
M  END
>  <minimizedAffinity>
-5.82522058

$$$$

 OpenBabel03242515443D

 41 45  0  0  0  0  0  0  0  0999 V2000
   39.4580   31.4020   40.2730 C   0  0  0  0  0  0  0  0  0  0  0  0
   39.7270   30.2460   40.9160 C   0  0  0  0  0  0  0  0  0  0  0  0
   41.0710   29.8020   40.8670 C   0  0  0  0  0  0  0  0  0  0  0  0
   41.9990   30.5250   40.1960 N   0  0  0  0  0  0  0  0  0  0  0  0
   41.6780   31.6690   39.5690 C   0  0  0  0  0  0  0  0  0  0  0  0
   40.4270   32.0500   39.6390 N   0  0  0  0  0  0  0  0  0  0  0  0
   38.9940   29.2880   41.6110 N   0  0  0  0  0  0  0  0  0  0  0  0
   38.7320   29.6420   42.9050 C   0  0  0  0  0  0  0  0  0  0  0  0
   38.9230   30.4550   43.6160 H   0  0  0  0  0  0  0  0  0  0  0  0
   37.9920   28.6640   43.5060 N   0  0  0  0  0  0  0  0  0  0  0  0
   37.7710   27.6810   42.6190 C   0  0  0  0  0  0  0  0  0  0  0  0
   37.1480   26.4370   42.4760 C   0  0  0  0  0  0  0  0  0  0  0  0
   36.6450   26.1050   43.3960 H   0  0  0  0  0  0  0  0  0  0  0  0
   37.1710   25.7460   41.3400 N   0  0  0  0  0  0  0  0  0  0  0  0
   37.8000   26.1990   40.2470 C   0  0  0  0  0  0  0  0  0  0  0  0
   37.8150   25.6320   39.3300 H   0  0  0  0  0  0  0  0  0  0  0  0
   38.4330   27.4100   40.3140 N   0  0  0  0  0  0  0  0  0  0  0  0
   38.4010   28.1020   41.4720 C   0  0  0  0  0  0  0  0  0  0  0  0
   41.4940   28.6030   41.5240 N   0  0  0  0  0  0  0  0  0  0  0  0
   42.3670   28.5880   42.0810 H   0  0  0  0  0  0  0  0  0  0  0  0
   40.9330   27.7030   41.4580 H   0  0  0  0  0  0  0  0  0  0  0  0
   37.7350   31.9450   40.3710 S   0  0  0  0  0  0  0  0  0  0  0  0
   35.7420   30.1800   40.4690 C   0  0  0  0  0  0  0  0  0  0  0  0
   36.6630   30.7610   39.5860 C   0  0  0  0  0  0  0  0  0  0  0  0
   36.6740   30.4290   38.2440 C   0  0  0  0  0  0  0  0  0  0  0  0
   35.7750   29.5180   37.7410 C   0  0  0  0  0  0  0  0  0  0  0  0
   34.8580   28.9360   38.6040 C   0  0  0  0  0  0  0  0  0  0  0  0
   34.8210   29.2460   39.9570 C   0  0  0  0  0  0  0  0  0  0  0  0
   34.0580   28.0480   37.8470 O   0  0  0  0  0  0  0  0  0  0  0  0
   34.6990   27.8820   36.6290 C   0  0  0  0  0  0  0  0  0  0  0  0
   35.5470   29.0010   36.4740 O   0  0  0  0  0  0  0  0  0  0  0  0
   35.6820   30.3920   41.5190 H   0  0  0  0  0  0  0  0  0  0  0  0
   37.4160   30.9190   37.6310 H   0  0  0  0  0  0  0  0  0  0  0  0
   34.1120   28.8010   40.6410 H   0  0  0  0  0  0  0  0  0  0  0  0
   35.2840   26.9400   36.6820 H   0  0  0  0  0  0  0  0  0  0  0  0
   33.9670   27.8460   35.7950 H   0  0  0  0  0  0  0  0  0  0  0  0
   42.5430   32.4680   38.8610 O   0  0  0  0  0  0  0  0  0  0  0  0
   42.5510   32.3510   37.4570 C   0  0  0  0  0  0  0  0  0  0  0  0
   43.8090   32.3520   36.9330 F   0  0  0  0  0  0  0  0  0  0  0  0
   41.8510   31.1720   37.1530 F   0  0  0  0  0  0  0  0  0  0  0  0
   41.8630   33.4530   36.9470 F   0  0  0  0  0  0  0  0  0  0  0  0
  1 22  1  0  0  0  0
  1  2  1  0  0  0  0
  2  7  1  0  0  0  0
  3  2  2  0  0  0  0
  3 19  1  0  0  0  0
  4  3  1  0  0  0  0
  5  6  1  0  0  0  0
  5  4  2  0  0  0  0
  6  1  2  0  0  0  0
  7  8  1  0  0  0  0
  8 10  2  0  0  0  0
  8  9  1  0  0  0  0
 11 10  1  0  0  0  0
 12 11  1  0  0  0  0
 12 13  1  0  0  0  0
 14 12  2  0  0  0  0
 15 17  2  0  0  0  0
 15 14  1  0  0  0  0
 16 15  1  0  0  0  0
 17 18  1  0  0  0  0
 18  7  1  0  0  0  0
 18 11  2  0  0  0  0
 19 20  1  0  0  0  0
 21 19  1  0  0  0  0
 23 32  1  0  0  0  0
 24 22  1  0  0  0  0
 24 23  2  0  0  0  0
 25 24  1  0  0  0  0
 26 25  2  0  0  0  0
 26 27  1  0  0  0  0
 27 28  2  0  0  0  0
 28 23  1  0  0  0  0
 28 34  1  0  0  0  0
 29 27  1  0  0  0  0
 30 35  1  0  0  0  0
 30 29  1  0  0  0  0
 31 30  1  0  0  0  0
 31 26  1  0  0  0  0
 33 25  1  0  0  0  0
 36 30  1  0  0  0  0
 37  5  1  0  0  0  0
 38 37  1  0  0  0  0
 39 38  1  0  0  0  0
 40 38  1  0  0  0  0
 41 38  1  0  0  0  0
M  END
>  <minimizedAffinity>
-5.82261038

$$$$
