
 OpenBabel03242511173D

 22 24  0  0  0  0  0  0  0  0999 V2000
   35.7210   29.3450   41.5220 H   0  0  0  0  0  0  0  0  0  0  0  0
   36.7250   29.5900   41.7430 N   0  0  0  0  0  0  0  0  0  0  0  0
   37.6940   28.9930   42.4630 C   0  0  0  0  0  0  0  0  0  0  0  0
   38.7950   29.7650   42.4010 N   0  0  0  0  0  0  0  0  0  0  0  0
   38.5190   30.8380   41.6470 C   0  0  0  0  0  0  0  0  0  0  0  0
   39.3470   31.8860   41.3150 C   0  0  0  0  0  0  0  0  0  0  0  0
   40.3590   31.9200   41.6670 H   0  0  0  0  0  0  0  0  0  0  0  0
   38.8280   32.8610   40.5320 N   0  0  0  0  0  0  0  0  0  0  0  0
   37.5350   32.7670   40.1110 C   0  0  0  0  0  0  0  0  0  0  0  0
   37.0330   33.4910   39.4870 H   0  0  0  0  0  0  0  0  0  0  0  0
   36.7350   31.7360   40.4420 N   0  0  0  0  0  0  0  0  0  0  0  0
   37.2070   30.7450   41.2180 C   0  0  0  0  0  0  0  0  0  0  0  0
   37.2690   27.4280   43.2570 S   0  0  0  0  0  0  0  0  0  0  0  0
   36.7700   24.0270   41.1020 C   0  0  0  0  0  0  0  0  0  0  0  0
   36.9800   24.8870   42.2110 C   0  0  0  0  0  0  0  0  0  0  0  0
   37.0090   26.2720   41.9250 C   0  0  0  0  0  0  0  0  0  0  0  0
   36.8380   26.6670   40.6470 N   0  0  0  0  0  0  0  0  0  0  0  0
   36.6420   25.8210   39.6260 C   0  0  0  0  0  0  0  0  0  0  0  0
   36.6080   24.5020   39.8620 N   0  0  0  0  0  0  0  0  0  0  0  0
   36.7460   22.9630   41.3080 H   0  0  0  0  0  0  0  0  0  0  0  0
   37.1120   24.5130   43.2120 H   0  0  0  0  0  0  0  0  0  0  0  0
   36.5210   26.2870   38.6610 H   0  0  0  0  0  0  0  0  0  0  0  0
  1  2  1  0  0  0  0
  2  3  1  0  0  0  0
  3 13  1  0  0  0  0
  4  3  2  0  0  0  0
  5  4  1  0  0  0  0
  6  5  1  0  0  0  0
  6  7  1  0  0  0  0
  8  6  2  0  0  0  0
  9 11  2  0  0  0  0
  9  8  1  0  0  0  0
 10  9  1  0  0  0  0
 11 12  1  0  0  0  0
 12  5  2  0  0  0  0
 12  2  1  0  0  0  0
 14 20  1  0  0  0  0
 14 15  1  0  0  0  0
 15 21  1  0  0  0  0
 16 15  2  0  0  0  0
 16 13  1  0  0  0  0
 17 16  1  0  0  0  0
 18 19  1  0  0  0  0
 18 17  2  0  0  0  0
 19 14  2  0  0  0  0
 22 18  1  0  0  0  0
M  END
>  <minimizedAffinity>
-4.44420338

$$$$

 OpenBabel03242511173D

 22 24  0  0  0  0  0  0  0  0999 V2000
   38.5350   30.1700   38.8560 H   0  0  0  0  0  0  0  0  0  0  0  0
   38.5740   31.0850   39.3830 N   0  0  0  0  0  0  0  0  0  0  0  0
   37.8370   31.6250   40.3720 C   0  0  0  0  0  0  0  0  0  0  0  0
   38.3470   32.8370   40.6590 N   0  0  0  0  0  0  0  0  0  0  0  0
   39.3970   33.0560   39.8550 C   0  0  0  0  0  0  0  0  0  0  0  0
   40.2170   34.1610   39.8010 C   0  0  0  0  0  0  0  0  0  0  0  0
   40.0580   34.9960   40.4550 H   0  0  0  0  0  0  0  0  0  0  0  0
   41.2210   34.1430   38.8930 N   0  0  0  0  0  0  0  0  0  0  0  0
   41.3770   33.0550   38.0870 C   0  0  0  0  0  0  0  0  0  0  0  0
   42.1440   32.9470   37.3350 H   0  0  0  0  0  0  0  0  0  0  0  0
   40.5690   31.9800   38.1500 N   0  0  0  0  0  0  0  0  0  0  0  0
   39.5580   31.9530   39.0370 C   0  0  0  0  0  0  0  0  0  0  0  0
   36.4610   30.6340   40.9930 S   0  0  0  0  0  0  0  0  0  0  0  0
   37.1080   27.0720   42.8270 C   0  0  0  0  0  0  0  0  0  0  0  0
   36.4470   28.1110   42.1210 C   0  0  0  0  0  0  0  0  0  0  0  0
   37.2110   29.2760   41.8730 C   0  0  0  0  0  0  0  0  0  0  0  0
   38.4840   29.3150   42.3160 N   0  0  0  0  0  0  0  0  0  0  0  0
   39.0720   28.3110   42.9800 C   0  0  0  0  0  0  0  0  0  0  0  0
   38.3780   27.1920   43.2310 N   0  0  0  0  0  0  0  0  0  0  0  0
   36.5350   26.1740   43.0230 H   0  0  0  0  0  0  0  0  0  0  0  0
   35.4260   28.0230   41.7920 H   0  0  0  0  0  0  0  0  0  0  0  0
   40.0960   28.4900   43.2690 H   0  0  0  0  0  0  0  0  0  0  0  0
  1  2  1  0  0  0  0
  2  3  1  0  0  0  0
  3  4  2  0  0  0  0
  3 13  1  0  0  0  0
  5  4  1  0  0  0  0
  6  5  1  0  0  0  0
  6  7  1  0  0  0  0
  8  6  2  0  0  0  0
  9 11  2  0  0  0  0
  9  8  1  0  0  0  0
 10  9  1  0  0  0  0
 11 12  1  0  0  0  0
 12  2  1  0  0  0  0
 12  5  2  0  0  0  0
 13 16  1  0  0  0  0
 14 20  1  0  0  0  0
 14 19  1  0  0  0  0
 15 14  2  0  0  0  0
 16 15  1  0  0  0  0
 16 17  2  0  0  0  0
 17 18  1  0  0  0  0
 18 19  2  0  0  0  0
 18 22  1  0  0  0  0
 21 15  1  0  0  0  0
M  END
>  <minimizedAffinity>
-4.36269236

$$$$

 OpenBabel03242511173D

 22 24  0  0  0  0  0  0  0  0999 V2000
   39.3360   28.9400   43.0120 H   0  0  0  0  0  0  0  0  0  0  0  0
   38.5030   29.3240   42.4890 N   0  0  0  0  0  0  0  0  0  0  0  0
   37.2320   28.9090   42.3230 C   0  0  0  0  0  0  0  0  0  0  0  0
   36.5990   29.8050   41.5430 N   0  0  0  0  0  0  0  0  0  0  0  0
   37.4660   30.7750   41.2210 C   0  0  0  0  0  0  0  0  0  0  0  0
   37.2520   31.8900   40.4440 C   0  0  0  0  0  0  0  0  0  0  0  0
   36.2920   32.0770   40.0030 H   0  0  0  0  0  0  0  0  0  0  0  0
   38.2980   32.7310   40.2640 N   0  0  0  0  0  0  0  0  0  0  0  0
   39.4960   32.4450   40.8490 C   0  0  0  0  0  0  0  0  0  0  0  0
   40.3860   33.0510   40.7650 H   0  0  0  0  0  0  0  0  0  0  0  0
   39.6930   31.3510   41.6080 N   0  0  0  0  0  0  0  0  0  0  0  0
   38.6830   30.4880   41.8140 C   0  0  0  0  0  0  0  0  0  0  0  0
   36.7690   27.3680   43.1420 S   0  0  0  0  0  0  0  0  0  0  0  0
   37.7350   23.8210   41.4240 C   0  0  0  0  0  0  0  0  0  0  0  0
   37.0110   24.7980   42.1550 C   0  0  0  0  0  0  0  0  0  0  0  0
   37.6080   26.0780   42.2420 C   0  0  0  0  0  0  0  0  0  0  0  0
   38.7970   26.2730   41.6360 N   0  0  0  0  0  0  0  0  0  0  0  0
   39.4500   25.3230   40.9530 C   0  0  0  0  0  0  0  0  0  0  0  0
   38.9120   24.1000   40.8510 N   0  0  0  0  0  0  0  0  0  0  0  0
   37.2890   22.8370   41.3500 H   0  0  0  0  0  0  0  0  0  0  0  0
   36.0630   24.5830   42.6190 H   0  0  0  0  0  0  0  0  0  0  0  0
   40.3900   25.6310   40.5250 H   0  0  0  0  0  0  0  0  0  0  0  0
  2  1  1  0  0  0  0
  3  2  1  0  0  0  0
  3 13  1  0  0  0  0
  4  3  2  0  0  0  0
  5  4  1  0  0  0  0
  5 12  1  0  0  0  0
  6  5  2  0  0  0  0
  7  6  1  0  0  0  0
  8  6  1  0  0  0  0
  8  9  2  0  0  0  0
  9 11  1  0  0  0  0
 10  9  1  0  0  0  0
 11 12  2  0  0  0  0
 12  2  1  0  0  0  0
 14 15  1  0  0  0  0
 15 16  2  0  0  0  0
 15 21  1  0  0  0  0
 16 13  1  0  0  0  0
 17 16  1  0  0  0  0
 18 17  2  0  0  0  0
 19 18  1  0  0  0  0
 19 14  2  0  0  0  0
 20 14  1  0  0  0  0
 22 18  1  0  0  0  0
M  END
>  <minimizedAffinity>
-4.30536604

$$$$

 OpenBabel03242511173D

 22 24  0  0  0  0  0  0  0  0999 V2000
   36.6130   27.7530   40.1880 H   0  0  0  0  0  0  0  0  0  0  0  0
   37.1490   28.0560   41.0470 N   0  0  0  0  0  0  0  0  0  0  0  0
   37.3080   29.2340   41.6800 C   0  0  0  0  0  0  0  0  0  0  0  0
   38.1130   29.0320   42.7400 N   0  0  0  0  0  0  0  0  0  0  0  0
   38.4560   27.7380   42.7720 C   0  0  0  0  0  0  0  0  0  0  0  0
   39.2620   27.0890   43.6790 C   0  0  0  0  0  0  0  0  0  0  0  0
   39.7110   27.6210   44.4950 H   0  0  0  0  0  0  0  0  0  0  0  0
   39.4600   25.7620   43.4940 N   0  0  0  0  0  0  0  0  0  0  0  0
   38.8650   25.1360   42.4400 C   0  0  0  0  0  0  0  0  0  0  0  0
   38.9610   24.0850   42.2090 H   0  0  0  0  0  0  0  0  0  0  0  0
   38.0770   25.7820   41.5600 N   0  0  0  0  0  0  0  0  0  0  0  0
   37.8530   27.0990   41.7030 C   0  0  0  0  0  0  0  0  0  0  0  0
   36.4510   30.6580   40.9730 S   0  0  0  0  0  0  0  0  0  0  0  0
   38.4320   34.0060   39.8190 C   0  0  0  0  0  0  0  0  0  0  0  0
   37.3740   33.0810   40.0170 C   0  0  0  0  0  0  0  0  0  0  0  0
   37.7170   31.8790   40.6810 C   0  0  0  0  0  0  0  0  0  0  0  0
   38.9960   31.7040   41.0690 N   0  0  0  0  0  0  0  0  0  0  0  0
   39.9680   32.6040   40.8630 C   0  0  0  0  0  0  0  0  0  0  0  0
   39.6770   33.7530   40.2380 N   0  0  0  0  0  0  0  0  0  0  0  0
   38.1830   34.9300   39.3120 H   0  0  0  0  0  0  0  0  0  0  0  0
   36.3700   33.2770   39.6830 H   0  0  0  0  0  0  0  0  0  0  0  0
   40.9410   32.3200   41.2310 H   0  0  0  0  0  0  0  0  0  0  0  0
  1  2  1  0  0  0  0
  2  3  1  0  0  0  0
  2 12  1  0  0  0  0
  3  4  2  0  0  0  0
  4  5  1  0  0  0  0
  5  6  1  0  0  0  0
  6  7  1  0  0  0  0
  8  6  2  0  0  0  0
  9  8  1  0  0  0  0
 10  9  1  0  0  0  0
 11 12  1  0  0  0  0
 11  9  2  0  0  0  0
 12  5  2  0  0  0  0
 13  3  1  0  0  0  0
 14 15  2  0  0  0  0
 14 19  1  0  0  0  0
 15 16  1  0  0  0  0
 16 13  1  0  0  0  0
 16 17  2  0  0  0  0
 18 17  1  0  0  0  0
 18 22  1  0  0  0  0
 19 18  2  0  0  0  0
 20 14  1  0  0  0  0
 21 15  1  0  0  0  0
M  END
>  <minimizedAffinity>
-4.2848053

$$$$

 OpenBabel03242511173D

 22 24  0  0  0  0  0  0  0  0999 V2000
   39.5220   31.1640   41.5970 H   0  0  0  0  0  0  0  0  0  0  0  0
   38.5760   30.6980   41.5340 N   0  0  0  0  0  0  0  0  0  0  0  0
   37.4160   31.0190   40.9310 C   0  0  0  0  0  0  0  0  0  0  0  0
   36.5260   30.0420   41.1900 N   0  0  0  0  0  0  0  0  0  0  0  0
   37.1240   29.1150   41.9500 C   0  0  0  0  0  0  0  0  0  0  0  0
   36.5940   27.9470   42.4490 C   0  0  0  0  0  0  0  0  0  0  0  0
   35.5770   27.6740   42.2470 H   0  0  0  0  0  0  0  0  0  0  0  0
   37.4090   27.1680   43.2000 N   0  0  0  0  0  0  0  0  0  0  0  0
   38.6940   27.5630   43.4250 C   0  0  0  0  0  0  0  0  0  0  0  0
   39.4170   27.0130   44.0090 H   0  0  0  0  0  0  0  0  0  0  0  0
   39.2010   28.7080   42.9300 N   0  0  0  0  0  0  0  0  0  0  0  0
   38.4290   29.5130   42.1800 C   0  0  0  0  0  0  0  0  0  0  0  0
   37.3840   32.5690   40.0050 S   0  0  0  0  0  0  0  0  0  0  0  0
   41.0680   34.1590   39.4010 C   0  0  0  0  0  0  0  0  0  0  0  0
   39.7370   34.0130   39.8690 C   0  0  0  0  0  0  0  0  0  0  0  0
   39.0620   32.8360   39.4650 C   0  0  0  0  0  0  0  0  0  0  0  0
   39.7200   31.9570   38.6820 N   0  0  0  0  0  0  0  0  0  0  0  0
   40.9800   32.1320   38.2610 C   0  0  0  0  0  0  0  0  0  0  0  0
   41.6480   33.2350   38.6250 N   0  0  0  0  0  0  0  0  0  0  0  0
   41.5960   35.0550   39.7030 H   0  0  0  0  0  0  0  0  0  0  0  0
   39.2630   34.7510   40.4930 H   0  0  0  0  0  0  0  0  0  0  0  0
   41.3690   31.3410   37.6400 H   0  0  0  0  0  0  0  0  0  0  0  0
  2  1  1  0  0  0  0
  2 12  1  0  0  0  0
  3  4  2  0  0  0  0
  3  2  1  0  0  0  0
  4  5  1  0  0  0  0
  5 12  2  0  0  0  0
  5  6  1  0  0  0  0
  6  8  2  0  0  0  0
  7  6  1  0  0  0  0
  8  9  1  0  0  0  0
  9 10  1  0  0  0  0
 11  9  2  0  0  0  0
 12 11  1  0  0  0  0
 13  3  1  0  0  0  0
 14 20  1  0  0  0  0
 14 15  1  0  0  0  0
 15 21  1  0  0  0  0
 16 15  2  0  0  0  0
 16 13  1  0  0  0  0
 17 16  1  0  0  0  0
 18 19  1  0  0  0  0
 18 17  2  0  0  0  0
 19 14  2  0  0  0  0
 22 18  1  0  0  0  0
M  END
>  <minimizedAffinity>
-4.21390772

$$$$

 OpenBabel03242511173D

 22 24  0  0  0  0  0  0  0  0999 V2000
   38.8440   29.5610   41.2830 H   0  0  0  0  0  0  0  0  0  0  0  0
   38.1960   30.3310   40.9620 N   0  0  0  0  0  0  0  0  0  0  0  0
   36.8690   30.4050   40.7490 C   0  0  0  0  0  0  0  0  0  0  0  0
   36.5810   31.6540   40.3380 N   0  0  0  0  0  0  0  0  0  0  0  0
   37.7200   32.3580   40.2930 C   0  0  0  0  0  0  0  0  0  0  0  0
   37.8990   33.6740   39.9290 C   0  0  0  0  0  0  0  0  0  0  0  0
   37.0650   34.2790   39.6300 H   0  0  0  0  0  0  0  0  0  0  0  0
   39.1610   34.1610   39.9650 N   0  0  0  0  0  0  0  0  0  0  0  0
   40.1830   33.3470   40.3530 C   0  0  0  0  0  0  0  0  0  0  0  0
   41.2210   33.6420   40.4140 H   0  0  0  0  0  0  0  0  0  0  0  0
   39.9960   32.0620   40.7070 N   0  0  0  0  0  0  0  0  0  0  0  0
   38.7590   31.5350   40.6870 C   0  0  0  0  0  0  0  0  0  0  0  0
   35.9120   28.9050   41.0570 S   0  0  0  0  0  0  0  0  0  0  0  0
   38.2470   25.6590   41.7490 C   0  0  0  0  0  0  0  0  0  0  0  0
   37.3250   26.5300   41.1130 C   0  0  0  0  0  0  0  0  0  0  0  0
   37.0590   27.7480   41.7820 C   0  0  0  0  0  0  0  0  0  0  0  0
   37.6880   27.9880   42.9510 N   0  0  0  0  0  0  0  0  0  0  0  0
   38.5540   27.1380   43.5190 C   0  0  0  0  0  0  0  0  0  0  0  0
   38.8290   25.9750   42.9120 N   0  0  0  0  0  0  0  0  0  0  0  0
   38.4590   24.7220   41.2470 H   0  0  0  0  0  0  0  0  0  0  0  0
   36.8520   26.2830   40.1780 H   0  0  0  0  0  0  0  0  0  0  0  0
   38.9760   27.4700   44.4540 H   0  0  0  0  0  0  0  0  0  0  0  0
  2  1  1  0  0  0  0
  3  2  1  0  0  0  0
  3 13  1  0  0  0  0
  4  3  2  0  0  0  0
  5  4  1  0  0  0  0
  5 12  1  0  0  0  0
  6  8  1  0  0  0  0
  6  5  2  0  0  0  0
  7  6  1  0  0  0  0
  8  9  2  0  0  0  0
  9 10  1  0  0  0  0
  9 11  1  0  0  0  0
 12 11  2  0  0  0  0
 12  2  1  0  0  0  0
 13 16  1  0  0  0  0
 14 19  1  0  0  0  0
 15 14  2  0  0  0  0
 15 16  1  0  0  0  0
 16 17  2  0  0  0  0
 17 18  1  0  0  0  0
 18 22  1  0  0  0  0
 19 18  2  0  0  0  0
 20 14  1  0  0  0  0
 21 15  1  0  0  0  0
M  END
>  <minimizedAffinity>
-4.206357

$$$$

 OpenBabel03242511173D

 22 24  0  0  0  0  0  0  0  0999 V2000
   38.9180   27.9750   40.7810 H   0  0  0  0  0  0  0  0  0  0  0  0
   38.3150   28.8370   40.8730 N   0  0  0  0  0  0  0  0  0  0  0  0
   37.6280   29.3910   41.8900 C   0  0  0  0  0  0  0  0  0  0  0  0
   37.0300   30.5060   41.4310 N   0  0  0  0  0  0  0  0  0  0  0  0
   37.3400   30.6510   40.1360 C   0  0  0  0  0  0  0  0  0  0  0  0
   36.9500   31.6480   39.2700 C   0  0  0  0  0  0  0  0  0  0  0  0
   36.3150   32.4460   39.6010 H   0  0  0  0  0  0  0  0  0  0  0  0
   37.4000   31.5720   37.9960 N   0  0  0  0  0  0  0  0  0  0  0  0
   38.2050   30.5340   37.6290 C   0  0  0  0  0  0  0  0  0  0  0  0
   38.6140   30.3870   36.6400 H   0  0  0  0  0  0  0  0  0  0  0  0
   38.5810   29.5670   38.4860 N   0  0  0  0  0  0  0  0  0  0  0  0
   38.1570   29.6000   39.7620 C   0  0  0  0  0  0  0  0  0  0  0  0
   37.6990   28.5340   43.4780 S   0  0  0  0  0  0  0  0  0  0  0  0
   40.0400   25.2230   43.3490 C   0  0  0  0  0  0  0  0  0  0  0  0
   39.5870   26.5260   43.6800 C   0  0  0  0  0  0  0  0  0  0  0  0
   38.3470   26.9130   43.1180 C   0  0  0  0  0  0  0  0  0  0  0  0
   37.6980   26.0340   42.3270 N   0  0  0  0  0  0  0  0  0  0  0  0
   38.1620   24.8090   42.0390 C   0  0  0  0  0  0  0  0  0  0  0  0
   39.3320   24.4110   42.5540 N   0  0  0  0  0  0  0  0  0  0  0  0
   40.9880   24.9140   43.7730 H   0  0  0  0  0  0  0  0  0  0  0  0
   40.1490   27.1860   44.3180 H   0  0  0  0  0  0  0  0  0  0  0  0
   37.5300   24.2210   41.3920 H   0  0  0  0  0  0  0  0  0  0  0  0
  1  2  1  0  0  0  0
  2  3  1  0  0  0  0
  3 13  1  0  0  0  0
  4  3  2  0  0  0  0
  5  4  1  0  0  0  0
  6  7  1  0  0  0  0
  6  5  2  0  0  0  0
  8  6  1  0  0  0  0
  9  8  2  0  0  0  0
  9 11  1  0  0  0  0
 10  9  1  0  0  0  0
 11 12  2  0  0  0  0
 12  5  1  0  0  0  0
 12  2  1  0  0  0  0
 14 15  1  0  0  0  0
 14 20  1  0  0  0  0
 15 21  1  0  0  0  0
 16 13  1  0  0  0  0
 16 15  2  0  0  0  0
 17 16  1  0  0  0  0
 18 17  2  0  0  0  0
 18 19  1  0  0  0  0
 19 14  2  0  0  0  0
 22 18  1  0  0  0  0
M  END
>  <minimizedAffinity>
-4.17536831

$$$$

 OpenBabel03242511173D

 22 24  0  0  0  0  0  0  0  0999 V2000
   36.2720   27.3820   41.3970 H   0  0  0  0  0  0  0  0  0  0  0  0
   37.1030   27.9410   41.7320 N   0  0  0  0  0  0  0  0  0  0  0  0
   37.4090   29.2520   41.7260 C   0  0  0  0  0  0  0  0  0  0  0  0
   38.6220   29.4000   42.2910 N   0  0  0  0  0  0  0  0  0  0  0  0
   39.0740   28.1900   42.6490 C   0  0  0  0  0  0  0  0  0  0  0  0
   40.2650   27.8680   43.2580 C   0  0  0  0  0  0  0  0  0  0  0  0
   40.9770   28.6290   43.5110 H   0  0  0  0  0  0  0  0  0  0  0  0
   40.4940   26.5590   43.5190 N   0  0  0  0  0  0  0  0  0  0  0  0
   39.5540   25.6330   43.1760 C   0  0  0  0  0  0  0  0  0  0  0  0
   39.6430   24.5700   43.3420 H   0  0  0  0  0  0  0  0  0  0  0  0
   38.3920   25.9610   42.5810 N   0  0  0  0  0  0  0  0  0  0  0  0
   38.1220   27.2480   42.3020 C   0  0  0  0  0  0  0  0  0  0  0  0
   36.1850   30.3680   41.0090 S   0  0  0  0  0  0  0  0  0  0  0  0
   36.3950   29.5760   37.0350 C   0  0  0  0  0  0  0  0  0  0  0  0
   36.0480   29.4520   38.4050 C   0  0  0  0  0  0  0  0  0  0  0  0
   36.5690   30.4440   39.2690 C   0  0  0  0  0  0  0  0  0  0  0  0
   37.3400   31.4150   38.7400 N   0  0  0  0  0  0  0  0  0  0  0  0
   37.6460   31.4960   37.4380 C   0  0  0  0  0  0  0  0  0  0  0  0
   37.1680   30.5740   36.5910 N   0  0  0  0  0  0  0  0  0  0  0  0
   36.0030   28.8220   36.3630 H   0  0  0  0  0  0  0  0  0  0  0  0
   35.4260   28.6520   38.7710 H   0  0  0  0  0  0  0  0  0  0  0  0
   38.2730   32.3300   37.1650 H   0  0  0  0  0  0  0  0  0  0  0  0
  1  2  1  0  0  0  0
  2 12  1  0  0  0  0
  3  2  1  0  0  0  0
  3  4  2  0  0  0  0
  4  5  1  0  0  0  0
  5  6  1  0  0  0  0
  6  7  1  0  0  0  0
  6  8  2  0  0  0  0
  9 10  1  0  0  0  0
  9  8  1  0  0  0  0
 11  9  2  0  0  0  0
 12 11  1  0  0  0  0
 12  5  2  0  0  0  0
 13  3  1  0  0  0  0
 14 15  1  0  0  0  0
 15 21  1  0  0  0  0
 15 16  2  0  0  0  0
 16 13  1  0  0  0  0
 17 16  1  0  0  0  0
 18 17  2  0  0  0  0
 19 14  2  0  0  0  0
 19 18  1  0  0  0  0
 20 14  1  0  0  0  0
 22 18  1  0  0  0  0
M  END
>  <minimizedAffinity>
-4.03999043

$$$$

 OpenBabel03242511173D

 22 24  0  0  0  0  0  0  0  0999 V2000
   37.2120   32.0130   39.9150 H   0  0  0  0  0  0  0  0  0  0  0  0
   37.9100   31.6580   40.6240 N   0  0  0  0  0  0  0  0  0  0  0  0
   39.0850   32.1240   41.0900 C   0  0  0  0  0  0  0  0  0  0  0  0
   39.5500   31.2470   41.9990 N   0  0  0  0  0  0  0  0  0  0  0  0
   38.6750   30.2380   42.1020 C   0  0  0  0  0  0  0  0  0  0  0  0
   38.7450   29.1240   42.9070 C   0  0  0  0  0  0  0  0  0  0  0  0
   39.5780   28.9740   43.5660 H   0  0  0  0  0  0  0  0  0  0  0  0
   37.7240   28.2380   42.8290 N   0  0  0  0  0  0  0  0  0  0  0  0
   36.6900   28.4800   41.9740 C   0  0  0  0  0  0  0  0  0  0  0  0
   35.8340   27.8350   41.8400 H   0  0  0  0  0  0  0  0  0  0  0  0
   36.6340   29.5740   41.1910 N   0  0  0  0  0  0  0  0  0  0  0  0
   37.6240   30.4810   41.2360 C   0  0  0  0  0  0  0  0  0  0  0  0
   39.6630   33.6930   40.4090 S   0  0  0  0  0  0  0  0  0  0  0  0
   41.7000   31.6410   37.5620 C   0  0  0  0  0  0  0  0  0  0  0  0
   40.8050   31.9140   38.6280 C   0  0  0  0  0  0  0  0  0  0  0  0
   40.7600   33.2570   39.0720 C   0  0  0  0  0  0  0  0  0  0  0  0
   41.5540   34.1610   38.4630 N   0  0  0  0  0  0  0  0  0  0  0  0
   42.3880   33.8620   37.4580 C   0  0  0  0  0  0  0  0  0  0  0  0
   42.4550   32.6000   37.0120 N   0  0  0  0  0  0  0  0  0  0  0  0
   41.7440   30.6170   37.2120 H   0  0  0  0  0  0  0  0  0  0  0  0
   40.1940   31.1490   39.0760 H   0  0  0  0  0  0  0  0  0  0  0  0
   42.9590   34.6920   37.0730 H   0  0  0  0  0  0  0  0  0  0  0  0
  1  2  1  0  0  0  0
  2  3  1  0  0  0  0
  2 12  1  0  0  0  0
  3  4  2  0  0  0  0
  4  5  1  0  0  0  0
  5  6  1  0  0  0  0
  6  7  1  0  0  0  0
  8  6  2  0  0  0  0
  9  8  1  0  0  0  0
 10  9  1  0  0  0  0
 11 12  1  0  0  0  0
 11  9  2  0  0  0  0
 12  5  2  0  0  0  0
 13  3  1  0  0  0  0
 14 15  1  0  0  0  0
 15 16  2  0  0  0  0
 15 21  1  0  0  0  0
 16 13  1  0  0  0  0
 17 16  1  0  0  0  0
 18 17  2  0  0  0  0
 19 18  1  0  0  0  0
 19 14  2  0  0  0  0
 20 14  1  0  0  0  0
 22 18  1  0  0  0  0
M  END
>  <minimizedAffinity>
-4.03703499

$$$$
