
 OpenBabel03252509083D

 44 48  0  0  0  0  0  0  0  0999 V2000
   48.6420   32.9750   40.0790 C   0  0  0  0  0  0  0  0  0  0  0  0
   47.3800   33.4710   39.9420 C   0  0  0  0  0  0  0  0  0  0  0  0
   46.9490   34.4910   40.7730 C   0  0  0  0  0  0  0  0  0  0  0  0
   47.7860   35.0030   41.7330 C   0  0  0  0  0  0  0  0  0  0  0  0
   49.0840   34.5230   41.9030 C   0  0  0  0  0  0  0  0  0  0  0  0
   49.5000   33.4940   41.0530 C   0  0  0  0  0  0  0  0  0  0  0  0
   45.9530   34.9140   40.7000 H   0  0  0  0  0  0  0  0  0  0  0  0
   47.5590   35.7900   42.4300 H   0  0  0  0  0  0  0  0  0  0  0  0
   49.7860   34.8750   42.6250 H   0  0  0  0  0  0  0  0  0  0  0  0
   50.5160   33.1060   41.1740 H   0  0  0  0  0  0  0  0  0  0  0  0
   43.4880   30.3250   38.6690 Cl  0  0  0  0  0  0  0  0  0  0  0  0
   44.6460   31.5940   38.3510 C   0  0  0  0  0  0  0  0  0  0  0  0
   45.5210   32.0030   39.3050 C   0  0  0  0  0  0  0  0  0  0  0  0
   46.4090   33.0030   38.9500 C   0  0  0  0  0  0  0  0  0  0  0  0
   46.4110   33.5620   37.6950 C   0  0  0  0  0  0  0  0  0  0  0  0
   45.5300   33.1400   36.7560 C   0  0  0  0  0  0  0  0  0  0  0  0
   44.6410   32.1460   37.0930 C   0  0  0  0  0  0  0  0  0  0  0  0
   47.1410   34.3460   37.4900 H   0  0  0  0  0  0  0  0  0  0  0  0
   45.5830   33.6140   35.8000 H   0  0  0  0  0  0  0  0  0  0  0  0
   43.9470   31.8280   36.3230 H   0  0  0  0  0  0  0  0  0  0  0  0
   44.7690   31.2980   42.9340 C   0  0  0  0  0  0  0  0  0  0  0  0
   44.7960   31.9110   41.6790 C   0  0  0  0  0  0  0  0  0  0  0  0
   45.4860   31.3750   40.6130 C   0  0  0  0  0  0  0  0  0  0  0  0
   46.1330   30.2100   40.8860 N   0  0  0  0  0  0  0  0  0  0  0  0
   46.1130   29.6170   42.0790 C   0  0  0  0  0  0  0  0  0  0  0  0
   45.4350   30.1610   43.0940 N   0  0  0  0  0  0  0  0  0  0  0  0
   44.1850   31.8310   43.6830 H   0  0  0  0  0  0  0  0  0  0  0  0
   44.2690   32.8350   41.5030 H   0  0  0  0  0  0  0  0  0  0  0  0
   46.6660   28.6930   42.1750 H   0  0  0  0  0  0  0  0  0  0  0  0
   49.2140   31.7670   39.0600 S   0  0  0  0  0  0  0  0  0  0  0  0
   50.7130   31.5860   39.1520 O   0  0  0  0  0  0  0  0  0  0  0  0
   48.6690   30.4420   39.7140 O   0  0  0  0  0  0  0  0  0  0  0  0
   49.8490   33.3880   36.6650 H   0  0  0  0  0  0  0  0  0  0  0  0
   49.2290   32.5270   36.5150 N   0  0  0  0  0  0  0  0  0  0  0  0
   48.7740   31.5800   37.4130 C   0  0  0  0  0  0  0  0  0  0  0  0
   48.0740   30.8240   36.5500 N   0  0  0  0  0  0  0  0  0  0  0  0
   48.0950   31.2410   35.3040 C   0  0  0  0  0  0  0  0  0  0  0  0
   47.4600   30.6500   34.2130 C   0  0  0  0  0  0  0  0  0  0  0  0
   46.8670   29.7510   34.3070 H   0  0  0  0  0  0  0  0  0  0  0  0
   47.6200   31.2590   33.0070 N   0  0  0  0  0  0  0  0  0  0  0  0
   48.3680   32.3760   32.9350 C   0  0  0  0  0  0  0  0  0  0  0  0
   48.4870   32.8490   31.9800 H   0  0  0  0  0  0  0  0  0  0  0  0
   48.9770   32.9300   34.0260 N   0  0  0  0  0  0  0  0  0  0  0  0
   48.8560   32.3760   35.2390 C   0  0  0  0  0  0  0  0  0  0  0  0
  1  6  1  0  0  0  0
  2  1  2  0  0  0  0
  2  3  1  0  0  0  0
  3  4  2  0  0  0  0
  4  5  1  0  0  0  0
  4  8  1  0  0  0  0
  5  9  1  0  0  0  0
  6 10  1  0  0  0  0
  6  5  2  0  0  0  0
  7  3  1  0  0  0  0
 12 11  1  0  0  0  0
 12 13  1  0  0  0  0
 13 23  1  0  0  0  0
 14 13  2  0  0  0  0
 14  2  1  0  0  0  0
 15 14  1  0  0  0  0
 16 17  1  0  0  0  0
 16 15  2  0  0  0  0
 17 12  2  0  0  0  0
 18 15  1  0  0  0  0
 19 16  1  0  0  0  0
 20 17  1  0  0  0  0
 21 26  1  0  0  0  0
 21 27  1  0  0  0  0
 22 21  2  0  0  0  0
 23 24  2  0  0  0  0
 23 22  1  0  0  0  0
 24 25  1  0  0  0  0
 25 29  1  0  0  0  0
 25 26  2  0  0  0  0
 28 22  1  0  0  0  0
 30 31  2  0  0  0  0
 30 32  2  0  0  0  0
 30  1  1  0  0  0  0
 34 33  1  0  0  0  0
 34 35  1  0  0  0  0
 35 30  1  0  0  0  0
 36 35  2  0  0  0  0
 37 36  1  0  0  0  0
 38 39  1  0  0  0  0
 38 37  2  0  0  0  0
 40 38  1  0  0  0  0
 41 40  2  0  0  0  0
 41 43  1  0  0  0  0
 42 41  1  0  0  0  0
 43 44  2  0  0  0  0
 44 37  1  0  0  0  0
 44 34  1  0  0  0  0
M  END
>  <minimizedAffinity>
-4.69615602

>  <minimizedRMSD>
6.0496254

$$$$
