
 OpenBabel03252507433D

 34 37  0  0  0  0  0  0  0  0999 V2000
   44.5040   34.6720   41.3070 C   0  0  0  0  0  0  0  0  0  0  0  0
   43.6480   35.7330   41.7340 C   0  0  0  0  0  0  0  0  0  0  0  0
   42.0870   35.3910   40.7970 S   0  0  0  0  0  0  0  0  0  0  0  0
   42.8710   33.8820   40.0020 C   0  0  0  0  0  0  0  0  0  0  0  0
   43.9150   33.8730   40.4480 N   0  0  0  0  0  0  0  0  0  0  0  0
   43.9060   36.5190   42.4370 H   0  0  0  0  0  0  0  0  0  0  0  0
   42.2530   32.9680   39.0440 N   0  0  0  0  0  0  0  0  0  0  0  0
   42.9430   32.2720   38.1530 C   0  0  0  0  0  0  0  0  0  0  0  0
   43.9910   32.2140   37.9390 H   0  0  0  0  0  0  0  0  0  0  0  0
   42.0460   31.5510   37.4550 N   0  0  0  0  0  0  0  0  0  0  0  0
   40.8240   31.8170   37.9290 C   0  0  0  0  0  0  0  0  0  0  0  0
   39.5340   31.3940   37.6280 C   0  0  0  0  0  0  0  0  0  0  0  0
   39.4230   30.6750   36.8210 H   0  0  0  0  0  0  0  0  0  0  0  0
   38.4390   31.8210   38.2660 N   0  0  0  0  0  0  0  0  0  0  0  0
   38.5960   32.7120   39.2630 C   0  0  0  0  0  0  0  0  0  0  0  0
   37.7170   33.0780   39.8030 H   0  0  0  0  0  0  0  0  0  0  0  0
   39.8390   33.1550   39.5950 N   0  0  0  0  0  0  0  0  0  0  0  0
   40.9300   32.7300   38.9560 C   0  0  0  0  0  0  0  0  0  0  0  0
   45.8940   34.5730   41.8360 C   0  0  0  0  0  0  0  0  0  0  0  0
   46.1580   35.6040   42.2160 H   0  0  0  0  0  0  0  0  0  0  0  0
   45.9710   33.9170   42.7290 H   0  0  0  0  0  0  0  0  0  0  0  0
   46.9280   34.2670   40.7940 C   0  0  0  0  0  0  0  0  0  0  0  0
   47.0080   35.2060   40.1700 H   0  0  0  0  0  0  0  0  0  0  0  0
   46.6450   33.4860   40.0980 H   0  0  0  0  0  0  0  0  0  0  0  0
   48.2800   34.0680   41.3500 C   0  0  0  0  0  0  0  0  0  0  0  0
   48.9220   32.8640   41.0490 C   0  0  0  0  0  0  0  0  0  0  0  0
   50.1890   32.6200   41.5410 C   0  0  0  0  0  0  0  0  0  0  0  0
   50.7710   33.5820   42.3130 N   0  0  0  0  0  0  0  0  0  0  0  0
   50.1270   34.7320   42.5860 C   0  0  0  0  0  0  0  0  0  0  0  0
   48.9040   34.9610   42.1080 N   0  0  0  0  0  0  0  0  0  0  0  0
   50.6550   31.6800   41.2870 H   0  0  0  0  0  0  0  0  0  0  0  0
   50.6730   35.4490   43.2170 H   0  0  0  0  0  0  0  0  0  0  0  0
   48.1010   31.6340   40.0220 S   0  0  0  0  0  0  0  0  0  0  0  0
   48.0910   30.4260   40.7230 H   0  0  0  0  0  0  0  0  0  0  0  0
  1  2  2  0  0  0  0
  1 19  1  0  0  0  0
  2  6  1  0  0  0  0
  3  2  1  0  0  0  0
  4  5  2  0  0  0  0
  4  3  1  0  0  0  0
  5  1  1  0  0  0  0
  7  4  1  0  0  0  0
  8  7  1  0  0  0  0
  9  8  1  0  0  0  0
 10 11  1  0  0  0  0
 10  8  2  0  0  0  0
 11 18  1  0  0  0  0
 12 11  2  0  0  0  0
 12 14  1  0  0  0  0
 13 12  1  0  0  0  0
 14 15  2  0  0  0  0
 15 17  1  0  0  0  0
 15 16  1  0  0  0  0
 18  7  1  0  0  0  0
 18 17  2  0  0  0  0
 19 20  1  0  0  0  0
 19 21  1  0  0  0  0
 22 25  1  0  0  0  0
 22 19  1  0  0  0  0
 23 22  1  0  0  0  0
 24 22  1  0  0  0  0
 25 30  1  0  0  0  0
 26 25  2  0  0  0  0
 26 27  1  0  0  0  0
 27 28  2  0  0  0  0
 28 29  1  0  0  0  0
 29 32  1  0  0  0  0
 30 29  2  0  0  0  0
 31 27  1  0  0  0  0
 33 34  1  0  0  0  0
 33 26  1  0  0  0  0
M  END
>  <minimizedAffinity>
-5.06546354

>  <minimizedRMSD>
0.962746322

$$$$
