
 OpenBabel03252507433D

 34 37  0  0  0  0  0  0  0  0999 V2000
   44.1800   34.3840   41.5920 C   0  0  0  0  0  0  0  0  0  0  0  0
   43.4980   35.5710   41.9970 C   0  0  0  0  0  0  0  0  0  0  0  0
   41.8460   35.3840   41.1800 S   0  0  0  0  0  0  0  0  0  0  0  0
   42.3760   33.7400   40.4410 C   0  0  0  0  0  0  0  0  0  0  0  0
   43.4370   33.6200   40.8250 N   0  0  0  0  0  0  0  0  0  0  0  0
   43.9010   36.3560   42.6300 H   0  0  0  0  0  0  0  0  0  0  0  0
   41.5820   32.8620   39.5850 N   0  0  0  0  0  0  0  0  0  0  0  0
   41.9690   32.4790   38.3780 C   0  0  0  0  0  0  0  0  0  0  0  0
   42.8480   32.6910   37.8020 H   0  0  0  0  0  0  0  0  0  0  0  0
   40.9940   31.6850   37.8980 N   0  0  0  0  0  0  0  0  0  0  0  0
   40.0270   31.5960   38.8190 C   0  0  0  0  0  0  0  0  0  0  0  0
   38.8030   30.9420   38.9030 C   0  0  0  0  0  0  0  0  0  0  0  0
   38.4990   30.3420   38.0490 H   0  0  0  0  0  0  0  0  0  0  0  0
   37.9920   31.0100   39.9640 N   0  0  0  0  0  0  0  0  0  0  0  0
   38.3840   31.7570   41.0130 C   0  0  0  0  0  0  0  0  0  0  0  0
   37.7400   31.8310   41.8940 H   0  0  0  0  0  0  0  0  0  0  0  0
   39.5750   32.4150   40.9760 N   0  0  0  0  0  0  0  0  0  0  0  0
   40.3840   32.3460   39.9180 C   0  0  0  0  0  0  0  0  0  0  0  0
   45.5790   34.1330   42.0420 C   0  0  0  0  0  0  0  0  0  0  0  0
   45.8250   34.9600   42.7720 H   0  0  0  0  0  0  0  0  0  0  0  0
   45.6810   33.1980   42.6350 H   0  0  0  0  0  0  0  0  0  0  0  0
   46.6060   34.2540   40.9570 C   0  0  0  0  0  0  0  0  0  0  0  0
   46.5180   35.3160   40.5810 H   0  0  0  0  0  0  0  0  0  0  0  0
   46.4180   33.6300   40.0910 H   0  0  0  0  0  0  0  0  0  0  0  0
   47.9930   34.1420   41.4470 C   0  0  0  0  0  0  0  0  0  0  0  0
   48.6800   32.9620   41.1490 C   0  0  0  0  0  0  0  0  0  0  0  0
   49.9820   32.7990   41.5810 C   0  0  0  0  0  0  0  0  0  0  0  0
   50.5520   33.8140   42.2910 N   0  0  0  0  0  0  0  0  0  0  0  0
   49.8640   34.9390   42.5620 C   0  0  0  0  0  0  0  0  0  0  0  0
   48.6090   35.0900   42.1420 N   0  0  0  0  0  0  0  0  0  0  0  0
   50.4830   31.8750   41.3330 H   0  0  0  0  0  0  0  0  0  0  0  0
   50.4040   35.7040   43.1390 H   0  0  0  0  0  0  0  0  0  0  0  0
   47.8730   31.6580   40.2060 S   0  0  0  0  0  0  0  0  0  0  0  0
   47.9610   30.4760   40.9450 H   0  0  0  0  0  0  0  0  0  0  0  0
  1  2  2  0  0  0  0
  1 19  1  0  0  0  0
  2  6  1  0  0  0  0
  3  2  1  0  0  0  0
  4  5  2  0  0  0  0
  4  3  1  0  0  0  0
  5  1  1  0  0  0  0
  7 18  1  0  0  0  0
  7  4  1  0  0  0  0
  8  7  1  0  0  0  0
  9  8  1  0  0  0  0
 10  8  2  0  0  0  0
 10 11  1  0  0  0  0
 11 12  2  0  0  0  0
 11 18  1  0  0  0  0
 12 14  1  0  0  0  0
 13 12  1  0  0  0  0
 14 15  2  0  0  0  0
 15 16  1  0  0  0  0
 17 15  1  0  0  0  0
 18 17  2  0  0  0  0
 19 21  1  0  0  0  0
 19 20  1  0  0  0  0
 22 25  1  0  0  0  0
 22 19  1  0  0  0  0
 23 22  1  0  0  0  0
 24 22  1  0  0  0  0
 25 30  1  0  0  0  0
 26 25  2  0  0  0  0
 26 27  1  0  0  0  0
 27 28  2  0  0  0  0
 28 29  1  0  0  0  0
 29 32  1  0  0  0  0
 30 29  2  0  0  0  0
 31 27  1  0  0  0  0
 33 34  1  0  0  0  0
 33 26  1  0  0  0  0
M  END
>  <minimizedAffinity>
-5.0963583

>  <minimizedRMSD>
1.66402066

$$$$
