
 OpenBabel03242521533D

 39 43  0  0  0  0  0  0  0  0999 V2000
   36.6980   26.8850   39.7570 C   0  0  0  0  0  0  0  0  0  0  0  0
   36.7070   25.4970   39.7320 C   0  0  0  0  0  0  0  0  0  0  0  0
   36.9150   24.7110   40.8710 C   0  0  0  0  0  0  0  0  0  0  0  0
   37.1230   25.2990   42.0990 C   0  0  0  0  0  0  0  0  0  0  0  0
   37.1260   26.6950   42.1530 C   0  0  0  0  0  0  0  0  0  0  0  0
   37.3530   27.2580   43.3810 C   0  0  0  0  0  0  0  0  0  0  0  0
   37.4030   28.6490   43.4760 C   0  0  0  0  0  0  0  0  0  0  0  0
   37.2250   29.4090   42.2810 C   0  0  0  0  0  0  0  0  0  0  0  0
   37.0050   28.7330   41.1080 C   0  0  0  0  0  0  0  0  0  0  0  0
   36.9230   27.4080   40.9810 C   0  0  0  0  0  0  0  0  0  0  0  0
   36.5440   24.9900   38.7820 H   0  0  0  0  0  0  0  0  0  0  0  0
   36.9030   23.6390   40.7320 H   0  0  0  0  0  0  0  0  0  0  0  0
   37.2760   24.7090   42.9670 H   0  0  0  0  0  0  0  0  0  0  0  0
   37.4890   26.6190   44.2430 H   0  0  0  0  0  0  0  0  0  0  0  0
   37.5800   28.9890   44.5110 H   0  0  0  0  0  0  0  0  0  0  0  0
   37.3070   30.4360   42.5910 H   0  0  0  0  0  0  0  0  0  0  0  0
   37.4640   29.7370   40.1720 N   0  0  0  0  0  0  0  0  0  0  0  0
   36.6940   30.8190   39.7480 C   0  0  0  0  0  0  0  0  0  0  0  0
   35.6870   31.1550   40.0480 H   0  0  0  0  0  0  0  0  0  0  0  0
   37.2590   31.5650   38.8070 N   0  0  0  0  0  0  0  0  0  0  0  0
   38.4420   31.0150   38.5530 C   0  0  0  0  0  0  0  0  0  0  0  0
   39.5300   31.2130   37.7270 C   0  0  0  0  0  0  0  0  0  0  0  0
   39.4470   32.0880   37.0660 H   0  0  0  0  0  0  0  0  0  0  0  0
   40.6100   30.4100   37.7180 N   0  0  0  0  0  0  0  0  0  0  0  0
   40.6630   29.3430   38.5540 C   0  0  0  0  0  0  0  0  0  0  0  0
   41.5550   28.7330   38.5040 H   0  0  0  0  0  0  0  0  0  0  0  0
   39.6260   29.1080   39.3790 N   0  0  0  0  0  0  0  0  0  0  0  0
   38.5300   29.9270   39.3860 C   0  0  0  0  0  0  0  0  0  0  0  0
   34.7510   29.1020   37.4850 C   0  0  0  0  0  0  0  0  0  0  0  0
   35.6440   29.1980   36.4060 C   0  0  0  0  0  0  0  0  0  0  0  0
   36.8410   28.4820   36.5070 C   0  0  0  0  0  0  0  0  0  0  0  0
   36.9950   27.7890   37.6320 N   0  0  0  0  0  0  0  0  0  0  0  0
   36.1830   27.6750   38.6560 C   0  0  0  0  0  0  0  0  0  0  0  0
   35.0530   28.3590   38.5420 N   0  0  0  0  0  0  0  0  0  0  0  0
   33.8160   29.6460   37.4350 H   0  0  0  0  0  0  0  0  0  0  0  0
   35.4560   29.7820   35.5240 H   0  0  0  0  0  0  0  0  0  0  0  0
   37.7900   28.4060   35.4520 N   0  0  0  0  0  0  0  0  0  0  0  0
   37.7330   28.0580   34.4850 H   0  0  0  0  0  0  0  0  0  0  0  0
   38.7490   28.7800   35.7030 H   0  0  0  0  0  0  0  0  0  0  0  0
  1 10  1  0  0  0  0
  2  1  2  0  0  0  0
  2  3  1  0  0  0  0
  3  4  2  0  0  0  0
  4  5  1  0  0  0  0
  4 13  1  0  0  0  0
  5  6  1  0  0  0  0
  6  7  2  0  0  0  0
  6 14  1  0  0  0  0
  7 15  1  0  0  0  0
  8 16  1  0  0  0  0
  8  7  1  0  0  0  0
  9  8  2  0  0  0  0
 10  9  1  0  0  0  0
 10  5  2  0  0  0  0
 11  2  1  0  0  0  0
 12  3  1  0  0  0  0
 17  9  1  0  0  0  0
 18 19  1  0  0  0  0
 18 17  1  0  0  0  0
 20 18  2  0  0  0  0
 21 20  1  0  0  0  0
 21 28  1  0  0  0  0
 22 21  2  0  0  0  0
 23 22  1  0  0  0  0
 24 22  1  0  0  0  0
 24 25  2  0  0  0  0
 25 27  1  0  0  0  0
 26 25  1  0  0  0  0
 27 28  2  0  0  0  0
 28 17  1  0  0  0  0
 29 34  1  0  0  0  0
 30 31  1  0  0  0  0
 30 29  2  0  0  0  0
 31 32  2  0  0  0  0
 32 33  1  0  0  0  0
 33  1  1  0  0  0  0
 34 33  2  0  0  0  0
 35 29  1  0  0  0  0
 36 30  1  0  0  0  0
 37 39  1  0  0  0  0
 37 31  1  0  0  0  0
 38 37  1  0  0  0  0
M  END
>  <minimizedAffinity>
-6.66751909

$$$$

 OpenBabel03242521533D

 39 43  0  0  0  0  0  0  0  0999 V2000
   37.7020   26.6790   40.5690 C   0  0  0  0  0  0  0  0  0  0  0  0
   36.8730   25.5830   40.3710 C   0  0  0  0  0  0  0  0  0  0  0  0
   36.9240   24.4300   41.1630 C   0  0  0  0  0  0  0  0  0  0  0  0
   37.8220   24.3340   42.2030 C   0  0  0  0  0  0  0  0  0  0  0  0
   38.6750   25.4200   42.4210 C   0  0  0  0  0  0  0  0  0  0  0  0
   39.5720   25.2950   43.4480 C   0  0  0  0  0  0  0  0  0  0  0  0
   40.4690   26.3380   43.6790 C   0  0  0  0  0  0  0  0  0  0  0  0
   40.4060   27.4770   42.8210 C   0  0  0  0  0  0  0  0  0  0  0  0
   39.4640   27.4890   41.8240 C   0  0  0  0  0  0  0  0  0  0  0  0
   38.5730   26.5240   41.5890 C   0  0  0  0  0  0  0  0  0  0  0  0
   36.1460   25.6170   39.5610 H   0  0  0  0  0  0  0  0  0  0  0  0
   36.2310   23.6390   40.9160 H   0  0  0  0  0  0  0  0  0  0  0  0
   37.8620   23.4660   42.8100 H   0  0  0  0  0  0  0  0  0  0  0  0
   39.5680   24.3970   44.0530 H   0  0  0  0  0  0  0  0  0  0  0  0
   41.1340   26.1330   44.5350 H   0  0  0  0  0  0  0  0  0  0  0  0
   41.1780   28.1360   43.1780 H   0  0  0  0  0  0  0  0  0  0  0  0
   40.0990   28.4190   40.9160 N   0  0  0  0  0  0  0  0  0  0  0  0
   40.9980   28.0460   39.9190 C   0  0  0  0  0  0  0  0  0  0  0  0
   41.3440   27.0520   39.5880 H   0  0  0  0  0  0  0  0  0  0  0  0
   41.5500   29.0590   39.2640 N   0  0  0  0  0  0  0  0  0  0  0  0
   41.0460   30.1680   39.7950 C   0  0  0  0  0  0  0  0  0  0  0  0
   41.1520   31.5370   39.6520 C   0  0  0  0  0  0  0  0  0  0  0  0
   41.8440   31.8600   38.8600 H   0  0  0  0  0  0  0  0  0  0  0  0
   40.4720   32.4170   40.4090 N   0  0  0  0  0  0  0  0  0  0  0  0
   39.6290   31.9670   41.3730 C   0  0  0  0  0  0  0  0  0  0  0  0
   39.1090   32.7180   41.9510 H   0  0  0  0  0  0  0  0  0  0  0  0
   39.4910   30.6400   41.5510 N   0  0  0  0  0  0  0  0  0  0  0  0
   40.1840   29.7480   40.7780 C   0  0  0  0  0  0  0  0  0  0  0  0
   37.3490   29.6120   38.3020 C   0  0  0  0  0  0  0  0  0  0  0  0
   36.6160   30.4780   39.1270 C   0  0  0  0  0  0  0  0  0  0  0  0
   36.3080   30.0210   40.4120 C   0  0  0  0  0  0  0  0  0  0  0  0
   36.7510   28.8010   40.7020 N   0  0  0  0  0  0  0  0  0  0  0  0
   37.4400   27.9670   39.9590 C   0  0  0  0  0  0  0  0  0  0  0  0
   37.7230   28.4180   38.7450 N   0  0  0  0  0  0  0  0  0  0  0  0
   37.6010   29.9380   37.3000 H   0  0  0  0  0  0  0  0  0  0  0  0
   36.2850   31.4550   38.8260 H   0  0  0  0  0  0  0  0  0  0  0  0
   35.6600   30.8270   41.3880 N   0  0  0  0  0  0  0  0  0  0  0  0
   35.9090   31.7240   41.8290 H   0  0  0  0  0  0  0  0  0  0  0  0
   34.7390   30.4350   41.7330 H   0  0  0  0  0  0  0  0  0  0  0  0
  1 10  1  0  0  0  0
  2  1  2  0  0  0  0
  2  3  1  0  0  0  0
  3  4  2  0  0  0  0
  4  5  1  0  0  0  0
  4 13  1  0  0  0  0
  5  6  1  0  0  0  0
  6  7  2  0  0  0  0
  6 14  1  0  0  0  0
  7 15  1  0  0  0  0
  8 16  1  0  0  0  0
  8  7  1  0  0  0  0
  9  8  2  0  0  0  0
 10  9  1  0  0  0  0
 10  5  2  0  0  0  0
 11  2  1  0  0  0  0
 12  3  1  0  0  0  0
 17  9  1  0  0  0  0
 18 17  1  0  0  0  0
 19 18  1  0  0  0  0
 20 21  1  0  0  0  0
 20 18  2  0  0  0  0
 21 28  1  0  0  0  0
 22 21  2  0  0  0  0
 22 24  1  0  0  0  0
 23 22  1  0  0  0  0
 24 25  2  0  0  0  0
 25 27  1  0  0  0  0
 25 26  1  0  0  0  0
 28 17  1  0  0  0  0
 28 27  2  0  0  0  0
 29 34  2  0  0  0  0
 29 30  1  0  0  0  0
 30 31  2  0  0  0  0
 31 32  1  0  0  0  0
 31 37  1  0  0  0  0
 33  1  1  0  0  0  0
 33 32  2  0  0  0  0
 34 33  1  0  0  0  0
 35 29  1  0  0  0  0
 36 30  1  0  0  0  0
 37 39  1  0  0  0  0
 37 38  1  0  0  0  0
M  END
>  <minimizedAffinity>
-6.52169466

$$$$

 OpenBabel03242521533D

 39 43  0  0  0  0  0  0  0  0999 V2000
   39.0110   29.0340   42.1890 C   0  0  0  0  0  0  0  0  0  0  0  0
   38.7870   28.1790   43.2600 C   0  0  0  0  0  0  0  0  0  0  0  0
   37.5530   27.5680   43.5080 C   0  0  0  0  0  0  0  0  0  0  0  0
   36.4790   27.7940   42.6760 C   0  0  0  0  0  0  0  0  0  0  0  0
   36.6740   28.6560   41.5930 C   0  0  0  0  0  0  0  0  0  0  0  0
   35.5880   28.8800   40.7880 C   0  0  0  0  0  0  0  0  0  0  0  0
   35.7240   29.7630   39.7170 C   0  0  0  0  0  0  0  0  0  0  0  0
   36.9910   30.3940   39.5270 C   0  0  0  0  0  0  0  0  0  0  0  0
   38.0060   30.0910   40.3980 C   0  0  0  0  0  0  0  0  0  0  0  0
   37.9220   29.2320   41.4160 C   0  0  0  0  0  0  0  0  0  0  0  0
   39.6090   27.9700   43.9430 H   0  0  0  0  0  0  0  0  0  0  0  0
   37.4940   26.9230   44.3730 H   0  0  0  0  0  0  0  0  0  0  0  0
   35.5430   27.3300   42.8540 H   0  0  0  0  0  0  0  0  0  0  0  0
   34.6550   28.3740   40.9990 H   0  0  0  0  0  0  0  0  0  0  0  0
   34.7930   29.8570   39.1340 H   0  0  0  0  0  0  0  0  0  0  0  0
   36.8610   31.0210   38.6620 H   0  0  0  0  0  0  0  0  0  0  0  0
   38.8090   31.2840   40.2430 N   0  0  0  0  0  0  0  0  0  0  0  0
   38.7130   32.4030   41.0680 C   0  0  0  0  0  0  0  0  0  0  0  0
   38.1100   32.5870   41.9730 H   0  0  0  0  0  0  0  0  0  0  0  0
   39.4600   33.4330   40.6930 N   0  0  0  0  0  0  0  0  0  0  0  0
   40.0960   33.0530   39.5900 C   0  0  0  0  0  0  0  0  0  0  0  0
   40.9880   33.5650   38.6690 C   0  0  0  0  0  0  0  0  0  0  0  0
   41.3120   34.5970   38.8730 H   0  0  0  0  0  0  0  0  0  0  0  0
   41.4340   32.8730   37.6040 N   0  0  0  0  0  0  0  0  0  0  0  0
   41.0040   31.6030   37.3980 C   0  0  0  0  0  0  0  0  0  0  0  0
   41.3960   31.0950   36.5270 H   0  0  0  0  0  0  0  0  0  0  0  0
   40.1340   31.0590   38.2680 N   0  0  0  0  0  0  0  0  0  0  0  0
   39.6830   31.7650   39.3510 C   0  0  0  0  0  0  0  0  0  0  0  0
   42.2880   29.4440   40.4690 C   0  0  0  0  0  0  0  0  0  0  0  0
   42.8130   30.5280   41.1890 C   0  0  0  0  0  0  0  0  0  0  0  0
   42.0310   31.0360   42.2310 C   0  0  0  0  0  0  0  0  0  0  0  0
   40.8650   30.4250   42.4160 N   0  0  0  0  0  0  0  0  0  0  0  0
   40.3450   29.4100   41.7650 C   0  0  0  0  0  0  0  0  0  0  0  0
   41.1010   28.9410   40.7830 N   0  0  0  0  0  0  0  0  0  0  0  0
   42.8710   29.0310   39.6550 H   0  0  0  0  0  0  0  0  0  0  0  0
   43.7670   30.9780   40.9830 H   0  0  0  0  0  0  0  0  0  0  0  0
   42.4780   32.0630   43.1060 N   0  0  0  0  0  0  0  0  0  0  0  0
   43.2780   32.1320   43.7510 H   0  0  0  0  0  0  0  0  0  0  0  0
   41.8740   32.9340   43.0990 H   0  0  0  0  0  0  0  0  0  0  0  0
  1  2  1  0  0  0  0
  2  3  2  0  0  0  0
  2 11  1  0  0  0  0
  3 12  1  0  0  0  0
  4 13  1  0  0  0  0
  4  3  1  0  0  0  0
  5  4  2  0  0  0  0
  6 14  1  0  0  0  0
  6  5  1  0  0  0  0
  7  6  2  0  0  0  0
  8  7  1  0  0  0  0
  8  9  2  0  0  0  0
  9 10  1  0  0  0  0
 10  5  1  0  0  0  0
 10  1  2  0  0  0  0
 15  7  1  0  0  0  0
 16  8  1  0  0  0  0
 17  9  1  0  0  0  0
 17 18  1  0  0  0  0
 18 19  1  0  0  0  0
 20 18  2  0  0  0  0
 21 20  1  0  0  0  0
 22 23  1  0  0  0  0
 22 21  2  0  0  0  0
 24 22  1  0  0  0  0
 25 24  2  0  0  0  0
 25 27  1  0  0  0  0
 26 25  1  0  0  0  0
 27 28  2  0  0  0  0
 28 21  1  0  0  0  0
 28 17  1  0  0  0  0
 29 34  2  0  0  0  0
 29 30  1  0  0  0  0
 30 31  2  0  0  0  0
 31 32  1  0  0  0  0
 31 37  1  0  0  0  0
 33  1  1  0  0  0  0
 33 32  2  0  0  0  0
 34 33  1  0  0  0  0
 35 29  1  0  0  0  0
 36 30  1  0  0  0  0
 37 38  1  0  0  0  0
 39 37  1  0  0  0  0
M  END
>  <minimizedAffinity>
-6.39959764

$$$$

 OpenBabel03242521533D

 39 43  0  0  0  0  0  0  0  0999 V2000
   37.7550   28.8360   40.9080 C   0  0  0  0  0  0  0  0  0  0  0  0
   36.6490   28.1920   41.4450 C   0  0  0  0  0  0  0  0  0  0  0  0
   36.7030   27.4150   42.6080 C   0  0  0  0  0  0  0  0  0  0  0  0
   37.8900   27.2560   43.2890 C   0  0  0  0  0  0  0  0  0  0  0  0
   39.0220   27.8870   42.7670 C   0  0  0  0  0  0  0  0  0  0  0  0
   40.1950   27.7000   43.4490 C   0  0  0  0  0  0  0  0  0  0  0  0
   41.3590   28.2800   42.9440 C   0  0  0  0  0  0  0  0  0  0  0  0
   41.2620   29.0290   41.7330 C   0  0  0  0  0  0  0  0  0  0  0  0
   40.0320   29.1480   41.1380 C   0  0  0  0  0  0  0  0  0  0  0  0
   38.8940   28.6320   41.6050 C   0  0  0  0  0  0  0  0  0  0  0  0
   35.6890   28.2930   40.9400 H   0  0  0  0  0  0  0  0  0  0  0  0
   35.7790   26.9600   42.9330 H   0  0  0  0  0  0  0  0  0  0  0  0
   37.9370   26.6740   44.1740 H   0  0  0  0  0  0  0  0  0  0  0  0
   40.1950   27.1100   44.3570 H   0  0  0  0  0  0  0  0  0  0  0  0
   42.2370   28.0720   43.5800 H   0  0  0  0  0  0  0  0  0  0  0  0
   42.2640   29.3700   41.5380 H   0  0  0  0  0  0  0  0  0  0  0  0
   40.4560   29.4080   39.7800 N   0  0  0  0  0  0  0  0  0  0  0  0
   40.7210   28.4130   38.8410 C   0  0  0  0  0  0  0  0  0  0  0  0
   40.6160   27.3160   38.8960 H   0  0  0  0  0  0  0  0  0  0  0  0
   41.2010   28.8550   37.6860 N   0  0  0  0  0  0  0  0  0  0  0  0
   41.2820   30.1770   37.7950 C   0  0  0  0  0  0  0  0  0  0  0  0
   41.6830   31.2650   37.0460 C   0  0  0  0  0  0  0  0  0  0  0  0
   42.0410   31.0160   36.0360 H   0  0  0  0  0  0  0  0  0  0  0  0
   41.6440   32.5320   37.4980 N   0  0  0  0  0  0  0  0  0  0  0  0
   41.1920   32.7870   38.7520 C   0  0  0  0  0  0  0  0  0  0  0  0
   41.1830   33.8230   39.0620 H   0  0  0  0  0  0  0  0  0  0  0  0
   40.7900   31.7590   39.5220 N   0  0  0  0  0  0  0  0  0  0  0  0
   40.8290   30.4720   39.0580 C   0  0  0  0  0  0  0  0  0  0  0  0
   37.3700   30.8300   37.7870 C   0  0  0  0  0  0  0  0  0  0  0  0
   37.2520   32.1190   38.3280 C   0  0  0  0  0  0  0  0  0  0  0  0
   37.3360   32.2340   39.7190 C   0  0  0  0  0  0  0  0  0  0  0  0
   37.5170   31.0900   40.3730 N   0  0  0  0  0  0  0  0  0  0  0  0
   37.6340   29.8710   39.9010 C   0  0  0  0  0  0  0  0  0  0  0  0
   37.5540   29.7820   38.5810 N   0  0  0  0  0  0  0  0  0  0  0  0
   37.3080   30.7100   36.7120 H   0  0  0  0  0  0  0  0  0  0  0  0
   37.1030   33.0050   37.7380 H   0  0  0  0  0  0  0  0  0  0  0  0
   37.3340   33.4840   40.3960 N   0  0  0  0  0  0  0  0  0  0  0  0
   37.9550   34.3040   40.3500 H   0  0  0  0  0  0  0  0  0  0  0  0
   36.5390   33.6030   41.0860 H   0  0  0  0  0  0  0  0  0  0  0  0
  1  2  2  0  0  0  0
  1 10  1  0  0  0  0
  2  3  1  0  0  0  0
  3 12  1  0  0  0  0
  3  4  2  0  0  0  0
  4 13  1  0  0  0  0
  5  4  1  0  0  0  0
  5  6  1  0  0  0  0
  6 14  1  0  0  0  0
  7  6  2  0  0  0  0
  7 15  1  0  0  0  0
  8  7  1  0  0  0  0
  9 10  1  0  0  0  0
  9  8  2  0  0  0  0
 10  5  2  0  0  0  0
 11  2  1  0  0  0  0
 16  8  1  0  0  0  0
 17  9  1  0  0  0  0
 18 19  1  0  0  0  0
 18 17  1  0  0  0  0
 20 21  1  0  0  0  0
 20 18  2  0  0  0  0
 21 28  1  0  0  0  0
 22 24  1  0  0  0  0
 22 21  2  0  0  0  0
 23 22  1  0  0  0  0
 24 25  2  0  0  0  0
 25 26  1  0  0  0  0
 25 27  1  0  0  0  0
 28 27  2  0  0  0  0
 28 17  1  0  0  0  0
 29 30  2  0  0  0  0
 29 34  1  0  0  0  0
 30 31  1  0  0  0  0
 31 32  2  0  0  0  0
 31 37  1  0  0  0  0
 33 32  1  0  0  0  0
 33  1  1  0  0  0  0
 34 33  2  0  0  0  0
 35 29  1  0  0  0  0
 36 30  1  0  0  0  0
 37 39  1  0  0  0  0
 38 37  1  0  0  0  0
M  END
>  <minimizedAffinity>
-6.31194305

$$$$

 OpenBabel03242521533D

 39 43  0  0  0  0  0  0  0  0999 V2000
   37.6300   31.8160   40.2470 C   0  0  0  0  0  0  0  0  0  0  0  0
   37.3450   33.1420   39.9520 C   0  0  0  0  0  0  0  0  0  0  0  0
   38.3040   34.1610   40.0010 C   0  0  0  0  0  0  0  0  0  0  0  0
   39.6060   33.8820   40.3510 C   0  0  0  0  0  0  0  0  0  0  0  0
   39.9200   32.5550   40.6600 C   0  0  0  0  0  0  0  0  0  0  0  0
   41.2160   32.3030   41.0230 C   0  0  0  0  0  0  0  0  0  0  0  0
   41.5670   31.0000   41.3770 C   0  0  0  0  0  0  0  0  0  0  0  0
   40.5470   30.0020   41.3520 C   0  0  0  0  0  0  0  0  0  0  0  0
   39.2820   30.3740   40.9710 C   0  0  0  0  0  0  0  0  0  0  0  0
   38.9150   31.6010   40.5990 C   0  0  0  0  0  0  0  0  0  0  0  0
   36.3280   33.4080   39.6680 H   0  0  0  0  0  0  0  0  0  0  0  0
   37.9680   35.1570   39.7520 H   0  0  0  0  0  0  0  0  0  0  0  0
   40.3380   34.6470   40.3840 H   0  0  0  0  0  0  0  0  0  0  0  0
   41.9350   33.1120   41.0290 H   0  0  0  0  0  0  0  0  0  0  0  0
   42.6350   30.9130   41.6390 H   0  0  0  0  0  0  0  0  0  0  0  0
   41.0380   29.0950   41.6600 H   0  0  0  0  0  0  0  0  0  0  0  0
   38.5270   29.3270   41.6240 N   0  0  0  0  0  0  0  0  0  0  0  0
   38.0660   29.3990   42.9370 C   0  0  0  0  0  0  0  0  0  0  0  0
   38.1140   30.2140   43.6790 H   0  0  0  0  0  0  0  0  0  0  0  0
   37.4870   28.2920   43.3830 N   0  0  0  0  0  0  0  0  0  0  0  0
   37.5330   27.4170   42.3830 C   0  0  0  0  0  0  0  0  0  0  0  0
   37.1620   26.1140   42.1170 C   0  0  0  0  0  0  0  0  0  0  0  0
   36.6590   25.6040   42.9520 H   0  0  0  0  0  0  0  0  0  0  0  0
   37.3880   25.5040   40.9390 N   0  0  0  0  0  0  0  0  0  0  0  0
   38.0120   26.1780   39.9400 C   0  0  0  0  0  0  0  0  0  0  0  0
   38.1680   25.6380   39.0160 H   0  0  0  0  0  0  0  0  0  0  0  0
   38.3930   27.4510   40.1510 N   0  0  0  0  0  0  0  0  0  0  0  0
   38.1600   28.0690   41.3500 C   0  0  0  0  0  0  0  0  0  0  0  0
   34.9220   29.2650   40.0850 C   0  0  0  0  0  0  0  0  0  0  0  0
   35.1400   28.7520   38.7970 C   0  0  0  0  0  0  0  0  0  0  0  0
   36.2090   29.2880   38.0730 C   0  0  0  0  0  0  0  0  0  0  0  0
   36.9010   30.2360   38.6990 N   0  0  0  0  0  0  0  0  0  0  0  0
   36.7280   30.7360   39.9010 C   0  0  0  0  0  0  0  0  0  0  0  0
   35.7100   30.2150   40.5720 N   0  0  0  0  0  0  0  0  0  0  0  0
   34.1000   28.8700   40.6690 H   0  0  0  0  0  0  0  0  0  0  0  0
   34.5370   27.9840   38.3480 H   0  0  0  0  0  0  0  0  0  0  0  0
   36.6080   28.7960   36.8000 N   0  0  0  0  0  0  0  0  0  0  0  0
   36.9290   27.8720   36.4780 H   0  0  0  0  0  0  0  0  0  0  0  0
   36.5690   29.5170   36.0250 H   0  0  0  0  0  0  0  0  0  0  0  0
  1 10  1  0  0  0  0
  2  3  1  0  0  0  0
  2  1  2  0  0  0  0
  3  4  2  0  0  0  0
  4 13  1  0  0  0  0
  4  5  1  0  0  0  0
  5  6  1  0  0  0  0
  6 14  1  0  0  0  0
  6  7  2  0  0  0  0
  7 15  1  0  0  0  0
  8  7  1  0  0  0  0
  8 16  1  0  0  0  0
  9  8  2  0  0  0  0
  9 17  1  0  0  0  0
 10  5  2  0  0  0  0
 10  9  1  0  0  0  0
 11  2  1  0  0  0  0
 12  3  1  0  0  0  0
 17 18  1  0  0  0  0
 18 20  2  0  0  0  0
 18 19  1  0  0  0  0
 21 20  1  0  0  0  0
 22 21  1  0  0  0  0
 22 23  1  0  0  0  0
 24 22  2  0  0  0  0
 25 27  2  0  0  0  0
 25 24  1  0  0  0  0
 26 25  1  0  0  0  0
 27 28  1  0  0  0  0
 28 17  1  0  0  0  0
 28 21  2  0  0  0  0
 29 34  1  0  0  0  0
 29 35  1  0  0  0  0
 30 29  2  0  0  0  0
 31 32  2  0  0  0  0
 31 30  1  0  0  0  0
 32 33  1  0  0  0  0
 33  1  1  0  0  0  0
 33 34  2  0  0  0  0
 36 30  1  0  0  0  0
 37 31  1  0  0  0  0
 38 37  1  0  0  0  0
 39 37  1  0  0  0  0
M  END
>  <minimizedAffinity>
-6.28636265

$$$$

 OpenBabel03242521533D

 39 43  0  0  0  0  0  0  0  0999 V2000
   36.7790   26.4550   39.6600 C   0  0  0  0  0  0  0  0  0  0  0  0
   36.3670   25.1350   39.5330 C   0  0  0  0  0  0  0  0  0  0  0  0
   36.4810   24.1940   40.5640 C   0  0  0  0  0  0  0  0  0  0  0  0
   37.0190   24.5500   41.7810 C   0  0  0  0  0  0  0  0  0  0  0  0
   37.4480   25.8720   41.9340 C   0  0  0  0  0  0  0  0  0  0  0  0
   37.9960   26.1990   43.1460 C   0  0  0  0  0  0  0  0  0  0  0  0
   38.4740   27.4960   43.3320 C   0  0  0  0  0  0  0  0  0  0  0  0
   38.3740   28.4100   42.2390 C   0  0  0  0  0  0  0  0  0  0  0  0
   37.8050   27.9670   41.0720 C   0  0  0  0  0  0  0  0  0  0  0  0
   37.3130   26.7440   40.8650 C   0  0  0  0  0  0  0  0  0  0  0  0
   35.9340   24.8100   38.5880 H   0  0  0  0  0  0  0  0  0  0  0  0
   36.1290   23.1950   40.3520 H   0  0  0  0  0  0  0  0  0  0  0  0
   37.1020   23.8450   42.5680 H   0  0  0  0  0  0  0  0  0  0  0  0
   38.0490   25.4510   43.9260 H   0  0  0  0  0  0  0  0  0  0  0  0
   38.8810   27.6480   44.3460 H   0  0  0  0  0  0  0  0  0  0  0  0
   38.8000   29.3270   42.6060 H   0  0  0  0  0  0  0  0  0  0  0  0
   38.4140   28.9000   40.1500 N   0  0  0  0  0  0  0  0  0  0  0  0
   39.5730   28.6360   39.4230 C   0  0  0  0  0  0  0  0  0  0  0  0
   40.1890   27.7240   39.3460 H   0  0  0  0  0  0  0  0  0  0  0  0
   40.0280   29.6610   38.7140 N   0  0  0  0  0  0  0  0  0  0  0  0
   39.1910   30.6700   38.9340 C   0  0  0  0  0  0  0  0  0  0  0  0
   39.0310   31.9920   38.5720 C   0  0  0  0  0  0  0  0  0  0  0  0
   39.7980   32.3720   37.8810 H   0  0  0  0  0  0  0  0  0  0  0  0
   38.0250   32.7660   39.0190 N   0  0  0  0  0  0  0  0  0  0  0  0
   37.1040   32.2500   39.8700 C   0  0  0  0  0  0  0  0  0  0  0  0
   36.3180   32.9180   40.1960 H   0  0  0  0  0  0  0  0  0  0  0  0
   37.2170   30.9650   40.2530 N   0  0  0  0  0  0  0  0  0  0  0  0
   38.2410   30.1800   39.7950 C   0  0  0  0  0  0  0  0  0  0  0  0
   35.2270   29.3270   37.8680 C   0  0  0  0  0  0  0  0  0  0  0  0
   36.0510   29.3860   36.7330 C   0  0  0  0  0  0  0  0  0  0  0  0
   37.0660   28.4300   36.6350 C   0  0  0  0  0  0  0  0  0  0  0  0
   37.1340   27.5680   37.6460 N   0  0  0  0  0  0  0  0  0  0  0  0
   36.3820   27.4820   38.7180 C   0  0  0  0  0  0  0  0  0  0  0  0
   35.4240   28.3950   38.7920 N   0  0  0  0  0  0  0  0  0  0  0  0
   34.4320   30.0550   37.9710 H   0  0  0  0  0  0  0  0  0  0  0  0
   35.9410   30.1150   35.9510 H   0  0  0  0  0  0  0  0  0  0  0  0
   37.9090   28.3080   35.4970 N   0  0  0  0  0  0  0  0  0  0  0  0
   37.7170   28.1200   34.5030 H   0  0  0  0  0  0  0  0  0  0  0  0
   38.9410   28.4350   35.7050 H   0  0  0  0  0  0  0  0  0  0  0  0
  1 10  1  0  0  0  0
  2  1  2  0  0  0  0
  2  3  1  0  0  0  0
  3  4  2  0  0  0  0
  4  5  1  0  0  0  0
  4 13  1  0  0  0  0
  5  6  1  0  0  0  0
  6  7  2  0  0  0  0
  6 14  1  0  0  0  0
  7 15  1  0  0  0  0
  8 16  1  0  0  0  0
  8  7  1  0  0  0  0
  9  8  2  0  0  0  0
 10  9  1  0  0  0  0
 10  5  2  0  0  0  0
 11  2  1  0  0  0  0
 12  3  1  0  0  0  0
 17  9  1  0  0  0  0
 18 17  1  0  0  0  0
 19 18  1  0  0  0  0
 20 21  1  0  0  0  0
 20 18  2  0  0  0  0
 21 28  1  0  0  0  0
 22 21  2  0  0  0  0
 22 24  1  0  0  0  0
 23 22  1  0  0  0  0
 24 25  2  0  0  0  0
 25 26  1  0  0  0  0
 25 27  1  0  0  0  0
 28 17  1  0  0  0  0
 28 27  2  0  0  0  0
 29 35  1  0  0  0  0
 29 34  1  0  0  0  0
 30 29  2  0  0  0  0
 31 30  1  0  0  0  0
 31 32  2  0  0  0  0
 32 33  1  0  0  0  0
 33 34  2  0  0  0  0
 33  1  1  0  0  0  0
 36 30  1  0  0  0  0
 37 39  1  0  0  0  0
 37 31  1  0  0  0  0
 38 37  1  0  0  0  0
M  END
>  <minimizedAffinity>
-6.266119

$$$$

 OpenBabel03242521533D

 39 43  0  0  0  0  0  0  0  0999 V2000
   37.5120   30.6810   40.1810 C   0  0  0  0  0  0  0  0  0  0  0  0
   36.3500   30.5220   39.4370 C   0  0  0  0  0  0  0  0  0  0  0  0
   35.3710   29.5680   39.7400 C   0  0  0  0  0  0  0  0  0  0  0  0
   35.5240   28.7250   40.8180 C   0  0  0  0  0  0  0  0  0  0  0  0
   36.6880   28.8580   41.5800 C   0  0  0  0  0  0  0  0  0  0  0  0
   36.8280   27.9970   42.6360 C   0  0  0  0  0  0  0  0  0  0  0  0
   37.9910   28.0670   43.4030 C   0  0  0  0  0  0  0  0  0  0  0  0
   38.9800   29.0290   43.0330 C   0  0  0  0  0  0  0  0  0  0  0  0
   38.7290   29.8370   41.9530 C   0  0  0  0  0  0  0  0  0  0  0  0
   37.6180   29.8190   41.2140 C   0  0  0  0  0  0  0  0  0  0  0  0
   36.1870   31.1690   38.5770 H   0  0  0  0  0  0  0  0  0  0  0  0
   34.5080   29.5340   39.0900 H   0  0  0  0  0  0  0  0  0  0  0  0
   34.7840   28.0040   41.0560 H   0  0  0  0  0  0  0  0  0  0  0  0
   36.0400   27.2870   42.8520 H   0  0  0  0  0  0  0  0  0  0  0  0
   37.9890   27.3380   44.2300 H   0  0  0  0  0  0  0  0  0  0  0  0
   39.7740   28.8990   43.7480 H   0  0  0  0  0  0  0  0  0  0  0  0
   40.0890   30.1710   41.5930 N   0  0  0  0  0  0  0  0  0  0  0  0
   40.8600   31.1260   42.2530 C   0  0  0  0  0  0  0  0  0  0  0  0
   40.6510   31.7350   43.1480 H   0  0  0  0  0  0  0  0  0  0  0  0
   42.0440   31.3590   41.7000 N   0  0  0  0  0  0  0  0  0  0  0  0
   42.1240   30.5670   40.6360 C   0  0  0  0  0  0  0  0  0  0  0  0
   43.0040   30.2790   39.6120 C   0  0  0  0  0  0  0  0  0  0  0  0
   43.9490   30.8410   39.6510 H   0  0  0  0  0  0  0  0  0  0  0  0
   42.7420   29.3860   38.6390 N   0  0  0  0  0  0  0  0  0  0  0  0
   41.5610   28.7190   38.6360 C   0  0  0  0  0  0  0  0  0  0  0  0
   41.4050   28.0140   37.8310 H   0  0  0  0  0  0  0  0  0  0  0  0
   40.6700   28.9660   39.6140 N   0  0  0  0  0  0  0  0  0  0  0  0
   40.9390   29.8730   40.6030 C   0  0  0  0  0  0  0  0  0  0  0  0
   39.4220   33.8420   40.6550 C   0  0  0  0  0  0  0  0  0  0  0  0
   40.2030   33.8380   39.4890 C   0  0  0  0  0  0  0  0  0  0  0  0
   40.0140   32.7750   38.6020 C   0  0  0  0  0  0  0  0  0  0  0  0
   39.1050   31.8780   38.9760 N   0  0  0  0  0  0  0  0  0  0  0  0
   38.3570   31.8520   40.0540 C   0  0  0  0  0  0  0  0  0  0  0  0
   38.5490   32.8690   40.8820 N   0  0  0  0  0  0  0  0  0  0  0  0
   39.5480   34.6530   41.3620 H   0  0  0  0  0  0  0  0  0  0  0  0
   40.9250   34.5980   39.2500 H   0  0  0  0  0  0  0  0  0  0  0  0
   40.6610   32.6930   37.3390 N   0  0  0  0  0  0  0  0  0  0  0  0
   40.6570   33.3070   36.5120 H   0  0  0  0  0  0  0  0  0  0  0  0
   41.2700   31.8350   37.2170 H   0  0  0  0  0  0  0  0  0  0  0  0
  1 10  1  0  0  0  0
  2  3  1  0  0  0  0
  2  1  2  0  0  0  0
  3  4  2  0  0  0  0
  4 13  1  0  0  0  0
  4  5  1  0  0  0  0
  5  6  1  0  0  0  0
  6 14  1  0  0  0  0
  6  7  2  0  0  0  0
  7 15  1  0  0  0  0
  8  7  1  0  0  0  0
  8 16  1  0  0  0  0
  9  8  2  0  0  0  0
 10  5  2  0  0  0  0
 10  9  1  0  0  0  0
 11  2  1  0  0  0  0
 12  3  1  0  0  0  0
 17  9  1  0  0  0  0
 17 18  1  0  0  0  0
 18 19  1  0  0  0  0
 20 18  2  0  0  0  0
 21 20  1  0  0  0  0
 22 23  1  0  0  0  0
 22 21  2  0  0  0  0
 24 22  1  0  0  0  0
 25 24  2  0  0  0  0
 25 27  1  0  0  0  0
 26 25  1  0  0  0  0
 27 28  2  0  0  0  0
 28 21  1  0  0  0  0
 28 17  1  0  0  0  0
 29 34  1  0  0  0  0
 29 35  1  0  0  0  0
 30 29  2  0  0  0  0
 31 32  2  0  0  0  0
 31 30  1  0  0  0  0
 32 33  1  0  0  0  0
 33  1  1  0  0  0  0
 33 34  2  0  0  0  0
 36 30  1  0  0  0  0
 37 31  1  0  0  0  0
 38 37  1  0  0  0  0
 39 37  1  0  0  0  0
M  END
>  <minimizedAffinity>
-6.24124002

$$$$

 OpenBabel03242521533D

 39 43  0  0  0  0  0  0  0  0999 V2000
   37.7380   31.7810   39.5230 C   0  0  0  0  0  0  0  0  0  0  0  0
   37.2940   33.0920   39.6370 C   0  0  0  0  0  0  0  0  0  0  0  0
   38.1380   34.1610   39.9600 C   0  0  0  0  0  0  0  0  0  0  0  0
   39.4800   33.9520   40.1830 C   0  0  0  0  0  0  0  0  0  0  0  0
   39.9540   32.6400   40.0810 C   0  0  0  0  0  0  0  0  0  0  0  0
   41.2880   32.4520   40.3250 C   0  0  0  0  0  0  0  0  0  0  0  0
   41.7980   31.1550   40.2730 C   0  0  0  0  0  0  0  0  0  0  0  0
   40.8930   30.0910   39.9790 C   0  0  0  0  0  0  0  0  0  0  0  0
   39.5760   30.4020   39.7530 C   0  0  0  0  0  0  0  0  0  0  0  0
   39.0570   31.6310   39.7670 C   0  0  0  0  0  0  0  0  0  0  0  0
   36.2390   33.3040   39.4670 H   0  0  0  0  0  0  0  0  0  0  0  0
   37.6820   35.1390   40.0230 H   0  0  0  0  0  0  0  0  0  0  0  0
   40.1260   34.7580   40.4220 H   0  0  0  0  0  0  0  0  0  0  0  0
   41.9140   33.3060   40.5510 H   0  0  0  0  0  0  0  0  0  0  0  0
   42.8830   31.1260   40.4730 H   0  0  0  0  0  0  0  0  0  0  0  0
   41.4970   29.2010   39.9960 H   0  0  0  0  0  0  0  0  0  0  0  0
   38.9770   29.1280   40.0870 N   0  0  0  0  0  0  0  0  0  0  0  0
   38.8430   28.0690   39.1910 C   0  0  0  0  0  0  0  0  0  0  0  0
   39.1850   27.9520   38.1490 H   0  0  0  0  0  0  0  0  0  0  0  0
   38.1700   27.0270   39.6630 N   0  0  0  0  0  0  0  0  0  0  0  0
   37.8180   27.3390   40.9060 C   0  0  0  0  0  0  0  0  0  0  0  0
   37.1230   26.7890   41.9640 C   0  0  0  0  0  0  0  0  0  0  0  0
   36.7310   25.7790   41.7760 H   0  0  0  0  0  0  0  0  0  0  0  0
   36.9320   27.4230   43.1360 N   0  0  0  0  0  0  0  0  0  0  0  0
   37.4370   28.6700   43.3170 C   0  0  0  0  0  0  0  0  0  0  0  0
   37.2540   29.1310   44.2780 H   0  0  0  0  0  0  0  0  0  0  0  0
   38.1230   29.2480   42.3150 N   0  0  0  0  0  0  0  0  0  0  0  0
   38.3170   28.6000   41.1250 C   0  0  0  0  0  0  0  0  0  0  0  0
   35.2630   29.1370   38.6540 C   0  0  0  0  0  0  0  0  0  0  0  0
   35.5540   28.9620   37.2920 C   0  0  0  0  0  0  0  0  0  0  0  0
   36.5890   29.7360   36.7600 C   0  0  0  0  0  0  0  0  0  0  0  0
   37.1830   30.5600   37.6190 N   0  0  0  0  0  0  0  0  0  0  0  0
   36.9400   30.7470   38.8950 C   0  0  0  0  0  0  0  0  0  0  0  0
   35.9560   30.0040   39.3830 N   0  0  0  0  0  0  0  0  0  0  0  0
   34.4650   28.5520   39.0940 H   0  0  0  0  0  0  0  0  0  0  0  0
   35.0290   28.2770   36.6510 H   0  0  0  0  0  0  0  0  0  0  0  0
   37.0580   29.5920   35.4250 N   0  0  0  0  0  0  0  0  0  0  0  0
   37.4640   28.7990   34.9100 H   0  0  0  0  0  0  0  0  0  0  0  0
   36.9750   30.4710   34.8390 H   0  0  0  0  0  0  0  0  0  0  0  0
  1  2  2  0  0  0  0
  1 10  1  0  0  0  0
  2  3  1  0  0  0  0
  3 12  1  0  0  0  0
  3  4  2  0  0  0  0
  4 13  1  0  0  0  0
  5  4  1  0  0  0  0
  5  6  1  0  0  0  0
  6 14  1  0  0  0  0
  7  6  2  0  0  0  0
  7 15  1  0  0  0  0
  8 16  1  0  0  0  0
  8  7  1  0  0  0  0
  9 10  1  0  0  0  0
  9  8  2  0  0  0  0
  9 17  1  0  0  0  0
 10  5  2  0  0  0  0
 11  2  1  0  0  0  0
 17 28  1  0  0  0  0
 18 20  2  0  0  0  0
 18 17  1  0  0  0  0
 19 18  1  0  0  0  0
 20 21  1  0  0  0  0
 21 28  2  0  0  0  0
 21 22  1  0  0  0  0
 22 24  2  0  0  0  0
 23 22  1  0  0  0  0
 24 25  1  0  0  0  0
 25 26  1  0  0  0  0
 27 25  2  0  0  0  0
 28 27  1  0  0  0  0
 29 35  1  0  0  0  0
 29 34  1  0  0  0  0
 30 29  2  0  0  0  0
 31 30  1  0  0  0  0
 31 32  2  0  0  0  0
 32 33  1  0  0  0  0
 33 34  2  0  0  0  0
 33  1  1  0  0  0  0
 36 30  1  0  0  0  0
 37 31  1  0  0  0  0
 38 37  1  0  0  0  0
 39 37  1  0  0  0  0
M  END
>  <minimizedAffinity>
-6.21170473

$$$$

 OpenBabel03242521533D

 39 43  0  0  0  0  0  0  0  0999 V2000
   37.6560   30.5060   40.2610 C   0  0  0  0  0  0  0  0  0  0  0  0
   36.3550   30.4720   39.7750 C   0  0  0  0  0  0  0  0  0  0  0  0
   35.3930   29.5610   40.2260 C   0  0  0  0  0  0  0  0  0  0  0  0
   35.7040   28.6360   41.1980 C   0  0  0  0  0  0  0  0  0  0  0  0
   37.0090   28.6440   41.7000 C   0  0  0  0  0  0  0  0  0  0  0  0
   37.3010   27.7040   42.6530 C   0  0  0  0  0  0  0  0  0  0  0  0
   38.6010   27.6480   43.1560 C   0  0  0  0  0  0  0  0  0  0  0  0
   39.5600   28.5710   42.6380 C   0  0  0  0  0  0  0  0  0  0  0  0
   39.1490   29.4670   41.6840 C   0  0  0  0  0  0  0  0  0  0  0  0
   37.9110   29.5690   41.1990 C   0  0  0  0  0  0  0  0  0  0  0  0
   36.0650   31.1870   39.0070 H   0  0  0  0  0  0  0  0  0  0  0  0
   34.4130   29.6250   39.7750 H   0  0  0  0  0  0  0  0  0  0  0  0
   34.9790   27.9470   41.5480 H   0  0  0  0  0  0  0  0  0  0  0  0
   36.5260   27.0290   42.9920 H   0  0  0  0  0  0  0  0  0  0  0  0
   38.7180   26.8640   43.9230 H   0  0  0  0  0  0  0  0  0  0  0  0
   40.4730   28.3430   43.1590 H   0  0  0  0  0  0  0  0  0  0  0  0
   40.4260   29.7420   41.0600 N   0  0  0  0  0  0  0  0  0  0  0  0
   40.8820   29.1090   39.9060 C   0  0  0  0  0  0  0  0  0  0  0  0
   40.3970   28.3760   39.2390 H   0  0  0  0  0  0  0  0  0  0  0  0
   42.1230   29.4240   39.5560 N   0  0  0  0  0  0  0  0  0  0  0  0
   42.5610   30.2880   40.4650 C   0  0  0  0  0  0  0  0  0  0  0  0
   43.7020   31.0080   40.7580 C   0  0  0  0  0  0  0  0  0  0  0  0
   44.5260   30.8670   40.0430 H   0  0  0  0  0  0  0  0  0  0  0  0
   43.8130   31.8190   41.8260 N   0  0  0  0  0  0  0  0  0  0  0  0
   42.7660   31.9590   42.6780 C   0  0  0  0  0  0  0  0  0  0  0  0
   42.9120   32.6240   43.5190 H   0  0  0  0  0  0  0  0  0  0  0  0
   41.6310   31.2780   42.4350 N   0  0  0  0  0  0  0  0  0  0  0  0
   41.5210   30.4550   41.3470 C   0  0  0  0  0  0  0  0  0  0  0  0
   39.8010   33.5420   40.4800 C   0  0  0  0  0  0  0  0  0  0  0  0
   40.3960   33.5190   39.2090 C   0  0  0  0  0  0  0  0  0  0  0  0
   40.0120   32.4870   38.3480 C   0  0  0  0  0  0  0  0  0  0  0  0
   39.1180   31.6360   38.8440 N   0  0  0  0  0  0  0  0  0  0  0  0
   38.5410   31.6290   40.0220 C   0  0  0  0  0  0  0  0  0  0  0  0
   38.9160   32.6160   40.8240 N   0  0  0  0  0  0  0  0  0  0  0  0
   40.0800   34.3290   41.1700 H   0  0  0  0  0  0  0  0  0  0  0  0
   41.1180   34.2400   38.8730 H   0  0  0  0  0  0  0  0  0  0  0  0
   40.4560   32.3960   37.0000 N   0  0  0  0  0  0  0  0  0  0  0  0
   40.3640   33.0260   36.1910 H   0  0  0  0  0  0  0  0  0  0  0  0
   40.9870   31.5070   36.7770 H   0  0  0  0  0  0  0  0  0  0  0  0
  1 10  1  0  0  0  0
  2  3  1  0  0  0  0
  2  1  2  0  0  0  0
  3  4  2  0  0  0  0
  4 13  1  0  0  0  0
  4  5  1  0  0  0  0
  5  6  1  0  0  0  0
  6 14  1  0  0  0  0
  6  7  2  0  0  0  0
  7 15  1  0  0  0  0
  8  7  1  0  0  0  0
  8 16  1  0  0  0  0
  9  8  2  0  0  0  0
 10  9  1  0  0  0  0
 10  5  2  0  0  0  0
 11  2  1  0  0  0  0
 12  3  1  0  0  0  0
 17 28  1  0  0  0  0
 17  9  1  0  0  0  0
 18 17  1  0  0  0  0
 19 18  1  0  0  0  0
 20 18  2  0  0  0  0
 20 21  1  0  0  0  0
 21 22  2  0  0  0  0
 21 28  1  0  0  0  0
 22 24  1  0  0  0  0
 23 22  1  0  0  0  0
 24 25  2  0  0  0  0
 25 26  1  0  0  0  0
 27 25  1  0  0  0  0
 28 27  2  0  0  0  0
 29 34  1  0  0  0  0
 29 35  1  0  0  0  0
 30 29  2  0  0  0  0
 31 32  2  0  0  0  0
 31 30  1  0  0  0  0
 32 33  1  0  0  0  0
 33  1  1  0  0  0  0
 33 34  2  0  0  0  0
 36 30  1  0  0  0  0
 37 31  1  0  0  0  0
 38 37  1  0  0  0  0
 39 37  1  0  0  0  0
M  END
>  <minimizedAffinity>
-6.16624308

$$$$
