
 OpenBabel03252507383D

 41 46  0  0  0  0  0  0  0  0999 V2000
   45.6400   34.7390   43.4960 C   0  0  0  0  0  0  0  0  0  0  0  0
   46.3490   33.6660   44.1060 C   0  0  0  0  0  0  0  0  0  0  0  0
   46.1230   33.4700   45.4630 C   0  0  0  0  0  0  0  0  0  0  0  0
   45.2770   34.2700   46.1160 N   0  0  0  0  0  0  0  0  0  0  0  0
   44.6160   35.2840   45.5060 C   0  0  0  0  0  0  0  0  0  0  0  0
   44.8080   35.5000   44.2140 N   0  0  0  0  0  0  0  0  0  0  0  0
   47.0270   33.0190   43.6000 H   0  0  0  0  0  0  0  0  0  0  0  0
   43.9660   35.8440   46.1680 H   0  0  0  0  0  0  0  0  0  0  0  0
   47.0240   32.6560   47.5750 C   0  0  0  0  0  0  0  0  0  0  0  0
   46.7880   32.4000   46.2200 C   0  0  0  0  0  0  0  0  0  0  0  0
   47.1850   31.2050   45.7040 C   0  0  0  0  0  0  0  0  0  0  0  0
   47.8080   30.2340   46.4580 C   0  0  0  0  0  0  0  0  0  0  0  0
   48.2780   29.0040   46.1680 N   0  0  0  0  0  0  0  0  0  0  0  0
   48.8090   28.4780   47.3260 C   0  0  0  0  0  0  0  0  0  0  0  0
   48.6560   29.3860   48.2950 N   0  0  0  0  0  0  0  0  0  0  0  0
   48.0470   30.4680   47.7880 C   0  0  0  0  0  0  0  0  0  0  0  0
   47.6560   31.6720   48.3440 C   0  0  0  0  0  0  0  0  0  0  0  0
   46.7490   33.5730   48.0850 H   0  0  0  0  0  0  0  0  0  0  0  0
   46.9900   31.0230   44.6400 H   0  0  0  0  0  0  0  0  0  0  0  0
   48.2030   28.6150   45.2030 H   0  0  0  0  0  0  0  0  0  0  0  0
   49.2270   27.4840   47.2330 H   0  0  0  0  0  0  0  0  0  0  0  0
   47.8630   31.8200   49.3960 H   0  0  0  0  0  0  0  0  0  0  0  0
   45.8560   34.9470   42.1400 O   0  0  0  0  0  0  0  0  0  0  0  0
   44.9490   34.5260   41.2060 C   0  0  0  0  0  0  0  0  0  0  0  0
   45.6740   33.7480   40.3760 C   0  0  0  0  0  0  0  0  0  0  0  0
   44.3970   33.1880   39.0970 S   0  0  0  0  0  0  0  0  0  0  0  0
   43.0680   34.1890   40.0170 C   0  0  0  0  0  0  0  0  0  0  0  0
   43.6890   34.6000   40.8340 N   0  0  0  0  0  0  0  0  0  0  0  0
   46.6650   33.2330   40.0210 H   0  0  0  0  0  0  0  0  0  0  0  0
   41.6370   34.3900   39.7620 N   0  0  0  0  0  0  0  0  0  0  0  0
   41.1250   35.5580   39.3910 C   0  0  0  0  0  0  0  0  0  0  0  0
   41.6440   36.5020   39.2240 H   0  0  0  0  0  0  0  0  0  0  0  0
   39.8100   35.3210   39.2640 N   0  0  0  0  0  0  0  0  0  0  0  0
   39.5470   34.0400   39.5530 C   0  0  0  0  0  0  0  0  0  0  0  0
   38.3750   33.2920   39.5780 C   0  0  0  0  0  0  0  0  0  0  0  0
   37.4240   33.7300   39.3310 H   0  0  0  0  0  0  0  0  0  0  0  0
   38.3800   31.9890   39.9100 N   0  0  0  0  0  0  0  0  0  0  0  0
   39.5560   31.3920   40.2300 C   0  0  0  0  0  0  0  0  0  0  0  0
   39.5670   30.3340   40.5000 H   0  0  0  0  0  0  0  0  0  0  0  0
   40.7120   32.1170   40.2090 N   0  0  0  0  0  0  0  0  0  0  0  0
   40.7340   33.4200   39.8800 C   0  0  0  0  0  0  0  0  0  0  0  0
  1  2  2  0  0  0  0
  1  6  1  0  0  0  0
  2  3  1  0  0  0  0
  3  4  2  0  0  0  0
  3 10  1  0  0  0  0
  5  4  1  0  0  0  0
  5  8  1  0  0  0  0
  6  5  2  0  0  0  0
  7  2  1  0  0  0  0
  9 18  1  0  0  0  0
  9 17  1  0  0  0  0
 10  9  2  0  0  0  0
 11 10  1  0  0  0  0
 11 12  2  0  0  0  0
 12 16  1  0  0  0  0
 13 12  1  0  0  0  0
 13 14  1  0  0  0  0
 14 15  2  0  0  0  0
 16 15  1  0  0  0  0
 16 17  2  0  0  0  0
 17 22  1  0  0  0  0
 19 11  1  0  0  0  0
 20 13  1  0  0  0  0
 21 14  1  0  0  0  0
 23  1  1  0  0  0  0
 24 23  1  0  0  0  0
 25 24  2  0  0  0  0
 26 27  1  0  0  0  0
 26 25  1  0  0  0  0
 27 28  2  0  0  0  0
 28 24  1  0  0  0  0
 29 25  1  0  0  0  0
 30 41  1  0  0  0  0
 30 27  1  0  0  0  0
 31 30  1  0  0  0  0
 32 31  1  0  0  0  0
 33 31  2  0  0  0  0
 33 34  1  0  0  0  0
 34 35  2  0  0  0  0
 34 41  1  0  0  0  0
 35 37  1  0  0  0  0
 36 35  1  0  0  0  0
 37 38  2  0  0  0  0
 38 39  1  0  0  0  0
 40 38  1  0  0  0  0
 41 40  2  0  0  0  0
M  END
>  <minimizedAffinity>
-7.08268738

>  <minimizedRMSD>
1.35407603

$$$$
