
 OpenBabel03242517473D

 46 50  0  0  0  0  0  0  0  0999 V2000
   38.4540   31.7210   41.2250 C   0  0  0  0  0  0  0  0  0  0  0  0
   39.8270   31.5610   40.9420 C   0  0  0  0  0  0  0  0  0  0  0  0
   40.2700   30.3160   40.5580 C   0  0  0  0  0  0  0  0  0  0  0  0
   39.3760   29.3070   40.4690 N   0  0  0  0  0  0  0  0  0  0  0  0
   38.0680   29.4820   40.7450 C   0  0  0  0  0  0  0  0  0  0  0  0
   37.5790   30.6570   41.1200 N   0  0  0  0  0  0  0  0  0  0  0  0
   38.1220   32.7080   41.5270 H   0  0  0  0  0  0  0  0  0  0  0  0
   41.3330   30.1720   40.3330 H   0  0  0  0  0  0  0  0  0  0  0  0
   37.1440   28.3340   40.6270 C   0  0  0  0  0  0  0  0  0  0  0  0
   36.5910   28.1590   41.5500 H   0  0  0  0  0  0  0  0  0  0  0  0
   37.7200   27.3940   40.4120 H   0  0  0  0  0  0  0  0  0  0  0  0
   36.2090   28.4700   39.4210 C   0  0  0  0  0  0  0  0  0  0  0  0
   35.7510   29.4700   39.3820 H   0  0  0  0  0  0  0  0  0  0  0  0
   36.7010   28.1780   38.4940 H   0  0  0  0  0  0  0  0  0  0  0  0
   35.1410   27.4940   39.6930 N   0  0  0  0  0  0  0  0  0  0  0  0
   35.3540   26.1730   39.9600 C   0  0  0  0  0  0  0  0  0  0  0  0
   36.3150   25.6780   40.0080 H   0  0  0  0  0  0  0  0  0  0  0  0
   34.1780   25.5410   40.1650 N   0  0  0  0  0  0  0  0  0  0  0  0
   33.1990   26.4660   40.0270 C   0  0  0  0  0  0  0  0  0  0  0  0
   31.8230   26.4370   40.1150 C   0  0  0  0  0  0  0  0  0  0  0  0
   31.3100   25.5050   40.3440 H   0  0  0  0  0  0  0  0  0  0  0  0
   31.1000   27.5780   39.9160 N   0  0  0  0  0  0  0  0  0  0  0  0
   31.7560   28.7400   39.6300 C   0  0  0  0  0  0  0  0  0  0  0  0
   31.0580   29.5540   39.4980 H   0  0  0  0  0  0  0  0  0  0  0  0
   33.0820   28.7720   39.5440 N   0  0  0  0  0  0  0  0  0  0  0  0
   33.8020   27.6710   39.7350 C   0  0  0  0  0  0  0  0  0  0  0  0
   40.9290   32.9420   41.0840 S   0  0  0  0  0  0  0  0  0  0  0  0
   40.8080   33.9740   39.6460 C   0  0  0  0  0  0  0  0  0  0  0  0
   39.7130   33.9880   38.7940 C   0  0  0  0  0  0  0  0  0  0  0  0
   39.6920   34.8220   37.6900 C   0  0  0  0  0  0  0  0  0  0  0  0
   40.7500   35.6520   37.4140 C   0  0  0  0  0  0  0  0  0  0  0  0
   41.8300   35.6370   38.2560 C   0  0  0  0  0  0  0  0  0  0  0  0
   41.8830   34.8150   39.3680 C   0  0  0  0  0  0  0  0  0  0  0  0
   38.8930   33.3170   39.0430 H   0  0  0  0  0  0  0  0  0  0  0  0
   38.7840   34.7390   37.1070 H   0  0  0  0  0  0  0  0  0  0  0  0
   40.6640   36.2760   36.5350 H   0  0  0  0  0  0  0  0  0  0  0  0
   42.6470   36.3030   38.0110 H   0  0  0  0  0  0  0  0  0  0  0  0
   43.0350   34.8130   40.2490 C   0  0  0  0  0  0  0  0  0  0  0  0
   44.1410   34.0430   40.0800 C   0  0  0  0  0  0  0  0  0  0  0  0
   45.2400   34.0640   40.9490 C   0  0  0  0  0  0  0  0  0  0  0  0
   45.2030   34.8850   42.0090 N   0  0  0  0  0  0  0  0  0  0  0  0
   44.1110   35.6500   42.1820 C   0  0  0  0  0  0  0  0  0  0  0  0
   43.0540   35.6230   41.3360 N   0  0  0  0  0  0  0  0  0  0  0  0
   44.1870   33.3780   39.2330 H   0  0  0  0  0  0  0  0  0  0  0  0
   46.0770   33.4040   40.7170 H   0  0  0  0  0  0  0  0  0  0  0  0
   43.9730   36.3470   43.0000 H   0  0  0  0  0  0  0  0  0  0  0  0
  1  7  1  0  0  0  0
  2 27  1  0  0  0  0
  2  1  2  0  0  0  0
  3  2  1  0  0  0  0
  4  3  2  0  0  0  0
  4  5  1  0  0  0  0
  5  6  2  0  0  0  0
  6  1  1  0  0  0  0
  8  3  1  0  0  0  0
  9  5  1  0  0  0  0
  9 10  1  0  0  0  0
 11  9  1  0  0  0  0
 12 15  1  0  0  0  0
 12  9  1  0  0  0  0
 13 12  1  0  0  0  0
 14 12  1  0  0  0  0
 15 26  1  0  0  0  0
 15 16  1  0  0  0  0
 16 17  1  0  0  0  0
 16 18  2  0  0  0  0
 19 20  1  0  0  0  0
 19 18  1  0  0  0  0
 20 21  1  0  0  0  0
 22 20  2  0  0  0  0
 23 22  1  0  0  0  0
 24 23  1  0  0  0  0
 25 23  2  0  0  0  0
 25 26  1  0  0  0  0
 26 19  2  0  0  0  0
 28 27  1  0  0  0  0
 29 34  1  0  0  0  0
 29 28  2  0  0  0  0
 30 29  1  0  0  0  0
 31 30  2  0  0  0  0
 31 32  1  0  0  0  0
 32 33  2  0  0  0  0
 33 28  1  0  0  0  0
 33 38  1  0  0  0  0
 35 30  1  0  0  0  0
 36 31  1  0  0  0  0
 37 32  1  0  0  0  0
 38 43  1  0  0  0  0
 39 38  2  0  0  0  0
 39 40  1  0  0  0  0
 40 41  2  0  0  0  0
 41 42  1  0  0  0  0
 42 46  1  0  0  0  0
 43 42  2  0  0  0  0
 44 39  1  0  0  0  0
 45 40  1  0  0  0  0
M  END
>  <minimizedAffinity>
-5.8723073

>  <minimizedRMSD>
0.512263238

$$$$
