
 OpenBabel03252507553D

 47 51  0  0  1  0  0  0  0  0999 V2000
   49.0520   32.1940   40.5450 C   0  0  2  0  0  0  0  0  0  0  0  0
   49.8200   31.6480   41.6600 C   0  0  0  0  0  0  0  0  0  0  0  0
   50.4650   31.8730   40.3360 C   0  0  1  0  0  0  0  0  0  0  0  0
   48.3170   31.5410   40.0470 H   0  0  0  0  0  0  0  0  0  0  0  0
   49.6100   30.5890   41.9900 H   0  0  0  0  0  0  0  0  0  0  0  0
   50.0490   32.2920   42.5290 H   0  0  0  0  0  0  0  0  0  0  0  0
   51.1850   32.7030   40.2050 H   0  0  0  0  0  0  0  0  0  0  0  0
   47.0080   34.8090   41.9500 C   0  0  2  0  0  0  0  0  0  0  0  0
   46.2410   34.1980   40.7750 C   0  0  0  0  0  0  0  0  0  0  0  0
   47.4420   34.0100   39.8220 C   0  0  0  0  0  0  0  0  0  0  0  0
   48.5800   33.6210   40.7110 C   0  0  1  0  0  0  0  0  0  0  0  0
   48.0720   33.7580   42.1160 C   0  0  0  0  0  0  0  0  0  0  0  0
   47.3810   35.7800   41.5970 H   0  0  0  0  0  0  0  0  0  0  0  0
   45.8700   33.2020   41.0290 H   0  0  0  0  0  0  0  0  0  0  0  0
   45.5080   34.8980   40.3550 H   0  0  0  0  0  0  0  0  0  0  0  0
   47.6430   35.0450   39.4310 H   0  0  0  0  0  0  0  0  0  0  0  0
   47.2010   33.3070   39.0260 H   0  0  0  0  0  0  0  0  0  0  0  0
   49.4620   34.2800   40.5950 H   0  0  0  0  0  0  0  0  0  0  0  0
   48.8370   34.1340   42.8270 H   0  0  0  0  0  0  0  0  0  0  0  0
   47.5950   32.8310   42.4430 H   0  0  0  0  0  0  0  0  0  0  0  0
   44.5280   36.0230   44.5100 C   0  0  0  0  0  0  0  0  0  0  0  0
   45.2510   35.9900   43.3100 C   0  0  0  0  0  0  0  0  0  0  0  0
   46.1560   34.9480   43.1590 C   0  0  0  0  0  0  0  0  0  0  0  0
   46.3230   33.9890   44.1670 N   0  0  0  0  0  0  0  0  0  0  0  0
   45.5920   34.0790   45.3080 C   0  0  0  0  0  0  0  0  0  0  0  0
   44.7010   35.0960   45.4670 N   0  0  0  0  0  0  0  0  0  0  0  0
   43.8170   36.8260   44.6500 H   0  0  0  0  0  0  0  0  0  0  0  0
   45.1480   36.7110   42.5120 H   0  0  0  0  0  0  0  0  0  0  0  0
   45.8030   33.2880   46.0150 H   0  0  0  0  0  0  0  0  0  0  0  0
   50.7610   30.7320   39.5510 O   0  0  0  0  0  0  0  0  0  0  0  0
   52.3310   29.9710   37.6190 O   0  0  0  0  0  0  0  0  0  0  0  0
   52.1470   31.0530   38.6570 P   0  0  1  0  0  0  0  0  0  0  0  0
   51.9630   32.5370   37.8150 O   0  0  0  0  0  0  0  0  0  0  0  0
   52.3300   33.2980   38.3280 H   0  0  0  0  0  0  0  0  0  0  0  0
   53.5400   31.1710   39.5480 O   0  0  0  0  0  0  0  0  0  0  0  0
   52.3570   30.7800   42.0260 H   0  0  0  0  0  0  0  0  0  0  0  0
   53.2060   30.2390   41.7640 N   0  0  0  0  0  0  0  0  0  0  0  0
   53.8790   30.3220   40.6100 C   0  0  0  0  0  0  0  0  0  0  0  0
   54.9270   29.4630   40.6370 N   0  0  0  0  0  0  0  0  0  0  0  0
   54.9500   28.8110   41.8050 C   0  0  0  0  0  0  0  0  0  0  0  0
   55.7020   27.8500   42.4610 C   0  0  0  0  0  0  0  0  0  0  0  0
   56.5450   27.4600   41.9250 H   0  0  0  0  0  0  0  0  0  0  0  0
   55.3880   27.4290   43.7020 N   0  0  0  0  0  0  0  0  0  0  0  0
   54.3230   27.9380   44.3460 C   0  0  0  0  0  0  0  0  0  0  0  0
   54.0880   27.5790   45.3560 H   0  0  0  0  0  0  0  0  0  0  0  0
   53.5680   28.8770   43.7350 N   0  0  0  0  0  0  0  0  0  0  0  0
   53.8510   29.3220   42.4960 C   0  0  0  0  0  0  0  0  0  0  0  0
  1  4  1  6  0  0  0
  1 11  1  0  0  0  0
  1  2  1  0  0  0  0
  2  5  1  0  0  0  0
  2  6  1  0  0  0  0
  3  7  1  6  0  0  0
  3  1  1  0  0  0  0
  3  2  1  0  0  0  0
  8 13  1  6  0  0  0
  8 12  1  0  0  0  0
  8 23  1  0  0  0  0
  9 14  1  0  0  0  0
  9  8  1  0  0  0  0
 10 11  1  0  0  0  0
 10  9  1  0  0  0  0
 11 18  1  6  0  0  0
 11 12  1  0  0  0  0
 12 20  1  0  0  0  0
 12 19  1  0  0  0  0
 15  9  1  0  0  0  0
 16 10  1  0  0  0  0
 17 10  1  0  0  0  0
 21 27  1  0  0  0  0
 21 26  1  0  0  0  0
 22 21  2  0  0  0  0
 23 22  1  0  0  0  0
 23 24  2  0  0  0  0
 24 25  1  0  0  0  0
 25 26  2  0  0  0  0
 25 29  1  0  0  0  0
 28 22  1  0  0  0  0
 30  3  1  0  0  0  0
 32 31  2  6  0  0  0
 32 35  1  0  0  0  0
 32 30  1  0  0  0  0
 33 34  1  0  0  0  0
 33 32  1  0  0  0  0
 35 38  1  0  0  0  0
 37 36  1  0  0  0  0
 37 47  1  0  0  0  0
 38 39  2  0  0  0  0
 38 37  1  0  0  0  0
 39 40  1  0  0  0  0
 40 41  2  0  0  0  0
 40 47  1  0  0  0  0
 41 43  1  0  0  0  0
 42 41  1  0  0  0  0
 43 44  2  0  0  0  0
 44 45  1  0  0  0  0
 46 44  1  0  0  0  0
 47 46  2  0  0  0  0
M  END
>  <minimizedAffinity>
-5.4695797

>  <minimizedRMSD>
1.4345932

$$$$
