
 OpenBabel03252505033D

 37 40  0  0  1  0  0  0  0  0999 V2000
   44.7810   35.3550   44.3370 C   0  0  0  0  0  0  0  0  0  0  0  0
   45.4900   35.2010   43.1320 C   0  0  0  0  0  0  0  0  0  0  0  0
   46.5350   34.2460   43.1260 C   0  0  0  0  0  0  0  0  0  0  0  0
   46.7860   33.5480   44.2630 N   0  0  0  0  0  0  0  0  0  0  0  0
   46.0820   33.7320   45.3850 C   0  0  0  0  0  0  0  0  0  0  0  0
   45.0620   34.6470   45.4340 N   0  0  0  0  0  0  0  0  0  0  0  0
   43.9860   36.0980   44.3080 H   0  0  0  0  0  0  0  0  0  0  0  0
   45.2930   35.7510   42.2340 H   0  0  0  0  0  0  0  0  0  0  0  0
   46.4260   32.9320   46.5870 C   0  0  2  0  0  0  0  0  0  0  0  0
   46.9810   31.6410   46.0770 C   0  0  0  0  0  0  0  0  0  0  0  0
   46.0970   30.4660   46.1900 C   0  0  0  0  0  0  0  0  0  0  0  0
   45.7000   30.3730   47.6490 C   0  0  0  0  0  0  0  0  0  0  0  0
   44.8810   31.5160   48.0770 C   0  0  0  0  0  0  0  0  0  0  0  0
   45.2940   32.8390   47.4960 C   0  0  0  0  0  0  0  0  0  0  0  0
   47.2280   33.5230   47.0950 H   0  0  0  0  0  0  0  0  0  0  0  0
   47.3230   31.7060   45.0190 H   0  0  0  0  0  0  0  0  0  0  0  0
   47.9310   31.4380   46.6450 H   0  0  0  0  0  0  0  0  0  0  0  0
   45.2470   30.5040   45.5040 H   0  0  0  0  0  0  0  0  0  0  0  0
   46.6860   29.5580   45.9710 H   0  0  0  0  0  0  0  0  0  0  0  0
   46.5700   30.1450   48.2580 H   0  0  0  0  0  0  0  0  0  0  0  0
   45.0030   29.5030   47.6930 H   0  0  0  0  0  0  0  0  0  0  0  0
   44.0500   31.6730   48.7020 H   0  0  0  0  0  0  0  0  0  0  0  0
   44.5810   34.0230   47.8290 N   0  0  0  0  0  0  0  0  0  0  0  0
   44.9250   34.7500   48.4950 H   0  0  0  0  0  0  0  0  0  0  0  0
   43.6660   34.0890   47.3290 H   0  0  0  0  0  0  0  0  0  0  0  0
   47.3290   33.9880   41.9800 N   0  0  0  0  0  0  0  0  0  0  0  0
   47.4250   34.5190   40.7390 C   0  0  0  0  0  0  0  0  0  0  0  0
   46.7700   35.3440   40.4820 H   0  0  0  0  0  0  0  0  0  0  0  0
   48.3690   33.8780   40.0330 N   0  0  0  0  0  0  0  0  0  0  0  0
   48.9000   32.9160   40.8180 C   0  0  0  0  0  0  0  0  0  0  0  0
   49.8910   32.0230   40.5130 C   0  0  0  0  0  0  0  0  0  0  0  0
   50.3920   31.9690   39.5770 H   0  0  0  0  0  0  0  0  0  0  0  0
   50.2620   31.1430   41.4690 N   0  0  0  0  0  0  0  0  0  0  0  0
   49.6370   31.1900   42.6740 C   0  0  0  0  0  0  0  0  0  0  0  0
   49.8460   30.5390   43.5190 H   0  0  0  0  0  0  0  0  0  0  0  0
   48.6670   32.0890   42.9250 N   0  0  0  0  0  0  0  0  0  0  0  0
   48.2440   32.9920   42.0360 C   0  0  0  0  0  0  0  0  0  0  0  0
  1  6  1  0  0  0  0
  2  1  2  0  0  0  0
  3  2  1  0  0  0  0
  3  4  2  0  0  0  0
  4  5  1  0  0  0  0
  5  6  2  0  0  0  0
  5  9  1  0  0  0  0
  7  1  1  0  0  0  0
  8  2  1  0  0  0  0
  9 15  1  1  0  0  0
  9 14  1  0  0  0  0
 10 11  1  0  0  0  0
 10  9  1  0  0  0  0
 10 17  1  0  0  0  0
 11 12  1  0  0  0  0
 12 21  1  0  0  0  0
 12 13  1  0  0  0  0
 12 20  1  0  0  0  0
 13 22  1  0  0  0  0
 14 23  1  0  0  0  0
 14 13  2  0  0  0  0
 16 10  1  0  0  0  0
 18 11  1  0  0  0  0
 19 11  1  0  0  0  0
 23 24  1  0  0  0  0
 25 23  1  0  0  0  0
 26 37  1  0  0  0  0
 26  3  1  0  0  0  0
 27 26  1  0  0  0  0
 28 27  1  0  0  0  0
 29 27  2  0  0  0  0
 29 30  1  0  0  0  0
 30 37  1  0  0  0  0
 31 30  2  0  0  0  0
 31 33  1  0  0  0  0
 32 31  1  0  0  0  0
 33 34  2  0  0  0  0
 34 36  1  0  0  0  0
 34 35  1  0  0  0  0
 37 36  2  0  0  0  0
M  END
>  <minimizedAffinity>
-6.40010357

>  <minimizedRMSD>
0.551437855

$$$$
