
 OpenBabel03242520193D

 38 41  0  0  0  0  0  0  0  0999 V2000
   41.5500   35.7820   38.9120 C   0  0  0  0  0  0  0  0  0  0  0  0
   41.8540   36.8470   38.7510 H   0  0  0  0  0  0  0  0  0  0  0  0
   41.3060   35.2520   37.9680 H   0  0  0  0  0  0  0  0  0  0  0  0
   44.1740   34.5830   41.3540 C   0  0  0  0  0  0  0  0  0  0  0  0
   43.1270   35.3400   40.7920 C   0  0  0  0  0  0  0  0  0  0  0  0
   42.6550   35.0120   39.5330 C   0  0  0  0  0  0  0  0  0  0  0  0
   43.2540   33.9470   38.9030 N   0  0  0  0  0  0  0  0  0  0  0  0
   44.2610   33.2470   39.4870 C   0  0  0  0  0  0  0  0  0  0  0  0
   44.7150   33.5610   40.6980 N   0  0  0  0  0  0  0  0  0  0  0  0
   42.7220   36.1600   41.3670 H   0  0  0  0  0  0  0  0  0  0  0  0
   44.7310   32.4140   38.9960 H   0  0  0  0  0  0  0  0  0  0  0  0
   44.6710   34.9550   42.7050 C   0  0  0  0  0  0  0  0  0  0  0  0
   46.1820   35.3550   42.6880 C   0  0  0  0  0  0  0  0  0  0  0  0
   45.0920   36.2560   43.0790 C   0  0  0  0  0  0  0  0  0  0  0  0
   44.4040   34.1960   43.4650 H   0  0  0  0  0  0  0  0  0  0  0  0
   46.7890   34.7970   43.4290 H   0  0  0  0  0  0  0  0  0  0  0  0
   46.6790   35.4130   41.7080 H   0  0  0  0  0  0  0  0  0  0  0  0
   44.9850   36.6080   44.1260 H   0  0  0  0  0  0  0  0  0  0  0  0
   44.9090   37.1060   42.3590 H   0  0  0  0  0  0  0  0  0  0  0  0
   40.3140   35.7360   39.7820 C   0  0  0  0  0  0  0  0  0  0  0  0
   40.5590   36.1820   40.7550 H   0  0  0  0  0  0  0  0  0  0  0  0
   39.5490   36.4310   39.3340 H   0  0  0  0  0  0  0  0  0  0  0  0
   39.7180   33.8270   41.2020 C   0  0  0  0  0  0  0  0  0  0  0  0
   40.0640   34.3860   42.2810 O   0  0  0  0  0  0  0  0  0  0  0  0
   39.7620   34.4040   39.8900 N   0  0  0  0  0  0  0  0  0  0  0  0
   39.4230   33.9050   39.0650 H   0  0  0  0  0  0  0  0  0  0  0  0
   37.1970   32.6170   40.7020 H   0  0  0  0  0  0  0  0  0  0  0  0
   37.9560   31.9760   41.0040 N   0  0  0  0  0  0  0  0  0  0  0  0
   39.2110   32.4370   41.2730 C   0  0  0  0  0  0  0  0  0  0  0  0
   39.9260   31.3410   41.6320 N   0  0  0  0  0  0  0  0  0  0  0  0
   39.1600   30.2360   41.5910 C   0  0  0  0  0  0  0  0  0  0  0  0
   39.3510   28.8930   41.8450 C   0  0  0  0  0  0  0  0  0  0  0  0
   40.3410   28.5990   42.1580 H   0  0  0  0  0  0  0  0  0  0  0  0
   38.3780   27.9780   41.7200 N   0  0  0  0  0  0  0  0  0  0  0  0
   37.1580   28.4170   41.3240 C   0  0  0  0  0  0  0  0  0  0  0  0
   36.2860   27.7710   41.1860 H   0  0  0  0  0  0  0  0  0  0  0  0
   36.9310   29.7310   41.0650 N   0  0  0  0  0  0  0  0  0  0  0  0
   37.9130   30.6500   41.1920 C   0  0  0  0  0  0  0  0  0  0  0  0
  1  6  1  0  0  0  0
  1 20  1  0  0  0  0
  2  1  1  0  0  0  0
  3  1  1  0  0  0  0
  4 12  1  0  0  0  0
  5  4  1  0  0  0  0
  5 10  1  0  0  0  0
  6  5  2  0  0  0  0
  7  8  2  0  0  0  0
  7  6  1  0  0  0  0
  8  9  1  0  0  0  0
  9  4  2  0  0  0  0
 11  8  1  0  0  0  0
 12 14  1  0  0  0  0
 12 15  1  0  0  0  0
 13 12  1  0  0  0  0
 13 14  1  0  0  0  0
 13 16  1  0  0  0  0
 14 18  1  0  0  0  0
 17 13  1  0  0  0  0
 19 14  1  0  0  0  0
 20 25  1  0  0  0  0
 20 21  1  0  0  0  0
 22 20  1  0  0  0  0
 23 29  1  0  0  0  0
 23 24  2  0  0  0  0
 25 23  1  0  0  0  0
 26 25  1  0  0  0  0
 27 28  1  0  0  0  0
 28 38  1  0  0  0  0
 28 29  1  0  0  0  0
 29 30  2  0  0  0  0
 31 30  1  0  0  0  0
 31 32  1  0  0  0  0
 32 33  1  0  0  0  0
 34 32  2  0  0  0  0
 35 34  1  0  0  0  0
 36 35  1  0  0  0  0
 37 38  1  0  0  0  0
 37 35  2  0  0  0  0
 38 31  2  0  0  0  0
M  END
>  <minimizedAffinity>
-5.48625803

>  <minimizedRMSD>
1.69327569

$$$$
