
 OpenBabel03252505003D

 40 43  0  0  1  0  0  0  0  0999 V2000
   36.7670   27.9910   39.0980 N   0  0  0  0  0  0  0  0  0  0  0  0
   37.4630   27.6710   37.9120 C   0  0  0  0  0  0  0  0  0  0  0  0
   36.9190   28.6480   36.9420 C   0  0  0  0  0  0  0  0  0  0  0  0
   35.9310   29.5500   37.6710 C   0  0  0  0  0  0  0  0  0  0  0  0
   36.3380   29.3290   39.1330 C   0  0  2  0  0  0  0  0  0  0  0  0
   38.1930   27.0030   37.5390 H   0  0  0  0  0  0  0  0  0  0  0  0
   37.1410   28.8010   35.8890 H   0  0  0  0  0  0  0  0  0  0  0  0
   34.9080   29.2330   37.4750 H   0  0  0  0  0  0  0  0  0  0  0  0
   36.1790   30.5810   37.3490 H   0  0  0  0  0  0  0  0  0  0  0  0
   35.5320   29.5160   39.8370 H   0  0  0  0  0  0  0  0  0  0  0  0
   36.5480   27.0190   40.0440 C   0  0  0  0  0  0  0  0  0  0  0  0
   36.8370   26.0370   39.5910 H   0  0  0  0  0  0  0  0  0  0  0  0
   35.4770   26.8420   40.2960 H   0  0  0  0  0  0  0  0  0  0  0  0
   37.3620   27.6940   43.6790 C   0  0  0  0  0  0  0  0  0  0  0  0
   36.5750   27.5550   42.4960 C   0  0  0  0  0  0  0  0  0  0  0  0
   37.2250   27.2180   41.3080 C   0  0  0  0  0  0  0  0  0  0  0  0
   38.5650   27.0460   41.3590 N   0  0  0  0  0  0  0  0  0  0  0  0
   39.3100   27.1850   42.5110 C   0  0  0  0  0  0  0  0  0  0  0  0
   38.7080   27.5050   43.6560 N   0  0  0  0  0  0  0  0  0  0  0  0
   36.8120   27.9580   44.5830 H   0  0  0  0  0  0  0  0  0  0  0  0
   35.5260   27.6970   42.4870 H   0  0  0  0  0  0  0  0  0  0  0  0
   40.3830   27.0300   42.4720 H   0  0  0  0  0  0  0  0  0  0  0  0
   37.4860   30.1080   39.3370 O   0  0  0  0  0  0  0  0  0  0  0  0
   38.2440   30.5390   41.8450 O   0  0  0  0  0  0  0  0  0  0  0  0
   37.4360   31.0670   40.6860 P   0  0  2  0  0  0  0  0  0  0  0  0
   35.8250   31.1640   41.2120 O   0  0  0  0  0  0  0  0  0  0  0  0
   35.6740   32.0370   41.6680 H   0  0  0  0  0  0  0  0  0  0  0  0
   37.9020   32.6770   40.3200 O   0  0  0  0  0  0  0  0  0  0  0  0
   39.0450   32.6780   37.7090 H   0  0  0  0  0  0  0  0  0  0  0  0
   39.6100   32.9510   38.5260 N   0  0  0  0  0  0  0  0  0  0  0  0
   39.1570   32.9840   39.8090 C   0  0  0  0  0  0  0  0  0  0  0  0
   40.1890   33.3920   40.5980 N   0  0  0  0  0  0  0  0  0  0  0  0
   41.2750   33.6120   39.8060 C   0  0  0  0  0  0  0  0  0  0  0  0
   42.5730   34.0260   40.0280 C   0  0  0  0  0  0  0  0  0  0  0  0
   42.8670   34.2470   41.0610 H   0  0  0  0  0  0  0  0  0  0  0  0
   43.4630   34.1610   39.0340 N   0  0  0  0  0  0  0  0  0  0  0  0
   43.1000   33.8890   37.7670 C   0  0  0  0  0  0  0  0  0  0  0  0
   43.7600   33.9710   36.8900 H   0  0  0  0  0  0  0  0  0  0  0  0
   41.8230   33.4780   37.5210 N   0  0  0  0  0  0  0  0  0  0  0  0
   40.9180   33.3370   38.5060 C   0  0  0  0  0  0  0  0  0  0  0  0
  1  5  1  0  0  0  0
  1 11  1  0  0  0  0
  2  1  1  0  0  0  0
  3  4  1  0  0  0  0
  3  2  2  0  0  0  0
  4  5  1  0  0  0  0
  5 23  1  0  0  0  0
  5 10  1  1  0  0  0
  6  2  1  0  0  0  0
  7  3  1  0  0  0  0
  8  4  1  0  0  0  0
  9  4  1  0  0  0  0
 11 13  1  0  0  0  0
 11 16  1  0  0  0  0
 12 11  1  0  0  0  0
 14 20  1  0  0  0  0
 15 14  2  0  0  0  0
 16 17  2  0  0  0  0
 16 15  1  0  0  0  0
 17 18  1  0  0  0  0
 18 19  2  0  0  0  0
 19 14  1  0  0  0  0
 21 15  1  0  0  0  0
 22 18  1  0  0  0  0
 23 25  1  0  0  0  0
 25 26  1  0  0  0  0
 25 24  2  1  0  0  0
 26 27  1  0  0  0  0
 28 25  1  0  0  0  0
 29 30  1  0  0  0  0
 30 31  1  0  0  0  0
 31 28  1  0  0  0  0
 31 32  2  0  0  0  0
 33 34  1  0  0  0  0
 33 32  1  0  0  0  0
 34 35  1  0  0  0  0
 36 34  2  0  0  0  0
 37 36  1  0  0  0  0
 38 37  1  0  0  0  0
 39 37  2  0  0  0  0
 39 40  1  0  0  0  0
 40 30  1  0  0  0  0
 40 33  2  0  0  0  0
M  END
>  <minimizedAffinity>
-5.80340052

$$$$

 OpenBabel03252505003D

 40 43  0  0  1  0  0  0  0  0999 V2000
   39.1800   32.9240   40.3260 N   0  0  0  0  0  0  0  0  0  0  0  0
   38.5020   34.1550   40.4620 C   0  0  0  0  0  0  0  0  0  0  0  0
   37.3360   33.9850   39.5650 C   0  0  0  0  0  0  0  0  0  0  0  0
   37.3860   32.5810   38.9740 C   0  0  0  0  0  0  0  0  0  0  0  0
   38.3270   31.8710   39.9540 C   0  0  2  0  0  0  0  0  0  0  0  0
   38.5670   35.0810   40.9670 H   0  0  0  0  0  0  0  0  0  0  0  0
   36.5190   34.6610   39.3270 H   0  0  0  0  0  0  0  0  0  0  0  0
   37.7860   32.6060   37.9620 H   0  0  0  0  0  0  0  0  0  0  0  0
   36.3550   32.1840   39.0670 H   0  0  0  0  0  0  0  0  0  0  0  0
   38.8420   31.0190   39.5160 H   0  0  0  0  0  0  0  0  0  0  0  0
   40.5390   32.8690   40.5200 C   0  0  0  0  0  0  0  0  0  0  0  0
   40.7350   32.1080   41.3160 H   0  0  0  0  0  0  0  0  0  0  0  0
   40.9870   33.7850   40.9710 H   0  0  0  0  0  0  0  0  0  0  0  0
   42.5290   31.1720   37.7820 C   0  0  0  0  0  0  0  0  0  0  0  0
   41.7870   31.3150   38.9940 C   0  0  0  0  0  0  0  0  0  0  0  0
   41.3250   32.5860   39.3380 C   0  0  0  0  0  0  0  0  0  0  0  0
   41.6150   33.6030   38.4940 N   0  0  0  0  0  0  0  0  0  0  0  0
   42.3340   33.4470   37.3280 C   0  0  0  0  0  0  0  0  0  0  0  0
   42.7830   32.2410   36.9810 N   0  0  0  0  0  0  0  0  0  0  0  0
   42.8700   30.1610   37.5540 H   0  0  0  0  0  0  0  0  0  0  0  0
   41.5760   30.4990   39.6350 H   0  0  0  0  0  0  0  0  0  0  0  0
   42.5260   34.3120   36.7020 H   0  0  0  0  0  0  0  0  0  0  0  0
   37.5540   31.5690   41.0840 O   0  0  0  0  0  0  0  0  0  0  0  0
   37.3380   29.1890   39.9270 O   0  0  0  0  0  0  0  0  0  0  0  0
   36.8880   30.0530   41.0790 P   0  0  2  0  0  0  0  0  0  0  0  0
   35.2030   30.2110   40.9480 O   0  0  0  0  0  0  0  0  0  0  0  0
   34.7590   29.4410   41.3980 H   0  0  0  0  0  0  0  0  0  0  0  0
   37.1640   29.2490   42.5690 O   0  0  0  0  0  0  0  0  0  0  0  0
   39.9100   29.5010   43.2880 H   0  0  0  0  0  0  0  0  0  0  0  0
   39.5060   28.5750   43.0890 N   0  0  0  0  0  0  0  0  0  0  0  0
   38.2100   28.3500   42.7400 C   0  0  0  0  0  0  0  0  0  0  0  0
   38.0580   27.0090   42.5630 N   0  0  0  0  0  0  0  0  0  0  0  0
   39.2570   26.4060   42.8020 C   0  0  0  0  0  0  0  0  0  0  0  0
   39.7110   25.1030   42.7810 C   0  0  0  0  0  0  0  0  0  0  0  0
   38.9920   24.3170   42.5190 H   0  0  0  0  0  0  0  0  0  0  0  0
   40.9810   24.7810   43.0680 N   0  0  0  0  0  0  0  0  0  0  0  0
   41.8610   25.7470   43.3900 C   0  0  0  0  0  0  0  0  0  0  0  0
   42.9200   25.5780   43.6400 H   0  0  0  0  0  0  0  0  0  0  0  0
   41.4380   27.0430   43.4180 N   0  0  0  0  0  0  0  0  0  0  0  0
   40.1680   27.3830   43.1330 C   0  0  0  0  0  0  0  0  0  0  0  0
  1  2  1  0  0  0  0
  1 11  1  0  0  0  0
  2  6  1  0  0  0  0
  3  2  2  0  0  0  0
  4  9  1  0  0  0  0
  4  3  1  0  0  0  0
  4  5  1  0  0  0  0
  5 10  1  6  0  0  0
  5  1  1  0  0  0  0
  5 23  1  0  0  0  0
  7  3  1  0  0  0  0
  8  4  1  0  0  0  0
 11 13  1  0  0  0  0
 11 12  1  0  0  0  0
 14 15  1  0  0  0  0
 15 16  2  0  0  0  0
 15 21  1  0  0  0  0
 16 11  1  0  0  0  0
 17 16  1  0  0  0  0
 18 17  2  0  0  0  0
 19 18  1  0  0  0  0
 19 14  2  0  0  0  0
 20 14  1  0  0  0  0
 22 18  1  0  0  0  0
 25 24  2  6  0  0  0
 25 23  1  0  0  0  0
 25 28  1  0  0  0  0
 26 25  1  0  0  0  0
 26 27  1  0  0  0  0
 28 31  1  0  0  0  0
 30 40  1  0  0  0  0
 30 29  1  0  0  0  0
 31 30  1  0  0  0  0
 32 31  2  0  0  0  0
 32 33  1  0  0  0  0
 33 40  1  0  0  0  0
 34 33  2  0  0  0  0
 34 36  1  0  0  0  0
 35 34  1  0  0  0  0
 36 37  2  0  0  0  0
 37 39  1  0  0  0  0
 37 38  1  0  0  0  0
 40 39  2  0  0  0  0
M  END
>  <minimizedAffinity>
-5.56351995

$$$$

 OpenBabel03252505003D

 40 43  0  0  1  0  0  0  0  0999 V2000
   37.2010   28.3660   38.6470 N   0  0  0  0  0  0  0  0  0  0  0  0
   36.6990   27.4800   37.6690 C   0  0  0  0  0  0  0  0  0  0  0  0
   35.3300   27.9950   37.4360 C   0  0  0  0  0  0  0  0  0  0  0  0
   35.1310   29.2370   38.2960 C   0  0  0  0  0  0  0  0  0  0  0  0
   36.5810   29.6270   38.6080 C   0  0  2  0  0  0  0  0  0  0  0  0
   36.9790   26.6330   37.1020 H   0  0  0  0  0  0  0  0  0  0  0  0
   34.5460   27.6460   36.7700 H   0  0  0  0  0  0  0  0  0  0  0  0
   34.5670   28.9930   39.1940 H   0  0  0  0  0  0  0  0  0  0  0  0
   34.6610   29.9860   37.6280 H   0  0  0  0  0  0  0  0  0  0  0  0
   36.6850   30.1980   39.5270 H   0  0  0  0  0  0  0  0  0  0  0  0
   38.1680   27.9370   39.5240 C   0  0  0  0  0  0  0  0  0  0  0  0
   39.1150   28.4780   39.2720 H   0  0  0  0  0  0  0  0  0  0  0  0
   38.4780   26.8740   39.3980 H   0  0  0  0  0  0  0  0  0  0  0  0
   36.7100   27.5540   42.9960 C   0  0  0  0  0  0  0  0  0  0  0  0
   36.9080   27.3140   41.6030 C   0  0  0  0  0  0  0  0  0  0  0  0
   37.8480   28.0930   40.9270 C   0  0  0  0  0  0  0  0  0  0  0  0
   38.5100   29.0300   41.6420 N   0  0  0  0  0  0  0  0  0  0  0  0
   38.3050   29.2500   42.9880 C   0  0  0  0  0  0  0  0  0  0  0  0
   37.4130   28.5150   43.6530 N   0  0  0  0  0  0  0  0  0  0  0  0
   35.9670   26.9220   43.4840 H   0  0  0  0  0  0  0  0  0  0  0  0
   36.3730   26.5720   41.0690 H   0  0  0  0  0  0  0  0  0  0  0  0
   38.8760   30.0210   43.4930 H   0  0  0  0  0  0  0  0  0  0  0  0
   37.0650   30.2710   37.4610 O   0  0  0  0  0  0  0  0  0  0  0  0
   37.3740   32.6790   38.5370 O   0  0  0  0  0  0  0  0  0  0  0  0
   38.0450   31.5720   37.7630 P   0  0  2  0  0  0  0  0  0  0  0  0
   38.5280   32.2320   36.2760 O   0  0  0  0  0  0  0  0  0  0  0  0
   39.4230   32.6580   36.3740 H   0  0  0  0  0  0  0  0  0  0  0  0
   39.4920   31.0890   38.5490 O   0  0  0  0  0  0  0  0  0  0  0  0
   40.4460   29.5180   36.3710 H   0  0  0  0  0  0  0  0  0  0  0  0
   41.0630   30.2030   36.8300 N   0  0  0  0  0  0  0  0  0  0  0  0
   40.7020   30.9980   37.8740 C   0  0  0  0  0  0  0  0  0  0  0  0
   41.7810   31.7620   38.2000 N   0  0  0  0  0  0  0  0  0  0  0  0
   42.8050   31.4400   37.3610 C   0  0  0  0  0  0  0  0  0  0  0  0
   44.1090   31.8660   37.2100 C   0  0  0  0  0  0  0  0  0  0  0  0
   44.4730   32.6440   37.8920 H   0  0  0  0  0  0  0  0  0  0  0  0
   44.9250   31.3630   36.2710 N   0  0  0  0  0  0  0  0  0  0  0  0
   44.4760   30.4080   35.4360 C   0  0  0  0  0  0  0  0  0  0  0  0
   45.0710   29.9380   34.6370 H   0  0  0  0  0  0  0  0  0  0  0  0
   43.1910   29.9690   35.5630 N   0  0  0  0  0  0  0  0  0  0  0  0
   42.3600   30.4630   36.5000 C   0  0  0  0  0  0  0  0  0  0  0  0
  1 11  1  0  0  0  0
  2  1  1  0  0  0  0
  3  2  2  0  0  0  0
  3  4  1  0  0  0  0
  4  5  1  0  0  0  0
  4  8  1  0  0  0  0
  5  1  1  0  0  0  0
  5 10  1  1  0  0  0
  6  2  1  0  0  0  0
  7  3  1  0  0  0  0
  9  4  1  0  0  0  0
 11 16  1  0  0  0  0
 12 11  1  0  0  0  0
 13 11  1  0  0  0  0
 14 20  1  0  0  0  0
 14 19  1  0  0  0  0
 15 14  2  0  0  0  0
 16 15  1  0  0  0  0
 16 17  2  0  0  0  0
 17 18  1  0  0  0  0
 18 22  1  0  0  0  0
 18 19  2  0  0  0  0
 21 15  1  0  0  0  0
 23 25  1  0  0  0  0
 23  5  1  0  0  0  0
 25 24  2  1  0  0  0
 25 28  1  0  0  0  0
 26 27  1  0  0  0  0
 26 25  1  0  0  0  0
 29 30  1  0  0  0  0
 30 31  1  0  0  0  0
 31 32  2  0  0  0  0
 31 28  1  0  0  0  0
 33 32  1  0  0  0  0
 34 33  1  0  0  0  0
 34 35  1  0  0  0  0
 36 34  2  0  0  0  0
 37 39  2  0  0  0  0
 37 36  1  0  0  0  0
 38 37  1  0  0  0  0
 39 40  1  0  0  0  0
 40 30  1  0  0  0  0
 40 33  2  0  0  0  0
M  END
>  <minimizedAffinity>
-5.5596776

$$$$

 OpenBabel03252505003D

 40 43  0  0  1  0  0  0  0  0999 V2000
   37.2460   28.0190   41.4600 N   0  0  0  0  0  0  0  0  0  0  0  0
   36.5620   27.7980   42.6750 C   0  0  0  0  0  0  0  0  0  0  0  0
   37.4940   28.3600   43.6790 C   0  0  0  0  0  0  0  0  0  0  0  0
   38.6950   28.9450   42.9460 C   0  0  0  0  0  0  0  0  0  0  0  0
   38.1380   29.1040   41.5270 C   0  0  2  0  0  0  0  0  0  0  0  0
   35.6640   27.3900   43.0540 H   0  0  0  0  0  0  0  0  0  0  0  0
   37.4160   28.4250   44.7610 H   0  0  0  0  0  0  0  0  0  0  0  0
   39.5380   28.2570   42.9840 H   0  0  0  0  0  0  0  0  0  0  0  0
   38.8700   29.9360   43.4090 H   0  0  0  0  0  0  0  0  0  0  0  0
   38.9060   29.0910   40.7580 H   0  0  0  0  0  0  0  0  0  0  0  0
   37.0240   27.1840   40.3910 C   0  0  0  0  0  0  0  0  0  0  0  0
   37.5030   27.6510   39.4940 H   0  0  0  0  0  0  0  0  0  0  0  0
   35.9600   27.1130   40.0640 H   0  0  0  0  0  0  0  0  0  0  0  0
   39.0710   24.0890   41.1380 C   0  0  0  0  0  0  0  0  0  0  0  0
   38.7630   25.4740   40.9830 C   0  0  0  0  0  0  0  0  0  0  0  0
   37.4780   25.8210   40.5620 C   0  0  0  0  0  0  0  0  0  0  0  0
   36.6070   24.8140   40.3280 N   0  0  0  0  0  0  0  0  0  0  0  0
   36.9220   23.4800   40.4820 C   0  0  0  0  0  0  0  0  0  0  0  0
   38.1430   23.1280   40.8830 N   0  0  0  0  0  0  0  0  0  0  0  0
   40.0860   23.8640   41.4670 H   0  0  0  0  0  0  0  0  0  0  0  0
   39.4680   26.2410   41.1740 H   0  0  0  0  0  0  0  0  0  0  0  0
   36.1680   22.7290   40.2740 H   0  0  0  0  0  0  0  0  0  0  0  0
   37.3500   30.2630   41.5470 O   0  0  0  0  0  0  0  0  0  0  0  0
   38.9860   32.3460   41.3510 O   0  0  0  0  0  0  0  0  0  0  0  0
   37.9450   31.5160   40.6410 P   0  0  2  0  0  0  0  0  0  0  0  0
   36.6590   32.5570   40.2610 O   0  0  0  0  0  0  0  0  0  0  0  0
   36.8410   33.0080   39.3920 H   0  0  0  0  0  0  0  0  0  0  0  0
   38.5530   30.9600   39.1360 O   0  0  0  0  0  0  0  0  0  0  0  0
   38.9110   30.1930   36.4150 H   0  0  0  0  0  0  0  0  0  0  0  0
   37.9980   30.0710   36.8760 N   0  0  0  0  0  0  0  0  0  0  0  0
   37.7270   30.4040   38.1670 C   0  0  0  0  0  0  0  0  0  0  0  0
   36.4230   30.0940   38.4070 N   0  0  0  0  0  0  0  0  0  0  0  0
   35.8900   29.5700   37.2680 C   0  0  0  0  0  0  0  0  0  0  0  0
   34.6480   29.0870   36.9080 C   0  0  0  0  0  0  0  0  0  0  0  0
   33.8580   29.0970   37.6690 H   0  0  0  0  0  0  0  0  0  0  0  0
   34.3890   28.6160   35.6790 N   0  0  0  0  0  0  0  0  0  0  0  0
   35.3600   28.6060   34.7470 C   0  0  0  0  0  0  0  0  0  0  0  0
   35.2410   28.2390   33.7160 H   0  0  0  0  0  0  0  0  0  0  0  0
   36.5970   29.0780   35.0770 N   0  0  0  0  0  0  0  0  0  0  0  0
   36.8730   29.5530   36.3040 C   0  0  0  0  0  0  0  0  0  0  0  0
  1  5  1  0  0  0  0
  1  2  1  0  0  0  0
  2  6  1  0  0  0  0
  2  3  2  0  0  0  0
  3  7  1  0  0  0  0
  4  8  1  0  0  0  0
  4  9  1  0  0  0  0
  4  3  1  0  0  0  0
  5 10  1  6  0  0  0
  5 23  1  0  0  0  0
  5  4  1  0  0  0  0
 11 16  1  0  0  0  0
 11  1  1  0  0  0  0
 12 11  1  0  0  0  0
 13 11  1  0  0  0  0
 14 20  1  0  0  0  0
 15 14  1  0  0  0  0
 15 21  1  0  0  0  0
 16 15  2  0  0  0  0
 17 18  2  0  0  0  0
 17 16  1  0  0  0  0
 18 19  1  0  0  0  0
 19 14  2  0  0  0  0
 22 18  1  0  0  0  0
 25 24  2  1  0  0  0
 25 23  1  0  0  0  0
 26 25  1  0  0  0  0
 27 26  1  0  0  0  0
 28 25  1  0  0  0  0
 29 30  1  0  0  0  0
 30 31  1  0  0  0  0
 31 32  2  0  0  0  0
 31 28  1  0  0  0  0
 33 32  1  0  0  0  0
 34 33  1  0  0  0  0
 34 35  1  0  0  0  0
 36 34  2  0  0  0  0
 37 39  2  0  0  0  0
 37 36  1  0  0  0  0
 38 37  1  0  0  0  0
 39 40  1  0  0  0  0
 40 30  1  0  0  0  0
 40 33  2  0  0  0  0
M  END
>  <minimizedAffinity>
-5.47066736

$$$$

 OpenBabel03252505003D

 40 43  0  0  1  0  0  0  0  0999 V2000
   38.8360   29.4650   42.7130 N   0  0  0  0  0  0  0  0  0  0  0  0
   39.5140   28.2300   42.8190 C   0  0  0  0  0  0  0  0  0  0  0  0
   38.5090   27.3630   43.4760 C   0  0  0  0  0  0  0  0  0  0  0  0
   37.2330   28.1720   43.6750 C   0  0  0  0  0  0  0  0  0  0  0  0
   37.4380   29.3160   42.6750 C   0  0  2  0  0  0  0  0  0  0  0  0
   40.4400   27.7760   42.5910 H   0  0  0  0  0  0  0  0  0  0  0  0
   38.5600   26.3200   43.7740 H   0  0  0  0  0  0  0  0  0  0  0  0
   37.1620   28.5280   44.7010 H   0  0  0  0  0  0  0  0  0  0  0  0
   36.4090   27.5090   43.3440 H   0  0  0  0  0  0  0  0  0  0  0  0
   36.8920   30.2190   42.9350 H   0  0  0  0  0  0  0  0  0  0  0  0
   39.5520   30.6370   42.6930 C   0  0  0  0  0  0  0  0  0  0  0  0
   40.5880   30.4050   43.0490 H   0  0  0  0  0  0  0  0  0  0  0  0
   39.2260   31.4000   43.4380 H   0  0  0  0  0  0  0  0  0  0  0  0
   40.2640   31.6400   39.1130 C   0  0  0  0  0  0  0  0  0  0  0  0
   40.3390   30.8860   40.3220 C   0  0  0  0  0  0  0  0  0  0  0  0
   39.5910   31.3200   41.4170 C   0  0  0  0  0  0  0  0  0  0  0  0
   38.8410   32.4340   41.2570 N   0  0  0  0  0  0  0  0  0  0  0  0
   38.7810   33.1510   40.0810 C   0  0  0  0  0  0  0  0  0  0  0  0
   39.4870   32.7530   39.0220 N   0  0  0  0  0  0  0  0  0  0  0  0
   40.8650   31.2640   38.2830 H   0  0  0  0  0  0  0  0  0  0  0  0
   40.9360   30.0160   40.4180 H   0  0  0  0  0  0  0  0  0  0  0  0
   38.1560   34.0360   40.0290 H   0  0  0  0  0  0  0  0  0  0  0  0
   37.1300   28.7890   41.4130 O   0  0  0  0  0  0  0  0  0  0  0  0
   36.9540   30.2820   39.2240 O   0  0  0  0  0  0  0  0  0  0  0  0
   36.2270   29.7890   40.4510 P   0  0  2  0  0  0  0  0  0  0  0  0
   35.8020   31.1600   41.3570 O   0  0  0  0  0  0  0  0  0  0  0  0
   34.9330   31.5210   41.0300 H   0  0  0  0  0  0  0  0  0  0  0  0
   34.7440   29.0490   40.0060 O   0  0  0  0  0  0  0  0  0  0  0  0
   36.1750   27.7030   37.9430 H   0  0  0  0  0  0  0  0  0  0  0  0
   35.2210   28.0510   37.7740 N   0  0  0  0  0  0  0  0  0  0  0  0
   34.4570   28.7040   38.6920 C   0  0  0  0  0  0  0  0  0  0  0  0
   33.2680   29.0020   38.1000 N   0  0  0  0  0  0  0  0  0  0  0  0
   33.2960   28.5340   36.8200 C   0  0  0  0  0  0  0  0  0  0  0  0
   32.4080   28.5380   35.7630 C   0  0  0  0  0  0  0  0  0  0  0  0
   31.4310   29.0120   35.9210 H   0  0  0  0  0  0  0  0  0  0  0  0
   32.7030   27.9890   34.5760 N   0  0  0  0  0  0  0  0  0  0  0  0
   33.9020   27.4090   34.3850 C   0  0  0  0  0  0  0  0  0  0  0  0
   34.2310   26.9340   33.4480 H   0  0  0  0  0  0  0  0  0  0  0  0
   34.7980   27.3910   35.4130 N   0  0  0  0  0  0  0  0  0  0  0  0
   34.5180   27.9370   36.6100 C   0  0  0  0  0  0  0  0  0  0  0  0
  1  2  1  0  0  0  0
  2  3  2  0  0  0  0
  3  4  1  0  0  0  0
  3  7  1  0  0  0  0
  4  8  1  0  0  0  0
  5  1  1  0  0  0  0
  5 10  1  1  0  0  0
  5  4  1  0  0  0  0
  6  2  1  0  0  0  0
  9  4  1  0  0  0  0
 11  1  1  0  0  0  0
 11 12  1  0  0  0  0
 11 13  1  0  0  0  0
 14 15  1  0  0  0  0
 15 21  1  0  0  0  0
 15 16  2  0  0  0  0
 16 11  1  0  0  0  0
 17 16  1  0  0  0  0
 18 17  2  0  0  0  0
 19 14  2  0  0  0  0
 19 18  1  0  0  0  0
 20 14  1  0  0  0  0
 22 18  1  0  0  0  0
 23  5  1  0  0  0  0
 25 24  2  6  0  0  0
 25 26  1  0  0  0  0
 25 23  1  0  0  0  0
 27 26  1  0  0  0  0
 28 25  1  0  0  0  0
 30 29  1  0  0  0  0
 30 31  1  0  0  0  0
 31 28  1  0  0  0  0
 32 31  2  0  0  0  0
 33 32  1  0  0  0  0
 34 35  1  0  0  0  0
 34 33  2  0  0  0  0
 36 34  1  0  0  0  0
 37 36  2  0  0  0  0
 37 39  1  0  0  0  0
 38 37  1  0  0  0  0
 39 40  2  0  0  0  0
 40 33  1  0  0  0  0
 40 30  1  0  0  0  0
M  END
>  <minimizedAffinity>
-5.40159178

$$$$

 OpenBabel03252505003D

 40 43  0  0  1  0  0  0  0  0999 V2000
   37.4330   28.1520   41.4280 N   0  0  0  0  0  0  0  0  0  0  0  0
   36.5970   27.8760   42.5330 C   0  0  0  0  0  0  0  0  0  0  0  0
   37.3730   28.4180   43.6710 C   0  0  0  0  0  0  0  0  0  0  0  0
   38.6480   29.0500   43.1260 C   0  0  0  0  0  0  0  0  0  0  0  0
   38.2830   29.2500   41.6510 C   0  0  2  0  0  0  0  0  0  0  0  0
   35.6660   27.4380   42.7720 H   0  0  0  0  0  0  0  0  0  0  0  0
   37.1490   28.4430   44.7340 H   0  0  0  0  0  0  0  0  0  0  0  0
   39.4930   28.3770   43.2550 H   0  0  0  0  0  0  0  0  0  0  0  0
   38.7370   30.0280   43.6410 H   0  0  0  0  0  0  0  0  0  0  0  0
   39.1480   29.2780   40.9930 H   0  0  0  0  0  0  0  0  0  0  0  0
   37.3760   27.3530   40.3130 C   0  0  0  0  0  0  0  0  0  0  0  0
   38.0680   27.7890   39.5490 H   0  0  0  0  0  0  0  0  0  0  0  0
   36.4020   27.3740   39.7690 H   0  0  0  0  0  0  0  0  0  0  0  0
   37.1650   23.5900   40.6660 C   0  0  0  0  0  0  0  0  0  0  0  0
   36.7280   24.9320   40.4520 C   0  0  0  0  0  0  0  0  0  0  0  0
   37.6750   25.9540   40.5340 C   0  0  0  0  0  0  0  0  0  0  0  0
   38.9490   25.6010   40.8150 N   0  0  0  0  0  0  0  0  0  0  0  0
   39.3540   24.2990   41.0200 C   0  0  0  0  0  0  0  0  0  0  0  0
   38.4660   23.3070   40.9440 N   0  0  0  0  0  0  0  0  0  0  0  0
   36.3920   22.8240   40.5920 H   0  0  0  0  0  0  0  0  0  0  0  0
   35.7210   25.1780   40.2340 H   0  0  0  0  0  0  0  0  0  0  0  0
   40.3960   24.0940   41.2410 H   0  0  0  0  0  0  0  0  0  0  0  0
   37.4730   30.3940   41.6030 O   0  0  0  0  0  0  0  0  0  0  0  0
   39.2850   32.2140   40.9290 O   0  0  0  0  0  0  0  0  0  0  0  0
   37.9850   31.5550   40.5390 P   0  0  2  0  0  0  0  0  0  0  0  0
   36.8110   32.7800   40.4810 O   0  0  0  0  0  0  0  0  0  0  0  0
   36.8210   33.2100   39.5830 H   0  0  0  0  0  0  0  0  0  0  0  0
   38.0870   30.9340   38.9430 O   0  0  0  0  0  0  0  0  0  0  0  0
   40.1900   32.6850   38.1500 H   0  0  0  0  0  0  0  0  0  0  0  0
   40.2520   31.6750   37.9580 N   0  0  0  0  0  0  0  0  0  0  0  0
   39.3040   30.7600   38.2960 C   0  0  0  0  0  0  0  0  0  0  0  0
   39.7430   29.5400   37.8790 N   0  0  0  0  0  0  0  0  0  0  0  0
   40.9580   29.7010   37.2850 C   0  0  0  0  0  0  0  0  0  0  0  0
   41.8680   28.8530   36.6870 C   0  0  0  0  0  0  0  0  0  0  0  0
   41.6180   27.7860   36.6460 H   0  0  0  0  0  0  0  0  0  0  0  0
   43.0250   29.2920   36.1680 N   0  0  0  0  0  0  0  0  0  0  0  0
   43.3280   30.6020   36.2200 C   0  0  0  0  0  0  0  0  0  0  0  0
   44.2510   31.0520   35.8220 H   0  0  0  0  0  0  0  0  0  0  0  0
   42.4460   31.4610   36.8060 N   0  0  0  0  0  0  0  0  0  0  0  0
   41.2830   31.0380   37.3320 C   0  0  0  0  0  0  0  0  0  0  0  0
  1  5  1  0  0  0  0
  1  2  1  0  0  0  0
  2  6  1  0  0  0  0
  2  3  2  0  0  0  0
  3  7  1  0  0  0  0
  4  8  1  0  0  0  0
  4  9  1  0  0  0  0
  4  3  1  0  0  0  0
  5 10  1  6  0  0  0
  5  4  1  0  0  0  0
 11 16  1  0  0  0  0
 11  1  1  0  0  0  0
 12 11  1  0  0  0  0
 13 11  1  0  0  0  0
 14 19  1  0  0  0  0
 15 16  1  0  0  0  0
 15 14  2  0  0  0  0
 16 17  2  0  0  0  0
 17 18  1  0  0  0  0
 18 22  1  0  0  0  0
 19 18  2  0  0  0  0
 20 14  1  0  0  0  0
 21 15  1  0  0  0  0
 23  5  1  0  0  0  0
 25 24  2  1  0  0  0
 25 23  1  0  0  0  0
 26 25  1  0  0  0  0
 27 26  1  0  0  0  0
 28 25  1  0  0  0  0
 30 29  1  0  0  0  0
 30 31  1  0  0  0  0
 31 28  1  0  0  0  0
 32 31  2  0  0  0  0
 33 40  1  0  0  0  0
 33 32  1  0  0  0  0
 34 33  2  0  0  0  0
 35 34  1  0  0  0  0
 36 37  2  0  0  0  0
 36 34  1  0  0  0  0
 37 39  1  0  0  0  0
 38 37  1  0  0  0  0
 39 40  2  0  0  0  0
 40 30  1  0  0  0  0
M  END
>  <minimizedAffinity>
-5.37526464

$$$$

 OpenBabel03252505003D

 40 43  0  0  1  0  0  0  0  0999 V2000
   37.8050   30.8220   37.8610 N   0  0  0  0  0  0  0  0  0  0  0  0
   39.1910   31.0600   37.7320 C   0  0  0  0  0  0  0  0  0  0  0  0
   39.4150   32.1900   38.6620 C   0  0  0  0  0  0  0  0  0  0  0  0
   38.0930   32.5210   39.3430 C   0  0  0  0  0  0  0  0  0  0  0  0
   37.2970   31.2320   39.1050 C   0  0  2  0  0  0  0  0  0  0  0  0
   40.0440   30.7060   37.2170 H   0  0  0  0  0  0  0  0  0  0  0  0
   40.3220   32.7330   38.9120 H   0  0  0  0  0  0  0  0  0  0  0  0
   37.6280   33.3860   38.8730 H   0  0  0  0  0  0  0  0  0  0  0  0
   38.3350   32.6370   40.4180 H   0  0  0  0  0  0  0  0  0  0  0  0
   36.2200   31.3830   39.1140 H   0  0  0  0  0  0  0  0  0  0  0  0
   37.1060   30.2770   36.8120 C   0  0  0  0  0  0  0  0  0  0  0  0
   37.8400   30.0600   35.9940 H   0  0  0  0  0  0  0  0  0  0  0  0
   36.4040   30.9760   36.3010 H   0  0  0  0  0  0  0  0  0  0  0  0
   34.2940   27.8260   37.4570 C   0  0  0  0  0  0  0  0  0  0  0  0
   34.9350   29.0660   37.1570 C   0  0  0  0  0  0  0  0  0  0  0  0
   36.3300   29.0970   37.1280 C   0  0  0  0  0  0  0  0  0  0  0  0
   36.9830   27.9420   37.3890 N   0  0  0  0  0  0  0  0  0  0  0  0
   36.3470   26.7530   37.6780 C   0  0  0  0  0  0  0  0  0  0  0  0
   35.0160   26.7020   37.7100 N   0  0  0  0  0  0  0  0  0  0  0  0
   33.2030   27.8490   37.4690 H   0  0  0  0  0  0  0  0  0  0  0  0
   34.3950   29.9560   36.9580 H   0  0  0  0  0  0  0  0  0  0  0  0
   36.9410   25.8680   37.8770 H   0  0  0  0  0  0  0  0  0  0  0  0
   37.7650   30.3080   40.0500 O   0  0  0  0  0  0  0  0  0  0  0  0
   35.7830   28.6460   40.6500 O   0  0  0  0  0  0  0  0  0  0  0  0
   36.6260   29.7980   41.1380 P   0  0  2  0  0  0  0  0  0  0  0  0
   35.5670   31.0890   41.4460 O   0  0  0  0  0  0  0  0  0  0  0  0
   35.2040   31.0090   42.3700 H   0  0  0  0  0  0  0  0  0  0  0  0
   37.3410   29.4140   42.6500 O   0  0  0  0  0  0  0  0  0  0  0  0
   40.1550   29.5400   43.0810 H   0  0  0  0  0  0  0  0  0  0  0  0
   39.6830   28.6300   42.9770 N   0  0  0  0  0  0  0  0  0  0  0  0
   38.3480   28.4650   42.7700 C   0  0  0  0  0  0  0  0  0  0  0  0
   38.1080   27.1280   42.6870 N   0  0  0  0  0  0  0  0  0  0  0  0
   39.2900   26.4680   42.8430 C   0  0  0  0  0  0  0  0  0  0  0  0
   39.6690   25.1410   42.8530 C   0  0  0  0  0  0  0  0  0  0  0  0
   38.8860   24.3870   42.7090 H   0  0  0  0  0  0  0  0  0  0  0  0
   40.9420   24.7600   43.0330 N   0  0  0  0  0  0  0  0  0  0  0  0
   41.9010   25.6870   43.2110 C   0  0  0  0  0  0  0  0  0  0  0  0
   42.9690   25.4690   43.3660 H   0  0  0  0  0  0  0  0  0  0  0  0
   41.5530   27.0060   43.2050 N   0  0  0  0  0  0  0  0  0  0  0  0
   40.2810   27.4050   43.0250 C   0  0  0  0  0  0  0  0  0  0  0  0
  1  5  1  0  0  0  0
  2  1  1  0  0  0  0
  2  3  2  0  0  0  0
  3  7  1  0  0  0  0
  3  4  1  0  0  0  0
  4  9  1  0  0  0  0
  5 10  1  1  0  0  0
  5  4  1  0  0  0  0
  5 23  1  0  0  0  0
  6  2  1  0  0  0  0
  8  4  1  0  0  0  0
 11 16  1  0  0  0  0
 11  1  1  0  0  0  0
 12 11  1  0  0  0  0
 13 11  1  0  0  0  0
 14 20  1  0  0  0  0
 14 19  1  0  0  0  0
 15 14  2  0  0  0  0
 16 15  1  0  0  0  0
 16 17  2  0  0  0  0
 17 18  1  0  0  0  0
 18 19  2  0  0  0  0
 18 22  1  0  0  0  0
 21 15  1  0  0  0  0
 23 25  1  0  0  0  0
 25 24  2  6  0  0  0
 25 26  1  0  0  0  0
 25 28  1  0  0  0  0
 26 27  1  0  0  0  0
 28 31  1  0  0  0  0
 30 40  1  0  0  0  0
 30 29  1  0  0  0  0
 31 30  1  0  0  0  0
 32 31  2  0  0  0  0
 32 33  1  0  0  0  0
 33 34  2  0  0  0  0
 33 40  1  0  0  0  0
 34 36  1  0  0  0  0
 35 34  1  0  0  0  0
 36 37  2  0  0  0  0
 37 38  1  0  0  0  0
 39 37  1  0  0  0  0
 40 39  2  0  0  0  0
M  END
>  <minimizedAffinity>
-5.35514736

$$$$

 OpenBabel03252505003D

 40 43  0  0  1  0  0  0  0  0999 V2000
   39.1040   32.2470   40.2980 N   0  0  0  0  0  0  0  0  0  0  0  0
   38.6900   33.5730   40.5510 C   0  0  0  0  0  0  0  0  0  0  0  0
   37.4750   33.7000   39.7150 C   0  0  0  0  0  0  0  0  0  0  0  0
   37.2180   32.3610   39.0340 C   0  0  0  0  0  0  0  0  0  0  0  0
   38.0420   31.4110   39.9110 C   0  0  2  0  0  0  0  0  0  0  0  0
   38.9610   34.4290   41.1100 H   0  0  0  0  0  0  0  0  0  0  0  0
   36.7990   34.5380   39.5690 H   0  0  0  0  0  0  0  0  0  0  0  0
   37.5700   32.3830   38.0040 H   0  0  0  0  0  0  0  0  0  0  0  0
   36.1340   32.1670   39.1620 H   0  0  0  0  0  0  0  0  0  0  0  0
   38.3580   30.5100   39.3900 H   0  0  0  0  0  0  0  0  0  0  0  0
   40.4320   31.9140   40.4080 C   0  0  0  0  0  0  0  0  0  0  0  0
   40.5210   30.8150   40.2170 H   0  0  0  0  0  0  0  0  0  0  0  0
   40.8530   31.9970   41.4370 H   0  0  0  0  0  0  0  0  0  0  0  0
   43.2230   34.0900   39.0630 C   0  0  0  0  0  0  0  0  0  0  0  0
   42.3940   33.4310   40.0210 C   0  0  0  0  0  0  0  0  0  0  0  0
   41.3320   32.6570   39.5520 C   0  0  0  0  0  0  0  0  0  0  0  0
   41.1590   32.5850   38.2120 N   0  0  0  0  0  0  0  0  0  0  0  0
   41.9690   33.2290   37.3020 C   0  0  0  0  0  0  0  0  0  0  0  0
   42.9890   33.9730   37.7290 N   0  0  0  0  0  0  0  0  0  0  0  0
   44.0400   34.6840   39.4760 H   0  0  0  0  0  0  0  0  0  0  0  0
   42.5550   33.5070   41.0650 H   0  0  0  0  0  0  0  0  0  0  0  0
   41.7660   33.1230   36.2410 H   0  0  0  0  0  0  0  0  0  0  0  0
   37.2770   31.1830   41.0630 O   0  0  0  0  0  0  0  0  0  0  0  0
   35.7560   29.0130   40.8930 O   0  0  0  0  0  0  0  0  0  0  0  0
   37.0440   29.5850   41.4300 P   0  0  2  0  0  0  0  0  0  0  0  0
   36.9850   29.4290   43.1200 O   0  0  0  0  0  0  0  0  0  0  0  0
   37.3170   28.5280   43.3840 H   0  0  0  0  0  0  0  0  0  0  0  0
   38.3760   28.6310   40.9220 O   0  0  0  0  0  0  0  0  0  0  0  0
   36.6330   26.6370   41.9730 H   0  0  0  0  0  0  0  0  0  0  0  0
   37.4040   26.3760   41.3430 N   0  0  0  0  0  0  0  0  0  0  0  0
   38.2880   27.2510   40.7900 C   0  0  0  0  0  0  0  0  0  0  0  0
   39.1520   26.5330   40.0220 N   0  0  0  0  0  0  0  0  0  0  0  0
   38.8040   25.2170   40.0990 C   0  0  0  0  0  0  0  0  0  0  0  0
   39.2940   24.0480   39.5530 C   0  0  0  0  0  0  0  0  0  0  0  0
   40.1660   24.1210   38.8930 H   0  0  0  0  0  0  0  0  0  0  0  0
   38.7410   22.8520   39.8050 N   0  0  0  0  0  0  0  0  0  0  0  0
   37.6700   22.7660   40.6150 C   0  0  0  0  0  0  0  0  0  0  0  0
   37.1510   21.8300   40.8780 H   0  0  0  0  0  0  0  0  0  0  0  0
   37.1660   23.9060   41.1670 N   0  0  0  0  0  0  0  0  0  0  0  0
   37.7080   25.1140   40.9260 C   0  0  0  0  0  0  0  0  0  0  0  0
  1 11  1  0  0  0  0
  1  2  1  0  0  0  0
  2  6  1  0  0  0  0
  3  2  2  0  0  0  0
  4  9  1  0  0  0  0
  4  3  1  0  0  0  0
  4  5  1  0  0  0  0
  5 10  1  6  0  0  0
  5  1  1  0  0  0  0
  5 23  1  0  0  0  0
  7  3  1  0  0  0  0
  8  4  1  0  0  0  0
 11 13  1  0  0  0  0
 12 11  1  0  0  0  0
 14 20  1  0  0  0  0
 14 15  1  0  0  0  0
 15 21  1  0  0  0  0
 16 15  2  0  0  0  0
 16 11  1  0  0  0  0
 17 16  1  0  0  0  0
 18 19  1  0  0  0  0
 18 17  2  0  0  0  0
 19 14  2  0  0  0  0
 22 18  1  0  0  0  0
 23 25  1  0  0  0  0
 25 24  2  6  0  0  0
 25 26  1  0  0  0  0
 26 27  1  0  0  0  0
 28 25  1  0  0  0  0
 30 29  1  0  0  0  0
 31 28  1  0  0  0  0
 31 30  1  0  0  0  0
 32 33  1  0  0  0  0
 32 31  2  0  0  0  0
 33 40  1  0  0  0  0
 34 36  1  0  0  0  0
 34 33  2  0  0  0  0
 35 34  1  0  0  0  0
 36 37  2  0  0  0  0
 37 38  1  0  0  0  0
 37 39  1  0  0  0  0
 40 39  2  0  0  0  0
 40 30  1  0  0  0  0
M  END
>  <minimizedAffinity>
-5.34461641

$$$$

 OpenBabel03252505003D

 40 43  0  0  1  0  0  0  0  0999 V2000
   36.7790   28.9140   41.7170 N   0  0  0  0  0  0  0  0  0  0  0  0
   37.9200   29.5670   42.2330 C   0  0  0  0  0  0  0  0  0  0  0  0
   38.1670   28.8370   43.4980 C   0  0  0  0  0  0  0  0  0  0  0  0
   37.1370   27.7210   43.6180 C   0  0  0  0  0  0  0  0  0  0  0  0
   36.6620   27.5870   42.1670 C   0  0  2  0  0  0  0  0  0  0  0  0
   38.5930   30.3500   42.0100 H   0  0  0  0  0  0  0  0  0  0  0  0
   38.9350   28.9710   44.2550 H   0  0  0  0  0  0  0  0  0  0  0  0
   36.3330   28.0150   44.2910 H   0  0  0  0  0  0  0  0  0  0  0  0
   37.7080   26.8230   43.9260 H   0  0  0  0  0  0  0  0  0  0  0  0
   35.6580   27.1790   42.0780 H   0  0  0  0  0  0  0  0  0  0  0  0
   35.9140   29.5980   40.8980 C   0  0  0  0  0  0  0  0  0  0  0  0
   35.2760   30.2470   41.5490 H   0  0  0  0  0  0  0  0  0  0  0  0
   35.1470   28.9660   40.3920 H   0  0  0  0  0  0  0  0  0  0  0  0
   37.4180   32.3950   38.8370 C   0  0  0  0  0  0  0  0  0  0  0  0
   36.7680   31.7520   39.9340 C   0  0  0  0  0  0  0  0  0  0  0  0
   36.5370   30.3790   39.8500 C   0  0  0  0  0  0  0  0  0  0  0  0
   36.9460   29.7460   38.7270 N   0  0  0  0  0  0  0  0  0  0  0  0
   37.5720   30.3830   37.6760 C   0  0  0  0  0  0  0  0  0  0  0  0
   37.8030   31.6950   37.7370 N   0  0  0  0  0  0  0  0  0  0  0  0
   37.5770   33.4690   38.9460 H   0  0  0  0  0  0  0  0  0  0  0  0
   36.4580   32.2760   40.8010 H   0  0  0  0  0  0  0  0  0  0  0  0
   37.8710   29.8070   36.8080 H   0  0  0  0  0  0  0  0  0  0  0  0
   37.6530   26.8530   41.5000 O   0  0  0  0  0  0  0  0  0  0  0  0
   36.4870   25.1000   39.8830 O   0  0  0  0  0  0  0  0  0  0  0  0
   37.2450   25.2820   41.1750 P   0  0  2  0  0  0  0  0  0  0  0  0
   36.2370   24.7240   42.4220 O   0  0  0  0  0  0  0  0  0  0  0  0
   36.3550   23.7410   42.5320 H   0  0  0  0  0  0  0  0  0  0  0  0
   38.6250   24.2630   41.2030 O   0  0  0  0  0  0  0  0  0  0  0  0
   40.0290   24.2510   43.6830 H   0  0  0  0  0  0  0  0  0  0  0  0
   40.4570   24.6660   42.8430 N   0  0  0  0  0  0  0  0  0  0  0  0
   39.8700   24.7200   41.6160 C   0  0  0  0  0  0  0  0  0  0  0  0
   40.7410   25.3360   40.7710 N   0  0  0  0  0  0  0  0  0  0  0  0
   41.8630   25.6620   41.4720 C   0  0  0  0  0  0  0  0  0  0  0  0
   43.0560   26.2840   41.1640 C   0  0  0  0  0  0  0  0  0  0  0  0
   43.2030   26.6200   40.1310 H   0  0  0  0  0  0  0  0  0  0  0  0
   44.0190   26.4820   42.0770 N   0  0  0  0  0  0  0  0  0  0  0  0
   43.8360   26.0680   43.3450 C   0  0  0  0  0  0  0  0  0  0  0  0
   44.5680   26.1860   44.1590 H   0  0  0  0  0  0  0  0  0  0  0  0
   42.6660   25.4500   43.6750 N   0  0  0  0  0  0  0  0  0  0  0  0
   41.6910   25.2440   42.7720 C   0  0  0  0  0  0  0  0  0  0  0  0
  1  5  1  0  0  0  0
  1  2  1  0  0  0  0
  2  3  2  0  0  0  0
  3  4  1  0  0  0  0
  3  7  1  0  0  0  0
  4  9  1  0  0  0  0
  4  8  1  0  0  0  0
  5 10  1  6  0  0  0
  5  4  1  0  0  0  0
  6  2  1  0  0  0  0
 11 12  1  0  0  0  0
 11  1  1  0  0  0  0
 13 11  1  0  0  0  0
 14 20  1  0  0  0  0
 14 15  1  0  0  0  0
 15 21  1  0  0  0  0
 16 15  2  0  0  0  0
 16 11  1  0  0  0  0
 17 16  1  0  0  0  0
 18 19  1  0  0  0  0
 18 17  2  0  0  0  0
 19 14  2  0  0  0  0
 22 18  1  0  0  0  0
 23  5  1  0  0  0  0
 25 24  2  6  0  0  0
 25 28  1  0  0  0  0
 25 23  1  0  0  0  0
 25 26  1  0  0  0  0
 26 27  1  0  0  0  0
 28 31  1  0  0  0  0
 30 29  1  0  0  0  0
 31 30  1  0  0  0  0
 32 33  1  0  0  0  0
 32 31  2  0  0  0  0
 33 40  1  0  0  0  0
 34 33  2  0  0  0  0
 34 36  1  0  0  0  0
 35 34  1  0  0  0  0
 36 37  2  0  0  0  0
 37 39  1  0  0  0  0
 37 38  1  0  0  0  0
 40 30  1  0  0  0  0
 40 39  2  0  0  0  0
M  END
>  <minimizedAffinity>
-5.24704885

$$$$
