
 OpenBabel03252507323D

 52 56  0  0  1  0  0  0  0  0999 V2000
   46.9850   32.7530   45.5330 C   0  0  0  0  0  0  0  0  0  0  0  0
   45.9130   33.5000   45.9960 C   0  0  0  0  0  0  0  0  0  0  0  0
   45.2250   34.3630   45.1100 C   0  0  0  0  0  0  0  0  0  0  0  0
   45.6910   34.4000   43.7980 N   0  0  0  0  0  0  0  0  0  0  0  0
   46.7330   33.6550   43.4170 C   0  0  0  0  0  0  0  0  0  0  0  0
   47.3690   32.8460   44.2650 N   0  0  0  0  0  0  0  0  0  0  0  0
   45.4220   33.6530   46.9340 H   0  0  0  0  0  0  0  0  0  0  0  0
   44.3960   34.9970   45.2830 H   0  0  0  0  0  0  0  0  0  0  0  0
   47.1870   33.7560   42.0260 C   0  0  0  0  0  0  0  0  0  0  0  0
   47.7920   34.9010   41.5590 C   0  0  0  0  0  0  0  0  0  0  0  0
   48.2530   35.0900   40.2740 C   0  0  0  0  0  0  0  0  0  0  0  0
   48.0620   34.0140   39.4440 C   0  0  0  0  0  0  0  0  0  0  0  0
   47.4520   32.8410   39.8900 C   0  0  0  0  0  0  0  0  0  0  0  0
   47.0180   32.7240   41.1840 N   0  0  0  0  0  0  0  0  0  0  0  0
   47.9080   35.7140   42.2830 H   0  0  0  0  0  0  0  0  0  0  0  0
   48.7230   35.9890   39.9250 H   0  0  0  0  0  0  0  0  0  0  0  0
   48.3770   34.0270   38.4100 H   0  0  0  0  0  0  0  0  0  0  0  0
   47.2800   31.7550   38.9830 N   0  0  0  0  0  0  0  0  0  0  0  0
   47.5910   30.4290   39.0550 C   0  0  0  0  0  0  0  0  0  0  0  0
   48.0660   30.0170   39.9360 H   0  0  0  0  0  0  0  0  0  0  0  0
   47.2100   29.8280   37.9060 N   0  0  0  0  0  0  0  0  0  0  0  0
   46.6560   30.7540   37.0890 C   0  0  0  0  0  0  0  0  0  0  0  0
   46.1150   30.6580   35.8150 C   0  0  0  0  0  0  0  0  0  0  0  0
   46.0860   29.7020   35.2940 H   0  0  0  0  0  0  0  0  0  0  0  0
   45.6150   31.7460   35.2020 N   0  0  0  0  0  0  0  0  0  0  0  0
   45.6750   32.9200   35.8960 C   0  0  0  0  0  0  0  0  0  0  0  0
   45.2970   33.8730   35.4950 H   0  0  0  0  0  0  0  0  0  0  0  0
   46.1910   33.0570   37.1350 N   0  0  0  0  0  0  0  0  0  0  0  0
   46.6980   31.9760   37.7680 C   0  0  0  0  0  0  0  0  0  0  0  0
   47.6390   31.8670   46.4740 C   0  0  2  0  0  0  0  0  0  0  0  0
   47.5260   30.3800   46.0360 C   0  0  0  0  0  0  0  0  0  0  0  0
   48.3490   29.5290   46.9430 C   0  0  0  0  0  0  0  0  0  0  0  0
   48.2280   29.8240   48.4000 C   0  0  0  0  0  0  0  0  0  0  0  0
   48.1120   31.2280   48.7170 C   0  0  0  0  0  0  0  0  0  0  0  0
   47.1100   31.9860   47.8180 C   0  0  2  0  0  0  0  0  0  0  0  0
   48.7330   32.0480   46.4160 H   0  0  0  0  0  0  0  0  0  0  0  0
   46.4950   30.0340   46.0130 H   0  0  0  0  0  0  0  0  0  0  0  0
   47.9220   30.3190   45.0030 H   0  0  0  0  0  0  0  0  0  0  0  0
   49.3710   29.5280   46.5180 H   0  0  0  0  0  0  0  0  0  0  0  0
   48.0010   28.4640   46.8040 H   0  0  0  0  0  0  0  0  0  0  0  0
   47.8680   29.0360   49.0590 H   0  0  0  0  0  0  0  0  0  0  0  0
   49.3390   29.6590   48.7070 H   0  0  0  0  0  0  0  0  0  0  0  0
   49.0300   31.8630   48.6800 H   0  0  0  0  0  0  0  0  0  0  0  0
   47.7270   31.3880   49.7620 H   0  0  0  0  0  0  0  0  0  0  0  0
   47.1330   32.9770   48.2720 H   0  0  0  0  0  0  0  0  0  0  0  0
   45.8090   31.3190   47.9030 N   0  0  0  0  0  0  0  0  0  0  0  0
   45.1390   30.7120   48.9790 C   0  0  0  0  0  0  0  0  0  0  0  0
   44.5390   31.3810   49.8960 O   0  0  0  0  0  0  0  0  0  0  0  0
   45.1690   29.2840   48.9700 N   0  0  0  0  0  0  0  0  0  0  0  0
   45.1910   31.1540   47.0220 H   0  0  0  0  0  0  0  0  0  0  0  0
   44.9110   28.6220   48.2170 H   0  0  0  0  0  0  0  0  0  0  0  0
   45.4910   28.7550   49.8170 H   0  0  0  0  0  0  0  0  0  0  0  0
  1  2  1  0  0  0  0
  1 30  1  0  0  0  0
  2  7  1  0  0  0  0
  3  8  1  0  0  0  0
  3  2  2  0  0  0  0
  4  3  1  0  0  0  0
  5  4  2  0  0  0  0
  5  6  1  0  0  0  0
  6  1  2  0  0  0  0
  9  5  1  0  0  0  0
 10  9  1  0  0  0  0
 10 15  1  0  0  0  0
 11 10  2  0  0  0  0
 12 13  2  0  0  0  0
 12 11  1  0  0  0  0
 13 14  1  0  0  0  0
 14  9  2  0  0  0  0
 16 11  1  0  0  0  0
 17 12  1  0  0  0  0
 18 19  1  0  0  0  0
 18 13  1  0  0  0  0
 19 20  1  0  0  0  0
 21 19  2  0  0  0  0
 22 29  1  0  0  0  0
 22 21  1  0  0  0  0
 23 22  2  0  0  0  0
 24 23  1  0  0  0  0
 25 23  1  0  0  0  0
 25 26  2  0  0  0  0
 26 28  1  0  0  0  0
 27 26  1  0  0  0  0
 28 29  2  0  0  0  0
 29 18  1  0  0  0  0
 30 36  1  1  0  0  0
 30 35  1  0  0  0  0
 31 30  1  0  0  0  0
 31 32  1  0  0  0  0
 32 33  1  0  0  0  0
 33 42  1  0  0  0  0
 33 34  1  0  0  0  0
 33 41  1  0  0  0  0
 34 44  1  0  0  0  0
 35 46  1  0  0  0  0
 35 45  1  1  0  0  0
 35 34  1  0  0  0  0
 37 31  1  0  0  0  0
 38 31  1  0  0  0  0
 39 32  1  0  0  0  0
 40 32  1  0  0  0  0
 43 34  1  0  0  0  0
 46 47  1  0  0  0  0
 47 48  2  0  0  0  0
 49 47  1  0  0  0  0
 49 52  1  0  0  0  0
 50 46  1  0  0  0  0
 51 49  1  0  0  0  0
M  END
>  <minimizedAffinity>
-6.36884403

>  <minimizedRMSD>
1.22504508

$$$$
