
 OpenBabel03242523543D

 48 52  0  0  1  0  0  0  0  0999 V2000
   42.7960   34.3880   38.8780 C   0  0  1  0  0  0  0  0  0  0  0  0
   43.0180   35.1730   40.1610 C   0  0  1  0  0  0  0  0  0  0  0  0
   41.7540   35.5620   40.6600 O   0  0  0  0  0  0  0  0  0  0  0  0
   40.8470   35.8780   39.6420 C   0  0  0  0  0  0  0  0  0  0  0  0
   40.4300   34.6470   38.8580 C   0  0  2  0  0  0  0  0  0  0  0  0
   41.5560   33.5830   39.0890 C   0  0  1  0  0  0  0  0  0  0  0  0
   43.6860   33.7280   38.7210 H   0  0  0  0  0  0  0  0  0  0  0  0
   43.6690   36.0520   40.0170 H   0  0  0  0  0  0  0  0  0  0  0  0
   39.9570   36.2570   40.1520 H   0  0  0  0  0  0  0  0  0  0  0  0
   41.2310   36.6790   38.9820 H   0  0  0  0  0  0  0  0  0  0  0  0
   39.4690   34.2210   39.1820 H   0  0  0  0  0  0  0  0  0  0  0  0
   41.3380   33.4510   40.2010 H   0  0  0  0  0  0  0  0  0  0  0  0
   42.6510   35.2550   37.7820 O   0  0  0  0  0  0  0  0  0  0  0  0
   42.7880   34.7090   36.9580 H   0  0  0  0  0  0  0  0  0  0  0  0
   40.4660   34.9260   37.5010 O   0  0  0  0  0  0  0  0  0  0  0  0
   39.9070   34.2650   37.0500 H   0  0  0  0  0  0  0  0  0  0  0  0
   43.4750   34.2400   41.0940 O   0  0  0  0  0  0  0  0  0  0  0  0
   44.6070   34.3490   41.8020 C   0  0  0  0  0  0  0  0  0  0  0  0
   45.8480   34.4700   41.1610 C   0  0  0  0  0  0  0  0  0  0  0  0
   46.9870   34.5800   41.9420 C   0  0  0  0  0  0  0  0  0  0  0  0
   46.8660   34.5690   43.3210 N   0  0  0  0  0  0  0  0  0  0  0  0
   45.6510   34.4520   43.9020 C   0  0  0  0  0  0  0  0  0  0  0  0
   44.5280   34.3420   43.1480 N   0  0  0  0  0  0  0  0  0  0  0  0
   45.9290   34.4770   40.0810 H   0  0  0  0  0  0  0  0  0  0  0  0
   45.6260   34.4490   44.9880 H   0  0  0  0  0  0  0  0  0  0  0  0
   48.3500   34.7010   41.3210 C   0  0  0  0  0  0  0  0  0  0  0  0
   49.0680   36.0330   41.5210 C   0  0  0  0  0  0  0  0  0  0  0  0
   49.5230   34.7010   42.1420 C   0  0  0  0  0  0  0  0  0  0  0  0
   48.3330   34.4260   40.2370 H   0  0  0  0  0  0  0  0  0  0  0  0
   48.6270   36.7230   42.2930 H   0  0  0  0  0  0  0  0  0  0  0  0
   49.6660   36.4560   40.7180 H   0  0  0  0  0  0  0  0  0  0  0  0
   50.4940   34.3430   41.7340 H   0  0  0  0  0  0  0  0  0  0  0  0
   49.4400   34.5570   43.2220 H   0  0  0  0  0  0  0  0  0  0  0  0
   41.3260   32.5630   38.2480 O   0  0  0  0  0  0  0  0  0  0  0  0
   40.4450   31.5620   38.2810 C   0  0  0  0  0  0  0  0  0  0  0  0
   39.4370   31.4840   37.4180 O   0  0  0  0  0  0  0  0  0  0  0  0
   40.8280   31.0780   41.1610 H   0  0  0  0  0  0  0  0  0  0  0  0
   40.5430   30.3780   40.4710 N   0  0  0  0  0  0  0  0  0  0  0  0
   40.3180   30.3440   39.1760 C   0  0  0  0  0  0  0  0  0  0  0  0
   39.9580   29.0570   38.8750 N   0  0  0  0  0  0  0  0  0  0  0  0
   39.9620   28.3050   39.9720 C   0  0  0  0  0  0  0  0  0  0  0  0
   39.6580   26.9650   40.0850 C   0  0  0  0  0  0  0  0  0  0  0  0
   39.3700   26.3430   39.2650 H   0  0  0  0  0  0  0  0  0  0  0  0
   39.7480   26.4560   41.3450 N   0  0  0  0  0  0  0  0  0  0  0  0
   40.1110   27.2400   42.3830 C   0  0  0  0  0  0  0  0  0  0  0  0
   40.1980   26.8910   43.4030 H   0  0  0  0  0  0  0  0  0  0  0  0
   40.3890   28.5370   42.1830 N   0  0  0  0  0  0  0  0  0  0  0  0
   40.3330   29.1350   40.9990 C   0  0  0  0  0  0  0  0  0  0  0  0
  1  7  1  6  0  0  0
  1  6  1  0  0  0  0
  1  2  1  0  0  0  0
  2  8  1  6  0  0  0
  2  3  1  0  0  0  0
  2 17  1  0  0  0  0
  4  9  1  0  0  0  0
  4  3  1  0  0  0  0
  5  6  1  0  0  0  0
  5 11  1  1  0  0  0
  5  4  1  0  0  0  0
  6 12  1  1  0  0  0
 10  4  1  0  0  0  0
 13  1  1  0  0  0  0
 14 13  1  0  0  0  0
 15  5  1  0  0  0  0
 16 15  1  0  0  0  0
 17 18  1  0  0  0  0
 18 23  1  0  0  0  0
 19 18  2  0  0  0  0
 19 20  1  0  0  0  0
 20 21  2  0  0  0  0
 21 22  1  0  0  0  0
 22 25  1  0  0  0  0
 23 22  2  0  0  0  0
 24 19  1  0  0  0  0
 26 27  1  0  0  0  0
 26 20  1  0  0  0  0
 26 28  1  0  0  0  0
 27 28  1  0  0  0  0
 27 30  1  0  0  0  0
 28 33  1  0  0  0  0
 29 26  1  0  0  0  0
 31 27  1  0  0  0  0
 32 28  1  0  0  0  0
 34 35  1  0  0  0  0
 34  6  1  0  0  0  0
 35 39  1  0  0  0  0
 36 35  2  0  0  0  0
 38 48  1  0  0  0  0
 38 37  1  0  0  0  0
 39 38  1  0  0  0  0
 40 39  2  0  0  0  0
 40 41  1  0  0  0  0
 41 42  2  0  0  0  0
 41 48  1  0  0  0  0
 42 44  1  0  0  0  0
 43 42  1  0  0  0  0
 44 45  2  0  0  0  0
 45 46  1  0  0  0  0
 47 45  1  0  0  0  0
 48 47  2  0  0  0  0
M  END
>  <minimizedAffinity>
-6.09711123

>  <minimizedRMSD>
1.56914735

$$$$
