
 OpenBabel03252507463D

 40 43  0  0  0  0  0  0  0  0999 V2000
   48.5820   33.8240   41.1970 C   0  0  0  0  0  0  0  0  0  0  0  0
   49.0440   32.6620   40.6100 C   0  0  0  0  0  0  0  0  0  0  0  0
   50.2690   32.0910   40.9350 C   0  0  0  0  0  0  0  0  0  0  0  0
   50.9980   32.7680   41.8940 N   0  0  0  0  0  0  0  0  0  0  0  0
   50.5220   33.8970   42.4490 C   0  0  0  0  0  0  0  0  0  0  0  0
   49.3420   34.4060   42.1030 N   0  0  0  0  0  0  0  0  0  0  0  0
   50.5820   31.1910   40.4520 H   0  0  0  0  0  0  0  0  0  0  0  0
   51.1930   34.3280   43.1850 H   0  0  0  0  0  0  0  0  0  0  0  0
   47.2670   34.3030   40.7470 C   0  0  0  0  0  0  0  0  0  0  0  0
   47.3270   34.9990   39.8690 H   0  0  0  0  0  0  0  0  0  0  0  0
   46.6080   33.4730   40.4200 H   0  0  0  0  0  0  0  0  0  0  0  0
   46.5030   35.0090   41.8410 C   0  0  0  0  0  0  0  0  0  0  0  0
   46.7900   36.0810   41.8100 H   0  0  0  0  0  0  0  0  0  0  0  0
   46.8270   34.6640   42.8620 H   0  0  0  0  0  0  0  0  0  0  0  0
   45.0310   34.9600   41.6790 C   0  0  0  0  0  0  0  0  0  0  0  0
   44.1950   35.4940   42.6980 C   0  0  0  0  0  0  0  0  0  0  0  0
   42.5050   35.2040   42.0500 S   0  0  0  0  0  0  0  0  0  0  0  0
   43.2290   34.3930   40.4810 C   0  0  0  0  0  0  0  0  0  0  0  0
   44.3480   34.4680   40.6790 N   0  0  0  0  0  0  0  0  0  0  0  0
   44.4970   35.9580   43.6280 H   0  0  0  0  0  0  0  0  0  0  0  0
   42.4330   33.8950   39.4620 O   0  0  0  0  0  0  0  0  0  0  0  0
   40.4970   34.2820   37.6930 O   0  0  0  0  0  0  0  0  0  0  0  0
   41.5580   34.9920   38.5140 P   0  0  0  0  0  0  0  0  0  0  0  0
   40.8010   36.0890   39.5630 O   0  0  0  0  0  0  0  0  0  0  0  0
   40.4430   35.5510   40.3160 H   0  0  0  0  0  0  0  0  0  0  0  0
   42.6360   35.8600   37.5190 O   0  0  0  0  0  0  0  0  0  0  0  0
   42.9470   35.2550   36.7800 H   0  0  0  0  0  0  0  0  0  0  0  0
   48.0530   31.8250   39.3360 S   0  0  0  0  0  0  0  0  0  0  0  0
   49.3480   32.7440   36.6420 H   0  0  0  0  0  0  0  0  0  0  0  0
   49.5930   31.7740   36.9400 N   0  0  0  0  0  0  0  0  0  0  0  0
   49.1390   31.1950   38.0650 C   0  0  0  0  0  0  0  0  0  0  0  0
   49.6330   29.9480   38.1670 N   0  0  0  0  0  0  0  0  0  0  0  0
   50.4210   29.6870   37.1070 C   0  0  0  0  0  0  0  0  0  0  0  0
   51.1690   28.6040   36.6880 C   0  0  0  0  0  0  0  0  0  0  0  0
   51.1370   27.7310   37.3560 H   0  0  0  0  0  0  0  0  0  0  0  0
   51.8770   28.6660   35.5270 N   0  0  0  0  0  0  0  0  0  0  0  0
   51.8110   29.8180   34.8160 C   0  0  0  0  0  0  0  0  0  0  0  0
   52.4070   29.7810   33.9020 H   0  0  0  0  0  0  0  0  0  0  0  0
   51.0890   30.9100   35.1870 N   0  0  0  0  0  0  0  0  0  0  0  0
   50.3800   30.8470   36.3500 C   0  0  0  0  0  0  0  0  0  0  0  0
  1  6  1  0  0  0  0
  2  3  1  0  0  0  0
  2  1  2  0  0  0  0
  3  4  2  0  0  0  0
  4  5  1  0  0  0  0
  5  8  1  0  0  0  0
  6  5  2  0  0  0  0
  7  3  1  0  0  0  0
  9  1  1  0  0  0  0
  9 12  1  0  0  0  0
 10  9  1  0  0  0  0
 11  9  1  0  0  0  0
 12 14  1  0  0  0  0
 13 12  1  0  0  0  0
 15 12  1  0  0  0  0
 15 16  2  0  0  0  0
 16 20  1  0  0  0  0
 17 16  1  0  0  0  0
 18 19  2  0  0  0  0
 18 17  1  0  0  0  0
 19 15  1  0  0  0  0
 21 18  1  0  0  0  0
 22 23  2  0  0  0  0
 23 21  1  0  0  0  0
 23 24  1  0  0  0  0
 24 25  1  0  0  0  0
 26 23  1  0  0  0  0
 27 26  1  0  0  0  0
 28  2  1  0  0  0  0
 29 30  1  0  0  0  0
 30 31  1  0  0  0  0
 31 32  2  0  0  0  0
 31 28  1  0  0  0  0
 33 32  1  0  0  0  0
 34 33  1  0  0  0  0
 34 35  1  0  0  0  0
 36 34  2  0  0  0  0
 37 39  2  0  0  0  0
 37 36  1  0  0  0  0
 38 37  1  0  0  0  0
 39 40  1  0  0  0  0
 40 30  1  0  0  0  0
 40 33  2  0  0  0  0
M  END
>  <minimizedAffinity>
-4.79467535

>  <minimizedRMSD>
1.85922289

$$$$
