
 OpenBabel03252500173D

 23 25  0  0  0  0  0  0  0  0999 V2000
   47.0570   33.0930   43.5490 N   0  0  0  0  0  0  0  0  0  0  0  0
   46.8690   31.7570   43.4790 C   0  0  0  0  0  0  0  0  0  0  0  0
   45.9560   31.2520   43.7620 H   0  0  0  0  0  0  0  0  0  0  0  0
   47.9800   31.1710   43.0080 N   0  0  0  0  0  0  0  0  0  0  0  0
   48.9240   32.0980   42.7560 C   0  0  0  0  0  0  0  0  0  0  0  0
   50.2140   32.0330   42.2740 C   0  0  0  0  0  0  0  0  0  0  0  0
   50.5650   31.0530   42.0430 H   0  0  0  0  0  0  0  0  0  0  0  0
   50.9220   33.1890   42.1340 N   0  0  0  0  0  0  0  0  0  0  0  0
   50.3250   34.3640   42.4760 C   0  0  0  0  0  0  0  0  0  0  0  0
   50.9010   35.2930   42.3610 H   0  0  0  0  0  0  0  0  0  0  0  0
   49.0630   34.4150   42.9480 N   0  0  0  0  0  0  0  0  0  0  0  0
   48.3140   33.2900   43.1060 C   0  0  0  0  0  0  0  0  0  0  0  0
   44.7890   36.0440   44.0050 C   0  0  0  0  0  0  0  0  0  0  0  0
   45.6870   35.2260   43.3210 C   0  0  0  0  0  0  0  0  0  0  0  0
   46.1480   34.0970   43.9890 C   0  0  0  0  0  0  0  0  0  0  0  0
   45.7130   33.8410   45.2620 N   0  0  0  0  0  0  0  0  0  0  0  0
   44.8420   34.6680   45.8790 C   0  0  0  0  0  0  0  0  0  0  0  0
   44.3760   35.7820   45.2390 N   0  0  0  0  0  0  0  0  0  0  0  0
   44.3630   34.4430   47.1960 N   0  0  0  0  0  0  0  0  0  0  0  0
   44.4710   36.9030   43.4270 H   0  0  0  0  0  0  0  0  0  0  0  0
   46.0930   35.3150   42.3470 H   0  0  0  0  0  0  0  0  0  0  0  0
   43.5180   33.9460   47.5410 H   0  0  0  0  0  0  0  0  0  0  0  0
   45.1080   34.9260   47.7750 H   0  0  0  0  0  0  0  0  0  0  0  0
  1 15  1  0  0  0  0
  2  1  1  0  0  0  0
  2  3  1  0  0  0  0
  4  2  2  0  0  0  0
  5  4  1  0  0  0  0
  5 12  1  0  0  0  0
  6  5  2  0  0  0  0
  7  6  1  0  0  0  0
  8  6  1  0  0  0  0
  8  9  2  0  0  0  0
  9 11  1  0  0  0  0
 10  9  1  0  0  0  0
 11 12  2  0  0  0  0
 12  1  1  0  0  0  0
 13 18  1  0  0  0  0
 14 15  1  0  0  0  0
 14 13  2  0  0  0  0
 15 16  2  0  0  0  0
 16 17  1  0  0  0  0
 17 19  1  0  0  0  0
 18 17  2  0  0  0  0
 19 22  1  0  0  0  0
 19 23  1  0  0  0  0
 20 13  1  0  0  0  0
 21 14  1  0  0  0  0
M  END
>  <minimizedAffinity>
-5.37638235

>  <minimizedRMSD>
1.07398522

$$$$
