
 OpenBabel03252507463D

 40 43  0  0  0  0  0  0  0  0999 V2000
   48.4020   33.7900   41.3280 C   0  0  0  0  0  0  0  0  0  0  0  0
   48.3610   32.4230   41.1290 C   0  0  0  0  0  0  0  0  0  0  0  0
   49.4090   31.5800   41.4790 C   0  0  0  0  0  0  0  0  0  0  0  0
   50.5040   32.2060   42.0460 N   0  0  0  0  0  0  0  0  0  0  0  0
   50.5150   33.5380   42.2290 C   0  0  0  0  0  0  0  0  0  0  0  0
   49.4850   34.3040   41.8760 N   0  0  0  0  0  0  0  0  0  0  0  0
   49.3280   30.5300   41.3040 H   0  0  0  0  0  0  0  0  0  0  0  0
   51.4320   33.9000   42.6820 H   0  0  0  0  0  0  0  0  0  0  0  0
   47.2150   34.5470   40.9050 C   0  0  0  0  0  0  0  0  0  0  0  0
   47.4650   35.4620   40.3060 H   0  0  0  0  0  0  0  0  0  0  0  0
   46.5430   33.9450   40.2580 H   0  0  0  0  0  0  0  0  0  0  0  0
   46.3600   34.9810   42.0710 C   0  0  0  0  0  0  0  0  0  0  0  0
   46.6140   36.0380   42.2960 H   0  0  0  0  0  0  0  0  0  0  0  0
   46.6280   34.4240   43.0110 H   0  0  0  0  0  0  0  0  0  0  0  0
   44.9040   34.9430   41.8000 C   0  0  0  0  0  0  0  0  0  0  0  0
   43.9970   35.4700   42.7600 C   0  0  0  0  0  0  0  0  0  0  0  0
   42.3580   35.2000   41.9840 S   0  0  0  0  0  0  0  0  0  0  0  0
   43.1920   34.4040   40.4630 C   0  0  0  0  0  0  0  0  0  0  0  0
   44.2940   34.4690   40.7450 N   0  0  0  0  0  0  0  0  0  0  0  0
   44.2320   35.9200   43.7160 H   0  0  0  0  0  0  0  0  0  0  0  0
   42.4720   33.9250   39.3810 O   0  0  0  0  0  0  0  0  0  0  0  0
   40.5000   34.3100   37.6520 O   0  0  0  0  0  0  0  0  0  0  0  0
   41.5640   35.0230   38.4680 P   0  0  0  0  0  0  0  0  0  0  0  0
   40.8070   36.0890   39.5480 O   0  0  0  0  0  0  0  0  0  0  0  0
   40.4710   35.5320   40.2980 H   0  0  0  0  0  0  0  0  0  0  0  0
   42.6100   35.9260   37.4700 O   0  0  0  0  0  0  0  0  0  0  0  0
   42.9180   35.3390   36.7150 H   0  0  0  0  0  0  0  0  0  0  0  0
   46.9050   31.6560   40.3560 S   0  0  0  0  0  0  0  0  0  0  0  0
   45.3230   30.8550   37.7810 H   0  0  0  0  0  0  0  0  0  0  0  0
   46.2190   31.3590   37.6070 N   0  0  0  0  0  0  0  0  0  0  0  0
   47.0430   31.7870   38.5800 C   0  0  0  0  0  0  0  0  0  0  0  0
   48.1110   32.3970   38.0360 N   0  0  0  0  0  0  0  0  0  0  0  0
   48.0060   32.3790   36.6940 C   0  0  0  0  0  0  0  0  0  0  0  0
   48.7800   32.8410   35.6460 C   0  0  0  0  0  0  0  0  0  0  0  0
   49.7100   33.3490   35.9450 H   0  0  0  0  0  0  0  0  0  0  0  0
   48.3760   32.6560   34.3610 N   0  0  0  0  0  0  0  0  0  0  0  0
   47.2010   32.0090   34.1620 C   0  0  0  0  0  0  0  0  0  0  0  0
   46.9540   31.9040   33.1030 H   0  0  0  0  0  0  0  0  0  0  0  0
   46.4050   31.5370   35.1600 N   0  0  0  0  0  0  0  0  0  0  0  0
   46.8110   31.7230   36.4480 C   0  0  0  0  0  0  0  0  0  0  0  0
  1  6  1  0  0  0  0
  2  1  2  0  0  0  0
  2  3  1  0  0  0  0
  3  4  2  0  0  0  0
  4  5  1  0  0  0  0
  5  8  1  0  0  0  0
  6  5  2  0  0  0  0
  7  3  1  0  0  0  0
  9  1  1  0  0  0  0
  9 12  1  0  0  0  0
 10  9  1  0  0  0  0
 11  9  1  0  0  0  0
 12 13  1  0  0  0  0
 12 14  1  0  0  0  0
 15 12  1  0  0  0  0
 15 16  2  0  0  0  0
 16 20  1  0  0  0  0
 17 16  1  0  0  0  0
 18 19  2  0  0  0  0
 18 17  1  0  0  0  0
 19 15  1  0  0  0  0
 21 18  1  0  0  0  0
 22 23  2  0  0  0  0
 23 21  1  0  0  0  0
 23 24  1  0  0  0  0
 24 25  1  0  0  0  0
 26 23  1  0  0  0  0
 27 26  1  0  0  0  0
 28  2  1  0  0  0  0
 30 29  1  0  0  0  0
 30 31  1  0  0  0  0
 31 28  1  0  0  0  0
 32 31  2  0  0  0  0
 33 32  1  0  0  0  0
 34 35  1  0  0  0  0
 34 33  2  0  0  0  0
 36 34  1  0  0  0  0
 37 36  2  0  0  0  0
 37 39  1  0  0  0  0
 38 37  1  0  0  0  0
 39 40  2  0  0  0  0
 40 33  1  0  0  0  0
 40 30  1  0  0  0  0
M  END
>  <minimizedAffinity>
-5.0996666

>  <minimizedRMSD>
3.17486715

$$$$
