
 OpenBabel03252509093D

 44 48  0  0  0  0  0  0  0  0999 V2000
   48.7630   31.9320   38.8450 C   0  0  0  0  0  0  0  0  0  0  0  0
   48.2180   32.8480   37.9960 C   0  0  0  0  0  0  0  0  0  0  0  0
   47.8970   34.1110   38.4620 C   0  0  0  0  0  0  0  0  0  0  0  0
   48.1260   34.4440   39.7750 C   0  0  0  0  0  0  0  0  0  0  0  0
   48.6830   33.5350   40.6730 C   0  0  0  0  0  0  0  0  0  0  0  0
   49.0000   32.2650   40.1820 C   0  0  0  0  0  0  0  0  0  0  0  0
   47.4610   34.8700   37.8230 H   0  0  0  0  0  0  0  0  0  0  0  0
   47.9160   35.3890   40.2440 H   0  0  0  0  0  0  0  0  0  0  0  0
   48.8880   33.7260   41.7020 H   0  0  0  0  0  0  0  0  0  0  0  0
   49.4380   31.5400   40.8740 H   0  0  0  0  0  0  0  0  0  0  0  0
   44.8520   31.6320   34.2730 Cl  0  0  0  0  0  0  0  0  0  0  0  0
   46.4350   32.0570   34.8770 C   0  0  0  0  0  0  0  0  0  0  0  0
   46.6460   32.2870   36.1980 C   0  0  0  0  0  0  0  0  0  0  0  0
   47.9380   32.6010   36.5790 C   0  0  0  0  0  0  0  0  0  0  0  0
   48.9650   32.6800   35.6710 C   0  0  0  0  0  0  0  0  0  0  0  0
   48.7350   32.4470   34.3560 C   0  0  0  0  0  0  0  0  0  0  0  0
   47.4550   32.1330   33.9610 C   0  0  0  0  0  0  0  0  0  0  0  0
   49.9570   32.9330   36.0460 H   0  0  0  0  0  0  0  0  0  0  0  0
   49.5750   32.5240   33.7000 H   0  0  0  0  0  0  0  0  0  0  0  0
   47.3000   31.9510   32.9040 H   0  0  0  0  0  0  0  0  0  0  0  0
   43.6650   33.1460   38.3470 C   0  0  0  0  0  0  0  0  0  0  0  0
   44.7370   33.2580   37.4570 C   0  0  0  0  0  0  0  0  0  0  0  0
   45.5310   32.1830   37.1210 C   0  0  0  0  0  0  0  0  0  0  0  0
   45.1840   31.0140   37.7250 N   0  0  0  0  0  0  0  0  0  0  0  0
   44.1640   30.8960   38.5750 C   0  0  0  0  0  0  0  0  0  0  0  0
   43.4130   31.9580   38.8810 N   0  0  0  0  0  0  0  0  0  0  0  0
   43.1250   34.0760   38.5210 H   0  0  0  0  0  0  0  0  0  0  0  0
   44.9790   34.2040   36.9980 H   0  0  0  0  0  0  0  0  0  0  0  0
   43.9860   29.9150   38.9920 H   0  0  0  0  0  0  0  0  0  0  0  0
   49.2040   30.4030   38.3030 S   0  0  0  0  0  0  0  0  0  0  0  0
   49.4480   29.4300   39.4350 O   0  0  0  0  0  0  0  0  0  0  0  0
   47.8840   29.8450   37.6510 O   0  0  0  0  0  0  0  0  0  0  0  0
   52.1630   30.5210   38.3670 H   0  0  0  0  0  0  0  0  0  0  0  0
   51.7100   30.2440   37.4360 N   0  0  0  0  0  0  0  0  0  0  0  0
   50.3800   30.0900   37.0940 C   0  0  0  0  0  0  0  0  0  0  0  0
   50.5550   29.7420   35.8070 N   0  0  0  0  0  0  0  0  0  0  0  0
   51.8070   29.6890   35.4150 C   0  0  0  0  0  0  0  0  0  0  0  0
   52.2730   29.3570   34.1430 C   0  0  0  0  0  0  0  0  0  0  0  0
   51.6020   29.1030   33.3320 H   0  0  0  0  0  0  0  0  0  0  0  0
   53.6180   29.3650   33.9600 N   0  0  0  0  0  0  0  0  0  0  0  0
   54.4150   29.6880   34.9960 C   0  0  0  0  0  0  0  0  0  0  0  0
   55.4760   29.6930   34.8420 H   0  0  0  0  0  0  0  0  0  0  0  0
   53.9270   30.0090   36.2320 N   0  0  0  0  0  0  0  0  0  0  0  0
   52.6100   30.0170   36.4720 C   0  0  0  0  0  0  0  0  0  0  0  0
  1  6  1  0  0  0  0
  2  3  1  0  0  0  0
  2  1  2  0  0  0  0
  3  4  2  0  0  0  0
  4  8  1  0  0  0  0
  4  5  1  0  0  0  0
  5  9  1  0  0  0  0
  6  5  2  0  0  0  0
  6 10  1  0  0  0  0
  7  3  1  0  0  0  0
 11 12  1  0  0  0  0
 12 13  1  0  0  0  0
 13 14  2  0  0  0  0
 13 23  1  0  0  0  0
 14  2  1  0  0  0  0
 15 18  1  0  0  0  0
 15 14  1  0  0  0  0
 16 15  2  0  0  0  0
 17 16  1  0  0  0  0
 17 12  2  0  0  0  0
 19 16  1  0  0  0  0
 20 17  1  0  0  0  0
 21 27  1  0  0  0  0
 21 26  1  0  0  0  0
 22 21  2  0  0  0  0
 23 22  1  0  0  0  0
 23 24  2  0  0  0  0
 24 25  1  0  0  0  0
 25 26  2  0  0  0  0
 25 29  1  0  0  0  0
 28 22  1  0  0  0  0
 30  1  1  0  0  0  0
 30 31  2  0  0  0  0
 32 30  2  0  0  0  0
 34 33  1  0  0  0  0
 35 34  1  0  0  0  0
 35 30  1  0  0  0  0
 36 35  2  0  0  0  0
 37 36  1  0  0  0  0
 37 44  1  0  0  0  0
 38 37  2  0  0  0  0
 39 38  1  0  0  0  0
 40 38  1  0  0  0  0
 40 41  2  0  0  0  0
 41 43  1  0  0  0  0
 42 41  1  0  0  0  0
 43 44  2  0  0  0  0
 44 34  1  0  0  0  0
M  END
>  <minimizedAffinity>
-4.3213253

>  <minimizedRMSD>
7.72050762

$$$$
