
 OpenBabel03252505063D

 46 50  0  0  1  0  0  0  0  0999 V2000
   44.5690   35.5840   44.5740 C   0  0  0  0  0  0  0  0  0  0  0  0
   45.2320   35.5980   43.3270 C   0  0  0  0  0  0  0  0  0  0  0  0
   46.3240   34.6900   43.1630 C   0  0  0  0  0  0  0  0  0  0  0  0
   46.6730   33.8730   44.1810 N   0  0  0  0  0  0  0  0  0  0  0  0
   46.0030   33.9010   45.3570 C   0  0  0  0  0  0  0  0  0  0  0  0
   44.9500   34.7540   45.5590 N   0  0  0  0  0  0  0  0  0  0  0  0
   43.7510   36.2810   44.6640 H   0  0  0  0  0  0  0  0  0  0  0  0
   44.9830   36.2260   42.5060 H   0  0  0  0  0  0  0  0  0  0  0  0
   47.0290   34.6770   41.8780 C   0  0  0  0  0  0  0  0  0  0  0  0
   48.1820   35.3870   41.7730 C   0  0  0  0  0  0  0  0  0  0  0  0
   48.8170   35.3500   40.5320 C   0  0  0  0  0  0  0  0  0  0  0  0
   48.2210   34.6030   39.5390 C   0  0  0  0  0  0  0  0  0  0  0  0
   47.0620   33.8910   39.6520 C   0  0  0  0  0  0  0  0  0  0  0  0
   46.4680   33.9540   40.8890 N   0  0  0  0  0  0  0  0  0  0  0  0
   48.5800   35.9470   42.6050 H   0  0  0  0  0  0  0  0  0  0  0  0
   49.7440   35.8970   40.3820 H   0  0  0  0  0  0  0  0  0  0  0  0
   48.7060   34.5650   38.5690 H   0  0  0  0  0  0  0  0  0  0  0  0
   46.4910   33.1340   38.5890 N   0  0  0  0  0  0  0  0  0  0  0  0
   46.5640   33.4410   37.2770 C   0  0  0  0  0  0  0  0  0  0  0  0
   47.0570   34.2930   36.8200 H   0  0  0  0  0  0  0  0  0  0  0  0
   45.9270   32.5330   36.5480 N   0  0  0  0  0  0  0  0  0  0  0  0
   45.4080   31.5890   37.3590 C   0  0  0  0  0  0  0  0  0  0  0  0
   44.6620   30.4210   37.2290 C   0  0  0  0  0  0  0  0  0  0  0  0
   44.4070   30.1610   36.2160 H   0  0  0  0  0  0  0  0  0  0  0  0
   44.3200   29.7170   38.3270 N   0  0  0  0  0  0  0  0  0  0  0  0
   44.6830   30.1180   39.5450 C   0  0  0  0  0  0  0  0  0  0  0  0
   44.3920   29.5300   40.4050 H   0  0  0  0  0  0  0  0  0  0  0  0
   45.4100   31.2530   39.7030 N   0  0  0  0  0  0  0  0  0  0  0  0
   45.7840   32.0020   38.6400 C   0  0  0  0  0  0  0  0  0  0  0  0
   46.4330   32.9850   46.4430 C   0  0  2  0  0  0  0  0  0  0  0  0
   46.9610   31.7530   45.7630 C   0  0  0  0  0  0  0  0  0  0  0  0
   46.0890   30.5670   45.7820 C   0  0  0  0  0  0  0  0  0  0  0  0
   45.7810   30.3130   47.2520 C   0  0  0  0  0  0  0  0  0  0  0  0
   44.9900   31.3850   47.8540 C   0  0  0  0  0  0  0  0  0  0  0  0
   45.3700   32.7580   47.3980 C   0  0  0  0  0  0  0  0  0  0  0  0
   47.2730   33.5170   46.9530 H   0  0  0  0  0  0  0  0  0  0  0  0
   47.9230   31.4850   46.2460 H   0  0  0  0  0  0  0  0  0  0  0  0
   47.2420   31.9480   44.6910 H   0  0  0  0  0  0  0  0  0  0  0  0
   46.6730   29.6960   45.4510 H   0  0  0  0  0  0  0  0  0  0  0  0
   45.1790   30.7410   45.1980 H   0  0  0  0  0  0  0  0  0  0  0  0
   46.7310   30.1180   47.7690 H   0  0  0  0  0  0  0  0  0  0  0  0
   45.1350   29.4210   47.2600 H   0  0  0  0  0  0  0  0  0  0  0  0
   44.1790   31.3670   48.5680 H   0  0  0  0  0  0  0  0  0  0  0  0
   44.6750   33.8900   47.9090 N   0  0  0  0  0  0  0  0  0  0  0  0
   45.0260   34.4960   48.6870 H   0  0  0  0  0  0  0  0  0  0  0  0
   43.7610   34.2280   47.5670 H   0  0  0  0  0  0  0  0  0  0  0  0
  1  7  1  0  0  0  0
  1  6  1  0  0  0  0
  2  1  2  0  0  0  0
  3  2  1  0  0  0  0
  3  4  2  0  0  0  0
  4  5  1  0  0  0  0
  5  6  2  0  0  0  0
  5 30  1  0  0  0  0
  8  2  1  0  0  0  0
  9  3  1  0  0  0  0
 10  9  1  0  0  0  0
 10 15  1  0  0  0  0
 11 10  2  0  0  0  0
 12 13  2  0  0  0  0
 12 11  1  0  0  0  0
 13 14  1  0  0  0  0
 14  9  2  0  0  0  0
 16 11  1  0  0  0  0
 17 12  1  0  0  0  0
 18 29  1  0  0  0  0
 18 13  1  0  0  0  0
 19 18  1  0  0  0  0
 20 19  1  0  0  0  0
 21 19  2  0  0  0  0
 21 22  1  0  0  0  0
 22 29  1  0  0  0  0
 23 22  2  0  0  0  0
 23 25  1  0  0  0  0
 24 23  1  0  0  0  0
 25 26  2  0  0  0  0
 26 28  1  0  0  0  0
 26 27  1  0  0  0  0
 29 28  2  0  0  0  0
 30 36  1  1  0  0  0
 30 35  1  0  0  0  0
 31 32  1  0  0  0  0
 31 37  1  0  0  0  0
 31 30  1  0  0  0  0
 32 33  1  0  0  0  0
 33 42  1  0  0  0  0
 33 41  1  0  0  0  0
 33 34  1  0  0  0  0
 34 43  1  0  0  0  0
 35 34  2  0  0  0  0
 35 44  1  0  0  0  0
 38 31  1  0  0  0  0
 39 32  1  0  0  0  0
 40 32  1  0  0  0  0
 44 45  1  0  0  0  0
 46 44  1  0  0  0  0
M  END
>  <minimizedAffinity>
-7.78478098

>  <minimizedRMSD>
0.100318991

$$$$
