
 OpenBabel03252508293D

 42 46  0  0  1  0  0  0  0  0999 V2000
   42.7410   33.2990   41.2620 N   0  0  0  0  0  0  0  0  0  0  0  0
   43.2410   34.5550   41.8320 C   0  0  2  0  0  0  0  0  0  0  0  0
   43.5970   35.5530   40.7880 C   0  0  0  0  0  0  0  0  0  0  0  0
   43.1090   35.1790   39.4740 N   0  0  0  0  0  0  0  0  0  0  0  0
   43.4360   33.8610   39.0700 C   0  0  0  0  0  0  0  0  0  0  0  0
   43.7430   32.9490   40.2290 C   0  0  2  0  0  0  0  0  0  0  0  0
   41.8340   33.5320   40.7750 H   0  0  0  0  0  0  0  0  0  0  0  0
   42.4860   34.9640   42.5210 H   0  0  0  0  0  0  0  0  0  0  0  0
   44.6720   35.6840   40.5750 H   0  0  0  0  0  0  0  0  0  0  0  0
   43.1350   36.5650   40.9840 H   0  0  0  0  0  0  0  0  0  0  0  0
   43.4790   35.8600   38.7800 H   0  0  0  0  0  0  0  0  0  0  0  0
   44.2090   33.8010   38.2980 H   0  0  0  0  0  0  0  0  0  0  0  0
   42.5120   33.4300   38.5860 H   0  0  0  0  0  0  0  0  0  0  0  0
   44.7450   33.2650   40.6020 H   0  0  0  0  0  0  0  0  0  0  0  0
   43.7160   31.5630   39.9040 N   0  0  0  0  0  0  0  0  0  0  0  0
   43.6340   31.0810   38.6300 C   0  0  0  0  0  0  0  0  0  0  0  0
   43.5800   31.7110   37.7280 H   0  0  0  0  0  0  0  0  0  0  0  0
   43.6260   29.7500   38.6080 N   0  0  0  0  0  0  0  0  0  0  0  0
   43.7060   29.3590   39.9000 C   0  0  0  0  0  0  0  0  0  0  0  0
   43.7360   28.0960   40.4610 C   0  0  0  0  0  0  0  0  0  0  0  0
   43.6900   27.2510   39.7890 H   0  0  0  0  0  0  0  0  0  0  0  0
   43.8200   28.0020   41.8020 N   0  0  0  0  0  0  0  0  0  0  0  0
   43.8740   29.1120   42.5930 C   0  0  0  0  0  0  0  0  0  0  0  0
   43.9400   28.9100   43.6530 H   0  0  0  0  0  0  0  0  0  0  0  0
   43.8440   30.3530   42.0270 N   0  0  0  0  0  0  0  0  0  0  0  0
   43.7610   30.5050   40.6970 C   0  0  0  0  0  0  0  0  0  0  0  0
   45.8600   33.3340   43.9980 C   0  0  0  0  0  0  0  0  0  0  0  0
   46.4610   34.3790   43.2960 C   0  0  0  0  0  0  0  0  0  0  0  0
   45.5510   34.9490   42.4230 C   0  0  0  0  0  0  0  0  0  0  0  0
   44.4340   34.2490   42.6080 N   0  0  0  0  0  0  0  0  0  0  0  0
   44.6120   33.3080   43.5260 N   0  0  0  0  0  0  0  0  0  0  0  0
   47.5250   34.6040   43.5130 H   0  0  0  0  0  0  0  0  0  0  0  0
   46.0170   35.7660   41.8840 H   0  0  0  0  0  0  0  0  0  0  0  0
   47.6850   30.6110   45.8370 C   0  0  0  0  0  0  0  0  0  0  0  0
   47.0780   31.2890   44.7360 C   0  0  0  0  0  0  0  0  0  0  0  0
   46.5160   32.5110   45.0160 C   0  0  0  0  0  0  0  0  0  0  0  0
   46.5580   33.0130   46.2860 N   0  0  0  0  0  0  0  0  0  0  0  0
   47.1460   32.3320   47.2980 C   0  0  0  0  0  0  0  0  0  0  0  0
   47.6970   31.1450   47.0500 N   0  0  0  0  0  0  0  0  0  0  0  0
   48.1110   29.6420   45.5280 H   0  0  0  0  0  0  0  0  0  0  0  0
   47.0470   30.8910   43.7310 H   0  0  0  0  0  0  0  0  0  0  0  0
   47.1470   32.7790   48.2730 H   0  0  0  0  0  0  0  0  0  0  0  0
  1  2  1  0  0  0  0
  2  8  1  1  0  0  0
  2 30  1  0  0  0  0
  3 10  1  0  0  0  0
  3  2  1  0  0  0  0
  4  3  1  0  0  0  0
  5  4  1  0  0  0  0
  5  6  1  0  0  0  0
  6 14  1  1  0  0  0
  6  1  1  0  0  0  0
  7  1  1  0  0  0  0
  9  3  1  0  0  0  0
 11  4  1  0  0  0  0
 12  5  1  0  0  0  0
 13  5  1  0  0  0  0
 15  6  1  0  0  0  0
 15 26  1  0  0  0  0
 16 15  1  0  0  0  0
 17 16  1  0  0  0  0
 18 16  2  0  0  0  0
 18 19  1  0  0  0  0
 19 20  2  0  0  0  0
 19 26  1  0  0  0  0
 20 22  1  0  0  0  0
 21 20  1  0  0  0  0
 22 23  2  0  0  0  0
 23 24  1  0  0  0  0
 25 23  1  0  0  0  0
 26 25  2  0  0  0  0
 27 36  1  0  0  0  0
 28 32  1  0  0  0  0
 28 27  1  0  0  0  0
 29 30  1  0  0  0  0
 29 28  2  0  0  0  0
 30 31  1  0  0  0  0
 31 27  2  0  0  0  0
 33 29  1  0  0  0  0
 34 39  1  0  0  0  0
 35 36  1  0  0  0  0
 35 34  2  0  0  0  0
 36 37  2  0  0  0  0
 37 38  1  0  0  0  0
 38 42  1  0  0  0  0
 39 38  2  0  0  0  0
 40 34  1  0  0  0  0
 41 35  1  0  0  0  0
M  END
>  <minimizedAffinity>
-3.99281931

>  <minimizedRMSD>
4.70647335

$$$$
