
 OpenBabel03252507433D

 34 37  0  0  0  0  0  0  0  0999 V2000
   44.1150   34.3010   41.5080 C   0  0  0  0  0  0  0  0  0  0  0  0
   43.5370   35.5360   41.9330 C   0  0  0  0  0  0  0  0  0  0  0  0
   41.8580   35.4830   41.1530 S   0  0  0  0  0  0  0  0  0  0  0  0
   42.2410   33.8070   40.3970 C   0  0  0  0  0  0  0  0  0  0  0  0
   43.2980   33.6020   40.7550 N   0  0  0  0  0  0  0  0  0  0  0  0
   44.0150   36.2830   42.5590 H   0  0  0  0  0  0  0  0  0  0  0  0
   41.3620   32.9970   39.5560 N   0  0  0  0  0  0  0  0  0  0  0  0
   41.5500   32.8300   38.2560 C   0  0  0  0  0  0  0  0  0  0  0  0
   42.2980   33.2000   37.5830 H   0  0  0  0  0  0  0  0  0  0  0  0
   40.5550   32.0340   37.8250 N   0  0  0  0  0  0  0  0  0  0  0  0
   39.7740   31.7270   38.8670 C   0  0  0  0  0  0  0  0  0  0  0  0
   38.6260   30.9640   39.0490 C   0  0  0  0  0  0  0  0  0  0  0  0
   38.2110   30.4720   38.1740 H   0  0  0  0  0  0  0  0  0  0  0  0
   38.0140   30.8050   40.2280 N   0  0  0  0  0  0  0  0  0  0  0  0
   38.5420   31.4220   41.3010 C   0  0  0  0  0  0  0  0  0  0  0  0
   38.0610   31.3100   42.2780 H   0  0  0  0  0  0  0  0  0  0  0  0
   39.6640   32.1790   41.1730 N   0  0  0  0  0  0  0  0  0  0  0  0
   40.2750   32.3360   39.9970 C   0  0  0  0  0  0  0  0  0  0  0  0
   45.5010   33.9400   41.9250 C   0  0  0  0  0  0  0  0  0  0  0  0
   45.7590   34.6310   42.7810 H   0  0  0  0  0  0  0  0  0  0  0  0
   45.5680   32.9190   42.3600 H   0  0  0  0  0  0  0  0  0  0  0  0
   46.5450   34.2030   40.8830 C   0  0  0  0  0  0  0  0  0  0  0  0
   46.3940   35.2800   40.5750 H   0  0  0  0  0  0  0  0  0  0  0  0
   46.4250   33.6270   39.9720 H   0  0  0  0  0  0  0  0  0  0  0  0
   47.9230   34.1510   41.4080 C   0  0  0  0  0  0  0  0  0  0  0  0
   48.6600   32.9920   41.1510 C   0  0  0  0  0  0  0  0  0  0  0  0
   49.9550   32.8850   41.6170 C   0  0  0  0  0  0  0  0  0  0  0  0
   50.4710   33.9340   42.3190 N   0  0  0  0  0  0  0  0  0  0  0  0
   49.7360   35.0380   42.5510 C   0  0  0  0  0  0  0  0  0  0  0  0
   48.4860   35.1350   42.0990 N   0  0  0  0  0  0  0  0  0  0  0  0
   50.4950   31.9760   41.3990 H   0  0  0  0  0  0  0  0  0  0  0  0
   50.2340   35.8340   43.1260 H   0  0  0  0  0  0  0  0  0  0  0  0
   47.9240   31.6410   40.2150 S   0  0  0  0  0  0  0  0  0  0  0  0
   48.0360   30.4770   40.9790 H   0  0  0  0  0  0  0  0  0  0  0  0
  1 19  1  0  0  0  0
  1  2  2  0  0  0  0
  2  6  1  0  0  0  0
  3  2  1  0  0  0  0
  4  5  2  0  0  0  0
  4  3  1  0  0  0  0
  5  1  1  0  0  0  0
  7 18  1  0  0  0  0
  7  4  1  0  0  0  0
  8  7  1  0  0  0  0
  9  8  1  0  0  0  0
 10  8  2  0  0  0  0
 10 11  1  0  0  0  0
 11 12  2  0  0  0  0
 11 18  1  0  0  0  0
 12 14  1  0  0  0  0
 13 12  1  0  0  0  0
 14 15  2  0  0  0  0
 15 16  1  0  0  0  0
 17 15  1  0  0  0  0
 18 17  2  0  0  0  0
 19 21  1  0  0  0  0
 19 20  1  0  0  0  0
 22 25  1  0  0  0  0
 22 19  1  0  0  0  0
 23 22  1  0  0  0  0
 24 22  1  0  0  0  0
 25 30  1  0  0  0  0
 26 25  2  0  0  0  0
 26 27  1  0  0  0  0
 27 28  2  0  0  0  0
 28 29  1  0  0  0  0
 29 32  1  0  0  0  0
 30 29  2  0  0  0  0
 31 27  1  0  0  0  0
 33 34  1  0  0  0  0
 33 26  1  0  0  0  0
M  END
>  <minimizedAffinity>
-5.10875225

>  <minimizedRMSD>
1.81252015

$$$$
