
 OpenBabel03242523543D

 48 52  0  0  1  0  0  0  0  0999 V2000
   42.6800   34.4960   38.8550 C   0  0  1  0  0  0  0  0  0  0  0  0
   42.9910   35.2040   40.1640 C   0  0  1  0  0  0  0  0  0  0  0  0
   41.7650   35.5470   40.7780 O   0  0  0  0  0  0  0  0  0  0  0  0
   40.7840   35.9150   39.8510 C   0  0  0  0  0  0  0  0  0  0  0  0
   40.3170   34.7300   39.0250 C   0  0  2  0  0  0  0  0  0  0  0  0
   41.4650   33.6660   39.1070 C   0  0  1  0  0  0  0  0  0  0  0  0
   43.5600   33.8560   38.5930 H   0  0  0  0  0  0  0  0  0  0  0  0
   43.6240   36.0970   40.0280 H   0  0  0  0  0  0  0  0  0  0  0  0
   39.9310   36.2520   40.4470 H   0  0  0  0  0  0  0  0  0  0  0  0
   41.1120   36.7590   39.2150 H   0  0  0  0  0  0  0  0  0  0  0  0
   39.3860   34.2740   39.3910 H   0  0  0  0  0  0  0  0  0  0  0  0
   41.3300   33.4640   40.2210 H   0  0  0  0  0  0  0  0  0  0  0  0
   42.4490   35.4260   37.8290 O   0  0  0  0  0  0  0  0  0  0  0  0
   42.5280   34.9340   36.9650 H   0  0  0  0  0  0  0  0  0  0  0  0
   40.2520   35.0910   37.6890 O   0  0  0  0  0  0  0  0  0  0  0  0
   39.6650   34.4530   37.2400 H   0  0  0  0  0  0  0  0  0  0  0  0
   43.5220   34.2200   41.0020 O   0  0  0  0  0  0  0  0  0  0  0  0
   44.6360   34.3500   41.7340 C   0  0  0  0  0  0  0  0  0  0  0  0
   45.8920   34.4630   41.1200 C   0  0  0  0  0  0  0  0  0  0  0  0
   47.0110   34.5970   41.9250 C   0  0  0  0  0  0  0  0  0  0  0  0
   46.8580   34.6160   43.3010 N   0  0  0  0  0  0  0  0  0  0  0  0
   45.6300   34.5050   43.8550 C   0  0  0  0  0  0  0  0  0  0  0  0
   44.5260   34.3730   43.0770 N   0  0  0  0  0  0  0  0  0  0  0  0
   45.9980   34.4470   40.0430 H   0  0  0  0  0  0  0  0  0  0  0  0
   45.5790   34.5260   44.9400 H   0  0  0  0  0  0  0  0  0  0  0  0
   48.3880   34.7110   41.3340 C   0  0  0  0  0  0  0  0  0  0  0  0
   49.0920   36.0530   41.5150 C   0  0  0  0  0  0  0  0  0  0  0  0
   49.5400   34.7410   42.1820 C   0  0  0  0  0  0  0  0  0  0  0  0
   48.3990   34.4060   40.2580 H   0  0  0  0  0  0  0  0  0  0  0  0
   48.6280   36.7600   42.2570 H   0  0  0  0  0  0  0  0  0  0  0  0
   49.7070   36.4580   40.7150 H   0  0  0  0  0  0  0  0  0  0  0  0
   50.5240   34.3800   41.8080 H   0  0  0  0  0  0  0  0  0  0  0  0
   49.4330   34.6260   43.2640 H   0  0  0  0  0  0  0  0  0  0  0  0
   41.1800   32.6970   38.2230 O   0  0  0  0  0  0  0  0  0  0  0  0
   40.3780   31.6330   38.2950 C   0  0  0  0  0  0  0  0  0  0  0  0
   39.4240   31.4090   37.3960 O   0  0  0  0  0  0  0  0  0  0  0  0
   42.2720   30.4170   40.1950 H   0  0  0  0  0  0  0  0  0  0  0  0
   41.3040   30.1180   40.0410 N   0  0  0  0  0  0  0  0  0  0  0  0
   40.3000   30.4800   39.2770 C   0  0  0  0  0  0  0  0  0  0  0  0
   39.2570   29.6410   39.5760 N   0  0  0  0  0  0  0  0  0  0  0  0
   39.6170   28.7710   40.5160 C   0  0  0  0  0  0  0  0  0  0  0  0
   38.8590   27.7710   41.0840 C   0  0  0  0  0  0  0  0  0  0  0  0
   37.8420   27.5670   40.8230 H   0  0  0  0  0  0  0  0  0  0  0  0
   39.4950   27.0280   42.0310 N   0  0  0  0  0  0  0  0  0  0  0  0
   40.7780   27.2830   42.3610 C   0  0  0  0  0  0  0  0  0  0  0  0
   41.3340   26.7270   43.1050 H   0  0  0  0  0  0  0  0  0  0  0  0
   41.4440   28.2790   41.7580 N   0  0  0  0  0  0  0  0  0  0  0  0
   40.9230   29.0630   40.8230 C   0  0  0  0  0  0  0  0  0  0  0  0
  1  7  1  6  0  0  0
  1  6  1  0  0  0  0
  1  2  1  0  0  0  0
  2  8  1  6  0  0  0
  2  3  1  0  0  0  0
  2 17  1  0  0  0  0
  4  9  1  0  0  0  0
  4  3  1  0  0  0  0
  5  6  1  0  0  0  0
  5 11  1  1  0  0  0
  5  4  1  0  0  0  0
  6 12  1  1  0  0  0
 10  4  1  0  0  0  0
 13  1  1  0  0  0  0
 14 13  1  0  0  0  0
 15  5  1  0  0  0  0
 16 15  1  0  0  0  0
 17 18  1  0  0  0  0
 18 23  1  0  0  0  0
 19 18  2  0  0  0  0
 19 20  1  0  0  0  0
 20 21  2  0  0  0  0
 21 22  1  0  0  0  0
 22 25  1  0  0  0  0
 23 22  2  0  0  0  0
 24 19  1  0  0  0  0
 26 27  1  0  0  0  0
 26 20  1  0  0  0  0
 26 28  1  0  0  0  0
 27 28  1  0  0  0  0
 27 30  1  0  0  0  0
 28 33  1  0  0  0  0
 29 26  1  0  0  0  0
 31 27  1  0  0  0  0
 32 28  1  0  0  0  0
 34 35  1  0  0  0  0
 34  6  1  0  0  0  0
 35 39  1  0  0  0  0
 36 35  2  0  0  0  0
 38 37  1  0  0  0  0
 38 48  1  0  0  0  0
 39 40  2  0  0  0  0
 39 38  1  0  0  0  0
 40 41  1  0  0  0  0
 41 48  2  0  0  0  0
 41 42  1  0  0  0  0
 42 44  2  0  0  0  0
 43 42  1  0  0  0  0
 44 45  1  0  0  0  0
 45 46  1  0  0  0  0
 47 45  2  0  0  0  0
 48 47  1  0  0  0  0
M  END
>  <minimizedAffinity>
-6.08473825

>  <minimizedRMSD>
1.69933414

$$$$
