
 OpenBabel03242521593D

 36 39  0  0  0  0  0  0  0  0999 V2000
   47.3520   34.0060   42.5720 C   0  0  0  0  0  0  0  0  0  0  0  0
   48.6940   33.9060   42.8980 C   0  0  0  0  0  0  0  0  0  0  0  0
   49.6710   33.3680   42.0640 C   0  0  0  0  0  0  0  0  0  0  0  0
   49.2820   32.9020   40.8260 C   0  0  0  0  0  0  0  0  0  0  0  0
   47.9690   33.0100   40.5250 C   0  0  0  0  0  0  0  0  0  0  0  0
   47.0550   33.5280   41.3410 N   0  0  0  0  0  0  0  0  0  0  0  0
   48.9160   34.3010   43.9010 H   0  0  0  0  0  0  0  0  0  0  0  0
   50.6540   33.3910   42.5220 H   0  0  0  0  0  0  0  0  0  0  0  0
   50.1610   32.5150   40.3440 H   0  0  0  0  0  0  0  0  0  0  0  0
   44.6600   36.0510   44.2130 C   0  0  0  0  0  0  0  0  0  0  0  0
   45.5740   35.6580   43.2320 C   0  0  0  0  0  0  0  0  0  0  0  0
   46.3570   34.5580   43.4650 C   0  0  0  0  0  0  0  0  0  0  0  0
   46.1970   33.9010   44.6620 N   0  0  0  0  0  0  0  0  0  0  0  0
   45.3090   34.2970   45.5960 C   0  0  0  0  0  0  0  0  0  0  0  0
   44.5450   35.3720   45.3630 N   0  0  0  0  0  0  0  0  0  0  0  0
   44.0540   36.9220   44.0030 H   0  0  0  0  0  0  0  0  0  0  0  0
   45.7210   36.1450   42.2980 H   0  0  0  0  0  0  0  0  0  0  0  0
   45.2420   33.7260   46.5140 H   0  0  0  0  0  0  0  0  0  0  0  0
   47.5600   32.5500   39.2840 O   0  0  0  0  0  0  0  0  0  0  0  0
   46.7390   33.5630   36.9890 O   0  0  0  0  0  0  0  0  0  0  0  0
   47.9780   33.3230   37.8220 P   0  0  1  0  0  0  0  0  0  0  0  0
   48.7070   34.8050   38.1800 O   0  0  0  0  0  0  0  0  0  0  0  0
   48.2150   35.5430   37.7230 H   0  0  0  0  0  0  0  0  0  0  0  0
   49.0110   32.3040   36.9570 O   0  0  0  0  0  0  0  0  0  0  0  0
   48.1980   34.0890   34.9380 H   0  0  0  0  0  0  0  0  0  0  0  0
   48.7090   33.2090   34.6900 N   0  0  0  0  0  0  0  0  0  0  0  0
   49.1370   32.2970   35.5850 C   0  0  0  0  0  0  0  0  0  0  0  0
   49.7440   31.3230   34.8430 N   0  0  0  0  0  0  0  0  0  0  0  0
   49.6720   31.6570   33.5410 C   0  0  0  0  0  0  0  0  0  0  0  0
   50.1220   31.0310   32.3950 C   0  0  0  0  0  0  0  0  0  0  0  0
   50.6450   30.0740   32.4980 H   0  0  0  0  0  0  0  0  0  0  0  0
   49.9290   31.5700   31.1770 N   0  0  0  0  0  0  0  0  0  0  0  0
   49.2780   32.7560   31.0920 C   0  0  0  0  0  0  0  0  0  0  0  0
   49.0910   33.2430   30.1360 H   0  0  0  0  0  0  0  0  0  0  0  0
   48.8250   33.3930   32.2100 N   0  0  0  0  0  0  0  0  0  0  0  0
   49.0200   32.8470   33.4290 C   0  0  0  0  0  0  0  0  0  0  0  0
  1  2  1  0  0  0  0
  1 12  1  0  0  0  0
  2  7  1  0  0  0  0
  3  8  1  0  0  0  0
  3  2  2  0  0  0  0
  4  3  1  0  0  0  0
  5  4  2  0  0  0  0
  5  6  1  0  0  0  0
  6  1  2  0  0  0  0
  9  4  1  0  0  0  0
 10 15  1  0  0  0  0
 11 12  1  0  0  0  0
 11 10  2  0  0  0  0
 12 13  2  0  0  0  0
 13 14  1  0  0  0  0
 14 18  1  0  0  0  0
 15 14  2  0  0  0  0
 16 10  1  0  0  0  0
 17 11  1  0  0  0  0
 19  5  1  0  0  0  0
 21 20  2  6  0  0  0
 21 22  1  0  0  0  0
 21 19  1  0  0  0  0
 23 22  1  0  0  0  0
 24 21  1  0  0  0  0
 26 25  1  0  0  0  0
 26 27  1  0  0  0  0
 27 24  1  0  0  0  0
 28 27  2  0  0  0  0
 29 28  1  0  0  0  0
 30 31  1  0  0  0  0
 30 29  2  0  0  0  0
 32 30  1  0  0  0  0
 33 32  2  0  0  0  0
 33 35  1  0  0  0  0
 34 33  1  0  0  0  0
 35 36  2  0  0  0  0
 36 29  1  0  0  0  0
 36 26  1  0  0  0  0
M  END
>  <minimizedAffinity>
-6.48135233

>  <minimizedRMSD>
5.6310935

$$$$
