
 OpenBabel03252507313D

 52 56  0  0  1  0  0  0  0  0999 V2000
   46.9630   32.7570   45.5230 C   0  0  0  0  0  0  0  0  0  0  0  0
   45.8690   33.4200   46.0580 C   0  0  0  0  0  0  0  0  0  0  0  0
   45.1840   34.3830   45.2810 C   0  0  0  0  0  0  0  0  0  0  0  0
   45.6760   34.6030   43.9960 N   0  0  0  0  0  0  0  0  0  0  0  0
   46.7370   33.9310   43.5410 C   0  0  0  0  0  0  0  0  0  0  0  0
   47.3700   33.0240   44.2870 N   0  0  0  0  0  0  0  0  0  0  0  0
   45.3580   33.4390   46.9970 H   0  0  0  0  0  0  0  0  0  0  0  0
   44.3410   34.9770   45.5180 H   0  0  0  0  0  0  0  0  0  0  0  0
   47.2170   34.2240   42.1860 C   0  0  0  0  0  0  0  0  0  0  0  0
   48.2840   35.0670   41.9790 C   0  0  0  0  0  0  0  0  0  0  0  0
   48.8060   35.4020   40.7480 C   0  0  0  0  0  0  0  0  0  0  0  0
   48.1670   34.8130   39.6870 C   0  0  0  0  0  0  0  0  0  0  0  0
   47.0820   33.9530   39.8670 C   0  0  0  0  0  0  0  0  0  0  0  0
   46.6170   33.6660   41.1220 N   0  0  0  0  0  0  0  0  0  0  0  0
   48.7400   35.4970   42.8760 H   0  0  0  0  0  0  0  0  0  0  0  0
   49.6400   36.0620   40.6030 H   0  0  0  0  0  0  0  0  0  0  0  0
   48.4740   34.9880   38.6650 H   0  0  0  0  0  0  0  0  0  0  0  0
   46.4570   33.3700   38.7260 N   0  0  0  0  0  0  0  0  0  0  0  0
   46.7840   33.3410   37.4040 C   0  0  0  0  0  0  0  0  0  0  0  0
   47.6790   33.8290   37.0420 H   0  0  0  0  0  0  0  0  0  0  0  0
   45.8400   32.6430   36.7350 N   0  0  0  0  0  0  0  0  0  0  0  0
   44.9020   32.2190   37.6140 C   0  0  0  0  0  0  0  0  0  0  0  0
   43.7420   31.4760   37.4440 C   0  0  0  0  0  0  0  0  0  0  0  0
   43.4480   31.1230   36.4570 H   0  0  0  0  0  0  0  0  0  0  0  0
   42.9610   31.1790   38.4980 N   0  0  0  0  0  0  0  0  0  0  0  0
   43.3730   31.6430   39.7140 C   0  0  0  0  0  0  0  0  0  0  0  0
   42.8150   31.4620   40.6450 H   0  0  0  0  0  0  0  0  0  0  0  0
   44.4900   32.3680   39.9230 N   0  0  0  0  0  0  0  0  0  0  0  0
   45.2900   32.6780   38.8780 C   0  0  0  0  0  0  0  0  0  0  0  0
   47.6140   31.7620   46.3510 C   0  0  2  0  0  0  0  0  0  0  0  0
   47.3770   30.3230   45.8120 C   0  0  0  0  0  0  0  0  0  0  0  0
   48.1960   29.3570   46.5990 C   0  0  0  0  0  0  0  0  0  0  0  0
   48.1840   29.5440   48.0780 C   0  0  0  0  0  0  0  0  0  0  0  0
   48.1790   30.9230   48.5050 C   0  0  0  0  0  0  0  0  0  0  0  0
   47.1750   31.8080   47.7320 C   0  0  2  0  0  0  0  0  0  0  0  0
   48.7120   31.8810   46.2340 H   0  0  0  0  0  0  0  0  0  0  0  0
   46.3270   30.0440   45.8310 H   0  0  0  0  0  0  0  0  0  0  0  0
   47.7050   30.3200   44.7540 H   0  0  0  0  0  0  0  0  0  0  0  0
   49.1880   29.3270   46.1090 H   0  0  0  0  0  0  0  0  0  0  0  0
   47.7720   28.3280   46.4050 H   0  0  0  0  0  0  0  0  0  0  0  0
   47.8140   28.7300   48.7000 H   0  0  0  0  0  0  0  0  0  0  0  0
   49.2980   29.2890   48.2990 H   0  0  0  0  0  0  0  0  0  0  0  0
   49.1320   31.5030   48.4540 H   0  0  0  0  0  0  0  0  0  0  0  0
   47.8690   31.0250   49.5810 H   0  0  0  0  0  0  0  0  0  0  0  0
   47.2910   32.7580   48.2550 H   0  0  0  0  0  0  0  0  0  0  0  0
   45.8420   31.2170   47.8520 N   0  0  0  0  0  0  0  0  0  0  0  0
   45.1560   30.6760   48.9530 C   0  0  0  0  0  0  0  0  0  0  0  0
   44.6080   31.4000   49.8610 O   0  0  0  0  0  0  0  0  0  0  0  0
   45.1070   29.2480   48.9810 N   0  0  0  0  0  0  0  0  0  0  0  0
   45.2020   31.0640   46.9850 H   0  0  0  0  0  0  0  0  0  0  0  0
   44.8010   28.5830   48.2500 H   0  0  0  0  0  0  0  0  0  0  0  0
   45.4130   28.7240   49.8370 H   0  0  0  0  0  0  0  0  0  0  0  0
  1  2  1  0  0  0  0
  1 30  1  0  0  0  0
  2  7  1  0  0  0  0
  3  8  1  0  0  0  0
  3  2  2  0  0  0  0
  4  3  1  0  0  0  0
  5  4  2  0  0  0  0
  5  6  1  0  0  0  0
  6  1  2  0  0  0  0
  9  5  1  0  0  0  0
 10  9  1  0  0  0  0
 10 15  1  0  0  0  0
 11 10  2  0  0  0  0
 12 13  2  0  0  0  0
 12 11  1  0  0  0  0
 13 14  1  0  0  0  0
 14  9  2  0  0  0  0
 16 11  1  0  0  0  0
 17 12  1  0  0  0  0
 18 29  1  0  0  0  0
 18 13  1  0  0  0  0
 19 18  1  0  0  0  0
 20 19  1  0  0  0  0
 21 19  2  0  0  0  0
 21 22  1  0  0  0  0
 22 29  1  0  0  0  0
 23 22  2  0  0  0  0
 23 25  1  0  0  0  0
 24 23  1  0  0  0  0
 25 26  2  0  0  0  0
 26 28  1  0  0  0  0
 26 27  1  0  0  0  0
 29 28  2  0  0  0  0
 30 36  1  6  0  0  0
 30 35  1  0  0  0  0
 31 37  1  0  0  0  0
 31 30  1  0  0  0  0
 31 32  1  0  0  0  0
 32 33  1  0  0  0  0
 33 42  1  0  0  0  0
 33 34  1  0  0  0  0
 33 41  1  0  0  0  0
 34 44  1  0  0  0  0
 35 46  1  0  0  0  0
 35 45  1  1  0  0  0
 35 34  1  0  0  0  0
 38 31  1  0  0  0  0
 39 32  1  0  0  0  0
 40 32  1  0  0  0  0
 43 34  1  0  0  0  0
 46 47  1  0  0  0  0
 47 49  1  0  0  0  0
 47 48  2  0  0  0  0
 49 52  1  0  0  0  0
 50 46  1  0  0  0  0
 51 49  1  0  0  0  0
M  END
>  <minimizedAffinity>
-6.94163799

>  <minimizedRMSD>
0.391103327

$$$$
