
 OpenBabel03252505033D

 37 40  0  0  1  0  0  0  0  0999 V2000
   44.3540   35.8520   44.4130 C   0  0  0  0  0  0  0  0  0  0  0  0
   44.3440   35.4100   43.0770 C   0  0  0  0  0  0  0  0  0  0  0  0
   45.0110   34.1920   42.8050 C   0  0  0  0  0  0  0  0  0  0  0  0
   45.6100   33.5340   43.8290 N   0  0  0  0  0  0  0  0  0  0  0  0
   45.5920   33.9960   45.0840 C   0  0  0  0  0  0  0  0  0  0  0  0
   44.9570   35.1720   45.3910 N   0  0  0  0  0  0  0  0  0  0  0  0
   43.8340   36.7920   44.5880 H   0  0  0  0  0  0  0  0  0  0  0  0
   43.8710   35.9280   42.2680 H   0  0  0  0  0  0  0  0  0  0  0  0
   46.2780   33.2180   46.1450 C   0  0  2  0  0  0  0  0  0  0  0  0
   46.9520   32.0800   45.4500 C   0  0  0  0  0  0  0  0  0  0  0  0
   46.3230   30.7560   45.6140 C   0  0  0  0  0  0  0  0  0  0  0  0
   46.2130   30.5210   47.1060 C   0  0  0  0  0  0  0  0  0  0  0  0
   45.2940   31.4680   47.7520 C   0  0  0  0  0  0  0  0  0  0  0  0
   45.3590   32.8710   47.2190 C   0  0  0  0  0  0  0  0  0  0  0  0
   47.0400   33.9240   46.5600 H   0  0  0  0  0  0  0  0  0  0  0  0
   47.0850   32.2580   44.3590 H   0  0  0  0  0  0  0  0  0  0  0  0
   48.0080   32.0310   45.8360 H   0  0  0  0  0  0  0  0  0  0  0  0
   45.3730   30.6670   45.0820 H   0  0  0  0  0  0  0  0  0  0  0  0
   47.0150   29.9860   45.2280 H   0  0  0  0  0  0  0  0  0  0  0  0
   47.2030   30.4300   47.5430 H   0  0  0  0  0  0  0  0  0  0  0  0
   45.6990   29.5340   47.1940 H   0  0  0  0  0  0  0  0  0  0  0  0
   44.5720   31.4360   48.5160 H   0  0  0  0  0  0  0  0  0  0  0  0
   44.5180   33.8840   47.7570 N   0  0  0  0  0  0  0  0  0  0  0  0
   44.8410   34.6290   48.4130 H   0  0  0  0  0  0  0  0  0  0  0  0
   43.5330   33.8010   47.4220 H   0  0  0  0  0  0  0  0  0  0  0  0
   45.0770   33.6310   41.5040 N   0  0  0  0  0  0  0  0  0  0  0  0
   44.2710   32.8400   40.7580 C   0  0  0  0  0  0  0  0  0  0  0  0
   43.3290   32.5160   41.1870 H   0  0  0  0  0  0  0  0  0  0  0  0
   44.8340   32.6020   39.5630 N   0  0  0  0  0  0  0  0  0  0  0  0
   46.0230   33.2430   39.5250 C   0  0  0  0  0  0  0  0  0  0  0  0
   46.9340   33.2770   38.5030 C   0  0  0  0  0  0  0  0  0  0  0  0
   46.8190   32.7840   37.5690 H   0  0  0  0  0  0  0  0  0  0  0  0
   48.0640   33.9920   38.6950 N   0  0  0  0  0  0  0  0  0  0  0  0
   48.2370   34.6330   39.8800 C   0  0  0  0  0  0  0  0  0  0  0  0
   49.1000   35.2360   40.1520 H   0  0  0  0  0  0  0  0  0  0  0  0
   47.3090   34.5660   40.8520 N   0  0  0  0  0  0  0  0  0  0  0  0
   46.1670   33.8840   40.7430 C   0  0  0  0  0  0  0  0  0  0  0  0
  1  7  1  0  0  0  0
  1  6  1  0  0  0  0
  2  1  2  0  0  0  0
  3  2  1  0  0  0  0
  3  4  2  0  0  0  0
  4  5  1  0  0  0  0
  5  6  2  0  0  0  0
  5  9  1  0  0  0  0
  8  2  1  0  0  0  0
  9 15  1  1  0  0  0
  9 14  1  0  0  0  0
 10 11  1  0  0  0  0
 10 17  1  0  0  0  0
 10  9  1  0  0  0  0
 11 12  1  0  0  0  0
 12 21  1  0  0  0  0
 12 20  1  0  0  0  0
 12 13  1  0  0  0  0
 13 22  1  0  0  0  0
 14 13  2  0  0  0  0
 14 23  1  0  0  0  0
 16 10  1  0  0  0  0
 18 11  1  0  0  0  0
 19 11  1  0  0  0  0
 23 24  1  0  0  0  0
 25 23  1  0  0  0  0
 26  3  1  0  0  0  0
 27 28  1  0  0  0  0
 27 26  1  0  0  0  0
 29 27  2  0  0  0  0
 30 29  1  0  0  0  0
 30 37  1  0  0  0  0
 31 33  1  0  0  0  0
 31 30  2  0  0  0  0
 32 31  1  0  0  0  0
 33 34  2  0  0  0  0
 34 35  1  0  0  0  0
 34 36  1  0  0  0  0
 37 36  2  0  0  0  0
 37 26  1  0  0  0  0
M  END
>  <minimizedAffinity>
-6.32833338

>  <minimizedRMSD>
2.26936483

$$$$
