
 OpenBabel03252500143D

 41 45  0  0  0  0  0  0  0  0999 V2000
   45.4780   32.3610   40.5200 Cl  0  0  0  0  0  0  0  0  0  0  0  0
   46.7820   33.4580   40.1630 C   0  0  0  0  0  0  0  0  0  0  0  0
   47.3640   34.1950   41.1650 C   0  0  0  0  0  0  0  0  0  0  0  0
   48.4090   35.0810   40.9160 C   0  0  0  0  0  0  0  0  0  0  0  0
   48.8240   35.1740   39.6040 C   0  0  0  0  0  0  0  0  0  0  0  0
   48.2400   34.4320   38.5940 C   0  0  0  0  0  0  0  0  0  0  0  0
   47.2410   33.5900   38.8600 C   0  0  0  0  0  0  0  0  0  0  0  0
   48.8470   35.6490   41.7250 H   0  0  0  0  0  0  0  0  0  0  0  0
   49.6320   35.8550   39.4010 H   0  0  0  0  0  0  0  0  0  0  0  0
   48.5850   34.5230   37.5740 H   0  0  0  0  0  0  0  0  0  0  0  0
   46.8820   32.8980   44.5810 C   0  0  0  0  0  0  0  0  0  0  0  0
   45.9490   33.8100   45.1210 C   0  0  0  0  0  0  0  0  0  0  0  0
   45.5020   34.8510   44.3100 C   0  0  0  0  0  0  0  0  0  0  0  0
   45.9850   34.9400   43.0320 N   0  0  0  0  0  0  0  0  0  0  0  0
   46.8770   34.0540   42.5420 C   0  0  0  0  0  0  0  0  0  0  0  0
   47.3150   33.0440   43.3210 N   0  0  0  0  0  0  0  0  0  0  0  0
   47.2030   32.1060   45.2430 H   0  0  0  0  0  0  0  0  0  0  0  0
   45.5720   33.7350   46.1250 H   0  0  0  0  0  0  0  0  0  0  0  0
   44.5160   35.8760   44.7720 C   0  0  0  0  0  0  0  0  0  0  0  0
   44.9800   37.1340   44.5410 F   0  0  0  0  0  0  0  0  0  0  0  0
   43.3390   35.6900   44.0740 F   0  0  0  0  0  0  0  0  0  0  0  0
   44.3050   35.6400   46.1080 F   0  0  0  0  0  0  0  0  0  0  0  0
   46.6000   32.7920   37.8270 C   0  0  0  0  0  0  0  0  0  0  0  0
   45.5880   33.2560   36.9750 C   0  0  0  0  0  0  0  0  0  0  0  0
   45.2040   32.2450   36.1200 C   0  0  0  0  0  0  0  0  0  0  0  0
   46.0150   31.1990   36.4990 C   0  0  0  0  0  0  0  0  0  0  0  0
   46.8140   31.5440   37.4910 O   0  0  0  0  0  0  0  0  0  0  0  0
   45.1350   34.2610   36.9530 H   0  0  0  0  0  0  0  0  0  0  0  0
   44.4680   32.2150   35.3350 H   0  0  0  0  0  0  0  0  0  0  0  0
   46.0270   29.8900   35.9260 N   0  0  0  0  0  0  0  0  0  0  0  0
   47.0180   29.3910   35.1630 C   0  0  0  0  0  0  0  0  0  0  0  0
   47.9490   29.8360   34.8430 H   0  0  0  0  0  0  0  0  0  0  0  0
   46.6840   28.1190   34.7970 N   0  0  0  0  0  0  0  0  0  0  0  0
   45.4830   27.8110   35.3260 C   0  0  0  0  0  0  0  0  0  0  0  0
   44.5960   26.7540   35.3550 C   0  0  0  0  0  0  0  0  0  0  0  0
   44.9020   25.8630   34.8010 H   0  0  0  0  0  0  0  0  0  0  0  0
   43.4270   26.8260   36.0310 N   0  0  0  0  0  0  0  0  0  0  0  0
   43.0740   27.9330   36.7060 C   0  0  0  0  0  0  0  0  0  0  0  0
   42.1540   28.0390   37.2580 H   0  0  0  0  0  0  0  0  0  0  0  0
   43.9160   28.9930   36.7010 N   0  0  0  0  0  0  0  0  0  0  0  0
   45.0820   28.9360   36.0330 C   0  0  0  0  0  0  0  0  0  0  0  0
  2  1  1  0  0  0  0
  2  3  1  0  0  0  0
  3 15  1  0  0  0  0
  4  3  2  0  0  0  0
  4  8  1  0  0  0  0
  5  4  1  0  0  0  0
  6  7  1  0  0  0  0
  6  5  2  0  0  0  0
  7  2  2  0  0  0  0
  9  5  1  0  0  0  0
 10  6  1  0  0  0  0
 11 12  1  0  0  0  0
 11 17  1  0  0  0  0
 12 18  1  0  0  0  0
 13 19  1  0  0  0  0
 13 12  2  0  0  0  0
 14 13  1  0  0  0  0
 15 14  2  0  0  0  0
 15 16  1  0  0  0  0
 16 11  2  0  0  0  0
 19 22  1  0  0  0  0
 20 19  1  0  0  0  0
 21 19  1  0  0  0  0
 23  7  1  0  0  0  0
 24 23  2  0  0  0  0
 25 26  2  0  0  0  0
 25 24  1  0  0  0  0
 26 27  1  0  0  0  0
 27 23  1  0  0  0  0
 28 24  1  0  0  0  0
 29 25  1  0  0  0  0
 30 41  1  0  0  0  0
 30 26  1  0  0  0  0
 31 30  1  0  0  0  0
 32 31  1  0  0  0  0
 33 31  2  0  0  0  0
 33 34  1  0  0  0  0
 34 35  2  0  0  0  0
 34 41  1  0  0  0  0
 35 37  1  0  0  0  0
 36 35  1  0  0  0  0
 37 38  2  0  0  0  0
 38 39  1  0  0  0  0
 40 38  1  0  0  0  0
 41 40  2  0  0  0  0
M  END
>  <minimizedAffinity>
-5.82740498

>  <minimizedRMSD>
0.105708994

$$$$
