
 OpenBabel03252500143D

 41 45  0  0  0  0  0  0  0  0999 V2000
   45.5010   32.2510   40.6080 Cl  0  0  0  0  0  0  0  0  0  0  0  0
   46.7690   33.3730   40.2030 C   0  0  0  0  0  0  0  0  0  0  0  0
   47.3410   34.1570   41.1750 C   0  0  0  0  0  0  0  0  0  0  0  0
   48.3580   35.0640   40.8870 C   0  0  0  0  0  0  0  0  0  0  0  0
   48.7540   35.1300   39.5680 C   0  0  0  0  0  0  0  0  0  0  0  0
   48.1800   34.3420   38.5870 C   0  0  0  0  0  0  0  0  0  0  0  0
   47.2080   33.4810   38.8900 C   0  0  0  0  0  0  0  0  0  0  0  0
   48.7880   35.6680   41.6740 H   0  0  0  0  0  0  0  0  0  0  0  0
   49.5390   35.8270   39.3350 H   0  0  0  0  0  0  0  0  0  0  0  0
   48.5090   34.4130   37.5610 H   0  0  0  0  0  0  0  0  0  0  0  0
   46.9250   32.9370   44.6290 C   0  0  0  0  0  0  0  0  0  0  0  0
   45.9860   33.8480   45.1590 C   0  0  0  0  0  0  0  0  0  0  0  0
   45.5120   34.8620   44.3290 C   0  0  0  0  0  0  0  0  0  0  0  0
   45.9770   34.9270   43.0430 N   0  0  0  0  0  0  0  0  0  0  0  0
   46.8750   34.0420   42.5630 C   0  0  0  0  0  0  0  0  0  0  0  0
   47.3390   33.0580   43.3600 N   0  0  0  0  0  0  0  0  0  0  0  0
   47.2660   32.1660   45.3050 H   0  0  0  0  0  0  0  0  0  0  0  0
   45.6240   33.7920   46.1700 H   0  0  0  0  0  0  0  0  0  0  0  0
   44.5180   35.8840   44.7790 C   0  0  0  0  0  0  0  0  0  0  0  0
   44.9770   37.1440   44.5500 F   0  0  0  0  0  0  0  0  0  0  0  0
   43.3480   35.6910   44.0710 F   0  0  0  0  0  0  0  0  0  0  0  0
   44.2950   35.6500   46.1140 F   0  0  0  0  0  0  0  0  0  0  0  0
   46.5780   32.6340   37.8900 C   0  0  0  0  0  0  0  0  0  0  0  0
   45.6140   33.0710   36.9700 C   0  0  0  0  0  0  0  0  0  0  0  0
   45.2270   32.0170   36.1710 C   0  0  0  0  0  0  0  0  0  0  0  0
   45.9870   30.9730   36.6510 C   0  0  0  0  0  0  0  0  0  0  0  0
   46.7610   31.3600   37.6470 O   0  0  0  0  0  0  0  0  0  0  0  0
   45.1980   34.0870   36.8620 H   0  0  0  0  0  0  0  0  0  0  0  0
   44.5200   31.9570   35.3610 H   0  0  0  0  0  0  0  0  0  0  0  0
   45.9740   29.6290   36.1680 N   0  0  0  0  0  0  0  0  0  0  0  0
   46.4480   28.5620   36.8400 C   0  0  0  0  0  0  0  0  0  0  0  0
   46.9040   28.4940   37.8160 H   0  0  0  0  0  0  0  0  0  0  0  0
   46.2680   27.4500   36.0690 N   0  0  0  0  0  0  0  0  0  0  0  0
   45.6820   27.8100   34.9100 C   0  0  0  0  0  0  0  0  0  0  0  0
   45.2380   27.2260   33.7400 C   0  0  0  0  0  0  0  0  0  0  0  0
   45.3740   26.1440   33.6690 H   0  0  0  0  0  0  0  0  0  0  0  0
   44.6730   27.9550   32.7510 N   0  0  0  0  0  0  0  0  0  0  0  0
   44.5170   29.2850   32.8630 C   0  0  0  0  0  0  0  0  0  0  0  0
   44.0740   29.9100   32.1040 H   0  0  0  0  0  0  0  0  0  0  0  0
   44.9390   29.8960   33.9950 N   0  0  0  0  0  0  0  0  0  0  0  0
   45.5040   29.1830   34.9860 C   0  0  0  0  0  0  0  0  0  0  0  0
  2  1  1  0  0  0  0
  2  3  1  0  0  0  0
  3 15  1  0  0  0  0
  4  3  2  0  0  0  0
  4  8  1  0  0  0  0
  5  4  1  0  0  0  0
  6  7  1  0  0  0  0
  6  5  2  0  0  0  0
  7  2  2  0  0  0  0
  9  5  1  0  0  0  0
 10  6  1  0  0  0  0
 11 12  1  0  0  0  0
 11 17  1  0  0  0  0
 12 18  1  0  0  0  0
 13 19  1  0  0  0  0
 13 12  2  0  0  0  0
 14 13  1  0  0  0  0
 15 14  2  0  0  0  0
 15 16  1  0  0  0  0
 16 11  2  0  0  0  0
 19 22  1  0  0  0  0
 20 19  1  0  0  0  0
 21 19  1  0  0  0  0
 23  7  1  0  0  0  0
 24 23  2  0  0  0  0
 25 26  2  0  0  0  0
 25 24  1  0  0  0  0
 26 27  1  0  0  0  0
 27 23  1  0  0  0  0
 28 24  1  0  0  0  0
 29 25  1  0  0  0  0
 30 26  1  0  0  0  0
 30 31  1  0  0  0  0
 31 32  1  0  0  0  0
 33 31  2  0  0  0  0
 34 41  1  0  0  0  0
 34 33  1  0  0  0  0
 35 34  2  0  0  0  0
 36 35  1  0  0  0  0
 37 38  2  0  0  0  0
 37 35  1  0  0  0  0
 38 40  1  0  0  0  0
 39 38  1  0  0  0  0
 40 41  2  0  0  0  0
 41 30  1  0  0  0  0
M  END
>  <minimizedAffinity>
-5.99112177

>  <minimizedRMSD>
0.171876773

$$$$
