
 OpenBabel03242521283D

 38 41  0  0  1  0  0  0  0  0999 V2000
   47.8880   33.4140   42.5640 C   0  0  1  0  0  0  0  0  0  0  0  0
   46.4430   33.7710   42.3030 C   0  0  2  0  0  0  0  0  0  0  0  0
   46.3220   34.7260   41.3120 O   0  0  0  0  0  0  0  0  0  0  0  0
   46.6560   34.0950   40.1250 C   0  0  0  0  0  0  0  0  0  0  0  0
   48.1480   33.8940   40.1070 C   0  0  2  0  0  0  0  0  0  0  0  0
   48.7030   33.2480   41.3290 C   0  0  2  0  0  0  0  0  0  0  0  0
   47.8410   32.4230   43.1000 H   0  0  0  0  0  0  0  0  0  0  0  0
   45.9210   32.8470   41.9880 H   0  0  0  0  0  0  0  0  0  0  0  0
   46.4200   34.8140   39.3030 H   0  0  0  0  0  0  0  0  0  0  0  0
   46.0750   33.1740   39.9410 H   0  0  0  0  0  0  0  0  0  0  0  0
   48.4000   33.2780   39.2100 H   0  0  0  0  0  0  0  0  0  0  0  0
   49.6930   33.7500   41.5300 H   0  0  0  0  0  0  0  0  0  0  0  0
   44.4840   35.9240   44.7330 C   0  0  0  0  0  0  0  0  0  0  0  0
   45.0680   35.4800   43.5370 C   0  0  0  0  0  0  0  0  0  0  0  0
   45.8040   34.2620   43.5360 C   0  0  0  0  0  0  0  0  0  0  0  0
   45.9010   33.5910   44.7030 N   0  0  0  0  0  0  0  0  0  0  0  0
   45.3280   34.0420   45.8460 C   0  0  0  0  0  0  0  0  0  0  0  0
   44.6200   35.2060   45.8610 N   0  0  0  0  0  0  0  0  0  0  0  0
   43.9560   36.8580   44.5990 H   0  0  0  0  0  0  0  0  0  0  0  0
   44.9960   36.0100   42.6000 H   0  0  0  0  0  0  0  0  0  0  0  0
   45.4350   33.4670   46.7560 H   0  0  0  0  0  0  0  0  0  0  0  0
   48.4820   34.2710   43.4960 O   0  0  0  0  0  0  0  0  0  0  0  0
   49.0070   33.7940   44.1780 H   0  0  0  0  0  0  0  0  0  0  0  0
   48.7020   35.1640   39.8960 O   0  0  0  0  0  0  0  0  0  0  0  0
   49.1510   35.4690   40.7340 H   0  0  0  0  0  0  0  0  0  0  0  0
   49.0520   31.8960   41.1260 O   0  0  0  0  0  0  0  0  0  0  0  0
   51.2730   32.3600   39.4040 H   0  0  0  0  0  0  0  0  0  0  0  0
   51.4170   31.6830   40.1850 N   0  0  0  0  0  0  0  0  0  0  0  0
   50.3640   31.4650   40.9990 C   0  0  0  0  0  0  0  0  0  0  0  0
   50.7420   30.5600   41.9480 N   0  0  0  0  0  0  0  0  0  0  0  0
   52.0060   30.2000   41.7540 C   0  0  0  0  0  0  0  0  0  0  0  0
   52.9720   29.3730   42.3040 C   0  0  0  0  0  0  0  0  0  0  0  0
   52.6630   28.8020   43.1820 H   0  0  0  0  0  0  0  0  0  0  0  0
   54.2140   29.2620   41.8090 N   0  0  0  0  0  0  0  0  0  0  0  0
   54.5550   29.9900   40.7160 C   0  0  0  0  0  0  0  0  0  0  0  0
   55.5600   29.8490   40.3780 H   0  0  0  0  0  0  0  0  0  0  0  0
   53.6430   30.8170   40.1390 N   0  0  0  0  0  0  0  0  0  0  0  0
   52.4060   30.9150   40.6480 C   0  0  0  0  0  0  0  0  0  0  0  0
  1  7  1  1  0  0  0
  1 22  1  0  0  0  0
  2  8  1  6  0  0  0
  2  1  1  0  0  0  0
  2 15  1  0  0  0  0
  3  2  1  0  0  0  0
  4  3  1  0  0  0  0
  5 11  1  6  0  0  0
  5  4  1  0  0  0  0
  5  6  1  0  0  0  0
  6 12  1  1  0  0  0
  6  1  1  0  0  0  0
  9  4  1  0  0  0  0
 10  4  1  0  0  0  0
 13 18  1  0  0  0  0
 14 13  2  0  0  0  0
 15 14  1  0  0  0  0
 15 16  2  0  0  0  0
 16 17  1  0  0  0  0
 17 18  2  0  0  0  0
 17 21  1  0  0  0  0
 19 13  1  0  0  0  0
 20 14  1  0  0  0  0
 22 23  1  0  0  0  0
 24  5  1  0  0  0  0
 24 25  1  0  0  0  0
 26  6  1  0  0  0  0
 27 28  1  0  0  0  0
 28 38  1  0  0  0  0
 28 29  1  0  0  0  0
 29 26  1  0  0  0  0
 29 30  2  0  0  0  0
 31 30  1  0  0  0  0
 31 32  1  0  0  0  0
 32 33  1  0  0  0  0
 34 32  2  0  0  0  0
 35 34  1  0  0  0  0
 36 35  1  0  0  0  0
 37 38  1  0  0  0  0
 37 35  2  0  0  0  0
 38 31  2  0  0  0  0
M  END
>  <minimizedAffinity>
-5.71222878

>  <minimizedRMSD>
0.762596369

$$$$
