
 OpenBabel03242521283D

 38 41  0  0  1  0  0  0  0  0999 V2000
   48.0680   33.4490   42.5510 C   0  0  1  0  0  0  0  0  0  0  0  0
   46.6130   33.7240   42.2510 C   0  0  2  0  0  0  0  0  0  0  0  0
   46.4640   34.6280   41.2170 O   0  0  0  0  0  0  0  0  0  0  0  0
   46.8500   33.9630   40.0640 C   0  0  0  0  0  0  0  0  0  0  0  0
   48.3500   33.8340   40.0800 C   0  0  2  0  0  0  0  0  0  0  0  0
   48.9130   33.2700   41.3380 C   0  0  2  0  0  0  0  0  0  0  0  0
   48.0590   32.4820   43.1300 H   0  0  0  0  0  0  0  0  0  0  0  0
   46.1410   32.7640   41.9700 H   0  0  0  0  0  0  0  0  0  0  0  0
   46.5950   34.6330   39.2070 H   0  0  0  0  0  0  0  0  0  0  0  0
   46.3170   33.0070   39.9130 H   0  0  0  0  0  0  0  0  0  0  0  0
   48.6470   33.1920   39.2160 H   0  0  0  0  0  0  0  0  0  0  0  0
   49.8730   33.8270   41.5320 H   0  0  0  0  0  0  0  0  0  0  0  0
   44.5770   35.9270   44.5710 C   0  0  0  0  0  0  0  0  0  0  0  0
   45.2040   35.4620   43.4050 C   0  0  0  0  0  0  0  0  0  0  0  0
   45.9290   34.2380   43.4500 C   0  0  0  0  0  0  0  0  0  0  0  0
   45.9720   33.5810   44.6300 N   0  0  0  0  0  0  0  0  0  0  0  0
   45.3570   34.0530   45.7420 C   0  0  0  0  0  0  0  0  0  0  0  0
   44.6600   35.2230   45.7130 N   0  0  0  0  0  0  0  0  0  0  0  0
   44.0630   36.8630   44.4030 H   0  0  0  0  0  0  0  0  0  0  0  0
   45.1750   35.9800   42.4590 H   0  0  0  0  0  0  0  0  0  0  0  0
   45.4220   33.4890   46.6630 H   0  0  0  0  0  0  0  0  0  0  0  0
   48.6040   34.3750   43.4530 O   0  0  0  0  0  0  0  0  0  0  0  0
   49.1380   33.9530   44.1640 H   0  0  0  0  0  0  0  0  0  0  0  0
   48.8470   35.1180   39.8210 O   0  0  0  0  0  0  0  0  0  0  0  0
   49.2650   35.4820   40.6520 H   0  0  0  0  0  0  0  0  0  0  0  0
   49.3300   31.9290   41.2020 O   0  0  0  0  0  0  0  0  0  0  0  0
   51.2990   33.1130   39.5180 H   0  0  0  0  0  0  0  0  0  0  0  0
   51.4640   32.1250   39.8120 N   0  0  0  0  0  0  0  0  0  0  0  0
   50.5300   31.5670   40.6090 C   0  0  0  0  0  0  0  0  0  0  0  0
   50.9170   30.2860   40.8840 N   0  0  0  0  0  0  0  0  0  0  0  0
   52.0690   30.0220   40.2800 C   0  0  0  0  0  0  0  0  0  0  0  0
   52.9810   28.9880   40.1340 C   0  0  0  0  0  0  0  0  0  0  0  0
   52.7340   28.0610   40.6570 H   0  0  0  0  0  0  0  0  0  0  0  0
   54.1020   29.0920   39.4040 N   0  0  0  0  0  0  0  0  0  0  0  0
   54.3690   30.2610   38.7710 C   0  0  0  0  0  0  0  0  0  0  0  0
   55.2790   30.2690   38.2090 H   0  0  0  0  0  0  0  0  0  0  0  0
   53.5070   31.3070   38.8830 N   0  0  0  0  0  0  0  0  0  0  0  0
   52.3910   31.1840   39.6180 C   0  0  0  0  0  0  0  0  0  0  0  0
  1  7  1  1  0  0  0
  1 22  1  0  0  0  0
  2  8  1  6  0  0  0
  2  1  1  0  0  0  0
  2 15  1  0  0  0  0
  3  2  1  0  0  0  0
  4  5  1  0  0  0  0
  4  3  1  0  0  0  0
  5 11  1  6  0  0  0
  5  6  1  0  0  0  0
  6 12  1  1  0  0  0
  6  1  1  0  0  0  0
  9  4  1  0  0  0  0
 10  4  1  0  0  0  0
 13 18  1  0  0  0  0
 14 15  1  0  0  0  0
 14 13  2  0  0  0  0
 15 16  2  0  0  0  0
 16 17  1  0  0  0  0
 17 21  1  0  0  0  0
 18 17  2  0  0  0  0
 19 13  1  0  0  0  0
 20 14  1  0  0  0  0
 22 23  1  0  0  0  0
 24  5  1  0  0  0  0
 24 25  1  0  0  0  0
 26  6  1  0  0  0  0
 27 28  1  0  0  0  0
 28 29  1  0  0  0  0
 29 30  2  0  0  0  0
 29 26  1  0  0  0  0
 31 30  1  0  0  0  0
 32 31  1  0  0  0  0
 32 33  1  0  0  0  0
 34 32  2  0  0  0  0
 35 37  2  0  0  0  0
 35 34  1  0  0  0  0
 36 35  1  0  0  0  0
 37 38  1  0  0  0  0
 38 28  1  0  0  0  0
 38 31  2  0  0  0  0
M  END
>  <minimizedAffinity>
-5.90844727

>  <minimizedRMSD>
1.145239

$$$$
