
 OpenBabel03252508083D

 47 51  0  0  0  0  0  0  0  0999 V2000
   45.1720   35.5990   43.1080 C   0  0  0  0  0  0  0  0  0  0  0  0
   45.5300   34.2610   43.1710 C   0  0  0  0  0  0  0  0  0  0  0  0
   45.4330   33.5810   44.3610 C   0  0  0  0  0  0  0  0  0  0  0  0
   44.9710   34.2920   45.4520 N   0  0  0  0  0  0  0  0  0  0  0  0
   44.6300   35.5760   45.3840 C   0  0  0  0  0  0  0  0  0  0  0  0
   44.7370   36.2190   44.2020 N   0  0  0  0  0  0  0  0  0  0  0  0
   45.2200   36.1960   42.2200 H   0  0  0  0  0  0  0  0  0  0  0  0
   44.2750   36.0770   46.2790 H   0  0  0  0  0  0  0  0  0  0  0  0
   45.7570   32.2230   44.5910 C   0  0  0  0  0  0  0  0  0  0  0  0
   45.4070   31.1790   43.7310 C   0  0  0  0  0  0  0  0  0  0  0  0
   45.6590   29.8570   43.9840 C   0  0  0  0  0  0  0  0  0  0  0  0
   46.2960   29.4950   45.1510 C   0  0  0  0  0  0  0  0  0  0  0  0
   46.6620   30.5420   46.0400 C   0  0  0  0  0  0  0  0  0  0  0  0
   47.2950   30.1940   47.2050 C   0  0  0  0  0  0  0  0  0  0  0  0
   47.6780   31.1630   48.1110 C   0  0  0  0  0  0  0  0  0  0  0  0
   47.4170   32.5140   47.8290 C   0  0  0  0  0  0  0  0  0  0  0  0
   46.7640   32.8200   46.6200 C   0  0  0  0  0  0  0  0  0  0  0  0
   46.3920   31.8390   45.7430 C   0  0  0  0  0  0  0  0  0  0  0  0
   44.9030   31.4740   42.8110 H   0  0  0  0  0  0  0  0  0  0  0  0
   45.3400   29.1350   43.2390 H   0  0  0  0  0  0  0  0  0  0  0  0
   46.4960   28.4680   45.3590 H   0  0  0  0  0  0  0  0  0  0  0  0
   47.4910   29.1470   47.4070 H   0  0  0  0  0  0  0  0  0  0  0  0
   48.1650   30.8140   48.9970 H   0  0  0  0  0  0  0  0  0  0  0  0
   47.7540   33.1850   48.5890 H   0  0  0  0  0  0  0  0  0  0  0  0
   46.6770   33.8850   46.5790 H   0  0  0  0  0  0  0  0  0  0  0  0
   45.9670   33.6740   42.0170 O   0  0  0  0  0  0  0  0  0  0  0  0
   48.1240   32.3970   41.2540 O   0  0  0  0  0  0  0  0  0  0  0  0
   47.5560   33.7620   41.4370 P   0  0  1  0  0  0  0  0  0  0  0  0
   47.6080   34.5210   39.9240 O   0  0  0  0  0  0  0  0  0  0  0  0
   49.9550   33.1270   39.1720 H   0  0  0  0  0  0  0  0  0  0  0  0
   49.1060   33.1380   38.5570 N   0  0  0  0  0  0  0  0  0  0  0  0
   47.9400   33.7640   38.8090 C   0  0  0  0  0  0  0  0  0  0  0  0
   47.1230   33.5250   37.7650 N   0  0  0  0  0  0  0  0  0  0  0  0
   47.7410   32.7600   36.8500 C   0  0  0  0  0  0  0  0  0  0  0  0
   47.3060   32.2770   35.6510 C   0  0  0  0  0  0  0  0  0  0  0  0
   46.3220   32.4560   35.2350 H   0  0  0  0  0  0  0  0  0  0  0  0
   48.1820   31.5170   34.9360 N   0  0  0  0  0  0  0  0  0  0  0  0
   49.4200   31.2760   35.4330 C   0  0  0  0  0  0  0  0  0  0  0  0
   50.1440   30.6760   34.8920 H   0  0  0  0  0  0  0  0  0  0  0  0
   49.8540   31.7520   36.6160 N   0  0  0  0  0  0  0  0  0  0  0  0
   49.0040   32.5150   37.3540 C   0  0  0  0  0  0  0  0  0  0  0  0
   48.4660   34.6570   42.5230 O   0  0  0  0  0  0  0  0  0  0  0  0
   49.6800   35.2780   42.2740 C   0  0  0  0  0  0  0  0  0  0  0  0
   49.3750   36.3580   41.7360 O   0  0  0  0  0  0  0  0  0  0  0  0
   50.7780   34.4590   42.7220 N   0  0  0  0  0  0  0  0  0  0  0  0
   50.8540   34.2820   43.7590 H   0  0  0  0  0  0  0  0  0  0  0  0
   51.5030   34.0290   42.0870 H   0  0  0  0  0  0  0  0  0  0  0  0
  1  2  2  0  0  0  0
  1  6  1  0  0  0  0
  2  3  1  0  0  0  0
  3  9  1  0  0  0  0
  3  4  2  0  0  0  0
  5  4  1  0  0  0  0
  5  8  1  0  0  0  0
  6  5  2  0  0  0  0
  7  1  1  0  0  0  0
  9 18  1  0  0  0  0
 10 11  1  0  0  0  0
 10  9  2  0  0  0  0
 11 12  2  0  0  0  0
 12 21  1  0  0  0  0
 12 13  1  0  0  0  0
 13 14  1  0  0  0  0
 14 22  1  0  0  0  0
 14 15  2  0  0  0  0
 15 23  1  0  0  0  0
 16 15  1  0  0  0  0
 16 24  1  0  0  0  0
 17 16  2  0  0  0  0
 18 13  2  0  0  0  0
 18 17  1  0  0  0  0
 19 10  1  0  0  0  0
 20 11  1  0  0  0  0
 25 17  1  0  0  0  0
 26  2  1  0  0  0  0
 28 27  2  6  0  0  0
 28 26  1  0  0  0  0
 28 42  1  0  0  0  0
 29 28  1  0  0  0  0
 31 32  1  0  0  0  0
 31 30  1  0  0  0  0
 32 29  1  0  0  0  0
 33 32  2  0  0  0  0
 34 41  1  0  0  0  0
 34 33  1  0  0  0  0
 35 34  2  0  0  0  0
 36 35  1  0  0  0  0
 37 38  2  0  0  0  0
 37 35  1  0  0  0  0
 38 40  1  0  0  0  0
 39 38  1  0  0  0  0
 40 41  2  0  0  0  0
 41 31  1  0  0  0  0
 43 42  1  0  0  0  0
 43 45  1  0  0  0  0
 44 43  2  0  0  0  0
 45 46  1  0  0  0  0
 47 45  1  0  0  0  0
M  END
>  <minimizedAffinity>
-6.790133

>  <minimizedRMSD>
1.1450913

$$$$
