
 OpenBabel03252506383D

 47 51  0  0  1  0  0  0  0  0999 V2000
   46.8160   29.9750   46.5010 S   0  0  0  0  0  0  0  0  0  0  0  0
   45.2390   30.6200   43.6320 O   0  0  0  0  0  0  0  0  0  0  0  0
   44.8080   29.9820   44.6030 C   0  0  0  0  0  0  0  0  0  0  0  0
   45.1720   29.6600   46.0050 C   0  0  1  0  0  0  0  0  0  0  0  0
   44.7260   28.2240   46.1260 C   0  0  0  0  0  0  0  0  0  0  0  0
   43.2930   28.4120   45.6220 C   0  0  0  0  0  0  0  0  0  0  0  0
   43.5610   29.2750   44.4780 N   0  0  0  0  0  0  0  0  0  0  0  0
   44.3380   30.1930   46.5390 H   0  0  0  0  0  0  0  0  0  0  0  0
   44.6680   27.8750   47.1600 H   0  0  0  0  0  0  0  0  0  0  0  0
   45.2820   27.5440   45.4590 H   0  0  0  0  0  0  0  0  0  0  0  0
   42.8500   27.4730   45.2930 H   0  0  0  0  0  0  0  0  0  0  0  0
   42.7080   28.9380   46.4010 H   0  0  0  0  0  0  0  0  0  0  0  0
   41.0360   30.5200   44.2940 H   0  0  0  0  0  0  0  0  0  0  0  0
   41.4160   29.9750   43.4750 N   0  0  0  0  0  0  0  0  0  0  0  0
   42.5980   29.3250   43.4030 C   0  0  0  0  0  0  0  0  0  0  0  0
   42.6670   28.7690   42.1730 N   0  0  0  0  0  0  0  0  0  0  0  0
   41.5560   29.0570   41.4760 C   0  0  0  0  0  0  0  0  0  0  0  0
   41.1030   28.7560   40.2060 C   0  0  0  0  0  0  0  0  0  0  0  0
   41.7470   28.1520   39.5750 H   0  0  0  0  0  0  0  0  0  0  0  0
   39.9050   29.1970   39.7640 N   0  0  0  0  0  0  0  0  0  0  0  0
   39.1290   29.9510   40.5850 C   0  0  0  0  0  0  0  0  0  0  0  0
   38.1620   30.3080   40.2310 H   0  0  0  0  0  0  0  0  0  0  0  0
   39.5590   30.2500   41.8250 N   0  0  0  0  0  0  0  0  0  0  0  0
   40.7520   29.8240   42.2960 C   0  0  0  0  0  0  0  0  0  0  0  0
   44.5420   35.4240   45.1870 C   0  0  0  0  0  0  0  0  0  0  0  0
   45.2110   35.4630   43.9400 C   0  0  0  0  0  0  0  0  0  0  0  0
   46.1640   34.5330   43.6680 C   0  0  0  0  0  0  0  0  0  0  0  0
   46.4130   33.6120   44.6290 N   0  0  0  0  0  0  0  0  0  0  0  0
   45.7830   33.5800   45.7940 C   0  0  0  0  0  0  0  0  0  0  0  0
   44.8440   34.4790   46.0880 N   0  0  0  0  0  0  0  0  0  0  0  0
   46.1360   32.5540   46.7400 N   0  0  0  0  0  0  0  0  0  0  0  0
   45.3930   32.2580   47.9110 C   0  0  0  0  0  0  0  0  0  0  0  0
   46.4680   31.9190   48.9270 C   0  0  0  0  0  0  0  0  0  0  0  0
   47.7600   31.8690   48.1670 C   0  0  0  0  0  0  0  0  0  0  0  0
   47.2800   31.6760   46.7300 C   0  0  1  0  0  0  0  0  0  0  0  0
   43.7850   36.1720   45.3870 H   0  0  0  0  0  0  0  0  0  0  0  0
   46.6790   34.5460   42.7360 H   0  0  0  0  0  0  0  0  0  0  0  0
   44.9880   33.2500   48.2890 H   0  0  0  0  0  0  0  0  0  0  0  0
   44.6060   31.5810   47.9830 H   0  0  0  0  0  0  0  0  0  0  0  0
   46.2580   30.8950   49.3510 H   0  0  0  0  0  0  0  0  0  0  0  0
   46.5080   32.5810   49.7910 H   0  0  0  0  0  0  0  0  0  0  0  0
   48.3480   32.7760   48.3140 H   0  0  0  0  0  0  0  0  0  0  0  0
   48.3350   30.9570   48.4770 H   0  0  0  0  0  0  0  0  0  0  0  0
   48.0930   32.0300   46.0760 H   0  0  0  0  0  0  0  0  0  0  0  0
   44.8330   36.5050   43.0260 N   0  0  0  0  0  0  0  0  0  0  0  0
   45.6570   36.9070   42.5000 H   0  0  0  0  0  0  0  0  0  0  0  0
   43.8760   36.8660   42.8540 H   0  0  0  0  0  0  0  0  0  0  0  0
  1 35  1  0  0  0  0
  2  3  2  0  0  0  0
  3  4  1  0  0  0  0
  4  5  1  0  0  0  0
  4  1  1  0  0  0  0
  4  8  1  1  0  0  0
  5  9  1  0  0  0  0
  6  5  1  0  0  0  0
  6 12  1  0  0  0  0
  7  3  1  0  0  0  0
  7  6  1  0  0  0  0
 10  5  1  0  0  0  0
 11  6  1  0  0  0  0
 14 13  1  0  0  0  0
 15 14  1  0  0  0  0
 15  7  1  0  0  0  0
 16 15  2  0  0  0  0
 17 16  1  0  0  0  0
 17 24  1  0  0  0  0
 18 17  2  0  0  0  0
 19 18  1  0  0  0  0
 20 18  1  0  0  0  0
 20 21  2  0  0  0  0
 21 23  1  0  0  0  0
 22 21  1  0  0  0  0
 23 24  2  0  0  0  0
 24 14  1  0  0  0  0
 25 36  1  0  0  0  0
 25 30  1  0  0  0  0
 26 25  2  0  0  0  0
 27 26  1  0  0  0  0
 27 28  2  0  0  0  0
 28 29  1  0  0  0  0
 29 30  2  0  0  0  0
 29 31  1  0  0  0  0
 31 32  1  0  0  0  0
 32 39  1  0  0  0  0
 32 38  1  0  0  0  0
 32 33  1  0  0  0  0
 33 40  1  0  0  0  0
 33 41  1  0  0  0  0
 34 42  1  0  0  0  0
 34 43  1  0  0  0  0
 34 33  1  0  0  0  0
 35 44  1  6  0  0  0
 35 31  1  0  0  0  0
 35 34  1  0  0  0  0
 37 27  1  0  0  0  0
 45 26  1  0  0  0  0
 46 45  1  0  0  0  0
 47 45  1  0  0  0  0
M  END
>  <minimizedAffinity>
-6.09559107

>  <minimizedRMSD>
0.668815315

$$$$
