
 OpenBabel03252506383D

 47 51  0  0  1  0  0  0  0  0999 V2000
   46.6750   30.0260   46.5520 S   0  0  0  0  0  0  0  0  0  0  0  0
   45.5410   30.5680   43.4610 O   0  0  0  0  0  0  0  0  0  0  0  0
   44.9520   29.9990   44.3930 C   0  0  0  0  0  0  0  0  0  0  0  0
   45.1040   29.7410   45.8460 C   0  0  1  0  0  0  0  0  0  0  0  0
   44.5870   28.3310   45.9740 C   0  0  0  0  0  0  0  0  0  0  0  0
   43.2460   28.5400   45.2640 C   0  0  0  0  0  0  0  0  0  0  0  0
   43.7060   29.3290   44.1280 N   0  0  0  0  0  0  0  0  0  0  0  0
   44.2270   30.3310   46.2300 H   0  0  0  0  0  0  0  0  0  0  0  0
   44.3710   28.0410   47.0060 H   0  0  0  0  0  0  0  0  0  0  0  0
   45.2010   27.5960   45.4260 H   0  0  0  0  0  0  0  0  0  0  0  0
   42.8140   27.6000   44.9230 H   0  0  0  0  0  0  0  0  0  0  0  0
   42.5810   29.1280   45.9260 H   0  0  0  0  0  0  0  0  0  0  0  0
   41.0380   28.5500   43.6530 H   0  0  0  0  0  0  0  0  0  0  0  0
   41.6220   28.9370   42.8660 N   0  0  0  0  0  0  0  0  0  0  0  0
   42.9050   29.3540   42.9270 C   0  0  0  0  0  0  0  0  0  0  0  0
   43.2440   29.7710   41.6860 N   0  0  0  0  0  0  0  0  0  0  0  0
   42.2020   29.6250   40.8530 C   0  0  0  0  0  0  0  0  0  0  0  0
   41.9900   29.8810   39.5120 C   0  0  0  0  0  0  0  0  0  0  0  0
   42.8170   30.2970   38.9460 H   0  0  0  0  0  0  0  0  0  0  0  0
   40.8000   29.6240   38.9260 N   0  0  0  0  0  0  0  0  0  0  0  0
   39.7910   29.1020   39.6710 C   0  0  0  0  0  0  0  0  0  0  0  0
   38.8290   28.8940   39.2010 H   0  0  0  0  0  0  0  0  0  0  0  0
   39.9840   28.8480   40.9780 N   0  0  0  0  0  0  0  0  0  0  0  0
   41.1620   29.0950   41.5930 C   0  0  0  0  0  0  0  0  0  0  0  0
   44.5180   35.5010   45.1510 C   0  0  0  0  0  0  0  0  0  0  0  0
   45.1780   35.5010   43.8990 C   0  0  0  0  0  0  0  0  0  0  0  0
   46.1080   34.5440   43.6370 C   0  0  0  0  0  0  0  0  0  0  0  0
   46.3420   33.6360   44.6140 N   0  0  0  0  0  0  0  0  0  0  0  0
   45.7210   33.6400   45.7840 C   0  0  0  0  0  0  0  0  0  0  0  0
   44.8050   34.5660   46.0680 N   0  0  0  0  0  0  0  0  0  0  0  0
   46.0570   32.6250   46.7470 N   0  0  0  0  0  0  0  0  0  0  0  0
   45.3170   32.3680   47.9290 C   0  0  0  0  0  0  0  0  0  0  0  0
   46.3910   32.0230   48.9430 C   0  0  0  0  0  0  0  0  0  0  0  0
   47.6750   31.9290   48.1750 C   0  0  0  0  0  0  0  0  0  0  0  0
   47.1800   31.7200   46.7460 C   0  0  1  0  0  0  0  0  0  0  0  0
   43.7800   36.2700   45.3430 H   0  0  0  0  0  0  0  0  0  0  0  0
   46.6160   34.5280   42.7010 H   0  0  0  0  0  0  0  0  0  0  0  0
   44.9380   33.3770   48.2900 H   0  0  0  0  0  0  0  0  0  0  0  0
   44.5150   31.7110   48.0190 H   0  0  0  0  0  0  0  0  0  0  0  0
   46.1610   31.0130   49.3890 H   0  0  0  0  0  0  0  0  0  0  0  0
   46.4530   32.7010   49.7940 H   0  0  0  0  0  0  0  0  0  0  0  0
   48.2860   32.8250   48.3010 H   0  0  0  0  0  0  0  0  0  0  0  0
   48.2320   31.0100   48.4980 H   0  0  0  0  0  0  0  0  0  0  0  0
   47.9970   32.0420   46.0790 H   0  0  0  0  0  0  0  0  0  0  0  0
   44.8170   36.5340   42.9670 N   0  0  0  0  0  0  0  0  0  0  0  0
   45.6470   36.9070   42.4290 H   0  0  0  0  0  0  0  0  0  0  0  0
   43.8680   36.9140   42.7960 H   0  0  0  0  0  0  0  0  0  0  0  0
  1 35  1  0  0  0  0
  2  3  2  0  0  0  0
  3  4  1  0  0  0  0
  4  5  1  0  0  0  0
  4  8  1  1  0  0  0
  4  1  1  0  0  0  0
  5  9  1  0  0  0  0
  6 12  1  0  0  0  0
  6  5  1  0  0  0  0
  7  3  1  0  0  0  0
  7  6  1  0  0  0  0
 10  5  1  0  0  0  0
 11  6  1  0  0  0  0
 14 15  1  0  0  0  0
 14 13  1  0  0  0  0
 15  7  1  0  0  0  0
 16 15  2  0  0  0  0
 17 24  1  0  0  0  0
 17 16  1  0  0  0  0
 18 17  2  0  0  0  0
 19 18  1  0  0  0  0
 20 18  1  0  0  0  0
 20 21  2  0  0  0  0
 21 23  1  0  0  0  0
 22 21  1  0  0  0  0
 23 24  2  0  0  0  0
 24 14  1  0  0  0  0
 25 36  1  0  0  0  0
 25 30  1  0  0  0  0
 26 25  2  0  0  0  0
 27 26  1  0  0  0  0
 27 28  2  0  0  0  0
 28 29  1  0  0  0  0
 29 30  2  0  0  0  0
 29 31  1  0  0  0  0
 31 32  1  0  0  0  0
 32 39  1  0  0  0  0
 32 38  1  0  0  0  0
 32 33  1  0  0  0  0
 33 40  1  0  0  0  0
 33 41  1  0  0  0  0
 34 42  1  0  0  0  0
 34 43  1  0  0  0  0
 34 33  1  0  0  0  0
 35 44  1  6  0  0  0
 35 31  1  0  0  0  0
 35 34  1  0  0  0  0
 37 27  1  0  0  0  0
 45 26  1  0  0  0  0
 46 45  1  0  0  0  0
 47 45  1  0  0  0  0
M  END
>  <minimizedAffinity>
-5.76267815

>  <minimizedRMSD>
0.14184764

$$$$
