
 OpenBabel03252506383D

 47 51  0  0  1  0  0  0  0  0999 V2000
   46.8090   29.9850   46.5160 S   0  0  0  0  0  0  0  0  0  0  0  0
   45.2640   30.6960   43.6450 O   0  0  0  0  0  0  0  0  0  0  0  0
   44.8260   30.0270   44.5930 C   0  0  0  0  0  0  0  0  0  0  0  0
   45.1750   29.6700   45.9900 C   0  0  1  0  0  0  0  0  0  0  0  0
   44.7410   28.2270   46.0660 C   0  0  0  0  0  0  0  0  0  0  0  0
   43.3120   28.4160   45.5490 C   0  0  0  0  0  0  0  0  0  0  0  0
   43.5870   29.3130   44.4320 N   0  0  0  0  0  0  0  0  0  0  0  0
   44.3300   30.1800   46.5280 H   0  0  0  0  0  0  0  0  0  0  0  0
   44.6730   27.8490   47.0900 H   0  0  0  0  0  0  0  0  0  0  0  0
   45.3120   27.5710   45.3880 H   0  0  0  0  0  0  0  0  0  0  0  0
   42.8830   27.4830   45.1880 H   0  0  0  0  0  0  0  0  0  0  0  0
   42.7130   28.9150   46.3340 H   0  0  0  0  0  0  0  0  0  0  0  0
   42.4990   31.5170   43.0500 H   0  0  0  0  0  0  0  0  0  0  0  0
   42.2130   30.5380   42.7880 N   0  0  0  0  0  0  0  0  0  0  0  0
   42.6370   29.3850   43.3470 C   0  0  0  0  0  0  0  0  0  0  0  0
   42.0100   28.3770   42.6990 N   0  0  0  0  0  0  0  0  0  0  0  0
   41.2040   28.8770   41.7480 C   0  0  0  0  0  0  0  0  0  0  0  0
   40.3510   28.3250   40.8120 C   0  0  0  0  0  0  0  0  0  0  0  0
   40.2680   27.2430   40.7880 H   0  0  0  0  0  0  0  0  0  0  0  0
   39.6460   29.0990   39.9590 N   0  0  0  0  0  0  0  0  0  0  0  0
   39.7780   30.4490   40.0210 C   0  0  0  0  0  0  0  0  0  0  0  0
   39.2110   31.0770   39.3350 H   0  0  0  0  0  0  0  0  0  0  0  0
   40.6060   31.0000   40.9290 N   0  0  0  0  0  0  0  0  0  0  0  0
   41.3250   30.2520   41.7960 C   0  0  0  0  0  0  0  0  0  0  0  0
   44.5370   35.4310   45.1880 C   0  0  0  0  0  0  0  0  0  0  0  0
   45.2120   35.4710   43.9440 C   0  0  0  0  0  0  0  0  0  0  0  0
   46.1680   34.5420   43.6770 C   0  0  0  0  0  0  0  0  0  0  0  0
   46.4120   33.6210   44.6400 N   0  0  0  0  0  0  0  0  0  0  0  0
   45.7770   33.5890   45.8020 C   0  0  0  0  0  0  0  0  0  0  0  0
   44.8360   34.4870   46.0910 N   0  0  0  0  0  0  0  0  0  0  0  0
   46.1260   32.5640   46.7500 N   0  0  0  0  0  0  0  0  0  0  0  0
   45.3780   32.2680   47.9180 C   0  0  0  0  0  0  0  0  0  0  0  0
   46.4480   31.9300   48.9400 C   0  0  0  0  0  0  0  0  0  0  0  0
   47.7440   31.8810   48.1850 C   0  0  0  0  0  0  0  0  0  0  0  0
   47.2710   31.6870   46.7470 C   0  0  1  0  0  0  0  0  0  0  0  0
   43.7790   36.1790   45.3850 H   0  0  0  0  0  0  0  0  0  0  0  0
   46.6870   34.5550   42.7480 H   0  0  0  0  0  0  0  0  0  0  0  0
   44.9700   33.2600   48.2930 H   0  0  0  0  0  0  0  0  0  0  0  0
   44.5910   31.5900   47.9860 H   0  0  0  0  0  0  0  0  0  0  0  0
   46.2370   30.9060   49.3630 H   0  0  0  0  0  0  0  0  0  0  0  0
   46.4830   32.5920   49.8030 H   0  0  0  0  0  0  0  0  0  0  0  0
   48.3310   32.7890   48.3360 H   0  0  0  0  0  0  0  0  0  0  0  0
   48.3180   30.9690   48.4990 H   0  0  0  0  0  0  0  0  0  0  0  0
   48.0870   32.0410   46.0960 H   0  0  0  0  0  0  0  0  0  0  0  0
   44.8380   36.5120   43.0280 N   0  0  0  0  0  0  0  0  0  0  0  0
   45.6640   36.9150   42.5070 H   0  0  0  0  0  0  0  0  0  0  0  0
   43.8820   36.8720   42.8510 H   0  0  0  0  0  0  0  0  0  0  0  0
  1 35  1  0  0  0  0
  2  3  2  0  0  0  0
  3  4  1  0  0  0  0
  4  5  1  0  0  0  0
  4  1  1  0  0  0  0
  4  8  1  1  0  0  0
  5  9  1  0  0  0  0
  6  5  1  0  0  0  0
  6 12  1  0  0  0  0
  7  3  1  0  0  0  0
  7  6  1  0  0  0  0
 10  5  1  0  0  0  0
 11  6  1  0  0  0  0
 14 13  1  0  0  0  0
 14 15  1  0  0  0  0
 15  7  1  0  0  0  0
 16 15  2  0  0  0  0
 17 24  1  0  0  0  0
 17 16  1  0  0  0  0
 18 17  2  0  0  0  0
 19 18  1  0  0  0  0
 20 21  2  0  0  0  0
 20 18  1  0  0  0  0
 21 23  1  0  0  0  0
 22 21  1  0  0  0  0
 23 24  2  0  0  0  0
 24 14  1  0  0  0  0
 25 36  1  0  0  0  0
 25 30  1  0  0  0  0
 26 25  2  0  0  0  0
 27 26  1  0  0  0  0
 27 28  2  0  0  0  0
 28 29  1  0  0  0  0
 29 30  2  0  0  0  0
 29 31  1  0  0  0  0
 31 32  1  0  0  0  0
 32 39  1  0  0  0  0
 32 38  1  0  0  0  0
 32 33  1  0  0  0  0
 33 40  1  0  0  0  0
 33 41  1  0  0  0  0
 34 42  1  0  0  0  0
 34 43  1  0  0  0  0
 34 33  1  0  0  0  0
 35 44  1  6  0  0  0
 35 31  1  0  0  0  0
 35 34  1  0  0  0  0
 37 27  1  0  0  0  0
 45 26  1  0  0  0  0
 46 45  1  0  0  0  0
 47 45  1  0  0  0  0
M  END
>  <minimizedAffinity>
-6.05953789

>  <minimizedRMSD>
0.61952728

$$$$
