
 OpenBabel03252508083D

 47 51  0  0  0  0  0  0  0  0999 V2000
   45.3680   36.0790   42.6620 C   0  0  0  0  0  0  0  0  0  0  0  0
   45.5510   34.7050   42.6730 C   0  0  0  0  0  0  0  0  0  0  0  0
   45.2600   33.9830   43.8040 C   0  0  0  0  0  0  0  0  0  0  0  0
   44.7860   34.6900   44.8920 N   0  0  0  0  0  0  0  0  0  0  0  0
   44.6130   36.0090   44.8760 C   0  0  0  0  0  0  0  0  0  0  0  0
   44.9100   36.6930   43.7500 N   0  0  0  0  0  0  0  0  0  0  0  0
   45.5730   36.7100   41.8200 H   0  0  0  0  0  0  0  0  0  0  0  0
   44.2390   36.5050   45.7660 H   0  0  0  0  0  0  0  0  0  0  0  0
   45.3910   32.5850   43.9770 C   0  0  0  0  0  0  0  0  0  0  0  0
   44.8690   31.6350   43.0940 C   0  0  0  0  0  0  0  0  0  0  0  0
   44.9360   30.2820   43.2930 C   0  0  0  0  0  0  0  0  0  0  0  0
   45.5480   29.7880   44.4230 C   0  0  0  0  0  0  0  0  0  0  0  0
   46.0870   30.7370   45.3350 C   0  0  0  0  0  0  0  0  0  0  0  0
   46.6970   30.2570   46.4640 C   0  0  0  0  0  0  0  0  0  0  0  0
   47.2430   31.1250   47.3890 C   0  0  0  0  0  0  0  0  0  0  0  0
   47.1710   32.5100   47.1620 C   0  0  0  0  0  0  0  0  0  0  0  0
   46.5330   32.9530   45.9880 C   0  0  0  0  0  0  0  0  0  0  0  0
   45.9980   32.0690   45.0920 C   0  0  0  0  0  0  0  0  0  0  0  0
   44.3860   32.0350   42.2030 H   0  0  0  0  0  0  0  0  0  0  0  0
   44.4950   29.6430   42.5350 H   0  0  0  0  0  0  0  0  0  0  0  0
   45.6040   28.7360   44.5890 H   0  0  0  0  0  0  0  0  0  0  0  0
   46.7460   29.1850   46.6240 H   0  0  0  0  0  0  0  0  0  0  0  0
   47.7010   30.6760   48.2450 H   0  0  0  0  0  0  0  0  0  0  0  0
   47.6230   33.0950   47.9330 H   0  0  0  0  0  0  0  0  0  0  0  0
   46.5990   34.0200   45.9860 H   0  0  0  0  0  0  0  0  0  0  0  0
   46.0210   34.1260   41.5260 O   0  0  0  0  0  0  0  0  0  0  0  0
   47.9550   32.4660   40.9170 O   0  0  0  0  0  0  0  0  0  0  0  0
   47.6600   33.9060   41.1650 P   0  0  1  0  0  0  0  0  0  0  0  0
   48.0880   34.7420   39.7560 O   0  0  0  0  0  0  0  0  0  0  0  0
   49.8610   34.2880   37.5950 H   0  0  0  0  0  0  0  0  0  0  0  0
   48.8690   33.9490   37.5680 N   0  0  0  0  0  0  0  0  0  0  0  0
   47.9400   34.1050   38.5310 C   0  0  0  0  0  0  0  0  0  0  0  0
   46.8080   33.5230   38.0930 N   0  0  0  0  0  0  0  0  0  0  0  0
   46.9920   32.9970   36.8710 C   0  0  0  0  0  0  0  0  0  0  0  0
   46.1320   32.3220   36.0530 C   0  0  0  0  0  0  0  0  0  0  0  0
   45.1010   32.0980   36.2920 H   0  0  0  0  0  0  0  0  0  0  0  0
   46.6230   31.9060   34.8500 N   0  0  0  0  0  0  0  0  0  0  0  0
   47.9130   32.1730   34.5250 C   0  0  0  0  0  0  0  0  0  0  0  0
   48.3360   31.8580   33.5780 H   0  0  0  0  0  0  0  0  0  0  0  0
   48.7620   32.8390   35.3300 N   0  0  0  0  0  0  0  0  0  0  0  0
   48.3040   33.2680   36.5370 C   0  0  0  0  0  0  0  0  0  0  0  0
   48.5680   34.5000   42.4420 O   0  0  0  0  0  0  0  0  0  0  0  0
   49.7550   35.2110   42.3570 C   0  0  0  0  0  0  0  0  0  0  0  0
   49.4120   36.3480   41.9850 O   0  0  0  0  0  0  0  0  0  0  0  0
   50.8770   34.3840   42.7210 N   0  0  0  0  0  0  0  0  0  0  0  0
   50.9210   34.0440   43.7190 H   0  0  0  0  0  0  0  0  0  0  0  0
   51.6510   34.0990   42.0630 H   0  0  0  0  0  0  0  0  0  0  0  0
  1  2  2  0  0  0  0
  1  6  1  0  0  0  0
  2  3  1  0  0  0  0
  3  9  1  0  0  0  0
  3  4  2  0  0  0  0
  5  4  1  0  0  0  0
  5  8  1  0  0  0  0
  6  5  2  0  0  0  0
  7  1  1  0  0  0  0
  9 18  1  0  0  0  0
 10 11  1  0  0  0  0
 10  9  2  0  0  0  0
 11 12  2  0  0  0  0
 12 21  1  0  0  0  0
 12 13  1  0  0  0  0
 13 14  1  0  0  0  0
 14 22  1  0  0  0  0
 14 15  2  0  0  0  0
 15 23  1  0  0  0  0
 16 15  1  0  0  0  0
 16 24  1  0  0  0  0
 17 16  2  0  0  0  0
 18 13  2  0  0  0  0
 18 17  1  0  0  0  0
 19 10  1  0  0  0  0
 20 11  1  0  0  0  0
 25 17  1  0  0  0  0
 26  2  1  0  0  0  0
 28 27  2  6  0  0  0
 28 26  1  0  0  0  0
 28 42  1  0  0  0  0
 29 28  1  0  0  0  0
 31 30  1  0  0  0  0
 31 32  1  0  0  0  0
 32 29  1  0  0  0  0
 33 32  2  0  0  0  0
 34 33  1  0  0  0  0
 35 36  1  0  0  0  0
 35 34  2  0  0  0  0
 37 35  1  0  0  0  0
 38 37  2  0  0  0  0
 38 40  1  0  0  0  0
 39 38  1  0  0  0  0
 40 41  2  0  0  0  0
 41 34  1  0  0  0  0
 41 31  1  0  0  0  0
 43 42  1  0  0  0  0
 43 45  1  0  0  0  0
 44 43  2  0  0  0  0
 45 46  1  0  0  0  0
 47 45  1  0  0  0  0
M  END
>  <minimizedAffinity>
-6.7303133

>  <minimizedRMSD>
0.662611663

$$$$
