
 OpenBabel03242515563D

 40 44  0  0  0  0  0  0  0  0999 V2000
   45.9680   32.7430   46.5370 C   0  0  0  0  0  0  0  0  0  0  0  0
   45.4640   32.9040   47.8510 C   0  0  0  0  0  0  0  0  0  0  0  0
   45.7090   32.0220   48.8760 C   0  0  0  0  0  0  0  0  0  0  0  0
   46.4680   30.9250   48.6650 C   0  0  0  0  0  0  0  0  0  0  0  0
   46.9900   30.7120   47.3940 C   0  0  0  0  0  0  0  0  0  0  0  0
   47.7460   29.5910   47.2290 C   0  0  0  0  0  0  0  0  0  0  0  0
   48.2880   29.3160   45.9890 C   0  0  0  0  0  0  0  0  0  0  0  0
   48.0150   30.2260   44.9720 C   0  0  0  0  0  0  0  0  0  0  0  0
   47.2560   31.3100   45.2250 C   0  0  0  0  0  0  0  0  0  0  0  0
   46.7200   31.6170   46.3960 C   0  0  0  0  0  0  0  0  0  0  0  0
   44.8510   33.7660   48.0740 H   0  0  0  0  0  0  0  0  0  0  0  0
   45.2900   32.2130   49.8490 H   0  0  0  0  0  0  0  0  0  0  0  0
   46.6410   30.2580   49.4850 H   0  0  0  0  0  0  0  0  0  0  0  0
   47.9080   28.9200   48.1030 H   0  0  0  0  0  0  0  0  0  0  0  0
   48.8760   28.3820   45.9970 H   0  0  0  0  0  0  0  0  0  0  0  0
   48.5500   29.7560   44.1610 H   0  0  0  0  0  0  0  0  0  0  0  0
   44.4530   35.6940   45.1460 C   0  0  0  0  0  0  0  0  0  0  0  0
   45.0960   35.7930   43.8690 C   0  0  0  0  0  0  0  0  0  0  0  0
   46.0580   34.8170   43.4720 C   0  0  0  0  0  0  0  0  0  0  0  0
   46.3120   33.8360   44.3410 N   0  0  0  0  0  0  0  0  0  0  0  0
   45.7350   33.7330   45.5100 C   0  0  0  0  0  0  0  0  0  0  0  0
   44.8080   34.6630   45.9050 N   0  0  0  0  0  0  0  0  0  0  0  0
   43.7330   36.4480   45.4150 H   0  0  0  0  0  0  0  0  0  0  0  0
   46.4210   35.0630   42.5160 H   0  0  0  0  0  0  0  0  0  0  0  0
   44.7060   36.9050   43.0630 N   0  0  0  0  0  0  0  0  0  0  0  0
   43.8810   36.8120   42.4330 H   0  0  0  0  0  0  0  0  0  0  0  0
   45.4450   37.5900   43.3630 H   0  0  0  0  0  0  0  0  0  0  0  0
   47.1550   31.9950   44.0530 O   0  0  0  0  0  0  0  0  0  0  0  0
   46.6100   31.9350   41.2490 H   0  0  0  0  0  0  0  0  0  0  0  0
   47.5360   31.9050   41.7320 N   0  0  0  0  0  0  0  0  0  0  0  0
   48.0530   31.9130   42.9710 C   0  0  0  0  0  0  0  0  0  0  0  0
   49.3470   31.8290   42.7470 N   0  0  0  0  0  0  0  0  0  0  0  0
   49.6980   31.7700   41.4860 C   0  0  0  0  0  0  0  0  0  0  0  0
   50.9650   31.6780   40.9420 C   0  0  0  0  0  0  0  0  0  0  0  0
   51.8410   31.6450   41.5780 H   0  0  0  0  0  0  0  0  0  0  0  0
   51.0540   31.6300   39.5870 N   0  0  0  0  0  0  0  0  0  0  0  0
   49.8770   31.6790   38.8970 C   0  0  0  0  0  0  0  0  0  0  0  0
   49.9440   31.6420   37.7970 H   0  0  0  0  0  0  0  0  0  0  0  0
   48.6690   31.7690   39.4680 N   0  0  0  0  0  0  0  0  0  0  0  0
   48.5050   31.8200   40.8060 C   0  0  0  0  0  0  0  0  0  0  0  0
  1  2  1  0  0  0  0
  2 11  1  0  0  0  0
  2  3  2  0  0  0  0
  3 12  1  0  0  0  0
  4  3  1  0  0  0  0
  4 13  1  0  0  0  0
  5  4  2  0  0  0  0
  6  5  1  0  0  0  0
  6 14  1  0  0  0  0
  7 15  1  0  0  0  0
  7  6  2  0  0  0  0
  8  9  2  0  0  0  0
  8  7  1  0  0  0  0
  9 10  1  0  0  0  0
 10  1  2  0  0  0  0
 10  5  1  0  0  0  0
 16  8  1  0  0  0  0
 17 23  1  0  0  0  0
 17 22  1  0  0  0  0
 18 17  2  0  0  0  0
 19 18  1  0  0  0  0
 19 20  2  0  0  0  0
 20 21  1  0  0  0  0
 21 22  2  0  0  0  0
 21  1  1  0  0  0  0
 24 19  1  0  0  0  0
 25 27  1  0  0  0  0
 25 18  1  0  0  0  0
 26 25  1  0  0  0  0
 28  9  1  0  0  0  0
 29 30  1  0  0  0  0
 30 31  1  0  0  0  0
 31 28  1  0  0  0  0
 32 31  2  0  0  0  0
 33 32  1  0  0  0  0
 34 33  1  0  0  0  0
 34 35  1  0  0  0  0
 36 34  2  0  0  0  0
 37 39  2  0  0  0  0
 37 36  1  0  0  0  0
 38 37  1  0  0  0  0
 39 40  1  0  0  0  0
 40 33  2  0  0  0  0
 40 30  1  0  0  0  0
M  END
>  <minimizedAffinity>
-6.44006681

>  <minimizedRMSD>
0.915046513

$$$$
