
 OpenBabel03252508083D

 47 51  0  0  0  0  0  0  0  0999 V2000
   45.2350   35.9500   42.9080 C   0  0  0  0  0  0  0  0  0  0  0  0
   45.4860   34.5870   42.9130 C   0  0  0  0  0  0  0  0  0  0  0  0
   45.2900   33.8580   44.0600 C   0  0  0  0  0  0  0  0  0  0  0  0
   44.8390   34.5460   45.1700 N   0  0  0  0  0  0  0  0  0  0  0  0
   44.6010   35.8560   45.1580 C   0  0  0  0  0  0  0  0  0  0  0  0
   44.8040   36.5470   44.0160 N   0  0  0  0  0  0  0  0  0  0  0  0
   45.3640   36.5860   42.0550 H   0  0  0  0  0  0  0  0  0  0  0  0
   44.2480   36.3380   46.0650 H   0  0  0  0  0  0  0  0  0  0  0  0
   45.5000   32.4690   44.2300 C   0  0  0  0  0  0  0  0  0  0  0  0
   45.0400   31.4940   43.3410 C   0  0  0  0  0  0  0  0  0  0  0  0
   45.1820   30.1460   43.5370 C   0  0  0  0  0  0  0  0  0  0  0  0
   45.8130   29.6840   44.6700 C   0  0  0  0  0  0  0  0  0  0  0  0
   46.2910   30.6590   45.5890 C   0  0  0  0  0  0  0  0  0  0  0  0
   46.9190   30.2110   46.7210 C   0  0  0  0  0  0  0  0  0  0  0  0
   47.4080   31.1070   47.6520 C   0  0  0  0  0  0  0  0  0  0  0  0
   47.2580   32.4860   47.4290 C   0  0  0  0  0  0  0  0  0  0  0  0
   46.6050   32.8950   46.2510 C   0  0  0  0  0  0  0  0  0  0  0  0
   46.1280   31.9850   45.3490 C   0  0  0  0  0  0  0  0  0  0  0  0
   44.5410   31.8680   42.4470 H   0  0  0  0  0  0  0  0  0  0  0  0
   44.7830   29.4850   42.7740 H   0  0  0  0  0  0  0  0  0  0  0  0
   45.9280   28.6370   44.8340 H   0  0  0  0  0  0  0  0  0  0  0  0
   47.0280   29.1440   46.8780 H   0  0  0  0  0  0  0  0  0  0  0  0
   47.8840   30.6820   48.5110 H   0  0  0  0  0  0  0  0  0  0  0  0
   47.6710   33.0940   48.2040 H   0  0  0  0  0  0  0  0  0  0  0  0
   46.6100   33.9640   46.2530 H   0  0  0  0  0  0  0  0  0  0  0  0
   45.9240   34.0260   41.7460 O   0  0  0  0  0  0  0  0  0  0  0  0
   47.9260   32.4450   41.1470 O   0  0  0  0  0  0  0  0  0  0  0  0
   47.5520   33.8780   41.3030 P   0  0  1  0  0  0  0  0  0  0  0  0
   47.8440   34.6250   39.8110 O   0  0  0  0  0  0  0  0  0  0  0  0
   50.0800   33.0480   39.0830 H   0  0  0  0  0  0  0  0  0  0  0  0
   49.2340   33.1140   38.4670 N   0  0  0  0  0  0  0  0  0  0  0  0
   48.1190   33.8280   38.7080 C   0  0  0  0  0  0  0  0  0  0  0  0
   47.2870   33.6350   37.6670 N   0  0  0  0  0  0  0  0  0  0  0  0
   47.8460   32.8120   36.7650 C   0  0  0  0  0  0  0  0  0  0  0  0
   47.3750   32.3450   35.5720 C   0  0  0  0  0  0  0  0  0  0  0  0
   46.4080   32.5900   35.1530 H   0  0  0  0  0  0  0  0  0  0  0  0
   48.1930   31.5090   34.8700 N   0  0  0  0  0  0  0  0  0  0  0  0
   49.4090   31.1850   35.3740 C   0  0  0  0  0  0  0  0  0  0  0  0
   50.0860   30.5240   34.8430 H   0  0  0  0  0  0  0  0  0  0  0  0
   49.8770   31.6450   36.5490 N   0  0  0  0  0  0  0  0  0  0  0  0
   49.0850   32.4810   37.2740 C   0  0  0  0  0  0  0  0  0  0  0  0
   48.4890   34.6260   42.4740 O   0  0  0  0  0  0  0  0  0  0  0  0
   49.7000   35.2720   42.2820 C   0  0  0  0  0  0  0  0  0  0  0  0
   49.3930   36.3700   41.7840 O   0  0  0  0  0  0  0  0  0  0  0  0
   50.7970   34.4470   42.7190 N   0  0  0  0  0  0  0  0  0  0  0  0
   50.8530   34.2250   43.7490 H   0  0  0  0  0  0  0  0  0  0  0  0
   51.5430   34.0540   42.0830 H   0  0  0  0  0  0  0  0  0  0  0  0
  1  2  2  0  0  0  0
  1  6  1  0  0  0  0
  2  3  1  0  0  0  0
  3  9  1  0  0  0  0
  3  4  2  0  0  0  0
  5  4  1  0  0  0  0
  5  8  1  0  0  0  0
  6  5  2  0  0  0  0
  7  1  1  0  0  0  0
  9 18  1  0  0  0  0
 10 11  1  0  0  0  0
 10  9  2  0  0  0  0
 11 12  2  0  0  0  0
 12 21  1  0  0  0  0
 12 13  1  0  0  0  0
 13 14  1  0  0  0  0
 14 22  1  0  0  0  0
 14 15  2  0  0  0  0
 15 23  1  0  0  0  0
 16 15  1  0  0  0  0
 16 24  1  0  0  0  0
 17 25  1  0  0  0  0
 17 16  2  0  0  0  0
 18 13  2  0  0  0  0
 18 17  1  0  0  0  0
 19 10  1  0  0  0  0
 20 11  1  0  0  0  0
 26  2  1  0  0  0  0
 28 27  2  6  0  0  0
 28 26  1  0  0  0  0
 28 42  1  0  0  0  0
 29 28  1  0  0  0  0
 31 32  1  0  0  0  0
 31 30  1  0  0  0  0
 32 29  1  0  0  0  0
 33 32  2  0  0  0  0
 34 41  1  0  0  0  0
 34 33  1  0  0  0  0
 35 34  2  0  0  0  0
 36 35  1  0  0  0  0
 37 38  2  0  0  0  0
 37 35  1  0  0  0  0
 38 40  1  0  0  0  0
 39 38  1  0  0  0  0
 40 41  2  0  0  0  0
 41 31  1  0  0  0  0
 43 42  1  0  0  0  0
 43 45  1  0  0  0  0
 44 43  2  0  0  0  0
 45 46  1  0  0  0  0
 47 45  1  0  0  0  0
M  END
>  <minimizedAffinity>
-6.73402548

>  <minimizedRMSD>
1.04777014

$$$$
