
 OpenBabel03242515113D

 39 42  0  0  0  0  0  0  0  0999 V2000
   35.9360   28.2080   41.7090 N   0  0  0  0  0  0  0  0  0  0  0  0
   35.1270   27.8530   42.3010 H   0  0  0  0  0  0  0  0  0  0  0  0
   37.6090   26.3920   41.6120 C   0  0  0  0  0  0  0  0  0  0  0  0
   38.7980   25.9590   42.1450 C   0  0  0  0  0  0  0  0  0  0  0  0
   39.5120   26.6220   43.1110 C   0  0  0  0  0  0  0  0  0  0  0  0
   39.0200   27.8080   43.5980 C   0  0  0  0  0  0  0  0  0  0  0  0
   37.8340   28.2780   43.0940 C   0  0  0  0  0  0  0  0  0  0  0  0
   37.1370   27.5830   42.1160 C   0  0  0  0  0  0  0  0  0  0  0  0
   39.2580   25.0280   41.8150 H   0  0  0  0  0  0  0  0  0  0  0  0
   40.4510   26.2590   43.5170 H   0  0  0  0  0  0  0  0  0  0  0  0
   39.5720   28.3360   44.3560 H   0  0  0  0  0  0  0  0  0  0  0  0
   37.4930   29.2170   43.5120 H   0  0  0  0  0  0  0  0  0  0  0  0
   35.8490   23.6510   39.9650 C   0  0  0  0  0  0  0  0  0  0  0  0
   35.5400   24.1530   38.7150 C   0  0  0  0  0  0  0  0  0  0  0  0
   35.9400   25.4560   38.4290 C   0  0  0  0  0  0  0  0  0  0  0  0
   36.6130   26.1870   39.3670 N   0  0  0  0  0  0  0  0  0  0  0  0
   36.9000   25.6510   40.5940 C   0  0  0  0  0  0  0  0  0  0  0  0
   36.5040   24.4020   40.8380 N   0  0  0  0  0  0  0  0  0  0  0  0
   35.5110   22.6360   40.1200 H   0  0  0  0  0  0  0  0  0  0  0  0
   35.0190   23.6530   37.9260 H   0  0  0  0  0  0  0  0  0  0  0  0
   35.7860   26.0160   37.5040 H   0  0  0  0  0  0  0  0  0  0  0  0
   35.5820   29.3590   40.5100 S   0  0  0  0  0  0  0  0  0  0  0  0
   36.5960   29.1870   39.3760 O   0  0  0  0  0  0  0  0  0  0  0  0
   37.5410   29.4790   39.4110 H   0  0  0  0  0  0  0  0  0  0  0  0
   34.2050   29.2670   39.9310 O   0  0  0  0  0  0  0  0  0  0  0  0
   33.5360   28.6500   40.3220 H   0  0  0  0  0  0  0  0  0  0  0  0
   35.8990   30.8790   41.1560 O   0  0  0  0  0  0  0  0  0  0  0  0
   36.3430   33.4950   40.2920 H   0  0  0  0  0  0  0  0  0  0  0  0
   37.1200   32.8270   40.4890 N   0  0  0  0  0  0  0  0  0  0  0  0
   37.0840   31.5520   40.9060 C   0  0  0  0  0  0  0  0  0  0  0  0
   38.3520   31.1280   41.0110 N   0  0  0  0  0  0  0  0  0  0  0  0
   39.1880   32.1270   40.6630 C   0  0  0  0  0  0  0  0  0  0  0  0
   40.5660   32.2780   40.5770 C   0  0  0  0  0  0  0  0  0  0  0  0
   41.1990   31.4380   40.8350 H   0  0  0  0  0  0  0  0  0  0  0  0
   41.1070   33.4410   40.1840 N   0  0  0  0  0  0  0  0  0  0  0  0
   40.3240   34.5050   39.8590 C   0  0  0  0  0  0  0  0  0  0  0  0
   40.7950   35.4400   39.5420 H   0  0  0  0  0  0  0  0  0  0  0  0
   38.9910   34.3620   39.9400 N   0  0  0  0  0  0  0  0  0  0  0  0
   38.3990   33.2160   40.3280 C   0  0  0  0  0  0  0  0  0  0  0  0
  1  8  1  0  0  0  0
  1  2  1  0  0  0  0
  3  8  2  0  0  0  0
  3  4  1  0  0  0  0
  4  5  2  0  0  0  0
  5 10  1  0  0  0  0
  5  6  1  0  0  0  0
  6 11  1  0  0  0  0
  7 12  1  0  0  0  0
  7  6  2  0  0  0  0
  8  7  1  0  0  0  0
  9  4  1  0  0  0  0
 13 19  1  0  0  0  0
 13 18  1  0  0  0  0
 14 13  2  0  0  0  0
 15 14  1  0  0  0  0
 15 16  2  0  0  0  0
 16 17  1  0  0  0  0
 17 18  2  0  0  0  0
 17  3  1  0  0  0  0
 20 14  1  0  0  0  0
 21 15  1  0  0  0  0
 22 27  1  0  0  0  0
 22  1  1  0  0  0  0
 23 24  1  0  0  0  0
 23 22  1  0  0  0  0
 25 26  1  0  0  0  0
 25 22  1  0  0  0  0
 28 29  1  0  0  0  0
 29 30  1  0  0  0  0
 30 31  2  0  0  0  0
 30 27  1  0  0  0  0
 32 31  1  0  0  0  0
 33 32  1  0  0  0  0
 33 34  1  0  0  0  0
 35 33  2  0  0  0  0
 36 38  2  0  0  0  0
 36 35  1  0  0  0  0
 37 36  1  0  0  0  0
 38 39  1  0  0  0  0
 39 29  1  0  0  0  0
 39 32  2  0  0  0  0
M  END
>  <minimizedAffinity>
-6.5699048

$$$$

 OpenBabel03242515113D

 39 42  0  0  0  0  0  0  0  0999 V2000
   37.0620   30.5680   39.1070 N   0  0  0  0  0  0  0  0  0  0  0  0
   37.7230   30.9410   38.3630 H   0  0  0  0  0  0  0  0  0  0  0  0
   36.5320   28.1690   39.3720 C   0  0  0  0  0  0  0  0  0  0  0  0
   35.9100   27.1040   38.7670 C   0  0  0  0  0  0  0  0  0  0  0  0
   35.2720   27.1540   37.5540 C   0  0  0  0  0  0  0  0  0  0  0  0
   35.2420   28.3450   36.8730 C   0  0  0  0  0  0  0  0  0  0  0  0
   35.8510   29.4370   37.4400 C   0  0  0  0  0  0  0  0  0  0  0  0
   36.4870   29.3520   38.6700 C   0  0  0  0  0  0  0  0  0  0  0  0
   35.8870   26.1220   39.2390 H   0  0  0  0  0  0  0  0  0  0  0  0
   34.7880   26.2970   37.0960 H   0  0  0  0  0  0  0  0  0  0  0  0
   34.7450   28.3950   35.9200 H   0  0  0  0  0  0  0  0  0  0  0  0
   35.7970   30.3490   36.8600 H   0  0  0  0  0  0  0  0  0  0  0  0
   36.9750   27.8720   42.9830 C   0  0  0  0  0  0  0  0  0  0  0  0
   38.3470   27.8430   43.1510 C   0  0  0  0  0  0  0  0  0  0  0  0
   39.1370   27.9250   42.0080 C   0  0  0  0  0  0  0  0  0  0  0  0
   38.5510   28.0310   40.7780 N   0  0  0  0  0  0  0  0  0  0  0  0
   37.1880   28.0580   40.6540 C   0  0  0  0  0  0  0  0  0  0  0  0
   36.4590   27.9770   41.7680 N   0  0  0  0  0  0  0  0  0  0  0  0
   36.4230   27.8050   43.9090 H   0  0  0  0  0  0  0  0  0  0  0  0
   38.8850   27.7620   44.0720 H   0  0  0  0  0  0  0  0  0  0  0  0
   40.2270   27.9170   41.9450 H   0  0  0  0  0  0  0  0  0  0  0  0
   36.8880   31.4810   40.5300 S   0  0  0  0  0  0  0  0  0  0  0  0
   36.6960   32.9460   40.1300 O   0  0  0  0  0  0  0  0  0  0  0  0
   37.4140   33.5440   39.8050 H   0  0  0  0  0  0  0  0  0  0  0  0
   35.7450   31.0750   41.4060 O   0  0  0  0  0  0  0  0  0  0  0  0
   35.2210   30.2590   41.2040 H   0  0  0  0  0  0  0  0  0  0  0  0
   38.3580   31.4370   41.3440 O   0  0  0  0  0  0  0  0  0  0  0  0
   40.7340   32.1420   42.6280 H   0  0  0  0  0  0  0  0  0  0  0  0
   40.5600   32.3360   41.6180 N   0  0  0  0  0  0  0  0  0  0  0  0
   39.4900   32.0680   40.8530 C   0  0  0  0  0  0  0  0  0  0  0  0
   39.7560   32.5160   39.6180 N   0  0  0  0  0  0  0  0  0  0  0  0
   40.9880   33.0660   39.5980 C   0  0  0  0  0  0  0  0  0  0  0  0
   41.7830   33.6750   38.6350 C   0  0  0  0  0  0  0  0  0  0  0  0
   41.3970   33.7730   37.6270 H   0  0  0  0  0  0  0  0  0  0  0  0
   43.0050   34.1320   38.9420 N   0  0  0  0  0  0  0  0  0  0  0  0
   43.5020   34.0140   40.2030 C   0  0  0  0  0  0  0  0  0  0  0  0
   44.5040   34.3970   40.4230 H   0  0  0  0  0  0  0  0  0  0  0  0
   42.7360   33.4270   41.1360 N   0  0  0  0  0  0  0  0  0  0  0  0
   41.5030   32.9510   40.8800 C   0  0  0  0  0  0  0  0  0  0  0  0
  1 22  1  0  0  0  0
  2  1  1  0  0  0  0
  3 17  1  0  0  0  0
  4  9  1  0  0  0  0
  4  3  1  0  0  0  0
  5  4  2  0  0  0  0
  6  7  2  0  0  0  0
  6  5  1  0  0  0  0
  7  8  1  0  0  0  0
  8  1  1  0  0  0  0
  8  3  2  0  0  0  0
 10  5  1  0  0  0  0
 11  6  1  0  0  0  0
 12  7  1  0  0  0  0
 13 14  1  0  0  0  0
 13 19  1  0  0  0  0
 14 20  1  0  0  0  0
 15 14  2  0  0  0  0
 16 15  1  0  0  0  0
 17 16  2  0  0  0  0
 17 18  1  0  0  0  0
 18 13  2  0  0  0  0
 21 15  1  0  0  0  0
 22 27  1  0  0  0  0
 22 25  1  0  0  0  0
 23 22  1  0  0  0  0
 24 23  1  0  0  0  0
 26 25  1  0  0  0  0
 29 28  1  0  0  0  0
 30 27  1  0  0  0  0
 30 29  1  0  0  0  0
 31 30  2  0  0  0  0
 32 31  1  0  0  0  0
 32 39  1  0  0  0  0
 33 35  1  0  0  0  0
 33 32  2  0  0  0  0
 34 33  1  0  0  0  0
 35 36  2  0  0  0  0
 36 37  1  0  0  0  0
 36 38  1  0  0  0  0
 39 38  2  0  0  0  0
 39 29  1  0  0  0  0
M  END
>  <minimizedAffinity>
-6.44325209

$$$$

 OpenBabel03242515113D

 39 42  0  0  0  0  0  0  0  0999 V2000
   38.5110   30.4610   41.0550 N   0  0  0  0  0  0  0  0  0  0  0  0
   39.5350   30.1970   40.9480 H   0  0  0  0  0  0  0  0  0  0  0  0
   36.8370   28.6490   41.1890 C   0  0  0  0  0  0  0  0  0  0  0  0
   36.2950   27.7090   42.0310 C   0  0  0  0  0  0  0  0  0  0  0  0
   36.6670   27.5180   43.3380 C   0  0  0  0  0  0  0  0  0  0  0  0
   37.6520   28.3160   43.8660 C   0  0  0  0  0  0  0  0  0  0  0  0
   38.2220   29.2700   43.0600 C   0  0  0  0  0  0  0  0  0  0  0  0
   37.8220   29.4360   41.7420 C   0  0  0  0  0  0  0  0  0  0  0  0
   35.5090   27.0350   41.6920 H   0  0  0  0  0  0  0  0  0  0  0  0
   36.2230   26.7680   43.9840 H   0  0  0  0  0  0  0  0  0  0  0  0
   37.9510   28.1760   44.8900 H   0  0  0  0  0  0  0  0  0  0  0  0
   38.9920   29.8700   43.5280 H   0  0  0  0  0  0  0  0  0  0  0  0
   37.0010   28.9330   37.5540 C   0  0  0  0  0  0  0  0  0  0  0  0
   35.6820   29.0920   37.1700 C   0  0  0  0  0  0  0  0  0  0  0  0
   34.7170   29.1010   38.1730 C   0  0  0  0  0  0  0  0  0  0  0  0
   35.0880   28.9570   39.4810 N   0  0  0  0  0  0  0  0  0  0  0  0
   36.4060   28.8030   39.8190 C   0  0  0  0  0  0  0  0  0  0  0  0
   37.3060   28.7980   38.8360 N   0  0  0  0  0  0  0  0  0  0  0  0
   37.6970   28.9360   36.7270 H   0  0  0  0  0  0  0  0  0  0  0  0
   35.3070   29.2090   36.1760 H   0  0  0  0  0  0  0  0  0  0  0  0
   33.6370   29.2130   38.0630 H   0  0  0  0  0  0  0  0  0  0  0  0
   38.0150   31.9530   40.4090 S   0  0  0  0  0  0  0  0  0  0  0  0
   38.2670   31.9210   38.9000 O   0  0  0  0  0  0  0  0  0  0  0  0
   39.1560   32.0030   38.4710 H   0  0  0  0  0  0  0  0  0  0  0  0
   36.5780   32.2970   40.6420 O   0  0  0  0  0  0  0  0  0  0  0  0
   36.0160   31.7340   41.2330 H   0  0  0  0  0  0  0  0  0  0  0  0
   39.0550   33.1340   41.0030 O   0  0  0  0  0  0  0  0  0  0  0  0
   41.5530   33.4370   42.2110 H   0  0  0  0  0  0  0  0  0  0  0  0
   41.4160   33.4890   41.1780 N   0  0  0  0  0  0  0  0  0  0  0  0
   40.3000   33.3680   40.4420 C   0  0  0  0  0  0  0  0  0  0  0  0
   40.6490   33.5130   39.1560 N   0  0  0  0  0  0  0  0  0  0  0  0
   41.9780   33.7260   39.0740 C   0  0  0  0  0  0  0  0  0  0  0  0
   42.8830   33.9410   38.0430 C   0  0  0  0  0  0  0  0  0  0  0  0
   42.5170   33.9560   37.0230 H   0  0  0  0  0  0  0  0  0  0  0  0
   44.1860   34.1260   38.3000 N   0  0  0  0  0  0  0  0  0  0  0  0
   44.6600   34.1080   39.5750 C   0  0  0  0  0  0  0  0  0  0  0  0
   45.7290   34.2620   39.7520 H   0  0  0  0  0  0  0  0  0  0  0  0
   43.7870   33.9020   40.5740 N   0  0  0  0  0  0  0  0  0  0  0  0
   42.4700   33.7110   40.3700 C   0  0  0  0  0  0  0  0  0  0  0  0
  1  8  1  0  0  0  0
  2  1  1  0  0  0  0
  3  8  2  0  0  0  0
  3  4  1  0  0  0  0
  4  5  2  0  0  0  0
  5  6  1  0  0  0  0
  5 10  1  0  0  0  0
  6 11  1  0  0  0  0
  7 12  1  0  0  0  0
  7  6  2  0  0  0  0
  8  7  1  0  0  0  0
  9  4  1  0  0  0  0
 13 18  1  0  0  0  0
 14 13  2  0  0  0  0
 14 15  1  0  0  0  0
 15 16  2  0  0  0  0
 16 17  1  0  0  0  0
 17  3  1  0  0  0  0
 18 17  2  0  0  0  0
 19 13  1  0  0  0  0
 20 14  1  0  0  0  0
 21 15  1  0  0  0  0
 22 25  1  0  0  0  0
 22 27  1  0  0  0  0
 22  1  1  0  0  0  0
 23 22  1  0  0  0  0
 24 23  1  0  0  0  0
 25 26  1  0  0  0  0
 29 28  1  0  0  0  0
 30 27  1  0  0  0  0
 30 29  1  0  0  0  0
 31 30  2  0  0  0  0
 32 31  1  0  0  0  0
 32 39  1  0  0  0  0
 33 35  1  0  0  0  0
 33 32  2  0  0  0  0
 34 33  1  0  0  0  0
 35 36  2  0  0  0  0
 36 37  1  0  0  0  0
 36 38  1  0  0  0  0
 39 38  2  0  0  0  0
 39 29  1  0  0  0  0
M  END
>  <minimizedAffinity>
-6.31841135

$$$$

 OpenBabel03242515113D

 39 42  0  0  0  0  0  0  0  0999 V2000
   36.7850   28.9590   41.9420 N   0  0  0  0  0  0  0  0  0  0  0  0
   36.1980   28.4260   42.6520 H   0  0  0  0  0  0  0  0  0  0  0  0
   38.7660   27.4830   41.9900 C   0  0  0  0  0  0  0  0  0  0  0  0
   40.1110   27.4520   42.2670 C   0  0  0  0  0  0  0  0  0  0  0  0
   40.8490   28.5270   42.6930 C   0  0  0  0  0  0  0  0  0  0  0  0
   40.2180   29.7340   42.8640 C   0  0  0  0  0  0  0  0  0  0  0  0
   38.8740   29.8120   42.6000 C   0  0  0  0  0  0  0  0  0  0  0  0
   38.1560   28.7050   42.1690 C   0  0  0  0  0  0  0  0  0  0  0  0
   40.6880   26.5350   42.1570 H   0  0  0  0  0  0  0  0  0  0  0  0
   41.9120   28.4770   42.9060 H   0  0  0  0  0  0  0  0  0  0  0  0
   40.7870   30.5840   43.1990 H   0  0  0  0  0  0  0  0  0  0  0  0
   38.4280   30.7870   42.7510 H   0  0  0  0  0  0  0  0  0  0  0  0
   37.4490   24.0800   41.9240 C   0  0  0  0  0  0  0  0  0  0  0  0
   36.6860   24.0380   40.7720 C   0  0  0  0  0  0  0  0  0  0  0  0
   36.6180   25.1960   40.0020 C   0  0  0  0  0  0  0  0  0  0  0  0
   37.2930   26.3180   40.3940 N   0  0  0  0  0  0  0  0  0  0  0  0
   38.0390   26.3180   41.5420 C   0  0  0  0  0  0  0  0  0  0  0  0
   38.0840   25.1940   42.2580 N   0  0  0  0  0  0  0  0  0  0  0  0
   37.4580   23.1490   42.4720 H   0  0  0  0  0  0  0  0  0  0  0  0
   36.1280   23.2070   40.3940 H   0  0  0  0  0  0  0  0  0  0  0  0
   36.0710   25.3500   39.0710 H   0  0  0  0  0  0  0  0  0  0  0  0
   35.9600   29.9110   40.8020 S   0  0  0  0  0  0  0  0  0  0  0  0
   34.6120   29.2440   40.5160 O   0  0  0  0  0  0  0  0  0  0  0  0
   34.4860   28.4320   39.9650 H   0  0  0  0  0  0  0  0  0  0  0  0
   35.7090   31.3250   41.2210 O   0  0  0  0  0  0  0  0  0  0  0  0
   36.1100   31.6810   42.0540 H   0  0  0  0  0  0  0  0  0  0  0  0
   36.8100   29.8190   39.3540 O   0  0  0  0  0  0  0  0  0  0  0  0
   37.7640   32.0460   40.7400 H   0  0  0  0  0  0  0  0  0  0  0  0
   38.1880   31.7130   39.8470 N   0  0  0  0  0  0  0  0  0  0  0  0
   37.8590   30.6760   39.0610 C   0  0  0  0  0  0  0  0  0  0  0  0
   38.7100   30.6700   38.0250 N   0  0  0  0  0  0  0  0  0  0  0  0
   39.5740   31.6980   38.1510 C   0  0  0  0  0  0  0  0  0  0  0  0
   40.6440   32.1860   37.4110 C   0  0  0  0  0  0  0  0  0  0  0  0
   40.9200   31.6760   36.4960 H   0  0  0  0  0  0  0  0  0  0  0  0
   41.3250   33.2660   37.8190 N   0  0  0  0  0  0  0  0  0  0  0  0
   40.9900   33.9160   38.9670 C   0  0  0  0  0  0  0  0  0  0  0  0
   41.5660   34.7940   39.2730 H   0  0  0  0  0  0  0  0  0  0  0  0
   39.9560   33.4480   39.6830 N   0  0  0  0  0  0  0  0  0  0  0  0
   39.2400   32.3670   39.3180 C   0  0  0  0  0  0  0  0  0  0  0  0
  1  8  1  0  0  0  0
  1  2  1  0  0  0  0
  3  8  2  0  0  0  0
  3  4  1  0  0  0  0
  4  5  2  0  0  0  0
  5  6  1  0  0  0  0
  5 10  1  0  0  0  0
  6 11  1  0  0  0  0
  7 12  1  0  0  0  0
  7  6  2  0  0  0  0
  8  7  1  0  0  0  0
  9  4  1  0  0  0  0
 13 18  1  0  0  0  0
 13 19  1  0  0  0  0
 14 13  2  0  0  0  0
 15 16  2  0  0  0  0
 15 14  1  0  0  0  0
 16 17  1  0  0  0  0
 17  3  1  0  0  0  0
 17 18  2  0  0  0  0
 20 14  1  0  0  0  0
 21 15  1  0  0  0  0
 22 25  1  0  0  0  0
 22  1  1  0  0  0  0
 23 22  1  0  0  0  0
 24 23  1  0  0  0  0
 25 26  1  0  0  0  0
 27 22  1  0  0  0  0
 29 28  1  0  0  0  0
 30 27  1  0  0  0  0
 30 29  1  0  0  0  0
 31 32  1  0  0  0  0
 31 30  2  0  0  0  0
 32 39  1  0  0  0  0
 33 35  1  0  0  0  0
 33 32  2  0  0  0  0
 34 33  1  0  0  0  0
 35 36  2  0  0  0  0
 36 37  1  0  0  0  0
 36 38  1  0  0  0  0
 39 38  2  0  0  0  0
 39 29  1  0  0  0  0
M  END
>  <minimizedAffinity>
-6.26205683

$$$$

 OpenBabel03242515113D

 39 42  0  0  0  0  0  0  0  0999 V2000
   38.1730   27.9840   41.6330 N   0  0  0  0  0  0  0  0  0  0  0  0
   39.2060   27.9820   41.3830 H   0  0  0  0  0  0  0  0  0  0  0  0
   37.0710   26.6960   39.8340 C   0  0  0  0  0  0  0  0  0  0  0  0
   36.5070   25.4800   39.5370 C   0  0  0  0  0  0  0  0  0  0  0  0
   36.4040   24.4280   40.4100 C   0  0  0  0  0  0  0  0  0  0  0  0
   36.8930   24.5780   41.6840 C   0  0  0  0  0  0  0  0  0  0  0  0
   37.4660   25.7770   42.0260 C   0  0  0  0  0  0  0  0  0  0  0  0
   37.5550   26.8220   41.1170 C   0  0  0  0  0  0  0  0  0  0  0  0
   36.0940   25.2770   38.5490 H   0  0  0  0  0  0  0  0  0  0  0  0
   35.9530   23.4760   40.1510 H   0  0  0  0  0  0  0  0  0  0  0  0
   36.8180   23.7590   42.3780 H   0  0  0  0  0  0  0  0  0  0  0  0
   37.8350   25.8400   43.0420 H   0  0  0  0  0  0  0  0  0  0  0  0
   36.3740   29.8680   38.1690 C   0  0  0  0  0  0  0  0  0  0  0  0
   37.2330   29.8740   37.0860 C   0  0  0  0  0  0  0  0  0  0  0  0
   38.0690   28.7730   36.9220 C   0  0  0  0  0  0  0  0  0  0  0  0
   38.0190   27.7380   37.8120 N   0  0  0  0  0  0  0  0  0  0  0  0
   37.1530   27.7700   38.8720 C   0  0  0  0  0  0  0  0  0  0  0  0
   36.3660   28.8390   39.0020 N   0  0  0  0  0  0  0  0  0  0  0  0
   35.7540   30.7510   38.2360 H   0  0  0  0  0  0  0  0  0  0  0  0
   37.3370   30.6390   36.3450 H   0  0  0  0  0  0  0  0  0  0  0  0
   38.8060   28.6030   36.1340 H   0  0  0  0  0  0  0  0  0  0  0  0
   37.5850   29.3040   42.5270 S   0  0  0  0  0  0  0  0  0  0  0  0
   36.4980   29.9910   41.6970 O   0  0  0  0  0  0  0  0  0  0  0  0
   36.6650   30.5680   40.9090 H   0  0  0  0  0  0  0  0  0  0  0  0
   37.0100   28.9560   43.8640 O   0  0  0  0  0  0  0  0  0  0  0  0
   37.0890   28.0360   44.2220 H   0  0  0  0  0  0  0  0  0  0  0  0
   38.8270   30.4310   42.6450 O   0  0  0  0  0  0  0  0  0  0  0  0
   40.3680   32.7490   42.4400 H   0  0  0  0  0  0  0  0  0  0  0  0
   40.0850   32.1850   41.6090 N   0  0  0  0  0  0  0  0  0  0  0  0
   39.3560   31.0610   41.5290 C   0  0  0  0  0  0  0  0  0  0  0  0
   39.2730   30.7270   40.2340 N   0  0  0  0  0  0  0  0  0  0  0  0
   39.9450   31.6340   39.4940 C   0  0  0  0  0  0  0  0  0  0  0  0
   40.2010   31.8100   38.1410 C   0  0  0  0  0  0  0  0  0  0  0  0
   39.8030   31.0890   37.4370 H   0  0  0  0  0  0  0  0  0  0  0  0
   40.9290   32.8500   37.7090 N   0  0  0  0  0  0  0  0  0  0  0  0
   41.4360   33.7620   38.5820 C   0  0  0  0  0  0  0  0  0  0  0  0
   42.0260   34.6000   38.1990 H   0  0  0  0  0  0  0  0  0  0  0  0
   41.1890   33.5950   39.8910 N   0  0  0  0  0  0  0  0  0  0  0  0
   40.4640   32.5680   40.3760 C   0  0  0  0  0  0  0  0  0  0  0  0
  1 22  1  0  0  0  0
  2  1  1  0  0  0  0
  3  8  1  0  0  0  0
  4  3  2  0  0  0  0
  4  5  1  0  0  0  0
  5  6  2  0  0  0  0
  6  7  1  0  0  0  0
  6 11  1  0  0  0  0
  7 12  1  0  0  0  0
  8  1  1  0  0  0  0
  8  7  2  0  0  0  0
  9  4  1  0  0  0  0
 10  5  1  0  0  0  0
 13 19  1  0  0  0  0
 13 18  1  0  0  0  0
 14 13  2  0  0  0  0
 15 14  1  0  0  0  0
 15 16  2  0  0  0  0
 16 17  1  0  0  0  0
 17 18  2  0  0  0  0
 17  3  1  0  0  0  0
 20 14  1  0  0  0  0
 21 15  1  0  0  0  0
 22 27  1  0  0  0  0
 22 25  1  0  0  0  0
 23 22  1  0  0  0  0
 24 23  1  0  0  0  0
 25 26  1  0  0  0  0
 29 28  1  0  0  0  0
 30 29  1  0  0  0  0
 30 27  1  0  0  0  0
 31 30  2  0  0  0  0
 32 31  1  0  0  0  0
 32 39  1  0  0  0  0
 33 32  2  0  0  0  0
 34 33  1  0  0  0  0
 35 33  1  0  0  0  0
 35 36  2  0  0  0  0
 36 38  1  0  0  0  0
 37 36  1  0  0  0  0
 38 39  2  0  0  0  0
 39 29  1  0  0  0  0
M  END
>  <minimizedAffinity>
-6.06072998

$$$$

 OpenBabel03242515113D

 39 42  0  0  0  0  0  0  0  0999 V2000
   37.0090   29.7560   42.3000 N   0  0  0  0  0  0  0  0  0  0  0  0
   36.5160   30.0930   43.1790 H   0  0  0  0  0  0  0  0  0  0  0  0
   39.4560   29.4190   42.2610 C   0  0  0  0  0  0  0  0  0  0  0  0
   40.4630   28.6000   42.7110 C   0  0  0  0  0  0  0  0  0  0  0  0
   40.2800   27.4880   43.4940 C   0  0  0  0  0  0  0  0  0  0  0  0
   39.0030   27.1480   43.8670 C   0  0  0  0  0  0  0  0  0  0  0  0
   37.9650   27.9370   43.4400 C   0  0  0  0  0  0  0  0  0  0  0  0
   38.1860   29.0560   42.6490 C   0  0  0  0  0  0  0  0  0  0  0  0
   41.5050   28.7980   42.4610 H   0  0  0  0  0  0  0  0  0  0  0  0
   41.0930   26.8560   43.8370 H   0  0  0  0  0  0  0  0  0  0  0  0
   38.8480   26.2770   44.4810 H   0  0  0  0  0  0  0  0  0  0  0  0
   36.9820   27.6230   43.7640 H   0  0  0  0  0  0  0  0  0  0  0  0
   40.6850   31.4590   39.4960 C   0  0  0  0  0  0  0  0  0  0  0  0
   40.2440   32.7340   39.7980 C   0  0  0  0  0  0  0  0  0  0  0  0
   39.5110   32.9000   40.9700 C   0  0  0  0  0  0  0  0  0  0  0  0
   39.2530   31.8250   41.7740 N   0  0  0  0  0  0  0  0  0  0  0  0
   39.7090   30.5790   41.4390 C   0  0  0  0  0  0  0  0  0  0  0  0
   40.4080   30.4520   40.3100 N   0  0  0  0  0  0  0  0  0  0  0  0
   41.2480   31.4010   38.5750 H   0  0  0  0  0  0  0  0  0  0  0  0
   40.4000   33.6250   39.2280 H   0  0  0  0  0  0  0  0  0  0  0  0
   39.0850   33.8230   41.3680 H   0  0  0  0  0  0  0  0  0  0  0  0
   36.2890   30.1310   40.8060 S   0  0  0  0  0  0  0  0  0  0  0  0
   34.8480   29.6140   40.8330 O   0  0  0  0  0  0  0  0  0  0  0  0
   34.5840   28.6640   40.7500 H   0  0  0  0  0  0  0  0  0  0  0  0
   36.2630   31.5870   40.4640 O   0  0  0  0  0  0  0  0  0  0  0  0
   36.7430   32.2450   41.0290 H   0  0  0  0  0  0  0  0  0  0  0  0
   37.0610   29.2150   39.6260 O   0  0  0  0  0  0  0  0  0  0  0  0
   35.4060   27.0980   40.3820 H   0  0  0  0  0  0  0  0  0  0  0  0
   36.4230   26.9750   40.1800 N   0  0  0  0  0  0  0  0  0  0  0  0
   37.3500   27.8720   39.8100 C   0  0  0  0  0  0  0  0  0  0  0  0
   38.5110   27.2160   39.6720 N   0  0  0  0  0  0  0  0  0  0  0  0
   38.3230   25.9110   39.9550 C   0  0  0  0  0  0  0  0  0  0  0  0
   39.1300   24.7800   39.9840 C   0  0  0  0  0  0  0  0  0  0  0  0
   40.1790   24.8810   39.7320 H   0  0  0  0  0  0  0  0  0  0  0  0
   38.6230   23.5830   40.3160 N   0  0  0  0  0  0  0  0  0  0  0  0
   37.3080   23.4420   40.6340 C   0  0  0  0  0  0  0  0  0  0  0  0
   36.9250   22.4520   40.9000 H   0  0  0  0  0  0  0  0  0  0  0  0
   36.5260   24.5330   40.6070 N   0  0  0  0  0  0  0  0  0  0  0  0
   36.9850   25.7560   40.2800 C   0  0  0  0  0  0  0  0  0  0  0  0
  1  8  1  0  0  0  0
  1  2  1  0  0  0  0
  3  8  2  0  0  0  0
  3  4  1  0  0  0  0
  4  5  2  0  0  0  0
  5 10  1  0  0  0  0
  5  6  1  0  0  0  0
  6 11  1  0  0  0  0
  7 12  1  0  0  0  0
  7  6  2  0  0  0  0
  8  7  1  0  0  0  0
  9  4  1  0  0  0  0
 13 14  2  0  0  0  0
 13 18  1  0  0  0  0
 14 15  1  0  0  0  0
 15 21  1  0  0  0  0
 15 16  2  0  0  0  0
 17 16  1  0  0  0  0
 17  3  1  0  0  0  0
 18 17  2  0  0  0  0
 19 13  1  0  0  0  0
 20 14  1  0  0  0  0
 22 23  1  0  0  0  0
 22  1  1  0  0  0  0
 24 23  1  0  0  0  0
 25 22  1  0  0  0  0
 25 26  1  0  0  0  0
 27 30  1  0  0  0  0
 27 22  1  0  0  0  0
 29 39  1  0  0  0  0
 29 28  1  0  0  0  0
 30 29  1  0  0  0  0
 31 30  2  0  0  0  0
 31 32  1  0  0  0  0
 32 33  2  0  0  0  0
 32 39  1  0  0  0  0
 33 35  1  0  0  0  0
 34 33  1  0  0  0  0
 35 36  2  0  0  0  0
 36 37  1  0  0  0  0
 38 36  1  0  0  0  0
 39 38  2  0  0  0  0
M  END
>  <minimizedAffinity>
-6.02447605

$$$$

 OpenBabel03242515113D

 39 42  0  0  0  0  0  0  0  0999 V2000
   37.9940   30.7890   42.1640 N   0  0  0  0  0  0  0  0  0  0  0  0
   38.4030   31.5770   42.7490 H   0  0  0  0  0  0  0  0  0  0  0  0
   39.7390   29.0970   42.6080 C   0  0  0  0  0  0  0  0  0  0  0  0
   39.9560   27.8550   43.1510 C   0  0  0  0  0  0  0  0  0  0  0  0
   38.9890   27.0670   43.7220 C   0  0  0  0  0  0  0  0  0  0  0  0
   37.6980   27.5340   43.7640 C   0  0  0  0  0  0  0  0  0  0  0  0
   37.4340   28.7720   43.2320 C   0  0  0  0  0  0  0  0  0  0  0  0
   38.4370   29.5430   42.6620 C   0  0  0  0  0  0  0  0  0  0  0  0
   40.9510   27.4090   43.1590 H   0  0  0  0  0  0  0  0  0  0  0  0
   39.1860   26.0870   44.1450 H   0  0  0  0  0  0  0  0  0  0  0  0
   36.9320   26.9250   44.2090 H   0  0  0  0  0  0  0  0  0  0  0  0
   36.4010   29.0900   43.2920 H   0  0  0  0  0  0  0  0  0  0  0  0
   42.5180   30.0220   40.4310 C   0  0  0  0  0  0  0  0  0  0  0  0
   42.8450   31.3040   40.8300 C   0  0  0  0  0  0  0  0  0  0  0  0
   42.1010   31.8650   41.8650 C   0  0  0  0  0  0  0  0  0  0  0  0
   41.0900   31.1510   42.4450 N   0  0  0  0  0  0  0  0  0  0  0  0
   40.7990   29.8830   42.0200 C   0  0  0  0  0  0  0  0  0  0  0  0
   41.5290   29.3740   41.0270 N   0  0  0  0  0  0  0  0  0  0  0  0
   43.1350   29.6480   39.6260 H   0  0  0  0  0  0  0  0  0  0  0  0
   43.6150   31.9310   40.4320 H   0  0  0  0  0  0  0  0  0  0  0  0
   42.2120   32.8560   42.3100 H   0  0  0  0  0  0  0  0  0  0  0  0
   36.9810   31.2200   40.8690 S   0  0  0  0  0  0  0  0  0  0  0  0
   35.5480   30.8300   41.2400 O   0  0  0  0  0  0  0  0  0  0  0  0
   35.1940   29.9050   41.2410 H   0  0  0  0  0  0  0  0  0  0  0  0
   36.9980   32.6720   40.5080 O   0  0  0  0  0  0  0  0  0  0  0  0
   37.6480   33.2870   40.9310 H   0  0  0  0  0  0  0  0  0  0  0  0
   37.3800   30.2370   39.5640 O   0  0  0  0  0  0  0  0  0  0  0  0
   39.0500   28.3420   38.3760 H   0  0  0  0  0  0  0  0  0  0  0  0
   39.2460   29.3670   38.3430 N   0  0  0  0  0  0  0  0  0  0  0  0
   38.5590   30.4000   38.8540 C   0  0  0  0  0  0  0  0  0  0  0  0
   39.2250   31.5200   38.5400 N   0  0  0  0  0  0  0  0  0  0  0  0
   40.3290   31.2010   37.8340 C   0  0  0  0  0  0  0  0  0  0  0  0
   41.3720   31.9120   37.2550 C   0  0  0  0  0  0  0  0  0  0  0  0
   41.3780   32.9920   37.3420 H   0  0  0  0  0  0  0  0  0  0  0  0
   42.3540   31.2790   36.5980 N   0  0  0  0  0  0  0  0  0  0  0  0
   42.3590   29.9240   36.4790 C   0  0  0  0  0  0  0  0  0  0  0  0
   43.1740   29.4360   35.9360 H   0  0  0  0  0  0  0  0  0  0  0  0
   41.3530   29.2330   37.0390 N   0  0  0  0  0  0  0  0  0  0  0  0
   40.3430   29.8210   37.7090 C   0  0  0  0  0  0  0  0  0  0  0  0
  1  8  1  0  0  0  0
  1  2  1  0  0  0  0
  3  8  2  0  0  0  0
  3  4  1  0  0  0  0
  4  9  1  0  0  0  0
  4  5  2  0  0  0  0
  5  6  1  0  0  0  0
  5 10  1  0  0  0  0
  6 11  1  0  0  0  0
  7 12  1  0  0  0  0
  7  6  2  0  0  0  0
  8  7  1  0  0  0  0
 13 14  2  0  0  0  0
 13 18  1  0  0  0  0
 14 15  1  0  0  0  0
 15 21  1  0  0  0  0
 15 16  2  0  0  0  0
 17 16  1  0  0  0  0
 17  3  1  0  0  0  0
 18 17  2  0  0  0  0
 19 13  1  0  0  0  0
 20 14  1  0  0  0  0
 22 23  1  0  0  0  0
 22  1  1  0  0  0  0
 23 24  1  0  0  0  0
 25 22  1  0  0  0  0
 25 26  1  0  0  0  0
 27 22  1  0  0  0  0
 29 28  1  0  0  0  0
 29 30  1  0  0  0  0
 30 27  1  0  0  0  0
 31 30  2  0  0  0  0
 32 31  1  0  0  0  0
 33 34  1  0  0  0  0
 33 32  2  0  0  0  0
 35 33  1  0  0  0  0
 36 35  2  0  0  0  0
 36 38  1  0  0  0  0
 37 36  1  0  0  0  0
 38 39  2  0  0  0  0
 39 32  1  0  0  0  0
 39 29  1  0  0  0  0
M  END
>  <minimizedAffinity>
-5.98033667

$$$$

 OpenBabel03242515113D

 39 42  0  0  0  0  0  0  0  0999 V2000
   38.5580   28.1130   41.7870 N   0  0  0  0  0  0  0  0  0  0  0  0
   38.7030   28.0880   40.7340 H   0  0  0  0  0  0  0  0  0  0  0  0
   39.7530   26.0620   42.4730 C   0  0  0  0  0  0  0  0  0  0  0  0
   40.8550   25.6040   43.1530 C   0  0  0  0  0  0  0  0  0  0  0  0
   41.7880   26.4030   43.7650 C   0  0  0  0  0  0  0  0  0  0  0  0
   41.6280   27.7650   43.7090 C   0  0  0  0  0  0  0  0  0  0  0  0
   40.5400   28.2680   43.0400 C   0  0  0  0  0  0  0  0  0  0  0  0
   39.6160   27.4320   42.4310 C   0  0  0  0  0  0  0  0  0  0  0  0
   41.0570   24.5370   43.2450 H   0  0  0  0  0  0  0  0  0  0  0  0
   42.6510   26.0160   44.2970 H   0  0  0  0  0  0  0  0  0  0  0  0
   42.3540   28.4000   44.1860 H   0  0  0  0  0  0  0  0  0  0  0  0
   40.4640   29.3480   43.0270 H   0  0  0  0  0  0  0  0  0  0  0  0
   36.5700   24.4900   41.6280 C   0  0  0  0  0  0  0  0  0  0  0  0
   36.9100   23.5200   40.7040 C   0  0  0  0  0  0  0  0  0  0  0  0
   38.2540   23.4010   40.3610 C   0  0  0  0  0  0  0  0  0  0  0  0
   39.1810   24.2250   40.9340 N   0  0  0  0  0  0  0  0  0  0  0  0
   38.8030   25.1730   41.8470 C   0  0  0  0  0  0  0  0  0  0  0  0
   37.5080   25.2620   42.1540 N   0  0  0  0  0  0  0  0  0  0  0  0
   35.5120   24.5270   41.8490 H   0  0  0  0  0  0  0  0  0  0  0  0
   36.2520   22.8370   40.2090 H   0  0  0  0  0  0  0  0  0  0  0  0
   38.7060   22.7000   39.6560 H   0  0  0  0  0  0  0  0  0  0  0  0
   37.1780   28.9170   42.3690 S   0  0  0  0  0  0  0  0  0  0  0  0
   35.9730   27.9960   42.1630 O   0  0  0  0  0  0  0  0  0  0  0  0
   35.5340   27.8210   41.2930 H   0  0  0  0  0  0  0  0  0  0  0  0
   37.2350   29.3070   43.8120 O   0  0  0  0  0  0  0  0  0  0  0  0
   38.0730   29.1970   44.3300 H   0  0  0  0  0  0  0  0  0  0  0  0
   36.8990   30.2370   41.3660 O   0  0  0  0  0  0  0  0  0  0  0  0
   36.9300   33.0070   41.0240 H   0  0  0  0  0  0  0  0  0  0  0  0
   37.7640   32.4070   40.8440 N   0  0  0  0  0  0  0  0  0  0  0  0
   37.9200   31.0790   40.9560 C   0  0  0  0  0  0  0  0  0  0  0  0
   39.1830   30.7920   40.6090 N   0  0  0  0  0  0  0  0  0  0  0  0
   39.8250   31.9310   40.2780 C   0  0  0  0  0  0  0  0  0  0  0  0
   41.1070   32.2540   39.8510 C   0  0  0  0  0  0  0  0  0  0  0  0
   41.8320   31.4580   39.7290 H   0  0  0  0  0  0  0  0  0  0  0  0
   41.4460   33.5260   39.5960 N   0  0  0  0  0  0  0  0  0  0  0  0
   40.5460   34.5360   39.7470 C   0  0  0  0  0  0  0  0  0  0  0  0
   40.8530   35.5640   39.5310 H   0  0  0  0  0  0  0  0  0  0  0  0
   39.3070   34.2260   40.1580 N   0  0  0  0  0  0  0  0  0  0  0  0
   38.9160   32.9660   40.4280 C   0  0  0  0  0  0  0  0  0  0  0  0
  1 22  1  0  0  0  0
  1  8  1  0  0  0  0
  2  1  1  0  0  0  0
  3  4  1  0  0  0  0
  4  9  1  0  0  0  0
  4  5  2  0  0  0  0
  5 10  1  0  0  0  0
  6  5  1  0  0  0  0
  6 11  1  0  0  0  0
  7  6  2  0  0  0  0
  8  3  2  0  0  0  0
  8  7  1  0  0  0  0
 12  7  1  0  0  0  0
 13 19  1  0  0  0  0
 13 18  1  0  0  0  0
 14 13  2  0  0  0  0
 15 14  1  0  0  0  0
 15 16  2  0  0  0  0
 16 17  1  0  0  0  0
 17 18  2  0  0  0  0
 17  3  1  0  0  0  0
 20 14  1  0  0  0  0
 21 15  1  0  0  0  0
 22 25  1  0  0  0  0
 23 22  1  0  0  0  0
 24 23  1  0  0  0  0
 25 26  1  0  0  0  0
 27 22  1  0  0  0  0
 29 30  1  0  0  0  0
 29 28  1  0  0  0  0
 30 27  1  0  0  0  0
 31 30  2  0  0  0  0
 32 39  1  0  0  0  0
 32 31  1  0  0  0  0
 33 32  2  0  0  0  0
 34 33  1  0  0  0  0
 35 36  2  0  0  0  0
 35 33  1  0  0  0  0
 36 38  1  0  0  0  0
 37 36  1  0  0  0  0
 38 39  2  0  0  0  0
 39 29  1  0  0  0  0
M  END
>  <minimizedAffinity>
-5.97488117

$$$$

 OpenBabel03242515113D

 39 42  0  0  0  0  0  0  0  0999 V2000
   35.8760   29.9310   39.8050 N   0  0  0  0  0  0  0  0  0  0  0  0
   34.8980   30.2520   40.0720 H   0  0  0  0  0  0  0  0  0  0  0  0
   36.3910   27.5150   39.7770 C   0  0  0  0  0  0  0  0  0  0  0  0
   36.2140   26.3590   39.0580 C   0  0  0  0  0  0  0  0  0  0  0  0
   35.5250   26.2680   37.8750 C   0  0  0  0  0  0  0  0  0  0  0  0
   34.9620   27.4050   37.3510 C   0  0  0  0  0  0  0  0  0  0  0  0
   35.1130   28.5840   38.0360 C   0  0  0  0  0  0  0  0  0  0  0  0
   35.8160   28.6410   39.2310 C   0  0  0  0  0  0  0  0  0  0  0  0
   36.6290   25.4110   39.4020 H   0  0  0  0  0  0  0  0  0  0  0  0
   35.3990   25.3410   37.3250 H   0  0  0  0  0  0  0  0  0  0  0  0
   34.4190   27.3450   36.4240 H   0  0  0  0  0  0  0  0  0  0  0  0
   34.6490   29.4480   37.5780 H   0  0  0  0  0  0  0  0  0  0  0  0
   37.0900   27.8980   43.3390 C   0  0  0  0  0  0  0  0  0  0  0  0
   38.4450   27.6440   43.4440 C   0  0  0  0  0  0  0  0  0  0  0  0
   39.1340   27.3350   42.2740 C   0  0  0  0  0  0  0  0  0  0  0  0
   38.4700   27.2920   41.0800 N   0  0  0  0  0  0  0  0  0  0  0  0
   37.1270   27.5510   41.0190 C   0  0  0  0  0  0  0  0  0  0  0  0
   36.4950   27.8430   42.1570 N   0  0  0  0  0  0  0  0  0  0  0  0
   36.6180   28.1320   44.2830 H   0  0  0  0  0  0  0  0  0  0  0  0
   39.0390   27.6560   44.3330 H   0  0  0  0  0  0  0  0  0  0  0  0
   40.1960   27.1070   42.1630 H   0  0  0  0  0  0  0  0  0  0  0  0
   37.1630   30.9950   40.1230 S   0  0  0  0  0  0  0  0  0  0  0  0
   36.5710   32.3210   40.6070 O   0  0  0  0  0  0  0  0  0  0  0  0
   36.1280   32.9900   40.0270 H   0  0  0  0  0  0  0  0  0  0  0  0
   38.1440   30.5130   41.1440 O   0  0  0  0  0  0  0  0  0  0  0  0
   38.0860   29.5910   41.5020 H   0  0  0  0  0  0  0  0  0  0  0  0
   37.9000   31.3540   38.6550 O   0  0  0  0  0  0  0  0  0  0  0  0
   39.7670   31.5580   36.5900 H   0  0  0  0  0  0  0  0  0  0  0  0
   39.8720   32.0620   37.4980 N   0  0  0  0  0  0  0  0  0  0  0  0
   39.0810   32.0750   38.5810 C   0  0  0  0  0  0  0  0  0  0  0  0
   39.6540   32.8790   39.4880 N   0  0  0  0  0  0  0  0  0  0  0  0
   40.8040   33.3730   38.9850 C   0  0  0  0  0  0  0  0  0  0  0  0
   41.7970   34.2290   39.4440 C   0  0  0  0  0  0  0  0  0  0  0  0
   41.7040   34.6480   40.4390 H   0  0  0  0  0  0  0  0  0  0  0  0
   42.8510   34.5340   38.6730 N   0  0  0  0  0  0  0  0  0  0  0  0
   42.9790   34.0160   37.4220 C   0  0  0  0  0  0  0  0  0  0  0  0
   43.8510   34.2850   36.8180 H   0  0  0  0  0  0  0  0  0  0  0  0
   42.0220   33.1870   36.9760 N   0  0  0  0  0  0  0  0  0  0  0  0
   40.9440   32.8490   37.7090 C   0  0  0  0  0  0  0  0  0  0  0  0
  1  2  1  0  0  0  0
  1 22  1  0  0  0  0
  3 17  1  0  0  0  0
  4  9  1  0  0  0  0
  4  3  2  0  0  0  0
  5  4  1  0  0  0  0
  6  5  2  0  0  0  0
  6  7  1  0  0  0  0
  7  8  2  0  0  0  0
  8  3  1  0  0  0  0
  8  1  1  0  0  0  0
 10  5  1  0  0  0  0
 11  6  1  0  0  0  0
 12  7  1  0  0  0  0
 13 14  1  0  0  0  0
 13 19  1  0  0  0  0
 14 20  1  0  0  0  0
 15 14  2  0  0  0  0
 16 15  1  0  0  0  0
 17 16  2  0  0  0  0
 17 18  1  0  0  0  0
 18 13  2  0  0  0  0
 21 15  1  0  0  0  0
 22 23  1  0  0  0  0
 22 25  1  0  0  0  0
 24 23  1  0  0  0  0
 25 26  1  0  0  0  0
 27 22  1  0  0  0  0
 28 29  1  0  0  0  0
 29 39  1  0  0  0  0
 29 30  1  0  0  0  0
 30 27  1  0  0  0  0
 30 31  2  0  0  0  0
 32 33  1  0  0  0  0
 32 31  1  0  0  0  0
 33 34  1  0  0  0  0
 35 33  2  0  0  0  0
 36 35  1  0  0  0  0
 37 36  1  0  0  0  0
 38 36  2  0  0  0  0
 38 39  1  0  0  0  0
 39 32  2  0  0  0  0
M  END
>  <minimizedAffinity>
-5.95761871

$$$$
