
 OpenBabel03242521293D

 38 41  0  0  1  0  0  0  0  0999 V2000
   47.6730   32.3530   40.9340 C   0  0  1  0  0  0  0  0  0  0  0  0
   49.0100   32.7980   40.3880 C   0  0  2  0  0  0  0  0  0  0  0  0
   49.0480   32.7300   39.0090 O   0  0  0  0  0  0  0  0  0  0  0  0
   48.2250   33.7450   38.5490 C   0  0  0  0  0  0  0  0  0  0  0  0
   46.7960   33.3310   38.7870 C   0  0  2  0  0  0  0  0  0  0  0  0
   46.5040   32.8760   40.1750 C   0  0  2  0  0  0  0  0  0  0  0  0
   47.6420   32.7740   41.9800 H   0  0  0  0  0  0  0  0  0  0  0  0
   49.1720   33.8440   40.7090 H   0  0  0  0  0  0  0  0  0  0  0  0
   48.3630   33.7930   37.4420 H   0  0  0  0  0  0  0  0  0  0  0  0
   48.4810   34.7360   38.9630 H   0  0  0  0  0  0  0  0  0  0  0  0
   46.1420   34.1980   38.5310 H   0  0  0  0  0  0  0  0  0  0  0  0
   45.7750   32.0210   40.0800 H   0  0  0  0  0  0  0  0  0  0  0  0
   52.1410   30.6800   40.6780 C   0  0  0  0  0  0  0  0  0  0  0  0
   51.1320   31.4730   40.1120 C   0  0  0  0  0  0  0  0  0  0  0  0
   50.0940   31.9730   40.9480 C   0  0  0  0  0  0  0  0  0  0  0  0
   50.1390   31.6530   42.2590 N   0  0  0  0  0  0  0  0  0  0  0  0
   51.1260   30.8830   42.7810 C   0  0  0  0  0  0  0  0  0  0  0  0
   52.1260   30.3980   41.9920 N   0  0  0  0  0  0  0  0  0  0  0  0
   52.8650   30.3640   39.9390 H   0  0  0  0  0  0  0  0  0  0  0  0
   51.0870   31.7340   39.0660 H   0  0  0  0  0  0  0  0  0  0  0  0
   51.1170   30.6550   43.8380 H   0  0  0  0  0  0  0  0  0  0  0  0
   47.6180   30.9690   41.1290 O   0  0  0  0  0  0  0  0  0  0  0  0
   47.2280   30.7170   41.9970 H   0  0  0  0  0  0  0  0  0  0  0  0
   46.5270   32.3270   37.8470 O   0  0  0  0  0  0  0  0  0  0  0  0
   46.4450   31.4510   38.3170 H   0  0  0  0  0  0  0  0  0  0  0  0
   45.7940   33.8350   40.9300 O   0  0  0  0  0  0  0  0  0  0  0  0
   44.3140   34.3290   38.5470 H   0  0  0  0  0  0  0  0  0  0  0  0
   43.8300   34.5270   39.4490 N   0  0  0  0  0  0  0  0  0  0  0  0
   44.5340   34.2920   40.5770 C   0  0  0  0  0  0  0  0  0  0  0  0
   43.7410   34.6070   41.6440 N   0  0  0  0  0  0  0  0  0  0  0  0
   42.5590   35.0330   41.2200 C   0  0  0  0  0  0  0  0  0  0  0  0
   41.3510   35.4890   41.7230 C   0  0  0  0  0  0  0  0  0  0  0  0
   41.2780   35.5390   42.8110 H   0  0  0  0  0  0  0  0  0  0  0  0
   40.3190   35.8520   40.9460 N   0  0  0  0  0  0  0  0  0  0  0  0
   40.4520   35.7750   39.5970 C   0  0  0  0  0  0  0  0  0  0  0  0
   39.5900   36.0810   39.0430 H   0  0  0  0  0  0  0  0  0  0  0  0
   41.6170   35.3340   39.0540 N   0  0  0  0  0  0  0  0  0  0  0  0
   42.6380   34.9750   39.8480 C   0  0  0  0  0  0  0  0  0  0  0  0
  1 22  1  0  0  0  0
  1  7  1  1  0  0  0
  2  8  1  1  0  0  0
  2  1  1  0  0  0  0
  2 15  1  0  0  0  0
  3  2  1  0  0  0  0
  4  5  1  0  0  0  0
  4 10  1  0  0  0  0
  4  3  1  0  0  0  0
  5 11  1  6  0  0  0
  5  6  1  0  0  0  0
  6 12  1  6  0  0  0
  6 26  1  0  0  0  0
  6  1  1  0  0  0  0
  9  4  1  0  0  0  0
 13 18  1  0  0  0  0
 14 13  2  0  0  0  0
 14 15  1  0  0  0  0
 15 16  2  0  0  0  0
 16 17  1  0  0  0  0
 17 21  1  0  0  0  0
 18 17  2  0  0  0  0
 19 13  1  0  0  0  0
 20 14  1  0  0  0  0
 22 23  1  0  0  0  0
 24 25  1  0  0  0  0
 24  5  1  0  0  0  0
 27 28  1  0  0  0  0
 28 38  1  0  0  0  0
 28 29  1  0  0  0  0
 29 26  1  0  0  0  0
 29 30  2  0  0  0  0
 31 30  1  0  0  0  0
 31 32  1  0  0  0  0
 32 33  1  0  0  0  0
 34 32  2  0  0  0  0
 35 34  1  0  0  0  0
 36 35  1  0  0  0  0
 37 35  2  0  0  0  0
 37 38  1  0  0  0  0
 38 31  2  0  0  0  0
M  END
>  <minimizedAffinity>
-4.77057028

>  <minimizedRMSD>
8.51154137

$$$$
