
 OpenBabel03242521283D

 38 41  0  0  1  0  0  0  0  0999 V2000
   48.1380   33.5080   42.6110 C   0  0  1  0  0  0  0  0  0  0  0  0
   46.6640   33.7250   42.3580 C   0  0  2  0  0  0  0  0  0  0  0  0
   46.4460   34.6700   41.3740 O   0  0  0  0  0  0  0  0  0  0  0  0
   46.8340   34.0820   40.1810 C   0  0  0  0  0  0  0  0  0  0  0  0
   48.3390   34.0260   40.1560 C   0  0  2  0  0  0  0  0  0  0  0  0
   48.9600   33.4300   41.3720 C   0  0  2  0  0  0  0  0  0  0  0  0
   48.1890   32.5140   43.1410 H   0  0  0  0  0  0  0  0  0  0  0  0
   46.2310   32.7580   42.0400 H   0  0  0  0  0  0  0  0  0  0  0  0
   46.5260   34.7790   39.3650 H   0  0  0  0  0  0  0  0  0  0  0  0
   46.3440   33.1100   39.9940 H   0  0  0  0  0  0  0  0  0  0  0  0
   48.6440   33.4420   39.2550 H   0  0  0  0  0  0  0  0  0  0  0  0
   49.8970   34.0230   41.5720 H   0  0  0  0  0  0  0  0  0  0  0  0
   44.5660   35.6980   44.8250 C   0  0  0  0  0  0  0  0  0  0  0  0
   45.1860   35.3220   43.6240 C   0  0  0  0  0  0  0  0  0  0  0  0
   45.9860   34.1450   43.5970 C   0  0  0  0  0  0  0  0  0  0  0  0
   46.1070   33.4460   44.7460 N   0  0  0  0  0  0  0  0  0  0  0  0
   45.4980   33.8320   45.8940 C   0  0  0  0  0  0  0  0  0  0  0  0
   44.7280   34.9560   45.9340 N   0  0  0  0  0  0  0  0  0  0  0  0
   43.9900   36.6060   44.7110 H   0  0  0  0  0  0  0  0  0  0  0  0
   45.0950   35.8740   42.7020 H   0  0  0  0  0  0  0  0  0  0  0  0
   45.6260   33.2380   46.7880 H   0  0  0  0  0  0  0  0  0  0  0  0
   48.6510   34.4130   43.5460 O   0  0  0  0  0  0  0  0  0  0  0  0
   49.2220   33.9840   44.2230 H   0  0  0  0  0  0  0  0  0  0  0  0
   48.7670   35.3440   39.9510 O   0  0  0  0  0  0  0  0  0  0  0  0
   49.1880   35.6870   40.7890 H   0  0  0  0  0  0  0  0  0  0  0  0
   49.4360   32.1190   41.1590 O   0  0  0  0  0  0  0  0  0  0  0  0
   50.1000   32.4210   38.4060 H   0  0  0  0  0  0  0  0  0  0  0  0
   50.8160   31.9700   39.0150 N   0  0  0  0  0  0  0  0  0  0  0  0
   50.5010   31.8290   40.3190 C   0  0  0  0  0  0  0  0  0  0  0  0
   51.5520   31.2250   40.9470 N   0  0  0  0  0  0  0  0  0  0  0  0
   52.5230   30.9830   40.0750 C   0  0  0  0  0  0  0  0  0  0  0  0
   53.7930   30.4300   40.0240 C   0  0  0  0  0  0  0  0  0  0  0  0
   54.1830   30.0520   40.9700 H   0  0  0  0  0  0  0  0  0  0  0  0
   54.5170   30.3530   38.8970 N   0  0  0  0  0  0  0  0  0  0  0  0
   53.9930   30.8360   37.7430 C   0  0  0  0  0  0  0  0  0  0  0  0
   54.6280   30.7400   36.8870 H   0  0  0  0  0  0  0  0  0  0  0  0
   52.7510   31.3880   37.7390 N   0  0  0  0  0  0  0  0  0  0  0  0
   52.0410   31.4570   38.8760 C   0  0  0  0  0  0  0  0  0  0  0  0
  1  7  1  1  0  0  0
  1 22  1  0  0  0  0
  2  8  1  6  0  0  0
  2  1  1  0  0  0  0
  2 15  1  0  0  0  0
  3  2  1  0  0  0  0
  4  3  1  0  0  0  0
  5 11  1  6  0  0  0
  5  4  1  0  0  0  0
  5  6  1  0  0  0  0
  6 12  1  1  0  0  0
  6  1  1  0  0  0  0
  9  4  1  0  0  0  0
 10  4  1  0  0  0  0
 13 18  1  0  0  0  0
 14 13  2  0  0  0  0
 15 14  1  0  0  0  0
 15 16  2  0  0  0  0
 16 17  1  0  0  0  0
 17 18  2  0  0  0  0
 17 21  1  0  0  0  0
 19 13  1  0  0  0  0
 20 14  1  0  0  0  0
 22 23  1  0  0  0  0
 24  5  1  0  0  0  0
 24 25  1  0  0  0  0
 26  6  1  0  0  0  0
 27 28  1  0  0  0  0
 28 29  1  0  0  0  0
 29 30  2  0  0  0  0
 29 26  1  0  0  0  0
 31 30  1  0  0  0  0
 32 31  1  0  0  0  0
 32 33  1  0  0  0  0
 34 32  2  0  0  0  0
 35 34  1  0  0  0  0
 36 35  1  0  0  0  0
 37 35  2  0  0  0  0
 37 38  1  0  0  0  0
 38 28  1  0  0  0  0
 38 31  2  0  0  0  0
M  END
>  <minimizedAffinity>
-6.23936367

>  <minimizedRMSD>
1.75788176

$$$$
