
 OpenBabel03252508083D

 47 51  0  0  0  0  0  0  0  0999 V2000
   45.3660   36.0830   42.6610 C   0  0  0  0  0  0  0  0  0  0  0  0
   45.5500   34.7090   42.6710 C   0  0  0  0  0  0  0  0  0  0  0  0
   45.2590   33.9860   43.8020 C   0  0  0  0  0  0  0  0  0  0  0  0
   44.7860   34.6920   44.8910 N   0  0  0  0  0  0  0  0  0  0  0  0
   44.6120   36.0120   44.8750 C   0  0  0  0  0  0  0  0  0  0  0  0
   44.9070   36.6960   43.7490 N   0  0  0  0  0  0  0  0  0  0  0  0
   45.5700   36.7140   41.8190 H   0  0  0  0  0  0  0  0  0  0  0  0
   44.2370   36.5070   45.7650 H   0  0  0  0  0  0  0  0  0  0  0  0
   45.3910   32.5880   43.9740 C   0  0  0  0  0  0  0  0  0  0  0  0
   44.8710   31.6380   43.0910 C   0  0  0  0  0  0  0  0  0  0  0  0
   44.9380   30.2850   43.2890 C   0  0  0  0  0  0  0  0  0  0  0  0
   45.5510   29.7910   44.4190 C   0  0  0  0  0  0  0  0  0  0  0  0
   46.0890   30.7400   45.3320 C   0  0  0  0  0  0  0  0  0  0  0  0
   46.6990   30.2600   46.4610 C   0  0  0  0  0  0  0  0  0  0  0  0
   47.2440   31.1280   47.3860 C   0  0  0  0  0  0  0  0  0  0  0  0
   47.1700   32.5130   47.1600 C   0  0  0  0  0  0  0  0  0  0  0  0
   46.5320   32.9560   45.9860 C   0  0  0  0  0  0  0  0  0  0  0  0
   45.9990   32.0720   45.0900 C   0  0  0  0  0  0  0  0  0  0  0  0
   44.3880   32.0380   42.1990 H   0  0  0  0  0  0  0  0  0  0  0  0
   44.4980   29.6460   42.5310 H   0  0  0  0  0  0  0  0  0  0  0  0
   45.6070   28.7390   44.5850 H   0  0  0  0  0  0  0  0  0  0  0  0
   46.7490   29.1880   46.6200 H   0  0  0  0  0  0  0  0  0  0  0  0
   47.7010   30.6790   48.2430 H   0  0  0  0  0  0  0  0  0  0  0  0
   47.6220   33.0980   47.9310 H   0  0  0  0  0  0  0  0  0  0  0  0
   46.5980   34.0230   45.9850 H   0  0  0  0  0  0  0  0  0  0  0  0
   46.0200   34.1310   41.5240 O   0  0  0  0  0  0  0  0  0  0  0  0
   47.9510   32.4670   40.9180 O   0  0  0  0  0  0  0  0  0  0  0  0
   47.6590   33.9070   41.1640 P   0  0  1  0  0  0  0  0  0  0  0  0
   48.0890   34.7420   39.7550 O   0  0  0  0  0  0  0  0  0  0  0  0
   49.8590   34.2930   37.5910 H   0  0  0  0  0  0  0  0  0  0  0  0
   48.8680   33.9510   37.5660 N   0  0  0  0  0  0  0  0  0  0  0  0
   47.9410   34.1050   38.5300 C   0  0  0  0  0  0  0  0  0  0  0  0
   46.8090   33.5200   38.0950 N   0  0  0  0  0  0  0  0  0  0  0  0
   46.9920   32.9950   36.8720 C   0  0  0  0  0  0  0  0  0  0  0  0
   46.1340   32.3160   36.0550 C   0  0  0  0  0  0  0  0  0  0  0  0
   45.1030   32.0900   36.2970 H   0  0  0  0  0  0  0  0  0  0  0  0
   46.6240   31.9020   34.8530 N   0  0  0  0  0  0  0  0  0  0  0  0
   47.9110   32.1740   34.5250 C   0  0  0  0  0  0  0  0  0  0  0  0
   48.3340   31.8600   33.5760 H   0  0  0  0  0  0  0  0  0  0  0  0
   48.7600   32.8410   35.3280 N   0  0  0  0  0  0  0  0  0  0  0  0
   48.3030   33.2690   36.5360 C   0  0  0  0  0  0  0  0  0  0  0  0
   48.5670   34.5000   42.4420 O   0  0  0  0  0  0  0  0  0  0  0  0
   49.7530   35.2120   42.3580 C   0  0  0  0  0  0  0  0  0  0  0  0
   49.4110   36.3490   41.9860 O   0  0  0  0  0  0  0  0  0  0  0  0
   50.8760   34.3850   42.7220 N   0  0  0  0  0  0  0  0  0  0  0  0
   50.9190   34.0440   43.7190 H   0  0  0  0  0  0  0  0  0  0  0  0
   51.6500   34.1000   42.0630 H   0  0  0  0  0  0  0  0  0  0  0  0
  1  2  2  0  0  0  0
  1  6  1  0  0  0  0
  2  3  1  0  0  0  0
  3  9  1  0  0  0  0
  3  4  2  0  0  0  0
  5  4  1  0  0  0  0
  5  8  1  0  0  0  0
  6  5  2  0  0  0  0
  7  1  1  0  0  0  0
  9 18  1  0  0  0  0
 10 11  1  0  0  0  0
 10  9  2  0  0  0  0
 11 12  2  0  0  0  0
 12 21  1  0  0  0  0
 12 13  1  0  0  0  0
 13 14  1  0  0  0  0
 14 22  1  0  0  0  0
 14 15  2  0  0  0  0
 15 23  1  0  0  0  0
 16 15  1  0  0  0  0
 16 24  1  0  0  0  0
 17 16  2  0  0  0  0
 18 13  2  0  0  0  0
 18 17  1  0  0  0  0
 19 10  1  0  0  0  0
 20 11  1  0  0  0  0
 25 17  1  0  0  0  0
 26  2  1  0  0  0  0
 28 27  2  6  0  0  0
 28 26  1  0  0  0  0
 28 42  1  0  0  0  0
 29 28  1  0  0  0  0
 31 30  1  0  0  0  0
 31 32  1  0  0  0  0
 32 29  1  0  0  0  0
 33 32  2  0  0  0  0
 34 33  1  0  0  0  0
 35 36  1  0  0  0  0
 35 34  2  0  0  0  0
 37 35  1  0  0  0  0
 38 37  2  0  0  0  0
 38 40  1  0  0  0  0
 39 38  1  0  0  0  0
 40 41  2  0  0  0  0
 41 34  1  0  0  0  0
 41 31  1  0  0  0  0
 43 42  1  0  0  0  0
 43 45  1  0  0  0  0
 44 43  2  0  0  0  0
 45 46  1  0  0  0  0
 47 45  1  0  0  0  0
M  END
>  <minimizedAffinity>
-6.73295498

>  <minimizedRMSD>
0.613946915

$$$$
