
 OpenBabel03242513413D

 43 47  0  0  0  0  0  0  0  0999 V2000
   47.6920   30.9400   46.0030 C   0  0  0  0  0  0  0  0  0  0  0  0
   46.9910   32.0270   45.5340 C   0  0  0  0  0  0  0  0  0  0  0  0
   46.0090   32.5690   46.3370 C   0  0  0  0  0  0  0  0  0  0  0  0
   45.7080   32.0630   47.5830 C   0  0  0  0  0  0  0  0  0  0  0  0
   44.8490   32.3310   48.5910 N   0  0  0  0  0  0  0  0  0  0  0  0
   45.0170   31.4620   49.6080 C   0  0  0  0  0  0  0  0  0  0  0  0
   46.0020   30.6340   49.2280 N   0  0  0  0  0  0  0  0  0  0  0  0
   46.4380   30.9730   48.0080 C   0  0  0  0  0  0  0  0  0  0  0  0
   47.4250   30.3990   47.2470 C   0  0  0  0  0  0  0  0  0  0  0  0
   48.4650   30.5040   45.3840 H   0  0  0  0  0  0  0  0  0  0  0  0
   45.4190   33.4270   46.0270 H   0  0  0  0  0  0  0  0  0  0  0  0
   44.1720   33.1130   48.5370 H   0  0  0  0  0  0  0  0  0  0  0  0
   44.4740   31.4250   50.5550 H   0  0  0  0  0  0  0  0  0  0  0  0
   47.2600   34.3760   42.7360 C   0  0  0  0  0  0  0  0  0  0  0  0
   47.8420   33.6010   41.7390 C   0  0  0  0  0  0  0  0  0  0  0  0
   48.1290   32.2760   42.0590 C   0  0  0  0  0  0  0  0  0  0  0  0
   47.8410   31.8010   43.2940 N   0  0  0  0  0  0  0  0  0  0  0  0
   47.2800   32.5920   44.2190 C   0  0  0  0  0  0  0  0  0  0  0  0
   46.9840   33.8720   43.9600 N   0  0  0  0  0  0  0  0  0  0  0  0
   47.0050   35.4210   42.5670 H   0  0  0  0  0  0  0  0  0  0  0  0
   48.5830   31.6770   41.2790 H   0  0  0  0  0  0  0  0  0  0  0  0
   48.1090   34.2410   40.4210 C   0  0  0  0  0  0  0  0  0  0  0  0
   48.6350   35.4800   40.7320 F   0  0  0  0  0  0  0  0  0  0  0  0
   46.9290   34.3890   39.7700 F   0  0  0  0  0  0  0  0  0  0  0  0
   49.0060   33.4310   39.7210 F   0  0  0  0  0  0  0  0  0  0  0  0
   48.1190   29.3040   47.7380 O   0  0  0  0  0  0  0  0  0  0  0  0
   49.6890   27.9550   49.2980 O   0  0  0  0  0  0  0  0  0  0  0  0
   49.4170   29.3910   48.8130 P   0  0  2  0  0  0  0  0  0  0  0  0
   48.9430   30.3030   50.1490 O   0  0  0  0  0  0  0  0  0  0  0  0
   48.8080   29.7790   50.9700 H   0  0  0  0  0  0  0  0  0  0  0  0
   50.8210   29.9880   48.1170 O   0  0  0  0  0  0  0  0  0  0  0  0
   49.7230   28.0220   46.3720 H   0  0  0  0  0  0  0  0  0  0  0  0
   50.6420   28.4440   46.1600 N   0  0  0  0  0  0  0  0  0  0  0  0
   51.2460   29.3790   46.9190 C   0  0  0  0  0  0  0  0  0  0  0  0
   52.4230   29.6590   46.2890 N   0  0  0  0  0  0  0  0  0  0  0  0
   52.5360   28.9080   45.1650 C   0  0  0  0  0  0  0  0  0  0  0  0
   53.5770   28.8990   44.2570 C   0  0  0  0  0  0  0  0  0  0  0  0
   54.4420   29.5510   44.4060 H   0  0  0  0  0  0  0  0  0  0  0  0
   53.4340   28.0540   43.2280 N   0  0  0  0  0  0  0  0  0  0  0  0
   52.3210   27.2720   43.1150 C   0  0  0  0  0  0  0  0  0  0  0  0
   52.3130   26.6310   42.2450 H   0  0  0  0  0  0  0  0  0  0  0  0
   51.3420   27.3320   44.0380 N   0  0  0  0  0  0  0  0  0  0  0  0
   51.4050   28.1510   45.1030 C   0  0  0  0  0  0  0  0  0  0  0  0
  1  9  1  0  0  0  0
  2  1  2  0  0  0  0
  2  3  1  0  0  0  0
  3  4  2  0  0  0  0
  4  8  1  0  0  0  0
  4  5  1  0  0  0  0
  5  6  1  0  0  0  0
  6 13  1  0  0  0  0
  7  6  2  0  0  0  0
  8  7  1  0  0  0  0
  9 26  1  0  0  0  0
  9  8  2  0  0  0  0
 10  1  1  0  0  0  0
 11  3  1  0  0  0  0
 12  5  1  0  0  0  0
 14 19  1  0  0  0  0
 15 16  1  0  0  0  0
 15 14  2  0  0  0  0
 16 17  2  0  0  0  0
 17 18  1  0  0  0  0
 18  2  1  0  0  0  0
 19 18  2  0  0  0  0
 20 14  1  0  0  0  0
 21 16  1  0  0  0  0
 22 23  1  0  0  0  0
 22 15  1  0  0  0  0
 24 22  1  0  0  0  0
 25 22  1  0  0  0  0
 26 28  1  0  0  0  0
 28 27  2  1  0  0  0
 28 29  1  0  0  0  0
 29 30  1  0  0  0  0
 31 28  1  0  0  0  0
 33 32  1  0  0  0  0
 33 34  1  0  0  0  0
 34 31  1  0  0  0  0
 35 34  2  0  0  0  0
 36 35  1  0  0  0  0
 37 38  1  0  0  0  0
 37 36  2  0  0  0  0
 39 37  1  0  0  0  0
 40 39  2  0  0  0  0
 40 42  1  0  0  0  0
 41 40  1  0  0  0  0
 42 43  2  0  0  0  0
 43 36  1  0  0  0  0
 43 33  1  0  0  0  0
M  END
>  <minimizedAffinity>
-5.5318284

>  <minimizedRMSD>
0.892339706

$$$$
