
 OpenBabel03242513413D

 43 47  0  0  0  0  0  0  0  0999 V2000
   47.7150   31.0260   46.0410 C   0  0  0  0  0  0  0  0  0  0  0  0
   46.9780   32.0810   45.5570 C   0  0  0  0  0  0  0  0  0  0  0  0
   45.9660   32.5900   46.3450 C   0  0  0  0  0  0  0  0  0  0  0  0
   45.6700   32.0810   47.5900 C   0  0  0  0  0  0  0  0  0  0  0  0
   44.7890   32.3210   48.5860 N   0  0  0  0  0  0  0  0  0  0  0  0
   44.9800   31.4660   49.6120 C   0  0  0  0  0  0  0  0  0  0  0  0
   46.0000   30.6750   49.2490 N   0  0  0  0  0  0  0  0  0  0  0  0
   46.4380   31.0230   48.0310 C   0  0  0  0  0  0  0  0  0  0  0  0
   47.4550   30.4830   47.2850 C   0  0  0  0  0  0  0  0  0  0  0  0
   48.5120   30.6170   45.4350 H   0  0  0  0  0  0  0  0  0  0  0  0
   45.3460   33.4220   46.0210 H   0  0  0  0  0  0  0  0  0  0  0  0
   44.0830   33.0750   48.5190 H   0  0  0  0  0  0  0  0  0  0  0  0
   44.4270   31.4140   50.5520 H   0  0  0  0  0  0  0  0  0  0  0  0
   47.1720   34.4150   42.7400 C   0  0  0  0  0  0  0  0  0  0  0  0
   47.8120   33.6630   41.7610 C   0  0  0  0  0  0  0  0  0  0  0  0
   48.1640   32.3590   42.0990 C   0  0  0  0  0  0  0  0  0  0  0  0
   47.8790   31.8800   43.3340 N   0  0  0  0  0  0  0  0  0  0  0  0
   47.2600   32.6490   44.2410 C   0  0  0  0  0  0  0  0  0  0  0  0
   46.9020   33.9090   43.9640 N   0  0  0  0  0  0  0  0  0  0  0  0
   46.8650   35.4430   42.5560 H   0  0  0  0  0  0  0  0  0  0  0  0
   48.6630   31.7770   41.3340 H   0  0  0  0  0  0  0  0  0  0  0  0
   48.0690   34.3040   40.4420 C   0  0  0  0  0  0  0  0  0  0  0  0
   48.5750   35.5520   40.7490 F   0  0  0  0  0  0  0  0  0  0  0  0
   46.8860   34.4320   39.7910 F   0  0  0  0  0  0  0  0  0  0  0  0
   48.9780   33.5060   39.7430 F   0  0  0  0  0  0  0  0  0  0  0  0
   48.1850   29.4200   47.7920 O   0  0  0  0  0  0  0  0  0  0  0  0
   49.8460   28.1330   49.3100 O   0  0  0  0  0  0  0  0  0  0  0  0
   49.4520   29.5630   48.8980 P   0  0  2  0  0  0  0  0  0  0  0  0
   48.8740   30.3520   50.2720 O   0  0  0  0  0  0  0  0  0  0  0  0
   48.7740   29.7720   51.0600 H   0  0  0  0  0  0  0  0  0  0  0  0
   50.8070   30.3230   48.2670 O   0  0  0  0  0  0  0  0  0  0  0  0
   50.5090   28.1940   46.3980 H   0  0  0  0  0  0  0  0  0  0  0  0
   51.4530   28.5230   46.6580 N   0  0  0  0  0  0  0  0  0  0  0  0
   51.7010   29.5210   47.5300 C   0  0  0  0  0  0  0  0  0  0  0  0
   53.0590   29.6330   47.5840 N   0  0  0  0  0  0  0  0  0  0  0  0
   53.6320   28.7200   46.7590 C   0  0  0  0  0  0  0  0  0  0  0  0
   54.9780   28.5140   46.5340 C   0  0  0  0  0  0  0  0  0  0  0  0
   55.7220   29.1270   47.0500 H   0  0  0  0  0  0  0  0  0  0  0  0
   55.2740   27.5400   45.6640 N   0  0  0  0  0  0  0  0  0  0  0  0
   54.2840   26.8190   45.0600 C   0  0  0  0  0  0  0  0  0  0  0  0
   54.6380   26.0590   44.3790 H   0  0  0  0  0  0  0  0  0  0  0  0
   52.9870   27.0730   45.3280 N   0  0  0  0  0  0  0  0  0  0  0  0
   52.6030   28.0320   46.1870 C   0  0  0  0  0  0  0  0  0  0  0  0
  1  9  1  0  0  0  0
  2  1  2  0  0  0  0
  2  3  1  0  0  0  0
  3  4  2  0  0  0  0
  4  8  1  0  0  0  0
  4  5  1  0  0  0  0
  5  6  1  0  0  0  0
  6 13  1  0  0  0  0
  7  6  2  0  0  0  0
  8  7  1  0  0  0  0
  9 26  1  0  0  0  0
  9  8  2  0  0  0  0
 10  1  1  0  0  0  0
 11  3  1  0  0  0  0
 12  5  1  0  0  0  0
 14 19  1  0  0  0  0
 15 16  1  0  0  0  0
 15 14  2  0  0  0  0
 16 17  2  0  0  0  0
 17 18  1  0  0  0  0
 18  2  1  0  0  0  0
 19 18  2  0  0  0  0
 20 14  1  0  0  0  0
 21 16  1  0  0  0  0
 22 23  1  0  0  0  0
 22 15  1  0  0  0  0
 24 22  1  0  0  0  0
 25 22  1  0  0  0  0
 26 28  1  0  0  0  0
 28 27  2  1  0  0  0
 28 29  1  0  0  0  0
 29 30  1  0  0  0  0
 31 28  1  0  0  0  0
 32 33  1  0  0  0  0
 33 34  1  0  0  0  0
 34 35  2  0  0  0  0
 34 31  1  0  0  0  0
 36 35  1  0  0  0  0
 37 36  1  0  0  0  0
 37 38  1  0  0  0  0
 39 37  2  0  0  0  0
 40 42  2  0  0  0  0
 40 39  1  0  0  0  0
 41 40  1  0  0  0  0
 42 43  1  0  0  0  0
 43 33  1  0  0  0  0
 43 36  2  0  0  0  0
M  END
>  <minimizedAffinity>
-5.5530262

>  <minimizedRMSD>
0.307825714

$$$$
