
 OpenBabel03242521283D

 38 41  0  0  1  0  0  0  0  0999 V2000
   45.5130   32.2620   39.5260 C   0  0  1  0  0  0  0  0  0  0  0  0
   46.1890   33.5810   39.2320 C   0  0  2  0  0  0  0  0  0  0  0  0
   47.0580   33.4840   38.1620 O   0  0  0  0  0  0  0  0  0  0  0  0
   46.2680   33.3360   37.0340 C   0  0  0  0  0  0  0  0  0  0  0  0
   45.7080   31.9380   37.0370 C   0  0  2  0  0  0  0  0  0  0  0  0
   45.0510   31.5340   38.3120 C   0  0  2  0  0  0  0  0  0  0  0  0
   44.6130   32.5390   40.1450 H   0  0  0  0  0  0  0  0  0  0  0  0
   45.3990   34.3180   38.9960 H   0  0  0  0  0  0  0  0  0  0  0  0
   46.9510   33.4050   36.1530 H   0  0  0  0  0  0  0  0  0  0  0  0
   45.5050   34.1270   36.9290 H   0  0  0  0  0  0  0  0  0  0  0  0
   44.9760   31.8610   36.1970 H   0  0  0  0  0  0  0  0  0  0  0  0
   45.3110   30.4490   38.4710 H   0  0  0  0  0  0  0  0  0  0  0  0
   48.8990   35.0530   41.4380 C   0  0  0  0  0  0  0  0  0  0  0  0
   48.2240   34.6220   40.2860 C   0  0  0  0  0  0  0  0  0  0  0  0
   46.9240   34.0580   40.4160 C   0  0  0  0  0  0  0  0  0  0  0  0
   46.4040   33.9670   41.6590 N   0  0  0  0  0  0  0  0  0  0  0  0
   47.0770   34.3910   42.7570 C   0  0  0  0  0  0  0  0  0  0  0  0
   48.3230   34.9340   42.6470 N   0  0  0  0  0  0  0  0  0  0  0  0
   49.8730   35.4600   41.2040 H   0  0  0  0  0  0  0  0  0  0  0  0
   48.6310   34.6900   39.2900 H   0  0  0  0  0  0  0  0  0  0  0  0
   46.6170   34.2970   43.7310 H   0  0  0  0  0  0  0  0  0  0  0  0
   46.2740   31.4590   40.3820 O   0  0  0  0  0  0  0  0  0  0  0  0
   45.7420   31.0540   41.1040 H   0  0  0  0  0  0  0  0  0  0  0  0
   46.7810   31.0950   36.7190 O   0  0  0  0  0  0  0  0  0  0  0  0
   47.0370   30.5710   37.5290 H   0  0  0  0  0  0  0  0  0  0  0  0
   43.6420   31.5290   38.2270 O   0  0  0  0  0  0  0  0  0  0  0  0
   43.0780   34.1910   37.3850 H   0  0  0  0  0  0  0  0  0  0  0  0
   42.5880   33.8560   38.2430 N   0  0  0  0  0  0  0  0  0  0  0  0
   42.8560   32.5940   38.6400 C   0  0  0  0  0  0  0  0  0  0  0  0
   42.1290   32.3400   39.7660 N   0  0  0  0  0  0  0  0  0  0  0  0
   41.4080   33.4060   40.0910 C   0  0  0  0  0  0  0  0  0  0  0  0
   40.5030   33.8240   41.0530 C   0  0  0  0  0  0  0  0  0  0  0  0
   40.2560   33.0910   41.8230 H   0  0  0  0  0  0  0  0  0  0  0  0
   39.9490   35.0470   41.0610 N   0  0  0  0  0  0  0  0  0  0  0  0
   40.2830   35.9280   40.0850 C   0  0  0  0  0  0  0  0  0  0  0  0
   39.8020   36.8800   40.1560 H   0  0  0  0  0  0  0  0  0  0  0  0
   41.1680   35.5660   39.1170 N   0  0  0  0  0  0  0  0  0  0  0  0
   41.7110   34.3390   39.1260 C   0  0  0  0  0  0  0  0  0  0  0  0
  1  7  1  1  0  0  0
  1 22  1  0  0  0  0
  2  8  1  6  0  0  0
  2  1  1  0  0  0  0
  2 15  1  0  0  0  0
  3  2  1  0  0  0  0
  4  5  1  0  0  0  0
  4  3  1  0  0  0  0
  5 11  1  6  0  0  0
  5  6  1  0  0  0  0
  6 12  1  1  0  0  0
  6  1  1  0  0  0  0
  9  4  1  0  0  0  0
 10  4  1  0  0  0  0
 13 18  1  0  0  0  0
 14 15  1  0  0  0  0
 14 13  2  0  0  0  0
 15 16  2  0  0  0  0
 16 17  1  0  0  0  0
 17 21  1  0  0  0  0
 18 17  2  0  0  0  0
 19 13  1  0  0  0  0
 20 14  1  0  0  0  0
 22 23  1  0  0  0  0
 24  5  1  0  0  0  0
 24 25  1  0  0  0  0
 26  6  1  0  0  0  0
 26 29  1  0  0  0  0
 27 28  1  0  0  0  0
 28 29  1  0  0  0  0
 28 38  1  0  0  0  0
 29 30  2  0  0  0  0
 30 31  1  0  0  0  0
 31 32  1  0  0  0  0
 32 34  2  0  0  0  0
 32 33  1  0  0  0  0
 35 36  1  0  0  0  0
 35 34  1  0  0  0  0
 37 38  1  0  0  0  0
 37 35  2  0  0  0  0
 38 31  2  0  0  0  0
M  END
>  <minimizedAffinity>
-4.83597803

>  <minimizedRMSD>
8.42630577

$$$$
