
 OpenBabel03242516343D

 47 51  0  0  1  0  0  0  0  0999 V2000
   49.1090   32.8580   37.9160 C   0  0  1  0  0  0  0  0  0  0  0  0
   48.5640   33.5800   39.2500 C   0  0  1  0  0  0  0  0  0  0  0  0
   47.4710   34.1570   38.7120 O   0  0  0  0  0  0  0  0  0  0  0  0
   46.7990   33.0050   38.2290 C   0  0  0  0  0  0  0  0  0  0  0  0
   47.8200   32.4420   37.2740 C   0  0  1  0  0  0  0  0  0  0  0  0
   49.7980   32.0820   38.1950 H   0  0  0  0  0  0  0  0  0  0  0  0
   49.4710   34.0910   39.5580 H   0  0  0  0  0  0  0  0  0  0  0  0
   46.5760   32.2790   39.0290 H   0  0  0  0  0  0  0  0  0  0  0  0
   45.8490   33.2590   37.7590 H   0  0  0  0  0  0  0  0  0  0  0  0
   47.7740   31.3300   37.1980 H   0  0  0  0  0  0  0  0  0  0  0  0
   49.6390   33.9070   37.1530 O   0  0  0  0  0  0  0  0  0  0  0  0
   48.9570   34.3140   36.5840 H   0  0  0  0  0  0  0  0  0  0  0  0
   48.1750   32.5090   40.0500 O   0  0  0  0  0  0  0  0  0  0  0  0
   48.3070   33.6720   42.1080 C   0  0  2  0  0  0  0  0  0  0  0  0
   46.8320   33.2270   42.3000 C   0  0  1  0  0  0  0  0  0  0  0  0
   47.0420   32.0320   42.9240 O   0  0  0  0  0  0  0  0  0  0  0  0
   47.9720   31.3750   42.0910 C   0  0  0  0  0  0  0  0  0  0  0  0
   48.7210   32.4650   41.2950 C   0  0  1  0  0  0  0  0  0  0  0  0
   48.3640   34.6230   41.5830 H   0  0  0  0  0  0  0  0  0  0  0  0
   46.4550   33.0790   41.2600 H   0  0  0  0  0  0  0  0  0  0  0  0
   47.4950   30.6960   41.3800 H   0  0  0  0  0  0  0  0  0  0  0  0
   48.6830   30.8250   42.7100 H   0  0  0  0  0  0  0  0  0  0  0  0
   49.8120   32.3230   41.3210 H   0  0  0  0  0  0  0  0  0  0  0  0
   44.8510   36.1910   43.6220 C   0  0  0  0  0  0  0  0  0  0  0  0
   45.5690   35.4320   42.7010 C   0  0  0  0  0  0  0  0  0  0  0  0
   46.0810   34.2150   43.0810 C   0  0  0  0  0  0  0  0  0  0  0  0
   45.8460   33.8180   44.3730 N   0  0  0  0  0  0  0  0  0  0  0  0
   45.1520   34.5630   45.2490 C   0  0  0  0  0  0  0  0  0  0  0  0
   44.6560   35.7450   44.8760 N   0  0  0  0  0  0  0  0  0  0  0  0
   44.4780   37.1370   43.2560 H   0  0  0  0  0  0  0  0  0  0  0  0
   45.7880   35.6840   41.6740 H   0  0  0  0  0  0  0  0  0  0  0  0
   44.9810   34.2240   46.2650 H   0  0  0  0  0  0  0  0  0  0  0  0
   48.9940   33.5970   43.2930 O   0  0  0  0  0  0  0  0  0  0  0  0
   48.9360   34.4810   43.7330 H   0  0  0  0  0  0  0  0  0  0  0  0
   47.6390   33.0230   36.0340 O   0  0  0  0  0  0  0  0  0  0  0  0
   48.7410   34.0780   33.7690 H   0  0  0  0  0  0  0  0  0  0  0  0
   48.3390   33.1070   33.8310 N   0  0  0  0  0  0  0  0  0  0  0  0
   47.7500   32.3710   34.8130 C   0  0  0  0  0  0  0  0  0  0  0  0
   47.4430   31.1950   34.2890 N   0  0  0  0  0  0  0  0  0  0  0  0
   47.8030   31.1140   32.9940 C   0  0  0  0  0  0  0  0  0  0  0  0
   47.6610   30.0670   32.0930 C   0  0  0  0  0  0  0  0  0  0  0  0
   47.1990   29.1390   32.4040 H   0  0  0  0  0  0  0  0  0  0  0  0
   48.1390   30.3180   30.8370 N   0  0  0  0  0  0  0  0  0  0  0  0
   48.6980   31.5010   30.5380 C   0  0  0  0  0  0  0  0  0  0  0  0
   49.0640   31.6500   29.5200 H   0  0  0  0  0  0  0  0  0  0  0  0
   48.8120   32.4740   31.4340 N   0  0  0  0  0  0  0  0  0  0  0  0
   48.3710   32.3410   32.7180 C   0  0  0  0  0  0  0  0  0  0  0  0
  1  6  1  1  0  0  0
  1  2  1  0  0  0  0
  2  7  1  1  0  0  0
  2 13  1  0  0  0  0
  3  2  1  0  0  0  0
  4  3  1  0  0  0  0
  4  8  1  0  0  0  0
  5 10  1  6  0  0  0
  5  1  1  0  0  0  0
  5  4  1  0  0  0  0
  9  4  1  0  0  0  0
 11  1  1  0  0  0  0
 12 11  1  0  0  0  0
 13 18  1  0  0  0  0
 14 19  1  6  0  0  0
 14 15  1  0  0  0  0
 14 33  1  0  0  0  0
 15 20  1  6  0  0  0
 15 16  1  0  0  0  0
 15 26  1  0  0  0  0
 17 22  1  0  0  0  0
 17 16  1  0  0  0  0
 18 23  1  6  0  0  0
 18 17  1  0  0  0  0
 18 14  1  0  0  0  0
 21 17  1  0  0  0  0
 24 29  1  0  0  0  0
 25 26  1  0  0  0  0
 25 24  2  0  0  0  0
 26 27  2  0  0  0  0
 27 28  1  0  0  0  0
 28 32  1  0  0  0  0
 29 28  2  0  0  0  0
 30 24  1  0  0  0  0
 31 25  1  0  0  0  0
 33 34  1  0  0  0  0
 35  5  1  0  0  0  0
 36 37  1  0  0  0  0
 37 38  1  0  0  0  0
 38 35  1  0  0  0  0
 39 38  2  0  0  0  0
 40 39  1  0  0  0  0
 41 42  1  0  0  0  0
 41 40  2  0  0  0  0
 43 41  1  0  0  0  0
 44 43  2  0  0  0  0
 44 46  1  0  0  0  0
 45 44  1  0  0  0  0
 46 47  2  0  0  0  0
 47 40  1  0  0  0  0
 47 37  1  0  0  0  0
M  END
>  <minimizedAffinity>
-6.46766996

>  <minimizedRMSD>
2.48228097

$$$$
