
 OpenBabel03252506383D

 47 51  0  0  1  0  0  0  0  0999 V2000
   46.7500   29.9920   46.5250 S   0  0  0  0  0  0  0  0  0  0  0  0
   45.3970   30.5180   43.5220 O   0  0  0  0  0  0  0  0  0  0  0  0
   44.8790   29.9470   44.4930 C   0  0  0  0  0  0  0  0  0  0  0  0
   45.1360   29.6940   45.9320 C   0  0  1  0  0  0  0  0  0  0  0  0
   44.6390   28.2790   46.0980 C   0  0  0  0  0  0  0  0  0  0  0  0
   43.2500   28.4770   45.4850 C   0  0  0  0  0  0  0  0  0  0  0  0
   43.6230   29.2670   44.3180 N   0  0  0  0  0  0  0  0  0  0  0  0
   44.2830   30.2780   46.3760 H   0  0  0  0  0  0  0  0  0  0  0  0
   44.4990   27.9900   47.1430 H   0  0  0  0  0  0  0  0  0  0  0  0
   45.2190   27.5490   45.5100 H   0  0  0  0  0  0  0  0  0  0  0  0
   42.8030   27.5330   45.1760 H   0  0  0  0  0  0  0  0  0  0  0  0
   42.6290   29.0610   46.1910 H   0  0  0  0  0  0  0  0  0  0  0  0
   43.1200   27.3360   42.3260 H   0  0  0  0  0  0  0  0  0  0  0  0
   42.6120   28.2610   42.3040 N   0  0  0  0  0  0  0  0  0  0  0  0
   42.7390   29.2830   43.1760 C   0  0  0  0  0  0  0  0  0  0  0  0
   41.9020   30.2610   42.7620 N   0  0  0  0  0  0  0  0  0  0  0  0
   41.2570   29.8710   41.6510 C   0  0  0  0  0  0  0  0  0  0  0  0
   40.3140   30.4500   40.8230 C   0  0  0  0  0  0  0  0  0  0  0  0
   39.9760   31.4510   41.0740 H   0  0  0  0  0  0  0  0  0  0  0  0
   39.8300   29.8000   39.7430 N   0  0  0  0  0  0  0  0  0  0  0  0
   40.2810   28.5490   39.4630 C   0  0  0  0  0  0  0  0  0  0  0  0
   39.8930   28.0210   38.5920 H   0  0  0  0  0  0  0  0  0  0  0  0
   41.1990   27.9730   40.2620 N   0  0  0  0  0  0  0  0  0  0  0  0
   41.7010   28.5990   41.3490 C   0  0  0  0  0  0  0  0  0  0  0  0
   44.5300   35.4530   45.1690 C   0  0  0  0  0  0  0  0  0  0  0  0
   45.1960   35.4740   43.9200 C   0  0  0  0  0  0  0  0  0  0  0  0
   46.1380   34.5310   43.6530 C   0  0  0  0  0  0  0  0  0  0  0  0
   46.3800   33.6160   44.6220 N   0  0  0  0  0  0  0  0  0  0  0  0
   45.7540   33.6010   45.7890 C   0  0  0  0  0  0  0  0  0  0  0  0
   44.8250   34.5130   46.0780 N   0  0  0  0  0  0  0  0  0  0  0  0
   46.0990   32.5810   46.7430 N   0  0  0  0  0  0  0  0  0  0  0  0
   45.3570   32.3030   47.9190 C   0  0  0  0  0  0  0  0  0  0  0  0
   46.4310   31.9610   48.9350 C   0  0  0  0  0  0  0  0  0  0  0  0
   47.7200   31.8910   48.1710 C   0  0  0  0  0  0  0  0  0  0  0  0
   47.2330   31.6900   46.7380 C   0  0  1  0  0  0  0  0  0  0  0  0
   43.7820   36.2110   45.3650 H   0  0  0  0  0  0  0  0  0  0  0  0
   46.6500   34.5300   42.7190 H   0  0  0  0  0  0  0  0  0  0  0  0
   44.9640   33.3030   48.2890 H   0  0  0  0  0  0  0  0  0  0  0  0
   44.5630   31.6350   48.0000 H   0  0  0  0  0  0  0  0  0  0  0  0
   46.2120   30.9440   49.3690 H   0  0  0  0  0  0  0  0  0  0  0  0
   46.4810   32.6310   49.7930 H   0  0  0  0  0  0  0  0  0  0  0  0
   48.3180   32.7930   48.3090 H   0  0  0  0  0  0  0  0  0  0  0  0
   48.2860   30.9750   48.4880 H   0  0  0  0  0  0  0  0  0  0  0  0
   48.0480   32.0290   46.0780 H   0  0  0  0  0  0  0  0  0  0  0  0
   44.8260   36.5120   42.9970 N   0  0  0  0  0  0  0  0  0  0  0  0
   45.6530   36.9000   42.4660 H   0  0  0  0  0  0  0  0  0  0  0  0
   43.8730   36.8810   42.8260 H   0  0  0  0  0  0  0  0  0  0  0  0
  1 35  1  0  0  0  0
  2  3  2  0  0  0  0
  3  4  1  0  0  0  0
  4  5  1  0  0  0  0
  4  8  1  1  0  0  0
  4  1  1  0  0  0  0
  5  9  1  0  0  0  0
  6  5  1  0  0  0  0
  6 12  1  0  0  0  0
  7  3  1  0  0  0  0
  7  6  1  0  0  0  0
 10  5  1  0  0  0  0
 11  6  1  0  0  0  0
 14 13  1  0  0  0  0
 14 15  1  0  0  0  0
 15  7  1  0  0  0  0
 16 15  2  0  0  0  0
 17 16  1  0  0  0  0
 18 19  1  0  0  0  0
 18 17  2  0  0  0  0
 20 18  1  0  0  0  0
 21 20  2  0  0  0  0
 21 23  1  0  0  0  0
 22 21  1  0  0  0  0
 23 24  2  0  0  0  0
 24 17  1  0  0  0  0
 24 14  1  0  0  0  0
 25 36  1  0  0  0  0
 25 30  1  0  0  0  0
 26 25  2  0  0  0  0
 27 26  1  0  0  0  0
 27 28  2  0  0  0  0
 28 29  1  0  0  0  0
 29 30  2  0  0  0  0
 29 31  1  0  0  0  0
 31 32  1  0  0  0  0
 32 39  1  0  0  0  0
 32 38  1  0  0  0  0
 32 33  1  0  0  0  0
 33 40  1  0  0  0  0
 33 41  1  0  0  0  0
 34 42  1  0  0  0  0
 34 43  1  0  0  0  0
 34 33  1  0  0  0  0
 35 44  1  6  0  0  0
 35 31  1  0  0  0  0
 35 34  1  0  0  0  0
 37 27  1  0  0  0  0
 45 26  1  0  0  0  0
 46 45  1  0  0  0  0
 47 45  1  0  0  0  0
M  END
>  <minimizedAffinity>
-5.87494516

>  <minimizedRMSD>
0.393233657

$$$$
