
 OpenBabel03252506383D

 47 51  0  0  1  0  0  0  0  0999 V2000
   46.6570   30.0320   46.5660 S   0  0  0  0  0  0  0  0  0  0  0  0
   45.5690   30.5720   43.4590 O   0  0  0  0  0  0  0  0  0  0  0  0
   44.9650   30.0050   44.3820 C   0  0  0  0  0  0  0  0  0  0  0  0
   45.0960   29.7490   45.8370 C   0  0  1  0  0  0  0  0  0  0  0  0
   44.5730   28.3400   45.9590 C   0  0  0  0  0  0  0  0  0  0  0  0
   43.2440   28.5510   45.2300 C   0  0  0  0  0  0  0  0  0  0  0  0
   43.7220   29.3380   44.1000 N   0  0  0  0  0  0  0  0  0  0  0  0
   44.2150   30.3420   46.2080 H   0  0  0  0  0  0  0  0  0  0  0  0
   44.3420   28.0520   46.9880 H   0  0  0  0  0  0  0  0  0  0  0  0
   45.1940   27.6040   45.4220 H   0  0  0  0  0  0  0  0  0  0  0  0
   42.8150   27.6120   44.8840 H   0  0  0  0  0  0  0  0  0  0  0  0
   42.5710   29.1410   45.8820 H   0  0  0  0  0  0  0  0  0  0  0  0
   40.9510   29.6490   43.6790 H   0  0  0  0  0  0  0  0  0  0  0  0
   41.5980   29.5230   42.8560 N   0  0  0  0  0  0  0  0  0  0  0  0
   42.9380   29.3630   42.8870 C   0  0  0  0  0  0  0  0  0  0  0  0
   43.3500   29.2390   41.6050 N   0  0  0  0  0  0  0  0  0  0  0  0
   42.2980   29.3180   40.7760 C   0  0  0  0  0  0  0  0  0  0  0  0
   42.1360   29.2570   39.4060 C   0  0  0  0  0  0  0  0  0  0  0  0
   43.0280   29.1140   38.8030 H   0  0  0  0  0  0  0  0  0  0  0  0
   40.9180   29.3720   38.8330 N   0  0  0  0  0  0  0  0  0  0  0  0
   39.8270   29.5500   39.6230 C   0  0  0  0  0  0  0  0  0  0  0  0
   38.8420   29.6430   39.1650 H   0  0  0  0  0  0  0  0  0  0  0  0
   39.9700   29.6100   40.9600 N   0  0  0  0  0  0  0  0  0  0  0  0
   41.1750   29.4990   41.5610 C   0  0  0  0  0  0  0  0  0  0  0  0
   44.5170   35.5090   45.1490 C   0  0  0  0  0  0  0  0  0  0  0  0
   45.1750   35.5030   43.8950 C   0  0  0  0  0  0  0  0  0  0  0  0
   46.1010   34.5410   43.6360 C   0  0  0  0  0  0  0  0  0  0  0  0
   46.3330   33.6360   44.6160 N   0  0  0  0  0  0  0  0  0  0  0  0
   45.7150   33.6470   45.7870 C   0  0  0  0  0  0  0  0  0  0  0  0
   44.8030   34.5770   46.0690 N   0  0  0  0  0  0  0  0  0  0  0  0
   46.0490   32.6330   46.7520 N   0  0  0  0  0  0  0  0  0  0  0  0
   45.3100   32.3840   47.9360 C   0  0  0  0  0  0  0  0  0  0  0  0
   46.3850   32.0380   48.9510 C   0  0  0  0  0  0  0  0  0  0  0  0
   47.6670   31.9370   48.1800 C   0  0  0  0  0  0  0  0  0  0  0  0
   47.1690   31.7240   46.7530 C   0  0  1  0  0  0  0  0  0  0  0  0
   43.7830   36.2820   45.3390 H   0  0  0  0  0  0  0  0  0  0  0  0
   46.6070   34.5190   42.6990 H   0  0  0  0  0  0  0  0  0  0  0  0
   44.9350   33.3950   48.2950 H   0  0  0  0  0  0  0  0  0  0  0  0
   44.5050   31.7300   48.0310 H   0  0  0  0  0  0  0  0  0  0  0  0
   46.1510   31.0310   49.4000 H   0  0  0  0  0  0  0  0  0  0  0  0
   46.4510   32.7190   49.7990 H   0  0  0  0  0  0  0  0  0  0  0  0
   48.2810   32.8310   48.3020 H   0  0  0  0  0  0  0  0  0  0  0  0
   48.2210   31.0170   48.5050 H   0  0  0  0  0  0  0  0  0  0  0  0
   47.9850   32.0410   46.0830 H   0  0  0  0  0  0  0  0  0  0  0  0
   44.8160   36.5330   42.9610 N   0  0  0  0  0  0  0  0  0  0  0  0
   45.6460   36.9010   42.4190 H   0  0  0  0  0  0  0  0  0  0  0  0
   43.8690   36.9160   42.7900 H   0  0  0  0  0  0  0  0  0  0  0  0
  1 35  1  0  0  0  0
  2  3  2  0  0  0  0
  3  4  1  0  0  0  0
  4  5  1  0  0  0  0
  4  8  1  1  0  0  0
  4  1  1  0  0  0  0
  5  9  1  0  0  0  0
  6 12  1  0  0  0  0
  6  5  1  0  0  0  0
  7  3  1  0  0  0  0
  7  6  1  0  0  0  0
 10  5  1  0  0  0  0
 11  6  1  0  0  0  0
 14 15  1  0  0  0  0
 14 13  1  0  0  0  0
 15  7  1  0  0  0  0
 16 15  2  0  0  0  0
 17 24  1  0  0  0  0
 17 16  1  0  0  0  0
 18 17  2  0  0  0  0
 19 18  1  0  0  0  0
 20 18  1  0  0  0  0
 20 21  2  0  0  0  0
 21 23  1  0  0  0  0
 22 21  1  0  0  0  0
 23 24  2  0  0  0  0
 24 14  1  0  0  0  0
 25 36  1  0  0  0  0
 25 30  1  0  0  0  0
 26 25  2  0  0  0  0
 27 26  1  0  0  0  0
 27 28  2  0  0  0  0
 28 29  1  0  0  0  0
 29 30  2  0  0  0  0
 29 31  1  0  0  0  0
 31 35  1  0  0  0  0
 31 32  1  0  0  0  0
 32 39  1  0  0  0  0
 32 38  1  0  0  0  0
 32 33  1  0  0  0  0
 33 40  1  0  0  0  0
 33 41  1  0  0  0  0
 34 42  1  0  0  0  0
 34 43  1  0  0  0  0
 34 33  1  0  0  0  0
 35 44  1  6  0  0  0
 35 34  1  0  0  0  0
 37 27  1  0  0  0  0
 45 26  1  0  0  0  0
 46 45  1  0  0  0  0
 47 45  1  0  0  0  0
M  END
>  <minimizedAffinity>
-5.77768755

>  <minimizedRMSD>
0.109181419

$$$$
