
 OpenBabel03242512003D

 50 54  0  0  1  0  0  0  0  0999 V2000
   47.1960   34.1410   42.4350 C   0  0  2  0  0  0  0  0  0  0  0  0
   48.5860   34.6720   42.6170 C   0  0  0  0  0  0  0  0  0  0  0  0
   48.9460   35.6810   41.5970 C   0  0  0  0  0  0  0  0  0  0  0  0
   48.7670   35.1870   40.1790 C   0  0  0  0  0  0  0  0  0  0  0  0
   47.5450   34.3380   39.9870 C   0  0  0  0  0  0  0  0  0  0  0  0
   46.5610   34.4540   41.1300 C   0  0  1  0  0  0  0  0  0  0  0  0
   47.2840   33.0130   42.5120 H   0  0  0  0  0  0  0  0  0  0  0  0
   49.3440   33.8660   42.5790 H   0  0  0  0  0  0  0  0  0  0  0  0
   48.6500   35.1380   43.6110 H   0  0  0  0  0  0  0  0  0  0  0  0
   50.0300   35.9110   41.6990 H   0  0  0  0  0  0  0  0  0  0  0  0
   48.3690   36.6180   41.7830 H   0  0  0  0  0  0  0  0  0  0  0  0
   48.6930   36.0860   39.5320 H   0  0  0  0  0  0  0  0  0  0  0  0
   49.7010   34.6580   39.8400 H   0  0  0  0  0  0  0  0  0  0  0  0
   47.0550   34.5870   39.0430 H   0  0  0  0  0  0  0  0  0  0  0  0
   47.8970   33.2700   39.9670 H   0  0  0  0  0  0  0  0  0  0  0  0
   46.1060   35.4490   41.0220 H   0  0  0  0  0  0  0  0  0  0  0  0
   46.2930   34.5070   43.5450 C   0  0  0  0  0  0  0  0  0  0  0  0
   45.5950   35.6800   43.3180 C   0  0  0  0  0  0  0  0  0  0  0  0
   44.6910   36.1530   44.2840 C   0  0  0  0  0  0  0  0  0  0  0  0
   44.5750   35.3640   45.4360 N   0  0  0  0  0  0  0  0  0  0  0  0
   45.2810   34.2270   45.6100 C   0  0  0  0  0  0  0  0  0  0  0  0
   46.1320   33.8160   44.6550 N   0  0  0  0  0  0  0  0  0  0  0  0
   45.5460   36.4170   42.5300 H   0  0  0  0  0  0  0  0  0  0  0  0
   44.0720   37.0110   44.2990 H   0  0  0  0  0  0  0  0  0  0  0  0
   45.1160   33.7010   46.5280 H   0  0  0  0  0  0  0  0  0  0  0  0
   45.4650   33.4540   40.8930 C   0  0  2  0  0  0  0  0  0  0  0  0
   44.9450   33.3020   39.4740 C   0  0  0  0  0  0  0  0  0  0  0  0
   44.0970   33.9010   40.5170 C   0  0  1  0  0  0  0  0  0  0  0  0
   45.6220   32.4720   41.3870 H   0  0  0  0  0  0  0  0  0  0  0  0
   45.2940   33.9490   38.6680 H   0  0  0  0  0  0  0  0  0  0  0  0
   44.6060   32.2950   39.1250 H   0  0  0  0  0  0  0  0  0  0  0  0
   43.9450   35.0090   40.5050 H   0  0  0  0  0  0  0  0  0  0  0  0
   43.0260   33.1570   41.2560 C   0  0  0  0  0  0  0  0  0  0  0  0
   42.8710   32.1820   40.7750 H   0  0  0  0  0  0  0  0  0  0  0  0
   43.3990   32.9730   42.2760 H   0  0  0  0  0  0  0  0  0  0  0  0
   41.7270   33.9110   41.3630 C   0  0  0  0  0  0  0  0  0  0  0  0
   41.6040   34.6290   40.5500 H   0  0  0  0  0  0  0  0  0  0  0  0
   41.5820   34.3570   42.3560 H   0  0  0  0  0  0  0  0  0  0  0  0
   40.6650   32.9050   41.2010 N   0  0  0  0  0  0  0  0  0  0  0  0
   40.1140   32.0520   42.0760 C   0  0  0  0  0  0  0  0  0  0  0  0
   40.4280   32.0090   43.1050 H   0  0  0  0  0  0  0  0  0  0  0  0
   39.1680   31.3190   41.4640 N   0  0  0  0  0  0  0  0  0  0  0  0
   39.0730   31.6660   40.1860 C   0  0  0  0  0  0  0  0  0  0  0  0
   38.3000   31.2640   39.1160 C   0  0  0  0  0  0  0  0  0  0  0  0
   37.5580   30.4840   39.2270 H   0  0  0  0  0  0  0  0  0  0  0  0
   38.4730   31.8590   37.8990 N   0  0  0  0  0  0  0  0  0  0  0  0
   39.4150   32.8380   37.7860 C   0  0  0  0  0  0  0  0  0  0  0  0
   39.6390   33.3790   36.8750 H   0  0  0  0  0  0  0  0  0  0  0  0
   40.1740   33.2380   38.8240 N   0  0  0  0  0  0  0  0  0  0  0  0
   40.0130   32.6580   40.0370 C   0  0  0  0  0  0  0  0  0  0  0  0
  1  7  1  1  0  0  0
  1  2  1  0  0  0  0
  1 17  1  0  0  0  0
  2  9  1  0  0  0  0
  3 10  1  0  0  0  0
  3 11  1  0  0  0  0
  3  2  1  0  0  0  0
  4  3  1  0  0  0  0
  5  4  1  0  0  0  0
  5  6  1  0  0  0  0
  6 16  1  1  0  0  0
  6  1  1  0  0  0  0
  8  2  1  0  0  0  0
 12  4  1  0  0  0  0
 13  4  1  0  0  0  0
 14  5  1  0  0  0  0
 15  5  1  0  0  0  0
 17 22  1  0  0  0  0
 18 17  2  0  0  0  0
 18 19  1  0  0  0  0
 19 24  1  0  0  0  0
 19 20  2  0  0  0  0
 20 21  1  0  0  0  0
 21 25  1  0  0  0  0
 22 21  2  0  0  0  0
 23 18  1  0  0  0  0
 26  6  1  0  0  0  0
 26 29  1  1  0  0  0
 27 28  1  0  0  0  0
 27 26  1  0  0  0  0
 28 32  1  6  0  0  0
 28 26  1  0  0  0  0
 28 33  1  0  0  0  0
 30 27  1  0  0  0  0
 31 27  1  0  0  0  0
 33 36  1  0  0  0  0
 33 35  1  0  0  0  0
 34 33  1  0  0  0  0
 36 38  1  0  0  0  0
 37 36  1  0  0  0  0
 39 36  1  0  0  0  0
 39 40  1  0  0  0  0
 40 41  1  0  0  0  0
 42 40  2  0  0  0  0
 43 42  1  0  0  0  0
 44 45  1  0  0  0  0
 44 43  2  0  0  0  0
 46 44  1  0  0  0  0
 47 46  2  0  0  0  0
 47 49  1  0  0  0  0
 48 47  1  0  0  0  0
 49 50  2  0  0  0  0
 50 43  1  0  0  0  0
 50 39  1  0  0  0  0
M  END
>  <minimizedAffinity>
-6.47694159

>  <minimizedRMSD>
2.37118101

$$$$
