
 OpenBabel03242512003D

 50 54  0  0  1  0  0  0  0  0999 V2000
   47.1530   34.0990   42.4320 C   0  0  2  0  0  0  0  0  0  0  0  0
   48.5380   34.6560   42.5770 C   0  0  0  0  0  0  0  0  0  0  0  0
   48.8640   35.6450   41.5290 C   0  0  0  0  0  0  0  0  0  0  0  0
   48.6690   35.1150   40.1250 C   0  0  0  0  0  0  0  0  0  0  0  0
   47.4580   34.2430   39.9740 C   0  0  0  0  0  0  0  0  0  0  0  0
   46.4920   34.3710   41.1310 C   0  0  1  0  0  0  0  0  0  0  0  0
   47.2620   32.9750   42.5350 H   0  0  0  0  0  0  0  0  0  0  0  0
   49.3080   33.8610   42.5460 H   0  0  0  0  0  0  0  0  0  0  0  0
   48.6120   35.1460   43.5590 H   0  0  0  0  0  0  0  0  0  0  0  0
   49.9460   35.8950   41.6060 H   0  0  0  0  0  0  0  0  0  0  0  0
   48.2760   36.5770   41.7020 H   0  0  0  0  0  0  0  0  0  0  0  0
   48.5700   35.9970   39.4580 H   0  0  0  0  0  0  0  0  0  0  0  0
   49.6050   34.5930   39.7820 H   0  0  0  0  0  0  0  0  0  0  0  0
   46.9480   34.4610   39.0340 H   0  0  0  0  0  0  0  0  0  0  0  0
   47.8270   33.1800   39.9730 H   0  0  0  0  0  0  0  0  0  0  0  0
   46.0190   35.3550   41.0080 H   0  0  0  0  0  0  0  0  0  0  0  0
   46.2640   34.4770   43.5490 C   0  0  0  0  0  0  0  0  0  0  0  0
   45.5780   35.6570   43.3250 C   0  0  0  0  0  0  0  0  0  0  0  0
   44.6870   36.1430   44.2980 C   0  0  0  0  0  0  0  0  0  0  0  0
   44.5710   35.3570   45.4520 N   0  0  0  0  0  0  0  0  0  0  0  0
   45.2640   34.2120   45.6210 C   0  0  0  0  0  0  0  0  0  0  0  0
   46.1030   33.7900   44.6610 N   0  0  0  0  0  0  0  0  0  0  0  0
   45.5320   36.3940   42.5370 H   0  0  0  0  0  0  0  0  0  0  0  0
   44.0790   37.0090   44.3160 H   0  0  0  0  0  0  0  0  0  0  0  0
   45.1000   33.6880   46.5420 H   0  0  0  0  0  0  0  0  0  0  0  0
   45.4080   33.3480   40.9370 C   0  0  2  0  0  0  0  0  0  0  0  0
   44.7780   33.2430   39.5590 C   0  0  0  0  0  0  0  0  0  0  0  0
   44.0020   33.7680   40.6940 C   0  0  1  0  0  0  0  0  0  0  0  0
   45.6320   32.3510   41.3700 H   0  0  0  0  0  0  0  0  0  0  0  0
   45.0420   33.9350   38.7580 H   0  0  0  0  0  0  0  0  0  0  0  0
   44.4400   32.2430   39.1910 H   0  0  0  0  0  0  0  0  0  0  0  0
   43.8190   34.8710   40.7450 H   0  0  0  0  0  0  0  0  0  0  0  0
   43.0160   32.9590   41.4800 C   0  0  0  0  0  0  0  0  0  0  0  0
   43.1870   31.8930   41.2800 H   0  0  0  0  0  0  0  0  0  0  0  0
   43.2230   33.1380   42.5480 H   0  0  0  0  0  0  0  0  0  0  0  0
   41.5810   33.3270   41.2160 C   0  0  0  0  0  0  0  0  0  0  0  0
   41.4110   33.5770   40.1670 H   0  0  0  0  0  0  0  0  0  0  0  0
   41.2110   34.0970   41.9070 H   0  0  0  0  0  0  0  0  0  0  0  0
   40.7970   32.1120   41.4920 N   0  0  0  0  0  0  0  0  0  0  0  0
   40.8070   31.2730   42.5350 C   0  0  0  0  0  0  0  0  0  0  0  0
   41.4640   31.4140   43.3770 H   0  0  0  0  0  0  0  0  0  0  0  0
   39.9070   30.2930   42.3420 N   0  0  0  0  0  0  0  0  0  0  0  0
   39.2880   30.4620   41.1780 C   0  0  0  0  0  0  0  0  0  0  0  0
   38.3040   29.7870   40.4840 C   0  0  0  0  0  0  0  0  0  0  0  0
   37.8540   28.8900   40.8880 H   0  0  0  0  0  0  0  0  0  0  0  0
   37.8930   30.2580   39.2710 N   0  0  0  0  0  0  0  0  0  0  0  0
   38.4740   31.3920   38.7850 C   0  0  0  0  0  0  0  0  0  0  0  0
   38.2300   31.8560   37.8380 H   0  0  0  0  0  0  0  0  0  0  0  0
   39.4350   32.0580   39.4550 N   0  0  0  0  0  0  0  0  0  0  0  0
   39.8540   31.6020   40.6590 C   0  0  0  0  0  0  0  0  0  0  0  0
  1  7  1  1  0  0  0
  1  2  1  0  0  0  0
  1 17  1  0  0  0  0
  2  9  1  0  0  0  0
  3 10  1  0  0  0  0
  3 11  1  0  0  0  0
  3  2  1  0  0  0  0
  4  3  1  0  0  0  0
  5  4  1  0  0  0  0
  5  6  1  0  0  0  0
  6 16  1  1  0  0  0
  6  1  1  0  0  0  0
  8  2  1  0  0  0  0
 12  4  1  0  0  0  0
 13  4  1  0  0  0  0
 14  5  1  0  0  0  0
 15  5  1  0  0  0  0
 17 22  1  0  0  0  0
 18 17  2  0  0  0  0
 18 19  1  0  0  0  0
 19 24  1  0  0  0  0
 19 20  2  0  0  0  0
 20 21  1  0  0  0  0
 21 25  1  0  0  0  0
 22 21  2  0  0  0  0
 23 18  1  0  0  0  0
 26  6  1  0  0  0  0
 26 29  1  1  0  0  0
 27 28  1  0  0  0  0
 27 26  1  0  0  0  0
 28 32  1  6  0  0  0
 28 26  1  0  0  0  0
 28 33  1  0  0  0  0
 30 27  1  0  0  0  0
 31 27  1  0  0  0  0
 33 35  1  0  0  0  0
 34 33  1  0  0  0  0
 36 33  1  0  0  0  0
 36 39  1  0  0  0  0
 36 38  1  0  0  0  0
 37 36  1  0  0  0  0
 39 40  1  0  0  0  0
 40 41  1  0  0  0  0
 42 40  2  0  0  0  0
 43 42  1  0  0  0  0
 44 45  1  0  0  0  0
 44 43  2  0  0  0  0
 46 44  1  0  0  0  0
 47 46  2  0  0  0  0
 47 49  1  0  0  0  0
 48 47  1  0  0  0  0
 49 50  2  0  0  0  0
 50 43  1  0  0  0  0
 50 39  1  0  0  0  0
M  END
>  <minimizedAffinity>
-6.3744173

>  <minimizedRMSD>
0.929442346

$$$$
