
 OpenBabel03242512003D

 50 54  0  0  1  0  0  0  0  0999 V2000
   47.1500   34.1160   42.4430 C   0  0  2  0  0  0  0  0  0  0  0  0
   48.5570   34.5950   42.6380 C   0  0  0  0  0  0  0  0  0  0  0  0
   48.9530   35.6140   41.6430 C   0  0  0  0  0  0  0  0  0  0  0  0
   48.7590   35.1590   40.2130 C   0  0  0  0  0  0  0  0  0  0  0  0
   47.5100   34.3580   40.0010 C   0  0  0  0  0  0  0  0  0  0  0  0
   46.5290   34.4810   41.1450 C   0  0  1  0  0  0  0  0  0  0  0  0
   47.2000   32.9850   42.4950 H   0  0  0  0  0  0  0  0  0  0  0  0
   49.2880   33.7640   42.5830 H   0  0  0  0  0  0  0  0  0  0  0  0
   48.6360   35.0360   43.6430 H   0  0  0  0  0  0  0  0  0  0  0  0
   50.0450   35.8040   41.7500 H   0  0  0  0  0  0  0  0  0  0  0  0
   48.4090   36.5650   41.8490 H   0  0  0  0  0  0  0  0  0  0  0  0
   48.7180   36.0750   39.5870 H   0  0  0  0  0  0  0  0  0  0  0  0
   49.6750   34.6070   39.8620 H   0  0  0  0  0  0  0  0  0  0  0  0
   47.0300   34.6440   39.0620 H   0  0  0  0  0  0  0  0  0  0  0  0
   47.8250   33.2790   39.9560 H   0  0  0  0  0  0  0  0  0  0  0  0
   46.1080   35.4930   41.0600 H   0  0  0  0  0  0  0  0  0  0  0  0
   46.2590   34.4880   43.5610 C   0  0  0  0  0  0  0  0  0  0  0  0
   45.5500   35.6530   43.3310 C   0  0  0  0  0  0  0  0  0  0  0  0
   44.6550   36.1310   44.3040 C   0  0  0  0  0  0  0  0  0  0  0  0
   44.5590   35.3520   45.4650 N   0  0  0  0  0  0  0  0  0  0  0  0
   45.2740   34.2220   45.6410 C   0  0  0  0  0  0  0  0  0  0  0  0
   46.1160   33.8070   44.6790 N   0  0  0  0  0  0  0  0  0  0  0  0
   45.4870   36.3830   42.5360 H   0  0  0  0  0  0  0  0  0  0  0  0
   44.0310   36.9850   44.3170 H   0  0  0  0  0  0  0  0  0  0  0  0
   45.1240   33.7040   46.5660 H   0  0  0  0  0  0  0  0  0  0  0  0
   45.3990   33.5250   40.8850 C   0  0  2  0  0  0  0  0  0  0  0  0
   45.0320   33.2460   39.4370 C   0  0  0  0  0  0  0  0  0  0  0  0
   44.1170   34.0050   40.3040 C   0  0  1  0  0  0  0  0  0  0  0  0
   45.4310   32.5970   41.4930 H   0  0  0  0  0  0  0  0  0  0  0  0
   45.5140   33.7770   38.6160 H   0  0  0  0  0  0  0  0  0  0  0  0
   44.6660   32.2270   39.1570 H   0  0  0  0  0  0  0  0  0  0  0  0
   44.0440   35.1120   40.1580 H   0  0  0  0  0  0  0  0  0  0  0  0
   42.9200   33.4100   40.9830 C   0  0  0  0  0  0  0  0  0  0  0  0
   42.4210   32.7200   40.2890 H   0  0  0  0  0  0  0  0  0  0  0  0
   43.2880   32.8200   41.8370 H   0  0  0  0  0  0  0  0  0  0  0  0
   41.9480   34.4330   41.5060 C   0  0  0  0  0  0  0  0  0  0  0  0
   42.1260   35.4210   41.0770 H   0  0  0  0  0  0  0  0  0  0  0  0
   41.9010   34.4440   42.6040 H   0  0  0  0  0  0  0  0  0  0  0  0
   40.6210   34.0030   41.0390 N   0  0  0  0  0  0  0  0  0  0  0  0
   39.7020   34.6280   40.2910 C   0  0  0  0  0  0  0  0  0  0  0  0
   39.8550   35.6230   39.9110 H   0  0  0  0  0  0  0  0  0  0  0  0
   38.6330   33.8300   40.1210 N   0  0  0  0  0  0  0  0  0  0  0  0
   38.8200   32.6730   40.7460 C   0  0  0  0  0  0  0  0  0  0  0  0
   38.0840   31.5170   40.9080 C   0  0  0  0  0  0  0  0  0  0  0  0
   37.1020   31.4140   40.4640 H   0  0  0  0  0  0  0  0  0  0  0  0
   38.6010   30.4870   41.6410 N   0  0  0  0  0  0  0  0  0  0  0  0
   39.8400   30.6420   42.1900 C   0  0  0  0  0  0  0  0  0  0  0  0
   40.3500   29.8960   42.7890 H   0  0  0  0  0  0  0  0  0  0  0  0
   40.5650   31.7660   42.0370 N   0  0  0  0  0  0  0  0  0  0  0  0
   40.0650   32.7950   41.3150 C   0  0  0  0  0  0  0  0  0  0  0  0
  1  7  1  1  0  0  0
  1  2  1  0  0  0  0
  1 17  1  0  0  0  0
  2  9  1  0  0  0  0
  3 10  1  0  0  0  0
  3 11  1  0  0  0  0
  3  2  1  0  0  0  0
  4  3  1  0  0  0  0
  5  4  1  0  0  0  0
  5  6  1  0  0  0  0
  6 16  1  1  0  0  0
  6  1  1  0  0  0  0
  8  2  1  0  0  0  0
 12  4  1  0  0  0  0
 13  4  1  0  0  0  0
 14  5  1  0  0  0  0
 15  5  1  0  0  0  0
 17 22  1  0  0  0  0
 18 17  2  0  0  0  0
 18 19  1  0  0  0  0
 19 24  1  0  0  0  0
 19 20  2  0  0  0  0
 20 21  1  0  0  0  0
 21 25  1  0  0  0  0
 22 21  2  0  0  0  0
 23 18  1  0  0  0  0
 26  6  1  0  0  0  0
 26 29  1  1  0  0  0
 27 28  1  0  0  0  0
 27 26  1  0  0  0  0
 28 32  1  6  0  0  0
 28 26  1  0  0  0  0
 28 33  1  0  0  0  0
 30 27  1  0  0  0  0
 31 27  1  0  0  0  0
 33 36  1  0  0  0  0
 33 35  1  0  0  0  0
 34 33  1  0  0  0  0
 36 38  1  0  0  0  0
 37 36  1  0  0  0  0
 39 50  1  0  0  0  0
 39 36  1  0  0  0  0
 40 39  1  0  0  0  0
 41 40  1  0  0  0  0
 42 40  2  0  0  0  0
 42 43  1  0  0  0  0
 43 44  2  0  0  0  0
 43 50  1  0  0  0  0
 44 46  1  0  0  0  0
 45 44  1  0  0  0  0
 46 47  2  0  0  0  0
 47 48  1  0  0  0  0
 49 47  1  0  0  0  0
 50 49  2  0  0  0  0
M  END
>  <minimizedAffinity>
-6.98223543

>  <minimizedRMSD>
2.21332526

$$$$
