
 OpenBabel03242512003D

 50 54  0  0  1  0  0  0  0  0999 V2000
   47.1300   34.1220   42.4340 C   0  0  2  0  0  0  0  0  0  0  0  0
   48.5290   34.6360   42.6000 C   0  0  0  0  0  0  0  0  0  0  0  0
   48.8940   35.6310   41.5690 C   0  0  0  0  0  0  0  0  0  0  0  0
   48.6970   35.1280   40.1560 C   0  0  0  0  0  0  0  0  0  0  0  0
   47.4620   34.2950   39.9810 C   0  0  0  0  0  0  0  0  0  0  0  0
   46.4900   34.4330   41.1310 C   0  0  1  0  0  0  0  0  0  0  0  0
   47.2050   32.9940   42.5200 H   0  0  0  0  0  0  0  0  0  0  0  0
   49.2760   33.8190   42.5630 H   0  0  0  0  0  0  0  0  0  0  0  0
   48.6080   35.1090   43.5890 H   0  0  0  0  0  0  0  0  0  0  0  0
   49.9830   35.8480   41.6600 H   0  0  0  0  0  0  0  0  0  0  0  0
   48.3320   36.5770   41.7510 H   0  0  0  0  0  0  0  0  0  0  0  0
   48.6300   36.0230   39.5020 H   0  0  0  0  0  0  0  0  0  0  0  0
   49.6210   34.5840   39.8140 H   0  0  0  0  0  0  0  0  0  0  0  0
   46.9680   34.5420   39.0390 H   0  0  0  0  0  0  0  0  0  0  0  0
   47.8000   33.2220   39.9670 H   0  0  0  0  0  0  0  0  0  0  0  0
   46.0470   35.4330   41.0180 H   0  0  0  0  0  0  0  0  0  0  0  0
   46.2420   34.5100   43.5480 C   0  0  0  0  0  0  0  0  0  0  0  0
   45.5670   35.6960   43.3210 C   0  0  0  0  0  0  0  0  0  0  0  0
   44.6790   36.1910   44.2920 C   0  0  0  0  0  0  0  0  0  0  0  0
   44.5530   35.4070   45.4460 N   0  0  0  0  0  0  0  0  0  0  0  0
   45.2360   34.2560   45.6180 C   0  0  0  0  0  0  0  0  0  0  0  0
   46.0730   33.8250   44.6600 N   0  0  0  0  0  0  0  0  0  0  0  0
   45.5300   36.4330   42.5320 H   0  0  0  0  0  0  0  0  0  0  0  0
   44.0780   37.0620   44.3080 H   0  0  0  0  0  0  0  0  0  0  0  0
   45.0650   33.7350   46.5390 H   0  0  0  0  0  0  0  0  0  0  0  0
   45.3780   33.4460   40.9110 C   0  0  2  0  0  0  0  0  0  0  0  0
   44.8350   33.3000   39.5000 C   0  0  0  0  0  0  0  0  0  0  0  0
   44.0100   33.9100   40.5560 C   0  0  1  0  0  0  0  0  0  0  0  0
   45.5310   32.4630   41.4030 H   0  0  0  0  0  0  0  0  0  0  0  0
   45.1800   33.9420   38.6880 H   0  0  0  0  0  0  0  0  0  0  0  0
   44.4790   32.2970   39.1570 H   0  0  0  0  0  0  0  0  0  0  0  0
   43.8710   35.0200   40.5450 H   0  0  0  0  0  0  0  0  0  0  0  0
   42.9420   33.1790   41.3110 C   0  0  0  0  0  0  0  0  0  0  0  0
   42.8790   32.1480   40.9350 H   0  0  0  0  0  0  0  0  0  0  0  0
   43.2580   33.1330   42.3650 H   0  0  0  0  0  0  0  0  0  0  0  0
   41.5940   33.8480   41.2560 C   0  0  0  0  0  0  0  0  0  0  0  0
   41.4680   34.4370   40.3460 H   0  0  0  0  0  0  0  0  0  0  0  0
   41.3710   34.4160   42.1700 H   0  0  0  0  0  0  0  0  0  0  0  0
   40.6070   32.7590   41.1940 N   0  0  0  0  0  0  0  0  0  0  0  0
   40.1420   31.9320   42.1410 C   0  0  0  0  0  0  0  0  0  0  0  0
   40.4810   31.9860   43.1610 H   0  0  0  0  0  0  0  0  0  0  0  0
   39.2400   31.0900   41.6080 N   0  0  0  0  0  0  0  0  0  0  0  0
   39.0900   31.3390   40.3110 C   0  0  0  0  0  0  0  0  0  0  0  0
   38.3240   30.8060   39.2950 C   0  0  0  0  0  0  0  0  0  0  0  0
   37.6450   29.9840   39.4790 H   0  0  0  0  0  0  0  0  0  0  0  0
   38.4250   31.3230   38.0340 N   0  0  0  0  0  0  0  0  0  0  0  0
   39.2880   32.3590   37.8280 C   0  0  0  0  0  0  0  0  0  0  0  0
   39.4500   32.8480   36.8750 H   0  0  0  0  0  0  0  0  0  0  0  0
   40.0380   32.8860   38.8130 N   0  0  0  0  0  0  0  0  0  0  0  0
   39.9490   32.3830   40.0680 C   0  0  0  0  0  0  0  0  0  0  0  0
  1  7  1  1  0  0  0
  1  2  1  0  0  0  0
  1 17  1  0  0  0  0
  2  9  1  0  0  0  0
  3 10  1  0  0  0  0
  3 11  1  0  0  0  0
  3  2  1  0  0  0  0
  4  3  1  0  0  0  0
  5  4  1  0  0  0  0
  5  6  1  0  0  0  0
  6 16  1  1  0  0  0
  6  1  1  0  0  0  0
  8  2  1  0  0  0  0
 12  4  1  0  0  0  0
 13  4  1  0  0  0  0
 14  5  1  0  0  0  0
 15  5  1  0  0  0  0
 17 22  1  0  0  0  0
 18 17  2  0  0  0  0
 18 19  1  0  0  0  0
 19 24  1  0  0  0  0
 19 20  2  0  0  0  0
 20 21  1  0  0  0  0
 21 25  1  0  0  0  0
 22 21  2  0  0  0  0
 23 18  1  0  0  0  0
 26  6  1  0  0  0  0
 26 29  1  1  0  0  0
 27 28  1  0  0  0  0
 27 26  1  0  0  0  0
 28 32  1  6  0  0  0
 28 26  1  0  0  0  0
 28 33  1  0  0  0  0
 30 27  1  0  0  0  0
 31 27  1  0  0  0  0
 33 35  1  0  0  0  0
 34 33  1  0  0  0  0
 36 33  1  0  0  0  0
 36 38  1  0  0  0  0
 37 36  1  0  0  0  0
 39 36  1  0  0  0  0
 39 40  1  0  0  0  0
 40 41  1  0  0  0  0
 42 40  2  0  0  0  0
 43 42  1  0  0  0  0
 44 45  1  0  0  0  0
 44 43  2  0  0  0  0
 46 44  1  0  0  0  0
 47 46  2  0  0  0  0
 47 49  1  0  0  0  0
 48 47  1  0  0  0  0
 49 50  2  0  0  0  0
 50 43  1  0  0  0  0
 50 39  1  0  0  0  0
M  END
>  <minimizedAffinity>
-6.47298956

>  <minimizedRMSD>
1.66626489

$$$$
