
 OpenBabel03242512003D

 50 54  0  0  1  0  0  0  0  0999 V2000
   47.1880   34.1110   42.4230 C   0  0  2  0  0  0  0  0  0  0  0  0
   48.5560   34.7080   42.5590 C   0  0  0  0  0  0  0  0  0  0  0  0
   48.8560   35.6890   41.4930 C   0  0  0  0  0  0  0  0  0  0  0  0
   48.6760   35.1300   40.0990 C   0  0  0  0  0  0  0  0  0  0  0  0
   47.4890   34.2220   39.9630 C   0  0  0  0  0  0  0  0  0  0  0  0
   46.5200   34.3430   41.1180 C   0  0  1  0  0  0  0  0  0  0  0  0
   47.3270   32.9920   42.5450 H   0  0  0  0  0  0  0  0  0  0  0  0
   49.3480   33.9340   42.5400 H   0  0  0  0  0  0  0  0  0  0  0  0
   48.6170   35.2170   43.5320 H   0  0  0  0  0  0  0  0  0  0  0  0
   49.9310   35.9690   41.5660 H   0  0  0  0  0  0  0  0  0  0  0  0
   48.2420   36.6070   41.6510 H   0  0  0  0  0  0  0  0  0  0  0  0
   48.5520   35.9970   39.4180 H   0  0  0  0  0  0  0  0  0  0  0  0
   49.6260   34.6280   39.7650 H   0  0  0  0  0  0  0  0  0  0  0  0
   46.9730   34.4100   39.0190 H   0  0  0  0  0  0  0  0  0  0  0  0
   47.8870   33.1700   39.9800 H   0  0  0  0  0  0  0  0  0  0  0  0
   46.0200   35.3120   40.9780 H   0  0  0  0  0  0  0  0  0  0  0  0
   46.2880   34.4830   43.5340 C   0  0  0  0  0  0  0  0  0  0  0  0
   45.6100   35.6690   43.3130 C   0  0  0  0  0  0  0  0  0  0  0  0
   44.7110   36.1500   44.2810 C   0  0  0  0  0  0  0  0  0  0  0  0
   44.5790   35.3540   45.4260 N   0  0  0  0  0  0  0  0  0  0  0  0
   45.2650   34.2040   45.5930 C   0  0  0  0  0  0  0  0  0  0  0  0
   46.1120   33.7870   44.6370 N   0  0  0  0  0  0  0  0  0  0  0  0
   45.5760   36.4130   42.5310 H   0  0  0  0  0  0  0  0  0  0  0  0
   44.1070   37.0180   44.3000 H   0  0  0  0  0  0  0  0  0  0  0  0
   45.0890   33.6740   46.5070 H   0  0  0  0  0  0  0  0  0  0  0  0
   45.4640   33.2880   40.9410 C   0  0  2  0  0  0  0  0  0  0  0  0
   44.6340   33.3280   39.6700 C   0  0  0  0  0  0  0  0  0  0  0  0
   44.0210   33.6450   40.9700 C   0  0  1  0  0  0  0  0  0  0  0  0
   45.7960   32.2580   41.1900 H   0  0  0  0  0  0  0  0  0  0  0  0
   44.7410   34.1370   38.9460 H   0  0  0  0  0  0  0  0  0  0  0  0
   44.2870   32.3660   39.2170 H   0  0  0  0  0  0  0  0  0  0  0  0
   43.8000   34.7160   41.2040 H   0  0  0  0  0  0  0  0  0  0  0  0
   43.2040   32.6760   41.7690 C   0  0  0  0  0  0  0  0  0  0  0  0
   43.6270   31.6690   41.6510 H   0  0  0  0  0  0  0  0  0  0  0  0
   43.3040   32.9590   42.8290 H   0  0  0  0  0  0  0  0  0  0  0  0
   41.7400   32.6820   41.4190 C   0  0  0  0  0  0  0  0  0  0  0  0
   41.5790   32.6590   40.3400 H   0  0  0  0  0  0  0  0  0  0  0  0
   41.1930   33.4940   41.9180 H   0  0  0  0  0  0  0  0  0  0  0  0
   41.1930   31.4250   41.9550 N   0  0  0  0  0  0  0  0  0  0  0  0
   41.7610   30.4530   42.6820 C   0  0  0  0  0  0  0  0  0  0  0  0
   42.7920   30.4960   42.9850 H   0  0  0  0  0  0  0  0  0  0  0  0
   40.8580   29.4910   42.9390 N   0  0  0  0  0  0  0  0  0  0  0  0
   39.6880   29.8010   42.3940 C   0  0  0  0  0  0  0  0  0  0  0  0
   38.4450   29.2040   42.3370 C   0  0  0  0  0  0  0  0  0  0  0  0
   38.2610   28.2510   42.8160 H   0  0  0  0  0  0  0  0  0  0  0  0
   37.4310   29.8240   41.6650 N   0  0  0  0  0  0  0  0  0  0  0  0
   37.6870   31.0240   41.0710 C   0  0  0  0  0  0  0  0  0  0  0  0
   36.9630   31.6060   40.5130 H   0  0  0  0  0  0  0  0  0  0  0  0
   38.8960   31.6140   41.1220 N   0  0  0  0  0  0  0  0  0  0  0  0
   39.9120   31.0120   41.7820 C   0  0  0  0  0  0  0  0  0  0  0  0
  1  7  1  1  0  0  0
  1  2  1  0  0  0  0
  1 17  1  0  0  0  0
  2  9  1  0  0  0  0
  3 10  1  0  0  0  0
  3 11  1  0  0  0  0
  3  2  1  0  0  0  0
  4  3  1  0  0  0  0
  5 15  1  0  0  0  0
  5  4  1  0  0  0  0
  5  6  1  0  0  0  0
  6 16  1  6  0  0  0
  6  1  1  0  0  0  0
  8  2  1  0  0  0  0
 12  4  1  0  0  0  0
 13  4  1  0  0  0  0
 14  5  1  0  0  0  0
 17 22  1  0  0  0  0
 18 17  2  0  0  0  0
 18 19  1  0  0  0  0
 19 24  1  0  0  0  0
 19 20  2  0  0  0  0
 20 21  1  0  0  0  0
 21 25  1  0  0  0  0
 22 21  2  0  0  0  0
 23 18  1  0  0  0  0
 26 28  1  0  0  0  0
 26  6  1  0  0  0  0
 26 29  1  1  0  0  0
 27 26  1  0  0  0  0
 27 28  1  0  0  0  0
 28 32  1  1  0  0  0
 28 33  1  0  0  0  0
 30 27  1  0  0  0  0
 31 27  1  0  0  0  0
 33 35  1  0  0  0  0
 34 33  1  0  0  0  0
 36 33  1  0  0  0  0
 36 38  1  0  0  0  0
 36 39  1  0  0  0  0
 37 36  1  0  0  0  0
 39 40  1  0  0  0  0
 40 42  2  0  0  0  0
 40 41  1  0  0  0  0
 43 42  1  0  0  0  0
 44 43  1  0  0  0  0
 44 45  1  0  0  0  0
 46 44  2  0  0  0  0
 47 49  2  0  0  0  0
 47 46  1  0  0  0  0
 48 47  1  0  0  0  0
 49 50  1  0  0  0  0
 50 39  1  0  0  0  0
 50 43  2  0  0  0  0
M  END
>  <minimizedAffinity>
-6.5408287

>  <minimizedRMSD>
0.635848463

$$$$
