
 OpenBabel03242512003D

 50 54  0  0  1  0  0  0  0  0999 V2000
   45.8640   33.5330   41.2800 C   0  0  2  0  0  0  0  0  0  0  0  0
   46.5930   34.1330   42.4460 C   0  0  0  0  0  0  0  0  0  0  0  0
   47.4830   35.2440   42.0480 C   0  0  0  0  0  0  0  0  0  0  0  0
   48.4710   34.8610   40.9680 C   0  0  0  0  0  0  0  0  0  0  0  0
   47.8950   33.9570   39.9190 C   0  0  0  0  0  0  0  0  0  0  0  0
   46.3830   33.9150   39.9420 C   0  0  1  0  0  0  0  0  0  0  0  0
   45.9830   32.4110   41.3880 H   0  0  0  0  0  0  0  0  0  0  0  0
   47.2050   33.3810   42.9810 H   0  0  0  0  0  0  0  0  0  0  0  0
   45.8480   34.5170   43.1580 H   0  0  0  0  0  0  0  0  0  0  0  0
   48.1010   35.5320   42.9280 H   0  0  0  0  0  0  0  0  0  0  0  0
   46.8670   36.1240   41.7490 H   0  0  0  0  0  0  0  0  0  0  0  0
   48.8090   35.8050   40.4910 H   0  0  0  0  0  0  0  0  0  0  0  0
   49.3950   34.4220   41.4360 H   0  0  0  0  0  0  0  0  0  0  0  0
   48.2460   34.2530   38.9280 H   0  0  0  0  0  0  0  0  0  0  0  0
   48.2530   32.9180   40.1590 H   0  0  0  0  0  0  0  0  0  0  0  0
   46.0590   34.8850   39.5400 H   0  0  0  0  0  0  0  0  0  0  0  0
   44.4050   33.7480   41.3450 C   0  0  0  0  0  0  0  0  0  0  0  0
   44.0360   35.0640   41.1270 C   0  0  0  0  0  0  0  0  0  0  0  0
   42.6770   35.4210   41.1520 C   0  0  0  0  0  0  0  0  0  0  0  0
   41.7840   34.3720   41.4060 N   0  0  0  0  0  0  0  0  0  0  0  0
   42.1960   33.1040   41.6130 C   0  0  0  0  0  0  0  0  0  0  0  0
   43.5070   32.8130   41.5790 N   0  0  0  0  0  0  0  0  0  0  0  0
   44.5480   35.9940   40.9290 H   0  0  0  0  0  0  0  0  0  0  0  0
   42.1990   36.3550   41.0100 H   0  0  0  0  0  0  0  0  0  0  0  0
   41.4290   32.3790   41.8000 H   0  0  0  0  0  0  0  0  0  0  0  0
   45.9380   32.8720   38.9560 C   0  0  2  0  0  0  0  0  0  0  0  0
   46.2700   33.1020   37.4920 C   0  0  0  0  0  0  0  0  0  0  0  0
   44.8760   33.1730   37.9590 C   0  0  1  0  0  0  0  0  0  0  0  0
   46.1380   31.8260   39.2700 H   0  0  0  0  0  0  0  0  0  0  0  0
   46.7420   34.0250   37.1530 H   0  0  0  0  0  0  0  0  0  0  0  0
   46.4950   32.2200   36.8410 H   0  0  0  0  0  0  0  0  0  0  0  0
   44.4020   34.1810   38.0580 H   0  0  0  0  0  0  0  0  0  0  0  0
   43.8870   32.0560   37.8180 C   0  0  0  0  0  0  0  0  0  0  0  0
   43.9870   31.6140   36.8180 H   0  0  0  0  0  0  0  0  0  0  0  0
   44.1580   31.2840   38.5560 H   0  0  0  0  0  0  0  0  0  0  0  0
   42.4630   32.4700   38.0780 C   0  0  0  0  0  0  0  0  0  0  0  0
   42.0900   33.1520   37.3110 H   0  0  0  0  0  0  0  0  0  0  0  0
   42.3160   32.8500   39.0980 H   0  0  0  0  0  0  0  0  0  0  0  0
   41.6620   31.2400   37.9750 N   0  0  0  0  0  0  0  0  0  0  0  0
   41.9010   30.0790   37.3500 C   0  0  0  0  0  0  0  0  0  0  0  0
   42.8080   29.9060   36.7960 H   0  0  0  0  0  0  0  0  0  0  0  0
   40.8690   29.2390   37.5370 N   0  0  0  0  0  0  0  0  0  0  0  0
   39.9340   29.8210   38.2810 C   0  0  0  0  0  0  0  0  0  0  0  0
   38.7000   29.4440   38.7730 C   0  0  0  0  0  0  0  0  0  0  0  0
   38.2930   28.4630   38.5680 H   0  0  0  0  0  0  0  0  0  0  0  0
   37.9820   30.3240   39.5320 N   0  0  0  0  0  0  0  0  0  0  0  0
   38.5160   31.5550   39.7760 C   0  0  0  0  0  0  0  0  0  0  0  0
   38.0410   32.3320   40.3620 H   0  0  0  0  0  0  0  0  0  0  0  0
   39.7190   31.9300   39.3000 N   0  0  0  0  0  0  0  0  0  0  0  0
   40.4430   31.0690   38.5470 C   0  0  0  0  0  0  0  0  0  0  0  0
  1 17  1  0  0  0  0
  1  7  1  1  0  0  0
  1  2  1  0  0  0  0
  2  8  1  0  0  0  0
  2  9  1  0  0  0  0
  3  2  1  0  0  0  0
  3 10  1  0  0  0  0
  4 13  1  0  0  0  0
  4  3  1  0  0  0  0
  5  6  1  0  0  0  0
  5 15  1  0  0  0  0
  5  4  1  0  0  0  0
  6 16  1  6  0  0  0
  6  1  1  0  0  0  0
 11  3  1  0  0  0  0
 12  4  1  0  0  0  0
 14  5  1  0  0  0  0
 17 22  1  0  0  0  0
 18 19  1  0  0  0  0
 18 17  2  0  0  0  0
 19 20  2  0  0  0  0
 20 21  1  0  0  0  0
 21 25  1  0  0  0  0
 22 21  2  0  0  0  0
 23 18  1  0  0  0  0
 24 19  1  0  0  0  0
 26 29  1  1  0  0  0
 26  6  1  0  0  0  0
 27 28  1  0  0  0  0
 27 26  1  0  0  0  0
 28 32  1  1  0  0  0
 28 26  1  0  0  0  0
 30 27  1  0  0  0  0
 31 27  1  0  0  0  0
 33 28  1  0  0  0  0
 33 36  1  0  0  0  0
 33 35  1  0  0  0  0
 34 33  1  0  0  0  0
 36 38  1  0  0  0  0
 37 36  1  0  0  0  0
 39 36  1  0  0  0  0
 39 50  1  0  0  0  0
 40 42  2  0  0  0  0
 40 39  1  0  0  0  0
 41 40  1  0  0  0  0
 42 43  1  0  0  0  0
 43 50  2  0  0  0  0
 43 44  1  0  0  0  0
 44 46  2  0  0  0  0
 45 44  1  0  0  0  0
 46 47  1  0  0  0  0
 47 48  1  0  0  0  0
 49 47  2  0  0  0  0
 50 49  1  0  0  0  0
M  END
>  <minimizedAffinity>
-4.50255775

>  <minimizedRMSD>
3.57272768

$$$$
