
 OpenBabel03252508543D

 41 43  0  0  1  0  0  0  0  0999 V2000
   43.4340   34.4260   40.6220 C   0  0  0  0  0  0  0  0  0  0  0  0
   43.0650   35.6390   40.7920 O   0  0  0  0  0  0  0  0  0  0  0  0
   42.3950   34.0040   39.6980 N   0  0  0  0  0  0  0  0  0  0  0  0
   42.3370   34.7520   38.4570 C   0  0  0  0  0  0  0  0  0  0  0  0
   41.1830   35.7310   38.6390 C   0  0  0  0  0  0  0  0  0  0  0  0
   40.1220   35.0250   39.4780 C   0  0  0  0  0  0  0  0  0  0  0  0
   40.1500   33.5150   39.2310 C   0  0  0  0  0  0  0  0  0  0  0  0
   41.4090   32.9320   39.8570 C   0  0  2  0  0  0  0  0  0  0  0  0
   43.2540   35.3340   38.2530 H   0  0  0  0  0  0  0  0  0  0  0  0
   42.0630   34.0950   37.5960 H   0  0  0  0  0  0  0  0  0  0  0  0
   41.5600   36.5690   39.2630 H   0  0  0  0  0  0  0  0  0  0  0  0
   40.7710   36.0840   37.6760 H   0  0  0  0  0  0  0  0  0  0  0  0
   39.1160   35.4010   39.2700 H   0  0  0  0  0  0  0  0  0  0  0  0
   40.3590   35.1610   40.5590 H   0  0  0  0  0  0  0  0  0  0  0  0
   40.1880   33.3760   38.1180 H   0  0  0  0  0  0  0  0  0  0  0  0
   39.2320   33.1050   39.6660 H   0  0  0  0  0  0  0  0  0  0  0  0
   41.7260   32.0880   39.2330 H   0  0  0  0  0  0  0  0  0  0  0  0
   44.5040   33.7700   41.1740 O   0  0  0  0  0  0  0  0  0  0  0  0
   45.8290   34.1340   41.0380 C   0  0  0  0  0  0  0  0  0  0  0  0
   46.4540   34.7700   42.1080 C   0  0  0  0  0  0  0  0  0  0  0  0
   47.7940   35.1260   41.9410 C   0  0  0  0  0  0  0  0  0  0  0  0
   48.4090   34.8350   40.7530 N   0  0  0  0  0  0  0  0  0  0  0  0
   47.7730   34.2300   39.7690 C   0  0  0  0  0  0  0  0  0  0  0  0
   46.4750   33.8740   39.9020 N   0  0  0  0  0  0  0  0  0  0  0  0
   48.2990   35.6180   42.7510 H   0  0  0  0  0  0  0  0  0  0  0  0
   48.2410   33.9890   38.8210 H   0  0  0  0  0  0  0  0  0  0  0  0
   45.7100   35.0340   43.3280 C   0  0  0  0  0  0  0  0  0  0  0  0
   45.0530   36.2260   43.5740 C   0  0  0  0  0  0  0  0  0  0  0  0
   44.4950   36.0530   44.8090 C   0  0  0  0  0  0  0  0  0  0  0  0
   44.7910   34.8240   45.2990 N   0  0  0  0  0  0  0  0  0  0  0  0
   45.5220   34.2420   44.3820 N   0  0  0  0  0  0  0  0  0  0  0  0
   45.0020   37.0880   42.9230 H   0  0  0  0  0  0  0  0  0  0  0  0
   43.8870   36.7700   45.3720 H   0  0  0  0  0  0  0  0  0  0  0  0
   44.5130   34.3810   46.2240 H   0  0  0  0  0  0  0  0  0  0  0  0
   41.2030   32.5740   41.3000 C   0  0  0  0  0  2  0  0  0  0  0  0
   40.6350   31.2480   41.4320 N   0  0  0  0  0  4  0  0  0  0  0  0
   39.6440   31.2150   41.1340 H   0  0  0  0  0  0  0  0  0  0  0  0
   40.6600   30.8400   42.8440 C   0  0  0  0  0  2  0  0  0  0  0  0
   40.4570   29.7650   42.9430 H   0  0  0  0  0  0  0  0  0  0  0  0
   41.3540   30.2640   40.6520 C   0  0  0  0  0  2  0  0  0  0  0  0
   42.4530   30.4660   40.6180 H   0  0  0  0  0  0  0  0  0  0  0  0
  1  2  2  0  0  0  0
  1 18  1  0  0  0  0
  3  8  1  0  0  0  0
  3  1  1  0  0  0  0
  4  5  1  0  0  0  0
  4  3  1  0  0  0  0
  5 11  1  0  0  0  0
  5  6  1  0  0  0  0
  6 14  1  0  0  0  0
  7  6  1  0  0  0  0
  7 16  1  0  0  0  0
  7  8  1  0  0  0  0
  8 17  1  6  0  0  0
  8 35  1  0  0  0  0
  9  4  1  0  0  0  0
 10  4  1  0  0  0  0
 12  5  1  0  0  0  0
 13  6  1  0  0  0  0
 15  7  1  0  0  0  0
 19 18  1  0  0  0  0
 19 20  1  0  0  0  0
 20 27  1  0  0  0  0
 21 20  2  0  0  0  0
 21 25  1  0  0  0  0
 22 21  1  0  0  0  0
 23 24  1  0  0  0  0
 23 22  2  0  0  0  0
 24 19  2  0  0  0  0
 26 23  1  0  0  0  0
 27 28  1  0  0  0  0
 27 31  2  0  0  0  0
 28 29  2  0  0  0  0
 29 30  1  0  0  0  0
 29 33  1  0  0  0  0
 30 34  1  0  0  0  0
 31 30  1  0  0  0  0
 32 28  1  0  0  0  0
 35 36  1  0  0  0  0
 36 38  1  0  0  0  0
 37 36  1  0  0  0  0
 38 39  1  0  0  0  0
 40 36  1  0  0  0  0
 41 40  1  0  0  0  0
M  END
>  <minimizedAffinity>
-6.06869602

>  <minimizedRMSD>
1.29466403

$$$$
