
 OpenBabel03242520403D

 37 39  0  0  1  0  0  0  0  0999 V2000
   45.8610   33.4820   45.7820 C   0  0  0  0  0  0  0  0  0  0  0  0
   46.6580   33.6300   44.6270 C   0  0  0  0  0  0  0  0  0  0  0  0
   47.3250   32.4720   44.1250 C   0  0  0  0  0  0  0  0  0  0  0  0
   47.1600   31.2820   44.7790 N   0  0  0  0  0  0  0  0  0  0  0  0
   46.3830   31.2030   45.8820 C   0  0  0  0  0  0  0  0  0  0  0  0
   45.7440   32.2930   46.3710 N   0  0  0  0  0  0  0  0  0  0  0  0
   46.2790   29.9420   46.4820 N   0  0  0  0  0  0  0  0  0  0  0  0
   47.4350   29.2640   46.9670 C   0  0  2  0  0  0  0  0  0  0  0  0
   47.2120   27.8410   47.3390 C   0  0  0  0  0  0  0  0  0  0  0  0
   45.9230   27.4830   47.7990 N   0  0  0  0  0  0  0  0  0  0  0  0
   45.0140   28.5740   47.9200 C   0  0  0  0  0  0  0  0  0  0  0  0
   44.9740   29.3170   46.6130 C   0  0  0  0  0  0  0  0  0  0  0  0
   45.3960   34.3930   46.0960 H   0  0  0  0  0  0  0  0  0  0  0  0
   46.8550   34.4960   44.0440 H   0  0  0  0  0  0  0  0  0  0  0  0
   47.9520   32.5040   43.2470 H   0  0  0  0  0  0  0  0  0  0  0  0
   48.1430   29.2130   46.0840 H   0  0  0  0  0  0  0  0  0  0  0  0
   47.9330   27.6080   48.1760 H   0  0  0  0  0  0  0  0  0  0  0  0
   47.4940   27.1330   46.5330 H   0  0  0  0  0  0  0  0  0  0  0  0
   45.4700   26.7360   47.2110 H   0  0  0  0  0  0  0  0  0  0  0  0
   43.9900   28.1070   48.0140 H   0  0  0  0  0  0  0  0  0  0  0  0
   45.1170   29.1950   48.8120 H   0  0  0  0  0  0  0  0  0  0  0  0
   44.1600   30.0970   46.6120 H   0  0  0  0  0  0  0  0  0  0  0  0
   44.7820   28.5840   45.8160 H   0  0  0  0  0  0  0  0  0  0  0  0
   48.1250   30.0390   48.0280 C   0  0  0  0  0  0  0  0  0  0  0  0
   47.6580   30.8170   49.0710 C   0  0  0  0  0  0  0  0  0  0  0  0
   48.6720   31.3210   49.7950 N   0  0  0  0  0  0  0  0  0  0  0  0
   49.7880   30.8640   49.2120 C   0  0  0  0  0  0  0  0  0  0  0  0
   49.4610   30.1050   48.1650 N   0  0  0  0  0  0  0  0  0  0  0  0
   46.6100   30.9840   49.2600 H   0  0  0  0  0  0  0  0  0  0  0  0
   48.5590   31.9420   50.6340 H   0  0  0  0  0  0  0  0  0  0  0  0
   51.1240   31.2350   49.7640 C   0  0  0  0  0  2  0  0  0  0  0  0
   51.0020   32.1880   50.8460 N   0  0  0  0  0  4  0  0  0  0  0  0
   49.9960   32.4320   51.0260 H   0  0  0  0  0  0  0  0  0  0  0  0
   51.5620   31.6620   52.0850 C   0  0  0  0  0  2  0  0  0  0  0  0
   51.5800   30.5490   52.1060 H   0  0  0  0  0  0  0  0  0  0  0  0
   51.7080   33.4080   50.5320 C   0  0  0  0  0  2  0  0  0  0  0  0
   51.0080   34.2110   50.1770 H   0  0  0  0  0  0  0  0  0  0  0  0
  1 13  1  0  0  0  0
  1  6  1  0  0  0  0
  2  1  2  0  0  0  0
  3  2  1  0  0  0  0
  3  4  2  0  0  0  0
  4  5  1  0  0  0  0
  5  6  2  0  0  0  0
  5  7  1  0  0  0  0
  7 12  1  0  0  0  0
  7  8  1  0  0  0  0
  8 16  1  6  0  0  0
  8  9  1  0  0  0  0
  8 24  1  0  0  0  0
  9 10  1  0  0  0  0
  9 17  1  0  0  0  0
 10 11  1  0  0  0  0
 11 20  1  0  0  0  0
 11 21  1  0  0  0  0
 12 11  1  0  0  0  0
 14  2  1  0  0  0  0
 15  3  1  0  0  0  0
 18  9  1  0  0  0  0
 19 10  1  0  0  0  0
 22 12  1  0  0  0  0
 23 12  1  0  0  0  0
 24 28  1  0  0  0  0
 24 25  2  0  0  0  0
 25 29  1  0  0  0  0
 25 26  1  0  0  0  0
 26 30  1  0  0  0  0
 27 31  1  0  0  0  0
 27 26  1  0  0  0  0
 28 27  2  0  0  0  0
 31 32  1  0  0  0  0
 32 33  1  0  0  0  0
 32 34  1  0  0  0  0
 34 35  1  0  0  0  0
 36 32  1  0  0  0  0
 37 36  1  0  0  0  0
M  END
>  <minimizedAffinity>
-4.71349192

>  <minimizedRMSD>
0.810148597

$$$$
