
 OpenBabel03252503123D

 32 34  0  0  0  0  0  0  0  0999 V2000
   45.3560   36.1650   43.3280 C   0  0  0  0  0  0  0  0  0  0  0  0
   45.9950   34.9490   43.0410 C   0  0  0  0  0  0  0  0  0  0  0  0
   45.8840   33.9720   44.0200 C   0  0  0  0  0  0  0  0  0  0  0  0
   45.2110   34.1820   45.1590 N   0  0  0  0  0  0  0  0  0  0  0  0
   44.6060   35.3790   45.3940 C   0  0  0  0  0  0  0  0  0  0  0  0
   44.6820   36.3580   44.4820 N   0  0  0  0  0  0  0  0  0  0  0  0
   45.4050   36.9790   42.5980 H   0  0  0  0  0  0  0  0  0  0  0  0
   44.0680   35.5610   46.2930 H   0  0  0  0  0  0  0  0  0  0  0  0
   46.5000   32.7290   43.8050 C   0  0  0  0  0  0  0  0  0  0  0  0
   47.7660   32.2450   43.9850 C   0  0  0  0  0  0  0  0  0  0  0  0
   48.0960   30.9920   43.6940 C   0  0  0  0  0  0  0  0  0  0  0  0
   47.1110   30.1900   43.2010 C   0  0  0  0  0  0  0  0  0  0  0  0
   45.6390   31.3110   43.1610 S   0  0  0  0  0  0  0  0  0  0  0  0
   48.4900   32.9820   44.3910 H   0  0  0  0  0  0  0  0  0  0  0  0
   49.0750   30.5440   43.8100 H   0  0  0  0  0  0  0  0  0  0  0  0
   47.1020   29.1500   42.8870 H   0  0  0  0  0  0  0  0  0  0  0  0
   46.6940   34.7890   41.8110 C   0  0  0  0  0  0  0  0  0  0  0  0
   47.8880   35.2030   41.7920 O   0  0  0  0  0  0  0  0  0  0  0  0
   46.0090   34.1590   40.6300 C   0  0  0  0  0  0  0  0  0  0  0  0
   44.6450   34.0950   40.4120 C   0  0  0  0  0  0  0  0  0  0  0  0
   44.5010   33.4480   39.2410 N   0  0  0  0  0  0  0  0  0  0  0  0
   45.7410   33.1290   38.7630 C   0  0  0  0  0  0  0  0  0  0  0  0
   46.6740   33.5700   39.6240 N   0  0  0  0  0  0  0  0  0  0  0  0
   43.8590   34.4910   41.0620 H   0  0  0  0  0  0  0  0  0  0  0  0
   43.5750   33.2460   38.8090 H   0  0  0  0  0  0  0  0  0  0  0  0
   45.8830   32.3970   37.4600 C   0  0  0  0  0  2  0  0  0  0  0  0
   45.1520   31.1600   37.4550 N   0  0  0  0  0  4  0  0  0  0  0  0
   44.6100   31.0900   38.3540 H   0  0  0  0  0  0  0  0  0  0  0  0
   44.1580   31.1760   36.3940 C   0  0  0  0  0  2  0  0  0  0  0  0
   43.3250   31.8300   36.7580 H   0  0  0  0  0  0  0  0  0  0  0  0
   45.9800   29.9790   37.4030 C   0  0  0  0  0  2  0  0  0  0  0  0
   46.6370   30.0220   38.3010 H   0  0  0  0  0  0  0  0  0  0  0  0
  1  6  1  0  0  0  0
  2  1  2  0  0  0  0
  2  3  1  0  0  0  0
  3  4  2  0  0  0  0
  4  5  1  0  0  0  0
  5  8  1  0  0  0  0
  6  5  2  0  0  0  0
  7  1  1  0  0  0  0
  9 10  2  0  0  0  0
  9  3  1  0  0  0  0
 10 14  1  0  0  0  0
 11 15  1  0  0  0  0
 11 10  1  0  0  0  0
 12 11  2  0  0  0  0
 13 12  1  0  0  0  0
 13  9  1  0  0  0  0
 16 12  1  0  0  0  0
 17  2  1  0  0  0  0
 18 17  2  0  0  0  0
 19 17  1  0  0  0  0
 20 19  2  0  0  0  0
 20 24  1  0  0  0  0
 21 20  1  0  0  0  0
 22 21  1  0  0  0  0
 22 23  2  0  0  0  0
 23 19  1  0  0  0  0
 25 21  1  0  0  0  0
 26 22  1  0  0  0  0
 27 26  1  0  0  0  0
 27 28  1  0  0  0  0
 29 30  1  0  0  0  0
 29 27  1  0  0  0  0
 31 27  1  0  0  0  0
 31 32  1  0  0  0  0
M  END
>  <minimizedAffinity>
-4.24753666

>  <minimizedRMSD>
0.397860974

$$$$
