
 OpenBabel03242520563D

 39 40  0  0  0  0  0  0  0  0999 V2000
   48.4570   31.3380   48.5470 C   0  0  0  0  0  3  0  0  0  0  0  0
   47.5630   32.3060   48.4920 C   0  0  0  0  0  3  0  0  0  0  0  0
   51.2140   32.3160   50.7390 C   0  0  0  0  0  0  0  0  0  0  0  0
   51.3360   31.1780   51.5840 C   0  0  0  0  0  0  0  0  0  0  0  0
   50.4960   30.1070   51.3810 C   0  0  0  0  0  0  0  0  0  0  0  0
   49.6090   30.2150   50.3930 N   0  0  0  0  0  0  0  0  0  0  0  0
   49.4820   31.2840   49.5930 C   0  0  0  0  0  0  0  0  0  0  0  0
   50.2870   32.3450   49.7600 N   0  0  0  0  0  0  0  0  0  0  0  0
   51.8170   33.2140   50.7990 H   0  0  0  0  0  0  0  0  0  0  0  0
   50.5650   28.9970   52.1420 O   0  0  0  0  0  0  0  0  0  0  0  0
   51.4950   27.9760   51.7480 C   0  0  0  0  0  0  0  0  0  0  0  0
   51.9570   28.2440   50.4480 F   0  0  0  0  0  0  0  0  0  0  0  0
   52.5860   28.0910   52.6060 F   0  0  0  0  0  0  0  0  0  0  0  0
   50.9910   26.6860   51.8530 F   0  0  0  0  0  0  0  0  0  0  0  0
   52.3510   31.4080   52.6310 C   0  0  0  0  0  2  0  0  0  0  0  0
   51.7180   31.3420   53.9690 N   0  0  0  0  0  4  0  0  0  0  0  0
   50.8540   30.7210   53.9290 H   0  0  0  0  0  0  0  0  0  0  0  0
   52.5970   30.7230   54.9420 C   0  0  0  0  0  2  0  0  0  0  0  0
   52.5320   31.2660   55.9250 H   0  0  0  0  0  0  0  0  0  0  0  0
   51.3520   32.6620   54.4280 C   0  0  0  0  0  2  0  0  0  0  0  0
   51.7650   32.8370   55.4620 H   0  0  0  0  0  0  0  0  0  0  0  0
   46.5430   32.3160   47.4110 C   0  0  0  0  0  0  0  0  0  0  0  0
   46.4890   31.2750   47.0690 H   0  0  0  0  0  0  0  0  0  0  0  0
   45.5330   32.5480   47.8710 H   0  0  0  0  0  0  0  0  0  0  0  0
   46.8310   32.7860   45.1350 C   0  0  0  0  0  0  0  0  0  0  0  0
   46.6570   31.6510   44.6480 O   0  0  0  0  0  0  0  0  0  0  0  0
   46.7960   33.2920   46.4310 N   0  0  0  0  0  0  0  0  0  0  0  0
   46.9530   34.2980   46.5740 H   0  0  0  0  0  0  0  0  0  0  0  0
   44.9720   35.0180   44.1960 Cl  0  0  0  0  0  0  0  0  0  0  0  0
   46.4140   34.5780   43.3220 C   0  0  0  0  0  0  0  0  0  0  0  0
   47.1070   33.5540   43.9130 C   0  0  0  0  0  0  0  0  0  0  0  0
   48.2920   33.0750   43.3430 C   0  0  0  0  0  0  0  0  0  0  0  0
   48.7740   33.6440   42.1650 C   0  0  0  0  0  0  0  0  0  0  0  0
   48.0510   34.6820   41.5880 C   0  0  0  0  0  0  0  0  0  0  0  0
   48.6140   35.4340   40.1120 Cl  0  0  0  0  0  0  0  0  0  0  0  0
   46.8930   35.1330   42.1640 C   0  0  0  0  0  0  0  0  0  0  0  0
   48.9160   32.2990   43.6920 H   0  0  0  0  0  0  0  0  0  0  0  0
   49.6790   33.3340   41.6630 H   0  0  0  0  0  0  0  0  0  0  0  0
   46.2870   35.9370   41.7610 H   0  0  0  0  0  0  0  0  0  0  0  0
  1  7  1  0  0  0  0
  2  1  2  0  0  0  0
  3  9  1  0  0  0  0
  3  4  1  0  0  0  0
  4 15  1  0  0  0  0
  5  4  2  0  0  0  0
  5 10  1  0  0  0  0
  6  5  1  0  0  0  0
  7  8  1  0  0  0  0
  7  6  2  0  0  0  0
  8  3  2  0  0  0  0
 11 14  1  0  0  0  0
 11 10  1  0  0  0  0
 11 13  1  0  0  0  0
 12 11  1  0  0  0  0
 15 16  1  0  0  0  0
 16 20  1  0  0  0  0
 16 18  1  0  0  0  0
 17 16  1  0  0  0  0
 18 19  1  0  0  0  0
 20 21  1  0  0  0  0
 22 24  1  0  0  0  0
 22  2  1  0  0  0  0
 23 22  1  0  0  0  0
 25 27  1  0  0  0  0
 26 25  2  0  0  0  0
 27 28  1  0  0  0  0
 27 22  1  0  0  0  0
 30 31  1  0  0  0  0
 30 29  1  0  0  0  0
 31 25  1  0  0  0  0
 32 37  1  0  0  0  0
 32 31  2  0  0  0  0
 33 32  1  0  0  0  0
 34 36  1  0  0  0  0
 34 33  2  0  0  0  0
 35 34  1  0  0  0  0
 36 30  2  0  0  0  0
 38 33  1  0  0  0  0
 39 36  1  0  0  0  0
M  END
>  <minimizedAffinity>
-6.46468353

>  <minimizedRMSD>
0.902822137

$$$$
