
 OpenBabel03242516043D

 34 36  0  0  0  0  0  0  0  0999 V2000
   45.3320   32.9940   41.1350 Cl  0  0  0  0  0  0  0  0  0  0  0  0
   46.7240   34.0340   41.0210 C   0  0  0  0  0  0  0  0  0  0  0  0
   47.0850   34.8730   42.0400 C   0  0  0  0  0  0  0  0  0  0  0  0
   48.1920   35.6430   41.8290 C   0  0  0  0  0  0  0  0  0  0  0  0
   48.9110   35.6000   40.6900 C   0  0  0  0  0  0  0  0  0  0  0  0
   48.5550   34.7630   39.6690 C   0  0  0  0  0  0  0  0  0  0  0  0
   47.4270   33.9600   39.8480 C   0  0  0  0  0  0  0  0  0  0  0  0
   48.5100   36.3200   42.6090 H   0  0  0  0  0  0  0  0  0  0  0  0
   49.7880   36.2210   40.5420 H   0  0  0  0  0  0  0  0  0  0  0  0
   49.1520   34.7440   38.7570 H   0  0  0  0  0  0  0  0  0  0  0  0
   44.5020   35.7790   44.6620 C   0  0  0  0  0  0  0  0  0  0  0  0
   45.2680   35.8000   43.4890 C   0  0  0  0  0  0  0  0  0  0  0  0
   46.2800   34.8780   43.2350 C   0  0  0  0  0  0  0  0  0  0  0  0
   46.4520   33.9620   44.2260 N   0  0  0  0  0  0  0  0  0  0  0  0
   45.7280   33.9340   45.3480 C   0  0  0  0  0  0  0  0  0  0  0  0
   44.7590   34.8370   45.5630 N   0  0  0  0  0  0  0  0  0  0  0  0
   43.7530   36.5500   44.7300 H   0  0  0  0  0  0  0  0  0  0  0  0
   45.1120   36.5410   42.7110 H   0  0  0  0  0  0  0  0  0  0  0  0
   45.9040   33.1800   46.1130 H   0  0  0  0  0  0  0  0  0  0  0  0
   47.0250   33.0500   38.7530 C   0  0  0  0  0  0  0  0  0  0  0  0
   47.4150   31.7090   38.7040 C   0  0  0  0  0  0  0  0  0  0  0  0
   46.6440   31.1040   37.1710 S   0  0  0  0  0  0  0  0  0  0  0  0
   45.8870   32.8310   36.8260 C   0  0  0  0  0  0  0  0  0  0  0  0
   46.2770   33.3710   37.7200 N   0  0  0  0  0  0  0  0  0  0  0  0
   45.0780   33.1820   35.7000 N   0  0  0  0  0  0  0  0  0  0  0  0
   44.1740   32.7330   35.4330 H   0  0  0  0  0  0  0  0  0  0  0  0
   45.4930   33.9770   35.1300 H   0  0  0  0  0  0  0  0  0  0  0  0
   48.2370   30.8550   39.5570 C   0  0  0  0  0  0  0  0  0  0  0  0
   49.6440   31.0720   39.3130 N   0  0  0  0  0  0  0  0  0  0  0  0
   50.0600   30.0940   39.2500 H   0  0  0  0  0  0  0  0  0  0  0  0
   50.3370   31.7240   40.3800 C   0  0  0  0  0  0  0  0  0  0  0  0
   49.7100   31.8590   41.2700 H   0  0  0  0  0  0  0  0  0  0  0  0
   49.9070   31.6790   38.0290 C   0  0  0  0  0  0  0  0  0  0  0  0
   49.1750   32.4730   37.7750 H   0  0  0  0  0  0  0  0  0  0  0  0
  2  1  1  0  0  0  0
  2  3  1  0  0  0  0
  3 13  1  0  0  0  0
  4  3  2  0  0  0  0
  4  8  1  0  0  0  0
  5  4  1  0  0  0  0
  6  7  1  0  0  0  0
  6  5  2  0  0  0  0
  7  2  2  0  0  0  0
  9  5  1  0  0  0  0
 10  6  1  0  0  0  0
 11 17  1  0  0  0  0
 11 16  1  0  0  0  0
 12 11  2  0  0  0  0
 13 12  1  0  0  0  0
 13 14  2  0  0  0  0
 14 15  1  0  0  0  0
 15 16  2  0  0  0  0
 15 19  1  0  0  0  0
 18 12  1  0  0  0  0
 20  7  1  0  0  0  0
 21 20  2  0  0  0  0
 21 28  1  0  0  0  0
 22 21  1  0  0  0  0
 23 22  1  0  0  0  0
 23 24  2  0  0  0  0
 24 20  1  0  0  0  0
 25 23  1  0  0  0  0
 26 25  1  0  0  0  0
 27 25  1  0  0  0  0
 29 28  1  0  0  0  0
 29 31  1  0  0  0  0
 30 29  1  0  0  0  0
 31 32  1  0  0  0  0
 33 29  1  0  0  0  0
 34 33  1  0  0  0  0
M  END
>  <minimizedAffinity>
-5.81944609

>  <minimizedRMSD>
0.843981624

$$$$
