
 OpenBabel03252507193D

 42 44  0  0  1  0  0  0  0  0999 V2000
   46.8100   32.9830   43.3260 C   0  0  0  0  0  0  0  0  0  0  0  0
   48.0510   32.9200   43.6140 O   0  0  0  0  0  0  0  0  0  0  0  0
   46.1750   32.0960   42.3720 N   0  0  0  0  0  0  0  0  0  0  0  0
   44.9120   31.3780   42.4360 C   0  0  0  0  0  0  0  0  0  0  0  0
   44.1100   31.6970   41.1740 C   0  0  0  0  0  0  0  0  0  0  0  0
   44.8330   31.1750   39.9580 C   0  0  0  0  0  0  0  0  0  0  0  0
   46.2540   30.8420   40.3180 C   0  0  0  0  0  0  0  0  0  0  0  0
   46.9340   31.8890   41.1320 C   0  0  1  0  0  0  0  0  0  0  0  0
   44.3260   31.8730   43.2620 H   0  0  0  0  0  0  0  0  0  0  0  0
   45.0300   30.3030   42.5730 H   0  0  0  0  0  0  0  0  0  0  0  0
   44.0900   32.8240   41.1300 H   0  0  0  0  0  0  0  0  0  0  0  0
   43.0780   31.3260   41.2560 H   0  0  0  0  0  0  0  0  0  0  0  0
   44.3410   30.1990   39.7130 H   0  0  0  0  0  0  0  0  0  0  0  0
   44.7320   31.8030   39.0750 H   0  0  0  0  0  0  0  0  0  0  0  0
   46.8140   30.6570   39.3940 H   0  0  0  0  0  0  0  0  0  0  0  0
   46.2860   29.8960   40.9180 H   0  0  0  0  0  0  0  0  0  0  0  0
   47.8880   31.4580   41.5000 H   0  0  0  0  0  0  0  0  0  0  0  0
   45.5770   35.0780   43.2360 C   0  0  0  0  0  0  0  0  0  0  0  0
   46.0050   33.9720   43.9740 C   0  0  0  0  0  0  0  0  0  0  0  0
   45.6420   33.8570   45.3030 C   0  0  0  0  0  0  0  0  0  0  0  0
   44.8780   34.8330   45.8410 N   0  0  0  0  0  0  0  0  0  0  0  0
   44.4590   35.9120   45.1280 C   0  0  0  0  0  0  0  0  0  0  0  0
   44.8170   36.0160   43.8340 N   0  0  0  0  0  0  0  0  0  0  0  0
   45.8090   35.2450   42.2120 H   0  0  0  0  0  0  0  0  0  0  0  0
   43.8480   36.6660   45.6110 H   0  0  0  0  0  0  0  0  0  0  0  0
   46.0960   32.7080   46.0600 C   0  0  0  0  0  0  0  0  0  0  0  0
   45.5200   31.4890   45.8640 C   0  0  0  0  0  0  0  0  0  0  0  0
   45.9630   30.4070   46.5910 C   0  0  0  0  0  0  0  0  0  0  0  0
   46.9880   30.5050   47.5300 C   0  0  0  0  0  0  0  0  0  0  0  0
   47.5340   31.7670   47.6840 C   0  0  0  0  0  0  0  0  0  0  0  0
   47.0780   32.7980   46.9600 N   0  0  0  0  0  0  0  0  0  0  0  0
   44.7210   31.2530   45.1840 H   0  0  0  0  0  0  0  0  0  0  0  0
   45.5450   29.4110   46.4820 H   0  0  0  0  0  0  0  0  0  0  0  0
   47.3170   29.6410   48.0870 H   0  0  0  0  0  0  0  0  0  0  0  0
   48.3240   31.8840   48.3970 H   0  0  0  0  0  0  0  0  0  0  0  0
   47.2390   33.1710   40.4430 C   0  0  0  0  0  2  0  0  0  0  0  0
   48.0240   32.9250   39.2610 N   0  0  0  0  0  4  0  0  0  0  0  0
   47.5390   32.2260   38.6620 H   0  0  0  0  0  0  0  0  0  0  0  0
   49.3420   32.4410   39.5510 C   0  0  0  0  0  2  0  0  0  0  0  0
   49.8270   32.2750   38.5490 H   0  0  0  0  0  0  0  0  0  0  0  0
   48.1870   34.1350   38.4620 C   0  0  0  0  0  2  0  0  0  0  0  0
   49.0630   33.9560   37.8040 H   0  0  0  0  0  0  0  0  0  0  0  0
  1  2  2  0  0  0  0
  1 19  1  0  0  0  0
  3  4  1  0  0  0  0
  3  1  1  0  0  0  0
  4 10  1  0  0  0  0
  4  9  1  0  0  0  0
  5 12  1  0  0  0  0
  5  4  1  0  0  0  0
  6  7  1  0  0  0  0
  6  5  1  0  0  0  0
  7 16  1  0  0  0  0
  7  8  1  0  0  0  0
  8 17  1  1  0  0  0
  8  3  1  0  0  0  0
 11  5  1  0  0  0  0
 13  6  1  0  0  0  0
 14  6  1  0  0  0  0
 15  7  1  0  0  0  0
 18 23  2  0  0  0  0
 18 19  1  0  0  0  0
 19 20  2  0  0  0  0
 20 21  1  0  0  0  0
 20 26  1  0  0  0  0
 22 25  1  0  0  0  0
 22 21  2  0  0  0  0
 23 22  1  0  0  0  0
 24 18  1  0  0  0  0
 26 31  1  0  0  0  0
 27 26  2  0  0  0  0
 27 28  1  0  0  0  0
 28 29  2  0  0  0  0
 29 30  1  0  0  0  0
 29 34  1  0  0  0  0
 30 35  1  0  0  0  0
 31 30  2  0  0  0  0
 32 27  1  0  0  0  0
 33 28  1  0  0  0  0
 36  8  1  0  0  0  0
 37 39  1  0  0  0  0
 37 36  1  0  0  0  0
 38 37  1  0  0  0  0
 40 39  1  0  0  0  0
 41 37  1  0  0  0  0
 42 41  1  0  0  0  0
M  END
>  <minimizedAffinity>
-4.48678827

>  <minimizedRMSD>
1.69942951

$$$$
