
 OpenBabel03252500243D

 35 36  0  0  1  0  0  0  0  0999 V2000
   47.0150   30.5530   48.2510 C   0  0  2  0  0  0  0  0  0  0  0  0
   45.5610   30.7870   48.4050 C   0  0  2  0  0  0  0  0  0  0  0  0
   44.9440   29.8680   47.4160 C   0  0  0  0  0  0  0  0  0  0  0  0
   45.7820   28.7800   47.2740 O   0  0  0  0  0  0  0  0  0  0  0  0
   46.9460   29.0370   47.9220 C   0  0  0  0  0  0  0  0  0  0  0  0
   47.6230   30.9030   47.4690 H   0  0  0  0  0  0  0  0  0  0  0  0
   45.3290   30.4290   49.4460 H   0  0  0  0  0  0  0  0  0  0  0  0
   44.0270   29.4180   47.9080 H   0  0  0  0  0  0  0  0  0  0  0  0
   44.5240   30.2920   46.5040 H   0  0  0  0  0  0  0  0  0  0  0  0
   46.9440   28.5700   48.9470 H   0  0  0  0  0  0  0  0  0  0  0  0
   47.8330   28.6800   47.4060 H   0  0  0  0  0  0  0  0  0  0  0  0
   45.1960   32.1000   48.2140 O   0  0  0  0  0  0  0  0  0  0  0  0
   47.2230   32.9220   46.8630 O   0  0  0  0  0  0  0  0  0  0  0  0
   45.7490   32.6450   46.7460 P   0  0  1  0  0  0  0  0  0  0  0  0
   45.5180   31.4420   45.5750 O   0  0  0  0  0  0  0  0  0  0  0  0
   44.8520   31.7080   44.9180 H   0  0  0  0  0  0  0  0  0  0  0  0
   45.0150   34.1170   46.2760 O   0  0  0  0  0  0  0  0  0  0  0  0
   44.9740   36.3830   43.5100 C   0  0  0  0  0  0  0  0  0  0  0  0
   45.0200   35.5370   42.3670 C   0  0  0  0  0  0  0  0  0  0  0  0
   45.0670   34.1530   42.6040 C   0  0  0  0  0  0  0  0  0  0  0  0
   45.0650   33.7170   43.8790 N   0  0  0  0  0  0  0  0  0  0  0  0
   45.0190   34.5510   44.9400 C   0  0  0  0  0  0  0  0  0  0  0  0
   44.9740   35.8830   44.7460 N   0  0  0  0  0  0  0  0  0  0  0  0
   45.0210   35.9190   41.3600 H   0  0  0  0  0  0  0  0  0  0  0  0
   45.1040   33.4390   41.7880 H   0  0  0  0  0  0  0  0  0  0  0  0
   44.9300   37.7330   43.2770 O   0  0  0  0  0  0  0  0  0  0  0  0
   45.7090   38.1990   42.8540 H   0  0  0  0  0  0  0  0  0  0  0  0
   47.7660   30.7770   49.3660 O   0  0  0  0  0  0  0  0  0  0  0  0
   49.0210   31.1660   49.3830 C   0  0  0  0  0  0  0  0  0  0  0  0
   49.6710   30.9300   50.6900 N   0  0  0  0  0  0  0  0  0  0  0  0
   49.0110   31.0060   51.4680 H   0  0  0  0  0  0  0  0  0  0  0  0
   50.2010   29.5550   50.7140 C   0  0  0  0  0  0  0  0  0  0  0  0
   49.5270   28.9810   50.0150 H   0  0  0  0  0  0  0  0  0  0  0  0
   50.8110   31.7840   50.8930 C   0  0  0  0  0  0  0  0  0  0  0  0
   50.5920   32.7590   51.3270 H   0  0  0  0  0  0  0  0  0  0  0  0
  1  6  1  6  0  0  0
  1  2  1  0  0  0  0
  1 28  1  0  0  0  0
  2  7  1  1  0  0  0
  3  8  1  0  0  0  0
  3  2  1  0  0  0  0
  4  3  1  0  0  0  0
  4  5  1  0  0  0  0
  5  1  1  0  0  0  0
  5 10  1  0  0  0  0
  9  3  1  0  0  0  0
 11  5  1  0  0  0  0
 12  2  1  0  0  0  0
 14 13  2  1  0  0  0
 14 12  1  0  0  0  0
 15 14  1  0  0  0  0
 16 15  1  0  0  0  0
 17 14  1  0  0  0  0
 18 23  1  0  0  0  0
 19 20  1  0  0  0  0
 19 18  2  0  0  0  0
 20 21  2  0  0  0  0
 21 22  1  0  0  0  0
 22 17  1  0  0  0  0
 23 22  2  0  0  0  0
 24 19  1  0  0  0  0
 25 20  1  0  0  0  0
 26 18  1  0  0  0  0
 27 26  1  0  0  0  0
 28 29  1  0  0  0  0
 29 30  1  0  0  0  0
 30 32  1  0  0  0  0
 30 34  1  0  0  0  0
 30 31  1  0  0  0  0
 33 32  1  0  0  0  0
 34 35  1  0  0  0  0
M  END
>  <minimizedAffinity>
-5.20354128

>  <minimizedRMSD>
1.21916556

$$$$
