
 OpenBabel03252506173D

 21 21  0  0  0  0  0  0  0  0999 V2000
   44.8140   35.7310   43.6280 C   0  0  0  0  0  0  0  0  0  0  0  0
   44.2220   35.6100   42.3540 C   0  0  0  0  0  0  0  0  0  0  0  0
   44.1510   34.3330   41.7930 C   0  0  0  0  0  0  0  0  0  0  0  0
   44.6470   33.2850   42.4920 N   0  0  0  0  0  0  0  0  0  0  0  0
   45.2090   33.4330   43.7110 C   0  0  0  0  0  0  0  0  0  0  0  0
   45.2820   34.6480   44.2550 N   0  0  0  0  0  0  0  0  0  0  0  0
   43.8660   36.5000   41.8970 H   0  0  0  0  0  0  0  0  0  0  0  0
   43.6980   34.2330   40.8160 H   0  0  0  0  0  0  0  0  0  0  0  0
   44.8980   37.0600   44.2330 C   0  0  0  0  0  3  0  0  0  0  0  0
   45.3290   38.0680   43.4970 C   0  0  0  0  0  3  0  0  0  0  0  0
   45.4460   39.4450   44.0300 C   0  0  0  0  0  0  0  0  0  0  0  0
   46.4010   39.5930   44.5610 H   0  0  0  0  0  0  0  0  0  0  0  0
   44.5930   39.6780   44.7050 H   0  0  0  0  0  0  0  0  0  0  0  0
   45.4090   40.1750   43.1940 H   0  0  0  0  0  0  0  0  0  0  0  0
   45.6900   32.1850   44.3120 C   0  0  0  0  0  2  0  0  0  0  0  0
   47.1000   32.2010   44.6590 N   0  0  0  0  0  4  0  0  0  0  0  0
   47.3590   33.1030   45.1330 H   0  0  0  0  0  0  0  0  0  0  0  0
   47.3000   31.0760   45.5540 C   0  0  0  0  0  2  0  0  0  0  0  0
   46.7360   30.2140   45.1050 H   0  0  0  0  0  0  0  0  0  0  0  0
   47.9540   32.0340   43.5220 C   0  0  0  0  0  2  0  0  0  0  0  0
   47.4570   31.5380   42.6730 H   0  0  0  0  0  0  0  0  0  0  0  0
  1  9  1  0  0  0  0
  1  6  1  0  0  0  0
  2  1  2  0  0  0  0
  3  2  1  0  0  0  0
  3  4  2  0  0  0  0
  4  5  1  0  0  0  0
  5  6  2  0  0  0  0
  5 15  1  0  0  0  0
  7  2  1  0  0  0  0
  8  3  1  0  0  0  0
 10 11  1  0  0  0  0
 10  9  2  0  0  0  0
 11 12  1  0  0  0  0
 11 13  1  0  0  0  0
 14 11  1  0  0  0  0
 15 16  1  0  0  0  0
 16 17  1  0  0  0  0
 16 18  1  0  0  0  0
 19 18  1  0  0  0  0
 20 16  1  0  0  0  0
 21 20  1  0  0  0  0
M  END
>  <minimizedAffinity>
-2.84213352

>  <minimizedRMSD>
0.555449665

$$$$
