
 OpenBabel03242520413D

 37 39  0  0  1  0  0  0  0  0999 V2000
   45.8580   33.4790   45.7800 C   0  0  0  0  0  0  0  0  0  0  0  0
   46.6620   33.6300   44.6300 C   0  0  0  0  0  0  0  0  0  0  0  0
   47.3340   32.4750   44.1290 C   0  0  0  0  0  0  0  0  0  0  0  0
   47.1690   31.2840   44.7820 N   0  0  0  0  0  0  0  0  0  0  0  0
   46.3870   31.2010   45.8800 C   0  0  0  0  0  0  0  0  0  0  0  0
   45.7420   32.2890   46.3670 N   0  0  0  0  0  0  0  0  0  0  0  0
   46.2830   29.9390   46.4790 N   0  0  0  0  0  0  0  0  0  0  0  0
   47.4390   29.2640   46.9690 C   0  0  2  0  0  0  0  0  0  0  0  0
   47.2180   27.8400   47.3380 C   0  0  0  0  0  0  0  0  0  0  0  0
   45.9280   27.4780   47.7910 N   0  0  0  0  0  0  0  0  0  0  0  0
   45.0160   28.5660   47.9090 C   0  0  0  0  0  0  0  0  0  0  0  0
   44.9790   29.3110   46.6020 C   0  0  0  0  0  0  0  0  0  0  0  0
   45.3890   34.3880   46.0930 H   0  0  0  0  0  0  0  0  0  0  0  0
   46.8590   34.4980   44.0490 H   0  0  0  0  0  0  0  0  0  0  0  0
   47.9650   32.5090   43.2550 H   0  0  0  0  0  0  0  0  0  0  0  0
   48.1520   29.2160   46.0900 H   0  0  0  0  0  0  0  0  0  0  0  0
   47.9350   27.6090   48.1790 H   0  0  0  0  0  0  0  0  0  0  0  0
   47.5070   27.1340   46.5330 H   0  0  0  0  0  0  0  0  0  0  0  0
   45.4800   26.7300   47.2000 H   0  0  0  0  0  0  0  0  0  0  0  0
   43.9920   28.0960   47.9960 H   0  0  0  0  0  0  0  0  0  0  0  0
   45.1120   29.1870   48.8010 H   0  0  0  0  0  0  0  0  0  0  0  0
   44.1630   30.0880   46.5980 H   0  0  0  0  0  0  0  0  0  0  0  0
   44.7940   28.5780   45.8040 H   0  0  0  0  0  0  0  0  0  0  0  0
   48.1210   30.0400   48.0350 C   0  0  0  0  0  0  0  0  0  0  0  0
   47.6460   30.8180   49.0740 C   0  0  0  0  0  0  0  0  0  0  0  0
   48.6550   31.3240   49.8040 N   0  0  0  0  0  0  0  0  0  0  0  0
   49.7750   30.8670   49.2290 C   0  0  0  0  0  0  0  0  0  0  0  0
   49.4560   30.1070   48.1800 N   0  0  0  0  0  0  0  0  0  0  0  0
   46.5970   30.9840   49.2560 H   0  0  0  0  0  0  0  0  0  0  0  0
   48.5360   31.9440   50.6430 H   0  0  0  0  0  0  0  0  0  0  0  0
   51.1070   31.2400   49.7900 C   0  0  0  0  0  2  0  0  0  0  0  0
   50.9730   31.9450   51.0470 N   0  0  0  0  0  4  0  0  0  0  0  0
   49.9620   32.0710   51.3050 H   0  0  0  0  0  0  0  0  0  0  0  0
   51.6220   31.2230   52.1340 C   0  0  0  0  0  2  0  0  0  0  0  0
   51.7150   30.1310   51.9270 H   0  0  0  0  0  0  0  0  0  0  0  0
   51.5810   33.2510   50.9650 C   0  0  0  0  0  2  0  0  0  0  0  0
   50.8150   34.0550   50.8040 H   0  0  0  0  0  0  0  0  0  0  0  0
  1 13  1  0  0  0  0
  1  6  1  0  0  0  0
  2  1  2  0  0  0  0
  3  2  1  0  0  0  0
  3  4  2  0  0  0  0
  4  5  1  0  0  0  0
  5  6  2  0  0  0  0
  5  7  1  0  0  0  0
  7 12  1  0  0  0  0
  7  8  1  0  0  0  0
  8 16  1  6  0  0  0
  8  9  1  0  0  0  0
  8 24  1  0  0  0  0
  9 10  1  0  0  0  0
  9 17  1  0  0  0  0
 10 11  1  0  0  0  0
 11 20  1  0  0  0  0
 11 21  1  0  0  0  0
 12 11  1  0  0  0  0
 14  2  1  0  0  0  0
 15  3  1  0  0  0  0
 18  9  1  0  0  0  0
 19 10  1  0  0  0  0
 22 12  1  0  0  0  0
 23 12  1  0  0  0  0
 24 28  1  0  0  0  0
 24 25  2  0  0  0  0
 25 29  1  0  0  0  0
 25 26  1  0  0  0  0
 26 30  1  0  0  0  0
 27 31  1  0  0  0  0
 27 26  1  0  0  0  0
 28 27  2  0  0  0  0
 31 32  1  0  0  0  0
 32 33  1  0  0  0  0
 32 34  1  0  0  0  0
 35 34  1  0  0  0  0
 36 32  1  0  0  0  0
 37 36  1  0  0  0  0
M  END
>  <minimizedAffinity>
-4.67355776

>  <minimizedRMSD>
0.375357658

$$$$
