
 OpenBabel03252501053D

 38 40  0  0  1  0  0  0  0  0999 V2000
   48.6020   32.3480   38.0630 O   0  0  0  0  0  0  0  0  0  0  0  0
   48.1070   33.7820   38.2440 P   0  0  2  0  0  0  0  0  0  0  0  0
   49.3140   34.7600   37.5650 O   0  0  0  0  0  0  0  0  0  0  0  0
   48.9630   35.6910   37.5690 H   0  0  0  0  0  0  0  0  0  0  0  0
   47.7430   34.1220   39.8020 O   0  0  0  0  0  0  0  0  0  0  0  0
   48.0700   35.4570   41.7940 C   0  0  1  0  0  0  0  0  0  0  0  0
   49.3050   34.6710   41.6770 C   0  0  0  0  0  0  0  0  0  0  0  0
   48.4660   35.0600   40.4460 C   0  0  1  0  0  0  0  0  0  0  0  0
   48.1400   36.5090   42.1090 H   0  0  0  0  0  0  0  0  0  0  0  0
   49.3380   33.5630   41.8590 H   0  0  0  0  0  0  0  0  0  0  0  0
   50.3060   35.1260   41.7830 H   0  0  0  0  0  0  0  0  0  0  0  0
   49.0140   35.7700   39.7990 H   0  0  0  0  0  0  0  0  0  0  0  0
   46.0430   32.9560   43.7930 C   0  0  0  0  0  0  0  0  0  0  0  0
   47.1340   33.6380   43.2630 C   0  0  0  0  0  0  0  0  0  0  0  0
   46.9050   34.7170   42.3890 C   0  0  0  0  0  0  0  0  0  0  0  0
   45.6260   35.0590   42.0900 N   0  0  0  0  0  0  0  0  0  0  0  0
   44.5780   34.3810   42.6170 C   0  0  0  0  0  0  0  0  0  0  0  0
   44.7830   33.3350   43.4650 N   0  0  0  0  0  0  0  0  0  0  0  0
   46.2280   32.1280   44.4640 H   0  0  0  0  0  0  0  0  0  0  0  0
   48.1200   33.3260   43.5310 H   0  0  0  0  0  0  0  0  0  0  0  0
   43.5900   34.7290   42.3190 H   0  0  0  0  0  0  0  0  0  0  0  0
   46.7510   33.9030   37.2620 O   0  0  0  0  0  0  0  0  0  0  0  0
   45.6730   33.0330   37.3220 C   0  0  0  0  0  0  0  0  0  0  0  0
   45.3710   31.9850   36.4720 C   0  0  0  0  0  0  0  0  0  0  0  0
   44.2640   31.2210   36.6730 C   0  0  0  0  0  0  0  0  0  0  0  0
   43.4070   31.4640   37.7250 C   0  0  0  0  0  0  0  0  0  0  0  0
   43.7450   32.5320   38.5630 C   0  0  0  0  0  0  0  0  0  0  0  0
   44.8580   33.2900   38.3510 N   0  0  0  0  0  0  0  0  0  0  0  0
   46.0850   31.8500   35.6670 H   0  0  0  0  0  0  0  0  0  0  0  0
   44.0880   30.4180   35.9700 H   0  0  0  0  0  0  0  0  0  0  0  0
   42.5390   30.8710   37.8880 H   0  0  0  0  0  0  0  0  0  0  0  0
   42.8250   32.7970   39.6990 C   0  0  0  0  0  2  0  0  0  0  0  0
   41.7770   33.7290   39.4210 N   0  0  0  0  0  4  0  0  0  0  0  0
   41.4260   33.6880   38.4380 H   0  0  0  0  0  0  0  0  0  0  0  0
   40.6310   33.3630   40.2400 C   0  0  0  0  0  2  0  0  0  0  0  0
   40.9570   32.7020   41.0870 H   0  0  0  0  0  0  0  0  0  0  0  0
   42.1380   35.0790   39.8140 C   0  0  0  0  0  2  0  0  0  0  0  0
   42.0080   35.1450   40.9300 H   0  0  0  0  0  0  0  0  0  0  0  0
  2  1  2  6  0  0  0
  2  5  1  0  0  0  0
  3  4  1  0  0  0  0
  3  2  1  0  0  0  0
  5  8  1  0  0  0  0
  6  9  1  1  0  0  0
  6 15  1  0  0  0  0
  7 11  1  0  0  0  0
  7  6  1  0  0  0  0
  7 10  1  0  0  0  0
  8 12  1  6  0  0  0
  8  7  1  0  0  0  0
  8  6  1  0  0  0  0
 13 19  1  0  0  0  0
 14 20  1  0  0  0  0
 14 13  2  0  0  0  0
 15 14  1  0  0  0  0
 16 15  2  0  0  0  0
 16 17  1  0  0  0  0
 17 18  2  0  0  0  0
 18 13  1  0  0  0  0
 21 17  1  0  0  0  0
 22 23  1  0  0  0  0
 22  2  1  0  0  0  0
 23 28  1  0  0  0  0
 24 25  1  0  0  0  0
 24 23  2  0  0  0  0
 25 26  2  0  0  0  0
 26 31  1  0  0  0  0
 26 27  1  0  0  0  0
 27 32  1  0  0  0  0
 28 27  2  0  0  0  0
 29 24  1  0  0  0  0
 30 25  1  0  0  0  0
 33 32  1  0  0  0  0
 33 37  1  0  0  0  0
 33 35  1  0  0  0  0
 34 33  1  0  0  0  0
 35 36  1  0  0  0  0
 37 38  1  0  0  0  0
M  END
>  <minimizedAffinity>
-4.56535435

>  <minimizedRMSD>
0.639330626

$$$$
