
 OpenBabel03242514403D

 40 42  0  0  0  0  0  0  0  0999 V2000
   37.3500   31.8900   39.4860 O   0  0  0  0  0  0  0  0  0  0  0  0
   37.8010   33.1390   39.6550 C   0  0  0  0  0  0  0  0  0  0  0  0
   36.9090   34.0180   39.3290 O   0  0  0  0  0  0  0  0  0  0  0  0
   38.9830   33.9190   40.0910 C   0  0  0  0  0  0  0  0  0  0  0  0
   39.0430   35.3130   40.2890 C   0  0  0  0  0  0  0  0  0  0  0  0
   40.2730   35.7750   40.6950 C   0  0  0  0  0  0  0  0  0  0  0  0
   41.3100   34.9580   40.8820 C   0  0  0  0  0  0  0  0  0  0  0  0
   40.5720   33.2680   40.4550 S   0  0  0  0  0  0  0  0  0  0  0  0
   38.2000   35.9660   40.1350 H   0  0  0  0  0  0  0  0  0  0  0  0
   40.5110   36.8110   40.8960 H   0  0  0  0  0  0  0  0  0  0  0  0
   42.6930   35.0520   41.2830 C   0  0  0  0  0  0  0  0  0  0  0  0
   43.0780   35.9020   42.3080 C   0  0  0  0  0  0  0  0  0  0  0  0
   44.4390   35.8860   42.5780 C   0  0  0  0  0  0  0  0  0  0  0  0
   45.2710   35.0750   41.8570 C   0  0  0  0  0  0  0  0  0  0  0  0
   44.8530   34.2450   40.8480 C   0  0  0  0  0  0  0  0  0  0  0  0
   43.5130   34.2690   40.5890 N   0  0  0  0  0  0  0  0  0  0  0  0
   42.3580   36.5100   42.8290 H   0  0  0  0  0  0  0  0  0  0  0  0
   44.8120   36.5280   43.3700 H   0  0  0  0  0  0  0  0  0  0  0  0
   46.3350   35.0580   42.0630 H   0  0  0  0  0  0  0  0  0  0  0  0
   45.5130   33.6040   40.2780 H   0  0  0  0  0  0  0  0  0  0  0  0
   37.0610   29.3870   40.0330 O   0  0  0  0  0  0  0  0  0  0  0  0
   37.0590   30.7540   40.6740 P   0  0  2  0  0  0  0  0  0  0  0  0
   35.5490   31.0240   41.3130 O   0  0  0  0  0  0  0  0  0  0  0  0
   35.0120   30.1970   41.4540 H   0  0  0  0  0  0  0  0  0  0  0  0
   38.2780   30.8550   41.8820 O   0  0  0  0  0  0  0  0  0  0  0  0
   40.1910   29.4570   42.0850 C   0  0  0  0  0  0  0  0  0  0  0  0
   38.8690   29.7090   42.4030 C   0  0  0  0  0  0  0  0  0  0  0  0
   38.2090   28.8000   43.2250 C   0  0  0  0  0  0  0  0  0  0  0  0
   38.8870   27.7130   43.6760 N   0  0  0  0  0  0  0  0  0  0  0  0
   40.1730   27.5010   43.3470 C   0  0  0  0  0  0  0  0  0  0  0  0
   40.8220   28.3640   42.5590 N   0  0  0  0  0  0  0  0  0  0  0  0
   40.8160   30.0800   41.4600 H   0  0  0  0  0  0  0  0  0  0  0  0
   37.1780   28.9930   43.4750 H   0  0  0  0  0  0  0  0  0  0  0  0
   40.9030   26.2960   43.8540 C   0  0  0  0  0  2  0  0  0  0  0  0
   42.3140   26.5840   43.9660 N   0  0  0  0  0  4  0  0  0  0  0  0
   42.5790   27.4320   43.3840 H   0  0  0  0  0  0  0  0  0  0  0  0
   42.6530   26.9150   45.3250 C   0  0  0  0  0  2  0  0  0  0  0  0
   41.9370   27.6470   45.7340 H   0  0  0  0  0  0  0  0  0  0  0  0
   43.0910   25.4620   43.4930 C   0  0  0  0  0  2  0  0  0  0  0  0
   44.1660   25.7030   43.5210 H   0  0  0  0  0  0  0  0  0  0  0  0
  1  2  1  0  0  0  0
  1 22  1  0  0  0  0
  2  4  1  0  0  0  0
  3  2  2  0  0  0  0
  4  5  2  0  0  0  0
  4  8  1  0  0  0  0
  5  6  1  0  0  0  0
  6  7  2  0  0  0  0
  6 10  1  0  0  0  0
  7 11  1  0  0  0  0
  8  7  1  0  0  0  0
  9  5  1  0  0  0  0
 11 12  1  0  0  0  0
 12 13  2  0  0  0  0
 12 17  1  0  0  0  0
 13 18  1  0  0  0  0
 14 19  1  0  0  0  0
 14 13  1  0  0  0  0
 15 14  2  0  0  0  0
 16 15  1  0  0  0  0
 16 11  2  0  0  0  0
 20 15  1  0  0  0  0
 22 21  2  6  0  0  0
 22 23  1  0  0  0  0
 22 25  1  0  0  0  0
 23 24  1  0  0  0  0
 25 27  1  0  0  0  0
 26 27  2  0  0  0  0
 26 31  1  0  0  0  0
 27 28  1  0  0  0  0
 28 33  1  0  0  0  0
 28 29  2  0  0  0  0
 30 29  1  0  0  0  0
 30 34  1  0  0  0  0
 31 30  2  0  0  0  0
 32 26  1  0  0  0  0
 34 35  1  0  0  0  0
 35 37  1  0  0  0  0
 36 35  1  0  0  0  0
 37 38  1  0  0  0  0
 39 40  1  0  0  0  0
 39 35  1  0  0  0  0
M  END
>  <minimizedAffinity>
-6.39703083

$$$$

 OpenBabel03242514403D

 40 42  0  0  0  0  0  0  0  0999 V2000
   39.5960   32.7720   41.2660 O   0  0  0  0  0  0  0  0  0  0  0  0
   39.7910   31.4570   41.1130 C   0  0  0  0  0  0  0  0  0  0  0  0
   40.7580   31.2090   40.2900 O   0  0  0  0  0  0  0  0  0  0  0  0
   39.2940   30.1310   41.5510 C   0  0  0  0  0  0  0  0  0  0  0  0
   38.7150   29.8210   42.7970 C   0  0  0  0  0  0  0  0  0  0  0  0
   38.3420   28.5050   42.9370 C   0  0  0  0  0  0  0  0  0  0  0  0
   38.5200   27.6110   41.9640 C   0  0  0  0  0  0  0  0  0  0  0  0
   39.3220   28.6540   40.6040 S   0  0  0  0  0  0  0  0  0  0  0  0
   38.5740   30.5500   43.5790 H   0  0  0  0  0  0  0  0  0  0  0  0
   37.8830   28.0810   43.8200 H   0  0  0  0  0  0  0  0  0  0  0  0
   38.2760   26.2080   41.7370 C   0  0  0  0  0  0  0  0  0  0  0  0
   37.1720   25.5800   42.2930 C   0  0  0  0  0  0  0  0  0  0  0  0
   37.0720   24.2300   41.9890 C   0  0  0  0  0  0  0  0  0  0  0  0
   38.0170   23.6340   41.2000 C   0  0  0  0  0  0  0  0  0  0  0  0
   39.0980   24.2880   40.6660 C   0  0  0  0  0  0  0  0  0  0  0  0
   39.1870   25.6160   40.9720 N   0  0  0  0  0  0  0  0  0  0  0  0
   36.4720   26.1230   42.9060 H   0  0  0  0  0  0  0  0  0  0  0  0
   36.2300   23.6750   42.3910 H   0  0  0  0  0  0  0  0  0  0  0  0
   37.9440   22.5800   40.9580 H   0  0  0  0  0  0  0  0  0  0  0  0
   39.8440   23.8140   40.0420 H   0  0  0  0  0  0  0  0  0  0  0  0
   38.4380   34.9700   40.5780 O   0  0  0  0  0  0  0  0  0  0  0  0
   39.3760   33.9060   40.0620 P   0  0  2  0  0  0  0  0  0  0  0  0
   38.6550   33.1690   38.7590 O   0  0  0  0  0  0  0  0  0  0  0  0
   37.9220   33.7000   38.3440 H   0  0  0  0  0  0  0  0  0  0  0  0
   40.8920   34.5950   39.6320 O   0  0  0  0  0  0  0  0  0  0  0  0
   42.9590   34.2870   40.7650 C   0  0  0  0  0  0  0  0  0  0  0  0
   41.7930   35.0110   40.6070 C   0  0  0  0  0  0  0  0  0  0  0  0
   41.5900   36.1150   41.4320 C   0  0  0  0  0  0  0  0  0  0  0  0
   42.5390   36.4280   42.3500 N   0  0  0  0  0  0  0  0  0  0  0  0
   43.6630   35.7000   42.4760 C   0  0  0  0  0  0  0  0  0  0  0  0
   43.8730   34.6390   41.6920 N   0  0  0  0  0  0  0  0  0  0  0  0
   43.2390   33.4140   40.1930 H   0  0  0  0  0  0  0  0  0  0  0  0
   40.6810   36.6810   41.3110 H   0  0  0  0  0  0  0  0  0  0  0  0
   44.6970   36.0620   43.4950 C   0  0  0  0  0  2  0  0  0  0  0  0
   44.4820   35.3090   44.7090 N   0  0  0  0  0  4  0  0  0  0  0  0
   43.5790   34.7510   44.6570 H   0  0  0  0  0  0  0  0  0  0  0  0
   45.5330   34.3450   44.8950 C   0  0  0  0  0  2  0  0  0  0  0  0
   45.7170   33.7880   43.9610 H   0  0  0  0  0  0  0  0  0  0  0  0
   44.3860   36.2010   45.8400 C   0  0  0  0  0  2  0  0  0  0  0  0
   44.1610   35.6330   46.7570 H   0  0  0  0  0  0  0  0  0  0  0  0
  2  1  1  0  0  0  0
  2  4  1  0  0  0  0
  3  2  2  0  0  0  0
  4  5  2  0  0  0  0
  5  6  1  0  0  0  0
  5  9  1  0  0  0  0
  6 10  1  0  0  0  0
  7  6  2  0  0  0  0
  8  4  1  0  0  0  0
  8  7  1  0  0  0  0
 11  7  1  0  0  0  0
 11 12  1  0  0  0  0
 12 17  1  0  0  0  0
 13 12  2  0  0  0  0
 13 18  1  0  0  0  0
 14 13  1  0  0  0  0
 15 16  1  0  0  0  0
 15 14  2  0  0  0  0
 16 11  2  0  0  0  0
 19 14  1  0  0  0  0
 20 15  1  0  0  0  0
 22 21  2  1  0  0  0
 22  1  1  0  0  0  0
 23 22  1  0  0  0  0
 24 23  1  0  0  0  0
 25 22  1  0  0  0  0
 25 27  1  0  0  0  0
 26 31  1  0  0  0  0
 27 26  2  0  0  0  0
 27 28  1  0  0  0  0
 28 29  2  0  0  0  0
 29 30  1  0  0  0  0
 30 34  1  0  0  0  0
 31 30  2  0  0  0  0
 32 26  1  0  0  0  0
 33 28  1  0  0  0  0
 34 35  1  0  0  0  0
 35 37  1  0  0  0  0
 35 39  1  0  0  0  0
 36 35  1  0  0  0  0
 38 37  1  0  0  0  0
 39 40  1  0  0  0  0
M  END
>  <minimizedAffinity>
-6.25323582

$$$$

 OpenBabel03242514403D

 40 42  0  0  0  0  0  0  0  0999 V2000
   37.3680   32.4890   40.0210 O   0  0  0  0  0  0  0  0  0  0  0  0
   38.6200   32.8870   39.7630 C   0  0  0  0  0  0  0  0  0  0  0  0
   39.1070   32.2900   38.7230 O   0  0  0  0  0  0  0  0  0  0  0  0
   39.6950   33.7870   40.2410 C   0  0  0  0  0  0  0  0  0  0  0  0
   39.6500   35.1950   40.2950 C   0  0  0  0  0  0  0  0  0  0  0  0
   40.7930   35.7810   40.7840 C   0  0  0  0  0  0  0  0  0  0  0  0
   41.8480   35.0620   41.1710 C   0  0  0  0  0  0  0  0  0  0  0  0
   41.2650   33.2900   40.8470 S   0  0  0  0  0  0  0  0  0  0  0  0
   38.7930   35.7690   39.9790 H   0  0  0  0  0  0  0  0  0  0  0  0
   40.9440   36.8460   40.8980 H   0  0  0  0  0  0  0  0  0  0  0  0
   43.1650   35.2920   41.7110 C   0  0  0  0  0  0  0  0  0  0  0  0
   43.3520   36.1470   42.7870 C   0  0  0  0  0  0  0  0  0  0  0  0
   44.6730   36.2700   43.1920 C   0  0  0  0  0  0  0  0  0  0  0  0
   45.6570   35.5780   42.5410 C   0  0  0  0  0  0  0  0  0  0  0  0
   45.4340   34.7400   41.4780 C   0  0  0  0  0  0  0  0  0  0  0  0
   44.1310   34.6260   41.0870 N   0  0  0  0  0  0  0  0  0  0  0  0
   42.5210   36.6560   43.2450 H   0  0  0  0  0  0  0  0  0  0  0  0
   44.8930   36.9230   44.0310 H   0  0  0  0  0  0  0  0  0  0  0  0
   46.6910   35.6700   42.8540 H   0  0  0  0  0  0  0  0  0  0  0  0
   46.2140   34.1930   40.9650 H   0  0  0  0  0  0  0  0  0  0  0  0
   36.3860   30.2810   39.1250 O   0  0  0  0  0  0  0  0  0  0  0  0
   36.8570   30.9450   40.3950 P   0  0  2  0  0  0  0  0  0  0  0  0
   35.5660   31.0470   41.4360 O   0  0  0  0  0  0  0  0  0  0  0  0
   34.8190   30.4240   41.2220 H   0  0  0  0  0  0  0  0  0  0  0  0
   38.1560   30.0600   41.0930 O   0  0  0  0  0  0  0  0  0  0  0  0
   38.7130   27.8330   40.4720 C   0  0  0  0  0  0  0  0  0  0  0  0
   38.0490   28.6930   41.3260 C   0  0  0  0  0  0  0  0  0  0  0  0
   37.3130   28.1390   42.3710 C   0  0  0  0  0  0  0  0  0  0  0  0
   37.2790   26.7880   42.5020 N   0  0  0  0  0  0  0  0  0  0  0  0
   37.9380   25.9820   41.6520 C   0  0  0  0  0  0  0  0  0  0  0  0
   38.6500   26.4970   40.6450 N   0  0  0  0  0  0  0  0  0  0  0  0
   39.3170   28.1310   39.6250 H   0  0  0  0  0  0  0  0  0  0  0  0
   36.7940   28.8070   43.0390 H   0  0  0  0  0  0  0  0  0  0  0  0
   37.8880   24.4950   41.8140 C   0  0  0  0  0  2  0  0  0  0  0  0
   37.5670   23.8700   40.5520 N   0  0  0  0  0  4  0  0  0  0  0  0
   38.0110   24.3950   39.7420 H   0  0  0  0  0  0  0  0  0  0  0  0
   38.1050   22.5360   40.5020 C   0  0  0  0  0  2  0  0  0  0  0  0
   39.1560   22.5310   40.8350 H   0  0  0  0  0  0  0  0  0  0  0  0
   36.1380   23.8640   40.3460 C   0  0  0  0  0  2  0  0  0  0  0  0
   35.8960   23.4430   39.3570 H   0  0  0  0  0  0  0  0  0  0  0  0
  1 22  1  0  0  0  0
  2  1  1  0  0  0  0
  2  4  1  0  0  0  0
  3  2  2  0  0  0  0
  4  5  2  0  0  0  0
  4  8  1  0  0  0  0
  5  6  1  0  0  0  0
  6 10  1  0  0  0  0
  6  7  2  0  0  0  0
  7 11  1  0  0  0  0
  8  7  1  0  0  0  0
  9  5  1  0  0  0  0
 11 12  1  0  0  0  0
 12 13  2  0  0  0  0
 12 17  1  0  0  0  0
 13 18  1  0  0  0  0
 14 19  1  0  0  0  0
 14 13  1  0  0  0  0
 15 14  2  0  0  0  0
 16 15  1  0  0  0  0
 16 11  2  0  0  0  0
 20 15  1  0  0  0  0
 22 21  2  6  0  0  0
 22 25  1  0  0  0  0
 22 23  1  0  0  0  0
 24 23  1  0  0  0  0
 25 27  1  0  0  0  0
 26 31  2  0  0  0  0
 26 27  1  0  0  0  0
 27 28  2  0  0  0  0
 28 29  1  0  0  0  0
 28 33  1  0  0  0  0
 30 34  1  0  0  0  0
 30 29  2  0  0  0  0
 31 30  1  0  0  0  0
 32 26  1  0  0  0  0
 35 34  1  0  0  0  0
 36 35  1  0  0  0  0
 37 35  1  0  0  0  0
 37 38  1  0  0  0  0
 39 35  1  0  0  0  0
 40 39  1  0  0  0  0
M  END
>  <minimizedAffinity>
-6.24119663

$$$$

 OpenBabel03242514403D

 40 42  0  0  0  0  0  0  0  0999 V2000
   40.3420   34.4680   39.4190 O   0  0  0  0  0  0  0  0  0  0  0  0
   39.3320   34.0020   40.1660 C   0  0  0  0  0  0  0  0  0  0  0  0
   38.8330   34.9240   40.9230 O   0  0  0  0  0  0  0  0  0  0  0  0
   38.5460   32.7810   40.4590 C   0  0  0  0  0  0  0  0  0  0  0  0
   37.1750   32.5840   40.2040 C   0  0  0  0  0  0  0  0  0  0  0  0
   36.7000   31.3490   40.5790 C   0  0  0  0  0  0  0  0  0  0  0  0
   37.4860   30.4270   41.1360 C   0  0  0  0  0  0  0  0  0  0  0  0
   39.1600   31.3090   41.1920 S   0  0  0  0  0  0  0  0  0  0  0  0
   36.5450   33.3350   39.7530 H   0  0  0  0  0  0  0  0  0  0  0  0
   35.6780   31.0160   40.4630 H   0  0  0  0  0  0  0  0  0  0  0  0
   37.3720   29.0820   41.6430 C   0  0  0  0  0  0  0  0  0  0  0  0
   37.2650   28.0040   40.7790 C   0  0  0  0  0  0  0  0  0  0  0  0
   37.1590   26.7740   41.4130 C   0  0  0  0  0  0  0  0  0  0  0  0
   37.1670   26.7050   42.7790 C   0  0  0  0  0  0  0  0  0  0  0  0
   37.2740   27.7960   43.6040 C   0  0  0  0  0  0  0  0  0  0  0  0
   37.3770   29.0000   42.9700 N   0  0  0  0  0  0  0  0  0  0  0  0
   37.2660   28.1430   39.7110 H   0  0  0  0  0  0  0  0  0  0  0  0
   37.0730   25.8850   40.7970 H   0  0  0  0  0  0  0  0  0  0  0  0
   37.0850   25.7480   43.2810 H   0  0  0  0  0  0  0  0  0  0  0  0
   37.2800   27.7390   44.6850 H   0  0  0  0  0  0  0  0  0  0  0  0
   42.2970   34.5340   37.7410 O   0  0  0  0  0  0  0  0  0  0  0  0
   41.4020   33.5760   38.4880 P   0  0  2  0  0  0  0  0  0  0  0  0
   40.5310   32.7040   37.3740 O   0  0  0  0  0  0  0  0  0  0  0  0
   40.9210   32.7080   36.4580 H   0  0  0  0  0  0  0  0  0  0  0  0
   42.3340   32.5460   39.5010 O   0  0  0  0  0  0  0  0  0  0  0  0
   43.2190   32.4360   41.7050 C   0  0  0  0  0  0  0  0  0  0  0  0
   43.1760   33.0680   40.4770 C   0  0  0  0  0  0  0  0  0  0  0  0
   43.9780   34.1920   40.2900 C   0  0  0  0  0  0  0  0  0  0  0  0
   44.7610   34.6130   41.3160 N   0  0  0  0  0  0  0  0  0  0  0  0
   44.7780   33.9730   42.4970 C   0  0  0  0  0  0  0  0  0  0  0  0
   44.0150   32.8930   42.6930 N   0  0  0  0  0  0  0  0  0  0  0  0
   42.6500   31.5590   41.9800 H   0  0  0  0  0  0  0  0  0  0  0  0
   43.9460   34.6870   39.3330 H   0  0  0  0  0  0  0  0  0  0  0  0
   45.6490   34.4540   43.6160 C   0  0  0  0  0  2  0  0  0  0  0  0
   44.8480   34.7150   44.7890 N   0  0  0  0  0  4  0  0  0  0  0  0
   43.8570   34.3550   44.6630 H   0  0  0  0  0  0  0  0  0  0  0  0
   45.3820   34.0150   45.9270 C   0  0  0  0  0  2  0  0  0  0  0  0
   45.6010   32.9660   45.6670 H   0  0  0  0  0  0  0  0  0  0  0  0
   44.7740   36.1350   45.0380 C   0  0  0  0  0  2  0  0  0  0  0  0
   44.1140   36.3390   45.8970 H   0  0  0  0  0  0  0  0  0  0  0  0
  1  2  1  0  0  0  0
  2  4  1  0  0  0  0
  2  3  2  0  0  0  0
  4  8  1  0  0  0  0
  5  4  2  0  0  0  0
  5  6  1  0  0  0  0
  6  7  2  0  0  0  0
  7  8  1  0  0  0  0
  7 11  1  0  0  0  0
  9  5  1  0  0  0  0
 10  6  1  0  0  0  0
 11 16  1  0  0  0  0
 12 13  1  0  0  0  0
 12 11  2  0  0  0  0
 13 14  2  0  0  0  0
 14 19  1  0  0  0  0
 14 15  1  0  0  0  0
 15 20  1  0  0  0  0
 16 15  2  0  0  0  0
 17 12  1  0  0  0  0
 18 13  1  0  0  0  0
 22 21  2  6  0  0  0
 22  1  1  0  0  0  0
 22 25  1  0  0  0  0
 23 22  1  0  0  0  0
 24 23  1  0  0  0  0
 25 27  1  0  0  0  0
 26 32  1  0  0  0  0
 26 31  1  0  0  0  0
 27 26  2  0  0  0  0
 28 27  1  0  0  0  0
 28 29  2  0  0  0  0
 29 30  1  0  0  0  0
 30 31  2  0  0  0  0
 30 34  1  0  0  0  0
 33 28  1  0  0  0  0
 34 35  1  0  0  0  0
 35 39  1  0  0  0  0
 35 37  1  0  0  0  0
 36 35  1  0  0  0  0
 38 37  1  0  0  0  0
 39 40  1  0  0  0  0
M  END
>  <minimizedAffinity>
-6.13840008

$$$$

 OpenBabel03242514403D

 40 42  0  0  0  0  0  0  0  0999 V2000
   36.8300   30.4360   37.2770 O   0  0  0  0  0  0  0  0  0  0  0  0
   36.3050   29.6450   38.2210 C   0  0  0  0  0  0  0  0  0  0  0  0
   35.0490   29.4200   38.0120 O   0  0  0  0  0  0  0  0  0  0  0  0
   36.6390   28.9060   39.4610 C   0  0  0  0  0  0  0  0  0  0  0  0
   35.8240   28.7710   40.6030 C   0  0  0  0  0  0  0  0  0  0  0  0
   36.3850   28.0290   41.6150 C   0  0  0  0  0  0  0  0  0  0  0  0
   37.6000   27.4890   41.5090 C   0  0  0  0  0  0  0  0  0  0  0  0
   38.1300   28.0360   39.7760 S   0  0  0  0  0  0  0  0  0  0  0  0
   34.8430   29.2120   40.6820 H   0  0  0  0  0  0  0  0  0  0  0  0
   35.9130   27.8180   42.5650 H   0  0  0  0  0  0  0  0  0  0  0  0
   38.4930   26.6860   42.3070 C   0  0  0  0  0  0  0  0  0  0  0  0
   39.2210   27.2510   43.3420 C   0  0  0  0  0  0  0  0  0  0  0  0
   40.0390   26.3560   44.0180 C   0  0  0  0  0  0  0  0  0  0  0  0
   40.0720   25.0420   43.6420 C   0  0  0  0  0  0  0  0  0  0  0  0
   39.3360   24.5170   42.6100 C   0  0  0  0  0  0  0  0  0  0  0  0
   38.5360   25.4070   41.9520 N   0  0  0  0  0  0  0  0  0  0  0  0
   39.1380   28.2990   43.5760 H   0  0  0  0  0  0  0  0  0  0  0  0
   40.6380   26.7300   44.8420 H   0  0  0  0  0  0  0  0  0  0  0  0
   40.7090   24.3370   44.1660 H   0  0  0  0  0  0  0  0  0  0  0  0
   39.3650   23.4770   42.3140 H   0  0  0  0  0  0  0  0  0  0  0  0
   37.2270   32.7250   38.3930 O   0  0  0  0  0  0  0  0  0  0  0  0
   37.8900   31.7060   37.4990 P   0  0  2  0  0  0  0  0  0  0  0  0
   38.1840   32.4200   36.0280 O   0  0  0  0  0  0  0  0  0  0  0  0
   38.1790   33.4150   36.0500 H   0  0  0  0  0  0  0  0  0  0  0  0
   39.3420   31.1280   38.2170 O   0  0  0  0  0  0  0  0  0  0  0  0
   40.3980   31.9790   40.1700 C   0  0  0  0  0  0  0  0  0  0  0  0
   40.2540   32.0040   38.7960 C   0  0  0  0  0  0  0  0  0  0  0  0
   41.0320   32.9040   38.0720 C   0  0  0  0  0  0  0  0  0  0  0  0
   41.8910   33.7130   38.7430 N   0  0  0  0  0  0  0  0  0  0  0  0
   42.0050   33.6610   40.0820 C   0  0  0  0  0  0  0  0  0  0  0  0
   41.2670   32.8020   40.7910 N   0  0  0  0  0  0  0  0  0  0  0  0
   39.8580   31.3310   40.8470 H   0  0  0  0  0  0  0  0  0  0  0  0
   40.9220   32.9260   37.0000 H   0  0  0  0  0  0  0  0  0  0  0  0
   42.9580   34.5620   40.8030 C   0  0  0  0  0  2  0  0  0  0  0  0
   42.2590   35.3070   41.8240 N   0  0  0  0  0  4  0  0  0  0  0  0
   41.6550   34.6670   42.4180 H   0  0  0  0  0  0  0  0  0  0  0  0
   43.1950   35.9200   42.7280 C   0  0  0  0  0  2  0  0  0  0  0  0
   43.9600   35.1910   43.0460 H   0  0  0  0  0  0  0  0  0  0  0  0
   41.3950   36.2930   41.2190 C   0  0  0  0  0  2  0  0  0  0  0  0
   40.8160   36.8210   41.9930 H   0  0  0  0  0  0  0  0  0  0  0  0
  1 22  1  0  0  0  0
  1  2  1  0  0  0  0
  2  4  1  0  0  0  0
  3  2  2  0  0  0  0
  4  8  1  0  0  0  0
  4  5  2  0  0  0  0
  5  9  1  0  0  0  0
  5  6  1  0  0  0  0
  6 10  1  0  0  0  0
  7  6  2  0  0  0  0
  7 11  1  0  0  0  0
  8  7  1  0  0  0  0
 11 12  1  0  0  0  0
 12 17  1  0  0  0  0
 12 13  2  0  0  0  0
 13 18  1  0  0  0  0
 14 13  1  0  0  0  0
 14 19  1  0  0  0  0
 15 14  2  0  0  0  0
 16 11  2  0  0  0  0
 16 15  1  0  0  0  0
 20 15  1  0  0  0  0
 22 25  1  0  0  0  0
 22 21  2  1  0  0  0
 23 24  1  0  0  0  0
 23 22  1  0  0  0  0
 25 27  1  0  0  0  0
 26 31  1  0  0  0  0
 26 32  1  0  0  0  0
 27 26  2  0  0  0  0
 28 29  2  0  0  0  0
 28 27  1  0  0  0  0
 29 30  1  0  0  0  0
 30 31  2  0  0  0  0
 30 34  1  0  0  0  0
 33 28  1  0  0  0  0
 34 35  1  0  0  0  0
 35 36  1  0  0  0  0
 35 37  1  0  0  0  0
 37 38  1  0  0  0  0
 39 35  1  0  0  0  0
 39 40  1  0  0  0  0
M  END
>  <minimizedAffinity>
-6.0701251

$$$$

 OpenBabel03242514403D

 40 42  0  0  0  0  0  0  0  0999 V2000
   36.9500   28.0260   41.4990 O   0  0  0  0  0  0  0  0  0  0  0  0
   36.5630   29.1910   40.9650 C   0  0  0  0  0  0  0  0  0  0  0  0
   35.2770   29.2600   40.8490 O   0  0  0  0  0  0  0  0  0  0  0  0
   37.0770   30.4770   40.4380 C   0  0  0  0  0  0  0  0  0  0  0  0
   36.5230   31.2350   39.3870 C   0  0  0  0  0  0  0  0  0  0  0  0
   37.2070   32.3930   39.1020 C   0  0  0  0  0  0  0  0  0  0  0  0
   38.3010   32.7540   39.7730 C   0  0  0  0  0  0  0  0  0  0  0  0
   38.4950   31.3360   41.0130 S   0  0  0  0  0  0  0  0  0  0  0  0
   35.6380   30.9360   38.8480 H   0  0  0  0  0  0  0  0  0  0  0  0
   36.9350   33.1000   38.3300 H   0  0  0  0  0  0  0  0  0  0  0  0
   39.2540   33.8370   39.7740 C   0  0  0  0  0  0  0  0  0  0  0  0
   40.5660   33.6280   39.3820 C   0  0  0  0  0  0  0  0  0  0  0  0
   41.3650   34.7620   39.4390 C   0  0  0  0  0  0  0  0  0  0  0  0
   40.8340   35.9520   39.8540 C   0  0  0  0  0  0  0  0  0  0  0  0
   39.5280   36.1210   40.2350 C   0  0  0  0  0  0  0  0  0  0  0  0
   38.7520   34.9990   40.1770 N   0  0  0  0  0  0  0  0  0  0  0  0
   40.9070   32.6560   39.0680 H   0  0  0  0  0  0  0  0  0  0  0  0
   42.4050   34.6710   39.1450 H   0  0  0  0  0  0  0  0  0  0  0  0
   41.4520   36.8420   39.9000 H   0  0  0  0  0  0  0  0  0  0  0  0
   39.1100   37.0640   40.5640 H   0  0  0  0  0  0  0  0  0  0  0  0
   36.0970   27.3310   43.8300 O   0  0  0  0  0  0  0  0  0  0  0  0
   37.3510   27.7300   43.0920 P   0  0  2  0  0  0  0  0  0  0  0  0
   37.9260   29.1350   43.7690 O   0  0  0  0  0  0  0  0  0  0  0  0
   37.5780   29.3190   44.6830 H   0  0  0  0  0  0  0  0  0  0  0  0
   38.5220   26.4730   43.1690 O   0  0  0  0  0  0  0  0  0  0  0  0
   37.4760   24.6120   42.1230 C   0  0  0  0  0  0  0  0  0  0  0  0
   38.5590   25.4670   42.2100 C   0  0  0  0  0  0  0  0  0  0  0  0
   39.6220   25.2690   41.3320 C   0  0  0  0  0  0  0  0  0  0  0  0
   39.5490   24.2520   40.4360 N   0  0  0  0  0  0  0  0  0  0  0  0
   38.4790   23.4400   40.3790 C   0  0  0  0  0  0  0  0  0  0  0  0
   37.4500   23.6160   41.2140 N   0  0  0  0  0  0  0  0  0  0  0  0
   36.5900   24.6550   42.7410 H   0  0  0  0  0  0  0  0  0  0  0  0
   40.4680   25.9330   41.3980 H   0  0  0  0  0  0  0  0  0  0  0  0
   38.4180   22.3240   39.3830 C   0  0  0  0  0  2  0  0  0  0  0  0
   37.7050   21.1990   39.9430 N   0  0  0  0  0  4  0  0  0  0  0  0
   37.2130   21.4690   40.8450 H   0  0  0  0  0  0  0  0  0  0  0  0
   36.6710   20.7630   39.0430 C   0  0  0  0  0  2  0  0  0  0  0  0
   36.0850   21.6240   38.6800 H   0  0  0  0  0  0  0  0  0  0  0  0
   38.6220   20.1260   40.2440 C   0  0  0  0  0  2  0  0  0  0  0  0
   38.0890   19.2910   40.7270 H   0  0  0  0  0  0  0  0  0  0  0  0
  1 22  1  0  0  0  0
  2  1  1  0  0  0  0
  3  2  2  0  0  0  0
  4  2  1  0  0  0  0
  4  8  1  0  0  0  0
  5  4  2  0  0  0  0
  6  5  1  0  0  0  0
  6  7  2  0  0  0  0
  7 11  1  0  0  0  0
  7  8  1  0  0  0  0
  9  5  1  0  0  0  0
 10  6  1  0  0  0  0
 11 16  1  0  0  0  0
 12 13  1  0  0  0  0
 12 11  2  0  0  0  0
 13 14  2  0  0  0  0
 14 19  1  0  0  0  0
 14 15  1  0  0  0  0
 15 20  1  0  0  0  0
 16 15  2  0  0  0  0
 17 12  1  0  0  0  0
 18 13  1  0  0  0  0
 22 25  1  0  0  0  0
 22 23  1  0  0  0  0
 22 21  2  1  0  0  0
 23 24  1  0  0  0  0
 26 27  1  0  0  0  0
 26 32  1  0  0  0  0
 27 25  1  0  0  0  0
 28 33  1  0  0  0  0
 28 27  2  0  0  0  0
 29 28  1  0  0  0  0
 30 29  2  0  0  0  0
 30 31  1  0  0  0  0
 31 26  2  0  0  0  0
 34 35  1  0  0  0  0
 34 30  1  0  0  0  0
 35 39  1  0  0  0  0
 35 36  1  0  0  0  0
 37 35  1  0  0  0  0
 38 37  1  0  0  0  0
 39 40  1  0  0  0  0
M  END
>  <minimizedAffinity>
-5.8534565

$$$$

 OpenBabel03242514403D

 40 42  0  0  0  0  0  0  0  0999 V2000
   40.9670   35.0900   39.2430 O   0  0  0  0  0  0  0  0  0  0  0  0
   39.9280   34.6950   39.9890 C   0  0  0  0  0  0  0  0  0  0  0  0
   39.5250   35.6330   40.7820 O   0  0  0  0  0  0  0  0  0  0  0  0
   39.0350   33.5430   40.2540 C   0  0  0  0  0  0  0  0  0  0  0  0
   37.7290   33.3600   39.7560 C   0  0  0  0  0  0  0  0  0  0  0  0
   37.1260   32.1940   40.1640 C   0  0  0  0  0  0  0  0  0  0  0  0
   37.7390   31.3200   40.9630 C   0  0  0  0  0  0  0  0  0  0  0  0
   39.4160   32.1490   41.2510 S   0  0  0  0  0  0  0  0  0  0  0  0
   37.2400   34.0710   39.1110 H   0  0  0  0  0  0  0  0  0  0  0  0
   36.1280   31.8820   39.8870 H   0  0  0  0  0  0  0  0  0  0  0  0
   37.4560   30.0490   41.5830 C   0  0  0  0  0  0  0  0  0  0  0  0
   36.4730   29.2140   41.0750 C   0  0  0  0  0  0  0  0  0  0  0  0
   36.3140   28.0290   41.7780 C   0  0  0  0  0  0  0  0  0  0  0  0
   37.0960   27.7700   42.8700 C   0  0  0  0  0  0  0  0  0  0  0  0
   38.0610   28.6210   43.3460 C   0  0  0  0  0  0  0  0  0  0  0  0
   38.2080   29.7850   42.6470 N   0  0  0  0  0  0  0  0  0  0  0  0
   35.8990   29.4930   40.2070 H   0  0  0  0  0  0  0  0  0  0  0  0
   35.5610   27.3260   41.4350 H   0  0  0  0  0  0  0  0  0  0  0  0
   36.9760   26.8450   43.4240 H   0  0  0  0  0  0  0  0  0  0  0  0
   38.6780   28.4140   44.2100 H   0  0  0  0  0  0  0  0  0  0  0  0
   42.6130   33.1450   39.6330 O   0  0  0  0  0  0  0  0  0  0  0  0
   42.1570   34.1250   38.5800 P   0  0  2  0  0  0  0  0  0  0  0  0
   43.4520   35.0810   38.1670 O   0  0  0  0  0  0  0  0  0  0  0  0
   44.3370   34.6970   38.4110 H   0  0  0  0  0  0  0  0  0  0  0  0
   41.5310   33.2920   37.2120 O   0  0  0  0  0  0  0  0  0  0  0  0
   42.3190   31.0990   36.7390 C   0  0  0  0  0  0  0  0  0  0  0  0
   41.3250   31.9170   37.2420 C   0  0  0  0  0  0  0  0  0  0  0  0
   40.1760   31.3150   37.7490 C   0  0  0  0  0  0  0  0  0  0  0  0
   40.0830   29.9610   37.7260 N   0  0  0  0  0  0  0  0  0  0  0  0
   41.0710   29.1960   37.2290 C   0  0  0  0  0  0  0  0  0  0  0  0
   42.1800   29.7580   36.7390 N   0  0  0  0  0  0  0  0  0  0  0  0
   43.2570   31.4360   36.3180 H   0  0  0  0  0  0  0  0  0  0  0  0
   39.3980   31.9500   38.1410 H   0  0  0  0  0  0  0  0  0  0  0  0
   40.9490   27.7050   37.2130 C   0  0  0  0  0  2  0  0  0  0  0  0
   39.5880   27.3160   37.5060 N   0  0  0  0  0  4  0  0  0  0  0  0
   38.9730   28.1680   37.6630 H   0  0  0  0  0  0  0  0  0  0  0  0
   39.0150   26.6150   36.3880 C   0  0  0  0  0  2  0  0  0  0  0  0
   39.2130   27.1570   35.4490 H   0  0  0  0  0  0  0  0  0  0  0  0
   39.5450   26.5120   38.7040 C   0  0  0  0  0  2  0  0  0  0  0  0
   38.5030   26.2670   38.9620 H   0  0  0  0  0  0  0  0  0  0  0  0
  1  2  1  0  0  0  0
  2  4  1  0  0  0  0
  2  3  2  0  0  0  0
  4  8  1  0  0  0  0
  5  6  1  0  0  0  0
  5  4  2  0  0  0  0
  6  7  2  0  0  0  0
  7  8  1  0  0  0  0
  7 11  1  0  0  0  0
  9  5  1  0  0  0  0
 10  6  1  0  0  0  0
 11 16  1  0  0  0  0
 12 11  2  0  0  0  0
 12 13  1  0  0  0  0
 13 14  2  0  0  0  0
 14 15  1  0  0  0  0
 14 19  1  0  0  0  0
 15 20  1  0  0  0  0
 16 15  2  0  0  0  0
 17 12  1  0  0  0  0
 18 13  1  0  0  0  0
 22  1  1  0  0  0  0
 22 21  2  1  0  0  0
 23 24  1  0  0  0  0
 23 22  1  0  0  0  0
 25 27  1  0  0  0  0
 25 22  1  0  0  0  0
 26 31  2  0  0  0  0
 26 27  1  0  0  0  0
 27 28  2  0  0  0  0
 28 33  1  0  0  0  0
 29 28  1  0  0  0  0
 30 29  2  0  0  0  0
 31 30  1  0  0  0  0
 32 26  1  0  0  0  0
 34 30  1  0  0  0  0
 34 35  1  0  0  0  0
 35 36  1  0  0  0  0
 35 39  1  0  0  0  0
 37 35  1  0  0  0  0
 38 37  1  0  0  0  0
 39 40  1  0  0  0  0
M  END
>  <minimizedAffinity>
-5.74094439

$$$$

 OpenBabel03242514403D

 40 42  0  0  0  0  0  0  0  0999 V2000
   38.1560   32.3940   38.9880 O   0  0  0  0  0  0  0  0  0  0  0  0
   38.4320   33.5720   39.5610 C   0  0  0  0  0  0  0  0  0  0  0  0
   37.3800   34.3190   39.6520 O   0  0  0  0  0  0  0  0  0  0  0  0
   39.5340   34.3680   40.1510 C   0  0  0  0  0  0  0  0  0  0  0  0
   39.5690   35.7690   40.3040 C   0  0  0  0  0  0  0  0  0  0  0  0
   40.7210   36.2460   40.8840 C   0  0  0  0  0  0  0  0  0  0  0  0
   41.7110   35.4380   41.2650 C   0  0  0  0  0  0  0  0  0  0  0  0
   41.0410   33.7330   40.7880 S   0  0  0  0  0  0  0  0  0  0  0  0
   38.7650   36.4160   39.9930 H   0  0  0  0  0  0  0  0  0  0  0  0
   40.9290   37.2890   41.0820 H   0  0  0  0  0  0  0  0  0  0  0  0
   43.0120   35.5470   41.8780 C   0  0  0  0  0  0  0  0  0  0  0  0
   43.2130   36.3730   42.9720 C   0  0  0  0  0  0  0  0  0  0  0  0
   44.5170   36.3770   43.4500 C   0  0  0  0  0  0  0  0  0  0  0  0
   45.4700   35.6050   42.8440 C   0  0  0  0  0  0  0  0  0  0  0  0
   45.2330   34.7980   41.7610 C   0  0  0  0  0  0  0  0  0  0  0  0
   43.9480   34.8030   41.2980 N   0  0  0  0  0  0  0  0  0  0  0  0
   42.4070   36.9510   43.3910 H   0  0  0  0  0  0  0  0  0  0  0  0
   44.7470   37.0020   44.3070 H   0  0  0  0  0  0  0  0  0  0  0  0
   46.4890   35.6030   43.2130 H   0  0  0  0  0  0  0  0  0  0  0  0
   45.9890   34.1890   41.2830 H   0  0  0  0  0  0  0  0  0  0  0  0
   40.4000   31.1430   38.7840 O   0  0  0  0  0  0  0  0  0  0  0  0
   39.1570   31.4920   38.0030 P   0  0  2  0  0  0  0  0  0  0  0  0
   39.6070   32.4220   36.7020 O   0  0  0  0  0  0  0  0  0  0  0  0
   40.5710   32.3520   36.4640 H   0  0  0  0  0  0  0  0  0  0  0  0
   38.3400   30.0650   37.5010 O   0  0  0  0  0  0  0  0  0  0  0  0
   37.3450   29.2860   39.5150 C   0  0  0  0  0  0  0  0  0  0  0  0
   38.1030   29.0220   38.3900 C   0  0  0  0  0  0  0  0  0  0  0  0
   38.5860   27.7270   38.2150 C   0  0  0  0  0  0  0  0  0  0  0  0
   38.2920   26.7880   39.1500 N   0  0  0  0  0  0  0  0  0  0  0  0
   37.5500   27.0810   40.2320 C   0  0  0  0  0  0  0  0  0  0  0  0
   37.0790   28.3190   40.4160 N   0  0  0  0  0  0  0  0  0  0  0  0
   36.9120   30.2440   39.7700 H   0  0  0  0  0  0  0  0  0  0  0  0
   39.1780   27.5180   37.3390 H   0  0  0  0  0  0  0  0  0  0  0  0
   37.2380   26.0310   41.2520 C   0  0  0  0  0  2  0  0  0  0  0  0
   38.3490   25.1160   41.3760 N   0  0  0  0  0  4  0  0  0  0  0  0
   39.0540   25.2630   40.5960 H   0  0  0  0  0  0  0  0  0  0  0  0
   39.0620   25.3550   42.6030 C   0  0  0  0  0  2  0  0  0  0  0  0
   39.2560   26.4330   42.7330 H   0  0  0  0  0  0  0  0  0  0  0  0
   37.8830   23.7510   41.3010 C   0  0  0  0  0  2  0  0  0  0  0  0
   38.7350   23.0540   41.3350 H   0  0  0  0  0  0  0  0  0  0  0  0
  1  2  1  0  0  0  0
  2  3  2  0  0  0  0
  2  4  1  0  0  0  0
  4  5  2  0  0  0  0
  4  8  1  0  0  0  0
  5  6  1  0  0  0  0
  6 10  1  0  0  0  0
  6  7  2  0  0  0  0
  7 11  1  0  0  0  0
  8  7  1  0  0  0  0
  9  5  1  0  0  0  0
 11 12  1  0  0  0  0
 12 17  1  0  0  0  0
 12 13  2  0  0  0  0
 13 18  1  0  0  0  0
 14 19  1  0  0  0  0
 14 13  1  0  0  0  0
 15 14  2  0  0  0  0
 16 15  1  0  0  0  0
 16 11  2  0  0  0  0
 20 15  1  0  0  0  0
 22 21  2  1  0  0  0
 22  1  1  0  0  0  0
 23 22  1  0  0  0  0
 24 23  1  0  0  0  0
 25 22  1  0  0  0  0
 25 27  1  0  0  0  0
 26 32  1  0  0  0  0
 26 31  1  0  0  0  0
 27 26  2  0  0  0  0
 28 27  1  0  0  0  0
 28 29  2  0  0  0  0
 29 30  1  0  0  0  0
 30 31  2  0  0  0  0
 30 34  1  0  0  0  0
 33 28  1  0  0  0  0
 34 35  1  0  0  0  0
 35 37  1  0  0  0  0
 36 35  1  0  0  0  0
 37 38  1  0  0  0  0
 39 40  1  0  0  0  0
 39 35  1  0  0  0  0
M  END
>  <minimizedAffinity>
-5.72413826

$$$$

 OpenBabel03242514403D

 40 42  0  0  0  0  0  0  0  0999 V2000
   36.4970   31.2990   40.9190 O   0  0  0  0  0  0  0  0  0  0  0  0
   36.6200   30.0230   41.3050 C   0  0  0  0  0  0  0  0  0  0  0  0
   35.6120   29.3080   40.9240 O   0  0  0  0  0  0  0  0  0  0  0  0
   37.5120   29.0920   42.0350 C   0  0  0  0  0  0  0  0  0  0  0  0
   37.2250   28.4290   43.2450 C   0  0  0  0  0  0  0  0  0  0  0  0
   38.2390   27.6200   43.7020 C   0  0  0  0  0  0  0  0  0  0  0  0
   39.3900   27.4850   43.0420 C   0  0  0  0  0  0  0  0  0  0  0  0
   39.1270   28.6120   41.5440 S   0  0  0  0  0  0  0  0  0  0  0  0
   36.2920   28.5440   43.7730 H   0  0  0  0  0  0  0  0  0  0  0  0
   38.2020   27.0340   44.6100 H   0  0  0  0  0  0  0  0  0  0  0  0
   40.6340   26.7690   43.1870 C   0  0  0  0  0  0  0  0  0  0  0  0
   41.0290   25.8350   42.2430 C   0  0  0  0  0  0  0  0  0  0  0  0
   42.2460   25.2270   42.5190 C   0  0  0  0  0  0  0  0  0  0  0  0
   42.9420   25.5690   43.6450 C   0  0  0  0  0  0  0  0  0  0  0  0
   42.5180   26.5000   44.5590 C   0  0  0  0  0  0  0  0  0  0  0  0
   41.3200   27.0910   44.2780 N   0  0  0  0  0  0  0  0  0  0  0  0
   40.4210   25.6220   41.3800 H   0  0  0  0  0  0  0  0  0  0  0  0
   42.6180   24.4840   41.8200 H   0  0  0  0  0  0  0  0  0  0  0  0
   43.8930   25.0980   43.8660 H   0  0  0  0  0  0  0  0  0  0  0  0
   43.0710   26.7690   45.4490 H   0  0  0  0  0  0  0  0  0  0  0  0
   38.8060   32.4220   41.1430 O   0  0  0  0  0  0  0  0  0  0  0  0
   37.6570   32.2460   40.1820 P   0  0  2  0  0  0  0  0  0  0  0  0
   37.0070   33.7430   39.8720 O   0  0  0  0  0  0  0  0  0  0  0  0
   37.6120   34.5040   40.0880 H   0  0  0  0  0  0  0  0  0  0  0  0
   38.1910   31.4840   38.7360 O   0  0  0  0  0  0  0  0  0  0  0  0
   40.1500   30.1530   38.5260 C   0  0  0  0  0  0  0  0  0  0  0  0
   39.5450   31.3920   38.4310 C   0  0  0  0  0  0  0  0  0  0  0  0
   40.3270   32.4750   38.0360 C   0  0  0  0  0  0  0  0  0  0  0  0
   41.6410   32.2670   37.7640 N   0  0  0  0  0  0  0  0  0  0  0  0
   42.1960   31.0470   37.8660 C   0  0  0  0  0  0  0  0  0  0  0  0
   41.4600   29.9980   38.2440 N   0  0  0  0  0  0  0  0  0  0  0  0
   39.6600   29.2350   38.8190 H   0  0  0  0  0  0  0  0  0  0  0  0
   39.8580   33.4420   37.9610 H   0  0  0  0  0  0  0  0  0  0  0  0
   43.6470   30.8390   37.5620 C   0  0  0  0  0  2  0  0  0  0  0  0
   43.9000   31.0920   36.1620 N   0  0  0  0  0  4  0  0  0  0  0  0
   43.3840   31.9590   35.8310 H   0  0  0  0  0  0  0  0  0  0  0  0
   45.2970   31.3560   35.9440 C   0  0  0  0  0  2  0  0  0  0  0  0
   45.6730   32.0840   36.6820 H   0  0  0  0  0  0  0  0  0  0  0  0
   43.4480   29.9770   35.3630 C   0  0  0  0  0  2  0  0  0  0  0  0
   43.5850   30.1940   34.2920 H   0  0  0  0  0  0  0  0  0  0  0  0
  1  2  1  0  0  0  0
  2  4  1  0  0  0  0
  3  2  2  0  0  0  0
  4  5  2  0  0  0  0
  5  6  1  0  0  0  0
  5  9  1  0  0  0  0
  6 10  1  0  0  0  0
  7 11  1  0  0  0  0
  7  6  2  0  0  0  0
  8  4  1  0  0  0  0
  8  7  1  0  0  0  0
 11 16  1  0  0  0  0
 12 13  1  0  0  0  0
 12 11  2  0  0  0  0
 13 14  2  0  0  0  0
 14 19  1  0  0  0  0
 14 15  1  0  0  0  0
 15 20  1  0  0  0  0
 16 15  2  0  0  0  0
 17 12  1  0  0  0  0
 18 13  1  0  0  0  0
 22  1  1  0  0  0  0
 22 21  2  1  0  0  0
 23 24  1  0  0  0  0
 23 22  1  0  0  0  0
 25 22  1  0  0  0  0
 26 32  1  0  0  0  0
 27 26  1  0  0  0  0
 27 25  1  0  0  0  0
 28 27  2  0  0  0  0
 29 30  2  0  0  0  0
 29 28  1  0  0  0  0
 30 31  1  0  0  0  0
 31 26  2  0  0  0  0
 33 28  1  0  0  0  0
 34 30  1  0  0  0  0
 35 34  1  0  0  0  0
 36 35  1  0  0  0  0
 37 35  1  0  0  0  0
 37 38  1  0  0  0  0
 39 35  1  0  0  0  0
 40 39  1  0  0  0  0
M  END
>  <minimizedAffinity>
-5.67665577

$$$$
