
 OpenBabel03242523193D

 35 37  0  0  0  0  0  0  0  0999 V2000
   46.3150   33.5430   44.7400 C   0  0  0  0  0  0  0  0  0  0  0  0
   45.7290   33.9410   45.7170 O   0  0  0  0  0  0  0  0  0  0  0  0
   44.6260   31.7230   42.9130 Cl  0  0  0  0  0  0  0  0  0  0  0  0
   44.6080   33.4860   42.7940 C   0  0  0  0  0  0  0  0  0  0  0  0
   45.4430   34.1630   43.7090 C   0  0  0  0  0  0  0  0  0  0  0  0
   45.3580   35.5310   43.5130 C   0  0  0  0  0  0  0  0  0  0  0  0
   44.6390   36.2350   42.6290 C   0  0  0  0  0  0  0  0  0  0  0  0
   43.8590   35.5050   41.7830 C   0  0  0  0  0  0  0  0  0  0  0  0
   43.8260   34.1540   41.8460 C   0  0  0  0  0  0  0  0  0  0  0  0
   45.9290   36.2160   44.1780 H   0  0  0  0  0  0  0  0  0  0  0  0
   44.6160   37.3090   42.5220 H   0  0  0  0  0  0  0  0  0  0  0  0
   43.2220   35.9350   41.0140 H   0  0  0  0  0  0  0  0  0  0  0  0
   42.9570   33.3360   40.9450 C   0  0  0  0  0  2  0  0  0  0  0  0
   43.5440   33.1150   39.6600 N   0  0  0  0  0  4  0  0  0  0  0  0
   43.2710   32.1170   39.3890 H   0  0  0  0  0  0  0  0  0  0  0  0
   44.9630   33.2250   39.5760 C   0  0  0  0  0  2  0  0  0  0  0  0
   45.2620   34.1570   39.0130 H   0  0  0  0  0  0  0  0  0  0  0  0
   42.9360   33.9610   38.6560 C   0  0  0  0  0  2  0  0  0  0  0  0
   42.1510   33.4160   38.0690 H   0  0  0  0  0  0  0  0  0  0  0  0
   47.3870   32.8000   44.0670 C   0  0  0  0  0  0  0  0  0  0  0  0
   48.2320   33.2850   43.1450 C   0  0  0  0  0  0  0  0  0  0  0  0
   49.0860   32.3490   42.5980 C   0  0  0  0  0  0  0  0  0  0  0  0
   49.0000   31.0160   43.0420 N   0  0  0  0  0  0  0  0  0  0  0  0
   48.1440   30.6180   43.9550 C   0  0  0  0  0  0  0  0  0  0  0  0
   47.2740   31.5260   44.5210 N   0  0  0  0  0  0  0  0  0  0  0  0
   49.8250   32.5740   41.8410 H   0  0  0  0  0  0  0  0  0  0  0  0
   48.1990   29.5610   44.1970 H   0  0  0  0  0  0  0  0  0  0  0  0
   48.3960   34.6490   42.7820 C   0  0  0  0  0  0  0  0  0  0  0  0
   49.3980   35.2260   42.0700 C   0  0  0  0  0  0  0  0  0  0  0  0
   48.1510   35.0140   41.2570 C   0  0  0  0  0  0  0  0  0  0  0  0
   47.9410   35.3550   43.5020 H   0  0  0  0  0  0  0  0  0  0  0  0
   50.2570   34.6120   41.7010 H   0  0  0  0  0  0  0  0  0  0  0  0
   49.7270   36.3000   42.0600 H   0  0  0  0  0  0  0  0  0  0  0  0
   48.0790   34.1390   40.5980 H   0  0  0  0  0  0  0  0  0  0  0  0
   47.4630   35.8610   41.1230 H   0  0  0  0  0  0  0  0  0  0  0  0
  1  2  2  0  0  0  0
  4  3  1  0  0  0  0
  4  5  1  0  0  0  0
  5  1  1  0  0  0  0
  6  5  2  0  0  0  0
  6 10  1  0  0  0  0
  7  6  1  0  0  0  0
  8  9  1  0  0  0  0
  8  7  2  0  0  0  0
  9  4  2  0  0  0  0
 11  7  1  0  0  0  0
 12  8  1  0  0  0  0
 13  9  1  0  0  0  0
 14 13  1  0  0  0  0
 15 14  1  0  0  0  0
 16 14  1  0  0  0  0
 17 16  1  0  0  0  0
 18 14  1  0  0  0  0
 19 18  1  0  0  0  0
 20 25  1  0  0  0  0
 20  1  1  0  0  0  0
 21 20  2  0  0  0  0
 22 23  2  0  0  0  0
 22 21  1  0  0  0  0
 23 24  1  0  0  0  0
 24 27  1  0  0  0  0
 24 25  2  0  0  0  0
 26 22  1  0  0  0  0
 28 21  1  0  0  0  0
 28 31  1  0  0  0  0
 29 28  1  0  0  0  0
 30 29  1  0  0  0  0
 30 28  1  0  0  0  0
 32 29  1  0  0  0  0
 33 29  1  0  0  0  0
 34 30  1  0  0  0  0
 35 30  1  0  0  0  0
M  END
>  <minimizedAffinity>
-5.00534439

>  <minimizedRMSD>
0.72507745

$$$$
