
 OpenBabel03242514483D

 42 44  0  0  1  0  0  0  0  0999 V2000
   46.0910   34.4330   43.6460 C   0  0  0  0  0  0  0  0  0  0  0  0
   47.0280   33.4140   43.5810 C   0  0  0  0  0  0  0  0  0  0  0  0
   47.1750   32.6220   44.7340 C   0  0  0  0  0  0  0  0  0  0  0  0
   46.4130   32.8880   45.8270 N   0  0  0  0  0  0  0  0  0  0  0  0
   45.5230   33.8870   45.8320 C   0  0  0  0  0  0  0  0  0  0  0  0
   45.3730   34.6400   44.7580 N   0  0  0  0  0  0  0  0  0  0  0  0
   47.8730   31.8110   44.7810 H   0  0  0  0  0  0  0  0  0  0  0  0
   44.8890   34.1500   46.6690 H   0  0  0  0  0  0  0  0  0  0  0  0
   49.0450   34.0480   42.2550 C   0  0  2  0  0  0  0  0  0  0  0  0
   47.8210   33.0910   42.3630 C   0  0  1  0  0  0  0  0  0  0  0  0
   48.2480   31.8270   42.2520 O   0  0  0  0  0  0  0  0  0  0  0  0
   49.6100   31.7610   42.3800 C   0  0  0  0  0  0  0  0  0  0  0  0
   50.0900   33.0310   41.7410 C   0  0  1  0  0  0  0  0  0  0  0  0
   48.9990   34.7950   41.4790 H   0  0  0  0  0  0  0  0  0  0  0  0
   47.4540   33.3910   41.4250 H   0  0  0  0  0  0  0  0  0  0  0  0
   49.9730   30.8560   41.8450 H   0  0  0  0  0  0  0  0  0  0  0  0
   49.9610   31.7450   43.4190 H   0  0  0  0  0  0  0  0  0  0  0  0
   51.0870   33.3430   42.0710 H   0  0  0  0  0  0  0  0  0  0  0  0
   49.4430   34.5960   43.4060 O   0  0  0  0  0  0  0  0  0  0  0  0
   48.8080   34.5040   44.1550 H   0  0  0  0  0  0  0  0  0  0  0  0
   49.9890   32.8690   40.3660 O   0  0  0  0  0  0  0  0  0  0  0  0
   50.8250   32.4480   40.0440 H   0  0  0  0  0  0  0  0  0  0  0  0
   45.9300   35.2900   42.4390 C   0  0  0  0  0  0  0  0  0  0  0  0
   45.8450   36.3300   42.8860 H   0  0  0  0  0  0  0  0  0  0  0  0
   46.7760   35.3520   41.7820 H   0  0  0  0  0  0  0  0  0  0  0  0
   45.7820   33.8430   39.9650 F   0  0  0  0  0  0  0  0  0  0  0  0
   44.6850   34.3370   40.5190 C   0  0  0  0  0  0  0  0  0  0  0  0
   44.6830   35.0250   41.7020 C   0  0  0  0  0  0  0  0  0  0  0  0
   43.4940   35.4880   42.2310 C   0  0  0  0  0  0  0  0  0  0  0  0
   42.3370   35.2270   41.5250 C   0  0  0  0  0  0  0  0  0  0  0  0
   42.2750   34.5380   40.3260 C   0  0  0  0  0  0  0  0  0  0  0  0
   43.4950   34.0780   39.8070 C   0  0  0  0  0  0  0  0  0  0  0  0
   43.4810   36.0320   43.1650 H   0  0  0  0  0  0  0  0  0  0  0  0
   41.4320   35.6070   41.9810 H   0  0  0  0  0  0  0  0  0  0  0  0
   41.3360   34.3850   39.8550 H   0  0  0  0  0  0  0  0  0  0  0  0
   43.4750   33.3400   38.5160 C   0  0  0  0  0  0  0  0  0  0  0  0
   42.8850   32.0430   38.6160 N   0  0  0  0  0  0  0  0  0  0  0  0
   42.5460   31.9060   39.6210 H   0  0  0  0  0  0  0  0  0  0  0  0
   41.7510   31.7980   37.7880 C   0  0  0  0  0  0  0  0  0  0  0  0
   41.0810   32.6750   37.7180 H   0  0  0  0  0  0  0  0  0  0  0  0
   43.8690   30.9920   38.4310 C   0  0  0  0  0  0  0  0  0  0  0  0
   43.3510   29.9950   38.5020 H   0  0  0  0  0  0  0  0  0  0  0  0
  1  6  1  0  0  0  0
  2  1  2  0  0  0  0
  2  3  1  0  0  0  0
  3  7  1  0  0  0  0
  3  4  2  0  0  0  0
  4  5  1  0  0  0  0
  5  8  1  0  0  0  0
  6  5  2  0  0  0  0
  9 14  1  6  0  0  0
  9 10  1  0  0  0  0
  9 19  1  0  0  0  0
 10 15  1  6  0  0  0
 10  2  1  0  0  0  0
 11 10  1  0  0  0  0
 11 12  1  0  0  0  0
 12 17  1  0  0  0  0
 13 18  1  1  0  0  0
 13  9  1  0  0  0  0
 13 12  1  0  0  0  0
 16 12  1  0  0  0  0
 19 20  1  0  0  0  0
 21 13  1  0  0  0  0
 22 21  1  0  0  0  0
 23 24  1  0  0  0  0
 23  1  1  0  0  0  0
 25 23  1  0  0  0  0
 26 27  1  0  0  0  0
 27 28  1  0  0  0  0
 28 29  2  0  0  0  0
 28 23  1  0  0  0  0
 29 33  1  0  0  0  0
 30 34  1  0  0  0  0
 30 29  1  0  0  0  0
 31 30  2  0  0  0  0
 32 31  1  0  0  0  0
 32 27  2  0  0  0  0
 35 31  1  0  0  0  0
 36 37  1  0  0  0  0
 36 32  1  0  0  0  0
 37 38  1  0  0  0  0
 39 37  1  0  0  0  0
 40 39  1  0  0  0  0
 41 42  1  0  0  0  0
 41 37  1  0  0  0  0
M  END
>  <minimizedAffinity>
-5.57564306

>  <minimizedRMSD>
0.735636652

$$$$
