
 OpenBabel03252501053D

 38 40  0  0  1  0  0  0  0  0999 V2000
   48.5060   32.3970   38.1560 O   0  0  0  0  0  0  0  0  0  0  0  0
   48.0540   33.8540   38.2420 P   0  0  2  0  0  0  0  0  0  0  0  0
   49.3210   34.7560   37.5660 O   0  0  0  0  0  0  0  0  0  0  0  0
   49.0030   35.6960   37.5070 H   0  0  0  0  0  0  0  0  0  0  0  0
   47.6380   34.2870   39.7630 O   0  0  0  0  0  0  0  0  0  0  0  0
   48.1730   35.3510   41.8710 C   0  0  1  0  0  0  0  0  0  0  0  0
   49.2540   34.3780   41.6710 C   0  0  0  0  0  0  0  0  0  0  0  0
   48.5070   35.0200   40.4880 C   0  0  1  0  0  0  0  0  0  0  0  0
   48.4210   36.3410   42.2820 H   0  0  0  0  0  0  0  0  0  0  0  0
   49.0930   33.2690   41.7470 H   0  0  0  0  0  0  0  0  0  0  0  0
   50.3180   34.6410   41.8120 H   0  0  0  0  0  0  0  0  0  0  0  0
   49.1750   35.6830   39.9080 H   0  0  0  0  0  0  0  0  0  0  0  0
   45.6730   32.9290   43.3680 C   0  0  0  0  0  0  0  0  0  0  0  0
   46.8710   33.4530   42.8930 C   0  0  0  0  0  0  0  0  0  0  0  0
   46.8920   34.7720   42.4010 C   0  0  0  0  0  0  0  0  0  0  0  0
   45.7410   35.4910   42.4040 N   0  0  0  0  0  0  0  0  0  0  0  0
   44.5850   34.9610   42.8700 C   0  0  0  0  0  0  0  0  0  0  0  0
   44.5490   33.6860   43.3500 N   0  0  0  0  0  0  0  0  0  0  0  0
   45.6660   31.9160   43.7440 H   0  0  0  0  0  0  0  0  0  0  0  0
   47.7480   32.8430   42.9140 H   0  0  0  0  0  0  0  0  0  0  0  0
   43.7140   35.6150   42.8330 H   0  0  0  0  0  0  0  0  0  0  0  0
   46.7440   33.9670   37.1980 O   0  0  0  0  0  0  0  0  0  0  0  0
   45.7180   33.0360   37.1420 C   0  0  0  0  0  0  0  0  0  0  0  0
   45.6210   31.9170   36.3340 C   0  0  0  0  0  0  0  0  0  0  0  0
   44.5360   31.1000   36.4040 C   0  0  0  0  0  0  0  0  0  0  0  0
   43.5010   31.3550   37.2770 C   0  0  0  0  0  0  0  0  0  0  0  0
   43.6350   32.4950   38.0770 C   0  0  0  0  0  0  0  0  0  0  0  0
   44.7270   33.3070   37.9980 N   0  0  0  0  0  0  0  0  0  0  0  0
   46.4680   31.7770   35.6730 H   0  0  0  0  0  0  0  0  0  0  0  0
   44.5250   30.2430   35.7430 H   0  0  0  0  0  0  0  0  0  0  0  0
   42.6490   30.7210   37.3370 H   0  0  0  0  0  0  0  0  0  0  0  0
   42.5210   32.7750   39.0210 C   0  0  0  0  0  2  0  0  0  0  0  0
   42.8940   32.8150   40.3990 N   0  0  0  0  0  4  0  0  0  0  0  0
   43.6730   33.4810   40.6070 H   0  0  0  0  0  0  0  0  0  0  0  0
   41.7570   33.3280   41.1500 C   0  0  0  0  0  2  0  0  0  0  0  0
   40.8180   33.2320   40.5420 H   0  0  0  0  0  0  0  0  0  0  0  0
   43.1590   31.4880   40.9260 C   0  0  0  0  0  2  0  0  0  0  0  0
   42.1620   31.0070   41.1280 H   0  0  0  0  0  0  0  0  0  0  0  0
  2  1  2  1  0  0  0
  2  5  1  0  0  0  0
  3  2  1  0  0  0  0
  4  3  1  0  0  0  0
  5  8  1  0  0  0  0
  6  9  1  1  0  0  0
  6 15  1  0  0  0  0
  7 10  1  0  0  0  0
  7 11  1  0  0  0  0
  7  6  1  0  0  0  0
  8 12  1  6  0  0  0
  8  7  1  0  0  0  0
  8  6  1  0  0  0  0
 13 19  1  0  0  0  0
 14 20  1  0  0  0  0
 14 13  2  0  0  0  0
 15 16  2  0  0  0  0
 15 14  1  0  0  0  0
 16 17  1  0  0  0  0
 17 18  2  0  0  0  0
 18 13  1  0  0  0  0
 21 17  1  0  0  0  0
 22  2  1  0  0  0  0
 23 22  1  0  0  0  0
 23 28  1  0  0  0  0
 24 25  1  0  0  0  0
 24 23  2  0  0  0  0
 25 26  2  0  0  0  0
 26 31  1  0  0  0  0
 26 27  1  0  0  0  0
 27 32  1  0  0  0  0
 28 27  2  0  0  0  0
 29 24  1  0  0  0  0
 30 25  1  0  0  0  0
 32 33  1  0  0  0  0
 33 34  1  0  0  0  0
 33 37  1  0  0  0  0
 33 35  1  0  0  0  0
 36 35  1  0  0  0  0
 37 38  1  0  0  0  0
M  END
>  <minimizedAffinity>
-4.34672546

>  <minimizedRMSD>
0.839556813

$$$$
