
 OpenBabel03252501063D

 38 40  0  0  1  0  0  0  0  0999 V2000
   48.5400   32.4220   38.1300 O   0  0  0  0  0  0  0  0  0  0  0  0
   48.0690   33.8710   38.2430 P   0  0  2  0  0  0  0  0  0  0  0  0
   49.3210   34.8000   37.5760 O   0  0  0  0  0  0  0  0  0  0  0  0
   48.9900   35.7370   37.5350 H   0  0  0  0  0  0  0  0  0  0  0  0
   47.6580   34.2730   39.7740 O   0  0  0  0  0  0  0  0  0  0  0  0
   48.1650   35.3600   41.8760 C   0  0  1  0  0  0  0  0  0  0  0  0
   49.2850   34.4350   41.6670 C   0  0  0  0  0  0  0  0  0  0  0  0
   48.5000   35.0430   40.4910 C   0  0  1  0  0  0  0  0  0  0  0  0
   48.3740   36.3610   42.2850 H   0  0  0  0  0  0  0  0  0  0  0  0
   49.1730   33.3200   41.7450 H   0  0  0  0  0  0  0  0  0  0  0  0
   50.3380   34.7430   41.7980 H   0  0  0  0  0  0  0  0  0  0  0  0
   49.1340   35.7330   39.9040 H   0  0  0  0  0  0  0  0  0  0  0  0
   45.7930   32.8470   43.4310 C   0  0  0  0  0  0  0  0  0  0  0  0
   46.9630   33.4230   42.9460 C   0  0  0  0  0  0  0  0  0  0  0  0
   46.9140   34.7270   42.4180 C   0  0  0  0  0  0  0  0  0  0  0  0
   45.7270   35.3830   42.3980 N   0  0  0  0  0  0  0  0  0  0  0  0
   44.5990   34.8030   42.8760 C   0  0  0  0  0  0  0  0  0  0  0  0
   44.6300   33.5420   43.3900 N   0  0  0  0  0  0  0  0  0  0  0  0
   45.8400   31.8450   43.8340 H   0  0  0  0  0  0  0  0  0  0  0  0
   47.8720   32.8620   42.9850 H   0  0  0  0  0  0  0  0  0  0  0  0
   43.6940   35.4070   42.8180 H   0  0  0  0  0  0  0  0  0  0  0  0
   46.7520   33.9850   37.2090 O   0  0  0  0  0  0  0  0  0  0  0  0
   45.7570   33.0240   37.1160 C   0  0  0  0  0  0  0  0  0  0  0  0
   45.6650   31.9700   36.2270 C   0  0  0  0  0  0  0  0  0  0  0  0
   44.6120   31.1100   36.2710 C   0  0  0  0  0  0  0  0  0  0  0  0
   43.6040   31.2590   37.1980 C   0  0  0  0  0  0  0  0  0  0  0  0
   43.7310   32.3370   38.0820 C   0  0  0  0  0  0  0  0  0  0  0  0
   44.7920   33.1910   38.0270 N   0  0  0  0  0  0  0  0  0  0  0  0
   46.4900   31.9120   35.5250 H   0  0  0  0  0  0  0  0  0  0  0  0
   44.6040   30.3080   35.5450 H   0  0  0  0  0  0  0  0  0  0  0  0
   42.7780   30.5900   37.2390 H   0  0  0  0  0  0  0  0  0  0  0  0
   42.6470   32.5000   39.0840 C   0  0  0  0  0  2  0  0  0  0  0  0
   43.0800   32.5020   40.4470 N   0  0  0  0  0  4  0  0  0  0  0  0
   43.7540   33.2670   40.6740 H   0  0  0  0  0  0  0  0  0  0  0  0
   41.9160   32.7720   41.2800 C   0  0  0  0  0  2  0  0  0  0  0  0
   40.9740   32.5720   40.7030 H   0  0  0  0  0  0  0  0  0  0  0  0
   43.5740   31.2000   40.8560 C   0  0  0  0  0  2  0  0  0  0  0  0
   42.6770   30.5530   41.0600 H   0  0  0  0  0  0  0  0  0  0  0  0
  2  1  2  1  0  0  0
  2  5  1  0  0  0  0
  3  2  1  0  0  0  0
  4  3  1  0  0  0  0
  5  8  1  0  0  0  0
  6  9  1  1  0  0  0
  6 15  1  0  0  0  0
  7 10  1  0  0  0  0
  7 11  1  0  0  0  0
  7  6  1  0  0  0  0
  8 12  1  6  0  0  0
  8  7  1  0  0  0  0
  8  6  1  0  0  0  0
 13 19  1  0  0  0  0
 14 20  1  0  0  0  0
 14 13  2  0  0  0  0
 15 14  1  0  0  0  0
 16 15  2  0  0  0  0
 16 17  1  0  0  0  0
 17 18  2  0  0  0  0
 18 13  1  0  0  0  0
 21 17  1  0  0  0  0
 22  2  1  0  0  0  0
 23 22  1  0  0  0  0
 23 28  1  0  0  0  0
 24 25  1  0  0  0  0
 24 23  2  0  0  0  0
 25 26  2  0  0  0  0
 26 31  1  0  0  0  0
 26 27  1  0  0  0  0
 27 32  1  0  0  0  0
 28 27  2  0  0  0  0
 29 24  1  0  0  0  0
 30 25  1  0  0  0  0
 32 33  1  0  0  0  0
 33 34  1  0  0  0  0
 33 37  1  0  0  0  0
 33 35  1  0  0  0  0
 36 35  1  0  0  0  0
 37 38  1  0  0  0  0
M  END
>  <minimizedAffinity>
-4.29099083

>  <minimizedRMSD>
0.720338583

$$$$
